x0771_0-x0195_0
     RDKit          3D

 27 29  0  0  0  0  0  0  0  0999 V2000
    9.4980   -0.4630   24.7540 C   0  0  0  0  0  0  0  0  0  0  0  0
    8.6740   -1.6010   24.4360 C   0  0  0  0  0  0  0  0  0  0  0  0
    7.7230   -1.5330   23.2780 C   0  0  0  0  0  0  0  0  0  0  0  0
   10.8270   -0.4510   24.1240 N   0  0  0  0  0  0  0  0  0  0  0  0
   11.2500    0.7750   23.7450 C   0  0  0  0  0  0  0  0  0  0  0  0
   11.1210   -1.5180   23.3250 C   0  0  0  0  0  0  0  0  0  0  0  0
    7.8140   -2.7020   22.2650 C   0  0  0  0  0  0  0  0  0  0  0  0
   12.5010    0.9460   23.1720 C   0  0  0  0  0  0  0  0  0  0  0  0
   12.4880   -1.3320   22.7030 C   0  0  0  0  0  0  0  0  0  0  0  0
   10.4700    2.0850   23.8870 C   0  0  0  0  0  0  0  0  0  0  0  0
   13.2030   -0.1820   23.0310 C   0  0  0  0  0  0  0  0  0  0  0  0
   13.0320    2.1550   22.7630 C   0  0  0  0  0  0  0  0  0  0  0  0
   11.0770    3.2820   23.4380 C   0  0  0  0  0  0  0  0  0  0  0  0
    7.2510   -4.0520   22.7880 C   0  0  2  0  0  0  0  0  0  0  0  0
   10.2670    4.8720   23.5470 S   0  0  0  0  0  0  0  0  0  0  0  0
   12.3280    3.3220   22.8880 C   0  0  0  0  0  0  0  0  0  0  0  0
    6.7620   -4.8630   21.6360 N   0  0  0  0  0  0  0  0  0  0  0  0
    6.2720   -3.9090   23.7790 C   0  0  0  0  0  0  0  0  0  0  0  0
    9.9200    5.2600   24.8880 O   0  0  0  0  0  0  0  0  0  0  0  0
    9.0040    4.9010   22.5890 O   0  0  0  0  0  0  0  0  0  0  0  0
   11.4070    5.9560   22.9490 N   0  0  0  0  0  0  0  0  0  0  0  0
    6.3790   -4.2720   20.4150 C   0  0  0  0  0  0  0  0  0  0  0  0
    5.7700   -5.1980   24.2740 N   0  0  0  0  0  0  0  0  0  0  0  0
    6.0750   -6.1110   21.9840 C   0  0  0  0  0  0  0  0  0  0  0  0
    5.2970   -4.5450   19.9130 O   0  0  0  0  0  0  0  0  0  0  0  0
    7.2650   -3.3090   19.6150 C   0  0  0  0  0  0  0  0  0  0  0  0
    5.1270   -5.9280   23.1750 C   0  0  0  0  0  0  0  0  0  0  0  0
  1  2  1  0
  2  3  1  0
  1  4  1  0
  4  5  1  0
  4  6  1  0
  3  7  1  0
  5  8  2  0
  6  9  1  0
  5 10  1  0
  8 11  1  0
  9 11  1  0
  8 12  1  0
 10 13  2  0
 14  7  1  6
 13 15  1  0
 12 16  2  0
 13 16  1  0
 14 17  1  0
 14 18  1  0
 15 19  2  0
 15 20  2  0
 15 21  1  0
 17 22  1  0
 18 23  1  0
 17 24  1  0
 22 25  2  0
 22 26  1  0
 23 27  1  0
 24 27  1  0
M  END
