x0770_1-x1374_1-x1418_1-x1334_1-x1385_1-x0692_1-x1386_1-x0831_1-x1412_1-x1334_0-x0397_0-x0426_1-x0831_0
     RDKit          3D

 43 48  0  0  0  0  0  0  0  0999 V2000
    2.0550   -7.1590   23.5920 O   0  0  0  0  0  0  0  0  0  0  0  0
    2.4300   -7.4880   24.9190 C   0  0  0  0  0  0  0  0  0  0  0  0
    3.8020   -7.8410   24.9050 O   0  0  0  0  0  0  0  0  0  0  0  0
    4.4630   -7.1930   23.8360 C   0  0  0  0  0  0  0  0  0  0  0  0
    4.9360   -5.9300   24.2610 C   0  0  0  0  0  0  0  0  0  0  0  0
    6.1000   -5.6310   23.3810 C   0  0  2  0  0  0  0  0  0  0  0  0
    5.9100   -4.7940   22.3790 C   0  0  2  0  0  0  0  0  0  0  0  0
    6.3760   -6.3390   22.1420 C   0  0  0  0  0  0  0  0  0  0  0  0
    6.7910   -3.6080   22.2790 C   0  0  1  0  0  0  0  0  0  0  0  0
    6.2880   -2.6960   21.2420 N   0  0  0  0  0  0  0  0  0  0  0  0
    6.8610   -2.9650   23.5030 C   0  0  0  0  0  0  0  0  0  0  0  0
    6.1810   -3.3140   19.9840 C   0  0  0  0  0  0  0  0  0  0  0  0
    7.9500   -1.9830   23.5480 N   0  0  0  0  0  0  0  0  0  0  0  0
    7.1090   -1.4340   21.2400 C   0  0  1  0  0  0  0  0  0  0  0  0
    7.1990   -3.0000   18.8970 C   0  0  0  0  0  0  0  0  0  0  0  0
    5.3020   -4.1510   19.7450 O   0  0  0  0  0  0  0  0  0  0  0  0
    6.3690   -0.1090   21.5140 C   0  0  2  0  0  0  0  0  0  0  0  0
    9.1250   -2.4920   24.3020 C   0  0  2  0  0  0  0  0  0  0  0  0
    8.3160   -1.5910   22.1810 C   0  0  0  0  0  0  0  0  0  0  0  0
    5.1490   -0.0970   22.4780 C   0  0  0  0  0  0  0  0  0  0  0  0
   10.3180   -2.5060   23.3950 C   0  0  0  0  0  0  0  0  0  0  0  0
    5.9290    0.4980   20.1740 C   0  0  0  0  0  0  0  0  0  0  0  0
    8.9630   -3.7130   25.1980 C   0  0  0  0  0  0  0  0  0  0  0  0
    4.5380    1.3410   22.5520 C   0  0  2  0  0  0  0  0  0  0  0  0
    4.7770    1.3190   20.0790 C   0  0  0  0  0  0  0  0  0  0  0  0
    6.6700    0.2520   19.0020 C   0  0  0  0  0  0  0  0  0  0  0  0
    9.6540   -4.9040   25.1700 C   0  0  0  0  0  0  0  0  0  0  0  0
    7.8260   -3.7630   26.4850 S   0  0  0  0  0  0  0  0  0  0  0  0
   10.9780   -1.1440   23.4020 C   0  0  0  0  0  0  0  0  0  0  0  0
    3.5720    1.5090   23.6190 N   0  0  0  0  0  0  0  0  0  0  0  0
    3.8880    1.6660   21.2200 C   0  0  0  0  0  0  0  0  0  0  0  0
    4.4570    1.8750   18.7060 C   0  0  0  0  0  0  0  0  0  0  0  0
    6.4230    0.7200   17.7600 N   0  0  0  0  0  0  0  0  0  0  0  0
    9.2250   -5.8020   26.2130 C   0  0  0  0  0  0  0  0  0  0  0  0
    8.2590   -5.3360   26.9960 C   0  0  0  0  0  0  0  0  0  0  0  0
   10.3650   -0.1140   24.0860 C   0  0  0  0  0  0  0  0  0  0  0  0
   12.2860   -0.9300   22.6830 C   0  0  0  0  0  0  0  0  0  0  0  0
    7.4560   -6.0350   28.3340 Cl  0  0  0  0  0  0  0  0  0  0  0  0
   13.0610   -1.9260   21.9000 C   0  0  0  0  0  0  0  0  0  0  0  0
    5.3630    1.5080   17.6100 C   0  0  0  0  0  0  0  0  0  0  0  0
   10.9690    1.1670   24.1180 C   0  0  0  0  0  0  0  0  0  0  0  0
   12.7780    0.3630   22.8010 C   0  0  0  0  0  0  0  0  0  0  0  0
   12.1660    1.4100   23.4850 C   0  0  0  0  0  0  0  0  0  0  0  0
  1  2  1  0
  2  3  1  0
  3  4  1  0
  4  5  1  0
  6  5  1  6
  6  7  1  0
  6  8  1  0
  7  8  1  6
  7  9  1  0
  9 10  1  0
  9 11  1  1
 10 12  1  0
 11 13  1  0
 10 14  1  0
 12 15  1  0
 12 16  2  0
 14 17  1  0
 13 18  1  0
 13 19  1  0
 14 19  1  1
 17 20  1  1
 18 21  1  6
 17 22  1  0
 18 23  1  0
 20 24  1  0
 22 25  2  0
 22 26  1  0
 23 27  2  0
 23 28  1  0
 21 29  1  0
 24 30  1  1
 24 31  1  0
 25 31  1  0
 25 32  1  0
 26 33  2  0
 27 34  1  0
 28 35  1  0
 34 35  2  0
 29 36  2  0
 29 37  1  0
 35 38  1  0
 37 39  1  0
 32 40  2  0
 33 40  1  0
 36 41  1  0
 37 42  2  0
 41 43  2  0
 42 43  1  0
M  END
