x0770_1-x0692_1-x0397_0-x1334_1-x1334_0-x1418_1-x0831_1-x1375_1-x0434_2-x1412_1-x0426_1-x0831_0-x1385_1
     RDKit          3D

 43 48  0  0  0  0  0  0  0  0999 V2000
    2.2290   -7.1490   24.5980 O   0  0  0  0  0  0  0  0  0  0  0  0
    3.3400   -7.4950   25.4110 C   0  0  0  0  0  0  0  0  0  0  0  0
    4.4380   -7.5610   24.5280 O   0  0  0  0  0  0  0  0  0  0  0  0
    4.3330   -6.4950   23.5660 C   0  0  0  0  0  0  0  0  0  0  0  0
    5.6500   -5.9060   23.1150 C   0  0  2  0  0  0  0  0  0  0  0  0
    5.6810   -4.7050   22.3310 C   0  0  2  0  0  0  0  0  0  0  0  0
    6.0620   -6.2530   21.8880 C   0  0  0  0  0  0  0  0  0  0  0  0
    6.7430   -3.6340   22.3260 C   0  0  1  0  0  0  0  0  0  0  0  0
    6.4780   -2.6940   21.2180 N   0  0  0  0  0  0  0  0  0  0  0  0
    6.9840   -2.9300   23.5040 C   0  0  0  0  0  0  0  0  0  0  0  0
    6.2730   -3.2950   19.9580 C   0  0  0  0  0  0  0  0  0  0  0  0
    8.3290   -2.3620   23.4760 N   0  0  0  0  0  0  0  0  0  0  0  0
    7.3350   -1.4910   21.2440 C   0  0  1  0  0  0  0  0  0  0  0  0
    7.2980   -2.9750   18.8710 C   0  0  0  0  0  0  0  0  0  0  0  0
    5.3470   -4.0900   19.7390 O   0  0  0  0  0  0  0  0  0  0  0  0
    6.6110   -0.1210   21.4530 C   0  0  1  0  0  0  0  0  0  0  0  0
    9.3810   -3.3350   23.8150 C   0  0  1  0  0  0  0  0  0  0  0  0
    8.5900   -1.6800   22.1280 C   0  0  0  0  0  0  0  0  0  0  0  0
    5.4830   -0.0910   22.5490 C   0  0  0  0  0  0  0  0  0  0  0  0
   10.7750   -2.7280   24.0410 C   0  0  0  0  0  0  0  0  0  0  0  0
    7.6850    0.9350   21.8710 C   0  0  0  0  0  0  0  0  0  0  0  0
    6.1010    0.4480   20.1300 C   0  0  0  0  0  0  0  0  0  0  0  0
    9.0680   -4.2130   25.0380 C   0  0  0  0  0  0  0  0  0  0  0  0
    4.7900    1.3140   22.5750 C   0  0  2  0  0  0  0  0  0  0  0  0
    4.8350    1.2810   20.0870 C   0  0  0  0  0  0  0  0  0  0  0  0
    6.7530    0.2410   18.9440 C   0  0  0  0  0  0  0  0  0  0  0  0
    9.7140   -5.4170   25.3010 C   0  0  0  0  0  0  0  0  0  0  0  0
    7.8980   -3.8430   26.2510 S   0  0  0  0  0  0  0  0  0  0  0  0
   11.0330   -1.2570   23.9260 C   0  0  0  0  0  0  0  0  0  0  0  0
    3.8660    1.4300   23.6880 N   0  0  0  0  0  0  0  0  0  0  0  0
    4.0220    1.5740   21.3040 C   0  0  0  0  0  0  0  0  0  0  0  0
    4.4120    1.8320   18.7120 C   0  0  0  0  0  0  0  0  0  0  0  0
    6.4210    0.6920   17.7420 N   0  0  0  0  0  0  0  0  0  0  0  0
    9.2350   -5.9860   26.4590 C   0  0  0  0  0  0  0  0  0  0  0  0
    8.2460   -5.2670   27.0970 C   0  0  0  0  0  0  0  0  0  0  0  0
   10.3740   -0.1450   24.4680 C   0  0  0  0  0  0  0  0  0  0  0  0
   12.2400   -0.7670   23.0830 C   0  0  0  0  0  0  0  0  0  0  0  0
    7.4050   -5.6530   28.5290 Cl  0  0  0  0  0  0  0  0  0  0  0  0
   13.1060   -1.7630   22.3770 C   0  0  0  0  0  0  0  0  0  0  0  0
    5.3160    1.4410   17.6850 C   0  0  0  0  0  0  0  0  0  0  0  0
   10.7720    1.1730   24.2620 C   0  0  0  0  0  0  0  0  0  0  0  0
   12.5990    0.5400   22.9200 C   0  0  0  0  0  0  0  0  0  0  0  0
   11.8660    1.5510   23.5090 C   0  0  0  0  0  0  0  0  0  0  0  0
  1  2  1  0
  2  3  1  0
  3  4  1  0
  5  4  1  6
  5  6  1  0
  5  7  1  0
  6  7  1  6
  6  8  1  0
  8  9  1  0
  8 10  1  1
  9 11  1  0
 10 12  1  0
  9 13  1  0
 11 14  1  0
 11 15  2  0
 13 16  1  0
 12 17  1  0
 12 18  1  0
 13 18  1  1
 16 19  1  0
 17 20  1  1
 16 21  1  1
 16 22  1  0
 17 23  1  0
 19 24  1  0
 22 25  2  0
 22 26  1  0
 23 27  2  0
 23 28  1  0
 20 29  1  0
 24 30  1  1
 24 31  1  0
 25 31  1  0
 25 32  1  0
 26 33  2  0
 27 34  1  0
 28 35  1  0
 34 35  2  0
 29 36  2  0
 29 37  1  0
 35 38  1  0
 37 39  1  0
 32 40  2  0
 33 40  1  0
 36 41  1  0
 37 42  2  0
 41 43  2  0
 42 43  1  0
M  END
