x0771_0-x0692_0
     RDKit          3D

 18 19  0  0  0  0  0  0  0  0999 V2000
    6.3650   -4.1450   20.3610 C   0  0  0  0  0  0  0  0  0  0  0  0
    7.2850   -3.2390   19.5500 C   0  0  0  0  0  0  0  0  0  0  0  0
    5.2900   -4.4510   19.8710 O   0  0  0  0  0  0  0  0  0  0  0  0
    6.7930   -4.6490   21.6080 N   0  0  0  0  0  0  0  0  0  0  0  0
    6.3210   -5.8660   22.0430 C   0  0  0  0  0  0  0  0  0  0  0  0
    6.9960   -3.6890   22.7140 C   0  0  2  0  0  0  0  0  0  0  0  0
    8.2630   -2.7830   22.5140 C   0  0  0  0  0  0  0  0  0  0  0  0
    5.3590   -5.9530   23.2170 C   0  0  0  0  0  0  0  0  0  0  0  0
    6.9990   -4.3690   24.0750 C   0  0  0  0  0  0  0  0  0  0  0  0
    9.1640   -2.5240   23.7560 C   0  0  0  0  0  0  0  0  0  0  0  0
    5.8020   -5.1750   24.3960 N   0  0  0  0  0  0  0  0  0  0  0  0
   10.3980   -1.5560   23.5670 C   0  0  0  0  0  0  0  0  0  0  0  0
   10.1520   -0.2010   23.7520 C   0  0  0  0  0  0  0  0  0  0  0  0
   11.7040   -1.9610   23.2230 C   0  0  0  0  0  0  0  0  0  0  0  0
   11.1450    0.7590   23.6030 C   0  0  0  0  0  0  0  0  0  0  0  0
   12.7290   -1.0070   23.0710 C   0  0  0  0  0  0  0  0  0  0  0  0
   10.9200    2.2240   23.7750 C   0  0  0  0  0  0  0  0  0  0  0  0
   12.4350    0.3450   23.2640 C   0  0  0  0  0  0  0  0  0  0  0  0
  1  2  1  0
  1  3  2  0
  1  4  1  0
  4  5  1  0
  4  6  1  0
  6  7  1  6
  5  8  1  0
  6  9  1  0
  7 10  1  0
  8 11  1  0
  9 11  1  0
 10 12  1  0
 12 13  2  0
 12 14  1  0
 13 15  1  0
 14 16  2  0
 15 17  1  0
 15 18  2  0
 16 18  1  0
M  END
