x0770_1-x1385_1-x0540_3-x0831_0-x0692_1-x0734_0
     RDKit          3D

 34 37  0  0  0  0  0  0  0  0999 V2000
    6.2430   -3.5200   20.1220 C   0  0  0  0  0  0  0  0  0  0  0  0
    7.2000   -3.0300   19.0090 C   0  0  0  0  0  0  0  0  0  0  0  0
    5.4010   -4.3800   19.8600 O   0  0  0  0  0  0  0  0  0  0  0  0
    6.3170   -2.9900   21.4350 N   0  0  0  0  0  0  0  0  0  0  0  0
    6.8170   -1.6010   21.5410 C   0  0  1  0  0  0  0  0  0  0  0  0
    6.8530   -3.8420   22.5230 C   0  0  2  0  0  0  0  0  0  0  0  0
    5.8490   -0.8040   22.4470 C   0  0  0  0  0  0  0  0  0  0  0  0
    6.3920   -3.7550   24.0070 C   0  0  1  0  0  0  0  0  0  0  0  0
    8.3600   -1.5080   21.8210 C   0  0  0  0  0  0  0  0  0  0  0  0
    8.1860   -3.7110   22.5550 C   0  0  0  0  0  0  0  0  0  0  0  0
    5.0570    0.2950   21.7370 C   0  0  0  0  0  0  0  0  0  0  0  0
    4.9950   -4.2530   24.3340 C   0  0  0  0  0  0  0  0  0  0  0  0
    8.5960   -2.3600   22.9580 N   0  0  0  0  0  0  0  0  0  0  0  0
    7.2840   -4.4640   25.0350 C   0  0  0  0  0  0  0  0  0  0  0  0
    5.3390    1.6720   22.4410 C   0  0  0  0  0  0  0  0  0  0  0  0
    5.0510   -4.6390   25.8280 C   0  0  2  0  0  0  0  0  0  0  0  0
   10.0140   -2.3940   23.3030 C   0  0  0  0  0  0  0  0  0  0  0  0
    8.6730   -4.6710   25.0670 C   0  0  0  0  0  0  0  0  0  0  0  0
    6.4900   -4.9430   26.0720 C   0  0  0  0  0  0  0  0  0  0  0  0
    4.1530    2.4930   22.5310 N   0  0  0  0  0  0  0  0  0  0  0  0
    4.2510   -5.8060   26.0170 O   0  0  0  0  0  0  0  0  0  0  0  0
    4.5600   -3.7380   26.6300 O   0  0  0  0  0  0  0  0  0  0  0  0
    9.2470   -5.3480   26.1450 C   0  0  0  0  0  0  0  0  0  0  0  0
    7.0640   -5.6120   27.1560 C   0  0  0  0  0  0  0  0  0  0  0  0
   10.7360   -1.0690   23.3520 C   0  0  0  0  0  0  0  0  0  0  0  0
    3.0150    2.1150   23.3660 C   0  0  0  0  0  0  0  0  0  0  0  0
    8.4360   -5.8020   27.1770 C   0  0  0  0  0  0  0  0  0  0  0  0
   10.0330    0.1080   24.1300 C   0  0  0  0  0  0  0  0  0  0  0  0
   12.0010   -0.8930   22.7340 C   0  0  0  0  0  0  0  0  0  0  0  0
    3.0270    1.4550   24.3880 O   0  0  0  0  0  0  0  0  0  0  0  0
   12.6860   -1.9950   21.9810 C   0  0  0  0  0  0  0  0  0  0  0  0
   10.8540    1.4140   24.1240 C   0  0  0  0  0  0  0  0  0  0  0  0
   12.7420    0.4820   22.8140 C   0  0  0  0  0  0  0  0  0  0  0  0
   12.2020    1.5040   23.4390 C   0  0  0  0  0  0  0  0  0  0  0  0
  1  2  1  0
  1  3  2  0
  1  4  1  0
  4  5  1  0
  4  6  1  0
  5  7  1  1
  6  8  1  0
  5  9  1  0
  6 10  1  1
  7 11  1  0
  8 12  1  6
  9 13  1  0
 10 13  1  0
  8 14  1  0
 11 15  1  0
 12 16  1  0
 13 17  1  0
 14 18  2  0
 14 19  1  0
 16 19  1  0
 15 20  1  0
 16 21  1  6
 16 22  1  0
 18 23  1  0
 19 24  2  0
 17 25  1  0
 20 26  1  0
 23 27  2  0
 24 27  1  0
 25 28  2  0
 25 29  1  0
 26 30  2  0
 29 31  1  0
 28 32  1  0
 29 33  2  0
 32 34  2  0
 33 34  1  0
M  CHG  1  22  -1
M  END
