x0770_1-x0736_1-x1385_1-x1412_0-x1386_0-x1334_1
     RDKit          3D

 22 24  0  0  0  0  0  0  0  0999 V2000
    6.1770   -3.3710   19.9180 C   0  0  0  0  0  0  0  0  0  0  0  0
    7.1550   -2.9910   18.8150 C   0  0  0  0  0  0  0  0  0  0  0  0
    5.2920   -4.2090   19.7500 O   0  0  0  0  0  0  0  0  0  0  0  0
    6.3410   -2.7410   21.1660 N   0  0  0  0  0  0  0  0  0  0  0  0
    7.3050   -1.6180   21.2630 C   0  0  0  0  0  0  0  0  0  0  0  0
    5.9980   -3.3990   22.4320 C   0  0  0  0  0  0  0  0  0  0  0  0
    8.4960   -1.9490   22.2100 C   0  0  0  0  0  0  0  0  0  0  0  0
    7.2460   -3.8080   23.2280 C   0  0  0  0  0  0  0  0  0  0  0  0
    8.1490   -2.6710   23.4400 N   0  0  0  0  0  0  0  0  0  0  0  0
    8.9820   -2.5190   24.6450 C   0  0  2  0  0  0  0  0  0  0  0  0
    8.9100   -1.5050   25.3150 O   0  0  0  0  0  0  0  0  0  0  0  0
   10.4680   -2.6860   24.1790 C   0  0  0  0  0  0  0  0  0  0  0  0
    8.8600   -3.7000   25.6410 C   0  0  0  0  0  0  0  0  0  0  0  0
    9.9220   -4.8140   25.7100 C   0  0  0  0  0  0  0  0  0  0  0  0
    7.5110   -3.7950   26.7340 S   0  0  0  0  0  0  0  0  0  0  0  0
   11.2570   -1.4560   23.8390 C   0  0  0  0  0  0  0  0  0  0  0  0
    9.2320   -5.5960   26.8380 C   0  0  0  0  0  0  0  0  0  0  0  0
    8.0650   -5.2200   27.4290 C   0  0  0  0  0  0  0  0  0  0  0  0
   12.4200   -1.4870   22.9000 C   0  0  0  0  0  0  0  0  0  0  0  0
   11.0340   -0.1770   24.3230 C   0  0  0  0  0  0  0  0  0  0  0  0
   12.9940   -0.1140   22.7680 C   0  0  0  0  0  0  0  0  0  0  0  0
   12.1300    0.9970   23.7150 S   0  0  0  0  0  0  0  0  0  0  0  0
  1  2  1  0
  1  3  2  0
  1  4  1  0
  4  5  1  0
  4  6  1  0
  5  7  1  0
  6  8  1  0
  7  9  1  0
  8  9  1  0
  9 10  1  0
 10 11  1  1
 10 12  1  0
 10 13  1  0
 13 14  2  0
 13 15  1  0
 12 16  1  0
 14 17  1  0
 15 18  1  0
 17 18  2  0
 16 19  1  0
 16 20  2  0
 19 21  2  0
 20 22  1  0
 21 22  1  0
M  END
