x0771_0-x0387_0
     RDKit          3D

 17 18  0  0  0  0  0  0  0  0999 V2000
    6.3540   -4.2190   20.4600 C   0  0  0  0  0  0  0  0  0  0  0  0
    7.2880   -3.2640   19.7020 C   0  0  0  0  0  0  0  0  0  0  0  0
    5.3010   -4.5230   19.9050 O   0  0  0  0  0  0  0  0  0  0  0  0
    6.6270   -4.8200   21.7040 N   0  0  0  0  0  0  0  0  0  0  0  0
    6.1160   -6.1740   22.0690 C   0  0  0  0  0  0  0  0  0  0  0  0
    7.1000   -4.0130   22.8520 C   0  0  1  0  0  0  0  0  0  0  0  0
    7.2260   -2.5010   22.5800 C   0  0  0  0  0  0  0  0  0  0  0  0
    5.0970   -6.0980   23.2000 C   0  0  0  0  0  0  0  0  0  0  0  0
    6.1980   -4.1280   24.1120 C   0  0  0  0  0  0  0  0  0  0  0  0
    8.6340   -1.9850   22.3060 C   0  0  0  0  0  0  0  0  0  0  0  0
    5.6600   -5.4610   24.3930 N   0  0  0  0  0  0  0  0  0  0  0  0
    9.4600   -1.7340   23.5840 C   0  0  0  0  0  0  0  0  0  0  0  0
   10.8460   -1.3320   23.2610 C   0  0  0  0  0  0  0  0  0  0  0  0
   11.5180   -0.3020   23.8770 C   0  0  0  0  0  0  0  0  0  0  0  0
   11.7080   -2.0120   22.1730 C   0  0  0  0  0  0  0  0  0  0  0  0
   12.7790   -0.1050   23.3980 C   0  0  0  0  0  0  0  0  0  0  0  0
   13.3160   -1.1740   22.1190 S   0  0  0  0  0  0  0  0  0  0  0  0
  1  2  1  0
  1  3  2  0
  1  4  1  0
  4  5  1  0
  4  6  1  0
  6  7  1  6
  5  8  1  0
  6  9  1  0
  7 10  1  0
  8 11  1  0
  9 11  1  0
 10 12  1  0
 12 13  1  0
 13 14  1  0
 13 15  2  0
 14 16  2  0
 15 17  1  0
 16 17  1  0
M  END
