x0770_1-x0397_0-x1334_1-x1334_0-x0426_1-x0692_1-x0434_2-x1418_1-x1385_1-x0831_1-x1374_1-x1386_1-x1412_1-x0831_0
     RDKit          3D

 44 49  0  0  0  0  0  0  0  0999 V2000
    1.9600   -7.2140   23.5710 O   0  0  0  0  0  0  0  0  0  0  0  0
    2.3230   -7.6410   24.8750 C   0  0  0  0  0  0  0  0  0  0  0  0
    3.7080   -7.9410   24.9120 O   0  0  0  0  0  0  0  0  0  0  0  0
    4.3880   -7.2960   23.8640 C   0  0  0  0  0  0  0  0  0  0  0  0
    4.7620   -6.0470   24.2430 C   0  0  0  0  0  0  0  0  0  0  0  0
    5.8160   -5.6050   23.2810 C   0  0  2  0  0  0  0  0  0  0  0  0
    5.4660   -4.6840   22.4340 C   0  0  2  0  0  0  0  0  0  0  0  0
    6.0190   -6.1920   22.1310 C   0  0  0  0  0  0  0  0  0  0  0  0
    6.3050   -3.4870   22.5080 C   0  0  2  0  0  0  0  0  0  0  0  0
    6.1190   -2.6190   21.3640 N   0  0  0  0  0  0  0  0  0  0  0  0
    7.6080   -3.9380   22.5900 C   0  0  0  0  0  0  0  0  0  0  0  0
    6.1860   -3.2920   20.0760 C   0  0  0  0  0  0  0  0  0  0  0  0
    8.6600   -2.9000   22.6710 N   0  0  0  0  0  0  0  0  0  0  0  0
    6.8980   -1.4340   21.7390 C   0  0  2  0  0  0  0  0  0  0  0  0
    7.2090   -2.9350   18.9850 C   0  0  0  0  0  0  0  0  0  0  0  0
    5.3990   -4.2190   19.8220 O   0  0  0  0  0  0  0  0  0  0  0  0
    6.2680   -0.0220   21.6660 C   0  0  1  0  0  0  0  0  0  0  0  0
    9.1970   -2.6780   23.9100 C   0  0  2  0  0  0  0  0  0  0  0  0
    8.4090   -1.7400   21.7900 C   0  0  0  0  0  0  0  0  0  0  0  0
    5.0670    0.1260   22.6330 C   0  0  0  0  0  0  0  0  0  0  0  0
   10.6500   -2.3750   23.7500 C   0  0  0  0  0  0  0  0  0  0  0  0
    7.3180    1.0110   22.1660 C   0  0  0  0  0  0  0  0  0  0  0  0
    5.9340    0.4530   20.2570 C   0  0  0  0  0  0  0  0  0  0  0  0
    9.0050   -3.7680   24.9770 C   0  0  0  0  0  0  0  0  0  0  0  0
    4.4680    1.5320   22.5170 C   0  0  2  0  0  0  0  0  0  0  0  0
    4.6860    1.3070   20.0530 C   0  0  0  0  0  0  0  0  0  0  0  0
    6.8530    0.0900   19.0620 C   0  0  0  0  0  0  0  0  0  0  0  0
    9.8090   -5.0090   25.2180 C   0  0  0  0  0  0  0  0  0  0  0  0
    7.7590   -3.7860   26.2010 S   0  0  0  0  0  0  0  0  0  0  0  0
   11.1310   -0.9390   23.6280 C   0  0  0  0  0  0  0  0  0  0  0  0
    3.5600    1.8540   23.5930 N   0  0  0  0  0  0  0  0  0  0  0  0
    3.7680    1.6630   21.1830 C   0  0  0  0  0  0  0  0  0  0  0  0
    4.4960    1.7110   18.7810 C   0  0  0  0  0  0  0  0  0  0  0  0
    6.5660    0.5470   17.8260 N   0  0  0  0  0  0  0  0  0  0  0  0
    9.3930   -5.7740   26.2600 C   0  0  0  0  0  0  0  0  0  0  0  0
    8.2750   -5.2670   26.9370 C   0  0  0  0  0  0  0  0  0  0  0  0
   10.3770    0.1100   24.0270 C   0  0  0  0  0  0  0  0  0  0  0  0
   12.3430   -0.7740   23.1040 C   0  0  0  0  0  0  0  0  0  0  0  0
    7.4420   -5.8970   28.2930 Cl  0  0  0  0  0  0  0  0  0  0  0  0
   13.1200   -1.9730   22.6630 C   0  0  0  0  0  0  0  0  0  0  0  0
    5.4210    1.3480   17.6770 C   0  0  0  0  0  0  0  0  0  0  0  0
   10.8420    1.4670   23.9250 C   0  0  0  0  0  0  0  0  0  0  0  0
   12.9490    0.4400   22.9280 C   0  0  0  0  0  0  0  0  0  0  0  0
   12.2370    1.6830   23.3330 C   0  0  0  0  0  0  0  0  0  0  0  0
  1  2  1  0
  2  3  1  0
  3  4  1  0
  4  5  1  0
  6  5  1  1
  6  7  1  0
  6  8  1  0
  7  8  1  6
  7  9  1  0
  9 10  1  0
  9 11  1  6
 10 12  1  0
 11 13  1  0
 10 14  1  0
 12 15  1  0
 12 16  2  0
 14 17  1  0
 13 18  1  0
 13 19  1  0
 14 19  1  6
 17 20  1  0
 18 21  1  6
 17 22  1  1
 17 23  1  0
 18 24  1  0
 20 25  1  0
 23 26  2  0
 23 27  1  0
 24 28  2  0
 24 29  1  0
 21 30  1  0
 25 31  1  1
 25 32  1  0
 26 32  1  0
 26 33  1  0
 27 34  2  0
 28 35  1  0
 29 36  1  0
 35 36  2  0
 30 37  2  0
 30 38  1  0
 36 39  1  0
 38 40  1  0
 33 41  2  0
 34 41  1  0
 37 42  1  0
 38 43  2  0
 42 44  2  0
 43 44  1  0
M  END
