x0770_1-x1374_1-x1334_1-x0831_0-x0692_1-x1375_1-x0434_2-x0831_1-x1334_0-x1412_1-x1418_1-x0397_0-x1385_1
     RDKit          3D

 39 43  0  0  0  0  0  0  0  0999 V2000
    6.3560   -3.2960   19.7940 C   0  0  0  0  0  0  0  0  0  0  0  0
    7.2700   -3.0610   18.6100 C   0  0  0  0  0  0  0  0  0  0  0  0
    5.4590   -4.1580   19.7500 O   0  0  0  0  0  0  0  0  0  0  0  0
    6.6810   -2.4640   20.8380 N   0  0  0  0  0  0  0  0  0  0  0  0
    7.7510   -1.5810   20.6980 C   0  0  2  0  0  0  0  0  0  0  0  0
    6.3720   -2.9160   22.2150 C   0  0  2  0  0  0  0  0  0  0  0  0
    8.9300   -1.7980   21.6360 C   0  0  0  0  0  0  0  0  0  0  0  0
    7.6360   -3.1380   23.0630 C   0  0  0  0  0  0  0  0  0  0  0  0
    5.5680   -4.2260   22.2080 C   0  0  2  0  0  0  0  0  0  0  0  0
    7.3170   -0.1340   20.7280 C   0  0  0  0  0  0  0  0  0  0  0  0
    8.5100   -1.9880   22.9820 N   0  0  0  0  0  0  0  0  0  0  0  0
    6.0260   -5.3260   23.2290 C   0  0  2  0  0  0  0  0  0  0  0  0
    6.1210   -5.6940   22.0380 C   0  0  0  0  0  0  0  0  0  0  0  0
    7.0400    0.2300   19.4230 C   0  0  0  0  0  0  0  0  0  0  0  0
    9.6030   -1.9930   23.9180 C   0  0  1  0  0  0  0  0  0  0  0  0
    6.0210    0.4670   20.3150 C   0  0  0  0  0  0  0  0  0  0  0  0
    6.4670    0.6970   18.2230 N   0  0  0  0  0  0  0  0  0  0  0  0
    5.0510   -5.9310   24.1870 C   0  0  0  0  0  0  0  0  0  0  0  0
   10.2140   -3.3520   24.0470 C   0  0  0  0  0  0  0  0  0  0  0  0
   10.5950   -0.8330   23.6970 C   0  0  0  0  0  0  0  0  0  0  0  0
    5.2760    1.2510   17.9200 C   0  0  0  0  0  0  0  0  0  0  0  0
    4.7670    1.0070   20.1570 C   0  0  0  0  0  0  0  0  0  0  0  0
    4.6180   -7.1450   23.7170 C   0  0  0  0  0  0  0  0  0  0  0  0
   10.1960    0.5700   24.0760 C   0  0  0  0  0  0  0  0  0  0  0  0
   12.0220   -0.9200   23.0950 C   0  0  0  0  0  0  0  0  0  0  0  0
    9.5940   -4.2270   25.1290 C   0  0  0  0  0  0  0  0  0  0  0  0
    4.3540    1.4530   18.8000 C   0  0  0  0  0  0  0  0  0  0  0  0
    4.0820   -7.9310   24.7550 O   0  0  0  0  0  0  0  0  0  0  0  0
   12.6830   -2.1700   22.6190 C   0  0  0  0  0  0  0  0  0  0  0  0
   10.9650    1.6900   23.9340 C   0  0  0  0  0  0  0  0  0  0  0  0
   12.7890    0.3460   22.9810 C   0  0  0  0  0  0  0  0  0  0  0  0
    9.9390   -5.5070   25.4630 C   0  0  0  0  0  0  0  0  0  0  0  0
    8.2950   -3.7710   26.1870 S   0  0  0  0  0  0  0  0  0  0  0  0
    2.6690   -7.9440   24.7430 C   0  0  0  0  0  0  0  0  0  0  0  0
   12.3850    1.5670   23.3340 C   0  0  0  0  0  0  0  0  0  0  0  0
    9.2550   -6.0640   26.4630 C   0  0  0  0  0  0  0  0  0  0  0  0
    8.3000   -5.2890   27.0180 C   0  0  0  0  0  0  0  0  0  0  0  0
    2.1600   -7.0380   23.7860 O   0  0  0  0  0  0  0  0  0  0  0  0
    7.2370   -5.6510   28.3060 Cl  0  0  0  0  0  0  0  0  0  0  0  0
  1  2  1  0
  1  3  2  0
  1  4  1  0
  4  5  1  0
  4  6  1  0
  5  7  1  0
  6  8  1  1
  6  9  1  0
  5 10  1  1
  7 11  1  0
  8 11  1  0
  9 12  1  0
  9 13  1  6
 12 13  1  0
 10 14  1  0
 11 15  1  0
 14 16  2  0
 14 17  1  0
 12 18  1  1
 15 19  1  6
 15 20  1  0
 17 21  2  0
 16 22  1  0
 18 23  1  0
 20 24  2  0
 20 25  1  0
 19 26  1  0
 21 27  1  0
 22 27  2  0
 23 28  1  0
 25 29  1  0
 24 30  1  0
 25 31  2  0
 26 32  2  0
 26 33  1  0
 28 34  1  0
 30 35  2  0
 31 35  1  0
 32 36  1  0
 33 37  1  0
 36 37  2  0
 34 38  1  0
 37 39  1  0
M  END
