x0770_1-x0426_1-x1334_1-x1334_0-x0434_2-x0692_1-x1418_1-x1375_1-x1412_1-x0397_0-x1385_1-x0831_0-x1374_1
     RDKit          3D

 43 48  0  0  0  0  0  0  0  0999 V2000
    2.2480   -6.6360   24.5300 O   0  0  0  0  0  0  0  0  0  0  0  0
    3.0880   -7.2850   23.5930 C   0  0  0  0  0  0  0  0  0  0  0  0
    4.4030   -7.4240   24.1070 O   0  0  0  0  0  0  0  0  0  0  0  0
    4.9490   -6.1080   24.3490 C   0  0  0  0  0  0  0  0  0  0  0  0
    5.9030   -5.6030   23.2810 C   0  0  2  0  0  0  0  0  0  0  0  0
    5.4650   -4.8980   22.2870 C   0  0  2  0  0  0  0  0  0  0  0  0
    6.3190   -6.3050   22.2780 C   0  0  0  0  0  0  0  0  0  0  0  0
    6.0340   -3.4830   22.4950 C   0  0  2  0  0  0  0  0  0  0  0  0
    6.0900   -2.6110   21.3010 N   0  0  0  0  0  0  0  0  0  0  0  0
    7.3990   -3.6780   23.2050 C   0  0  0  0  0  0  0  0  0  0  0  0
    6.1410   -3.2890   20.0560 C   0  0  0  0  0  0  0  0  0  0  0  0
    8.3210   -2.5330   23.4050 N   0  0  0  0  0  0  0  0  0  0  0  0
    6.9120   -1.4690   21.7790 C   0  0  2  0  0  0  0  0  0  0  0  0
    7.1770   -2.9400   18.9820 C   0  0  0  0  0  0  0  0  0  0  0  0
    5.3530   -4.2130   19.7970 O   0  0  0  0  0  0  0  0  0  0  0  0
    6.5970    0.0400   21.5530 C   0  0  1  0  0  0  0  0  0  0  0  0
    9.5560   -3.1720   23.8490 C   0  0  1  0  0  0  0  0  0  0  0  0
    8.3890   -1.8260   22.1000 C   0  0  0  0  0  0  0  0  0  0  0  0
    5.9520    0.7460   22.7480 C   0  0  0  0  0  0  0  0  0  0  0  0
   10.8390   -2.4330   24.2830 C   0  0  0  0  0  0  0  0  0  0  0  0
    7.9660    0.7740   21.3940 C   0  0  0  0  0  0  0  0  0  0  0  0
    6.0360    0.5280   20.2940 C   0  0  0  0  0  0  0  0  0  0  0  0
    9.2570   -4.1140   24.9890 C   0  0  0  0  0  0  0  0  0  0  0  0
    4.4170    0.9680   22.6600 C   0  0  1  0  0  0  0  0  0  0  0  0
    4.8490    1.2460   20.1580 C   0  0  0  0  0  0  0  0  0  0  0  0
    6.7820    0.2600   19.1430 C   0  0  0  0  0  0  0  0  0  0  0  0
    9.8790   -5.4200   25.2720 C   0  0  0  0  0  0  0  0  0  0  0  0
    8.0520   -3.7550   26.1910 S   0  0  0  0  0  0  0  0  0  0  0  0
   11.0690   -1.1440   24.0230 C   0  0  0  0  0  0  0  0  0  0  0  0
    3.9770    1.8850   23.6990 N   0  0  0  0  0  0  0  0  0  0  0  0
    3.9770    1.5720   21.3260 C   0  0  0  0  0  0  0  0  0  0  0  0
    4.5420    1.6700   18.7380 C   0  0  0  0  0  0  0  0  0  0  0  0
    6.5790    0.5900   17.8460 N   0  0  0  0  0  0  0  0  0  0  0  0
    9.3050   -6.0380   26.4770 C   0  0  0  0  0  0  0  0  0  0  0  0
    8.2520   -5.2010   27.0990 C   0  0  0  0  0  0  0  0  0  0  0  0
   10.2500    0.0470   24.5730 C   0  0  0  0  0  0  0  0  0  0  0  0
   12.1380   -0.8740   23.2110 C   0  0  0  0  0  0  0  0  0  0  0  0
    7.3180   -5.5210   28.4930 Cl  0  0  0  0  0  0  0  0  0  0  0  0
   12.9770   -1.9640   22.6190 C   0  0  0  0  0  0  0  0  0  0  0  0
    5.4270    1.3340   17.6250 C   0  0  0  0  0  0  0  0  0  0  0  0
   10.6210    1.3620   24.2410 C   0  0  0  0  0  0  0  0  0  0  0  0
   12.5310    0.3830   22.8760 C   0  0  0  0  0  0  0  0  0  0  0  0
   11.8390    1.6070   23.3410 C   0  0  0  0  0  0  0  0  0  0  0  0
  1  2  1  0
  2  3  1  0
  3  4  1  0
  5  4  1  1
  5  6  1  0
  5  7  1  0
  6  7  1  6
  6  8  1  0
  8  9  1  0
  8 10  1  6
  9 11  1  0
 10 12  1  0
  9 13  1  0
 11 14  1  0
 11 15  2  0
 13 16  1  0
 12 17  1  0
 12 18  1  0
 13 18  1  6
 16 19  1  0
 17 20  1  1
 16 21  1  6
 16 22  1  0
 17 23  1  0
 19 24  1  0
 22 25  2  0
 22 26  1  0
 23 27  2  0
 23 28  1  0
 20 29  1  0
 24 30  1  1
 24 31  1  0
 25 31  1  0
 25 32  1  0
 26 33  2  0
 27 34  1  0
 28 35  1  0
 34 35  2  0
 29 36  2  0
 29 37  1  0
 35 38  1  0
 37 39  1  0
 32 40  2  0
 33 40  1  0
 36 41  1  0
 37 42  2  0
 41 43  2  0
 42 43  1  0
M  END
