x0770_1-x1412_0-x1386_0-x0692_1-x0434_2-x1334_1
     RDKit          3D

 29 32  0  0  0  0  0  0  0  0999 V2000
    6.1780   -3.2880   19.9380 C   0  0  0  0  0  0  0  0  0  0  0  0
    7.1700   -2.9830   18.8400 C   0  0  0  0  0  0  0  0  0  0  0  0
    5.3450   -4.1880   19.7520 O   0  0  0  0  0  0  0  0  0  0  0  0
    6.2240   -2.6020   21.1530 N   0  0  0  0  0  0  0  0  0  0  0  0
    7.1900   -1.5470   21.5070 C   0  0  1  0  0  0  0  0  0  0  0  0
    5.8840   -3.4440   22.2980 C   0  0  0  0  0  0  0  0  0  0  0  0
    8.4300   -2.1150   22.2280 C   0  0  0  0  0  0  0  0  0  0  0  0
    6.7280   -3.1810   23.5600 C   0  0  0  0  0  0  0  0  0  0  0  0
    7.7650   -0.5490   20.4910 C   0  0  0  0  0  0  0  0  0  0  0  0
    8.1720   -3.0320   23.3480 N   0  0  0  0  0  0  0  0  0  0  0  0
    7.0770   -0.2260   19.1690 C   0  0  0  0  0  0  0  0  0  0  0  0
    8.9140   -2.6550   24.5650 C   0  0  2  0  0  0  0  0  0  0  0  0
    6.3860    0.3670   20.2720 C   0  0  0  0  0  0  0  0  0  0  0  0
    6.2700    0.2120   18.1080 N   0  0  0  0  0  0  0  0  0  0  0  0
    8.7290   -1.5820   25.1390 O   0  0  0  0  0  0  0  0  0  0  0  0
   10.4390   -2.6760   24.2830 C   0  0  0  0  0  0  0  0  0  0  0  0
    8.7710   -3.7140   25.6430 C   0  0  0  0  0  0  0  0  0  0  0  0
    5.1610    0.9740   18.0360 C   0  0  0  0  0  0  0  0  0  0  0  0
    5.2430    1.1540   20.3070 C   0  0  0  0  0  0  0  0  0  0  0  0
    9.6770   -4.7640   25.7310 C   0  0  0  0  0  0  0  0  0  0  0  0
    7.5690   -3.8600   26.9030 S   0  0  0  0  0  0  0  0  0  0  0  0
   11.2200   -1.4560   23.8880 C   0  0  0  0  0  0  0  0  0  0  0  0
    4.5850    1.4780   19.0590 C   0  0  0  0  0  0  0  0  0  0  0  0
    9.3550   -5.7060   26.8600 C   0  0  0  0  0  0  0  0  0  0  0  0
    8.2380   -5.3080   27.5610 C   0  0  0  0  0  0  0  0  0  0  0  0
   12.2980   -1.4760   22.9430 C   0  0  0  0  0  0  0  0  0  0  0  0
   11.0160   -0.1760   24.3740 C   0  0  0  0  0  0  0  0  0  0  0  0
   12.8680   -0.1880   22.7580 C   0  0  0  0  0  0  0  0  0  0  0  0
   12.0910    0.9790   23.7110 S   0  0  0  0  0  0  0  0  0  0  0  0
  1  2  1  0
  1  3  2  0
  1  4  1  0
  4  5  1  0
  4  6  1  0
  5  7  1  0
  6  8  1  0
  5  9  1  6
  7 10  1  0
  8 10  1  0
  9 11  1  0
 10 12  1  0
 11 13  2  0
 11 14  1  0
 12 15  1  1
 12 16  1  0
 12 17  1  0
 14 18  2  0
 13 19  1  0
 17 20  2  0
 17 21  1  0
 16 22  1  0
 18 23  1  0
 19 23  2  0
 20 24  1  0
 21 25  1  0
 24 25  2  0
 22 26  1  0
 22 27  2  0
 26 28  2  0
 27 29  1  0
 28 29  1  0
M  END
