x0770_1-x0426_1-x0831_0-x0397_0-x1418_1-x1385_1-x1374_1-x1334_0-x0434_2-x0692_1-x1334_1-x1386_1-x1412_1
     RDKit          3D

 44 49  0  0  0  0  0  0  0  0999 V2000
    2.0020   -7.1760   23.5700 O   0  0  0  0  0  0  0  0  0  0  0  0
    2.3670   -7.5430   24.8890 C   0  0  0  0  0  0  0  0  0  0  0  0
    3.7490   -7.8510   24.9320 O   0  0  0  0  0  0  0  0  0  0  0  0
    4.4910   -7.2090   23.9190 C   0  0  0  0  0  0  0  0  0  0  0  0
    4.9480   -5.9700   24.2700 C   0  0  0  0  0  0  0  0  0  0  0  0
    6.0450   -5.6850   23.2920 C   0  0  2  0  0  0  0  0  0  0  0  0
    5.9090   -4.6790   22.4900 C   0  0  2  0  0  0  0  0  0  0  0  0
    6.0360   -6.2710   22.1800 C   0  0  0  0  0  0  0  0  0  0  0  0
    6.9810   -3.7330   22.1140 C   0  0  1  0  0  0  0  0  0  0  0  0
    6.4550   -2.7070   21.2410 N   0  0  0  0  0  0  0  0  0  0  0  0
    7.6240   -3.2120   23.2230 C   0  0  0  0  0  0  0  0  0  0  0  0
    6.2910   -3.1530   19.9030 C   0  0  0  0  0  0  0  0  0  0  0  0
    8.8020   -2.4260   22.8060 N   0  0  0  0  0  0  0  0  0  0  0  0
    6.8970   -1.3820   21.7750 C   0  0  2  0  0  0  0  0  0  0  0  0
    7.3250   -2.8920   18.8120 C   0  0  0  0  0  0  0  0  0  0  0  0
    5.3180   -3.8740   19.6110 O   0  0  0  0  0  0  0  0  0  0  0  0
    6.2980    0.0520   21.6930 C   0  0  1  0  0  0  0  0  0  0  0  0
    9.6620   -2.0220   23.9190 C   0  0  1  0  0  0  0  0  0  0  0  0
    8.4330   -1.4330   21.7780 C   0  0  0  0  0  0  0  0  0  0  0  0
    5.2120    0.2650   22.7820 C   0  0  0  0  0  0  0  0  0  0  0  0
   10.3450   -3.2290   24.4660 C   0  0  0  0  0  0  0  0  0  0  0  0
    7.3520    1.0750   22.1810 C   0  0  0  0  0  0  0  0  0  0  0  0
    5.9380    0.4800   20.3600 C   0  0  0  0  0  0  0  0  0  0  0  0
   10.5280   -0.8690   23.7230 C   0  0  0  0  0  0  0  0  0  0  0  0
    4.4390    1.6000   22.5750 C   0  0  2  0  0  0  0  0  0  0  0  0
    4.6460    1.3300   20.1330 C   0  0  0  0  0  0  0  0  0  0  0  0
    6.7530    0.1450   19.3390 C   0  0  0  0  0  0  0  0  0  0  0  0
   10.1530    0.3740   24.2170 C   0  0  0  0  0  0  0  0  0  0  0  0
   11.7810   -0.9600   23.0370 C   0  0  0  0  0  0  0  0  0  0  0  0
    9.5500   -4.0280   25.4220 C   0  0  0  0  0  0  0  0  0  0  0  0
    3.4790    1.8560   23.6300 N   0  0  0  0  0  0  0  0  0  0  0  0
    3.7070    1.7190   21.2240 C   0  0  0  0  0  0  0  0  0  0  0  0
   12.3210   -2.2220   22.4430 C   0  0  0  0  0  0  0  0  0  0  0  0
    4.5280    1.6830   18.6890 C   0  0  0  0  0  0  0  0  0  0  0  0
    6.6430    0.4740   17.9160 N   0  0  0  0  0  0  0  0  0  0  0  0
   11.0470    1.6170   24.0340 C   0  0  0  0  0  0  0  0  0  0  0  0
   12.6390    0.2580   22.8770 C   0  0  0  0  0  0  0  0  0  0  0  0
   10.0110   -5.4000   25.6050 C   0  0  0  0  0  0  0  0  0  0  0  0
    8.0900   -3.7420   26.4820 S   0  0  0  0  0  0  0  0  0  0  0  0
    5.5260    1.2490   17.6530 C   0  0  0  0  0  0  0  0  0  0  0  0
   12.2620    1.4340   23.3530 C   0  0  0  0  0  0  0  0  0  0  0  0
    9.2380   -6.0590   26.5250 C   0  0  0  0  0  0  0  0  0  0  0  0
    8.2080   -5.3430   27.0820 C   0  0  0  0  0  0  0  0  0  0  0  0
    7.0920   -5.8880   28.2600 Cl  0  0  0  0  0  0  0  0  0  0  0  0
  1  2  1  0
  2  3  1  0
  3  4  1  0
  4  5  1  0
  6  5  1  1
  6  7  1  0
  6  8  1  0
  7  8  1  6
  7  9  1  0
  9 10  1  0
  9 11  1  1
 10 12  1  0
 11 13  1  0
 10 14  1  0
 12 15  1  0
 12 16  2  0
 14 17  1  0
 13 18  1  0
 13 19  1  0
 14 19  1  6
 17 20  1  0
 18 21  1  6
 17 22  1  1
 17 23  1  0
 18 24  1  0
 20 25  1  0
 23 26  2  0
 23 27  1  0
 24 28  2  0
 24 29  1  0
 21 30  1  0
 25 31  1  1
 25 32  1  0
 26 32  1  0
 29 33  1  0
 26 34  1  0
 27 35  2  0
 28 36  1  0
 29 37  2  0
 30 38  2  0
 30 39  1  0
 34 40  2  0
 35 40  1  0
 36 41  2  0
 37 41  1  0
 38 42  1  0
 39 43  1  0
 42 43  2  0
 43 44  1  0
M  END
