x0770_1-x0831_0-x1418_1-x0434_2-x1412_1-x0692_1-x1385_1-x1334_0-x0397_0-x1334_1
     RDKit          3D

 34 38  0  0  0  0  0  0  0  0999 V2000
    6.3590   -3.2560   19.9230 C   0  0  0  0  0  0  0  0  0  0  0  0
    7.2850   -2.9720   18.7860 C   0  0  0  0  0  0  0  0  0  0  0  0
    5.4080   -4.0430   19.7300 O   0  0  0  0  0  0  0  0  0  0  0  0
    6.7080   -2.6230   21.1570 N   0  0  0  0  0  0  0  0  0  0  0  0
    7.7240   -1.5530   21.2540 C   0  0  2  0  0  0  0  0  0  0  0  0
    7.0230   -3.6960   22.1440 C   0  0  1  0  0  0  0  0  0  0  0  0
    7.8340   -1.1000   22.7280 C   0  0  0  0  0  0  0  0  0  0  0  0
    7.4340   -3.2710   23.5520 C   0  0  0  0  0  0  0  0  0  0  0  0
    5.9420   -4.7320   22.1520 C   0  0  0  0  0  0  0  0  0  0  0  0
    7.5100   -0.1590   20.6440 C   0  0  0  0  0  0  0  0  0  0  0  0
    8.3310   -2.1000   23.6270 N   0  0  0  0  0  0  0  0  0  0  0  0
    6.0270   -6.0190   23.2160 C   0  0  0  0  0  0  0  0  0  0  0  0
    6.0800   -6.1360   21.8050 C   0  0  0  0  0  0  0  0  0  0  0  0
    7.0540    0.0630   19.2390 C   0  0  0  0  0  0  0  0  0  0  0  0
    9.6610   -2.3160   23.4670 C   0  0  2  0  0  0  0  0  0  0  0  0
    6.2170    0.4820   20.2440 C   0  0  0  0  0  0  0  0  0  0  0  0
    6.3580    0.4150   18.0940 N   0  0  0  0  0  0  0  0  0  0  0  0
   10.3010   -3.2760   24.4060 C   0  0  0  0  0  0  0  0  0  0  0  0
   10.4900   -1.0100   23.4440 C   0  0  0  0  0  0  0  0  0  0  0  0
    5.1750    1.0230   17.9270 C   0  0  0  0  0  0  0  0  0  0  0  0
    4.9810    1.1040   20.1700 C   0  0  0  0  0  0  0  0  0  0  0  0
   10.0300    0.2520   23.9290 C   0  0  0  0  0  0  0  0  0  0  0  0
   11.9490   -0.8980   22.8950 C   0  0  0  0  0  0  0  0  0  0  0  0
    9.5140   -4.1560   25.3510 C   0  0  0  0  0  0  0  0  0  0  0  0
    4.3900    1.4160   18.8700 C   0  0  0  0  0  0  0  0  0  0  0  0
   12.6570   -2.0820   22.3170 C   0  0  0  0  0  0  0  0  0  0  0  0
   10.7940    1.5920   23.9540 C   0  0  0  0  0  0  0  0  0  0  0  0
   12.7350    0.3860   22.9000 C   0  0  0  0  0  0  0  0  0  0  0  0
   10.0390   -5.5660   25.4880 C   0  0  0  0  0  0  0  0  0  0  0  0
    8.1820   -3.6450   26.2100 S   0  0  0  0  0  0  0  0  0  0  0  0
   12.2770    1.6100   23.3770 C   0  0  0  0  0  0  0  0  0  0  0  0
    9.0660   -6.0380   26.5000 C   0  0  0  0  0  0  0  0  0  0  0  0
    8.0090   -5.0930   26.9860 C   0  0  0  0  0  0  0  0  0  0  0  0
    6.8000   -5.4150   28.1560 Cl  0  0  0  0  0  0  0  0  0  0  0  0
  1  2  1  0
  1  3  2  0
  1  4  1  0
  4  5  1  0
  4  6  1  0
  5  7  1  0
  6  8  1  0
  6  9  1  1
  5 10  1  6
  7 11  1  0
  8 11  1  0
  9 12  1  0
  9 13  1  0
 12 13  1  0
 10 14  1  0
 11 15  1  0
 14 16  2  0
 14 17  1  0
 15 18  1  1
 15 19  1  0
 17 20  2  0
 16 21  1  0
 19 22  2  0
 19 23  1  0
 18 24  1  0
 20 25  1  0
 21 25  2  0
 23 26  1  0
 22 27  1  0
 23 28  2  0
 24 29  2  0
 24 30  1  0
 27 31  2  0
 28 31  1  0
 29 32  1  0
 30 33  1  0
 32 33  2  0
 33 34  1  0
M  END
