x0770_1-x0874_0
     RDKit          3D

 15 16  0  0  0  0  0  0  0  0999 V2000
    6.2520   -3.3250   19.9450 C   0  0  0  0  0  0  0  0  0  0  0  0
    7.2070   -2.9980   18.8090 C   0  0  0  0  0  0  0  0  0  0  0  0
    5.3710   -4.1790   19.7650 O   0  0  0  0  0  0  0  0  0  0  0  0
    6.4510   -2.6450   21.1650 N   0  0  0  0  0  0  0  0  0  0  0  0
    7.1460   -1.3510   21.1760 C   0  0  0  0  0  0  0  0  0  0  0  0
    6.5030   -3.3470   22.4490 C   0  0  0  0  0  0  0  0  0  0  0  0
    8.6140   -1.5430   21.6150 C   0  0  0  0  0  0  0  0  0  0  0  0
    7.8440   -3.2460   23.1950 C   0  0  0  0  0  0  0  0  0  0  0  0
    8.5870   -1.9610   23.0270 N   0  0  0  0  0  0  0  0  0  0  0  0
    9.9270   -2.1030   23.2400 C   0  0  0  0  0  0  0  0  0  0  0  0
   10.6180   -0.8650   23.2370 C   0  0  0  0  0  0  0  0  0  0  0  0
   11.6500    0.1320   23.0580 C   0  0  0  0  0  0  0  0  0  0  0  0
   11.5560   -1.8590   22.6610 C   0  0  0  0  0  0  0  0  0  0  0  0
   12.9240    0.0270   22.5630 C   0  0  0  0  0  0  0  0  0  0  0  0
   13.2340   -1.5160   22.0960 S   0  0  0  0  0  0  0  0  0  0  0  0
  1  2  1  0
  1  3  2  0
  1  4  1  0
  4  5  1  0
  4  6  1  0
  5  7  1  0
  6  8  1  0
  7  9  1  0
  8  9  1  0
  9 10  1  0
 10 11  1  0
 11 12  1  0
 11 13  2  0
 12 14  2  0
 13 15  1  0
 14 15  1  0
M  END
