x0770_1-x0831_0-x1374_1-x0397_0-x1412_1-x0426_1-x1334_0-x0692_1-x1386_1-x0831_1-x1334_1-x1418_1-x1385_1-x1375_1
     RDKit          3D

 43 48  0  0  0  0  0  0  0  0999 V2000
    1.9930   -6.6830   24.0880 O   0  0  0  0  0  0  0  0  0  0  0  0
    2.9400   -7.5640   23.5380 C   0  0  0  0  0  0  0  0  0  0  0  0
    3.8700   -7.9200   24.5540 O   0  0  0  0  0  0  0  0  0  0  0  0
    5.1700   -7.4060   24.2830 C   0  0  0  0  0  0  0  0  0  0  0  0
    5.2580   -5.9400   24.3610 C   0  0  0  0  0  0  0  0  0  0  0  0
    6.2560   -5.5990   23.3160 C   0  0  2  0  0  0  0  0  0  0  0  0
    5.9840   -4.5810   22.5060 C   0  0  2  0  0  0  0  0  0  0  0  0
    6.0900   -6.1060   21.9600 C   0  0  0  0  0  0  0  0  0  0  0  0
    7.0120   -3.5440   22.1900 C   0  0  1  0  0  0  0  0  0  0  0  0
    6.3790   -2.6380   21.2180 N   0  0  0  0  0  0  0  0  0  0  0  0
    7.5230   -2.9780   23.3820 C   0  0  0  0  0  0  0  0  0  0  0  0
    6.2180   -3.2790   19.9570 C   0  0  0  0  0  0  0  0  0  0  0  0
    8.5010   -1.8790   23.2250 N   0  0  0  0  0  0  0  0  0  0  0  0
    7.0480   -1.3480   21.1730 C   0  0  1  0  0  0  0  0  0  0  0  0
    7.2390   -2.9790   18.8520 C   0  0  0  0  0  0  0  0  0  0  0  0
    5.3250   -4.1070   19.7230 O   0  0  0  0  0  0  0  0  0  0  0  0
    6.2420   -0.0360   21.3970 C   0  0  2  0  0  0  0  0  0  0  0  0
    9.8980   -2.2310   23.3090 C   0  0  2  0  0  0  0  0  0  0  0  0
    8.4400   -1.3760   21.8460 C   0  0  0  0  0  0  0  0  0  0  0  0
    5.0520    0.0060   22.3630 C   0  0  0  0  0  0  0  0  0  0  0  0
   10.4290   -3.2640   24.2630 C   0  0  0  0  0  0  0  0  0  0  0  0
    5.8480    0.5600   20.0970 C   0  0  0  0  0  0  0  0  0  0  0  0
   10.7430   -0.9380   23.3440 C   0  0  0  0  0  0  0  0  0  0  0  0
    4.4150    1.4360   22.4250 C   0  0  2  0  0  0  0  0  0  0  0  0
    4.7720    1.4220   19.9380 C   0  0  0  0  0  0  0  0  0  0  0  0
    6.6620    0.2190   18.8520 C   0  0  0  0  0  0  0  0  0  0  0  0
   10.1990    0.2230   23.8870 C   0  0  0  0  0  0  0  0  0  0  0  0
   12.1800   -0.8890   22.7820 C   0  0  0  0  0  0  0  0  0  0  0  0
    9.6750   -3.9820   25.3390 C   0  0  0  0  0  0  0  0  0  0  0  0
    3.4100    1.5980   23.4470 N   0  0  0  0  0  0  0  0  0  0  0  0
    3.8860    1.8400   21.0580 C   0  0  0  0  0  0  0  0  0  0  0  0
   12.9310   -2.0020   22.1470 C   0  0  0  0  0  0  0  0  0  0  0  0
    4.5130    1.9190   18.6800 C   0  0  0  0  0  0  0  0  0  0  0  0
    6.3670    0.7270   17.6600 N   0  0  0  0  0  0  0  0  0  0  0  0
   10.8250    1.4310   23.9820 C   0  0  0  0  0  0  0  0  0  0  0  0
   12.7930    0.5150   22.9420 C   0  0  0  0  0  0  0  0  0  0  0  0
   10.1500   -5.0950   26.0030 C   0  0  0  0  0  0  0  0  0  0  0  0
    8.0050   -3.5630   26.0300 S   0  0  0  0  0  0  0  0  0  0  0  0
    5.3100    1.5560   17.6260 C   0  0  0  0  0  0  0  0  0  0  0  0
   12.1190    1.5850   23.5120 C   0  0  0  0  0  0  0  0  0  0  0  0
    9.4270   -5.6160   26.9440 C   0  0  0  0  0  0  0  0  0  0  0  0
    8.1320   -4.9210   27.1780 C   0  0  0  0  0  0  0  0  0  0  0  0
    6.9230   -5.2900   28.3320 Cl  0  0  0  0  0  0  0  0  0  0  0  0
  1  2  1  0
  2  3  1  0
  3  4  1  0
  4  5  1  0
  6  5  1  1
  6  7  1  0
  6  8  1  0
  7  8  1  6
  7  9  1  0
  9 10  1  0
  9 11  1  1
 10 12  1  0
 11 13  1  0
 10 14  1  0
 12 15  1  0
 12 16  2  0
 14 17  1  0
 13 18  1  0
 13 19  1  0
 14 19  1  1
 17 20  1  1
 18 21  1  1
 17 22  1  0
 18 23  1  0
 20 24  1  0
 22 25  2  0
 22 26  1  0
 23 27  2  0
 23 28  1  0
 21 29  1  0
 24 30  1  1
 24 31  1  0
 25 31  1  0
 28 32  1  0
 25 33  1  0
 26 34  2  0
 27 35  1  0
 28 36  2  0
 29 37  2  0
 29 38  1  0
 33 39  2  0
 34 39  1  0
 35 40  2  0
 36 40  1  0
 37 41  1  0
 38 42  1  0
 41 42  2  0
 42 43  1  0
M  END
