x0770_1-x0397_0-x0831_0-x1386_1-x0434_2-x1334_0-x0831_1-x0692_1-x1385_1-x1418_1-x1375_1-x1334_1-x1374_1
     RDKit          3D

 38 42  0  0  0  0  0  0  0  0999 V2000
    2.4610   -7.1250   24.3420 O   0  0  0  0  0  0  0  0  0  0  0  0
    3.4950   -6.9940   25.2970 C   0  0  0  0  0  0  0  0  0  0  0  0
    4.7150   -7.2280   24.6300 O   0  0  0  0  0  0  0  0  0  0  0  0
    5.4070   -5.9670   24.4070 C   0  0  0  0  0  0  0  0  0  0  0  0
    5.1120   -5.5210   23.0090 C   0  0  1  0  0  0  0  0  0  0  0  0
    5.7420   -4.5170   22.1370 C   0  0  2  0  0  0  0  0  0  0  0  0
    5.9610   -6.0210   21.7260 C   0  0  0  0  0  0  0  0  0  0  0  0
    6.9720   -3.6020   22.1940 C   0  0  1  0  0  0  0  0  0  0  0  0
    6.7380   -2.7290   21.0460 N   0  0  0  0  0  0  0  0  0  0  0  0
    7.3550   -3.0150   23.4230 C   0  0  0  0  0  0  0  0  0  0  0  0
    6.4210   -3.2980   19.8320 C   0  0  0  0  0  0  0  0  0  0  0  0
    8.3540   -1.9160   23.2750 N   0  0  0  0  0  0  0  0  0  0  0  0
    7.7670   -1.6790   20.8460 C   0  0  2  0  0  0  0  0  0  0  0  0
    7.3380   -3.0190   18.6610 C   0  0  0  0  0  0  0  0  0  0  0  0
    5.4480   -4.0620   19.6980 O   0  0  0  0  0  0  0  0  0  0  0  0
    9.5430   -1.9610   24.1320 C   0  0  1  0  0  0  0  0  0  0  0  0
    8.8650   -1.7440   21.9150 C   0  0  0  0  0  0  0  0  0  0  0  0
    7.2670   -0.2510   20.7420 C   0  0  0  0  0  0  0  0  0  0  0  0
   10.0800   -3.3260   24.2320 C   0  0  0  0  0  0  0  0  0  0  0  0
   10.5290   -0.8400   23.8310 C   0  0  0  0  0  0  0  0  0  0  0  0
    7.0050    0.1910   19.3240 C   0  0  0  0  0  0  0  0  0  0  0  0
   10.1220    0.4370   24.2770 C   0  0  0  0  0  0  0  0  0  0  0  0
   11.8030   -0.9910   23.1360 C   0  0  0  0  0  0  0  0  0  0  0  0
    9.4730   -4.2090   25.2900 C   0  0  0  0  0  0  0  0  0  0  0  0
    5.8660    0.4320   20.3880 C   0  0  0  0  0  0  0  0  0  0  0  0
    6.4780    0.7010   18.1190 N   0  0  0  0  0  0  0  0  0  0  0  0
   12.3050   -2.3030   22.6220 C   0  0  0  0  0  0  0  0  0  0  0  0
   10.9470    1.7150   24.0730 C   0  0  0  0  0  0  0  0  0  0  0  0
   12.7420    0.2510   22.8780 C   0  0  0  0  0  0  0  0  0  0  0  0
    9.8950   -5.5810   25.5100 C   0  0  0  0  0  0  0  0  0  0  0  0
    8.2500   -3.7570   26.3480 S   0  0  0  0  0  0  0  0  0  0  0  0
    5.3020    1.2910   17.8400 C   0  0  0  0  0  0  0  0  0  0  0  0
    4.6410    1.0170   20.1690 C   0  0  0  0  0  0  0  0  0  0  0  0
   12.2690    1.5990   23.3660 C   0  0  0  0  0  0  0  0  0  0  0  0
    9.2110   -6.1150   26.4990 C   0  0  0  0  0  0  0  0  0  0  0  0
    8.2850   -5.2970   27.0800 C   0  0  0  0  0  0  0  0  0  0  0  0
    4.2960    1.4850   18.8630 C   0  0  0  0  0  0  0  0  0  0  0  0
    7.2330   -5.6590   28.3810 Cl  0  0  0  0  0  0  0  0  0  0  0  0
  1  2  1  0
  2  3  1  0
  3  4  1  0
  5  4  1  1
  5  6  1  0
  5  7  1  0
  6  7  1  6
  6  8  1  0
  8  9  1  0
  8 10  1  1
  9 11  1  0
 10 12  1  0
  9 13  1  0
 11 14  1  0
 11 15  2  0
 12 16  1  0
 12 17  1  0
 13 17  1  0
 13 18  1  1
 16 19  1  6
 16 20  1  0
 18 21  1  0
 20 22  2  0
 20 23  1  0
 19 24  1  0
 21 25  2  0
 21 26  1  0
 23 27  1  0
 22 28  1  0
 23 29  2  0
 24 30  2  0
 24 31  1  0
 26 32  2  0
 25 33  1  0
 28 34  2  0
 29 34  1  0
 30 35  1  0
 31 36  1  0
 35 36  2  0
 32 37  1  0
 33 37  2  0
 36 38  1  0
M  END
