x0770_1-x0434_2-x0426_1-x1374_1-x1412_0-x0831_0-x1334_0-x0692_1-x1334_1-x1412_1
     RDKit          3D

 47 53  0  0  0  0  0  0  0  0999 V2000
    6.2530   -3.1970   19.8360 C   0  0  0  0  0  0  0  0  0  0  0  0
    7.2730   -2.9450   18.7510 C   0  0  0  0  0  0  0  0  0  0  0  0
    5.2980   -3.9580   19.6290 O   0  0  0  0  0  0  0  0  0  0  0  0
    6.4460   -2.5910   21.0820 N   0  0  0  0  0  0  0  0  0  0  0  0
    7.2870   -1.3410   21.3180 C   0  0  1  0  0  0  0  0  0  0  0  0
    6.3340   -3.5200   22.2300 C   0  0  1  0  0  0  0  0  0  0  0  0
    6.4480    0.0110   21.5580 C   0  0  1  0  0  0  0  0  0  0  0  0
    5.8620   -4.9410   21.9010 C   0  0  0  0  0  0  0  0  0  0  0  0
    8.3620   -1.5300   22.4620 C   0  0  0  0  0  0  0  0  0  0  0  0
    7.6690   -3.7040   22.9740 C   0  0  0  0  0  0  0  0  0  0  0  0
    5.2840   -0.0370   22.5760 C   0  0  0  0  0  0  0  0  0  0  0  0
    7.4380    1.1140   22.0380 C   0  0  0  0  0  0  0  0  0  0  0  0
    7.9680   -2.4200   23.5520 N   0  0  0  0  0  0  0  0  0  0  0  0
    5.9570    0.5470   20.2300 C   0  0  0  0  0  0  0  0  0  0  0  0
    4.7110   -5.2720   22.8250 C   0  0  2  0  0  0  0  0  0  0  0  0
    4.5480    1.3280   22.6080 C   0  0  2  0  0  0  0  0  0  0  0  0
    8.6070   -2.3950   24.8660 C   0  0  2  0  0  0  0  0  0  0  0  0
    4.7750    1.2900   20.1170 C   0  0  0  0  0  0  0  0  0  0  0  0
    6.7450    0.2860   19.0520 C   0  0  0  0  0  0  0  0  0  0  0  0
    4.7860   -4.7930   24.1720 C   0  0  0  0  0  0  0  0  0  0  0  0
    4.5100   -6.6870   22.9330 C   0  0  0  0  0  0  0  0  0  0  0  0
    3.6560    1.4150   23.6550 N   0  0  0  0  0  0  0  0  0  0  0  0
    3.8520    1.6240   21.2400 C   0  0  0  0  0  0  0  0  0  0  0  0
    8.4070   -1.3170   25.4060 O   0  0  0  0  0  0  0  0  0  0  0  0
   10.1670   -2.6460   24.7940 C   0  0  2  0  0  0  0  0  0  0  0  0
    4.4400    1.7790   18.7590 C   0  0  0  0  0  0  0  0  0  0  0  0
    6.4660    0.7120   17.8050 N   0  0  0  0  0  0  0  0  0  0  0  0
    4.2210   -5.5290   25.1770 C   0  0  0  0  0  0  0  0  0  0  0  0
    3.6020   -6.8510   24.3890 S   0  0  0  0  0  0  0  0  0  0  0  0
    8.3040   -3.4500   25.8730 C   0  0  0  0  0  0  0  0  0  0  0  0
    2.0690   -6.7350   23.9950 O   0  0  0  0  0  0  0  0  0  0  0  0
    3.9290   -8.2340   25.0620 O   0  0  0  0  0  0  0  0  0  0  0  0
   10.6950   -2.2580   23.4470 C   0  0  0  0  0  0  0  0  0  0  0  0
   10.3950   -4.0880   25.0550 C   0  0  0  0  0  0  0  0  0  0  0  0
    5.3600    1.4460   17.6350 C   0  0  0  0  0  0  0  0  0  0  0  0
    9.2890   -4.3880   25.9770 C   0  0  0  0  0  0  0  0  0  0  0  0
    7.0500   -3.8060   26.9510 S   0  0  0  0  0  0  0  0  0  0  0  0
    9.0710   -5.3840   26.8780 C   0  0  0  0  0  0  0  0  0  0  0  0
    7.8960   -5.2030   27.4830 C   0  0  0  0  0  0  0  0  0  0  0  0
   11.1960   -0.8470   23.4550 C   0  0  0  0  0  0  0  0  0  0  0  0
    7.1470   -6.1530   28.6820 Cl  0  0  0  0  0  0  0  0  0  0  0  0
   10.5530    0.2320   24.0390 C   0  0  0  0  0  0  0  0  0  0  0  0
   12.3400   -0.6520   22.8620 C   0  0  0  0  0  0  0  0  0  0  0  0
   13.0740   -1.7840   22.2000 C   0  0  0  0  0  0  0  0  0  0  0  0
   11.0490    1.5050   24.0260 C   0  0  0  0  0  0  0  0  0  0  0  0
   12.9040    0.5950   22.8210 C   0  0  0  0  0  0  0  0  0  0  0  0
   12.2750    1.6940   23.3920 C   0  0  0  0  0  0  0  0  0  0  0  0
  1  2  1  0
  1  3  2  0
  1  4  1  0
  4  5  1  0
  4  6  1  0
  5  7  1  0
  6  8  1  6
  5  9  1  1
  6 10  1  0
  7 11  1  0
  7 12  1  1
  9 13  1  0
 10 13  1  0
  7 14  1  0
 15  8  1  6
 11 16  1  0
 13 17  1  0
 14 18  2  0
 14 19  1  0
 15 20  1  0
 15 21  1  0
 16 22  1  1
 16 23  1  0
 18 23  1  0
 17 24  1  1
 17 25  1  0
 18 26  1  0
 19 27  2  0
 20 28  2  0
 21 29  1  0
 28 29  1  0
 17 30  1  0
 29 31  1  0
 29 32  1  0
 25 33  1  6
 25 34  1  0
 26 35  2  0
 27 35  1  0
 30 36  2  0
 34 36  1  0
 30 37  1  0
 36 38  1  0
 37 39  1  0
 38 39  2  0
 33 40  1  0
 39 41  1  0
 40 42  2  0
 40 43  1  0
 43 44  1  0
 42 45  1  0
 43 46  2  0
 45 47  2  0
 46 47  1  0
M  END
