x0770_1-x0426_1-x1374_1-x0831_0-x1334_0-x0692_1-x1334_1-x1412_1
     RDKit          3D

 43 48  0  0  0  0  0  0  0  0999 V2000
    6.3530   -3.4160   19.9580 C   0  0  0  0  0  0  0  0  0  0  0  0
    7.2910   -3.0440   18.8190 C   0  0  0  0  0  0  0  0  0  0  0  0
    5.4390   -4.2350   19.8010 O   0  0  0  0  0  0  0  0  0  0  0  0
    6.6040   -2.7940   21.1750 N   0  0  0  0  0  0  0  0  0  0  0  0
    7.0080   -1.3690   21.2020 C   0  0  1  0  0  0  0  0  0  0  0  0
    7.3260   -3.6320   22.1230 C   0  0  2  0  0  0  0  0  0  0  0  0
    5.7350   -0.4430   21.2520 C   0  0  1  0  0  0  0  0  0  0  0  0
    6.7720   -5.0550   22.1810 C   0  0  0  0  0  0  0  0  0  0  0  0
    8.1770   -0.9990   22.1300 C   0  0  0  0  0  0  0  0  0  0  0  0
    7.3470   -2.9290   23.3680 C   0  0  0  0  0  0  0  0  0  0  0  0
    5.5730    0.4680   22.5130 C   0  0  0  0  0  0  0  0  0  0  0  0
    8.2480   -1.7550   23.3520 N   0  0  0  0  0  0  0  0  0  0  0  0
    5.5690    0.2860   19.9740 C   0  0  0  0  0  0  0  0  0  0  0  0
    5.3660   -5.1040   22.7540 C   0  0  2  0  0  0  0  0  0  0  0  0
    4.6170    1.6850   22.3150 C   0  0  2  0  0  0  0  0  0  0  0  0
    9.4680   -1.8890   23.9650 C   0  0  1  0  0  0  0  0  0  0  0  0
    4.5920    1.2420   19.8560 C   0  0  0  0  0  0  0  0  0  0  0  0
    6.3800    0.0250   18.8840 C   0  0  0  0  0  0  0  0  0  0  0  0
    4.9700   -4.5560   24.1150 C   0  0  0  0  0  0  0  0  0  0  0  0
    4.9130   -6.5790   22.7700 C   0  0  0  0  0  0  0  0  0  0  0  0
    3.8460    1.9390   23.5360 N   0  0  0  0  0  0  0  0  0  0  0  0
    3.7180    1.5270   21.0310 C   0  0  0  0  0  0  0  0  0  0  0  0
    9.8530   -3.3110   23.8920 C   0  0  0  0  0  0  0  0  0  0  0  0
    4.4520    1.9100   18.6510 C   0  0  0  0  0  0  0  0  0  0  0  0
    6.2790    0.6480   17.7030 N   0  0  0  0  0  0  0  0  0  0  0  0
    4.1350   -5.3050   24.9260 C   0  0  0  0  0  0  0  0  0  0  0  0
    3.7740   -6.7070   24.1260 S   0  0  0  0  0  0  0  0  0  0  0  0
   10.4950   -0.7950   23.6910 C   0  0  0  0  0  0  0  0  0  0  0  0
    2.3080   -6.7910   23.5110 O   0  0  0  0  0  0  0  0  0  0  0  0
    4.1660   -8.0630   24.9430 O   0  0  0  0  0  0  0  0  0  0  0  0
    5.3130    1.5710   17.6340 C   0  0  0  0  0  0  0  0  0  0  0  0
   10.2240    0.5880   24.2430 C   0  0  0  0  0  0  0  0  0  0  0  0
   11.8430   -0.9530   22.8790 C   0  0  0  0  0  0  0  0  0  0  0  0
    9.3590   -4.1790   25.0150 C   0  0  0  0  0  0  0  0  0  0  0  0
   12.3580   -2.1890   22.2180 C   0  0  0  0  0  0  0  0  0  0  0  0
   11.0690    1.6400   24.0640 C   0  0  0  0  0  0  0  0  0  0  0  0
   12.6090    0.2260   22.7990 C   0  0  0  0  0  0  0  0  0  0  0  0
    9.8610   -5.5600   25.3070 C   0  0  0  0  0  0  0  0  0  0  0  0
    8.1380   -3.7470   26.1710 S   0  0  0  0  0  0  0  0  0  0  0  0
   12.2310    1.4360   23.3590 C   0  0  0  0  0  0  0  0  0  0  0  0
    9.1940   -6.1580   26.4920 C   0  0  0  0  0  0  0  0  0  0  0  0
    8.2140   -5.2080   27.0380 C   0  0  0  0  0  0  0  0  0  0  0  0
    7.2120   -5.4670   28.3990 Cl  0  0  0  0  0  0  0  0  0  0  0  0
  1  2  1  0
  1  3  2  0
  1  4  1  0
  4  5  1  0
  4  6  1  0
  5  7  1  0
  6  8  1  1
  5  9  1  1
  6 10  1  0
  7 11  1  1
  9 12  1  0
 10 12  1  0
  7 13  1  0
 14  8  1  1
 11 15  1  0
 12 16  1  0
 13 17  2  0
 13 18  1  0
 14 19  1  0
 14 20  1  0
 15 21  1  1
 15 22  1  0
 17 22  1  0
 16 23  1  6
 17 24  1  0
 18 25  2  0
 19 26  2  0
 20 27  1  0
 26 27  1  0
 16 28  1  0
 27 29  1  0
 27 30  1  0
 24 31  2  0
 25 31  1  0
 28 32  2  0
 28 33  1  0
 23 34  1  0
 33 35  1  0
 32 36  1  0
 33 37  2  0
 34 38  2  0
 34 39  1  0
 36 40  2  0
 37 40  1  0
 38 41  1  0
 39 42  1  0
 41 42  2  0
 42 43  1  0
M  END
