x0770_1-x1418_1-x1334_1-x0831_1-x0831_0-x1374_1-x1412_1-x1334_0-x1385_1-x0434_2-x0397_0-x1386_1-x0426_1-x0692_1
     RDKit          3D

 44 49  0  0  0  0  0  0  0  0999 V2000
    1.9960   -6.7340   24.3130 O   0  0  0  0  0  0  0  0  0  0  0  0
    3.0050   -7.4530   23.6450 C   0  0  0  0  0  0  0  0  0  0  0  0
    3.9980   -7.9330   24.5460 O   0  0  0  0  0  0  0  0  0  0  0  0
    5.2830   -7.3860   24.2490 C   0  0  0  0  0  0  0  0  0  0  0  0
    5.1910   -6.0310   24.2900 C   0  0  0  0  0  0  0  0  0  0  0  0
    6.1340   -5.5030   23.2740 C   0  0  2  0  0  0  0  0  0  0  0  0
    5.9560   -4.4630   22.5310 C   0  0  2  0  0  0  0  0  0  0  0  0
    6.0740   -6.0600   22.0900 C   0  0  0  0  0  0  0  0  0  0  0  0
    6.8740   -3.4280   22.1910 C   0  0  1  0  0  0  0  0  0  0  0  0
    6.3840   -2.5890   21.0910 N   0  0  0  0  0  0  0  0  0  0  0  0
    7.1710   -2.6420   23.3590 C   0  0  0  0  0  0  0  0  0  0  0  0
    6.1920   -3.2780   19.8910 C   0  0  0  0  0  0  0  0  0  0  0  0
    8.2510   -1.6260   23.1940 N   0  0  0  0  0  0  0  0  0  0  0  0
    7.1300   -1.3070   21.0360 C   0  0  1  0  0  0  0  0  0  0  0  0
    7.1120   -2.9680   18.7320 C   0  0  0  0  0  0  0  0  0  0  0  0
    5.3310   -4.1620   19.7450 O   0  0  0  0  0  0  0  0  0  0  0  0
    6.5040    0.0620   21.2450 C   0  0  1  0  0  0  0  0  0  0  0  0
    9.4820   -1.8650   23.9500 C   0  0  1  0  0  0  0  0  0  0  0  0
    8.4760   -1.4220   21.7720 C   0  0  0  0  0  0  0  0  0  0  0  0
    5.3980    0.1230   22.3480 C   0  0  0  0  0  0  0  0  0  0  0  0
    9.8700   -3.2970   23.7980 C   0  0  0  0  0  0  0  0  0  0  0  0
    7.6280    1.0700   21.6770 C   0  0  0  0  0  0  0  0  0  0  0  0
    5.9750    0.6370   19.9750 C   0  0  0  0  0  0  0  0  0  0  0  0
   10.4480   -0.7700   23.7200 C   0  0  0  0  0  0  0  0  0  0  0  0
    4.6400    1.4860   22.4190 C   0  0  2  0  0  0  0  0  0  0  0  0
    4.7720    1.3760   19.8970 C   0  0  0  0  0  0  0  0  0  0  0  0
    6.6850    0.4330   18.8640 C   0  0  0  0  0  0  0  0  0  0  0  0
   10.1400    0.4250   24.3260 C   0  0  0  0  0  0  0  0  0  0  0  0
   11.6060   -0.9760   22.9200 C   0  0  0  0  0  0  0  0  0  0  0  0
    9.4490   -4.0730   24.9400 C   0  0  0  0  0  0  0  0  0  0  0  0
    3.7510    1.6500   23.5580 N   0  0  0  0  0  0  0  0  0  0  0  0
    3.8990    1.6290   21.0990 C   0  0  0  0  0  0  0  0  0  0  0  0
   11.9990   -2.2200   22.2220 C   0  0  0  0  0  0  0  0  0  0  0  0
    4.4900    1.8160   18.6950 C   0  0  0  0  0  0  0  0  0  0  0  0
    6.3990    0.8690   17.6370 N   0  0  0  0  0  0  0  0  0  0  0  0
   11.0160    1.5060   24.1450 C   0  0  0  0  0  0  0  0  0  0  0  0
   12.5140    0.1960   22.7730 C   0  0  0  0  0  0  0  0  0  0  0  0
   10.0310   -5.3540   25.4910 C   0  0  0  0  0  0  0  0  0  0  0  0
    8.1260   -3.6780   26.0060 S   0  0  0  0  0  0  0  0  0  0  0  0
    5.1910    1.6430   17.5560 C   0  0  0  0  0  0  0  0  0  0  0  0
   12.1880    1.4050   23.3900 C   0  0  0  0  0  0  0  0  0  0  0  0
    9.4200   -5.7880   26.5910 C   0  0  0  0  0  0  0  0  0  0  0  0
    8.3470   -5.0270   27.0460 C   0  0  0  0  0  0  0  0  0  0  0  0
    7.3430   -5.2860   28.4110 Cl  0  0  0  0  0  0  0  0  0  0  0  0
  1  2  1  0
  2  3  1  0
  3  4  1  0
  4  5  1  0
  6  5  1  1
  6  7  1  0
  6  8  1  0
  7  8  1  6
  7  9  1  0
  9 10  1  0
  9 11  1  1
 10 12  1  0
 11 13  1  0
 10 14  1  0
 12 15  1  0
 12 16  2  0
 14 17  1  0
 13 18  1  0
 13 19  1  0
 14 19  1  1
 17 20  1  0
 18 21  1  6
 17 22  1  1
 17 23  1  0
 18 24  1  0
 20 25  1  0
 23 26  2  0
 23 27  1  0
 24 28  2  0
 24 29  1  0
 21 30  1  0
 25 31  1  1
 25 32  1  0
 26 32  1  0
 29 33  1  0
 26 34  1  0
 27 35  2  0
 28 36  1  0
 29 37  2  0
 30 38  2  0
 30 39  1  0
 34 40  2  0
 35 40  1  0
 36 41  2  0
 37 41  1  0
 38 42  1  0
 39 43  1  0
 42 43  2  0
 43 44  1  0
M  END
