x0770_1-x0426_1-x1412_1-x0692_1-x1418_1-x0434_2-x1374_1-x1386_1-x0831_0-x0397_0-x1334_0-x1334_1-x1385_1
     RDKit          3D

 44 49  0  0  0  0  0  0  0  0999 V2000
    1.9740   -7.1970   23.6490 O   0  0  0  0  0  0  0  0  0  0  0  0
    2.3150   -7.5150   24.9850 C   0  0  0  0  0  0  0  0  0  0  0  0
    3.6930   -7.8490   25.0310 O   0  0  0  0  0  0  0  0  0  0  0  0
    4.3900   -7.2420   23.9680 C   0  0  0  0  0  0  0  0  0  0  0  0
    4.9460   -6.0500   24.3370 C   0  0  0  0  0  0  0  0  0  0  0  0
    5.9630   -5.7020   23.3080 C   0  0  2  0  0  0  0  0  0  0  0  0
    5.7850   -4.7130   22.5000 C   0  0  2  0  0  0  0  0  0  0  0  0
    5.9160   -6.2380   21.9790 C   0  0  0  0  0  0  0  0  0  0  0  0
    6.8990   -3.8760   22.0340 C   0  0  1  0  0  0  0  0  0  0  0  0
    6.3330   -2.8040   21.2500 N   0  0  0  0  0  0  0  0  0  0  0  0
    7.7440   -3.3200   23.1280 C   0  0  0  0  0  0  0  0  0  0  0  0
    6.2480   -3.1890   19.9030 C   0  0  0  0  0  0  0  0  0  0  0  0
    8.8170   -2.4300   22.6950 N   0  0  0  0  0  0  0  0  0  0  0  0
    6.7480   -1.4970   21.8360 C   0  0  2  0  0  0  0  0  0  0  0  0
    7.3040   -2.8870   18.8330 C   0  0  0  0  0  0  0  0  0  0  0  0
    5.2830   -3.9070   19.6090 O   0  0  0  0  0  0  0  0  0  0  0  0
    6.0080   -0.1110   21.7370 C   0  0  1  0  0  0  0  0  0  0  0  0
    9.6510   -1.9630   23.8010 C   0  0  1  0  0  0  0  0  0  0  0  0
    8.2980   -1.4080   21.7510 C   0  0  0  0  0  0  0  0  0  0  0  0
    4.6570   -0.1990   22.4580 C   0  0  0  0  0  0  0  0  0  0  0  0
   10.3360   -3.2160   24.3140 C   0  0  0  0  0  0  0  0  0  0  0  0
    6.9500    0.9520   22.3880 C   0  0  0  0  0  0  0  0  0  0  0  0
    5.8170    0.3790   20.3030 C   0  0  0  0  0  0  0  0  0  0  0  0
   10.6110   -0.7790   23.6080 C   0  0  0  0  0  0  0  0  0  0  0  0
    3.7890    1.1070   22.4420 C   0  0  1  0  0  0  0  0  0  0  0  0
    4.6980    1.1800   19.9810 C   0  0  0  0  0  0  0  0  0  0  0  0
    6.7760    0.0600   19.2060 C   0  0  0  0  0  0  0  0  0  0  0  0
   10.1650    0.5840   24.0470 C   0  0  0  0  0  0  0  0  0  0  0  0
   11.9860   -0.8640   23.0120 C   0  0  0  0  0  0  0  0  0  0  0  0
    9.5840   -4.1130   25.3150 C   0  0  0  0  0  0  0  0  0  0  0  0
    4.3050    2.0850   23.3740 N   0  0  0  0  0  0  0  0  0  0  0  0
    3.6300    1.5820   20.9710 C   0  0  0  0  0  0  0  0  0  0  0  0
   12.6080   -2.1430   22.5030 C   0  0  0  0  0  0  0  0  0  0  0  0
    4.6110    1.6170   18.6360 C   0  0  0  0  0  0  0  0  0  0  0  0
    6.6250    0.5290   17.8580 N   0  0  0  0  0  0  0  0  0  0  0  0
   11.0330    1.7990   23.9090 C   0  0  0  0  0  0  0  0  0  0  0  0
   12.7640    0.2990   22.9060 C   0  0  0  0  0  0  0  0  0  0  0  0
    9.9800   -5.3940   25.5760 C   0  0  0  0  0  0  0  0  0  0  0  0
    8.1910   -3.7150   26.2530 S   0  0  0  0  0  0  0  0  0  0  0  0
    5.5410    1.2830   17.6990 C   0  0  0  0  0  0  0  0  0  0  0  0
   12.2850    1.5510   23.3400 C   0  0  0  0  0  0  0  0  0  0  0  0
    9.2150   -6.0720   26.5320 C   0  0  0  0  0  0  0  0  0  0  0  0
    8.2000   -5.3260   27.0310 C   0  0  0  0  0  0  0  0  0  0  0  0
    7.0490   -5.7590   28.2210 Cl  0  0  0  0  0  0  0  0  0  0  0  0
  1  2  1  0
  2  3  1  0
  3  4  1  0
  4  5  1  0
  6  5  1  1
  6  7  1  0
  6  8  1  0
  7  8  1  6
  7  9  1  0
  9 10  1  0
  9 11  1  1
 10 12  1  0
 11 13  1  0
 10 14  1  0
 12 15  1  0
 12 16  2  0
 14 17  1  0
 13 18  1  0
 13 19  1  0
 14 19  1  6
 17 20  1  0
 18 21  1  6
 17 22  1  1
 17 23  1  0
 18 24  1  0
 20 25  1  0
 23 26  2  0
 23 27  1  0
 24 28  2  0
 24 29  1  0
 21 30  1  0
 25 31  1  1
 25 32  1  0
 26 32  1  0
 29 33  1  0
 26 34  1  0
 27 35  2  0
 28 36  1  0
 29 37  2  0
 30 38  2  0
 30 39  1  0
 34 40  2  0
 35 40  1  0
 36 41  2  0
 37 41  1  0
 38 42  1  0
 39 43  1  0
 42 43  2  0
 43 44  1  0
M  END
