x0770_0-x1308_0
     RDKit          3D

 19 20  0  0  0  0  0  0  0  0999 V2000
    6.4200   -4.4200   20.5270 C   0  0  0  0  0  0  0  0  0  0  0  0
    7.4080   -3.4550   19.8620 C   0  0  0  0  0  0  0  0  0  0  0  0
    5.3630   -4.6650   19.9520 O   0  0  0  0  0  0  0  0  0  0  0  0
    6.7100   -5.0470   21.7250 N   0  0  0  0  0  0  0  0  0  0  0  0
    7.6190   -4.5700   22.7580 C   0  0  0  0  0  0  0  0  0  0  0  0
    5.9740   -6.2480   22.0650 C   0  0  0  0  0  0  0  0  0  0  0  0
    7.0110   -4.5940   24.1840 C   0  0  1  0  0  0  0  0  0  0  0  0
    5.0840   -6.0040   23.2780 C   0  0  0  0  0  0  0  0  0  0  0  0
    6.8480   -3.1950   24.7570 C   0  0  0  0  0  0  0  0  0  0  0  0
    5.7420   -5.3450   24.4190 N   0  0  0  0  0  0  0  0  0  0  0  0
    7.8870   -2.1290   24.3880 C   0  0  0  0  0  0  0  0  0  0  0  0
    9.2750   -2.6650   23.9430 C   0  0  0  0  0  0  0  0  0  0  0  0
   10.3640   -1.6070   23.7870 C   0  0  0  0  0  0  0  0  0  0  0  0
   11.3680   -1.9430   22.7020 C   0  0  0  0  0  0  0  0  0  0  0  0
   10.5430   -0.2910   24.5650 C   0  0  0  0  0  0  0  0  0  0  0  0
   12.4280   -1.1480   22.3650 C   0  0  0  0  0  0  0  0  0  0  0  0
   11.7320    0.5360   24.1390 C   0  0  0  0  0  0  0  0  0  0  0  0
   13.4220   -1.6840   21.1220 Cl  0  0  0  0  0  0  0  0  0  0  0  0
   12.6530    0.0800   23.0410 C   0  0  0  0  0  0  0  0  0  0  0  0
  1  2  1  0
  1  3  2  0
  1  4  1  0
  4  5  1  0
  4  6  1  0
  5  7  1  0
  6  8  1  0
  7  9  1  6
  7 10  1  0
  8 10  1  0
  9 11  1  0
 11 12  1  0
 12 13  1  0
 13 14  2  0
 13 15  1  0
 14 16  1  0
 15 17  2  0
 16 18  1  0
 16 19  2  0
 17 19  1  0
M  END
