x0771_0-x1386_0-x0731_0-x1412_0-x0689_0
     RDKit          3D

 31 34  0  0  0  0  0  0  0  0999 V2000
    6.4100   -4.2530   20.4810 C   0  0  0  0  0  0  0  0  0  0  0  0
    7.3280   -3.2970   19.7230 C   0  0  0  0  0  0  0  0  0  0  0  0
    5.3600   -4.5600   19.9280 O   0  0  0  0  0  0  0  0  0  0  0  0
    6.7410   -4.8140   21.7220 N   0  0  0  0  0  0  0  0  0  0  0  0
    6.1390   -6.1380   22.0000 C   0  0  0  0  0  0  0  0  0  0  0  0
    6.9160   -3.9540   22.9130 C   0  0  2  0  0  0  0  0  0  0  0  0
    8.2460   -3.1410   22.9650 C   0  0  0  0  0  0  0  0  0  0  0  0
    5.0620   -6.1340   23.1320 C   0  0  0  0  0  0  0  0  0  0  0  0
    6.7320   -4.6230   24.1240 C   0  0  0  0  0  0  0  0  0  0  0  0
    9.0370   -2.8640   24.2960 C   0  0  2  0  0  0  0  0  0  0  0  0
    5.3780   -5.1750   24.1740 N   0  0  0  0  0  0  0  0  0  0  0  0
    4.5520   -5.1830   25.6380 S   0  0  0  0  0  0  0  0  0  0  0  0
    8.5180   -1.5990   24.7860 O   0  0  0  0  0  0  0  0  0  0  0  0
   10.5130   -2.8030   24.0220 C   0  0  0  0  0  0  0  0  0  0  0  0
    8.8990   -3.9020   25.4140 C   0  0  0  0  0  0  0  0  0  0  0  0
    3.8040   -6.4210   25.7170 O   0  0  0  0  0  0  0  0  0  0  0  0
    5.5390   -4.6750   26.8620 O   0  0  0  0  0  0  0  0  0  0  0  0
    3.3520   -3.9330   25.6470 C   0  0  0  0  0  0  0  0  0  0  0  0
    9.6310   -5.2200   25.5140 C   0  0  0  0  0  0  0  0  0  0  0  0
    7.8700   -3.7930   26.8510 S   0  0  0  0  0  0  0  0  0  0  0  0
   11.2290   -1.4770   23.7980 C   0  0  0  0  0  0  0  0  0  0  0  0
    3.8810   -2.3270   25.9990 S   0  0  0  0  0  0  0  0  0  0  0  0
    1.9860   -3.9990   25.4120 C   0  0  0  0  0  0  0  0  0  0  0  0
    9.3730   -5.9680   26.5780 C   0  0  0  0  0  0  0  0  0  0  0  0
    8.3620   -5.3120   27.5010 C   0  0  0  0  0  0  0  0  0  0  0  0
   12.2980   -1.4260   22.9290 C   0  0  0  0  0  0  0  0  0  0  0  0
   10.9920   -0.2280   24.3470 C   0  0  0  0  0  0  0  0  0  0  0  0
    2.2340   -1.6830   25.8440 C   0  0  0  0  0  0  0  0  0  0  0  0
    1.2930   -2.6360   25.5310 C   0  0  0  0  0  0  0  0  0  0  0  0
   12.9020   -0.2020   22.7730 C   0  0  0  0  0  0  0  0  0  0  0  0
   12.1030    0.9450   23.7490 S   0  0  0  0  0  0  0  0  0  0  0  0
  1  2  1  0
  1  3  2  0
  1  4  1  0
  4  5  1  0
  4  6  1  0
  6  7  1  1
  5  8  1  0
  6  9  1  0
  7 10  1  0
  8 11  1  0
  9 11  1  0
 11 12  1  0
 10 13  1  1
 10 14  1  0
 10 15  1  0
 12 16  2  0
 12 17  2  0
 12 18  1  0
 15 19  2  0
 15 20  1  0
 14 21  1  0
 18 22  1  0
 18 23  2  0
 19 24  1  0
 20 25  1  0
 24 25  2  0
 21 26  1  0
 21 27  2  0
 22 28  1  0
 23 29  1  0
 28 29  2  0
 26 30  2  0
 27 31  1  0
 30 31  1  0
M  END
