x0786_2-x0708_1
     RDKit          3D

 19 21  0  0  0  0  0  0  0  0999 V2000
    3.3540   -6.9880   24.1070 C   0  0  0  0  0  0  0  0  0  0  0  0
    4.1910   -5.7180   24.1910 C   0  0  0  0  0  0  0  0  0  0  0  0
    4.3060   -4.9370   25.4090 C   0  0  0  0  0  0  0  0  0  0  0  0
    3.5710   -8.0070   24.7520 O   0  0  0  0  0  0  0  0  0  0  0  0
    4.9070   -5.2930   22.9410 C   0  0  0  0  0  0  0  0  0  0  0  0
    5.7690   -4.1750   22.6570 C   0  0  0  0  0  0  0  0  0  0  0  0
    5.1640   -3.7420   25.2860 C   0  0  0  0  0  0  0  0  0  0  0  0
    6.6720   -2.9480   22.4710 C   0  0  0  0  0  0  0  0  0  0  0  0
    5.8220   -3.4660   23.9170 C   0  0  0  0  0  0  0  0  0  0  0  0
    8.0690   -3.4160   22.8420 C   0  0  0  0  0  0  0  0  0  0  0  0
    9.1630   -2.3680   23.0800 C   0  0  0  0  0  0  0  0  0  0  0  0
   10.3590   -2.4690   22.3940 C   0  0  0  0  0  0  0  0  0  0  0  0
    9.0300   -1.0000   24.2290 S   0  0  0  0  0  0  0  0  0  0  0  0
   11.2530   -1.5180   22.7380 C   0  0  0  0  0  0  0  0  0  0  0  0
   10.6790   -0.5980   23.7510 C   0  0  0  0  0  0  0  0  0  0  0  0
   12.6570   -1.2320   22.3230 C   0  0  0  0  0  0  0  0  0  0  0  0
   11.3910    0.4650   24.2590 C   0  0  0  0  0  0  0  0  0  0  0  0
   13.2590    0.0370   22.9310 C   0  0  0  0  0  0  0  0  0  0  0  0
   12.4090    1.0730   23.2820 C   0  0  0  0  0  0  0  0  0  0  0  0
  1  2  1  0
  2  3  2  0
  1  4  2  0
  2  5  1  0
  5  6  2  0
  3  7  1  0
  6  8  1  0
  6  9  1  0
  7  9  2  0
  8 10  1  0
 10 11  1  0
 11 12  2  0
 11 13  1  0
 12 14  1  0
 13 15  1  0
 14 15  2  0
 14 16  1  0
 15 17  1  0
 16 18  1  0
 17 19  1  0
 18 19  1  0
M  END
