x0820_1-x1418_0-x0689_1
     RDKit          3D

 27 30  0  0  0  0  0  0  0  0999 V2000
    6.4710   -4.2650   20.5650 C   0  0  0  0  0  0  0  0  0  0  0  0
    7.8850   -3.6750   20.3580 C   0  0  0  0  0  0  0  0  0  0  0  0
    5.5530   -4.1640   19.7530 O   0  0  0  0  0  0  0  0  0  0  0  0
    6.2450   -4.8980   21.7700 N   0  0  0  0  0  0  0  0  0  0  0  0
    5.7930   -6.1830   21.9380 C   0  0  0  0  0  0  0  0  0  0  0  0
    6.8370   -4.2300   22.9440 C   0  0  2  0  0  0  0  0  0  0  0  0
    4.9080   -6.3010   23.2050 C   0  0  0  0  0  0  0  0  0  0  0  0
    6.0350   -4.4700   24.2110 C   0  0  1  0  0  0  0  0  0  0  0  0
    6.9640   -2.7260   22.5490 C   0  0  0  0  0  0  0  0  0  0  0  0
    5.6780   -5.8710   24.3860 N   0  0  0  0  0  0  0  0  0  0  0  0
    6.7020   -3.9850   25.3830 C   0  0  1  0  0  0  0  0  0  0  0  0
    4.7720   -3.9430   23.9320 C   0  0  0  0  0  0  0  0  0  0  0  0
    8.3570   -2.0990   22.5140 C   0  0  0  0  0  0  0  0  0  0  0  0
    5.8630   -4.1700   26.5160 C   0  0  0  0  0  0  0  0  0  0  0  0
    3.9000   -3.7430   24.9970 C   0  0  0  0  0  0  0  0  0  0  0  0
    8.0950   -4.2370   25.6020 C   0  0  0  0  0  0  0  0  0  0  0  0
    9.4100   -3.0210   22.5260 C   0  0  0  0  0  0  0  0  0  0  0  0
    4.3450   -4.0500   26.2890 C   0  0  0  0  0  0  0  0  0  0  0  0
    8.5860   -4.5390   26.8550 C   0  0  0  0  0  0  0  0  0  0  0  0
    6.3860   -4.4480   27.7980 C   0  0  0  0  0  0  0  0  0  0  0  0
   10.2560   -2.7950   23.7380 C   0  0  0  0  0  0  0  0  0  0  0  0
    7.7470   -4.6200   27.9360 C   0  0  0  0  0  0  0  0  0  0  0  0
   11.1460   -1.6040   23.5780 C   0  0  0  0  0  0  0  0  0  0  0  0
   12.2320   -1.4040   22.7450 C   0  0  0  0  0  0  0  0  0  0  0  0
   10.8930   -0.1830   24.5130 S   0  0  0  0  0  0  0  0  0  0  0  0
   12.8310   -0.1940   22.8380 C   0  0  0  0  0  0  0  0  0  0  0  0
   12.2180    0.6260   23.7710 C   0  0  0  0  0  0  0  0  0  0  0  0
  1  2  1  0
  1  3  2  0
  1  4  1  0
  4  5  1  0
  4  6  1  0
  5  7  1  0
  6  8  1  0
  6  9  1  6
  7 10  1  0
  8 10  1  0
  8 11  1  0
  8 12  1  6
  9 13  1  0
 11 14  1  0
 12 15  2  0
 11 16  1  1
 13 17  1  0
 14 18  2  0
 15 18  1  0
 16 19  2  0
 14 20  1  0
 17 21  1  0
 19 22  1  0
 20 22  2  0
 21 23  1  0
 23 24  2  0
 23 25  1  0
 24 26  1  0
 25 27  1  0
 26 27  2  0
M  END
