x0820_1-x1418_0-x1308_0
     RDKit          3D

 26 29  0  0  0  0  0  0  0  0999 V2000
    6.4370   -4.3010   20.4480 C   0  0  0  0  0  0  0  0  0  0  0  0
    7.4190   -3.3530   19.7430 C   0  0  0  0  0  0  0  0  0  0  0  0
    5.3560   -4.5200   19.9100 O   0  0  0  0  0  0  0  0  0  0  0  0
    6.7420   -4.9710   21.6350 N   0  0  0  0  0  0  0  0  0  0  0  0
    7.2930   -4.4050   22.8860 C   0  0  1  0  0  0  0  0  0  0  0  0
    6.0440   -6.2510   21.7840 C   0  0  0  0  0  0  0  0  0  0  0  0
    7.6640   -2.9110   22.6910 C   0  0  0  0  0  0  0  0  0  0  0  0
    6.3330   -4.6650   24.1030 C   0  0  1  0  0  0  0  0  0  0  0  0
    5.0120   -6.2090   22.9010 C   0  0  0  0  0  0  0  0  0  0  0  0
    9.1160   -2.6980   22.2630 C   0  0  0  0  0  0  0  0  0  0  0  0
    5.7350   -5.9660   24.1170 N   0  0  0  0  0  0  0  0  0  0  0  0
    6.8930   -4.6010   25.5000 C   0  0  2  0  0  0  0  0  0  0  0  0
    5.0630   -3.8370   23.9150 C   0  0  0  0  0  0  0  0  0  0  0  0
   10.0560   -2.6960   23.5070 C   0  0  0  0  0  0  0  0  0  0  0  0
    6.0010   -4.2670   26.5300 C   0  0  0  0  0  0  0  0  0  0  0  0
    4.2250   -3.3650   24.9200 C   0  0  0  0  0  0  0  0  0  0  0  0
    8.2030   -4.2250   25.7640 C   0  0  0  0  0  0  0  0  0  0  0  0
    4.6290   -3.6560   26.2490 C   0  0  0  0  0  0  0  0  0  0  0  0
    8.7790   -4.1560   27.0090 C   0  0  0  0  0  0  0  0  0  0  0  0
    6.5150   -4.5530   27.8530 C   0  0  0  0  0  0  0  0  0  0  0  0
   11.0290   -1.5630   23.4610 C   0  0  0  0  0  0  0  0  0  0  0  0
    7.9010   -4.4950   28.0640 C   0  0  0  0  0  0  0  0  0  0  0  0
   12.1480   -1.3900   22.6600 C   0  0  0  0  0  0  0  0  0  0  0  0
   10.8260   -0.2250   24.5060 S   0  0  0  0  0  0  0  0  0  0  0  0
   12.8400   -0.2200   22.8520 C   0  0  0  0  0  0  0  0  0  0  0  0
   12.2070    0.5490   23.8640 C   0  0  0  0  0  0  0  0  0  0  0  0
  1  2  1  0
  1  3  2  0
  1  4  1  0
  4  5  1  0
  4  6  1  0
  5  7  1  6
  5  8  1  0
  6  9  1  0
  7 10  1  0
  8 11  1  0
  9 11  1  0
  8 12  1  0
  8 13  1  1
 10 14  1  0
 12 15  1  0
 13 16  2  0
 12 17  1  6
 15 18  2  0
 16 18  1  0
 17 19  2  0
 15 20  1  0
 14 21  1  0
 19 22  1  0
 20 22  2  0
 21 23  2  0
 21 24  1  0
 23 25  1  0
 24 26  1  0
 25 26  2  0
M  END
