x0820_1-x0946_0
     RDKit          3D

 27 29  0  0  0  0  0  0  0  0999 V2000
    9.1600    5.2620   22.7460 N   0  0  0  0  0  0  0  0  0  0  0  0
   10.5050    5.2730   23.7300 S   0  0  0  0  0  0  0  0  0  0  0  0
    9.9640    5.4800   25.0550 O   0  0  0  0  0  0  0  0  0  0  0  0
   11.4830    6.1850   23.1690 O   0  0  0  0  0  0  0  0  0  0  0  0
   11.0870    3.6580   23.5380 C   0  0  0  0  0  0  0  0  0  0  0  0
   12.3470    3.5690   23.0020 C   0  0  0  0  0  0  0  0  0  0  0  0
   10.4390    2.4470   23.8630 C   0  0  0  0  0  0  0  0  0  0  0  0
   12.9640    2.3610   22.7860 C   0  0  0  0  0  0  0  0  0  0  0  0
   11.0810    1.1950   23.6310 C   0  0  0  0  0  0  0  0  0  0  0  0
   12.3760    1.1560   23.0760 C   0  0  0  0  0  0  0  0  0  0  0  0
   13.1850   -0.0150   22.7610 O   0  0  0  0  0  0  0  0  0  0  0  0
   12.7160   -1.2660   23.2320 C   0  0  0  0  0  0  0  0  0  0  0  0
   11.8110   -1.8380   22.3150 C   0  0  0  0  0  0  0  0  0  0  0  0
   10.4520   -1.4560   22.3700 C   0  0  0  0  0  0  0  0  0  0  0  0
    9.5680   -2.5520   22.3980 C   0  0  0  0  0  0  0  0  0  0  0  0
    8.1120   -2.4380   22.7670 C   0  0  0  0  0  0  0  0  0  0  0  0
    7.3790   -3.8010   22.7470 C   0  0  0  0  0  0  0  0  0  0  0  0
    6.4490   -4.0470   23.9090 C   0  0  0  0  0  0  0  0  0  0  0  0
    6.9520   -4.2570   25.3520 C   0  0  0  0  0  0  0  0  0  0  0  0
    5.0640   -4.0750   23.6060 C   0  0  0  0  0  0  0  0  0  0  0  0
    5.9240   -4.4900   26.4860 C   0  0  0  0  0  0  0  0  0  0  0  0
    4.0480   -4.3120   24.7200 C   0  0  0  0  0  0  0  0  0  0  0  0
    8.2900   -4.2510   25.7160 C   0  0  0  0  0  0  0  0  0  0  0  0
    4.5690   -4.5080   26.1330 C   0  0  0  0  0  0  0  0  0  0  0  0
    8.6870   -4.4430   27.0390 C   0  0  0  0  0  0  0  0  0  0  0  0
    6.3860   -4.6720   27.7900 C   0  0  0  0  0  0  0  0  0  0  0  0
    7.7570   -4.6470   28.0550 C   0  0  0  0  0  0  0  0  0  0  0  0
  2  1  1  0
  2  3  2  0
  2  4  2  0
  2  5  1  0
  5  6  2  0
  5  7  1  0
  6  8  1  0
  7  9  2  0
  8 10  2  0
  9 10  1  0
 10 11  1  0
 11 12  1  0
 12 13  1  0
 13 14  1  0
 14 15  1  0
 15 16  1  0
 16 17  1  0
 17 18  1  0
 18 19  1  0
 18 20  2  0
 19 21  2  0
 20 22  1  0
 19 23  1  0
 21 24  1  0
 22 24  2  0
 23 25  2  0
 21 26  1  0
 25 27  1  0
 26 27  2  0
M  END
