x0820_1-x0692_1-x1418_0-x0540_3
     RDKit          3D

 31 34  0  0  0  0  0  0  0  0999 V2000
    6.2260   -3.3260   19.8660 C   0  0  0  0  0  0  0  0  0  0  0  0
    7.2680   -2.9850   18.8050 C   0  0  0  0  0  0  0  0  0  0  0  0
    5.2170   -3.9710   19.6060 O   0  0  0  0  0  0  0  0  0  0  0  0
    6.5150   -2.9590   21.1780 N   0  0  0  0  0  0  0  0  0  0  0  0
    6.7680   -1.6040   21.6900 C   0  0  2  0  0  0  0  0  0  0  0  0
    7.3340   -3.9130   21.9110 C   0  0  0  0  0  0  0  0  0  0  0  0
    6.2380   -0.5220   20.7230 C   0  0  0  0  0  0  0  0  0  0  0  0
    8.2220   -1.5040   22.1720 C   0  0  0  0  0  0  0  0  0  0  0  0
    7.6020   -3.6180   23.1940 C   0  0  1  0  0  0  0  0  0  0  0  0
    5.0340    0.2870   21.2730 C   0  0  0  0  0  0  0  0  0  0  0  0
    8.3720   -2.3420   23.3070 N   0  0  0  0  0  0  0  0  0  0  0  0
    6.5670   -3.8530   24.1190 C   0  0  0  0  0  0  0  0  0  0  0  0
    5.3530    1.3510   22.3590 C   0  0  0  0  0  0  0  0  0  0  0  0
    9.8050   -2.6710   23.4810 C   0  0  0  0  0  0  0  0  0  0  0  0
    6.8370   -4.1060   25.4740 C   0  0  0  0  0  0  0  0  0  0  0  0
    5.1940   -3.8740   23.7720 C   0  0  0  0  0  0  0  0  0  0  0  0
    4.2750    2.3390   22.5100 N   0  0  0  0  0  0  0  0  0  0  0  0
    6.0480   -4.3550   26.4910 C   0  0  0  0  0  0  0  0  0  0  0  0
    4.2340   -4.1350   24.7830 C   0  0  0  0  0  0  0  0  0  0  0  0
    8.2400   -4.0690   25.6980 C   0  0  0  0  0  0  0  0  0  0  0  0
   10.8100   -1.5540   23.4430 C   0  0  0  0  0  0  0  0  0  0  0  0
    3.0830    2.0950   23.3320 C   0  0  0  0  0  0  0  0  0  0  0  0
    4.6330   -4.3730   26.1240 C   0  0  0  0  0  0  0  0  0  0  0  0
    8.6770   -4.3040   27.0090 C   0  0  0  0  0  0  0  0  0  0  0  0
    6.5220   -4.6020   27.8870 C   0  0  0  0  0  0  0  0  0  0  0  0
   11.9320   -1.4090   22.6140 C   0  0  0  0  0  0  0  0  0  0  0  0
   10.6860   -0.1230   24.5830 S   0  0  0  0  0  0  0  0  0  0  0  0
    2.9960    1.4610   24.3830 O   0  0  0  0  0  0  0  0  0  0  0  0
    7.8780   -4.5770   28.1600 C   0  0  0  0  0  0  0  0  0  0  0  0
   12.6290   -0.2410   22.8720 C   0  0  0  0  0  0  0  0  0  0  0  0
   12.0930    0.5380   23.8740 C   0  0  0  0  0  0  0  0  0  0  0  0
  1  2  1  0
  1  3  2  0
  1  4  1  0
  4  5  1  0
  4  6  1  0
  5  7  1  6
  5  8  1  0
  6  9  1  0
  7 10  1  0
  8 11  1  0
  9 11  1  0
  9 12  1  1
 10 13  1  0
 11 14  1  0
 12 15  1  0
 12 16  2  0
 13 17  1  0
 15 18  2  0
 16 19  1  0
 15 20  1  0
 14 21  1  0
 17 22  1  0
 18 23  1  0
 19 23  2  0
 20 24  2  0
 18 25  1  0
 21 26  2  0
 21 27  1  0
 22 28  2  0
 24 29  1  0
 25 29  2  0
 26 30  1  0
 27 31  1  0
 30 31  2  0
M  END
