x0820_1-x0981_1-x0874_0-x1418_1
     RDKit          3D

 38 42  0  0  0  0  0  0  0  0999 V2000
    4.5100   -5.5080   23.1820 C   0  0  0  0  0  0  0  0  0  0  0  0
    3.0940   -6.0780   23.3390 C   0  0  1  0  0  0  0  0  0  0  0  0
    2.7840   -7.2380   22.5050 N   0  0  0  0  0  0  0  0  0  0  0  0
    4.1540   -4.5400   24.7490 C   0  0  0  0  0  0  0  0  0  0  0  0
    2.7930   -6.3500   24.8150 C   0  0  0  0  0  0  0  0  0  0  0  0
    4.5530   -4.5590   26.0430 C   0  0  0  0  0  0  0  0  0  0  0  0
    5.0990   -4.3650   23.7200 C   0  0  0  0  0  0  0  0  0  0  0  0
    1.5900   -7.3850   21.9160 C   0  0  0  0  0  0  0  0  0  0  0  0
    3.0600   -7.7920   25.1920 C   0  0  0  0  0  0  0  0  0  0  0  0
    6.4390   -4.2050   23.9830 C   0  0  0  0  0  0  0  0  0  0  0  0
    5.9160   -4.3990   26.3890 C   0  0  0  0  0  0  0  0  0  0  0  0
    1.3430   -8.6730   21.1970 C   0  0  0  0  0  0  0  0  0  0  0  0
    0.7360   -6.5000   21.9450 O   0  0  0  0  0  0  0  0  0  0  0  0
    2.4110   -8.2650   26.2450 N   0  0  0  0  0  0  0  0  0  0  0  0
    3.8600   -8.4710   24.5530 O   0  0  0  0  0  0  0  0  0  0  0  0
    5.8130   -3.8100   23.1810 C   0  0  0  0  0  0  0  0  0  0  0  0
    6.8860   -4.2170   25.3580 C   0  0  0  0  0  0  0  0  0  0  0  0
    6.3270   -4.4200   27.7430 C   0  0  0  0  0  0  0  0  0  0  0  0
    6.6470   -3.2090   22.0840 C   0  0  0  0  0  0  0  0  0  0  0  0
    8.2410   -4.0590   25.7640 C   0  0  0  0  0  0  0  0  0  0  0  0
    7.6330   -4.2720   28.0760 C   0  0  0  0  0  0  0  0  0  0  0  0
    7.9640   -3.5080   22.7600 C   0  0  0  0  0  0  0  0  0  0  0  0
    6.9090   -2.5550   20.8100 C   0  0  1  0  0  0  0  0  0  0  0  0
    8.6000   -4.0860   27.0800 C   0  0  0  0  0  0  0  0  0  0  0  0
    6.5850   -3.1130   19.6270 C   0  0  0  0  0  0  0  0  0  0  0  0
    7.5420   -2.5260   22.4730 C   0  0  0  0  0  0  0  0  0  0  0  0
    8.7490   -2.2870   22.9660 N   0  0  0  0  0  0  0  0  0  0  0  0
    7.6260   -1.3000   21.0140 C   0  0  0  0  0  0  0  0  0  0  0  0
    7.1740   -2.5200   18.3610 C   0  0  0  0  0  0  0  0  0  0  0  0
    5.8870   -4.1230   19.5740 O   0  0  0  0  0  0  0  0  0  0  0  0
   10.0130   -1.4360   22.2790 C   0  0  0  0  0  0  0  0  0  0  0  0
    8.9430   -1.6010   21.6850 C   0  0  0  0  0  0  0  0  0  0  0  0
    8.2840   -1.4500   21.3490 C   0  0  0  0  0  0  0  0  0  0  0  0
   11.0770   -0.4550   23.0860 C   0  0  0  0  0  0  0  0  0  0  0  0
   12.0820    0.4690   23.4640 C   0  0  0  0  0  0  0  0  0  0  0  0
   11.4570   -1.4510   22.1640 C   0  0  0  0  0  0  0  0  0  0  0  0
   13.3380    0.2600   22.8420 C   0  0  0  0  0  0  0  0  0  0  0  0
   13.1460   -1.1360   21.8020 S   0  0  0  0  0  0  0  0  0  0  0  0
  2  1  1  1
  2  3  1  0
  1  4  1  0
  2  5  1  0
  4  6  2  0
  4  7  1  0
  3  8  1  0
  5  9  1  0
  7 10  2  0
  6 11  1  0
  8 12  1  0
  8 13  2  0
  9 14  1  0
  9 15  2  0
 10 16  1  0
 10 17  1  0
 11 17  2  0
 11 18  1  0
 16 19  1  0
 17 20  1  0
 18 21  2  0
 19 22  1  0
 19 23  1  0
 20 24  2  0
 21 24  1  0
 23 25  1  6
 23 26  1  0
 22 27  1  0
 26 27  1  0
 23 28  1  0
 25 29  1  0
 25 30  2  0
 27 31  1  0
 26 32  2  0
 28 33  2  0
 32 33  1  0
 31 34  1  0
 34 35  1  0
 34 36  2  0
 35 37  2  0
 36 38  1  0
 37 38  1  0
M  END
