x0820_0-x0874_0
     RDKit          3D

 13 13  0  0  0  0  0  0  0  0999 V2000
    6.5760   -4.2570   21.9160 N   0  0  0  0  0  0  0  0  0  0  0  0
    6.3250   -4.2940   20.5260 C   0  0  0  0  0  0  0  0  0  0  0  0
    5.4950   -5.0750   20.0490 O   0  0  0  0  0  0  0  0  0  0  0  0
    7.8290   -4.3460   22.4530 C   0  0  0  0  0  0  0  0  0  0  0  0
    7.0760   -3.3730   19.5460 C   0  0  0  0  0  0  0  0  0  0  0  0
    8.0620   -3.5720   23.7430 C   0  0  0  0  0  0  0  0  0  0  0  0
    8.5090   -2.1470   23.5420 C   0  0  0  0  0  0  0  0  0  0  0  0
    9.7950   -1.9680   22.6890 C   0  0  0  0  0  0  0  0  0  0  0  0
   10.7670   -0.7510   22.9940 C   0  0  0  0  0  0  0  0  0  0  0  0
   11.8710    0.1580   23.1070 C   0  0  0  0  0  0  0  0  0  0  0  0
   11.5980   -1.6860   22.2770 C   0  0  0  0  0  0  0  0  0  0  0  0
   13.0830   -0.0060   22.6620 C   0  0  0  0  0  0  0  0  0  0  0  0
   13.2480   -1.4440   21.8980 S   0  0  0  0  0  0  0  0  0  0  0  0
  1  2  1  0
  2  3  2  0
  1  4  1  0
  2  5  1  0
  4  6  1  0
  6  7  1  0
  7  8  1  0
  8  9  1  0
  9 10  1  0
  9 11  2  0
 10 12  2  0
 11 13  1  0
 12 13  1  0
M  END
