x0820_1-x0978_1-x1418_0
     RDKit          3D

 28 30  0  0  0  0  0  0  0  0999 V2000
    3.6890   -5.0310   23.3900 C   0  0  0  0  0  0  0  0  0  0  0  0
    2.7900   -6.2440   23.2960 C   0  0  2  0  0  0  0  0  0  0  0  0
    1.4100   -5.8080   23.3570 N   0  0  0  0  0  0  0  0  0  0  0  0
    4.1320   -4.9620   24.8100 C   0  0  0  0  0  0  0  0  0  0  0  0
    3.1010   -7.2170   24.4410 C   0  0  1  0  0  0  0  0  0  0  0  0
    4.8490   -4.8450   26.1970 C   0  0  0  0  0  0  0  0  0  0  0  0
    5.2720   -4.7200   23.9090 C   0  0  0  0  0  0  0  0  0  0  0  0
    0.4670   -6.2310   22.4620 C   0  0  0  0  0  0  0  0  0  0  0  0
    2.0900   -8.3070   24.7070 C   0  0  0  0  0  0  0  0  0  0  0  0
    4.3540   -7.8540   24.2110 O   0  0  0  0  0  0  0  0  0  0  0  0
    6.6350   -4.4660   24.1070 C   0  0  0  0  0  0  0  0  0  0  0  0
    6.1820   -4.6160   26.4710 C   0  0  0  0  0  0  0  0  0  0  0  0
    0.5840   -7.2430   21.7860 O   0  0  0  0  0  0  0  0  0  0  0  0
   -0.7390   -5.3410   22.3820 C   0  0  0  0  0  0  0  0  0  0  0  0
    7.5130   -4.2520   22.8890 C   0  0  0  0  0  0  0  0  0  0  0  0
    7.1500   -4.4150   25.3300 C   0  0  0  0  0  0  0  0  0  0  0  0
    6.6530   -4.5740   27.7840 C   0  0  0  0  0  0  0  0  0  0  0  0
    7.6740   -2.7800   22.4510 C   0  0  0  0  0  0  0  0  0  0  0  0
    8.4920   -4.1980   25.6640 C   0  0  0  0  0  0  0  0  0  0  0  0
    8.0090   -4.3580   28.0310 C   0  0  0  0  0  0  0  0  0  0  0  0
    9.1350   -2.4210   22.1890 C   0  0  0  0  0  0  0  0  0  0  0  0
    8.9110   -4.1750   26.9910 C   0  0  0  0  0  0  0  0  0  0  0  0
    9.9830   -2.5450   23.4530 C   0  0  0  0  0  0  0  0  0  0  0  0
   11.0050   -1.4710   23.4180 C   0  0  0  0  0  0  0  0  0  0  0  0
   12.1080   -1.3780   22.6880 C   0  0  0  0  0  0  0  0  0  0  0  0
   10.8400   -0.0900   24.4080 S   0  0  0  0  0  0  0  0  0  0  0  0
   12.9260   -0.1300   22.8750 C   0  0  0  0  0  0  0  0  0  0  0  0
   12.2770    0.6410   23.8140 C   0  0  0  0  0  0  0  0  0  0  0  0
  2  1  1  1
  2  3  1  0
  1  4  1  0
  2  5  1  0
  4  6  2  0
  4  7  1  0
  3  8  1  0
  5  9  1  6
  5 10  1  0
  7 11  2  0
  6 12  1  0
  8 13  2  0
  8 14  1  0
 11 15  1  0
 11 16  1  0
 12 16  2  0
 12 17  1  0
 15 18  1  0
 16 19  1  0
 17 20  2  0
 18 21  1  0
 19 22  2  0
 20 22  1  0
 21 23  1  0
 23 24  1  0
 24 25  2  0
 24 26  1  0
 25 27  1  0
 26 28  1  0
 27 28  2  0
M  END
