x0820_1-x0540_3
     RDKit          3D

 19 20  0  0  0  0  0  0  0  0999 V2000
    4.8450    0.1510   21.6630 C   0  0  0  0  0  0  0  0  0  0  0  0
    5.3350    1.3580   22.4880 C   0  0  0  0  0  0  0  0  0  0  0  0
    4.2690    2.3610   22.5790 N   0  0  0  0  0  0  0  0  0  0  0  0
    5.2160   -1.1700   22.3310 C   0  0  0  0  0  0  0  0  0  0  0  0
    6.2410   -1.9430   21.4920 C   0  0  0  0  0  0  0  0  0  0  0  0
    3.0420    2.0930   23.3460 C   0  0  0  0  0  0  0  0  0  0  0  0
    7.4020   -2.5050   22.3480 C   0  0  0  0  0  0  0  0  0  0  0  0
    2.9770    1.4590   24.3920 O   0  0  0  0  0  0  0  0  0  0  0  0
    7.2280   -3.9840   22.7770 C   0  0  0  0  0  0  0  0  0  0  0  0
    6.4660   -4.1900   24.0030 C   0  0  0  0  0  0  0  0  0  0  0  0
    6.9190   -4.3170   25.3130 C   0  0  0  0  0  0  0  0  0  0  0  0
    5.1180   -4.2450   23.6680 C   0  0  0  0  0  0  0  0  0  0  0  0
    5.9270   -4.5100   26.3490 C   0  0  0  0  0  0  0  0  0  0  0  0
    4.1730   -4.4330   24.6700 C   0  0  0  0  0  0  0  0  0  0  0  0
    8.2840   -4.2680   25.6610 C   0  0  0  0  0  0  0  0  0  0  0  0
    4.5850   -4.5610   25.9900 C   0  0  0  0  0  0  0  0  0  0  0  0
    8.7940   -4.4120   27.1080 C   0  0  0  0  0  0  0  0  0  0  0  0
    6.3320   -4.6430   27.6930 C   0  0  0  0  0  0  0  0  0  0  0  0
    7.8050   -4.5920   28.0610 C   0  0  0  0  0  0  0  0  0  0  0  0
  1  2  1  0
  2  3  1  0
  1  4  1  0
  4  5  1  0
  3  6  1  0
  5  7  1  0
  6  8  2  0
  7  9  1  0
  9 10  1  0
 10 11  2  0
 10 12  1  0
 11 13  1  0
 12 14  2  0
 11 15  1  0
 13 16  2  0
 14 16  1  0
 15 17  2  0
 13 18  1  0
 17 19  1  0
 18 19  2  0
M  END
