x0820_0-x0692_0
     RDKit          3D

 14 14  0  0  0  0  0  0  0  0999 V2000
    6.8190   -4.4300   21.8630 N   0  0  0  0  0  0  0  0  0  0  0  0
    6.3650   -4.3480   20.5270 C   0  0  0  0  0  0  0  0  0  0  0  0
    5.4710   -5.0680   20.0610 O   0  0  0  0  0  0  0  0  0  0  0  0
    7.1470   -3.2380   22.5470 C   0  0  0  0  0  0  0  0  0  0  0  0
    7.0110   -3.3710   19.5590 C   0  0  0  0  0  0  0  0  0  0  0  0
    8.5820   -2.6080   22.4590 C   0  0  0  0  0  0  0  0  0  0  0  0
    9.3840   -2.5110   23.6540 C   0  0  0  0  0  0  0  0  0  0  0  0
   10.4330   -1.5830   23.5130 C   0  0  0  0  0  0  0  0  0  0  0  0
   10.1670   -0.2250   23.7620 C   0  0  0  0  0  0  0  0  0  0  0  0
   11.7610   -1.9520   23.1270 C   0  0  0  0  0  0  0  0  0  0  0  0
   11.1140    0.7160   23.6400 C   0  0  0  0  0  0  0  0  0  0  0  0
   12.7380   -1.0270   23.0000 C   0  0  0  0  0  0  0  0  0  0  0  0
   10.7100    2.1890   23.9210 C   0  0  0  0  0  0  0  0  0  0  0  0
   12.5320    0.4450   23.2440 C   0  0  0  0  0  0  0  0  0  0  0  0
  1  2  1  0
  2  3  2  0
  1  4  1  0
  2  5  1  0
  4  6  1  0
  6  7  1  0
  7  8  1  0
  8  9  2  0
  8 10  1  0
  9 11  1  0
 10 12  2  0
 11 13  1  0
 11 14  2  0
 12 14  1  0
M  END
