x0820_1-x1458_1-x1418_0
     RDKit          3D

 28 32  0  0  0  0  0  0  0  0999 V2000
    5.0410   -3.2160   25.4540 O   0  0  0  0  0  0  0  0  0  0  0  0
    4.5530   -4.5590   26.0430 C   0  0  2  0  0  0  0  0  0  0  0  0
    5.9160   -4.3990   26.3890 C   0  0  0  0  0  0  0  0  0  0  0  0
    4.1540   -4.5400   24.7490 C   0  0  0  0  0  0  0  0  0  0  0  0
    6.8860   -4.2170   25.3580 C   0  0  0  0  0  0  0  0  0  0  0  0
    5.0990   -4.3650   23.7200 C   0  0  0  0  0  0  0  0  0  0  0  0
    6.3270   -4.4200   27.7430 C   0  0  0  0  0  0  0  0  0  0  0  0
    6.8720   -4.1390   24.2000 C   0  0  0  0  0  0  0  0  0  0  0  0
    8.2410   -4.0590   25.7640 C   0  0  0  0  0  0  0  0  0  0  0  0
    7.6330   -4.2720   28.0760 C   0  0  0  0  0  0  0  0  0  0  0  0
    7.4200   -4.0010   22.8340 C   0  0  2  0  0  0  0  0  0  0  0  0
    8.6000   -4.0860   27.0800 C   0  0  0  0  0  0  0  0  0  0  0  0
    6.4010   -4.6060   23.8200 C   0  0  0  0  0  0  0  0  0  0  0  0
    7.3180   -2.9970   23.2790 C   0  0  1  0  0  0  0  0  0  0  0  0
    6.5870   -5.5690   22.1770 C   0  0  1  0  0  0  0  0  0  0  0  0
    5.9290   -5.0730   23.4400 C   0  0  0  0  0  0  0  0  0  0  0  0
    8.7980   -2.5840   23.0090 C   0  0  0  0  0  0  0  0  0  0  0  0
    7.9170   -3.5230   21.9960 C   0  0  0  0  0  0  0  0  0  0  0  0
    6.9790   -4.4350   21.3330 N   0  0  0  0  0  0  0  0  0  0  0  0
    6.4870   -4.2700   20.0840 C   0  0  0  0  0  0  0  0  0  0  0  0
   10.0540   -2.6430   23.5460 C   0  0  0  0  0  0  0  0  0  0  0  0
    5.6280   -5.0060   19.6180 O   0  0  0  0  0  0  0  0  0  0  0  0
    7.0360   -3.1350   19.2610 C   0  0  0  0  0  0  0  0  0  0  0  0
   11.0210   -1.5060   23.5860 C   0  0  0  0  0  0  0  0  0  0  0  0
   12.1120   -1.2610   22.7430 C   0  0  0  0  0  0  0  0  0  0  0  0
   10.8900   -0.2770   24.7770 S   0  0  0  0  0  0  0  0  0  0  0  0
   12.7990   -0.0810   23.1240 C   0  0  0  0  0  0  0  0  0  0  0  0
   12.1210    0.6380   24.0450 C   0  0  0  0  0  0  0  0  0  0  0  0
  2  1  1  1
  2  3  1  0
  2  4  1  0
  3  5  2  0
  4  6  2  0
  3  7  1  0
  5  8  1  0
  6  8  1  0
  5  9  1  0
  7 10  2  0
 11  8  1  1
  9 12  2  0
 10 12  1  0
  8 13  1  0
 11 14  1  0
 11 15  1  0
 13 16  2  0
 15 16  1  1
 14 17  1  1
 14 18  1  0
 15 19  1  0
 18 19  1  0
 19 20  1  0
 17 21  1  0
 20 22  2  0
 20 23  1  0
 21 24  1  0
 24 25  2  0
 24 26  1  0
 25 27  1  0
 26 28  1  0
 27 28  2  0
M  END
