x0820_1-x1385_1
     RDKit          3D

 21 24  0  0  0  0  0  0  0  0999 V2000
    6.5720   -3.0600   19.7420 C   0  0  0  0  0  0  0  0  0  0  0  0
    7.2840   -2.4680   18.5380 C   0  0  0  0  0  0  0  0  0  0  0  0
    5.7650   -3.9680   19.5830 O   0  0  0  0  0  0  0  0  0  0  0  0
    6.8730   -2.6050   20.9790 N   0  0  0  0  0  0  0  0  0  0  0  0
    7.5420   -2.5260   22.4730 C   0  0  1  0  0  0  0  0  0  0  0  0
    6.4070   -3.2690   22.1930 C   0  0  0  0  0  0  0  0  0  0  0  0
    8.4880   -2.6480   23.3470 N   0  0  0  0  0  0  0  0  0  0  0  0
    7.5960   -3.7560   22.9880 C   0  0  1  0  0  0  0  0  0  0  0  0
    7.7450   -1.4790   21.3090 C   0  0  0  0  0  0  0  0  0  0  0  0
    8.9240   -1.9670   22.1220 C   0  0  0  0  0  0  0  0  0  0  0  0
    6.4390   -4.2050   23.9830 C   0  0  0  0  0  0  0  0  0  0  0  0
    8.3350   -1.7230   21.7150 C   0  0  0  0  0  0  0  0  0  0  0  0
    6.8860   -4.2170   25.3580 C   0  0  0  0  0  0  0  0  0  0  0  0
    5.0990   -4.3650   23.7200 C   0  0  0  0  0  0  0  0  0  0  0  0
    5.9160   -4.3990   26.3890 C   0  0  0  0  0  0  0  0  0  0  0  0
    4.1540   -4.5400   24.7490 C   0  0  0  0  0  0  0  0  0  0  0  0
    8.2410   -4.0590   25.7640 C   0  0  0  0  0  0  0  0  0  0  0  0
    4.5530   -4.5590   26.0430 C   0  0  0  0  0  0  0  0  0  0  0  0
    8.6000   -4.0860   27.0800 C   0  0  0  0  0  0  0  0  0  0  0  0
    6.3270   -4.4200   27.7430 C   0  0  0  0  0  0  0  0  0  0  0  0
    7.6330   -4.2720   28.0760 C   0  0  0  0  0  0  0  0  0  0  0  0
  1  2  1  0
  1  3  2  0
  1  4  1  0
  4  5  1  0
  4  6  1  0
  5  7  1  0
  6  8  1  0
  7  8  1  0
  5  9  1  6
  7 10  1  0
  8 11  1  1
  9 12  2  0
 10 12  1  0
 11 13  1  0
 11 14  2  0
 13 15  2  0
 14 16  1  0
 13 17  1  0
 15 18  1  0
 16 18  2  0
 17 19  2  0
 15 20  1  0
 19 21  1  0
 20 21  2  0
M  END
