x0820_0-x0769_1
     RDKit          3D

 17 17  0  0  0  0  0  0  0  0999 V2000
    6.7380   -4.4830   21.7050 N   0  0  0  0  0  0  0  0  0  0  0  0
    6.2630   -4.3830   20.4240 C   0  0  0  0  0  0  0  0  0  0  0  0
    5.3570   -5.0970   20.0260 O   0  0  0  0  0  0  0  0  0  0  0  0
    6.7500   -5.7280   22.4510 C   0  0  0  0  0  0  0  0  0  0  0  0
    6.9470   -3.3770   19.5000 C   0  0  0  0  0  0  0  0  0  0  0  0
    6.4510   -5.3980   23.9030 C   0  0  0  0  0  0  0  0  0  0  0  0
    5.0150   -5.6700   24.2320 C   0  0  0  0  0  0  0  0  0  0  0  0
    4.6160   -5.3590   25.8710 S   0  0  0  0  0  0  0  0  0  0  0  0
    5.8460   -5.1110   26.5980 O   0  0  0  0  0  0  0  0  0  0  0  0
    3.7320   -6.4310   26.2770 O   0  0  0  0  0  0  0  0  0  0  0  0
    3.7140   -3.9160   25.9090 C   0  0  0  0  0  0  0  0  0  0  0  0
    2.1800   -4.0310   25.7620 C   0  0  0  0  0  0  0  0  0  0  0  0
    4.3000   -2.6670   26.0690 C   0  0  0  0  0  0  0  0  0  0  0  0
    5.6230   -2.5060   26.2010 F   0  0  0  0  0  0  0  0  0  0  0  0
    1.4470   -2.8970   25.7960 C   0  0  0  0  0  0  0  0  0  0  0  0
    3.4620   -1.5680   26.0900 C   0  0  0  0  0  0  0  0  0  0  0  0
    2.1010   -1.6670   25.9610 C   0  0  0  0  0  0  0  0  0  0  0  0
  1  2  1  0
  2  3  2  0
  1  4  1  0
  2  5  1  0
  4  6  1  0
  6  7  1  0
  8  7  1  0
  8  9  2  0
  8 10  2  0
  8 11  1  0
 11 12  2  0
 11 13  1  0
 13 14  1  0
 12 15  1  0
 13 16  2  0
 15 17  2  0
 16 17  1  0
M  END
