x0820_1-x1418_0-x1386_0
     RDKit          3D

 20 22  0  0  0  0  0  0  0  0999 V2000
    7.4270   -4.0810   22.7670 C   0  0  0  0  0  0  0  0  0  0  0  0
    7.7060   -2.6060   22.4510 C   0  0  0  0  0  0  0  0  0  0  0  0
    9.1960   -2.3700   22.1750 C   0  0  0  0  0  0  0  0  0  0  0  0
    6.4440   -4.2390   23.9010 C   0  0  0  0  0  0  0  0  0  0  0  0
    6.8930   -4.3840   25.3910 C   0  0  0  0  0  0  0  0  0  0  0  0
    5.0780   -4.2510   23.6070 C   0  0  0  0  0  0  0  0  0  0  0  0
   10.0480   -2.5240   23.3500 C   0  0  2  0  0  0  0  0  0  0  0  0
    5.8990   -4.5180   26.4240 C   0  0  0  0  0  0  0  0  0  0  0  0
    4.1640   -4.3900   24.6690 C   0  0  0  0  0  0  0  0  0  0  0  0
    8.2680   -4.3920   25.7860 C   0  0  0  0  0  0  0  0  0  0  0  0
    9.2880   -2.3800   24.6270 C   0  0  0  0  0  0  0  0  0  0  0  0
    4.5470   -4.5160   26.0190 C   0  0  0  0  0  0  0  0  0  0  0  0
    8.7400   -4.5120   27.0790 C   0  0  0  0  0  0  0  0  0  0  0  0
    6.3410   -4.6490   27.8450 C   0  0  0  0  0  0  0  0  0  0  0  0
   11.0720   -1.3750   23.3480 C   0  0  0  0  0  0  0  0  0  0  0  0
    7.8400   -4.6380   28.1200 C   0  0  0  0  0  0  0  0  0  0  0  0
   12.2440   -1.3060   22.5790 C   0  0  0  0  0  0  0  0  0  0  0  0
   10.9000    0.0410   24.3290 S   0  0  0  0  0  0  0  0  0  0  0  0
   12.9470   -0.1380   22.7880 C   0  0  0  0  0  0  0  0  0  0  0  0
   12.3320    0.6860   23.7050 C   0  0  0  0  0  0  0  0  0  0  0  0
  1  2  1  0
  2  3  1  0
  1  4  1  0
  4  5  1  0
  4  6  2  0
  3  7  1  0
  5  8  2  0
  6  9  1  0
  5 10  1  0
  7 11  1  1
  8 12  1  0
  9 12  2  0
 10 13  2  0
  8 14  1  0
  7 15  1  0
 13 16  1  0
 14 16  2  0
 15 17  2  0
 15 18  1  0
 17 19  1  0
 18 20  1  0
 19 20  2  0
M  END
