x0820_0-x1418_0
     RDKit          3D

 12 12  0  0  0  0  0  0  0  0999 V2000
    6.9060   -3.9420   21.7420 N   0  0  0  0  0  0  0  0  0  0  0  0
    6.4500   -4.1450   20.4300 C   0  0  0  0  0  0  0  0  0  0  0  0
    5.5670   -4.9480   20.0650 O   0  0  0  0  0  0  0  0  0  0  0  0
    7.7350   -2.7420   22.0950 C   0  0  0  0  0  0  0  0  0  0  0  0
    7.1560   -3.3010   19.3670 C   0  0  0  0  0  0  0  0  0  0  0  0
    8.4730   -2.7070   23.4500 C   0  0  0  0  0  0  0  0  0  0  0  0
    9.9910   -2.9920   23.3470 C   0  0  0  0  0  0  0  0  0  0  0  0
   10.9230   -1.8010   23.3250 C   0  0  0  0  0  0  0  0  0  0  0  0
   12.0470   -1.5640   22.5020 C   0  0  0  0  0  0  0  0  0  0  0  0
   10.6260   -0.4180   24.5130 S   0  0  0  0  0  0  0  0  0  0  0  0
   12.7360   -0.1930   22.8110 C   0  0  0  0  0  0  0  0  0  0  0  0
   11.9930    0.5390   23.9400 C   0  0  0  0  0  0  0  0  0  0  0  0
  1  2  1  0
  2  3  2  0
  1  4  1  0
  2  5  1  0
  4  6  1  0
  6  7  1  0
  7  8  1  0
  8  9  2  0
  8 10  1  0
  9 11  1  0
 10 12  1  0
 11 12  2  0
M  END
