x0820_1-x0540_3-x0434_2
     RDKit          3D

 26 29  0  0  0  0  0  0  0  0999 V2000
    4.8520    0.1000   21.7580 C   0  0  2  0  0  0  0  0  0  0  0  0
    5.2270    1.2570   22.6550 C   0  0  0  0  0  0  0  0  0  0  0  0
    4.2750    2.3450   22.7280 N   0  0  0  0  0  0  0  0  0  0  0  0
    5.4720   -1.1790   22.3100 C   0  0  0  0  0  0  0  0  0  0  0  0
    5.3770    0.3140   20.3550 C   0  0  0  0  0  0  0  0  0  0  0  0
    7.0150   -1.1530   22.1880 C   0  0  1  0  0  0  0  0  0  0  0  0
    6.5750   -0.2860   19.9480 C   0  0  0  0  0  0  0  0  0  0  0  0
    4.6730    1.1160   19.4380 C   0  0  0  0  0  0  0  0  0  0  0  0
    3.0200    2.2140   23.4880 C   0  0  0  0  0  0  0  0  0  0  0  0
    7.7930   -2.3520   22.8280 C   0  0  0  0  0  0  0  0  0  0  0  0
    7.3630   -1.1060   20.7680 N   0  0  0  0  0  0  0  0  0  0  0  0
    6.9870   -0.0490   18.6570 C   0  0  0  0  0  0  0  0  0  0  0  0
    5.1970    1.2840   18.1590 C   0  0  0  0  0  0  0  0  0  0  0  0
    2.8460    1.5010   24.4720 O   0  0  0  0  0  0  0  0  0  0  0  0
    7.1540   -3.7540   22.7820 C   0  0  0  0  0  0  0  0  0  0  0  0
    6.3440    0.7150   17.7570 N   0  0  0  0  0  0  0  0  0  0  0  0
    6.2910   -4.0730   23.9910 C   0  0  0  0  0  0  0  0  0  0  0  0
    6.8210   -4.2440   25.2690 C   0  0  0  0  0  0  0  0  0  0  0  0
    4.9190   -4.1740   23.7210 C   0  0  0  0  0  0  0  0  0  0  0  0
    5.9350   -4.5280   26.3630 C   0  0  0  0  0  0  0  0  0  0  0  0
    4.0210   -4.4490   24.7210 C   0  0  0  0  0  0  0  0  0  0  0  0
    8.3400   -4.1420   25.5910 C   0  0  0  0  0  0  0  0  0  0  0  0
    4.5720   -4.6370   26.1460 C   0  0  0  0  0  0  0  0  0  0  0  0
    8.7210   -4.3360   26.9300 C   0  0  0  0  0  0  0  0  0  0  0  0
    6.4450   -4.7000   27.6660 C   0  0  0  0  0  0  0  0  0  0  0  0
    7.7910   -4.6070   27.9400 C   0  0  0  0  0  0  0  0  0  0  0  0
  1  2  1  1
  2  3  1  0
  1  4  1  0
  1  5  1  0
  4  6  1  0
  5  7  2  0
  5  8  1  0
  3  9  1  0
  6 10  1  6
  6 11  1  0
  7 11  1  0
  7 12  1  0
  8 13  2  0
  9 14  2  0
 10 15  1  0
 12 16  2  0
 13 16  1  0
 15 17  1  0
 17 18  1  0
 17 19  2  0
 18 20  2  0
 19 21  1  0
 18 22  1  0
 20 23  1  0
 21 23  2  0
 22 24  2  0
 20 25  1  0
 24 26  1  0
 25 26  2  0
M  END
