x0820_1-x0981_1-x1418_0
     RDKit          3D

 29 31  0  0  0  0  0  0  0  0999 V2000
    3.6340   -5.0550   23.3680 C   0  0  0  0  0  0  0  0  0  0  0  0
    2.4430   -6.0050   23.4460 C   0  0  1  0  0  0  0  0  0  0  0  0
    2.4000   -7.1970   22.7030 N   0  0  0  0  0  0  0  0  0  0  0  0
    4.1800   -4.9800   24.7520 C   0  0  0  0  0  0  0  0  0  0  0  0
    2.1760   -6.4030   24.9390 C   0  0  0  0  0  0  0  0  0  0  0  0
    4.9250   -4.8640   25.9430 C   0  0  0  0  0  0  0  0  0  0  0  0
    5.2650   -4.7280   23.8710 C   0  0  0  0  0  0  0  0  0  0  0  0
    1.1760   -7.5440   21.9650 C   0  0  0  0  0  0  0  0  0  0  0  0
    2.9020   -7.7720   25.2420 C   0  0  0  0  0  0  0  0  0  0  0  0
    6.6090   -4.4690   24.0960 C   0  0  0  0  0  0  0  0  0  0  0  0
    6.2600   -4.6260   26.3480 C   0  0  0  0  0  0  0  0  0  0  0  0
    1.2450   -8.8130   21.1680 C   0  0  0  0  0  0  0  0  0  0  0  0
    0.1800   -6.8320   21.9870 O   0  0  0  0  0  0  0  0  0  0  0  0
    2.3250   -8.5620   26.3440 N   0  0  0  0  0  0  0  0  0  0  0  0
    3.8740   -8.1430   24.6060 O   0  0  0  0  0  0  0  0  0  0  0  0
    7.5660   -4.2220   22.8640 C   0  0  0  0  0  0  0  0  0  0  0  0
    7.1750   -4.4180   25.3590 C   0  0  0  0  0  0  0  0  0  0  0  0
    6.6250   -4.6130   27.6980 C   0  0  0  0  0  0  0  0  0  0  0  0
    7.7050   -2.8390   22.5700 C   0  0  0  0  0  0  0  0  0  0  0  0
    8.5340   -4.1850   25.6450 C   0  0  0  0  0  0  0  0  0  0  0  0
    8.0930   -4.3700   28.0560 C   0  0  0  0  0  0  0  0  0  0  0  0
    9.1540   -2.4290   22.3010 C   0  0  0  0  0  0  0  0  0  0  0  0
    8.9950   -4.1600   26.8910 C   0  0  0  0  0  0  0  0  0  0  0  0
    9.9490   -2.5220   23.4360 C   0  0  0  0  0  0  0  0  0  0  0  0
   10.9850   -1.4600   23.4060 C   0  0  0  0  0  0  0  0  0  0  0  0
   12.1410   -1.3840   22.6170 C   0  0  0  0  0  0  0  0  0  0  0  0
   10.8230   -0.0970   24.4350 S   0  0  0  0  0  0  0  0  0  0  0  0
   12.8350   -0.2180   22.8760 C   0  0  0  0  0  0  0  0  0  0  0  0
   12.2600    0.5880   23.8230 C   0  0  0  0  0  0  0  0  0  0  0  0
  2  1  1  1
  2  3  1  0
  1  4  1  0
  2  5  1  0
  4  6  2  0
  4  7  1  0
  3  8  1  0
  5  9  1  0
  7 10  2  0
  6 11  1  0
  8 12  1  0
  8 13  2  0
  9 14  1  0
  9 15  2  0
 10 16  1  0
 10 17  1  0
 11 17  2  0
 11 18  1  0
 16 19  1  0
 17 20  1  0
 18 21  2  0
 19 22  1  0
 20 23  2  0
 21 23  1  0
 22 24  1  0
 24 25  1  0
 25 26  2  0
 25 27  1  0
 26 28  1  0
 27 29  1  0
 28 29  2  0
M  END
