x0831_0-x0820_0-x1334_0-x0981_1-x1386_1
     RDKit          3D

 41 44  0  0  0  0  0  0  0  0999 V2000
    4.2980   -5.5470   23.3510 C   0  0  0  0  0  0  0  0  0  0  0  0
    2.8510   -6.0160   23.5120 C   0  0  1  0  0  0  0  0  0  0  0  0
    2.5500   -7.2390   22.7560 N   0  0  0  0  0  0  0  0  0  0  0  0
    4.6260   -4.4280   23.7180 O   0  0  0  0  0  0  0  0  0  0  0  0
    5.3320   -6.4730   22.7460 C   0  0  0  0  0  0  0  0  0  0  0  0
    2.6280   -6.3140   24.9830 C   0  0  0  0  0  0  0  0  0  0  0  0
    6.6800   -5.7660   22.5660 C   0  0  0  0  0  0  0  0  0  0  0  0
    1.3340   -7.4390   22.1320 C   0  0  0  0  0  0  0  0  0  0  0  0
    3.0850   -7.6980   25.3290 C   0  0  0  0  0  0  0  0  0  0  0  0
    6.4920   -4.5990   21.6890 N   0  0  0  0  0  0  0  0  0  0  0  0
    1.2100   -8.7260   21.3570 C   0  0  0  0  0  0  0  0  0  0  0  0
    0.4230   -6.6200   22.1840 O   0  0  0  0  0  0  0  0  0  0  0  0
    2.5090   -8.2910   26.4150 N   0  0  0  0  0  0  0  0  0  0  0  0
    3.9320   -8.2490   24.6610 O   0  0  0  0  0  0  0  0  0  0  0  0
    6.2220   -4.7000   20.2630 C   0  0  0  0  0  0  0  0  0  0  0  0
    6.7870   -3.2060   22.0440 C   0  0  2  0  0  0  0  0  0  0  0  0
    5.4710   -5.4980   19.7680 O   0  0  0  0  0  0  0  0  0  0  0  0
    7.0310   -3.6330   19.5100 C   0  0  0  0  0  0  0  0  0  0  0  0
    7.0680   -2.6300   20.6090 C   0  0  1  0  0  0  0  0  0  0  0  0
    7.9590   -3.1270   22.8040 C   0  0  0  0  0  0  0  0  0  0  0  0
    5.7510   -2.2640   19.9740 C   0  0  0  0  0  0  0  0  0  0  0  0
    8.6160   -1.9560   22.7460 N   0  0  0  0  0  0  0  0  0  0  0  0
    7.9420   -1.3310   20.5970 C   0  0  0  0  0  0  0  0  0  0  0  0
    5.6870   -1.1620   18.9180 C   0  0  0  0  0  0  0  0  0  0  0  0
    4.7610   -2.9670   20.2450 O   0  0  0  0  0  0  0  0  0  0  0  0
    9.5930   -1.8970   23.7110 C   0  0  1  0  0  0  0  0  0  0  0  0
    9.0300   -1.6750   21.4100 C   0  0  0  0  0  0  0  0  0  0  0  0
   10.2000   -3.2880   23.9400 C   0  0  0  0  0  0  0  0  0  0  0  0
   10.6120   -0.7720   23.5410 C   0  0  0  0  0  0  0  0  0  0  0  0
   10.1860    0.4370   23.9190 C   0  0  0  0  0  0  0  0  0  0  0  0
   11.9240   -0.9700   23.0180 C   0  0  0  0  0  0  0  0  0  0  0  0
    9.5680   -4.1170   25.0320 C   0  0  0  0  0  0  0  0  0  0  0  0
   12.4750   -2.2690   22.5640 C   0  0  0  0  0  0  0  0  0  0  0  0
   10.9520    1.7450   23.8790 C   0  0  0  0  0  0  0  0  0  0  0  0
   12.8220    0.2900   22.9210 C   0  0  0  0  0  0  0  0  0  0  0  0
    9.9470   -5.5030   25.2860 C   0  0  0  0  0  0  0  0  0  0  0  0
    8.3370   -3.6490   26.1660 S   0  0  0  0  0  0  0  0  0  0  0  0
   12.2310    1.6530   23.3900 C   0  0  0  0  0  0  0  0  0  0  0  0
    9.2100   -6.0940   26.4330 C   0  0  0  0  0  0  0  0  0  0  0  0
    8.2660   -5.1340   27.0190 C   0  0  0  0  0  0  0  0  0  0  0  0
    7.2190   -5.3890   28.3490 Cl  0  0  0  0  0  0  0  0  0  0  0  0
  1  2  1  0
  2  3  1  0
  1  4  2  0
  1  5  1  0
  2  6  1  1
  5  7  1  0
  3  8  1  0
  6  9  1  0
  7 10  1  0
  8 11  1  0
  8 12  2  0
  9 13  1  0
  9 14  2  0
 10 15  1  0
 10 16  1  0
 15 17  2  0
 15 18  1  0
 16 19  1  0
 18 19  1  0
 16 20  1  1
 19 21  1  6
 20 22  1  0
 19 23  1  0
 21 24  1  0
 21 25  2  0
 22 26  1  0
 22 27  1  0
 23 27  1  0
 26 28  1  6
 26 29  1  0
 29 30  2  0
 29 31  1  0
 28 32  1  0
 31 33  1  0
 30 34  1  0
 31 35  2  0
 32 36  2  0
 32 37  1  0
 34 38  2  0
 35 38  1  0
 36 39  1  0
 37 40  1  0
 39 40  2  0
 40 41  1  0
M  END
