x0831_0-x0769_0-x1308_0
     RDKit          3D

 19 20  0  0  0  0  0  0  0  0999 V2000
    6.6330   -4.3720   20.6490 C   0  0  0  0  0  0  0  0  0  0  0  0
    7.8970   -3.6180   20.2270 C   0  0  0  0  0  0  0  0  0  0  0  0
    5.6290   -4.4260   19.9130 O   0  0  0  0  0  0  0  0  0  0  0  0
    6.6690   -5.0110   21.8770 N   0  0  0  0  0  0  0  0  0  0  0  0
    5.8240   -6.1820   22.1030 C   0  0  0  0  0  0  0  0  0  0  0  0
    7.1410   -4.2140   23.0580 C   0  0  1  0  0  0  0  0  0  0  0  0
    7.6590   -2.8080   22.6210 C   0  0  0  0  0  0  0  0  0  0  0  0
    4.8420   -5.9930   23.2590 C   0  0  0  0  0  0  0  0  0  0  0  0
    6.1860   -4.2410   24.1200 C   0  0  0  0  0  0  0  0  0  0  0  0
    9.1840   -2.6770   22.4210 C   0  0  0  0  0  0  0  0  0  0  0  0
    5.5420   -5.5270   24.4530 N   0  0  0  0  0  0  0  0  0  0  0  0
    9.9670   -2.3430   23.6890 C   0  0  0  0  0  0  0  0  0  0  0  0
   10.7530   -1.0260   23.6130 C   0  0  0  0  0  0  0  0  0  0  0  0
   10.1780    0.0850   24.1860 C   0  0  0  0  0  0  0  0  0  0  0  0
   12.0210   -0.9230   22.9770 C   0  0  0  0  0  0  0  0  0  0  0  0
   12.6590   -2.1040   22.3430 C   0  0  0  0  0  0  0  0  0  0  0  0
   10.8590    1.4490   24.1550 C   0  0  0  0  0  0  0  0  0  0  0  0
   12.7530    0.2650   22.8870 C   0  0  0  0  0  0  0  0  0  0  0  0
   12.1400    1.5460   23.5100 C   0  0  0  0  0  0  0  0  0  0  0  0
  1  2  1  0
  1  3  2  0
  1  4  1  0
  4  5  1  0
  4  6  1  0
  6  7  1  6
  5  8  1  0
  6  9  1  0
  7 10  1  0
  8 11  1  0
  9 11  1  0
 10 12  1  0
 12 13  1  0
 13 14  2  0
 13 15  1  0
 15 16  1  0
 14 17  1  0
 15 18  2  0
 17 19  2  0
 18 19  1  0
M  END
