x0831_0-x1385_1-x1374_1-x1386_1-x0692_1
     RDKit          3D

 25 27  0  0  0  0  0  0  0  0999 V2000
    6.2920   -3.0580   19.7490 C   0  0  0  0  0  0  0  0  0  0  0  0
    7.3310   -2.9030   18.6700 C   0  0  0  0  0  0  0  0  0  0  0  0
    5.3750   -3.8810   19.5920 O   0  0  0  0  0  0  0  0  0  0  0  0
    6.4040   -2.3130   20.9110 N   0  0  0  0  0  0  0  0  0  0  0  0
    6.2210   -2.9710   22.1480 C   0  0  0  0  0  0  0  0  0  0  0  0
    7.4520   -1.2800   21.0250 C   0  0  0  0  0  0  0  0  0  0  0  0
    7.5210   -3.5640   22.6540 C   0  0  2  0  0  0  0  0  0  0  0  0
    8.5730   -1.6180   21.7520 C   0  0  0  0  0  0  0  0  0  0  0  0
    7.0580   -4.6060   23.6760 C   0  0  0  0  0  0  0  0  0  0  0  0
    8.4220   -2.4210   22.9980 N   0  0  0  0  0  0  0  0  0  0  0  0
    9.7950   -2.6080   23.5260 C   0  0  0  0  0  0  0  0  0  0  0  0
    5.6480   -5.0790   23.3250 C   0  0  2  0  0  0  0  0  0  0  0  0
   10.5560   -1.2280   23.5850 C   0  0  0  0  0  0  0  0  0  0  0  0
    4.6330   -4.5090   24.1640 C   0  0  0  0  0  0  0  0  0  0  0  0
    5.3440   -6.4270   23.0040 C   0  0  0  0  0  0  0  0  0  0  0  0
   10.0290    0.0020   24.2610 C   0  0  0  0  0  0  0  0  0  0  0  0
   11.9130   -1.0960   22.9060 C   0  0  0  0  0  0  0  0  0  0  0  0
    3.6480   -5.3450   24.5730 C   0  0  0  0  0  0  0  0  0  0  0  0
    3.8970   -6.8830   23.9540 S   0  0  0  0  0  0  0  0  0  0  0  0
   12.6020   -2.2080   22.1720 C   0  0  0  0  0  0  0  0  0  0  0  0
    2.9070   -7.2880   22.9940 O   0  0  0  0  0  0  0  0  0  0  0  0
    4.2890   -7.8310   24.9630 O   0  0  0  0  0  0  0  0  0  0  0  0
   10.7580    1.2350   24.2600 C   0  0  0  0  0  0  0  0  0  0  0  0
   12.6490    0.2500   22.9490 C   0  0  0  0  0  0  0  0  0  0  0  0
   12.1190    1.3460   23.5740 C   0  0  0  0  0  0  0  0  0  0  0  0
  1  2  1  0
  1  3  2  0
  1  4  1  0
  4  5  1  0
  4  6  1  0
  5  7  1  0
  6  8  1  0
  7  9  1  1
  7 10  1  0
  8 10  1  0
 10 11  1  0
 12  9  1  1
 11 13  1  0
 12 14  1  0
 12 15  1  0
 13 16  2  0
 13 17  1  0
 14 18  2  0
 15 19  1  0
 18 19  1  0
 17 20  1  0
 19 21  1  0
 19 22  1  0
 16 23  1  0
 17 24  2  0
 23 25  2  0
 24 25  1  0
M  END
