x0831_0-x0434_2-x1374_1-x1385_1-x0426_1-x0397_0-x1334_1-x0770_1-x0831_1-x1418_1-x0692_1-x1334_0-x1412_1
     RDKit          3D

 44 49  0  0  0  0  0  0  0  0999 V2000
    2.5000   -7.5980   23.1930 O   0  0  0  0  0  0  0  0  0  0  0  0
    2.8710   -7.4880   24.5500 C   0  0  0  0  0  0  0  0  0  0  0  0
    4.1810   -7.9840   24.7560 O   0  0  0  0  0  0  0  0  0  0  0  0
    5.2190   -7.1140   24.3080 C   0  0  0  0  0  0  0  0  0  0  0  0
    4.6960   -6.1990   23.4880 C   0  0  0  0  0  0  0  0  0  0  0  0
    5.8140   -5.5020   22.7880 C   0  0  2  0  0  0  0  0  0  0  0  0
    5.6890   -4.3720   22.1280 C   0  0  2  0  0  0  0  0  0  0  0  0
    6.1500   -5.8470   21.5390 C   0  0  0  0  0  0  0  0  0  0  0  0
    6.6680   -3.1100   22.3650 C   0  0  1  0  0  0  0  0  0  0  0  0
    8.0360   -3.6520   22.8800 C   0  0  0  0  0  0  0  0  0  0  0  0
    6.7830   -2.2860   21.2180 C   0  0  1  0  0  0  0  0  0  0  0  0
    6.4920   -3.1620   19.8850 C   0  0  0  0  0  0  0  0  0  0  0  0
    5.8910   -0.9550   21.3880 C   0  0  2  0  0  0  0  0  0  0  0  0
    8.9650   -2.5650   22.8080 N   0  0  0  0  0  0  0  0  0  0  0  0
    8.0050   -1.5670   21.0040 C   0  0  0  0  0  0  0  0  0  0  0  0
    7.4450   -2.9780   18.7040 C   0  0  0  0  0  0  0  0  0  0  0  0
    5.5740   -4.0100   19.7660 O   0  0  0  0  0  0  0  0  0  0  0  0
    4.7460   -0.8390   22.3970 C   0  0  0  0  0  0  0  0  0  0  0  0
   10.1040   -2.4480   23.6630 C   0  0  2  0  0  0  0  0  0  0  0  0
    9.1560   -2.0440   21.5200 C   0  0  0  0  0  0  0  0  0  0  0  0
    5.6060   -0.0750   20.1780 C   0  0  0  0  0  0  0  0  0  0  0  0
    4.6810    0.4380   23.2100 C   0  0  0  0  0  0  0  0  0  0  0  0
    9.6420   -2.3550   25.0440 C   0  0  0  0  0  0  0  0  0  0  0  0
    4.5100    0.8150   20.1010 C   0  0  0  0  0  0  0  0  0  0  0  0
    6.5190   -0.0910   18.9300 C   0  0  0  0  0  0  0  0  0  0  0  0
   10.8960   -1.1610   23.5600 C   0  0  0  0  0  0  0  0  0  0  0  0
    3.7390    1.4800   22.6060 C   0  0  2  0  0  0  0  0  0  0  0  0
    3.4300    1.0490   21.1490 C   0  0  0  0  0  0  0  0  0  0  0  0
    4.4310    1.6040   18.7930 C   0  0  0  0  0  0  0  0  0  0  0  0
    6.3900    0.6270   17.8050 N   0  0  0  0  0  0  0  0  0  0  0  0
   10.2610   -0.0970   24.2060 C   0  0  0  0  0  0  0  0  0  0  0  0
   12.1240   -1.0120   22.8960 C   0  0  0  0  0  0  0  0  0  0  0  0
    9.3370   -3.5840   25.8050 C   0  0  0  0  0  0  0  0  0  0  0  0
    4.2620    2.8250   22.6740 N   0  0  0  0  0  0  0  0  0  0  0  0
   12.8670   -2.0810   22.1690 C   0  0  0  0  0  0  0  0  0  0  0  0
    5.3420    1.4700   17.7580 C   0  0  0  0  0  0  0  0  0  0  0  0
   10.8370    1.1820   24.2100 C   0  0  0  0  0  0  0  0  0  0  0  0
   12.7340    0.2070   22.8780 C   0  0  0  0  0  0  0  0  0  0  0  0
   10.0420   -4.9440   25.8910 C   0  0  0  0  0  0  0  0  0  0  0  0
    7.9910   -3.6130   26.8300 S   0  0  0  0  0  0  0  0  0  0  0  0
   12.0950    1.3960   23.5540 C   0  0  0  0  0  0  0  0  0  0  0  0
    9.3990   -5.7240   26.7930 C   0  0  0  0  0  0  0  0  0  0  0  0
    8.3160   -5.1530   27.3810 C   0  0  0  0  0  0  0  0  0  0  0  0
    7.2260   -5.6930   28.5820 Cl  0  0  0  0  0  0  0  0  0  0  0  0
  1  2  1  0
  2  3  1  0
  3  4  1  0
  4  5  1  0
  6  5  1  6
  6  7  1  0
  6  8  1  0
  7  8  1  6
  7  9  1  0
  9 10  1  6
  9 11  1  0
 11 12  1  6
 11 13  1  0
 10 14  1  0
 11 15  1  0
 12 16  1  0
 12 17  2  0
 13 18  1  6
 14 19  1  0
 14 20  1  0
 15 20  1  0
 13 21  1  0
 18 22  1  0
 19 23  1  1
 21 24  2  0
 21 25  1  0
 19 26  1  0
 22 27  1  0
 24 28  1  0
 27 28  1  0
 24 29  1  0
 25 30  2  0
 26 31  2  0
 26 32  1  0
 23 33  1  0
 27 34  1  6
 32 35  1  0
 29 36  2  0
 30 36  1  0
 31 37  1  0
 32 38  2  0
 33 39  2  0
 33 40  1  0
 37 41  2  0
 38 41  1  0
 39 42  1  0
 40 43  1  0
 42 43  2  0
 43 44  1  0
M  END
