x0831_0-x1334_1-x0540_3-x0397_0-x0692_1
     RDKit          3D

 26 28  0  0  0  0  0  0  0  0999 V2000
    6.2480   -3.3050   20.0070 C   0  0  0  0  0  0  0  0  0  0  0  0
    7.2330   -2.9660   18.8880 C   0  0  0  0  0  0  0  0  0  0  0  0
    5.3760   -4.1560   19.7690 O   0  0  0  0  0  0  0  0  0  0  0  0
    6.3570   -2.6810   21.2910 N   0  0  0  0  0  0  0  0  0  0  0  0
    7.0140   -1.3910   21.4900 C   0  0  2  0  0  0  0  0  0  0  0  0
    6.4600   -3.3490   22.3980 C   0  0  2  0  0  0  0  0  0  0  0  0
    6.6290   -0.2700   20.4940 C   0  0  0  0  0  0  0  0  0  0  0  0
    8.3740   -1.5470   21.7080 C   0  0  0  0  0  0  0  0  0  0  0  0
    7.8370   -3.5010   22.8320 C   0  0  0  0  0  0  0  0  0  0  0  0
    6.9060   -4.7770   22.4600 C   0  0  0  0  0  0  0  0  0  0  0  0
    5.2960    0.4070   20.8890 C   0  0  0  0  0  0  0  0  0  0  0  0
    8.5130   -2.2990   22.9830 N   0  0  0  0  0  0  0  0  0  0  0  0
    6.4190   -5.7240   23.3610 C   0  0  0  0  0  0  0  0  0  0  0  0
    6.0150   -5.9730   22.0750 C   0  0  0  0  0  0  0  0  0  0  0  0
    5.3310    1.4380   22.0610 C   0  0  0  0  0  0  0  0  0  0  0  0
    9.9340   -2.4950   23.3440 C   0  0  0  0  0  0  0  0  0  0  0  0
    3.9470    1.8590   22.3870 N   0  0  0  0  0  0  0  0  0  0  0  0
   10.7040   -1.1950   23.4210 C   0  0  0  0  0  0  0  0  0  0  0  0
    3.5980    2.5360   23.6320 C   0  0  0  0  0  0  0  0  0  0  0  0
   10.1450    0.0140   24.1340 C   0  0  0  0  0  0  0  0  0  0  0  0
   11.9970   -1.0170   22.8200 C   0  0  0  0  0  0  0  0  0  0  0  0
    3.2710    1.7470   24.5150 O   0  0  0  0  0  0  0  0  0  0  0  0
   12.6980   -2.0990   22.0730 C   0  0  0  0  0  0  0  0  0  0  0  0
   10.7580    1.1800   24.2180 C   0  0  0  0  0  0  0  0  0  0  0  0
   12.6580    0.2140   22.9100 C   0  0  0  0  0  0  0  0  0  0  0  0
   11.9760    1.3560   23.6490 C   0  0  0  0  0  0  0  0  0  0  0  0
  1  2  1  0
  1  3  2  0
  1  4  1  0
  4  5  1  0
  4  6  1  0
  5  7  1  6
  5  8  1  0
  6  9  1  0
  6 10  1  6
  7 11  1  0
  8 12  1  0
  9 12  1  0
 10 13  1  0
 10 14  1  0
 13 14  1  0
 11 15  1  0
 12 16  1  0
 15 17  1  0
 16 18  1  0
 17 19  1  0
 18 20  2  0
 18 21  1  0
 19 22  2  0
 21 23  1  0
 20 24  1  0
 21 25  2  0
 24 26  2  0
 25 26  1  0
M  END
