x0831_0-x0397_0-x0770_1-x1418_1-x1385_1-x1334_1-x1334_0-x0434_2
     RDKit          3D

 34 38  0  0  0  0  0  0  0  0999 V2000
    6.3000   -3.2640   19.9240 C   0  0  0  0  0  0  0  0  0  0  0  0
    7.2670   -2.9710   18.7970 C   0  0  0  0  0  0  0  0  0  0  0  0
    5.3660   -4.0570   19.7070 O   0  0  0  0  0  0  0  0  0  0  0  0
    6.4920   -2.6940   21.1950 N   0  0  0  0  0  0  0  0  0  0  0  0
    7.3040   -1.4810   21.3480 C   0  0  1  0  0  0  0  0  0  0  0  0
    6.8140   -3.7050   22.2270 C   0  0  1  0  0  0  0  0  0  0  0  0
    8.6570   -1.7640   21.9750 C   0  0  0  0  0  0  0  0  0  0  0  0
    7.4250   -3.0700   23.5270 C   0  0  0  0  0  0  0  0  0  0  0  0
    5.6990   -4.6450   22.5620 C   0  0  0  0  0  0  0  0  0  0  0  0
    7.7010   -0.5340   20.2360 C   0  0  0  0  0  0  0  0  0  0  0  0
    8.3210   -1.8950   23.3600 N   0  0  0  0  0  0  0  0  0  0  0  0
    6.1830   -5.9090   23.0090 C   0  0  0  0  0  0  0  0  0  0  0  0
    5.4970   -6.1650   21.9250 C   0  0  0  0  0  0  0  0  0  0  0  0
    6.9360   -0.2080   18.9810 C   0  0  0  0  0  0  0  0  0  0  0  0
    9.5360   -1.9600   24.1980 C   0  0  1  0  0  0  0  0  0  0  0  0
    6.4080    0.4610   20.1360 C   0  0  0  0  0  0  0  0  0  0  0  0
    6.0830    0.2540   17.9890 N   0  0  0  0  0  0  0  0  0  0  0  0
   10.1460   -3.3140   24.1350 C   0  0  0  0  0  0  0  0  0  0  0  0
   10.5630   -0.8490   23.8500 C   0  0  0  0  0  0  0  0  0  0  0  0
    5.0430    1.0930   18.0070 C   0  0  0  0  0  0  0  0  0  0  0  0
    5.3290    1.3270   20.1990 C   0  0  0  0  0  0  0  0  0  0  0  0
   10.2100    0.4510   24.3150 C   0  0  0  0  0  0  0  0  0  0  0  0
   11.8010   -0.9850   23.1280 C   0  0  0  0  0  0  0  0  0  0  0  0
    9.5730   -4.2160   25.1880 C   0  0  0  0  0  0  0  0  0  0  0  0
    4.6060    1.6760   19.1320 C   0  0  0  0  0  0  0  0  0  0  0  0
   12.3170   -2.2690   22.5660 C   0  0  0  0  0  0  0  0  0  0  0  0
   11.0640    1.5610   24.0610 C   0  0  0  0  0  0  0  0  0  0  0  0
   12.6050    0.1400   22.9150 C   0  0  0  0  0  0  0  0  0  0  0  0
    9.9340   -5.4500   25.4580 C   0  0  0  0  0  0  0  0  0  0  0  0
    8.2980   -3.7440   26.2480 S   0  0  0  0  0  0  0  0  0  0  0  0
   12.2310    1.3790   23.3760 C   0  0  0  0  0  0  0  0  0  0  0  0
    9.3100   -6.1170   26.4590 C   0  0  0  0  0  0  0  0  0  0  0  0
    8.3260   -5.3240   27.0610 C   0  0  0  0  0  0  0  0  0  0  0  0
    7.2760   -5.7090   28.3550 Cl  0  0  0  0  0  0  0  0  0  0  0  0
  1  2  1  0
  1  3  2  0
  1  4  1  0
  4  5  1  0
  4  6  1  0
  5  7  1  0
  6  8  1  0
  6  9  1  1
  5 10  1  6
  7 11  1  0
  8 11  1  0
  9 12  1  0
  9 13  1  0
 12 13  1  0
 10 14  1  0
 11 15  1  0
 14 16  2  0
 14 17  1  0
 15 18  1  6
 15 19  1  0
 17 20  2  0
 16 21  1  0
 19 22  2  0
 19 23  1  0
 18 24  1  0
 20 25  1  0
 21 25  2  0
 23 26  1  0
 22 27  1  0
 23 28  2  0
 24 29  2  0
 24 30  1  0
 27 31  2  0
 28 31  1  0
 29 32  1  0
 30 33  1  0
 32 33  2  0
 33 34  1  0
M  END
