x0831_0-x0692_1-x0434_2
     RDKit          3D

 24 26  0  0  0  0  0  0  0  0999 V2000
    6.3390   -3.2530   19.8140 C   0  0  0  0  0  0  0  0  0  0  0  0
    7.2940   -3.0380   18.6470 C   0  0  0  0  0  0  0  0  0  0  0  0
    5.4360   -4.1090   19.7380 O   0  0  0  0  0  0  0  0  0  0  0  0
    6.6070   -2.4490   20.9110 N   0  0  0  0  0  0  0  0  0  0  0  0
    7.7160   -1.4900   20.7450 C   0  0  2  0  0  0  0  0  0  0  0  0
    6.3610   -2.9060   22.2850 C   0  0  0  0  0  0  0  0  0  0  0  0
    8.9160   -1.7290   21.6600 C   0  0  0  0  0  0  0  0  0  0  0  0
    7.6630   -3.1780   23.0730 C   0  0  0  0  0  0  0  0  0  0  0  0
    7.3690   -0.0180   20.6690 C   0  0  0  0  0  0  0  0  0  0  0  0
    8.5770   -2.0180   23.0560 N   0  0  0  0  0  0  0  0  0  0  0  0
    7.0700    0.3140   19.3330 C   0  0  0  0  0  0  0  0  0  0  0  0
    9.8000   -2.2450   23.6910 C   0  0  0  0  0  0  0  0  0  0  0  0
    5.9860    0.5300   20.2540 C   0  0  0  0  0  0  0  0  0  0  0  0
    6.4780    0.7290   18.1420 N   0  0  0  0  0  0  0  0  0  0  0  0
   10.7030   -0.9830   23.6050 C   0  0  0  0  0  0  0  0  0  0  0  0
    5.2540    1.2080   17.9260 C   0  0  0  0  0  0  0  0  0  0  0  0
    4.7040    1.0170   20.0570 C   0  0  0  0  0  0  0  0  0  0  0  0
   10.2120    0.2200   24.2040 C   0  0  0  0  0  0  0  0  0  0  0  0
   12.0880   -0.9870   22.8900 C   0  0  0  0  0  0  0  0  0  0  0  0
    4.2970    1.3850   18.8420 C   0  0  0  0  0  0  0  0  0  0  0  0
   12.6700   -2.2040   22.2310 C   0  0  0  0  0  0  0  0  0  0  0  0
   10.9980    1.3520   24.1120 C   0  0  0  0  0  0  0  0  0  0  0  0
   12.7990    0.1390   22.8460 C   0  0  0  0  0  0  0  0  0  0  0  0
   12.1910    1.3690   23.5010 C   0  0  0  0  0  0  0  0  0  0  0  0
  1  2  1  0
  1  3  2  0
  1  4  1  0
  4  5  1  0
  4  6  1  0
  5  7  1  0
  6  8  1  0
  5  9  1  1
  7 10  1  0
  8 10  1  0
  9 11  1  0
 10 12  1  0
 11 13  2  0
 11 14  1  0
 12 15  1  0
 14 16  2  0
 13 17  1  0
 15 18  2  0
 15 19  1  0
 16 20  1  0
 17 20  2  0
 19 21  1  0
 18 22  1  0
 19 23  2  0
 22 24  2  0
 23 24  1  0
M  END
