x0831_0-x1385_1-x1386_1-x0540_3
     RDKit          3D

 23 24  0  0  0  0  0  0  0  0999 V2000
    6.3750   -3.3100   19.9500 C   0  0  0  0  0  0  0  0  0  0  0  0
    7.3400   -2.9880   18.8160 C   0  0  0  0  0  0  0  0  0  0  0  0
    5.4440   -4.0960   19.7400 O   0  0  0  0  0  0  0  0  0  0  0  0
    6.5820   -2.7170   21.2210 N   0  0  0  0  0  0  0  0  0  0  0  0
    6.5990   -3.4610   22.4980 C   0  0  0  0  0  0  0  0  0  0  0  0
    7.3740   -1.4830   21.2730 C   0  0  1  0  0  0  0  0  0  0  0  0
    6.7760   -0.4630   22.2280 C   0  0  0  0  0  0  0  0  0  0  0  0
    7.9160   -3.6920   22.9830 C   0  0  0  0  0  0  0  0  0  0  0  0
    8.6590   -1.7860   21.7180 C   0  0  0  0  0  0  0  0  0  0  0  0
    5.4490    0.2320   21.8160 C   0  0  0  0  0  0  0  0  0  0  0  0
    8.6420   -2.4060   23.0430 N   0  0  0  0  0  0  0  0  0  0  0  0
    5.2940    1.5910   22.5240 C   0  0  0  0  0  0  0  0  0  0  0  0
   10.0490   -2.5060   23.5000 C   0  0  0  0  0  0  0  0  0  0  0  0
    3.9980    2.2430   22.3540 N   0  0  0  0  0  0  0  0  0  0  0  0
   10.7440   -1.1710   23.5300 C   0  0  0  0  0  0  0  0  0  0  0  0
    2.9840    2.2460   23.4130 C   0  0  0  0  0  0  0  0  0  0  0  0
   10.1780   -0.0560   24.1640 C   0  0  0  0  0  0  0  0  0  0  0  0
   12.0050   -0.9980   22.8990 C   0  0  0  0  0  0  0  0  0  0  0  0
    2.9370    1.5180   24.4060 O   0  0  0  0  0  0  0  0  0  0  0  0
   12.7190   -2.0990   22.1820 C   0  0  0  0  0  0  0  0  0  0  0  0
   10.8860    1.2980   24.1670 C   0  0  0  0  0  0  0  0  0  0  0  0
   12.6730    0.3640   22.9360 C   0  0  0  0  0  0  0  0  0  0  0  0
   12.1040    1.4650   23.5560 C   0  0  0  0  0  0  0  0  0  0  0  0
  1  2  1  0
  1  3  2  0
  1  4  1  0
  4  5  1  0
  4  6  1  0
  6  7  1  1
  5  8  1  0
  6  9  1  0
  7 10  1  0
  8 11  1  0
  9 11  1  0
 10 12  1  0
 11 13  1  0
 12 14  1  0
 13 15  1  0
 14 16  1  0
 15 17  2  0
 15 18  1  0
 16 19  2  0
 18 20  1  0
 17 21  1  0
 18 22  2  0
 21 23  2  0
 22 23  1  0
M  END
