x0831_0-x1385_1-x1334_1-x0734_0-x0692_1
     RDKit          3D

 28 31  0  0  0  0  0  0  0  0999 V2000
    6.3330   -3.1500   19.8230 C   0  0  0  0  0  0  0  0  0  0  0  0
    7.2980   -2.9460   18.6820 C   0  0  0  0  0  0  0  0  0  0  0  0
    5.4630   -4.0290   19.6910 O   0  0  0  0  0  0  0  0  0  0  0  0
    6.4850   -2.3650   20.9550 N   0  0  0  0  0  0  0  0  0  0  0  0
    6.2330   -2.9090   22.2750 C   0  0  0  0  0  0  0  0  0  0  0  0
    7.4550   -1.2370   20.9940 C   0  0  0  0  0  0  0  0  0  0  0  0
    7.5400   -3.4170   22.9440 C   0  0  2  0  0  0  0  0  0  0  0  0
    8.7190   -1.6590   21.7920 C   0  0  0  0  0  0  0  0  0  0  0  0
    6.8740   -4.2660   24.0380 C   0  0  2  0  0  0  0  0  0  0  0  0
    8.4520   -2.2430   23.1490 N   0  0  0  0  0  0  0  0  0  0  0  0
    5.6510   -3.6000   24.7270 C   0  0  0  0  0  0  0  0  0  0  0  0
    9.7960   -2.4660   23.7210 C   0  0  0  0  0  0  0  0  0  0  0  0
    7.5930   -4.7460   25.2570 C   0  0  0  0  0  0  0  0  0  0  0  0
    5.3020   -4.5590   25.8840 C   0  0  2  0  0  0  0  0  0  0  0  0
    8.9230   -5.0010   25.4000 C   0  0  0  0  0  0  0  0  0  0  0  0
    6.6870   -4.9320   26.3160 C   0  0  0  0  0  0  0  0  0  0  0  0
   10.6380   -1.1780   23.6290 C   0  0  0  0  0  0  0  0  0  0  0  0
    4.5710   -5.6740   25.4530 O   0  0  0  0  0  0  0  0  0  0  0  0
    4.5600   -4.0000   26.7990 O   0  0  0  0  0  0  0  0  0  0  0  0
    9.3680   -5.4700   26.6160 C   0  0  0  0  0  0  0  0  0  0  0  0
    7.1410   -5.3970   27.5400 C   0  0  0  0  0  0  0  0  0  0  0  0
   10.1370   -0.0370   24.2800 C   0  0  0  0  0  0  0  0  0  0  0  0
   11.8810   -1.0450   22.9350 C   0  0  0  0  0  0  0  0  0  0  0  0
   12.5320   -2.1650   22.1940 C   0  0  0  0  0  0  0  0  0  0  0  0
    8.4940   -5.6690   27.6810 C   0  0  0  0  0  0  0  0  0  0  0  0
   10.8190    1.1740   24.2470 C   0  0  0  0  0  0  0  0  0  0  0  0
   12.5520    0.1850   22.9260 C   0  0  0  0  0  0  0  0  0  0  0  0
   12.0270    1.2890   23.5740 C   0  0  0  0  0  0  0  0  0  0  0  0
  1  2  1  0
  1  3  2  0
  1  4  1  0
  4  5  1  0
  4  6  1  0
  7  5  1  6
  6  8  1  0
  7  9  1  0
  7 10  1  0
  8 10  1  0
  9 11  1  1
 10 12  1  0
  9 13  1  0
 11 14  1  0
 13 15  2  0
 13 16  1  0
 14 16  1  0
 12 17  1  0
 14 18  1  6
 14 19  1  0
 15 20  1  0
 16 21  2  0
 17 22  2  0
 17 23  1  0
 23 24  1  0
 20 25  2  0
 21 25  1  0
 22 26  1  0
 23 27  2  0
 26 28  2  0
 27 28  1  0
M  CHG  1  19  -1
M  END
