x0831_0-x1334_1-x1412_1-x0397_0-x1418_0
     RDKit          3D

 21 23  0  0  0  0  0  0  0  0999 V2000
    6.2650   -3.3390   19.9740 C   0  0  0  0  0  0  0  0  0  0  0  0
    7.2390   -3.0010   18.8380 C   0  0  0  0  0  0  0  0  0  0  0  0
    5.4120   -4.2260   19.7930 O   0  0  0  0  0  0  0  0  0  0  0  0
    6.3850   -2.6410   21.1790 N   0  0  0  0  0  0  0  0  0  0  0  0
    7.0400   -1.3350   21.2520 C   0  0  0  0  0  0  0  0  0  0  0  0
    6.5390   -3.3830   22.4500 C   0  0  2  0  0  0  0  0  0  0  0  0
    8.5180   -1.4550   21.6320 C   0  0  0  0  0  0  0  0  0  0  0  0
    7.9070   -3.4980   22.7510 C   0  0  0  0  0  0  0  0  0  0  0  0
    5.7530   -4.5460   22.4790 C   0  0  0  0  0  0  0  0  0  0  0  0
    8.6530   -2.2130   22.8680 N   0  0  0  0  0  0  0  0  0  0  0  0
    6.1530   -5.6610   23.0100 C   0  0  0  0  0  0  0  0  0  0  0  0
    6.1740   -5.9710   21.7270 C   0  0  0  0  0  0  0  0  0  0  0  0
   10.0770   -2.3950   23.1090 C   0  0  2  0  0  0  0  0  0  0  0  0
   10.3050   -3.3150   24.2160 C   0  0  0  0  0  0  0  0  0  0  0  0
   10.7920   -1.0770   23.2460 C   0  0  0  0  0  0  0  0  0  0  0  0
   10.1270   -0.0460   23.9120 C   0  0  0  0  0  0  0  0  0  0  0  0
   12.0890   -0.8830   22.7220 C   0  0  0  0  0  0  0  0  0  0  0  0
   12.8340   -1.9600   22.0030 C   0  0  0  0  0  0  0  0  0  0  0  0
   10.8100    1.3380   24.0640 C   0  0  0  0  0  0  0  0  0  0  0  0
   12.8530    0.4420   22.8290 C   0  0  0  0  0  0  0  0  0  0  0  0
   12.0870    1.5570   23.5490 C   0  0  0  0  0  0  0  0  0  0  0  0
  1  2  1  0
  1  3  2  0
  1  4  1  0
  4  5  1  0
  4  6  1  0
  5  7  1  0
  6  8  1  0
  6  9  1  6
  7 10  1  0
  8 10  1  0
  9 11  1  0
  9 12  1  0
 11 12  1  0
 10 13  1  0
 13 14  1  1
 13 15  1  0
 15 16  2  0
 15 17  1  0
 17 18  1  0
 16 19  1  0
 17 20  2  0
 19 21  2  0
 20 21  1  0
M  END
