x0831_0-x1374_1-x0692_1
     RDKit          3D

 25 27  0  0  0  0  0  0  0  0999 V2000
    6.3030   -3.1630   19.8080 C   0  0  0  0  0  0  0  0  0  0  0  0
    7.2860   -2.9540   18.6890 C   0  0  0  0  0  0  0  0  0  0  0  0
    5.3580   -3.9570   19.6390 O   0  0  0  0  0  0  0  0  0  0  0  0
    6.5270   -2.4800   20.9990 N   0  0  0  0  0  0  0  0  0  0  0  0
    7.3000   -1.2380   21.0190 C   0  0  0  0  0  0  0  0  0  0  0  0
    6.4710   -3.1740   22.2810 C   0  0  1  0  0  0  0  0  0  0  0  0
    6.2680   -4.6540   22.0460 C   0  0  0  0  0  0  0  0  0  0  0  0
    8.6880   -1.4530   21.6460 C   0  0  0  0  0  0  0  0  0  0  0  0
    7.7110   -3.0650   23.1960 C   0  0  0  0  0  0  0  0  0  0  0  0
    8.5940   -1.9090   23.0320 N   0  0  0  0  0  0  0  0  0  0  0  0
    4.9820   -5.2660   22.5500 C   0  0  2  0  0  0  0  0  0  0  0  0
    9.9650   -2.2200   23.5060 C   0  0  0  0  0  0  0  0  0  0  0  0
    4.2490   -4.5470   23.6410 C   0  0  0  0  0  0  0  0  0  0  0  0
    5.3460   -6.5760   23.2310 C   0  0  0  0  0  0  0  0  0  0  0  0
   10.7860   -0.9750   23.5070 C   0  0  0  0  0  0  0  0  0  0  0  0
    3.5600   -5.3630   24.5840 C   0  0  0  0  0  0  0  0  0  0  0  0
    3.8360   -6.9310   24.0810 S   0  0  0  0  0  0  0  0  0  0  0  0
    2.9020   -7.3660   23.0760 O   0  0  0  0  0  0  0  0  0  0  0  0
    4.1650   -7.8430   25.1400 O   0  0  0  0  0  0  0  0  0  0  0  0
   10.2840    0.2060   24.1220 C   0  0  0  0  0  0  0  0  0  0  0  0
   12.0580   -0.9280   22.8980 C   0  0  0  0  0  0  0  0  0  0  0  0
   12.6760   -2.1130   22.2200 C   0  0  0  0  0  0  0  0  0  0  0  0
   11.0480    1.3800   24.0980 C   0  0  0  0  0  0  0  0  0  0  0  0
   12.8040    0.2470   22.8940 C   0  0  0  0  0  0  0  0  0  0  0  0
   12.3050    1.4120   23.4870 C   0  0  0  0  0  0  0  0  0  0  0  0
  1  2  1  0
  1  3  2  0
  1  4  1  0
  4  5  1  0
  4  6  1  0
  6  7  1  6
  5  8  1  0
  6  9  1  0
  8 10  1  0
  9 10  1  0
 11  7  1  1
 10 12  1  0
 11 13  1  0
 11 14  1  0
 12 15  1  0
 13 16  2  0
 14 17  1  0
 16 17  1  0
 17 18  1  0
 17 19  1  0
 15 20  2  0
 15 21  1  0
 21 22  1  0
 20 23  1  0
 21 24  2  0
 23 25  2  0
 24 25  1  0
M  END
