x0831_0-x0434_2-x1334_1-x1418_1-x0770_1-x0397_0-x1385_1-x0692_1
     RDKit          3D

 27 30  0  0  0  0  0  0  0  0999 V2000
    6.3800   -3.3850   19.9030 C   0  0  0  0  0  0  0  0  0  0  0  0
    7.3150   -3.0640   18.7410 C   0  0  0  0  0  0  0  0  0  0  0  0
    5.4420   -4.1820   19.7600 O   0  0  0  0  0  0  0  0  0  0  0  0
    6.6730   -2.7430   21.1020 N   0  0  0  0  0  0  0  0  0  0  0  0
    7.7000   -1.7190   20.9640 C   0  0  1  0  0  0  0  0  0  0  0  0
    6.5480   -3.3030   22.4460 C   0  0  2  0  0  0  0  0  0  0  0  0
    7.0480   -0.4640   21.2570 N   0  0  0  0  0  0  0  0  0  0  0  0
    8.9750   -1.9450   21.7680 C   0  0  0  0  0  0  0  0  0  0  0  0
    7.9550   -3.5830   23.0720 C   0  0  0  0  0  0  0  0  0  0  0  0
    5.7550   -4.6060   22.4160 C   0  0  0  0  0  0  0  0  0  0  0  0
    8.8130   -2.3750   23.0430 N   0  0  0  0  0  0  0  0  0  0  0  0
    6.2210   -5.7940   23.2190 C   0  0  0  0  0  0  0  0  0  0  0  0
    6.2680   -5.8850   21.8160 C   0  0  0  0  0  0  0  0  0  0  0  0
    6.4460    0.1530   20.1770 C   0  0  0  0  0  0  0  0  0  0  0  0
   10.1240   -2.4770   23.6960 C   0  0  0  0  0  0  0  0  0  0  0  0
    6.8990    0.1220   18.8320 C   0  0  0  0  0  0  0  0  0  0  0  0
    5.1820    0.9580   20.3060 C   0  0  0  0  0  0  0  0  0  0  0  0
   10.8530   -1.1400   23.6350 C   0  0  0  0  0  0  0  0  0  0  0  0
    6.3660    0.7010   17.7360 N   0  0  0  0  0  0  0  0  0  0  0  0
    4.6040    1.5940   19.0550 C   0  0  0  0  0  0  0  0  0  0  0  0
   10.2620   -0.0440   24.2610 C   0  0  0  0  0  0  0  0  0  0  0  0
   12.0880   -0.9600   22.9680 C   0  0  0  0  0  0  0  0  0  0  0  0
    5.2420    1.4200   17.8670 C   0  0  0  0  0  0  0  0  0  0  0  0
   12.7830   -2.0780   22.2630 C   0  0  0  0  0  0  0  0  0  0  0  0
   10.8960    1.2220   24.2140 C   0  0  0  0  0  0  0  0  0  0  0  0
   12.7090    0.2820   22.9350 C   0  0  0  0  0  0  0  0  0  0  0  0
   12.1160    1.3630   23.5480 C   0  0  0  0  0  0  0  0  0  0  0  0
  1  2  1  0
  1  3  2  0
  1  4  1  0
  4  5  1  0
  4  6  1  0
  5  7  1  1
  5  8  1  0
  6  9  1  0
  6 10  1  6
  8 11  1  0
  9 11  1  0
 10 12  1  0
 10 13  1  0
 12 13  1  0
  7 14  1  0
 11 15  1  0
 14 16  2  0
 14 17  1  0
 15 18  1  0
 16 19  1  0
 17 20  2  0
 18 21  2  0
 18 22  1  0
 19 23  2  0
 20 23  1  0
 22 24  1  0
 21 25  1  0
 22 26  2  0
 25 27  2  0
 26 27  1  0
M  END
