x0831_0-x1374_1-x0434_2-x1412_1-x0692_1
     RDKit          3D

 32 35  0  0  0  0  0  0  0  0999 V2000
    6.5100   -3.3680   19.8780 C   0  0  0  0  0  0  0  0  0  0  0  0
    7.4030   -3.0590   18.7030 C   0  0  0  0  0  0  0  0  0  0  0  0
    5.5090   -4.0970   19.7530 O   0  0  0  0  0  0  0  0  0  0  0  0
    6.9710   -2.7680   21.0570 N   0  0  0  0  0  0  0  0  0  0  0  0
    7.7910   -1.7650   20.9790 C   0  0  1  0  0  0  0  0  0  0  0  0
    6.8270   -3.4950   22.3510 C   0  0  1  0  0  0  0  0  0  0  0  0
    6.3860   -4.9270   22.1030 C   0  0  0  0  0  0  0  0  0  0  0  0
    6.9640   -0.5650   21.2370 N   0  0  0  0  0  0  0  0  0  0  0  0
    9.0870   -1.9420   21.7240 C   0  0  0  0  0  0  0  0  0  0  0  0
    7.8500   -3.4550   23.2460 C   0  0  0  0  0  0  0  0  0  0  0  0
    8.8160   -2.3840   23.0730 N   0  0  0  0  0  0  0  0  0  0  0  0
    5.0890   -5.2010   22.7740 C   0  0  2  0  0  0  0  0  0  0  0  0
    6.4380    0.0720   20.1190 C   0  0  0  0  0  0  0  0  0  0  0  0
    9.8300   -2.1320   23.9670 C   0  0  0  0  0  0  0  0  0  0  0  0
    4.8150   -4.5470   24.1190 C   0  0  0  0  0  0  0  0  0  0  0  0
    4.7410   -6.5530   22.8660 C   0  0  0  0  0  0  0  0  0  0  0  0
    6.9620    0.0080   18.8530 C   0  0  0  0  0  0  0  0  0  0  0  0
    5.1750    0.9150   20.2710 C   0  0  0  0  0  0  0  0  0  0  0  0
   10.6980   -0.8940   23.7880 C   0  0  0  0  0  0  0  0  0  0  0  0
    3.9770   -5.4590   24.9340 C   0  0  0  0  0  0  0  0  0  0  0  0
    3.6040   -6.8990   24.1510 S   0  0  0  0  0  0  0  0  0  0  0  0
    6.3740    0.7020   17.7190 N   0  0  0  0  0  0  0  0  0  0  0  0
    4.6150    1.5730   19.1750 C   0  0  0  0  0  0  0  0  0  0  0  0
    2.2560   -6.8970   23.6390 O   0  0  0  0  0  0  0  0  0  0  0  0
    4.0090   -8.0200   24.9660 O   0  0  0  0  0  0  0  0  0  0  0  0
   10.2830    0.3270   24.2900 C   0  0  0  0  0  0  0  0  0  0  0  0
   12.0310   -0.9460   23.0490 C   0  0  0  0  0  0  0  0  0  0  0  0
    5.1720    1.4980   17.9090 C   0  0  0  0  0  0  0  0  0  0  0  0
   12.5840   -2.2070   22.4520 C   0  0  0  0  0  0  0  0  0  0  0  0
   11.0780    1.4760   24.1070 C   0  0  0  0  0  0  0  0  0  0  0  0
   12.7830    0.1530   22.8920 C   0  0  0  0  0  0  0  0  0  0  0  0
   12.2360    1.4090   23.4650 C   0  0  0  0  0  0  0  0  0  0  0  0
  1  2  1  0
  1  3  2  0
  1  4  1  0
  4  5  1  0
  4  6  1  0
  6  7  1  6
  5  8  1  1
  5  9  1  0
  6 10  1  0
  9 11  1  0
 10 11  1  0
 12  7  1  1
  8 13  1  0
 11 14  1  0
 12 15  1  0
 12 16  1  0
 13 17  2  0
 13 18  1  0
 14 19  1  0
 15 20  2  0
 16 21  1  0
 20 21  1  0
 17 22  1  0
 18 23  2  0
 21 24  1  0
 21 25  1  0
 19 26  2  0
 19 27  1  0
 22 28  2  0
 23 28  1  0
 27 29  1  0
 26 30  1  0
 27 31  2  0
 30 32  2  0
 31 32  1  0
M  END
