x0831_0-x1418_1-x0770_1-x0692_1
     RDKit          3D

 17 18  0  0  0  0  0  0  0  0999 V2000
    6.3410   -3.2970   19.8600 C   0  0  0  0  0  0  0  0  0  0  0  0
    7.3450   -2.9950   18.7550 C   0  0  0  0  0  0  0  0  0  0  0  0
    5.4150   -4.0960   19.7150 O   0  0  0  0  0  0  0  0  0  0  0  0
    6.5350   -2.6390   21.0680 N   0  0  0  0  0  0  0  0  0  0  0  0
    6.5010   -3.3420   22.3510 C   0  0  0  0  0  0  0  0  0  0  0  0
    7.3780   -1.4470   21.0460 C   0  0  0  0  0  0  0  0  0  0  0  0
    7.8880   -3.5110   22.9880 C   0  0  0  0  0  0  0  0  0  0  0  0
    8.7650   -1.6950   21.6500 C   0  0  0  0  0  0  0  0  0  0  0  0
    8.7260   -2.3150   22.9610 N   0  0  0  0  0  0  0  0  0  0  0  0
   10.0370   -2.3840   23.6280 C   0  0  0  0  0  0  0  0  0  0  0  0
   10.8230   -1.0980   23.5500 C   0  0  0  0  0  0  0  0  0  0  0  0
   10.2570    0.1560   24.1750 C   0  0  0  0  0  0  0  0  0  0  0  0
   12.1730   -0.9510   22.8620 C   0  0  0  0  0  0  0  0  0  0  0  0
   12.8700   -2.0790   22.1870 C   0  0  0  0  0  0  0  0  0  0  0  0
   10.8580    1.3890   24.1590 C   0  0  0  0  0  0  0  0  0  0  0  0
   12.8430    0.3870   22.8480 C   0  0  0  0  0  0  0  0  0  0  0  0
   12.1380    1.5950   23.5240 C   0  0  0  0  0  0  0  0  0  0  0  0
  1  2  1  0
  1  3  2  0
  1  4  1  0
  4  5  1  0
  4  6  1  0
  5  7  1  0
  6  8  1  0
  7  9  1  0
  8  9  1  0
  9 10  1  0
 10 11  1  0
 11 12  2  0
 11 13  1  0
 13 14  1  0
 12 15  1  0
 13 16  2  0
 15 17  2  0
 16 17  1  0
M  END
