x0831_0-x1412_1-x0770_1-x1386_1-x0689_0
     RDKit          3D

 27 29  0  0  0  0  0  0  0  0999 V2000
    6.3440   -3.4170   20.0190 C   0  0  0  0  0  0  0  0  0  0  0  0
    7.2550   -3.0360   18.8560 C   0  0  0  0  0  0  0  0  0  0  0  0
    5.4380   -4.2410   19.8200 O   0  0  0  0  0  0  0  0  0  0  0  0
    6.5860   -2.8200   21.2670 N   0  0  0  0  0  0  0  0  0  0  0  0
    7.4080   -1.6060   21.2820 C   0  0  0  0  0  0  0  0  0  0  0  0
    6.4740   -3.4200   22.6080 C   0  0  1  0  0  0  0  0  0  0  0  0
    5.3620   -4.4840   22.7740 C   0  0  0  0  0  0  0  0  0  0  0  0
    8.6630   -1.7540   21.8670 C   0  0  0  0  0  0  0  0  0  0  0  0
    7.9040   -3.7340   23.1110 C   0  0  0  0  0  0  0  0  0  0  0  0
    5.4850   -5.5460   23.9270 C   0  0  0  0  0  0  0  0  0  0  0  0
    8.7070   -2.4650   23.1570 N   0  0  0  0  0  0  0  0  0  0  0  0
    4.7380   -5.2220   25.5260 S   0  0  0  0  0  0  0  0  0  0  0  0
   10.0340   -2.5950   23.5230 C   0  0  0  0  0  0  0  0  0  0  0  0
    3.9810   -6.3890   25.9220 O   0  0  0  0  0  0  0  0  0  0  0  0
    5.6990   -4.6240   26.4280 O   0  0  0  0  0  0  0  0  0  0  0  0
    3.5440   -3.9900   25.4970 C   0  0  0  0  0  0  0  0  0  0  0  0
   10.7800   -1.2560   23.5220 C   0  0  0  0  0  0  0  0  0  0  0  0
    4.0360   -2.3540   25.8630 S   0  0  0  0  0  0  0  0  0  0  0  0
    2.1800   -4.0380   25.2360 C   0  0  0  0  0  0  0  0  0  0  0  0
   10.1040   -0.0730   24.2410 C   0  0  0  0  0  0  0  0  0  0  0  0
   12.0380   -1.0530   22.8910 C   0  0  0  0  0  0  0  0  0  0  0  0
   12.7610   -2.1360   22.1650 C   0  0  0  0  0  0  0  0  0  0  0  0
    2.4530   -1.7080   25.6860 C   0  0  0  0  0  0  0  0  0  0  0  0
    1.5300   -2.8480   25.3220 C   0  0  0  0  0  0  0  0  0  0  0  0
   10.7360    1.2030   24.2570 C   0  0  0  0  0  0  0  0  0  0  0  0
   12.6530    0.1930   22.9210 C   0  0  0  0  0  0  0  0  0  0  0  0
   11.9490    1.3530   23.6350 C   0  0  0  0  0  0  0  0  0  0  0  0
  1  2  1  0
  1  3  2  0
  1  4  1  0
  4  5  1  0
  4  6  1  0
  6  7  1  6
  5  8  1  0
  6  9  1  0
  7 10  1  0
  8 11  1  0
  9 11  1  0
 12 10  1  0
 11 13  1  0
 12 14  2  0
 12 15  2  0
 12 16  1  0
 13 17  1  0
 16 18  1  0
 16 19  2  0
 17 20  2  0
 17 21  1  0
 21 22  1  0
 18 23  1  0
 19 24  1  0
 23 24  2  0
 20 25  1  0
 21 26  2  0
 25 27  2  0
 26 27  1  0
M  END
