x0831_0-x1334_0-x1412_1-x0397_0-x0692_1
     RDKit          3D

 27 30  0  0  0  0  0  0  0  0999 V2000
    6.3530   -3.3280   19.8750 C   0  0  0  0  0  0  0  0  0  0  0  0
    7.3390   -3.0350   18.7590 C   0  0  0  0  0  0  0  0  0  0  0  0
    5.3970   -4.0940   19.7090 O   0  0  0  0  0  0  0  0  0  0  0  0
    6.6210   -2.7110   21.0740 N   0  0  0  0  0  0  0  0  0  0  0  0
    7.3190   -1.4260   21.0870 C   0  0  0  0  0  0  0  0  0  0  0  0
    7.0440   -3.6280   22.1320 C   0  0  1  0  0  0  0  0  0  0  0  0
    8.6460   -1.5170   21.8630 C   0  0  0  0  0  0  0  0  0  0  0  0
    7.4530   -2.9410   23.4340 C   0  0  0  0  0  0  0  0  0  0  0  0
    5.9280   -4.5980   22.4090 C   0  0  0  0  0  0  0  0  0  0  0  0
    8.4230   -1.8440   23.2510 N   0  0  0  0  0  0  0  0  0  0  0  0
    6.0780   -5.7240   23.1480 C   0  0  0  0  0  0  0  0  0  0  0  0
    6.0270   -6.1660   21.8040 C   0  0  0  0  0  0  0  0  0  0  0  0
    9.5260   -1.9680   24.0070 C   0  0  1  0  0  0  0  0  0  0  0  0
    9.9710   -3.3990   23.9220 C   0  0  0  0  0  0  0  0  0  0  0  0
   10.5580   -0.8700   23.7100 C   0  0  0  0  0  0  0  0  0  0  0  0
   10.1820    0.2850   24.3220 C   0  0  0  0  0  0  0  0  0  0  0  0
   11.7380   -0.9850   22.9260 C   0  0  0  0  0  0  0  0  0  0  0  0
    9.4290   -4.2500   25.0370 C   0  0  0  0  0  0  0  0  0  0  0  0
   12.2180   -2.2030   22.2130 C   0  0  0  0  0  0  0  0  0  0  0  0
   11.0800    1.4150   24.1190 C   0  0  0  0  0  0  0  0  0  0  0  0
   12.5370    0.1080   22.7900 C   0  0  0  0  0  0  0  0  0  0  0  0
    9.8560   -5.5040   25.3370 C   0  0  0  0  0  0  0  0  0  0  0  0
    8.1810   -3.7900   26.1430 S   0  0  0  0  0  0  0  0  0  0  0  0
   12.2320    1.3000   23.3680 C   0  0  0  0  0  0  0  0  0  0  0  0
    9.2710   -6.1180   26.3920 C   0  0  0  0  0  0  0  0  0  0  0  0
    8.2910   -5.2890   26.9770 C   0  0  0  0  0  0  0  0  0  0  0  0
    7.2950   -5.6340   28.3240 Cl  0  0  0  0  0  0  0  0  0  0  0  0
  1  2  1  0
  1  3  2  0
  1  4  1  0
  4  5  1  0
  4  6  1  0
  5  7  1  0
  6  8  1  0
  6  9  1  1
  7 10  1  0
  8 10  1  0
  9 11  1  0
  9 12  1  0
 11 12  1  0
 10 13  1  0
 13 14  1  6
 13 15  1  0
 15 16  2  0
 15 17  1  0
 14 18  1  0
 17 19  1  0
 16 20  1  0
 17 21  2  0
 18 22  2  0
 18 23  1  0
 20 24  2  0
 21 24  1  0
 22 25  1  0
 23 26  1  0
 25 26  2  0
 26 27  1  0
M  END
