x0831_0-x1418_1-x0831_1-x1334_1-x0769_1
     RDKit          3D

 29 31  0  0  0  0  0  0  0  0999 V2000
    6.3480   -3.2550   19.8600 C   0  0  0  0  0  0  0  0  0  0  0  0
    7.3260   -2.9820   18.7360 C   0  0  0  0  0  0  0  0  0  0  0  0
    5.3750   -3.9950   19.6610 O   0  0  0  0  0  0  0  0  0  0  0  0
    6.6130   -2.7090   21.1020 N   0  0  0  0  0  0  0  0  0  0  0  0
    6.8860   -3.5720   22.2590 C   0  0  0  0  0  0  0  0  0  0  0  0
    7.3590   -1.4440   21.0880 C   0  0  0  0  0  0  0  0  0  0  0  0
    7.5690   -2.8700   23.4630 C   0  0  2  0  0  0  0  0  0  0  0  0
    8.7770   -1.6080   21.6200 C   0  0  0  0  0  0  0  0  0  0  0  0
    6.4600   -1.9080   24.0180 C   0  0  0  0  0  0  0  0  0  0  0  0
    8.7900   -2.0840   23.0300 N   0  0  0  0  0  0  0  0  0  0  0  0
    6.4650   -1.5950   25.5630 C   0  0  0  0  0  0  0  0  0  0  0  0
   10.0790   -2.3140   23.5360 C   0  0  0  0  0  0  0  0  0  0  0  0
    5.7030   -2.6020   26.2460 O   0  0  0  0  0  0  0  0  0  0  0  0
   10.8210   -1.0210   23.5420 C   0  0  0  0  0  0  0  0  0  0  0  0
    4.3420   -2.6140   26.0900 C   0  0  0  0  0  0  0  0  0  0  0  0
   10.2990    0.1290   24.1520 C   0  0  0  0  0  0  0  0  0  0  0  0
   12.0830   -0.9310   22.9080 C   0  0  0  0  0  0  0  0  0  0  0  0
   12.7260   -2.1050   22.2210 C   0  0  0  0  0  0  0  0  0  0  0  0
    3.7660   -3.8830   25.8740 C   0  0  0  0  0  0  0  0  0  0  0  0
    3.5080   -1.4720   26.1330 C   0  0  0  0  0  0  0  0  0  0  0  0
   10.9930    1.3260   24.1270 C   0  0  0  0  0  0  0  0  0  0  0  0
   12.7700    0.2860   22.9030 C   0  0  0  0  0  0  0  0  0  0  0  0
    4.7810   -5.2690   25.8250 S   0  0  0  0  0  0  0  0  0  0  0  0
    2.3900   -4.0060   25.7040 C   0  0  0  0  0  0  0  0  0  0  0  0
    2.1300   -1.6270   25.9620 C   0  0  0  0  0  0  0  0  0  0  0  0
   12.2270    1.4080   23.5040 C   0  0  0  0  0  0  0  0  0  0  0  0
    5.8010   -5.0950   26.8340 O   0  0  0  0  0  0  0  0  0  0  0  0
    3.9240   -6.4340   25.8150 O   0  0  0  0  0  0  0  0  0  0  0  0
    1.5920   -2.8910   25.7490 C   0  0  0  0  0  0  0  0  0  0  0  0
  1  2  1  0
  1  3  2  0
  1  4  1  0
  4  5  1  0
  4  6  1  0
  5  7  1  0
  6  8  1  0
  7  9  1  6
  7 10  1  0
  8 10  1  0
  9 11  1  0
 10 12  1  0
 11 13  1  0
 12 14  1  0
 13 15  1  0
 14 16  2  0
 14 17  1  0
 17 18  1  0
 15 19  2  0
 15 20  1  0
 16 21  1  0
 17 22  2  0
 19 23  1  0
 19 24  1  0
 20 25  2  0
 21 26  2  0
 22 26  1  0
 23 27  2  0
 23 28  2  0
 24 29  2  0
 25 29  1  0
M  END
