x0831_0-x0689_0-x0771_0
     RDKit          3D

 27 29  0  0  0  0  0  0  0  0999 V2000
    6.3350   -4.2510   20.4550 C   0  0  0  0  0  0  0  0  0  0  0  0
    7.3060   -3.3170   19.7420 C   0  0  0  0  0  0  0  0  0  0  0  0
    5.2870   -4.5960   19.9140 O   0  0  0  0  0  0  0  0  0  0  0  0
    6.6640   -4.7400   21.7240 N   0  0  0  0  0  0  0  0  0  0  0  0
    6.2440   -6.0990   22.1170 C   0  0  0  0  0  0  0  0  0  0  0  0
    6.6890   -3.7130   22.8020 C   0  0  2  0  0  0  0  0  0  0  0  0
    7.9450   -3.6120   23.6730 C   0  0  0  0  0  0  0  0  0  0  0  0
    5.2260   -6.1070   23.2670 C   0  0  0  0  0  0  0  0  0  0  0  0
    5.6080   -3.7880   23.6590 C   0  0  0  0  0  0  0  0  0  0  0  0
    8.7300   -2.3030   23.6420 C   0  0  0  0  0  0  0  0  0  0  0  0
    5.5040   -5.1010   24.2820 N   0  0  0  0  0  0  0  0  0  0  0  0
    4.6500   -5.1660   25.7480 S   0  0  0  0  0  0  0  0  0  0  0  0
   10.2370   -2.4590   23.5400 C   0  0  0  0  0  0  0  0  0  0  0  0
    3.9450   -6.4250   25.8600 O   0  0  0  0  0  0  0  0  0  0  0  0
    5.5630   -4.7240   26.7840 O   0  0  0  0  0  0  0  0  0  0  0  0
    3.4250   -3.9790   25.6750 C   0  0  0  0  0  0  0  0  0  0  0  0
   10.9390   -1.1270   23.5250 C   0  0  0  0  0  0  0  0  0  0  0  0
    3.9160   -2.2170   26.0420 S   0  0  0  0  0  0  0  0  0  0  0  0
    1.9340   -4.0030   25.3640 C   0  0  0  0  0  0  0  0  0  0  0  0
   10.2410    0.0710   24.2340 C   0  0  0  0  0  0  0  0  0  0  0  0
   12.1700   -0.9460   22.8950 C   0  0  0  0  0  0  0  0  0  0  0  0
   12.8840   -2.0600   22.1870 C   0  0  0  0  0  0  0  0  0  0  0  0
    2.3010   -1.6910   25.7950 C   0  0  0  0  0  0  0  0  0  0  0  0
    1.4200   -2.6990   25.4600 C   0  0  0  0  0  0  0  0  0  0  0  0
   10.9350    1.2840   24.1710 C   0  0  0  0  0  0  0  0  0  0  0  0
   12.7610    0.3010   22.9100 C   0  0  0  0  0  0  0  0  0  0  0  0
   12.1670    1.3940   23.5250 C   0  0  0  0  0  0  0  0  0  0  0  0
  1  2  1  0
  1  3  2  0
  1  4  1  0
  4  5  1  0
  4  6  1  0
  6  7  1  1
  5  8  1  0
  6  9  1  0
  7 10  1  0
  8 11  1  0
  9 11  1  0
 11 12  1  0
 10 13  1  0
 12 14  2  0
 12 15  2  0
 12 16  1  0
 13 17  1  0
 16 18  1  0
 16 19  2  0
 17 20  2  0
 17 21  1  0
 21 22  1  0
 18 23  1  0
 19 24  1  0
 23 24  2  0
 20 25  1  0
 21 26  2  0
 25 27  2  0
 26 27  1  0
M  END
