x0831_0-x1374_1-x0770_1-x1386_1-x0692_1
     RDKit          3D

 25 27  0  0  0  0  0  0  0  0999 V2000
    6.2790   -3.2840   19.9010 C   0  0  0  0  0  0  0  0  0  0  0  0
    7.2420   -2.9800   18.7650 C   0  0  0  0  0  0  0  0  0  0  0  0
    5.3240   -4.0490   19.6910 O   0  0  0  0  0  0  0  0  0  0  0  0
    6.5520   -2.7140   21.1410 N   0  0  0  0  0  0  0  0  0  0  0  0
    6.9820   -1.4790   21.2930 C   0  0  0  0  0  0  0  0  0  0  0  0
    7.2150   -3.6650   22.0310 C   0  0  2  0  0  0  0  0  0  0  0  0
    6.5660   -5.0510   21.9510 C   0  0  0  0  0  0  0  0  0  0  0  0
    8.3710   -1.4090   21.8710 C   0  0  0  0  0  0  0  0  0  0  0  0
    7.5610   -3.2150   23.2910 C   0  0  0  0  0  0  0  0  0  0  0  0
    8.5390   -2.1170   23.1570 N   0  0  0  0  0  0  0  0  0  0  0  0
    5.7980   -5.4950   23.1350 C   0  0  1  0  0  0  0  0  0  0  0  0
    9.8620   -2.4060   23.4710 C   0  0  0  0  0  0  0  0  0  0  0  0
    4.8660   -4.7030   23.8090 C   0  0  0  0  0  0  0  0  0  0  0  0
    5.1310   -6.6950   22.9880 C   0  0  0  0  0  0  0  0  0  0  0  0
   10.6720   -1.1120   23.5040 C   0  0  0  0  0  0  0  0  0  0  0  0
    3.7240   -5.2480   24.3460 C   0  0  0  0  0  0  0  0  0  0  0  0
    3.7520   -6.9210   23.9890 S   0  0  0  0  0  0  0  0  0  0  0  0
    2.7270   -7.3680   23.0830 O   0  0  0  0  0  0  0  0  0  0  0  0
    4.1580   -7.7760   25.0700 O   0  0  0  0  0  0  0  0  0  0  0  0
   10.1750    0.1600   24.1600 C   0  0  0  0  0  0  0  0  0  0  0  0
   11.9590   -1.0220   22.8960 C   0  0  0  0  0  0  0  0  0  0  0  0
   12.5960   -2.1900   22.1980 C   0  0  0  0  0  0  0  0  0  0  0  0
   10.8720    1.3320   24.1820 C   0  0  0  0  0  0  0  0  0  0  0  0
   12.8040    0.3000   22.9010 C   0  0  0  0  0  0  0  0  0  0  0  0
   12.2550    1.4230   23.5220 C   0  0  0  0  0  0  0  0  0  0  0  0
  1  2  1  0
  1  3  2  0
  1  4  1  0
  4  5  1  0
  4  6  1  0
  6  7  1  1
  5  8  1  0
  6  9  1  0
  8 10  1  0
  9 10  1  0
 11  7  1  6
 10 12  1  0
 11 13  1  0
 11 14  1  0
 12 15  1  0
 13 16  2  0
 14 17  1  0
 16 17  1  0
 17 18  1  0
 17 19  1  0
 15 20  2  0
 15 21  1  0
 21 22  1  0
 20 23  1  0
 21 24  2  0
 23 25  2  0
 24 25  1  0
M  END
