x0831_0-x0734_0
     RDKit          3D

 19 20  0  0  0  0  0  0  0  0999 V2000
    5.3660   -4.5760   25.7620 N   0  0  0  0  0  0  0  0  0  0  0  0
    6.7910   -4.7640   26.0250 C   0  0  0  0  0  0  0  0  0  0  0  0
    7.8050   -4.3140   25.1310 C   0  0  0  0  0  0  0  0  0  0  0  0
    4.7830   -5.5180   25.2060 O   0  0  0  0  0  0  0  0  0  0  0  0
    4.7900   -3.7380   26.4680 O   0  0  0  0  0  0  0  0  0  0  0  0
    7.0810   -5.4950   27.3660 C   0  0  0  0  0  0  0  0  0  0  0  0
    7.6020   -3.5730   23.7800 C   0  0  0  0  0  0  0  0  0  0  0  0
    9.2070   -4.5430   25.4810 C   0  0  0  0  0  0  0  0  0  0  0  0
    8.5700   -5.7430   27.7490 C   0  0  0  0  0  0  0  0  0  0  0  0
    8.3870   -2.2400   23.6580 C   0  0  0  0  0  0  0  0  0  0  0  0
    9.5900   -5.2380   26.7540 C   0  0  0  0  0  0  0  0  0  0  0  0
    9.9210   -2.4490   23.6050 C   0  0  0  0  0  0  0  0  0  0  0  0
   10.6940   -1.1060   23.6140 C   0  0  0  0  0  0  0  0  0  0  0  0
   10.1820    0.0210   24.2580 C   0  0  0  0  0  0  0  0  0  0  0  0
   11.9370   -1.0460   22.9390 C   0  0  0  0  0  0  0  0  0  0  0  0
   12.5120   -2.2340   22.2300 C   0  0  0  0  0  0  0  0  0  0  0  0
   10.9240    1.2510   24.2290 C   0  0  0  0  0  0  0  0  0  0  0  0
   12.7650    0.2140   22.8830 C   0  0  0  0  0  0  0  0  0  0  0  0
   12.1350    1.3720   23.5920 C   0  0  0  0  0  0  0  0  0  0  0  0
  1  2  1  0
  2  3  2  0
  1  4  2  0
  1  5  1  0
  2  6  1  0
  3  7  1  0
  3  8  1  0
  6  9  2  0
  7 10  1  0
  8 11  2  0
  9 11  1  0
 10 12  1  0
 12 13  1  0
 13 14  2  0
 13 15  1  0
 15 16  1  0
 14 17  1  0
 15 18  2  0
 17 19  2  0
 18 19  1  0
M  CHG  2   1   1   5  -1
M  END
