x0831_0-x0769_0-x0434_2
     RDKit          3D

 28 30  0  0  0  0  0  0  0  0999 V2000
    6.3350   -4.5330   20.5850 C   0  0  0  0  0  0  0  0  0  0  0  0
    7.1410   -3.4420   19.8830 C   0  0  0  0  0  0  0  0  0  0  0  0
    5.3640   -5.0120   20.0120 O   0  0  0  0  0  0  0  0  0  0  0  0
    6.6610   -5.0510   21.8590 N   0  0  0  0  0  0  0  0  0  0  0  0
    6.0640   -6.2370   22.1000 C   0  0  0  0  0  0  0  0  0  0  0  0
    7.1630   -4.3370   23.0950 C   0  0  1  0  0  0  0  0  0  0  0  0
    7.6880   -2.8650   23.0010 C   0  0  0  0  0  0  0  0  0  0  0  0
    5.0050   -6.1250   23.1930 C   0  0  0  0  0  0  0  0  0  0  0  0
    6.2070   -4.2370   24.0930 C   0  0  0  0  0  0  0  0  0  0  0  0
    9.1190   -2.5320   22.5580 C   0  0  2  0  0  0  0  0  0  0  0  0
    5.5040   -5.4830   24.4040 N   0  0  0  0  0  0  0  0  0  0  0  0
   10.1320   -2.3990   23.6830 C   0  0  0  0  0  0  0  0  0  0  0  0
    9.0900   -1.2040   21.8160 C   0  0  0  0  0  0  0  0  0  0  0  0
    7.9080   -1.2340   20.8580 C   0  0  0  0  0  0  0  0  0  0  0  0
   10.8350   -1.0270   23.6500 C   0  0  0  0  0  0  0  0  0  0  0  0
    6.8490   -0.2980   21.1530 N   0  0  0  0  0  0  0  0  0  0  0  0
   10.3230    0.1220   24.2110 C   0  0  0  0  0  0  0  0  0  0  0  0
   12.0980   -0.9030   22.9850 C   0  0  0  0  0  0  0  0  0  0  0  0
   12.7600   -2.0800   22.3230 C   0  0  0  0  0  0  0  0  0  0  0  0
   11.0470    1.4280   24.1180 C   0  0  0  0  0  0  0  0  0  0  0  0
   12.7950    0.3330   22.9020 C   0  0  0  0  0  0  0  0  0  0  0  0
    6.2950    0.2940   20.0450 C   0  0  0  0  0  0  0  0  0  0  0  0
   12.2890    1.5010   23.4530 C   0  0  0  0  0  0  0  0  0  0  0  0
    6.8490    0.1850   18.7530 C   0  0  0  0  0  0  0  0  0  0  0  0
    5.1280    1.0430   20.1890 C   0  0  0  0  0  0  0  0  0  0  0  0
    6.3560    0.7510   17.6430 N   0  0  0  0  0  0  0  0  0  0  0  0
    4.5570    1.6600   19.0670 C   0  0  0  0  0  0  0  0  0  0  0  0
    5.1660    1.5140   17.8380 C   0  0  0  0  0  0  0  0  0  0  0  0
  1  2  1  0
  1  3  2  0
  1  4  1  0
  4  5  1  0
  4  6  1  0
  6  7  1  6
  5  8  1  0
  6  9  1  0
 10  7  1  1
  8 11  1  0
  9 11  1  0
 10 12  1  0
 10 13  1  0
 13 14  1  0
 12 15  1  0
 14 16  1  0
 15 17  2  0
 15 18  1  0
 18 19  1  0
 17 20  1  0
 18 21  2  0
 16 22  1  0
 20 23  2  0
 21 23  1  0
 22 24  2  0
 22 25  1  0
 24 26  1  0
 25 27  2  0
 26 28  2  0
 27 28  1  0
M  END
