x0831_0-x1334_1-x1412_1-x0426_1-x1385_1-x0692_1-x1334_0-x0434_2-x1418_1-x0397_0-x1374_1-x0770_1
     RDKit          3D

 45 51  0  0  0  0  0  0  0  0999 V2000
    2.0510   -7.1710   23.5670 O   0  0  0  0  0  0  0  0  0  0  0  0
    2.4340   -7.5010   24.8890 C   0  0  0  0  0  0  0  0  0  0  0  0
    3.8090   -7.8530   24.8860 O   0  0  0  0  0  0  0  0  0  0  0  0
    4.4820   -7.1950   23.8260 C   0  0  0  0  0  0  0  0  0  0  0  0
    4.9530   -5.9530   24.2200 C   0  0  0  0  0  0  0  0  0  0  0  0
    6.1090   -5.6260   23.3270 C   0  0  2  0  0  0  0  0  0  0  0  0
    6.0080   -4.5340   22.3640 C   0  0  2  0  0  0  0  0  0  0  0  0
    6.1370   -6.2130   22.1360 C   0  0  0  0  0  0  0  0  0  0  0  0
    7.1900   -3.6940   22.0180 C   0  0  1  0  0  0  0  0  0  0  0  0
    6.8350   -2.6980   21.0050 N   0  0  0  0  0  0  0  0  0  0  0  0
    7.9010   -3.1950   23.2620 C   0  0  0  0  0  0  0  0  0  0  0  0
    6.4150   -3.3220   19.8340 C   0  0  0  0  0  0  0  0  0  0  0  0
    8.8790   -2.1210   23.0010 N   0  0  0  0  0  0  0  0  0  0  0  0
    7.8050   -1.6910   20.7700 C   0  0  1  0  0  0  0  0  0  0  0  0
    7.3200   -3.0450   18.6580 C   0  0  0  0  0  0  0  0  0  0  0  0
    5.4380   -4.0830   19.7040 O   0  0  0  0  0  0  0  0  0  0  0  0
   10.2010   -2.3100   23.3120 C   0  0  2  0  0  0  0  0  0  0  0  0
    7.3570   -0.3300   20.8410 N   0  0  0  0  0  0  0  0  0  0  0  0
    9.0520   -2.0250   21.5840 C   0  0  0  0  0  0  0  0  0  0  0  0
   10.5920   -3.1330   24.5050 C   0  0  0  0  0  0  0  0  0  0  0  0
    6.9980    0.1950   22.1520 C   0  0  0  0  0  0  0  0  0  0  0  0
    6.5240    0.2880   19.8980 C   0  0  0  0  0  0  0  0  0  0  0  0
   10.8530   -1.0160   23.3730 C   0  0  0  0  0  0  0  0  0  0  0  0
    5.5390    0.4640   22.0910 C   0  0  2  0  0  0  0  0  0  0  0  0
    6.6300    0.4560   18.5270 N   0  0  0  0  0  0  0  0  0  0  0  0
    5.4620    0.7690   20.5940 C   0  0  0  0  0  0  0  0  0  0  0  0
   10.1420    0.1730   23.9480 C   0  0  0  0  0  0  0  0  0  0  0  0
   12.2830   -0.8790   22.8300 C   0  0  0  0  0  0  0  0  0  0  0  0
    9.6410   -3.9580   25.3920 C   0  0  0  0  0  0  0  0  0  0  0  0
    5.0070    1.6040   22.9520 C   0  0  0  0  0  0  0  0  0  0  0  0
   13.0860   -1.9630   22.2170 C   0  0  0  0  0  0  0  0  0  0  0  0
    4.4190    1.4600   20.0650 C   0  0  0  0  0  0  0  0  0  0  0  0
    5.6250    1.1510   17.9270 C   0  0  0  0  0  0  0  0  0  0  0  0
   10.7580    1.3750   24.0030 C   0  0  0  0  0  0  0  0  0  0  0  0
   12.7400    0.4350   22.9780 C   0  0  0  0  0  0  0  0  0  0  0  0
   10.0450   -5.3550   25.7790 C   0  0  0  0  0  0  0  0  0  0  0  0
    8.0070   -3.6150   26.1810 S   0  0  0  0  0  0  0  0  0  0  0  0
    3.8840    2.4440   22.3010 C   0  0  1  0  0  0  0  0  0  0  0  0
    3.3290    1.9260   20.9610 C   0  0  0  0  0  0  0  0  0  0  0  0
    4.5220    1.6720   18.6080 C   0  0  0  0  0  0  0  0  0  0  0  0
   12.0400    1.4990   23.5230 C   0  0  0  0  0  0  0  0  0  0  0  0
    9.1560   -5.9860   26.5970 C   0  0  0  0  0  0  0  0  0  0  0  0
    8.0630   -5.2490   26.9210 C   0  0  0  0  0  0  0  0  0  0  0  0
    2.8240    2.6050   23.2730 N   0  0  0  0  0  0  0  0  0  0  0  0
    6.8520   -5.8710   27.9680 Cl  0  0  0  0  0  0  0  0  0  0  0  0
  1  2  1  0
  2  3  1  0
  3  4  1  0
  4  5  1  0
  6  5  1  1
  6  7  1  0
  6  8  1  0
  7  8  1  6
  7  9  1  0
  9 10  1  0
  9 11  1  1
 10 12  1  0
 11 13  1  0
 10 14  1  0
 12 15  1  0
 12 16  2  0
 13 17  1  0
 14 18  1  1
 13 19  1  0
 14 19  1  0
 17 20  1  1
 18 21  1  0
 18 22  1  0
 17 23  1  0
 24 21  1  1
 22 25  2  0
 22 26  1  0
 24 26  1  0
 23 27  2  0
 23 28  1  0
 20 29  1  0
 24 30  1  0
 28 31  1  0
 26 32  2  0
 25 33  1  0
 27 34  1  0
 28 35  2  0
 29 36  2  0
 29 37  1  0
 30 38  1  0
 32 39  1  0
 38 39  1  0
 32 40  1  0
 33 40  2  0
 34 41  2  0
 35 41  1  0
 36 42  1  0
 37 43  1  0
 42 43  2  0
 38 44  1  1
 43 45  1  0
M  END
