x0831_0-x1334_1-x0820_1-x0540_3-x0692_1
     RDKit          3D

 35 39  0  0  0  0  0  0  0  0999 V2000
    6.5330   -3.1970   19.6980 C   0  0  0  0  0  0  0  0  0  0  0  0
    7.1360   -2.5360   18.4720 C   0  0  0  0  0  0  0  0  0  0  0  0
    5.7910   -4.1670   19.5620 O   0  0  0  0  0  0  0  0  0  0  0  0
    6.8670   -2.7290   20.9200 N   0  0  0  0  0  0  0  0  0  0  0  0
    7.5420   -2.5260   22.4730 C   0  0  0  0  0  0  0  0  0  0  0  0
    7.7100   -1.5650   21.2060 C   0  0  1  0  0  0  0  0  0  0  0  0
    5.8560   -0.7130   21.8480 C   0  0  0  0  0  0  0  0  0  0  0  0
    8.4690   -2.6360   23.2960 C   0  0  1  0  0  0  0  0  0  0  0  0
    8.8930   -1.9680   22.0610 C   0  0  0  0  0  0  0  0  0  0  0  0
    6.4300   -3.3760   22.1540 C   0  0  0  0  0  0  0  0  0  0  0  0
    4.9500    0.2690   21.7230 C   0  0  0  0  0  0  0  0  0  0  0  0
    9.9690   -2.2590   23.6840 C   0  0  0  0  0  0  0  0  0  0  0  0
    7.6400   -3.7960   22.9530 C   0  0  0  0  0  0  0  0  0  0  0  0
    7.0350   -3.5860   22.5530 C   0  0  0  0  0  0  0  0  0  0  0  0
    5.2800    1.5020   22.5600 C   0  0  0  0  0  0  0  0  0  0  0  0
    6.4390   -4.2050   23.9830 C   0  0  0  0  0  0  0  0  0  0  0  0
   10.8280   -1.0220   23.8020 C   0  0  0  0  0  0  0  0  0  0  0  0
    4.1480    2.3990   22.4820 N   0  0  0  0  0  0  0  0  0  0  0  0
    6.8860   -4.2170   25.3580 C   0  0  0  0  0  0  0  0  0  0  0  0
    5.0990   -4.3650   23.7200 C   0  0  0  0  0  0  0  0  0  0  0  0
   10.3810    0.0410   24.5840 C   0  0  0  0  0  0  0  0  0  0  0  0
   12.0340   -0.8780   23.0930 C   0  0  0  0  0  0  0  0  0  0  0  0
    3.0060    2.2640   23.3710 C   0  0  0  0  0  0  0  0  0  0  0  0
   12.5900   -1.9690   22.2140 C   0  0  0  0  0  0  0  0  0  0  0  0
    5.9160   -4.3990   26.3890 C   0  0  0  0  0  0  0  0  0  0  0  0
    4.1540   -4.5400   24.7490 C   0  0  0  0  0  0  0  0  0  0  0  0
    8.2410   -4.0590   25.7640 C   0  0  0  0  0  0  0  0  0  0  0  0
   11.1140    1.2040   24.7010 C   0  0  0  0  0  0  0  0  0  0  0  0
   12.7560    0.2960   23.2310 C   0  0  0  0  0  0  0  0  0  0  0  0
    2.9690    1.4200   24.2170 O   0  0  0  0  0  0  0  0  0  0  0  0
    4.5530   -4.5590   26.0430 C   0  0  0  0  0  0  0  0  0  0  0  0
    8.6000   -4.0860   27.0800 C   0  0  0  0  0  0  0  0  0  0  0  0
    6.3270   -4.4200   27.7430 C   0  0  0  0  0  0  0  0  0  0  0  0
   12.3050    1.3300   24.0260 C   0  0  0  0  0  0  0  0  0  0  0  0
    7.6330   -4.2720   28.0760 C   0  0  0  0  0  0  0  0  0  0  0  0
  1  2  1  0
  1  3  2  0
  1  4  1  0
  4  5  1  0
  4  6  1  0
  6  7  1  1
  5  8  1  0
  6  9  1  0
  8  9  1  0
  5 10  2  0
  7 11  1  0
  8 12  1  1
  8 13  1  0
 10 14  1  0
 13 14  2  0
 11 15  1  0
 13 16  1  0
 12 17  1  0
 15 18  1  0
 16 19  1  0
 16 20  2  0
 17 21  2  0
 17 22  1  0
 18 23  1  0
 22 24  1  0
 19 25  2  0
 20 26  1  0
 19 27  1  0
 21 28  1  0
 22 29  2  0
 23 30  2  0
 25 31  1  0
 26 31  2  0
 27 32  2  0
 25 33  1  0
 28 34  2  0
 29 34  1  0
 32 35  1  0
 33 35  2  0
M  END
