x0831_0-x1385_1-x1334_1-x0540_3-x1412_0
     RDKit          3D

 31 33  0  0  0  0  0  0  0  0999 V2000
    6.4170   -3.2140   19.8820 C   0  0  0  0  0  0  0  0  0  0  0  0
    7.3420   -2.9760   18.7060 C   0  0  0  0  0  0  0  0  0  0  0  0
    5.5360   -4.0920   19.7600 O   0  0  0  0  0  0  0  0  0  0  0  0
    6.5980   -2.4460   21.0510 N   0  0  0  0  0  0  0  0  0  0  0  0
    6.4670   -3.1260   22.3520 C   0  0  0  0  0  0  0  0  0  0  0  0
    7.5670   -1.3330   20.9780 C   0  0  1  0  0  0  0  0  0  0  0  0
    7.0490    0.0330   21.4820 C   0  0  0  0  0  0  0  0  0  0  0  0
    7.8190   -3.4630   22.9830 C   0  0  0  0  0  0  0  0  0  0  0  0
    8.8070   -1.7410   21.4830 C   0  0  0  0  0  0  0  0  0  0  0  0
    5.5540    0.3170   21.7170 C   0  0  0  0  0  0  0  0  0  0  0  0
    8.8290   -2.4090   22.7380 N   0  0  0  0  0  0  0  0  0  0  0  0
    5.2520    1.4320   22.7860 C   0  0  0  0  0  0  0  0  0  0  0  0
    9.4530   -1.6320   23.8140 C   0  0  1  0  0  0  0  0  0  0  0  0
    4.0770    2.2150   22.4910 N   0  0  0  0  0  0  0  0  0  0  0  0
    9.8180   -2.3710   24.8610 C   0  0  0  0  0  0  0  0  0  0  0  0
   10.5730   -0.6150   23.5640 C   0  0  0  0  0  0  0  0  0  0  0  0
    2.9910    2.2520   23.3880 C   0  0  0  0  0  0  0  0  0  0  0  0
    8.5340   -2.6590   25.5520 C   0  0  0  0  0  0  0  0  0  0  0  0
   10.2770    0.6490   24.0500 C   0  0  0  0  0  0  0  0  0  0  0  0
   11.8120   -0.8590   22.9250 C   0  0  0  0  0  0  0  0  0  0  0  0
    2.8530    1.5520   24.3880 O   0  0  0  0  0  0  0  0  0  0  0  0
   12.2440   -2.2250   22.3490 C   0  0  0  0  0  0  0  0  0  0  0  0
    7.5680   -1.8990   25.4850 O   0  0  0  0  0  0  0  0  0  0  0  0
   11.1890    1.7390   23.9240 C   0  0  0  0  0  0  0  0  0  0  0  0
   12.7270    0.1840   22.7910 C   0  0  0  0  0  0  0  0  0  0  0  0
    8.5580   -3.9130   26.3100 C   0  0  0  0  0  0  0  0  0  0  0  0
   12.3950    1.4420   23.2860 C   0  0  0  0  0  0  0  0  0  0  0  0
    9.4050   -4.8180   25.8570 C   0  0  0  0  0  0  0  0  0  0  0  0
    7.6470   -4.3560   27.7010 S   0  0  0  0  0  0  0  0  0  0  0  0
    9.3610   -6.0510   26.6900 C   0  0  0  0  0  0  0  0  0  0  0  0
    8.3650   -5.9110   27.8140 C   0  0  0  0  0  0  0  0  0  0  0  0
  1  2  1  0
  1  3  2  0
  1  4  1  0
  4  5  1  0
  4  6  1  0
  6  7  1  1
  5  8  1  0
  6  9  1  0
  7 10  1  0
  8 11  1  0
  9 11  1  0
 10 12  1  0
 11 13  1  0
 12 14  1  0
 13 15  1  1
 13 16  1  0
 14 17  1  0
 15 18  1  0
 16 19  2  0
 16 20  1  0
 17 21  2  0
 20 22  1  0
 18 23  2  0
 19 24  1  0
 20 25  2  0
 18 26  1  0
 24 27  2  0
 25 27  1  0
 26 28  2  0
 26 29  1  0
 28 30  1  0
 29 31  1  0
 30 31  2  0
M  END
