x0831_1-x0692_0-x0770_1
     RDKit          3D

 18 19  0  0  0  0  0  0  0  0999 V2000
    6.0860   -3.4760   20.0030 C   0  0  0  0  0  0  0  0  0  0  0  0
    7.0860   -3.0440   18.9130 C   0  0  0  0  0  0  0  0  0  0  0  0
    5.2710   -4.3690   19.7920 O   0  0  0  0  0  0  0  0  0  0  0  0
    6.1210   -2.8700   21.2370 N   0  0  0  0  0  0  0  0  0  0  0  0
    6.1390   -1.4090   21.3860 C   0  0  0  0  0  0  0  0  0  0  0  0
    6.8300   -3.6480   22.2820 C   0  0  0  0  0  0  0  0  0  0  0  0
    7.5800   -0.8800   21.3080 C   0  0  0  0  0  0  0  0  0  0  0  0
    7.2140   -2.8730   23.3710 C   0  0  0  0  0  0  0  0  0  0  0  0
    8.3670   -1.9920   23.1440 N   0  0  0  0  0  0  0  0  0  0  0  0
    8.7270   -1.5720   21.8030 C   0  0  0  0  0  0  0  0  0  0  0  0
    9.4270   -2.1260   24.0910 C   0  0  0  0  0  0  0  0  0  0  0  0
   10.5310   -1.2650   23.7720 C   0  0  0  0  0  0  0  0  0  0  0  0
   10.5010    0.1100   23.8000 C   0  0  0  0  0  0  0  0  0  0  0  0
   11.8770   -1.8350   23.3410 C   0  0  0  0  0  0  0  0  0  0  0  0
   11.5390    1.0180   23.4800 C   0  0  0  0  0  0  0  0  0  0  0  0
   13.0100   -0.8740   22.9980 C   0  0  0  0  0  0  0  0  0  0  0  0
   11.2940    2.4880   23.5530 C   0  0  0  0  0  0  0  0  0  0  0  0
   12.7600    0.4960   23.0930 C   0  0  0  0  0  0  0  0  0  0  0  0
  1  2  1  0
  1  3  2  0
  1  4  1  0
  4  5  1  0
  4  6  1  0
  5  7  1  0
  6  8  1  0
  8  9  1  0
  7 10  1  0
  9 10  1  0
  9 11  1  0
 11 12  1  0
 12 13  2  0
 12 14  1  0
 13 15  1  0
 14 16  2  0
 15 17  1  0
 15 18  2  0
 16 18  1  0
M  END
