x0831_0-x0426_1-x0820_1-x1334_1
     RDKit          3D

 41 47  0  0  0  0  0  0  0  0999 V2000
    6.5330   -3.1970   19.6980 C   0  0  0  0  0  0  0  0  0  0  0  0
    7.1360   -2.5360   18.4720 C   0  0  0  0  0  0  0  0  0  0  0  0
    5.7910   -4.1670   19.5620 O   0  0  0  0  0  0  0  0  0  0  0  0
    6.8670   -2.7290   20.9200 N   0  0  0  0  0  0  0  0  0  0  0  0
    7.5420   -2.5260   22.4730 C   0  0  0  0  0  0  0  0  0  0  0  0
    7.7100   -1.5650   21.2060 C   0  0  2  0  0  0  0  0  0  0  0  0
    8.4690   -2.6360   23.2960 C   0  0  1  0  0  0  0  0  0  0  0  0
    8.8930   -1.9680   22.0610 C   0  0  0  0  0  0  0  0  0  0  0  0
    6.4300   -3.3760   22.1540 C   0  0  0  0  0  0  0  0  0  0  0  0
    6.8660   -1.0350   21.7370 C   0  0  0  0  0  0  0  0  0  0  0  0
    9.9690   -2.2590   23.6840 C   0  0  0  0  0  0  0  0  0  0  0  0
    7.6400   -3.7960   22.9530 C   0  0  0  0  0  0  0  0  0  0  0  0
    6.0230   -0.5040   22.2680 C   0  0  1  0  0  0  0  0  0  0  0  0
    7.0350   -3.5860   22.5530 C   0  0  0  0  0  0  0  0  0  0  0  0
    6.4390   -4.2050   23.9830 C   0  0  0  0  0  0  0  0  0  0  0  0
   10.8280   -1.0220   23.8020 C   0  0  0  0  0  0  0  0  0  0  0  0
    5.2000    0.5830   22.3530 C   0  0  0  0  0  0  0  0  0  0  0  0
    5.8900    0.2020   20.1980 C   0  0  0  0  0  0  0  0  0  0  0  0
    6.8860   -4.2170   25.3580 C   0  0  0  0  0  0  0  0  0  0  0  0
    5.0990   -4.3650   23.7200 C   0  0  0  0  0  0  0  0  0  0  0  0
   10.3810    0.0410   24.5840 C   0  0  0  0  0  0  0  0  0  0  0  0
   12.0340   -0.8780   23.0930 C   0  0  0  0  0  0  0  0  0  0  0  0
    4.3770    1.6700   22.4380 C   0  0  2  0  0  0  0  0  0  0  0  0
    4.8790    1.1270   19.9350 C   0  0  0  0  0  0  0  0  0  0  0  0
    6.7350   -0.1650   19.1490 C   0  0  0  0  0  0  0  0  0  0  0  0
   12.5900   -1.9690   22.2140 C   0  0  0  0  0  0  0  0  0  0  0  0
    5.9160   -4.3990   26.3890 C   0  0  0  0  0  0  0  0  0  0  0  0
    4.1540   -4.5400   24.7490 C   0  0  0  0  0  0  0  0  0  0  0  0
    8.2410   -4.0590   25.7640 C   0  0  0  0  0  0  0  0  0  0  0  0
   11.1140    1.2040   24.7010 C   0  0  0  0  0  0  0  0  0  0  0  0
   12.7560    0.2960   23.2310 C   0  0  0  0  0  0  0  0  0  0  0  0
    3.3700    2.4260   23.1840 N   0  0  0  0  0  0  0  0  0  0  0  0
    3.8800    1.6020   20.9930 C   0  0  0  0  0  0  0  0  0  0  0  0
    4.7650    1.6300   18.6610 C   0  0  0  0  0  0  0  0  0  0  0  0
    6.5960    0.3390   17.9310 N   0  0  0  0  0  0  0  0  0  0  0  0
    4.5530   -4.5590   26.0430 C   0  0  0  0  0  0  0  0  0  0  0  0
    8.6000   -4.0860   27.0800 C   0  0  0  0  0  0  0  0  0  0  0  0
    6.3270   -4.4200   27.7430 C   0  0  0  0  0  0  0  0  0  0  0  0
   12.3050    1.3300   24.0260 C   0  0  0  0  0  0  0  0  0  0  0  0
    5.6440    1.2070   17.6790 C   0  0  0  0  0  0  0  0  0  0  0  0
    7.6330   -4.2720   28.0760 C   0  0  0  0  0  0  0  0  0  0  0  0
  1  2  1  0
  1  3  2  0
  1  4  1  0
  4  5  1  0
  4  6  1  0
  5  7  1  0
  6  8  1  0
  7  8  1  0
  5  9  2  0
  6 10  1  1
  7 11  1  1
  7 12  1  0
 13 10  1  1
  9 14  1  0
 12 14  2  0
 12 15  1  0
 11 16  1  0
 13 17  1  0
 13 18  1  0
 15 19  1  0
 15 20  2  0
 16 21  2  0
 16 22  1  0
 17 23  1  0
 18 24  2  0
 18 25  1  0
 22 26  1  0
 19 27  2  0
 20 28  1  0
 19 29  1  0
 21 30  1  0
 22 31  2  0
 23 32  1  1
 23 33  1  0
 24 33  1  0
 24 34  1  0
 25 35  2  0
 27 36  1  0
 28 36  2  0
 29 37  2  0
 27 38  1  0
 30 39  2  0
 31 39  1  0
 34 40  2  0
 35 40  1  0
 37 41  1  0
 38 41  2  0
M  END
