x0831_0-x1418_1-x1386_1-x1375_1
     RDKit          3D

 25 27  0  0  0  0  0  0  0  0999 V2000
    6.3260   -3.1830   19.7800 C   0  0  0  0  0  0  0  0  0  0  0  0
    7.3590   -2.9540   18.6900 C   0  0  0  0  0  0  0  0  0  0  0  0
    5.4410   -4.0480   19.6840 O   0  0  0  0  0  0  0  0  0  0  0  0
    6.4310   -2.3890   20.9210 N   0  0  0  0  0  0  0  0  0  0  0  0
    6.2680   -3.1120   22.1570 C   0  0  0  0  0  0  0  0  0  0  0  0
    7.3220   -1.2220   21.0310 C   0  0  0  0  0  0  0  0  0  0  0  0
    7.6290   -3.6330   22.6310 C   0  0  2  0  0  0  0  0  0  0  0  0
    8.5530   -1.5310   21.6160 C   0  0  0  0  0  0  0  0  0  0  0  0
    7.6020   -4.5870   23.6590 C   0  0  0  0  0  0  0  0  0  0  0  0
    8.4910   -2.3840   22.8310 N   0  0  0  0  0  0  0  0  0  0  0  0
    9.7750   -2.5670   23.5470 C   0  0  0  0  0  0  0  0  0  0  0  0
    6.1610   -5.1610   23.9870 C   0  0  1  0  0  0  0  0  0  0  0  0
   10.6430   -1.2690   23.5200 C   0  0  0  0  0  0  0  0  0  0  0  0
    5.0610   -4.4420   24.4310 C   0  0  0  0  0  0  0  0  0  0  0  0
    5.6290   -6.0980   23.0570 C   0  0  0  0  0  0  0  0  0  0  0  0
   10.1050   -0.1740   24.1430 C   0  0  0  0  0  0  0  0  0  0  0  0
   11.9420   -1.0970   22.8950 C   0  0  0  0  0  0  0  0  0  0  0  0
    3.8220   -5.0310   24.4820 C   0  0  0  0  0  0  0  0  0  0  0  0
    4.1490   -6.5850   23.8750 S   0  0  0  0  0  0  0  0  0  0  0  0
   12.6730   -2.1690   22.1650 C   0  0  0  0  0  0  0  0  0  0  0  0
    3.1950   -7.0130   22.8850 O   0  0  0  0  0  0  0  0  0  0  0  0
    4.4710   -7.5680   24.8830 O   0  0  0  0  0  0  0  0  0  0  0  0
   10.7160    1.2530   24.2590 C   0  0  0  0  0  0  0  0  0  0  0  0
   12.6070    0.2830   22.9810 C   0  0  0  0  0  0  0  0  0  0  0  0
   11.9750    1.3700   23.6400 C   0  0  0  0  0  0  0  0  0  0  0  0
  1  2  1  0
  1  3  2  0
  1  4  1  0
  4  5  1  0
  4  6  1  0
  5  7  1  0
  6  8  1  0
  7  9  1  1
  7 10  1  0
  8 10  1  0
 10 11  1  0
 12  9  1  6
 11 13  1  0
 12 14  1  0
 12 15  1  0
 13 16  2  0
 13 17  1  0
 14 18  2  0
 15 19  1  0
 18 19  1  0
 17 20  1  0
 19 21  1  0
 19 22  1  0
 16 23  1  0
 17 24  2  0
 23 25  2  0
 24 25  1  0
M  END
