x0831_0-x0771_0-x0434_2
     RDKit          3D

 28 30  0  0  0  0  0  0  0  0999 V2000
    6.4160   -4.2080   20.6390 C   0  0  0  0  0  0  0  0  0  0  0  0
    7.7760   -3.5820   20.3740 C   0  0  0  0  0  0  0  0  0  0  0  0
    5.5090   -4.2300   19.7990 O   0  0  0  0  0  0  0  0  0  0  0  0
    6.2730   -4.7380   21.9180 N   0  0  0  0  0  0  0  0  0  0  0  0
    5.9200   -6.1540   22.0090 C   0  0  0  0  0  0  0  0  0  0  0  0
    7.1390   -4.3030   23.0270 C   0  0  1  0  0  0  0  0  0  0  0  0
    7.1450   -2.7640   23.1300 C   0  0  0  0  0  0  0  0  0  0  0  0
    4.9830   -6.3680   23.2120 C   0  0  0  0  0  0  0  0  0  0  0  0
    6.6810   -4.9760   24.3330 C   0  0  0  0  0  0  0  0  0  0  0  0
    8.4010   -1.8570   23.0960 C   0  0  1  0  0  0  0  0  0  0  0  0
    5.2660   -5.4200   24.3030 N   0  0  0  0  0  0  0  0  0  0  0  0
    9.7740   -2.2600   23.6480 C   0  0  0  0  0  0  0  0  0  0  0  0
    8.9810   -1.4930   21.7520 C   0  0  0  0  0  0  0  0  0  0  0  0
    8.2430   -0.7150   20.8980 C   0  0  0  0  0  0  0  0  0  0  0  0
   10.7020   -1.0640   23.5780 C   0  0  0  0  0  0  0  0  0  0  0  0
    6.7980   -0.6880   21.0690 N   0  0  0  0  0  0  0  0  0  0  0  0
   10.2360    0.1060   24.1720 C   0  0  0  0  0  0  0  0  0  0  0  0
   11.9800   -1.0440   22.9430 C   0  0  0  0  0  0  0  0  0  0  0  0
   12.5900   -2.2270   22.2600 C   0  0  0  0  0  0  0  0  0  0  0  0
   10.9460    1.2940   24.1670 C   0  0  0  0  0  0  0  0  0  0  0  0
   12.8000    0.2420   22.9200 C   0  0  0  0  0  0  0  0  0  0  0  0
    6.1800    0.0400   20.0740 C   0  0  0  0  0  0  0  0  0  0  0  0
   12.3080    1.3840   23.5050 C   0  0  0  0  0  0  0  0  0  0  0  0
    6.7740    0.0620   18.8170 C   0  0  0  0  0  0  0  0  0  0  0  0
    4.9970    0.7730   20.2230 C   0  0  0  0  0  0  0  0  0  0  0  0
    6.3690    0.7020   17.7120 N   0  0  0  0  0  0  0  0  0  0  0  0
    4.4730    1.4870   19.1330 C   0  0  0  0  0  0  0  0  0  0  0  0
    5.1390    1.4540   17.9210 C   0  0  0  0  0  0  0  0  0  0  0  0
  1  2  1  0
  1  3  2  0
  1  4  1  0
  4  5  1  0
  4  6  1  0
  6  7  1  1
  5  8  1  0
  6  9  1  0
 10  7  1  6
  8 11  1  0
  9 11  1  0
 10 12  1  0
 10 13  1  0
 13 14  1  0
 12 15  1  0
 14 16  1  0
 15 17  2  0
 15 18  1  0
 18 19  1  0
 17 20  1  0
 18 21  2  0
 16 22  1  0
 20 23  2  0
 21 23  1  0
 22 24  2  0
 22 25  1  0
 24 26  1  0
 25 27  2  0
 26 28  2  0
 27 28  1  0
M  END
