x0831_0-x1386_1-x0397_0-x0770_1-x0831_1-x0426_1-x1385_1-x1334_1-x0692_1-x1412_1-x1374_1-x1334_0-x1418_1
     RDKit          3D

 45 50  0  0  0  0  0  0  0  0999 V2000
    2.5880   -7.6260   23.3630 O   0  0  0  0  0  0  0  0  0  0  0  0
    3.1240   -7.2090   24.6010 C   0  0  0  0  0  0  0  0  0  0  0  0
    4.3630   -7.8430   24.8610 O   0  0  0  0  0  0  0  0  0  0  0  0
    5.3480   -7.4180   23.9260 C   0  0  0  0  0  0  0  0  0  0  0  0
    6.0600   -6.3700   24.4830 C   0  0  0  0  0  0  0  0  0  0  0  0
    6.3250   -5.4880   23.3110 C   0  0  2  0  0  0  0  0  0  0  0  0
    5.3010   -5.0620   22.7000 C   0  0  2  0  0  0  0  0  0  0  0  0
    6.4840   -6.0550   22.1040 C   0  0  0  0  0  0  0  0  0  0  0  0
    5.3380   -3.7020   22.6180 C   0  0  0  0  0  0  0  0  0  0  0  0
    6.6940   -3.2970   22.1560 C   0  0  1  0  0  0  0  0  0  0  0  0
    6.6410   -2.5250   20.9500 N   0  0  0  0  0  0  0  0  0  0  0  0
    7.4930   -2.6400   23.3320 C   0  0  0  0  0  0  0  0  0  0  0  0
    6.4280   -3.1090   19.7290 C   0  0  0  0  0  0  0  0  0  0  0  0
    8.5600   -1.6960   22.9570 N   0  0  0  0  0  0  0  0  0  0  0  0
    7.1780   -1.1830   21.0750 C   0  0  2  0  0  0  0  0  0  0  0  0
    7.4570   -2.9450   18.6450 C   0  0  0  0  0  0  0  0  0  0  0  0
    5.4240   -3.8120   19.5340 O   0  0  0  0  0  0  0  0  0  0  0  0
    9.8740   -2.1250   23.1230 C   0  0  2  0  0  0  0  0  0  0  0  0
    8.5910   -1.3450   21.5440 C   0  0  0  0  0  0  0  0  0  0  0  0
    6.2920   -0.3370   21.9730 C   0  0  0  0  0  0  0  0  0  0  0  0
   10.0830   -3.5260   23.6660 C   0  0  0  0  0  0  0  0  0  0  0  0
   10.8070   -0.9150   23.2670 C   0  0  0  0  0  0  0  0  0  0  0  0
    4.8650   -0.3850   21.4410 C   0  0  1  0  0  0  0  0  0  0  0  0
   10.2910    0.1770   23.9620 C   0  0  0  0  0  0  0  0  0  0  0  0
   12.1030   -0.8590   22.7060 C   0  0  0  0  0  0  0  0  0  0  0  0
    9.5060   -4.1390   24.8900 C   0  0  0  0  0  0  0  0  0  0  0  0
    3.9160    0.3460   22.3930 C   0  0  0  0  0  0  0  0  0  0  0  0
    5.0420    0.2950   20.0970 C   0  0  0  0  0  0  0  0  0  0  0  0
   12.7450   -1.9680   21.9360 C   0  0  0  0  0  0  0  0  0  0  0  0
   11.0030    1.3340   24.1060 C   0  0  0  0  0  0  0  0  0  0  0  0
   12.9450    0.3850   22.8360 C   0  0  0  0  0  0  0  0  0  0  0  0
    9.9330   -5.2850   25.4140 C   0  0  0  0  0  0  0  0  0  0  0  0
    8.1100   -3.5680   26.0070 S   0  0  0  0  0  0  0  0  0  0  0  0
    4.0600    1.8230   22.1770 C   0  0  2  0  0  0  0  0  0  0  0  0
    4.3350    1.4560   19.8130 C   0  0  0  0  0  0  0  0  0  0  0  0
    5.9100   -0.2280   19.1510 C   0  0  0  0  0  0  0  0  0  0  0  0
   12.4200    1.4730   23.5070 C   0  0  0  0  0  0  0  0  0  0  0  0
    9.3550   -5.8620   26.6390 C   0  0  0  0  0  0  0  0  0  0  0  0
    8.2180   -4.9890   27.1740 C   0  0  0  0  0  0  0  0  0  0  0  0
    3.6030    2.4340   23.2940 N   0  0  0  0  0  0  0  0  0  0  0  0
    3.3910    2.0420   20.8380 C   0  0  0  0  0  0  0  0  0  0  0  0
    4.4880    2.0910   18.5930 C   0  0  0  0  0  0  0  0  0  0  0  0
    6.1930    0.3230   17.8070 N   0  0  0  0  0  0  0  0  0  0  0  0
    7.2160   -5.2040   28.5420 Cl  0  0  0  0  0  0  0  0  0  0  0  0
    5.4540    1.4740   17.5900 C   0  0  0  0  0  0  0  0  0  0  0  0
  1  2  1  0
  2  3  1  0
  3  4  1  0
  4  5  1  0
  6  5  1  1
  6  7  1  0
  6  8  1  0
  7  8  1  0
  7  9  1  6
 10  9  1  1
 10 11  1  0
 10 12  1  0
 11 13  1  0
 12 14  1  0
 11 15  1  0
 13 16  1  0
 13 17  2  0
 14 18  1  0
 14 19  1  0
 15 19  1  0
 15 20  1  1
 18 21  1  1
 18 22  1  0
 23 20  1  1
 22 24  2  0
 22 25  1  0
 21 26  1  0
 23 27  1  0
 23 28  1  0
 25 29  1  0
 24 30  1  0
 25 31  2  0
 26 32  2  0
 26 33  1  0
 27 34  1  0
 28 35  2  0
 28 36  1  0
 30 37  2  0
 31 37  1  0
 32 38  1  0
 33 39  1  0
 38 39  2  0
 34 40  1  1
 34 41  1  0
 35 41  1  0
 35 42  1  0
 36 43  2  0
 39 44  1  0
 42 45  2  0
 43 45  1  0
M  END
