x0831_0-x0692_1-x1375_1
     RDKit          3D

 25 27  0  0  0  0  0  0  0  0999 V2000
    6.2930   -3.1870   19.8020 C   0  0  0  0  0  0  0  0  0  0  0  0
    7.2870   -2.9580   18.6830 C   0  0  0  0  0  0  0  0  0  0  0  0
    5.3610   -3.9910   19.6690 O   0  0  0  0  0  0  0  0  0  0  0  0
    6.5410   -2.4390   20.9760 N   0  0  0  0  0  0  0  0  0  0  0  0
    7.3410   -1.2190   20.9790 C   0  0  0  0  0  0  0  0  0  0  0  0
    6.4860   -3.1080   22.2740 C   0  0  1  0  0  0  0  0  0  0  0  0
    6.0360   -4.5520   22.0800 C   0  0  0  0  0  0  0  0  0  0  0  0
    8.7580   -1.5080   21.5980 C   0  0  0  0  0  0  0  0  0  0  0  0
    7.7460   -3.1320   23.1020 C   0  0  0  0  0  0  0  0  0  0  0  0
    8.6630   -1.9770   22.9890 N   0  0  0  0  0  0  0  0  0  0  0  0
    4.8230   -4.9620   22.8880 C   0  0  2  0  0  0  0  0  0  0  0  0
    9.9250   -2.2040   23.5650 C   0  0  0  0  0  0  0  0  0  0  0  0
    4.7500   -4.4790   24.1360 C   0  0  0  0  0  0  0  0  0  0  0  0
    4.6260   -6.4880   22.9110 C   0  0  0  0  0  0  0  0  0  0  0  0
   10.8080   -0.9440   23.5210 C   0  0  0  0  0  0  0  0  0  0  0  0
    4.1720   -5.2420   25.1520 C   0  0  0  0  0  0  0  0  0  0  0  0
    3.7150   -6.6920   24.3920 S   0  0  0  0  0  0  0  0  0  0  0  0
    2.1750   -6.7780   23.9980 O   0  0  0  0  0  0  0  0  0  0  0  0
    4.2000   -7.9830   25.1430 O   0  0  0  0  0  0  0  0  0  0  0  0
   10.2540    0.1760   24.1130 C   0  0  0  0  0  0  0  0  0  0  0  0
   12.0620   -0.9420   22.9170 C   0  0  0  0  0  0  0  0  0  0  0  0
   12.6490   -2.1590   22.2720 C   0  0  0  0  0  0  0  0  0  0  0  0
   10.8830    1.3960   24.1550 C   0  0  0  0  0  0  0  0  0  0  0  0
   12.8400    0.2390   22.8880 C   0  0  0  0  0  0  0  0  0  0  0  0
   12.1310    1.3800   23.5490 C   0  0  0  0  0  0  0  0  0  0  0  0
  1  2  1  0
  1  3  2  0
  1  4  1  0
  4  5  1  0
  4  6  1  0
  6  7  1  6
  5  8  1  0
  6  9  1  0
  8 10  1  0
  9 10  1  0
 11  7  1  1
 10 12  1  0
 11 13  1  0
 11 14  1  0
 12 15  1  0
 13 16  2  0
 14 17  1  0
 16 17  1  0
 17 18  1  0
 17 19  1  0
 15 20  2  0
 15 21  1  0
 21 22  1  0
 20 23  1  0
 21 24  2  0
 23 25  2  0
 24 25  1  0
M  END
