x0831_1-x0195_0
     RDKit          3D

 26 28  0  0  0  0  0  0  0  0999 V2000
    9.5560   -0.3590   24.8020 C   0  0  0  0  0  0  0  0  0  0  0  0
    8.2940   -0.7600   24.0450 C   0  0  0  0  0  0  0  0  0  0  0  0
    8.4430   -1.9490   23.1820 N   0  0  0  0  0  0  0  0  0  0  0  0
   10.5130   -0.2970   23.9790 N   0  0  0  0  0  0  0  0  0  0  0  0
   11.0870    0.9780   23.6450 C   0  0  0  0  0  0  0  0  0  0  0  0
   11.4420   -1.4470   23.8610 C   0  0  0  0  0  0  0  0  0  0  0  0
   12.4770    0.9680   23.1600 C   0  0  0  0  0  0  0  0  0  0  0  0
   12.2230   -1.3300   22.7110 C   0  0  0  0  0  0  0  0  0  0  0  0
   10.4130    2.3560   23.7430 C   0  0  0  0  0  0  0  0  0  0  0  0
    8.6430   -1.6770   21.8620 C   0  0  0  0  0  0  0  0  0  0  0  0
    7.3750   -2.9200   23.4600 C   0  0  0  0  0  0  0  0  0  0  0  0
   13.1980   -0.3860   23.0370 C   0  0  0  0  0  0  0  0  0  0  0  0
   13.0800    2.1370   22.8420 C   0  0  0  0  0  0  0  0  0  0  0  0
   11.1330    3.4610   23.3810 C   0  0  0  0  0  0  0  0  0  0  0  0
    7.6080   -0.9130   21.2820 C   0  0  0  0  0  0  0  0  0  0  0  0
    6.9030   -3.6610   22.3760 C   0  0  0  0  0  0  0  0  0  0  0  0
   10.3080    4.9630   23.5210 S   0  0  0  0  0  0  0  0  0  0  0  0
   12.4680    3.3320   22.9290 C   0  0  0  0  0  0  0  0  0  0  0  0
    6.3100   -1.4290   21.4410 C   0  0  0  0  0  0  0  0  0  0  0  0
    6.3710   -2.8810   21.2570 N   0  0  0  0  0  0  0  0  0  0  0  0
   10.4470    5.5010   24.8470 O   0  0  0  0  0  0  0  0  0  0  0  0
    9.0040    4.8250   22.9280 O   0  0  0  0  0  0  0  0  0  0  0  0
   11.1340    5.8680   22.5960 N   0  0  0  0  0  0  0  0  0  0  0  0
    6.1970   -3.4160   19.9780 C   0  0  0  0  0  0  0  0  0  0  0  0
    5.2960   -4.2150   19.7540 O   0  0  0  0  0  0  0  0  0  0  0  0
    7.1910   -3.0130   18.8970 C   0  0  0  0  0  0  0  0  0  0  0  0
  1  2  1  0
  2  3  1  0
  1  4  1  0
  4  5  1  0
  4  6  1  0
  5  7  2  0
  6  8  1  0
  5  9  1  0
  3 10  1  0
  3 11  1  0
  7 12  1  0
  8 12  1  0
  7 13  1  0
  9 14  2  0
 10 15  1  0
 11 16  1  0
 14 17  1  0
 13 18  2  0
 14 18  1  0
 15 19  1  0
 16 20  1  0
 19 20  1  0
 17 21  2  0
 17 22  2  0
 17 23  1  0
 20 24  1  0
 24 25  2  0
 24 26  1  0
M  END
