x0831_0-x0771_0-x1336_1
     RDKit          3D

 30 32  0  0  0  0  0  0  0  0999 V2000
    7.1350   -1.9730   25.1310 S   0  0  0  0  0  0  0  0  0  0  0  0
    6.3610   -2.7530   23.7670 C   0  0  0  0  0  0  0  0  0  0  0  0
    6.4750   -4.2720   23.7120 C   0  0  1  0  0  0  0  0  0  0  0  0
    8.2530   -1.2430   24.6110 O   0  0  0  0  0  0  0  0  0  0  0  0
    6.0920   -1.3140   25.8800 O   0  0  0  0  0  0  0  0  0  0  0  0
    7.7380   -3.3330   26.1270 C   0  0  0  0  0  0  0  0  0  0  0  0
    6.7550   -3.8610   27.1690 C   0  0  0  0  0  0  0  0  0  0  0  0
    9.1200   -4.0130   26.0430 C   0  0  0  0  0  0  0  0  0  0  0  0
   10.2670   -3.6480   25.1050 C   0  0  0  0  0  0  0  0  0  0  0  0
    7.0220   -4.9040   28.0310 C   0  0  0  0  0  0  0  0  0  0  0  0
    9.3740   -5.1430   26.9850 C   0  0  0  0  0  0  0  0  0  0  0  0
    5.1080   -4.8260   23.4990 N   0  0  0  0  0  0  0  0  0  0  0  0
    7.3710   -4.6520   22.7010 C   0  0  0  0  0  0  0  0  0  0  0  0
    5.9940   -5.3510   29.0270 C   0  0  0  0  0  0  0  0  0  0  0  0
   10.0940   -3.4130   23.6060 C   0  0  0  0  0  0  0  0  0  0  0  0
    8.2830   -5.5850   27.9960 C   0  0  0  0  0  0  0  0  0  0  0  0
    5.0900   -6.2170   23.0220 C   0  0  0  0  0  0  0  0  0  0  0  0
    6.5840   -5.1480   21.5760 N   0  0  0  0  0  0  0  0  0  0  0  0
    6.3550   -4.3330   20.4520 C   0  0  0  0  0  0  0  0  0  0  0  0
    9.6530   -2.0250   23.1650 C   0  0  0  0  0  0  0  0  0  0  0  0
    5.8350   -6.3550   21.8790 C   0  0  0  0  0  0  0  0  0  0  0  0
    5.2870   -4.3860   19.8580 O   0  0  0  0  0  0  0  0  0  0  0  0
    7.4780   -3.4180   19.9690 C   0  0  0  0  0  0  0  0  0  0  0  0
   10.6480   -0.8810   23.2710 C   0  0  0  0  0  0  0  0  0  0  0  0
   10.1630    0.3170   23.8920 C   0  0  0  0  0  0  0  0  0  0  0  0
   11.9750   -0.9320   22.7900 C   0  0  0  0  0  0  0  0  0  0  0  0
   12.5570   -2.1360   22.1250 C   0  0  0  0  0  0  0  0  0  0  0  0
   11.0190    1.3850   23.9870 C   0  0  0  0  0  0  0  0  0  0  0  0
   12.7910    0.1850   22.9220 C   0  0  0  0  0  0  0  0  0  0  0  0
   12.3110    1.3310   23.5110 C   0  0  0  0  0  0  0  0  0  0  0  0
  1  2  1  0
  3  2  1  6
  1  4  2  0
  1  5  2  0
  1  6  1  0
  6  7  2  0
  6  8  1  0
  8  9  1  0
  7 10  1  0
  8 11  2  0
  3 12  1  0
  3 13  1  0
 10 14  1  0
  9 15  1  0
 10 16  2  0
 11 16  1  0
 12 17  1  0
 13 18  1  0
 18 19  1  0
 15 20  1  0
 17 21  1  0
 18 21  1  0
 19 22  2  0
 19 23  1  0
 20 24  1  0
 24 25  2  0
 24 26  1  0
 26 27  1  0
 25 28  1  0
 26 29  2  0
 28 30  2  0
 29 30  1  0
M  END
