x0831_0-x1308_0
     RDKit          3D

 19 20  0  0  0  0  0  0  0  0999 V2000
    6.4260   -4.5330   20.4770 C   0  0  0  0  0  0  0  0  0  0  0  0
    7.3290   -3.4670   19.8360 C   0  0  0  0  0  0  0  0  0  0  0  0
    5.3340   -4.7510   19.9710 O   0  0  0  0  0  0  0  0  0  0  0  0
    6.8700   -5.2420   21.5660 N   0  0  0  0  0  0  0  0  0  0  0  0
    7.7210   -4.7340   22.6340 C   0  0  0  0  0  0  0  0  0  0  0  0
    5.9380   -6.2150   22.1210 C   0  0  0  0  0  0  0  0  0  0  0  0
    7.0490   -4.0510   23.6090 C   0  0  2  0  0  0  0  0  0  0  0  0
    5.2660   -5.6950   23.4190 C   0  0  0  0  0  0  0  0  0  0  0  0
    7.9620   -3.4270   24.3420 C   0  0  0  0  0  0  0  0  0  0  0  0
    6.1850   -5.0020   24.3350 N   0  0  0  0  0  0  0  0  0  0  0  0
    8.5090   -2.2790   23.7550 C   0  0  0  0  0  0  0  0  0  0  0  0
   10.0460   -2.4720   23.6140 C   0  0  0  0  0  0  0  0  0  0  0  0
   10.7920   -1.1520   23.5710 C   0  0  0  0  0  0  0  0  0  0  0  0
   10.1510    0.0480   24.2500 C   0  0  0  0  0  0  0  0  0  0  0  0
   12.0370   -0.9940   22.9290 C   0  0  0  0  0  0  0  0  0  0  0  0
   12.6140   -2.1280   22.2960 C   0  0  0  0  0  0  0  0  0  0  0  0
   10.7960    1.2560   24.2130 C   0  0  0  0  0  0  0  0  0  0  0  0
   12.6970    0.3950   22.9430 C   0  0  0  0  0  0  0  0  0  0  0  0
   12.1400    1.5050   23.5390 C   0  0  0  0  0  0  0  0  0  0  0  0
  1  2  1  0
  1  3  2  0
  1  4  1  0
  4  5  1  0
  4  6  1  0
  5  7  1  0
  6  8  1  0
  7  9  1  1
  7 10  1  0
  8 10  1  0
  9 11  1  0
 11 12  1  0
 12 13  1  0
 13 14  2  0
 13 15  1  0
 15 16  1  0
 14 17  1  0
 15 18  2  0
 17 19  2  0
 18 19  1  0
M  END
