x0831_0-x0831_1-x0397_0-x0769_1-x0692_1
     RDKit          3D

 32 35  0  0  0  0  0  0  0  0999 V2000
    6.2130   -3.3510   19.9320 C   0  0  0  0  0  0  0  0  0  0  0  0
    7.2000   -2.9960   18.8260 C   0  0  0  0  0  0  0  0  0  0  0  0
    5.3180   -4.1740   19.7230 O   0  0  0  0  0  0  0  0  0  0  0  0
    6.3540   -2.7640   21.1760 N   0  0  0  0  0  0  0  0  0  0  0  0
    6.1790   -1.3320   21.3980 C   0  0  0  0  0  0  0  0  0  0  0  0
    7.0310   -3.6210   22.1510 C   0  0  1  0  0  0  0  0  0  0  0  0
    7.5140   -0.5760   21.2810 C   0  0  0  0  0  0  0  0  0  0  0  0
    7.5470   -2.9660   23.3120 C   0  0  0  0  0  0  0  0  0  0  0  0
    6.0470   -4.7830   22.3370 C   0  0  2  0  0  0  0  0  0  0  0  0
    8.6440   -1.9930   23.0150 N   0  0  0  0  0  0  0  0  0  0  0  0
    8.6430   -1.4870   21.6660 C   0  0  0  0  0  0  0  0  0  0  0  0
    6.0880   -5.4630   23.4670 C   0  0  2  0  0  0  0  0  0  0  0  0
    6.5720   -6.3560   22.4550 C   0  0  0  0  0  0  0  0  0  0  0  0
    4.8100   -5.8930   24.1230 C   0  0  0  0  0  0  0  0  0  0  0  0
    9.9690   -2.2550   23.5730 C   0  0  0  0  0  0  0  0  0  0  0  0
    4.6250   -5.3450   25.8180 S   0  0  0  0  0  0  0  0  0  0  0  0
   10.7670   -0.9890   23.5650 C   0  0  0  0  0  0  0  0  0  0  0  0
    5.9210   -5.0680   26.3950 O   0  0  0  0  0  0  0  0  0  0  0  0
    3.7550   -6.3180   26.4250 O   0  0  0  0  0  0  0  0  0  0  0  0
    3.7520   -3.8710   25.8730 C   0  0  0  0  0  0  0  0  0  0  0  0
   10.3080    0.1750   24.1450 C   0  0  0  0  0  0  0  0  0  0  0  0
   12.0380   -0.9560   22.9310 C   0  0  0  0  0  0  0  0  0  0  0  0
   12.6350   -2.1600   22.2590 C   0  0  0  0  0  0  0  0  0  0  0  0
    2.3660   -4.0640   25.7240 C   0  0  0  0  0  0  0  0  0  0  0  0
    4.3340   -2.6100   26.0500 C   0  0  0  0  0  0  0  0  0  0  0  0
   11.0230    1.3510   24.1230 C   0  0  0  0  0  0  0  0  0  0  0  0
   12.7830    0.2250   22.9040 C   0  0  0  0  0  0  0  0  0  0  0  0
    5.6510   -2.4160   26.1930 F   0  0  0  0  0  0  0  0  0  0  0  0
    1.5080   -2.9480   25.7530 C   0  0  0  0  0  0  0  0  0  0  0  0
    3.4630   -1.5390   26.0730 C   0  0  0  0  0  0  0  0  0  0  0  0
   12.2450    1.3510   23.5020 C   0  0  0  0  0  0  0  0  0  0  0  0
    2.0950   -1.6810   25.9330 C   0  0  0  0  0  0  0  0  0  0  0  0
  1  2  1  0
  1  3  2  0
  1  4  1  0
  4  5  1  0
  4  6  1  0
  5  7  1  0
  6  8  1  1
  6  9  1  0
  8 10  1  0
  7 11  1  0
 10 11  1  0
  9 12  1  0
  9 13  1  6
 12 13  1  0
 12 14  1  6
 10 15  1  0
 16 14  1  0
 15 17  1  0
 16 18  2  0
 16 19  2  0
 16 20  1  0
 17 21  2  0
 17 22  1  0
 22 23  1  0
 20 24  2  0
 20 25  1  0
 21 26  1  0
 22 27  2  0
 25 28  1  0
 24 29  1  0
 25 30  2  0
 26 31  2  0
 27 31  1  0
 29 32  2  0
 30 32  1  0
M  END
