x0831_0-x1385_1-x0734_0-x0770_1-x0692_0
     RDKit          3D

 30 33  0  0  0  0  0  0  0  0999 V2000
    6.4040   -3.1950   19.7950 C   0  0  0  0  0  0  0  0  0  0  0  0
    7.3790   -3.0010   18.6800 C   0  0  0  0  0  0  0  0  0  0  0  0
    5.4220   -3.9320   19.6340 O   0  0  0  0  0  0  0  0  0  0  0  0
    6.7070   -2.5580   20.9760 N   0  0  0  0  0  0  0  0  0  0  0  0
    6.4400   -3.2080   22.2760 C   0  0  0  0  0  0  0  0  0  0  0  0
    7.6300   -1.4050   21.0820 C   0  0  0  0  0  0  0  0  0  0  0  0
    7.5200   -3.2760   23.1730 C   0  0  2  0  0  0  0  0  0  0  0  0
    8.8090   -1.7260   21.7380 C   0  0  0  0  0  0  0  0  0  0  0  0
    6.8960   -3.2790   24.5720 C   0  0  1  0  0  0  0  0  0  0  0  0
    8.5450   -2.2110   23.0750 N   0  0  0  0  0  0  0  0  0  0  0  0
    5.4550   -3.8410   24.6030 C   0  0  0  0  0  0  0  0  0  0  0  0
    9.6590   -2.0540   24.0430 C   0  0  1  0  0  0  0  0  0  0  0  0
    7.4930   -4.1570   25.6000 C   0  0  0  0  0  0  0  0  0  0  0  0
    5.2160   -4.5970   25.9490 C   0  0  2  0  0  0  0  0  0  0  0  0
   10.4480   -3.1390   24.3240 C   0  0  0  0  0  0  0  0  0  0  0  0
    8.9790   -4.2650   25.8020 C   0  0  0  0  0  0  0  0  0  0  0  0
    6.6330   -4.8690   26.3840 C   0  0  0  0  0  0  0  0  0  0  0  0
   10.6810   -0.8970   23.7290 C   0  0  0  0  0  0  0  0  0  0  0  0
    4.4210   -5.5380   25.9140 O   0  0  0  0  0  0  0  0  0  0  0  0
    4.6100   -3.8010   26.7900 O   0  0  0  0  0  0  0  0  0  0  0  0
    9.5000   -5.0530   26.7800 C   0  0  0  0  0  0  0  0  0  0  0  0
    7.1170   -5.6750   27.3930 C   0  0  0  0  0  0  0  0  0  0  0  0
   10.1520    0.3240   23.9850 C   0  0  0  0  0  0  0  0  0  0  0  0
   12.0180   -1.0050   23.2330 C   0  0  0  0  0  0  0  0  0  0  0  0
   12.7240   -2.2810   22.8950 C   0  0  0  0  0  0  0  0  0  0  0  0
    8.5970   -5.8760   27.7400 C   0  0  0  0  0  0  0  0  0  0  0  0
   10.8930    1.4920   23.7660 C   0  0  0  0  0  0  0  0  0  0  0  0
   12.7660    0.1640   23.0290 C   0  0  0  0  0  0  0  0  0  0  0  0
   10.3360    2.8390   24.0020 C   0  0  0  0  0  0  0  0  0  0  0  0
   12.1830    1.3810   23.3010 C   0  0  0  0  0  0  0  0  0  0  0  0
  1  2  1  0
  1  3  2  0
  1  4  1  0
  4  5  1  0
  4  6  1  0
  7  5  1  6
  6  8  1  0
  7  9  1  0
  7 10  1  0
  8 10  1  0
  9 11  1  6
 10 12  1  0
  9 13  1  0
 11 14  1  0
 12 15  1  6
 13 16  2  0
 13 17  1  0
 14 17  1  0
 12 18  1  0
 14 19  1  6
 14 20  1  0
 16 21  1  0
 17 22  2  0
 18 23  2  0
 18 24  1  0
 24 25  1  0
 21 26  2  0
 22 26  1  0
 23 27  1  0
 24 28  2  0
 27 29  1  0
 27 30  2  0
 28 30  1  0
M  CHG  1  20  -1
M  END
