x0831_0-x1385_1-x1375_1
     RDKit          3D

 25 27  0  0  0  0  0  0  0  0999 V2000
    6.3280   -3.0430   19.7110 C   0  0  0  0  0  0  0  0  0  0  0  0
    7.3750   -2.9370   18.6470 C   0  0  0  0  0  0  0  0  0  0  0  0
    5.3880   -3.8450   19.5650 O   0  0  0  0  0  0  0  0  0  0  0  0
    6.4850   -2.2680   20.8370 N   0  0  0  0  0  0  0  0  0  0  0  0
    6.2690   -2.8800   22.1050 C   0  0  0  0  0  0  0  0  0  0  0  0
    7.4340   -1.1560   20.9290 C   0  0  0  0  0  0  0  0  0  0  0  0
    7.5860   -3.4360   22.6620 C   0  0  2  0  0  0  0  0  0  0  0  0
    8.6440   -1.4160   21.8530 C   0  0  0  0  0  0  0  0  0  0  0  0
    7.1300   -4.4330   23.7130 C   0  0  0  0  0  0  0  0  0  0  0  0
    8.4490   -2.2740   23.0360 N   0  0  0  0  0  0  0  0  0  0  0  0
    9.8500   -2.5340   23.4840 C   0  0  0  0  0  0  0  0  0  0  0  0
    5.5920   -4.6720   23.6710 C   0  0  2  0  0  0  0  0  0  0  0  0
   10.6390   -1.2360   23.5390 C   0  0  0  0  0  0  0  0  0  0  0  0
    4.9840   -4.6250   25.0260 C   0  0  0  0  0  0  0  0  0  0  0  0
    5.1710   -6.0390   23.0300 C   0  0  0  0  0  0  0  0  0  0  0  0
   10.1210   -0.0900   24.2220 C   0  0  0  0  0  0  0  0  0  0  0  0
   11.9070   -1.0870   22.9100 C   0  0  0  0  0  0  0  0  0  0  0  0
    4.0730   -5.6320   25.4080 C   0  0  0  0  0  0  0  0  0  0  0  0
    3.9160   -6.6760   24.1250 S   0  0  0  0  0  0  0  0  0  0  0  0
   12.5690   -2.1930   22.1540 C   0  0  0  0  0  0  0  0  0  0  0  0
    2.6320   -6.5250   23.4850 O   0  0  0  0  0  0  0  0  0  0  0  0
    4.3620   -7.9990   24.4370 O   0  0  0  0  0  0  0  0  0  0  0  0
   10.8510    1.1150   24.2440 C   0  0  0  0  0  0  0  0  0  0  0  0
   12.6140    0.1140   22.9530 C   0  0  0  0  0  0  0  0  0  0  0  0
   12.0950    1.2300   23.6160 C   0  0  0  0  0  0  0  0  0  0  0  0
  1  2  1  0
  1  3  2  0
  1  4  1  0
  4  5  1  0
  4  6  1  0
  5  7  1  0
  6  8  1  0
  7  9  1  1
  7 10  1  0
  8 10  1  0
 10 11  1  0
 12  9  1  1
 11 13  1  0
 12 14  1  0
 12 15  1  0
 13 16  2  0
 13 17  1  0
 14 18  2  0
 15 19  1  0
 18 19  1  0
 17 20  1  0
 19 21  1  0
 19 22  1  0
 16 23  1  0
 17 24  2  0
 23 25  2  0
 24 25  1  0
M  END
