x0831_0-x1334_1-x1334_0-x0397_0-x1385_1-x0434_2-x0770_1-x0831_1-x1374_1-x0692_1-x1412_1-x1386_1
     RDKit          3D

 39 43  0  0  0  0  0  0  0  0999 V2000
    2.1890   -6.5990   24.2320 O   0  0  0  0  0  0  0  0  0  0  0  0
    3.0470   -7.5440   23.6330 C   0  0  0  0  0  0  0  0  0  0  0  0
    4.1340   -7.7980   24.5140 O   0  0  0  0  0  0  0  0  0  0  0  0
    5.3570   -7.3940   23.8920 C   0  0  0  0  0  0  0  0  0  0  0  0
    5.7950   -6.2540   24.4930 C   0  0  0  0  0  0  0  0  0  0  0  0
    6.4010   -5.4660   23.3880 C   0  0  2  0  0  0  0  0  0  0  0  0
    5.6620   -4.5830   22.5610 C   0  0  2  0  0  0  0  0  0  0  0  0
    6.2710   -5.8670   21.8550 C   0  0  0  0  0  0  0  0  0  0  0  0
    6.1710   -3.1800   22.5220 C   0  0  2  0  0  0  0  0  0  0  0  0
    6.4910   -2.6820   21.2080 N   0  0  0  0  0  0  0  0  0  0  0  0
    7.3970   -3.0430   23.4660 C   0  0  0  0  0  0  0  0  0  0  0  0
    6.2840   -3.3230   19.9610 C   0  0  0  0  0  0  0  0  0  0  0  0
    8.3510   -1.9090   23.2830 N   0  0  0  0  0  0  0  0  0  0  0  0
    7.2520   -1.4250   21.3080 C   0  0  2  0  0  0  0  0  0  0  0  0
    7.2580   -2.9820   18.8310 C   0  0  0  0  0  0  0  0  0  0  0  0
    5.3850   -4.1540   19.7730 O   0  0  0  0  0  0  0  0  0  0  0  0
    9.4900   -1.9920   23.9820 C   0  0  1  0  0  0  0  0  0  0  0  0
    7.4120   -0.9190   20.0210 N   0  0  0  0  0  0  0  0  0  0  0  0
    8.6050   -1.6540   21.9060 C   0  0  0  0  0  0  0  0  0  0  0  0
    9.9690   -3.3700   23.7630 C   0  0  0  0  0  0  0  0  0  0  0  0
   10.5290   -0.8980   23.6660 C   0  0  0  0  0  0  0  0  0  0  0  0
    6.4830   -0.0940   19.5170 C   0  0  0  0  0  0  0  0  0  0  0  0
   10.2320    0.3550   24.2650 C   0  0  0  0  0  0  0  0  0  0  0  0
   11.7270   -0.9680   22.8720 C   0  0  0  0  0  0  0  0  0  0  0  0
    9.4530   -4.1620   24.9660 C   0  0  0  0  0  0  0  0  0  0  0  0
    6.8930    0.3630   18.3330 C   0  0  0  0  0  0  0  0  0  0  0  0
    5.2510    0.2840   20.0670 C   0  0  0  0  0  0  0  0  0  0  0  0
   12.2540   -2.1520   22.1340 C   0  0  0  0  0  0  0  0  0  0  0  0
   11.0440    1.4800   24.1100 C   0  0  0  0  0  0  0  0  0  0  0  0
   12.4910    0.1920   22.7760 C   0  0  0  0  0  0  0  0  0  0  0  0
    9.9810   -5.3920   25.3340 C   0  0  0  0  0  0  0  0  0  0  0  0
    8.1920   -3.6970   26.0610 S   0  0  0  0  0  0  0  0  0  0  0  0
    6.2450    1.1720   17.5500 N   0  0  0  0  0  0  0  0  0  0  0  0
    4.3750    1.1530   19.4270 C   0  0  0  0  0  0  0  0  0  0  0  0
   12.1930    1.3900   23.3570 C   0  0  0  0  0  0  0  0  0  0  0  0
    9.4450   -5.9330   26.4410 C   0  0  0  0  0  0  0  0  0  0  0  0
    8.4200   -5.1010   26.9730 C   0  0  0  0  0  0  0  0  0  0  0  0
    4.9500    1.6310   18.0390 C   0  0  0  0  0  0  0  0  0  0  0  0
    7.4530   -5.3500   28.3620 Cl  0  0  0  0  0  0  0  0  0  0  0  0
  1  2  1  0
  2  3  1  0
  3  4  1  0
  4  5  1  0
  6  5  1  1
  6  7  1  0
  6  8  1  0
  7  8  1  6
  7  9  1  0
  9 10  1  0
  9 11  1  1
 10 12  1  0
 11 13  1  0
 10 14  1  0
 12 15  1  0
 12 16  2  0
 13 17  1  0
 14 18  1  6
 13 19  1  0
 14 19  1  0
 17 20  1  6
 17 21  1  0
 18 22  1  0
 21 23  2  0
 21 24  1  0
 20 25  1  0
 22 26  2  0
 22 27  1  0
 24 28  1  0
 23 29  1  0
 24 30  2  0
 25 31  2  0
 25 32  1  0
 26 33  1  0
 27 34  2  0
 29 35  2  0
 30 35  1  0
 31 36  1  0
 32 37  1  0
 36 37  2  0
 33 38  2  0
 34 38  1  0
 37 39  1  0
M  END
