x0831_0-x1334_1-x1385_1-x0397_0-x1412_1-x1418_1-x1374_1-x0770_1-x0831_1-x1375_1-x0426_1-x1386_1-x0692_1-x1334_0
     RDKit          3D

 44 49  0  0  0  0  0  0  0  0999 V2000
    2.2520   -7.7550   23.2700 O   0  0  0  0  0  0  0  0  0  0  0  0
    2.4160   -8.0930   24.6310 C   0  0  0  0  0  0  0  0  0  0  0  0
    3.7940   -8.0160   24.9080 O   0  0  0  0  0  0  0  0  0  0  0  0
    4.4470   -7.2000   23.9490 C   0  0  0  0  0  0  0  0  0  0  0  0
    4.9140   -6.0430   24.5370 C   0  0  0  0  0  0  0  0  0  0  0  0
    6.0340   -5.6720   23.6410 C   0  0  2  0  0  0  0  0  0  0  0  0
    6.0040   -4.7560   22.5260 C   0  0  2  0  0  0  0  0  0  0  0  0
    6.1260   -6.2470   22.1190 C   0  0  0  0  0  0  0  0  0  0  0  0
    7.1070   -3.8180   22.1970 C   0  0  1  0  0  0  0  0  0  0  0  0
    6.5430   -2.9340   21.2050 N   0  0  0  0  0  0  0  0  0  0  0  0
    7.7580   -3.3500   23.3540 C   0  0  0  0  0  0  0  0  0  0  0  0
    6.3070   -3.3670   19.9240 C   0  0  0  0  0  0  0  0  0  0  0  0
    8.5890   -2.1580   23.1680 N   0  0  0  0  0  0  0  0  0  0  0  0
    7.0510   -1.5790   21.2990 C   0  0  2  0  0  0  0  0  0  0  0  0
    7.2700   -2.9880   18.8090 C   0  0  0  0  0  0  0  0  0  0  0  0
    5.3440   -4.1030   19.7010 O   0  0  0  0  0  0  0  0  0  0  0  0
   10.0140   -2.3140   23.4110 C   0  0  2  0  0  0  0  0  0  0  0  0
    8.5000   -1.6100   21.8150 C   0  0  0  0  0  0  0  0  0  0  0  0
    6.1730   -0.7100   22.2010 C   0  0  0  0  0  0  0  0  0  0  0  0
   10.4850   -3.2640   24.4560 C   0  0  0  0  0  0  0  0  0  0  0  0
   10.7580   -0.9930   23.3970 C   0  0  0  0  0  0  0  0  0  0  0  0
    6.3980    0.7590   21.8800 C   0  0  2  0  0  0  0  0  0  0  0  0
   10.0970    0.1580   23.8900 C   0  0  0  0  0  0  0  0  0  0  0  0
   12.1010   -0.8980   22.8990 C   0  0  0  0  0  0  0  0  0  0  0  0
    9.6240   -4.1100   25.3840 C   0  0  0  0  0  0  0  0  0  0  0  0
    5.6130    1.6620   22.6910 C   0  0  0  0  0  0  0  0  0  0  0  0
    5.9290    0.9110   20.4490 C   0  0  0  0  0  0  0  0  0  0  0  0
   12.8250   -2.0860   22.3550 C   0  0  0  0  0  0  0  0  0  0  0  0
   10.7390    1.5550   23.9400 C   0  0  0  0  0  0  0  0  0  0  0  0
   12.8710    0.4740   22.8970 C   0  0  0  0  0  0  0  0  0  0  0  0
   10.0000   -5.4850   25.6910 C   0  0  0  0  0  0  0  0  0  0  0  0
    8.2120   -3.6810   26.1960 S   0  0  0  0  0  0  0  0  0  0  0  0
    4.0830    1.6660   22.3470 C   0  0  1  0  0  0  0  0  0  0  0  0
    4.7940    1.4510   20.0840 C   0  0  0  0  0  0  0  0  0  0  0  0
    6.8290    0.4090   19.3780 C   0  0  0  0  0  0  0  0  0  0  0  0
   12.1460    1.6850   23.4290 C   0  0  0  0  0  0  0  0  0  0  0  0
    9.1610   -6.0290   26.5370 C   0  0  0  0  0  0  0  0  0  0  0  0
    8.1410   -5.2210   26.9370 C   0  0  0  0  0  0  0  0  0  0  0  0
    3.3130    2.5570   23.2670 N   0  0  0  0  0  0  0  0  0  0  0  0
    3.7750    1.9820   21.0250 C   0  0  0  0  0  0  0  0  0  0  0  0
    4.4300    1.5830   18.8180 C   0  0  0  0  0  0  0  0  0  0  0  0
    6.4950    0.5210   18.0870 N   0  0  0  0  0  0  0  0  0  0  0  0
    6.9020   -5.6200   28.0480 Cl  0  0  0  0  0  0  0  0  0  0  0  0
    5.2990    1.1150   17.8460 C   0  0  0  0  0  0  0  0  0  0  0  0
  1  2  1  0
  2  3  1  0
  3  4  1  0
  4  5  1  0
  6  5  1  6
  6  7  1  0
  6  8  1  0
  7  8  1  6
  7  9  1  0
  9 10  1  0
  9 11  1  1
 10 12  1  0
 11 13  1  0
 10 14  1  0
 12 15  1  0
 12 16  2  0
 13 17  1  0
 13 18  1  0
 14 18  1  0
 14 19  1  1
 17 20  1  1
 17 21  1  0
 22 19  1  1
 21 23  2  0
 21 24  1  0
 20 25  1  0
 22 26  1  0
 22 27  1  0
 24 28  1  0
 23 29  1  0
 24 30  2  0
 25 31  2  0
 25 32  1  0
 26 33  1  0
 27 34  2  0
 27 35  1  0
 29 36  2  0
 30 36  1  0
 31 37  1  0
 32 38  1  0
 37 38  2  0
 33 39  1  1
 33 40  1  0
 34 40  1  0
 34 41  1  0
 35 42  2  0
 38 43  1  0
 41 44  2  0
 42 44  1  0
M  END
