x0831_0-x1418_1-x0426_1-x1334_1
     RDKit          3D

 28 31  0  0  0  0  0  0  0  0999 V2000
    6.4140   -3.3640   19.9390 C   0  0  0  0  0  0  0  0  0  0  0  0
    7.3010   -3.0090   18.7700 C   0  0  0  0  0  0  0  0  0  0  0  0
    5.4440   -4.1190   19.7500 O   0  0  0  0  0  0  0  0  0  0  0  0
    6.7600   -2.8640   21.1920 N   0  0  0  0  0  0  0  0  0  0  0  0
    6.6400   -3.5480   22.4640 C   0  0  0  0  0  0  0  0  0  0  0  0
    7.2070   -1.4840   21.2720 C   0  0  1  0  0  0  0  0  0  0  0  0
    5.9290   -0.5380   21.3630 C   0  0  1  0  0  0  0  0  0  0  0  0
    7.8000   -3.4560   23.2290 C   0  0  0  0  0  0  0  0  0  0  0  0
    8.2580   -1.1650   22.1810 C   0  0  0  0  0  0  0  0  0  0  0  0
    5.8600    0.4370   22.5680 C   0  0  0  0  0  0  0  0  0  0  0  0
    8.5570   -2.1910   23.2110 N   0  0  0  0  0  0  0  0  0  0  0  0
    5.7340    0.1850   20.0480 C   0  0  0  0  0  0  0  0  0  0  0  0
    4.7760    1.5750   22.4600 C   0  0  2  0  0  0  0  0  0  0  0  0
    9.9990   -2.3870   23.4230 C   0  0  0  0  0  0  0  0  0  0  0  0
    4.7160    1.2780   19.9170 C   0  0  0  0  0  0  0  0  0  0  0  0
    6.4810   -0.1270   18.9260 C   0  0  0  0  0  0  0  0  0  0  0  0
    3.8570    1.5040   23.6310 N   0  0  0  0  0  0  0  0  0  0  0  0
    3.9370    1.6110   21.1220 C   0  0  0  0  0  0  0  0  0  0  0  0
    4.5700    1.9050   18.7070 C   0  0  0  0  0  0  0  0  0  0  0  0
    6.2810    0.5780   17.6750 N   0  0  0  0  0  0  0  0  0  0  0  0
   10.7890   -1.0920   23.4540 C   0  0  0  0  0  0  0  0  0  0  0  0
    5.2740    1.6340   17.5840 C   0  0  0  0  0  0  0  0  0  0  0  0
   10.2400   -0.0000   24.1100 C   0  0  0  0  0  0  0  0  0  0  0  0
   12.0570   -0.9570   22.8300 C   0  0  0  0  0  0  0  0  0  0  0  0
   12.7380   -2.0730   22.0930 C   0  0  0  0  0  0  0  0  0  0  0  0
   10.9390    1.2180   24.1350 C   0  0  0  0  0  0  0  0  0  0  0  0
   12.6950    0.2680   22.9000 C   0  0  0  0  0  0  0  0  0  0  0  0
   12.1750    1.4160   23.5450 C   0  0  0  0  0  0  0  0  0  0  0  0
  1  2  1  0
  1  3  2  0
  1  4  1  0
  4  5  1  0
  4  6  1  0
  6  7  1  0
  5  8  1  0
  6  9  1  1
  7 10  1  1
  8 11  1  0
  9 11  1  0
  7 12  1  0
 10 13  1  0
 11 14  1  0
 12 15  2  0
 12 16  1  0
 13 17  1  1
 13 18  1  0
 15 18  1  0
 15 19  1  0
 16 20  2  0
 14 21  1  0
 19 22  2  0
 20 22  1  0
 21 23  2  0
 21 24  1  0
 24 25  1  0
 23 26  1  0
 24 27  2  0
 26 28  2  0
 27 28  1  0
M  END
