x0831_0-x1334_1-x1386_1-x0692_1
     RDKit          3D

 17 18  0  0  0  0  0  0  0  0999 V2000
    6.4150   -3.3500   19.9400 C   0  0  0  0  0  0  0  0  0  0  0  0
    7.3870   -3.0310   18.8060 C   0  0  0  0  0  0  0  0  0  0  0  0
    5.4470   -4.1060   19.7380 O   0  0  0  0  0  0  0  0  0  0  0  0
    6.6860   -2.7830   21.1810 N   0  0  0  0  0  0  0  0  0  0  0  0
    7.3520   -1.5010   21.3490 C   0  0  0  0  0  0  0  0  0  0  0  0
    6.6230   -3.5670   22.4250 C   0  0  0  0  0  0  0  0  0  0  0  0
    8.7170   -1.8140   21.6780 C   0  0  0  0  0  0  0  0  0  0  0  0
    7.8700   -3.5970   23.1570 C   0  0  0  0  0  0  0  0  0  0  0  0
    8.7200   -2.4090   23.0120 N   0  0  0  0  0  0  0  0  0  0  0  0
   10.0700   -2.5290   23.5540 C   0  0  0  0  0  0  0  0  0  0  0  0
   10.7900   -1.2080   23.5440 C   0  0  0  0  0  0  0  0  0  0  0  0
   10.1650   -0.1680   24.2170 C   0  0  0  0  0  0  0  0  0  0  0  0
   12.1360   -0.9580   22.8420 C   0  0  0  0  0  0  0  0  0  0  0  0
   12.8490   -2.0340   22.0950 C   0  0  0  0  0  0  0  0  0  0  0  0
   10.7390    1.1110   24.2620 C   0  0  0  0  0  0  0  0  0  0  0  0
   12.7140    0.2790   22.8840 C   0  0  0  0  0  0  0  0  0  0  0  0
   11.9990    1.4100   23.6260 C   0  0  0  0  0  0  0  0  0  0  0  0
  1  2  1  0
  1  3  2  0
  1  4  1  0
  4  5  1  0
  4  6  1  0
  5  7  1  0
  6  8  1  0
  7  9  1  0
  8  9  1  0
  9 10  1  0
 10 11  1  0
 11 12  2  0
 11 13  1  0
 13 14  1  0
 12 15  1  0
 13 16  2  0
 15 17  2  0
 16 17  1  0
M  END
