x0831_0-x1385_1-x1386_1-x0769_1-x0692_1
     RDKit          3D

 29 31  0  0  0  0  0  0  0  0999 V2000
    6.1860   -3.2750   19.9180 C   0  0  0  0  0  0  0  0  0  0  0  0
    7.1920   -2.9790   18.8130 C   0  0  0  0  0  0  0  0  0  0  0  0
    5.3160   -4.1220   19.7090 O   0  0  0  0  0  0  0  0  0  0  0  0
    6.2930   -2.6240   21.1190 N   0  0  0  0  0  0  0  0  0  0  0  0
    6.1610   -3.3100   22.3980 C   0  0  0  0  0  0  0  0  0  0  0  0
    7.1230   -1.4220   21.1260 C   0  0  0  0  0  0  0  0  0  0  0  0
    7.5460   -3.5020   23.1020 C   0  0  0  0  0  0  0  0  0  0  0  0
    8.4650   -1.5190   21.8640 C   0  0  0  0  0  0  0  0  0  0  0  0
    8.3310   -2.1780   23.2630 C   0  0  0  0  0  0  0  0  0  0  0  0
    7.5170   -1.2110   24.2170 C   0  0  0  0  0  0  0  0  0  0  0  0
    9.7990   -2.2430   23.7400 C   0  0  0  0  0  0  0  0  0  0  0  0
    6.7570   -1.6090   25.5210 C   0  0  0  0  0  0  0  0  0  0  0  0
   10.6780   -1.0010   23.6400 C   0  0  0  0  0  0  0  0  0  0  0  0
    5.8970   -2.7770   25.4970 O   0  0  0  0  0  0  0  0  0  0  0  0
   10.2470    0.2060   24.2100 C   0  0  0  0  0  0  0  0  0  0  0  0
   11.9360   -1.0110   22.9720 C   0  0  0  0  0  0  0  0  0  0  0  0
   12.5210   -2.2290   22.3060 C   0  0  0  0  0  0  0  0  0  0  0  0
    4.5230   -2.6770   25.6750 C   0  0  0  0  0  0  0  0  0  0  0  0
   11.0130    1.3600   24.1250 C   0  0  0  0  0  0  0  0  0  0  0  0
   12.6940    0.1650   22.9070 C   0  0  0  0  0  0  0  0  0  0  0  0
    3.8020   -3.8550   25.9930 C   0  0  0  0  0  0  0  0  0  0  0  0
    3.7750   -1.5090   25.5650 C   0  0  0  0  0  0  0  0  0  0  0  0
   12.2350    1.3400   23.4760 C   0  0  0  0  0  0  0  0  0  0  0  0
    4.6120   -5.3570   26.1850 S   0  0  0  0  0  0  0  0  0  0  0  0
    2.4170   -3.8520   26.1710 C   0  0  0  0  0  0  0  0  0  0  0  0
    2.3950   -1.4860   25.7450 C   0  0  0  0  0  0  0  0  0  0  0  0
    6.0170   -5.1010   26.3070 O   0  0  0  0  0  0  0  0  0  0  0  0
    4.0620   -6.3230   25.2630 O   0  0  0  0  0  0  0  0  0  0  0  0
    1.7090   -2.6570   26.0450 C   0  0  0  0  0  0  0  0  0  0  0  0
  1  2  1  0
  1  3  2  0
  1  4  1  0
  4  5  1  0
  4  6  1  0
  5  7  1  0
  6  8  1  0
  7  9  1  0
  8  9  1  0
  9 10  1  0
  9 11  1  0
 10 12  1  0
 11 13  1  0
 12 14  1  0
 13 15  2  0
 13 16  1  0
 16 17  1  0
 14 18  1  0
 15 19  1  0
 16 20  2  0
 18 21  2  0
 18 22  1  0
 19 23  2  0
 20 23  1  0
 21 24  1  0
 21 25  1  0
 22 26  2  0
 24 27  2  0
 24 28  2  0
 25 29  2  0
 26 29  1  0
M  END
