x0831_0-x1418_1-x1412_1-x0434_2
     RDKit          3D

 24 26  0  0  0  0  0  0  0  0999 V2000
    6.4230   -3.3170   19.8340 C   0  0  0  0  0  0  0  0  0  0  0  0
    7.3580   -3.0360   18.6730 C   0  0  0  0  0  0  0  0  0  0  0  0
    5.4800   -4.1200   19.7510 O   0  0  0  0  0  0  0  0  0  0  0  0
    6.7540   -2.6050   20.9880 N   0  0  0  0  0  0  0  0  0  0  0  0
    6.5100   -3.0520   22.3680 C   0  0  0  0  0  0  0  0  0  0  0  0
    7.8420   -1.5910   20.8320 C   0  0  2  0  0  0  0  0  0  0  0  0
    7.8620   -3.2910   23.0780 C   0  0  0  0  0  0  0  0  0  0  0  0
    8.9670   -1.7480   21.5790 C   0  0  0  0  0  0  0  0  0  0  0  0
    7.3700   -0.1920   20.7740 C   0  0  0  0  0  0  0  0  0  0  0  0
    8.7780   -2.1640   22.9530 N   0  0  0  0  0  0  0  0  0  0  0  0
    7.0840    0.2440   19.3270 C   0  0  0  0  0  0  0  0  0  0  0  0
   10.0860   -2.4300   23.5300 C   0  0  0  0  0  0  0  0  0  0  0  0
    5.9780    0.4820   20.2170 C   0  0  0  0  0  0  0  0  0  0  0  0
    6.4690    0.7720   18.0790 N   0  0  0  0  0  0  0  0  0  0  0  0
   10.8530   -1.1000   23.5130 C   0  0  0  0  0  0  0  0  0  0  0  0
    5.1620    1.3610   17.8560 C   0  0  0  0  0  0  0  0  0  0  0  0
    4.7150    1.0330   20.0190 C   0  0  0  0  0  0  0  0  0  0  0  0
   10.2500    0.0030   24.1550 C   0  0  0  0  0  0  0  0  0  0  0  0
   12.1070   -0.9220   22.8840 C   0  0  0  0  0  0  0  0  0  0  0  0
    4.2890    1.4870   18.8240 C   0  0  0  0  0  0  0  0  0  0  0  0
   12.7840   -2.0600   22.1820 C   0  0  0  0  0  0  0  0  0  0  0  0
   10.9950    1.2860   24.1050 C   0  0  0  0  0  0  0  0  0  0  0  0
   12.7700    0.3000   22.8720 C   0  0  0  0  0  0  0  0  0  0  0  0
   12.2080    1.4520   23.4910 C   0  0  0  0  0  0  0  0  0  0  0  0
  1  2  1  0
  1  3  2  0
  1  4  1  0
  4  5  1  0
  4  6  1  0
  5  7  1  0
  6  8  1  0
  6  9  1  1
  7 10  1  0
  8 10  1  0
  9 11  1  0
 10 12  1  0
 11 13  2  0
 11 14  1  0
 12 15  1  0
 14 16  2  0
 13 17  1  0
 15 18  2  0
 15 19  1  0
 16 20  1  0
 17 20  2  0
 19 21  1  0
 18 22  1  0
 19 23  2  0
 22 24  2  0
 23 24  1  0
M  END
