x0831_0-x1334_0-x0397_0-x1386_1-x0692_1-x1374_1-x0426_1-x0434_2-x1385_1-x0770_1-x1334_1
     RDKit          3D

 45 50  0  0  0  0  0  0  0  0999 V2000
    2.3950   -7.1020   23.6070 O   0  0  0  0  0  0  0  0  0  0  0  0
    2.7200   -7.3140   24.9680 C   0  0  0  0  0  0  0  0  0  0  0  0
    4.0190   -7.8890   25.0510 O   0  0  0  0  0  0  0  0  0  0  0  0
    4.8660   -7.3860   24.0370 C   0  0  0  0  0  0  0  0  0  0  0  0
    5.8500   -6.5650   24.5730 C   0  0  0  0  0  0  0  0  0  0  0  0
    6.2080   -5.6490   23.4840 C   0  0  2  0  0  0  0  0  0  0  0  0
    5.2480   -4.9790   22.8770 C   0  0  2  0  0  0  0  0  0  0  0  0
    6.1990   -6.1410   22.2500 C   0  0  0  0  0  0  0  0  0  0  0  0
    5.4560   -3.5510   22.7110 C   0  0  0  0  0  0  0  0  0  0  0  0
    6.7630   -3.3600   22.0670 C   0  0  1  0  0  0  0  0  0  0  0  0
    6.7300   -2.4230   20.9900 N   0  0  0  0  0  0  0  0  0  0  0  0
    7.9130   -3.2100   23.1410 C   0  0  0  0  0  0  0  0  0  0  0  0
    6.4960   -3.0480   19.7620 C   0  0  0  0  0  0  0  0  0  0  0  0
    8.9200   -2.1600   22.9670 N   0  0  0  0  0  0  0  0  0  0  0  0
    7.6110   -1.2880   21.1700 C   0  0  2  0  0  0  0  0  0  0  0  0
    7.4830   -2.9230   18.6340 C   0  0  0  0  0  0  0  0  0  0  0  0
    5.5030   -3.7850   19.5710 O   0  0  0  0  0  0  0  0  0  0  0  0
   10.3040   -2.4530   23.2470 C   0  0  2  0  0  0  0  0  0  0  0  0
    8.9750   -1.7340   21.5770 C   0  0  0  0  0  0  0  0  0  0  0  0
    7.1900   -0.3200   22.2820 C   0  0  0  0  0  0  0  0  0  0  0  0
   10.8100   -3.2790   24.3930 C   0  0  0  0  0  0  0  0  0  0  0  0
   10.9740   -1.0690   23.3280 C   0  0  0  0  0  0  0  0  0  0  0  0
    6.2940    0.8470   21.8900 C   0  0  2  0  0  0  0  0  0  0  0  0
   10.2450   -0.0870   23.9170 C   0  0  0  0  0  0  0  0  0  0  0  0
   12.3050   -0.7870   22.8080 C   0  0  0  0  0  0  0  0  0  0  0  0
    9.8270   -4.2550   24.9980 C   0  0  0  0  0  0  0  0  0  0  0  0
    5.0170    0.8260   22.7170 C   0  0  0  0  0  0  0  0  0  0  0  0
    5.9210    0.9110   20.4510 C   0  0  0  0  0  0  0  0  0  0  0  0
   13.0930   -1.8600   22.1410 C   0  0  0  0  0  0  0  0  0  0  0  0
   10.7670    1.3040   24.0640 C   0  0  0  0  0  0  0  0  0  0  0  0
   12.8510    0.4390   22.9030 C   0  0  0  0  0  0  0  0  0  0  0  0
    9.1400   -5.3960   24.5960 C   0  0  0  0  0  0  0  0  0  0  0  0
    9.3650   -4.0120   26.6240 S   0  0  0  0  0  0  0  0  0  0  0  0
    4.2240    2.0320   22.2560 C   0  0  2  0  0  0  0  0  0  0  0  0
    4.5770    1.4040   20.1170 C   0  0  0  0  0  0  0  0  0  0  0  0
    6.7550    0.5400   19.4010 C   0  0  0  0  0  0  0  0  0  0  0  0
   12.1390    1.5140   23.5110 C   0  0  0  0  0  0  0  0  0  0  0  0
    8.3290   -5.9640   25.5540 C   0  0  0  0  0  0  0  0  0  0  0  0
    8.3280   -5.2950   26.7700 C   0  0  0  0  0  0  0  0  0  0  0  0
    3.3970    2.4050   23.2650 N   0  0  0  0  0  0  0  0  0  0  0  0
    3.6800    1.7660   21.0430 C   0  0  0  0  0  0  0  0  0  0  0  0
    4.2740    1.4790   18.7740 C   0  0  0  0  0  0  0  0  0  0  0  0
    6.4370    0.6120   18.0890 N   0  0  0  0  0  0  0  0  0  0  0  0
    7.5290   -5.5010   28.2770 Cl  0  0  0  0  0  0  0  0  0  0  0  0
    5.2090    1.0890   17.8320 C   0  0  0  0  0  0  0  0  0  0  0  0
  1  2  1  0
  2  3  1  0
  3  4  1  0
  4  5  1  0
  6  5  1  1
  6  7  1  0
  6  8  1  0
  7  8  1  0
  7  9  1  6
 10  9  1  1
 10 11  1  0
 10 12  1  0
 11 13  1  0
 12 14  1  0
 11 15  1  0
 13 16  1  0
 13 17  2  0
 14 18  1  0
 14 19  1  0
 15 19  1  0
 15 20  1  1
 18 21  1  1
 18 22  1  0
 23 20  1  6
 22 24  2  0
 22 25  1  0
 21 26  1  0
 23 27  1  0
 23 28  1  0
 25 29  1  0
 24 30  1  0
 25 31  2  0
 26 32  2  0
 26 33  1  0
 27 34  1  0
 28 35  2  0
 28 36  1  0
 30 37  2  0
 31 37  1  0
 32 38  1  0
 33 39  1  0
 38 39  2  0
 34 40  1  1
 34 41  1  0
 35 41  1  0
 35 42  1  0
 36 43  2  0
 39 44  1  0
 42 45  2  0
 43 45  1  0
M  END
