x0831_0-x0771_1-x1334_1-x0691_1-x1418_0
     RDKit          3D

 32 34  0  0  0  0  0  0  0  0999 V2000
    5.0180   -5.5940   25.3860 S   0  0  0  0  0  0  0  0  0  0  0  0
    5.7590   -5.3550   23.8060 C   0  0  0  0  0  0  0  0  0  0  0  0
    5.5490   -4.0780   22.9780 C   0  0  0  0  0  0  0  0  0  0  0  0
    4.3640   -6.8820   25.4040 O   0  0  0  0  0  0  0  0  0  0  0  0
    6.0400   -5.2320   26.5450 O   0  0  0  0  0  0  0  0  0  0  0  0
    3.7380   -4.3900   25.6130 C   0  0  0  0  0  0  0  0  0  0  0  0
    2.2940   -4.7530   25.4750 C   0  0  0  0  0  0  0  0  0  0  0  0
    4.0250   -3.0100   25.9460 C   0  0  0  0  0  0  0  0  0  0  0  0
    1.8090   -6.1340   25.1240 C   0  0  0  0  0  0  0  0  0  0  0  0
    1.3370   -3.7910   25.6770 C   0  0  0  0  0  0  0  0  0  0  0  0
    2.9920   -2.0740   26.1350 C   0  0  0  0  0  0  0  0  0  0  0  0
    6.8830   -3.7310   22.3130 C   0  0  1  0  0  0  0  0  0  0  0  0
    3.3150   -0.8100   26.4370 F   0  0  0  0  0  0  0  0  0  0  0  0
    1.6490   -2.4160   26.0200 C   0  0  0  0  0  0  0  0  0  0  0  0
    6.6910   -2.7660   21.1740 N   0  0  0  0  0  0  0  0  0  0  0  0
    7.9690   -3.5550   23.1860 C   0  0  0  0  0  0  0  0  0  0  0  0
    0.5610   -1.4130   26.2430 C   0  0  0  0  0  0  0  0  0  0  0  0
    6.3750   -3.3440   19.9310 C   0  0  0  0  0  0  0  0  0  0  0  0
    8.5790   -2.2250   23.1090 N   0  0  0  0  0  0  0  0  0  0  0  0
    7.3870   -1.5910   21.2020 C   0  0  0  0  0  0  0  0  0  0  0  0
    7.3620   -3.0230   18.8180 C   0  0  0  0  0  0  0  0  0  0  0  0
    5.4070   -4.0920   19.7360 O   0  0  0  0  0  0  0  0  0  0  0  0
    9.8260   -2.0840   23.8750 C   0  0  1  0  0  0  0  0  0  0  0  0
    8.6720   -1.7400   21.7290 C   0  0  0  0  0  0  0  0  0  0  0  0
   10.6760   -3.3390   23.8070 C   0  0  0  0  0  0  0  0  0  0  0  0
   10.6760   -0.8530   23.6600 C   0  0  0  0  0  0  0  0  0  0  0  0
   10.1860    0.3480   24.1860 C   0  0  0  0  0  0  0  0  0  0  0  0
   11.9140   -0.8590   22.9830 C   0  0  0  0  0  0  0  0  0  0  0  0
   12.5710   -2.0570   22.3590 C   0  0  0  0  0  0  0  0  0  0  0  0
   10.8800    1.5560   24.0660 C   0  0  0  0  0  0  0  0  0  0  0  0
   12.6380    0.4630   22.8820 C   0  0  0  0  0  0  0  0  0  0  0  0
   12.1240    1.6300   23.4110 C   0  0  0  0  0  0  0  0  0  0  0  0
  1  2  1  0
  2  3  1  0
  1  4  2  0
  1  5  2  0
  1  6  1  0
  6  7  2  0
  6  8  1  0
  7  9  1  0
  7 10  1  0
  8 11  2  0
 12  3  1  1
 11 13  1  0
 10 14  2  0
 11 14  1  0
 12 15  1  0
 12 16  1  0
 14 17  1  0
 15 18  1  0
 16 19  1  0
 15 20  1  0
 18 21  1  0
 18 22  2  0
 19 23  1  0
 19 24  1  0
 20 24  1  0
 23 25  1  6
 23 26  1  0
 26 27  2  0
 26 28  1  0
 28 29  1  0
 27 30  1  0
 28 31  2  0
 30 32  2  0
 31 32  1  0
M  END
