x0831_0-x1386_1-x0770_1-x0397_0
     RDKit          3D

 21 23  0  0  0  0  0  0  0  0999 V2000
    6.4330   -3.1470   19.7810 C   0  0  0  0  0  0  0  0  0  0  0  0
    7.4100   -2.9500   18.6490 C   0  0  0  0  0  0  0  0  0  0  0  0
    5.4500   -3.9100   19.6510 O   0  0  0  0  0  0  0  0  0  0  0  0
    6.7310   -2.4580   20.9700 N   0  0  0  0  0  0  0  0  0  0  0  0
    7.6790   -1.3210   20.9060 C   0  0  0  0  0  0  0  0  0  0  0  0
    6.7790   -3.2900   22.1780 C   0  0  1  0  0  0  0  0  0  0  0  0
    8.8850   -1.6380   21.5310 C   0  0  0  0  0  0  0  0  0  0  0  0
    7.6450   -2.9370   23.2260 C   0  0  0  0  0  0  0  0  0  0  0  0
    5.4010   -3.5500   22.7080 C   0  0  0  0  0  0  0  0  0  0  0  0
    8.7250   -2.0030   22.9290 N   0  0  0  0  0  0  0  0  0  0  0  0
    5.0620   -4.9970   22.6400 C   0  0  0  0  0  0  0  0  0  0  0  0
    9.9630   -2.1420   23.6840 C   0  0  0  0  0  0  0  0  0  0  0  0
    5.9950   -5.9890   23.1520 C   0  0  0  0  0  0  0  0  0  0  0  0
    5.9860   -6.0890   21.8260 C   0  0  0  0  0  0  0  0  0  0  0  0
   10.7330   -0.9290   23.6190 C   0  0  0  0  0  0  0  0  0  0  0  0
   10.3120    0.2640   24.1500 C   0  0  0  0  0  0  0  0  0  0  0  0
   12.1010   -0.9210   22.9100 C   0  0  0  0  0  0  0  0  0  0  0  0
   12.6910   -2.1480   22.2740 C   0  0  0  0  0  0  0  0  0  0  0  0
   11.0070    1.4260   24.0790 C   0  0  0  0  0  0  0  0  0  0  0  0
   12.8870    0.2620   22.8060 C   0  0  0  0  0  0  0  0  0  0  0  0
   12.3850    1.5900   23.3990 C   0  0  0  0  0  0  0  0  0  0  0  0
  1  2  1  0
  1  3  2  0
  1  4  1  0
  4  5  1  0
  4  6  1  0
  5  7  1  0
  6  8  1  0
  6  9  1  1
  7 10  1  0
  8 10  1  0
  9 11  1  0
 10 12  1  0
 11 13  1  0
 11 14  1  0
 13 14  1  0
 12 15  1  0
 15 16  2  0
 15 17  1  0
 17 18  1  0
 16 19  1  0
 17 20  2  0
 19 21  2  0
 20 21  1  0
M  END
