x0831_0-x0831_1-x1386_1-x0397_0
     RDKit          3D

 21 23  0  0  0  0  0  0  0  0999 V2000
    6.2130   -3.4170   20.0100 C   0  0  0  0  0  0  0  0  0  0  0  0
    7.1740   -3.0260   18.8920 C   0  0  0  0  0  0  0  0  0  0  0  0
    5.4050   -4.3350   19.8390 O   0  0  0  0  0  0  0  0  0  0  0  0
    6.2840   -2.7190   21.2170 N   0  0  0  0  0  0  0  0  0  0  0  0
    6.1180   -1.2660   21.2040 C   0  0  0  0  0  0  0  0  0  0  0  0
    6.4660   -3.2560   22.5740 C   0  0  2  0  0  0  0  0  0  0  0  0
    7.4750   -0.5060   21.3040 C   0  0  0  0  0  0  0  0  0  0  0  0
    7.8030   -3.3470   22.9150 C   0  0  0  0  0  0  0  0  0  0  0  0
    5.7440   -4.5910   22.6040 C   0  0  0  0  0  0  0  0  0  0  0  0
    8.5650   -2.0900   22.9320 N   0  0  0  0  0  0  0  0  0  0  0  0
    8.6440   -1.4650   21.7090 C   0  0  0  0  0  0  0  0  0  0  0  0
    6.2310   -5.6680   23.1600 C   0  0  0  0  0  0  0  0  0  0  0  0
    6.1750   -5.9720   21.7940 C   0  0  0  0  0  0  0  0  0  0  0  0
    9.9430   -2.2870   23.4330 C   0  0  0  0  0  0  0  0  0  0  0  0
   10.7460   -1.0120   23.4700 C   0  0  0  0  0  0  0  0  0  0  0  0
   10.1650    0.2470   24.1550 C   0  0  0  0  0  0  0  0  0  0  0  0
   12.0350   -0.9200   22.8810 C   0  0  0  0  0  0  0  0  0  0  0  0
   12.6740   -2.0900   22.1880 C   0  0  0  0  0  0  0  0  0  0  0  0
   10.9730    1.3660   24.1170 C   0  0  0  0  0  0  0  0  0  0  0  0
   12.7670    0.2750   22.9140 C   0  0  0  0  0  0  0  0  0  0  0  0
   12.2190    1.3760   23.5210 C   0  0  0  0  0  0  0  0  0  0  0  0
  1  2  1  0
  1  3  2  0
  1  4  1  0
  4  5  1  0
  4  6  1  0
  5  7  1  0
  6  8  1  0
  6  9  1  6
  8 10  1  0
  7 11  1  0
 10 11  1  0
  9 12  1  0
  9 13  1  0
 12 13  1  0
 10 14  1  0
 14 15  1  0
 15 16  2  0
 15 17  1  0
 17 18  1  0
 16 19  1  0
 17 20  2  0
 19 21  2  0
 20 21  1  0
M  END
