x0831_0-x1334_1-x0831_1-x1385_1-x1334_0-x1374_1-x0692_1-x0770_1-x0434_2-x1418_1-x0397_0-x1412_1-x0426_1
     RDKit          3D

 45 51  0  0  0  0  0  0  0  0999 V2000
    2.1500   -7.2060   23.6550 O   0  0  0  0  0  0  0  0  0  0  0  0
    2.6110   -7.8140   24.8440 C   0  0  0  0  0  0  0  0  0  0  0  0
    4.0210   -7.9100   24.7550 O   0  0  0  0  0  0  0  0  0  0  0  0
    4.5500   -7.1400   23.6750 C   0  0  0  0  0  0  0  0  0  0  0  0
    4.8390   -5.9000   24.1440 C   0  0  0  0  0  0  0  0  0  0  0  0
    5.9320   -5.3190   23.2860 C   0  0  2  0  0  0  0  0  0  0  0  0
    5.6310   -4.3460   22.4220 C   0  0  2  0  0  0  0  0  0  0  0  0
    6.1620   -5.8360   21.9500 C   0  0  0  0  0  0  0  0  0  0  0  0
    6.4860   -3.1070   22.4090 C   0  0  2  0  0  0  0  0  0  0  0  0
    6.6280   -2.5030   21.0470 N   0  0  0  0  0  0  0  0  0  0  0  0
    7.7540   -3.3570   22.9780 C   0  0  0  0  0  0  0  0  0  0  0  0
    6.4170   -3.2500   19.8970 C   0  0  0  0  0  0  0  0  0  0  0  0
    8.5280   -2.1170   22.9960 N   0  0  0  0  0  0  0  0  0  0  0  0
    7.6420   -1.4340   21.2360 C   0  0  2  0  0  0  0  0  0  0  0  0
    7.3530   -2.9850   18.7380 C   0  0  0  0  0  0  0  0  0  0  0  0
    5.5330   -4.1230   19.7680 O   0  0  0  0  0  0  0  0  0  0  0  0
    9.6330   -1.9990   23.9100 C   0  0  1  0  0  0  0  0  0  0  0  0
    7.7480   -0.2300   20.4280 N   0  0  0  0  0  0  0  0  0  0  0  0
    9.0010   -1.8970   21.6730 C   0  0  0  0  0  0  0  0  0  0  0  0
   10.2240   -3.3450   23.9920 C   0  0  0  0  0  0  0  0  0  0  0  0
    7.7800    0.8430   21.4600 C   0  0  0  0  0  0  0  0  0  0  0  0
    6.6350    0.2530   19.6730 C   0  0  0  0  0  0  0  0  0  0  0  0
   10.5290   -0.8540   23.7080 C   0  0  0  0  0  0  0  0  0  0  0  0
    6.3160    0.8520   21.9070 C   0  0  2  0  0  0  0  0  0  0  0  0
    6.3700    0.1700   18.2460 N   0  0  0  0  0  0  0  0  0  0  0  0
    5.7400    0.8880   20.5160 C   0  0  0  0  0  0  0  0  0  0  0  0
   10.1790    0.4440   24.0990 C   0  0  0  0  0  0  0  0  0  0  0  0
   11.9140   -0.9390   23.0650 C   0  0  0  0  0  0  0  0  0  0  0  0
    9.6310   -4.2160   25.0590 C   0  0  0  0  0  0  0  0  0  0  0  0
    5.7850    2.0270   22.7020 C   0  0  0  0  0  0  0  0  0  0  0  0
   12.5560   -2.1800   22.5350 C   0  0  0  0  0  0  0  0  0  0  0  0
    4.5530    1.4690   20.1550 C   0  0  0  0  0  0  0  0  0  0  0  0
    5.1210    0.8020   17.8730 C   0  0  0  0  0  0  0  0  0  0  0  0
   10.9640    1.5940   23.9580 C   0  0  0  0  0  0  0  0  0  0  0  0
   12.7410    0.1700   22.9010 C   0  0  0  0  0  0  0  0  0  0  0  0
    9.9680   -5.4260   25.3710 C   0  0  0  0  0  0  0  0  0  0  0  0
    8.2870   -3.7530   26.1610 S   0  0  0  0  0  0  0  0  0  0  0  0
    4.2420    2.0890   22.6340 C   0  0  2  0  0  0  0  0  0  0  0  0
    3.6850    2.1090   21.1970 C   0  0  0  0  0  0  0  0  0  0  0  0
    4.3000    1.3970   18.8180 C   0  0  0  0  0  0  0  0  0  0  0  0
   12.2040    1.4950   23.3860 C   0  0  0  0  0  0  0  0  0  0  0  0
    9.2670   -6.1420   26.4880 C   0  0  0  0  0  0  0  0  0  0  0  0
    8.2250   -5.2050   27.0420 C   0  0  0  0  0  0  0  0  0  0  0  0
    3.7030    3.1860   23.4020 N   0  0  0  0  0  0  0  0  0  0  0  0
    7.1330   -5.4840   28.3300 Cl  0  0  0  0  0  0  0  0  0  0  0  0
  1  2  1  0
  2  3  1  0
  3  4  1  0
  4  5  1  0
  6  5  1  6
  6  7  1  0
  6  8  1  0
  7  8  1  6
  7  9  1  0
  9 10  1  0
  9 11  1  6
 10 12  1  0
 11 13  1  0
 10 14  1  0
 12 15  1  0
 12 16  2  0
 13 17  1  0
 14 18  1  6
 13 19  1  0
 14 19  1  0
 17 20  1  6
 18 21  1  0
 18 22  1  0
 17 23  1  0
 24 21  1  6
 22 25  2  0
 22 26  1  0
 24 26  1  0
 23 27  2  0
 23 28  1  0
 20 29  1  0
 24 30  1  0
 28 31  1  0
 26 32  2  0
 25 33  1  0
 27 34  1  0
 28 35  2  0
 29 36  2  0
 29 37  1  0
 30 38  1  0
 32 39  1  0
 38 39  1  0
 32 40  1  0
 33 40  2  0
 34 41  2  0
 35 41  1  0
 36 42  1  0
 37 43  1  0
 42 43  2  0
 38 44  1  6
 43 45  1  0
M  END
