x0831_0-x0426_1-x1334_1
     RDKit          3D

 29 32  0  0  0  0  0  0  0  0999 V2000
    6.4200   -3.4030   19.9310 C   0  0  0  0  0  0  0  0  0  0  0  0
    7.3290   -3.0480   18.7680 C   0  0  0  0  0  0  0  0  0  0  0  0
    5.4650   -4.1770   19.7670 O   0  0  0  0  0  0  0  0  0  0  0  0
    6.7380   -2.8380   21.1500 N   0  0  0  0  0  0  0  0  0  0  0  0
    7.6230   -1.6560   21.2290 C   0  0  2  0  0  0  0  0  0  0  0  0
    6.7270   -3.7010   22.3460 C   0  0  0  0  0  0  0  0  0  0  0  0
    9.0150   -2.0460   21.7240 C   0  0  0  0  0  0  0  0  0  0  0  0
    8.0290   -3.7520   23.2040 C   0  0  0  0  0  0  0  0  0  0  0  0
    7.0650   -0.5090   22.0890 C   0  0  0  0  0  0  0  0  0  0  0  0
    8.9180   -2.5720   23.1010 N   0  0  0  0  0  0  0  0  0  0  0  0
    5.6370   -0.0630   21.7360 C   0  0  1  0  0  0  0  0  0  0  0  0
   10.2250   -2.5750   23.7410 C   0  0  0  0  0  0  0  0  0  0  0  0
    5.1890    0.8860   22.6950 C   0  0  0  0  0  0  0  0  0  0  0  0
    5.5650    0.4390   20.3170 C   0  0  0  0  0  0  0  0  0  0  0  0
   10.8670   -1.1830   23.6710 C   0  0  0  0  0  0  0  0  0  0  0  0
    4.3210    2.0590   22.1780 C   0  0  2  0  0  0  0  0  0  0  0  0
    4.5690    1.3110   19.9790 C   0  0  0  0  0  0  0  0  0  0  0  0
    6.4750    0.0610   19.3060 C   0  0  0  0  0  0  0  0  0  0  0  0
   10.2540    0.0810   24.2690 C   0  0  0  0  0  0  0  0  0  0  0  0
   12.1200   -0.9890   23.0020 C   0  0  0  0  0  0  0  0  0  0  0  0
    3.3700    2.4070   23.2350 N   0  0  0  0  0  0  0  0  0  0  0  0
    3.5980    1.7200   21.0300 C   0  0  0  0  0  0  0  0  0  0  0  0
    4.4890    1.7920   18.6900 C   0  0  0  0  0  0  0  0  0  0  0  0
    6.4160    0.5140   18.0360 N   0  0  0  0  0  0  0  0  0  0  0  0
   12.8530   -2.1070   22.3440 C   0  0  0  0  0  0  0  0  0  0  0  0
   10.8760    1.4490   24.1830 C   0  0  0  0  0  0  0  0  0  0  0  0
   12.7180    0.2900   22.9270 C   0  0  0  0  0  0  0  0  0  0  0  0
    5.4220    1.3730   17.7660 C   0  0  0  0  0  0  0  0  0  0  0  0
   12.0790    1.5180   23.5240 C   0  0  0  0  0  0  0  0  0  0  0  0
  1  2  1  0
  1  3  2  0
  1  4  1  0
  4  5  1  0
  4  6  1  0
  5  7  1  0
  6  8  1  0
  5  9  1  1
  7 10  1  0
  8 10  1  0
 11  9  1  1
 10 12  1  0
 11 13  1  0
 11 14  1  0
 12 15  1  0
 13 16  1  0
 14 17  2  0
 14 18  1  0
 15 19  2  0
 15 20  1  0
 16 21  1  1
 16 22  1  0
 17 22  1  0
 17 23  1  0
 18 24  2  0
 20 25  1  0
 19 26  1  0
 20 27  2  0
 23 28  2  0
 24 28  1  0
 26 29  2  0
 27 29  1  0
M  END
