x0831_0-x0692_1-x1418_1-x1334_0-x0434_2-x1374_1-x1334_1-x0770_1
     RDKit          3D

 39 43  0  0  0  0  0  0  0  0999 V2000
    6.2020   -3.2660   19.8190 C   0  0  0  0  0  0  0  0  0  0  0  0
    7.1390   -2.9820   18.6660 C   0  0  0  0  0  0  0  0  0  0  0  0
    5.2450   -4.0240   19.6130 O   0  0  0  0  0  0  0  0  0  0  0  0
    6.5170   -2.7230   21.0380 N   0  0  0  0  0  0  0  0  0  0  0  0
    7.0150   -1.3380   21.1380 C   0  0  1  0  0  0  0  0  0  0  0  0
    7.1060   -3.5890   22.0470 C   0  0  2  0  0  0  0  0  0  0  0  0
    6.4550   -4.9430   22.0290 C   0  0  0  0  0  0  0  0  0  0  0  0
    8.3430   -1.2680   21.9150 C   0  0  0  0  0  0  0  0  0  0  0  0
    7.3050   -2.8700   23.3620 C   0  0  0  0  0  0  0  0  0  0  0  0
    7.5770   -0.6720   19.9020 C   0  0  0  0  0  0  0  0  0  0  0  0
    8.2910   -1.8240   23.2130 N   0  0  0  0  0  0  0  0  0  0  0  0
    5.1220   -5.0210   22.7080 C   0  0  2  0  0  0  0  0  0  0  0  0
    6.8530   -0.0730   18.7530 C   0  0  0  0  0  0  0  0  0  0  0  0
    9.4230   -1.9680   23.9080 C   0  0  1  0  0  0  0  0  0  0  0  0
    4.8570   -4.4510   23.9520 C   0  0  0  0  0  0  0  0  0  0  0  0
    4.8940   -6.5280   22.8850 C   0  0  0  0  0  0  0  0  0  0  0  0
    6.2420    0.3460   19.9760 C   0  0  0  0  0  0  0  0  0  0  0  0
    6.0520    0.5810   17.8540 N   0  0  0  0  0  0  0  0  0  0  0  0
    9.9400   -3.3320   23.8040 C   0  0  0  0  0  0  0  0  0  0  0  0
   10.4430   -0.8200   23.6850 C   0  0  0  0  0  0  0  0  0  0  0  0
    4.0950   -5.2830   24.8010 C   0  0  0  0  0  0  0  0  0  0  0  0
    3.7050   -6.7820   24.0870 S   0  0  0  0  0  0  0  0  0  0  0  0
    5.0130    1.3850   18.0140 C   0  0  0  0  0  0  0  0  0  0  0  0
    5.1500    1.1720   20.2300 C   0  0  0  0  0  0  0  0  0  0  0  0
    2.2750   -6.8650   23.3910 O   0  0  0  0  0  0  0  0  0  0  0  0
    4.0500   -8.0420   24.9840 O   0  0  0  0  0  0  0  0  0  0  0  0
   10.0750    0.6170   24.1010 C   0  0  0  0  0  0  0  0  0  0  0  0
   11.7650   -0.9010   23.1120 C   0  0  0  0  0  0  0  0  0  0  0  0
    9.4430   -4.1620   24.9480 C   0  0  0  0  0  0  0  0  0  0  0  0
    4.4980    1.7220   19.2510 C   0  0  0  0  0  0  0  0  0  0  0  0
   12.3730   -2.1710   22.6120 C   0  0  0  0  0  0  0  0  0  0  0  0
   11.0320    1.7810   23.9150 C   0  0  0  0  0  0  0  0  0  0  0  0
   12.6400    0.1890   22.9490 C   0  0  0  0  0  0  0  0  0  0  0  0
    9.9460   -5.5440   25.2840 C   0  0  0  0  0  0  0  0  0  0  0  0
    8.2370   -3.7260   26.0760 S   0  0  0  0  0  0  0  0  0  0  0  0
   12.4050    1.4820   23.2870 C   0  0  0  0  0  0  0  0  0  0  0  0
    9.3080   -6.1780   26.4740 C   0  0  0  0  0  0  0  0  0  0  0  0
    8.2790   -5.1970   27.0330 C   0  0  0  0  0  0  0  0  0  0  0  0
    7.2640   -5.4220   28.3920 Cl  0  0  0  0  0  0  0  0  0  0  0  0
  1  2  1  0
  1  3  2  0
  1  4  1  0
  4  5  1  0
  4  6  1  0
  6  7  1  1
  5  8  1  0
  6  9  1  0
  5 10  1  6
  8 11  1  0
  9 11  1  0
 12  7  1  1
 10 13  1  0
 11 14  1  0
 12 15  1  0
 12 16  1  0
 13 17  2  0
 13 18  1  0
 14 19  1  6
 14 20  1  0
 15 21  2  0
 16 22  1  0
 21 22  1  0
 18 23  2  0
 17 24  1  0
 22 25  1  0
 22 26  1  0
 20 27  2  0
 20 28  1  0
 19 29  1  0
 23 30  1  0
 24 30  2  0
 28 31  1  0
 27 32  1  0
 28 33  2  0
 29 34  2  0
 29 35  1  0
 32 36  2  0
 33 36  1  0
 34 37  1  0
 35 38  1  0
 37 38  2  0
 38 39  1  0
M  END
