x0831_0-x1385_1-x1418_1-x0770_1-x1412_0
     RDKit          3D

 25 27  0  0  0  0  0  0  0  0999 V2000
    6.3230   -3.2570   19.8540 C   0  0  0  0  0  0  0  0  0  0  0  0
    7.3110   -2.9570   18.7380 C   0  0  0  0  0  0  0  0  0  0  0  0
    5.3880   -4.0520   19.7030 O   0  0  0  0  0  0  0  0  0  0  0  0
    6.5260   -2.6170   21.0820 N   0  0  0  0  0  0  0  0  0  0  0  0
    6.5160   -3.3080   22.3880 C   0  0  0  0  0  0  0  0  0  0  0  0
    7.3220   -1.3600   21.0730 C   0  0  0  0  0  0  0  0  0  0  0  0
    7.9130   -3.2990   23.0390 C   0  0  0  0  0  0  0  0  0  0  0  0
    8.6570   -1.5940   21.4420 C   0  0  0  0  0  0  0  0  0  0  0  0
    8.6910   -2.0360   22.8320 N   0  0  0  0  0  0  0  0  0  0  0  0
   10.0480   -2.1830   23.2000 C   0  0  2  0  0  0  0  0  0  0  0  0
   10.1020   -2.8620   24.5440 C   0  0  0  0  0  0  0  0  0  0  0  0
   10.7570   -0.8720   23.3050 C   0  0  0  0  0  0  0  0  0  0  0  0
    8.7930   -2.8420   25.2980 C   0  0  0  0  0  0  0  0  0  0  0  0
   10.1610    0.2620   23.8720 C   0  0  0  0  0  0  0  0  0  0  0  0
   12.0900   -0.7950   22.8050 C   0  0  0  0  0  0  0  0  0  0  0  0
   12.7920   -1.9630   22.1790 C   0  0  0  0  0  0  0  0  0  0  0  0
    7.8730   -2.0310   25.2710 O   0  0  0  0  0  0  0  0  0  0  0  0
   10.8490    1.4530   23.9550 C   0  0  0  0  0  0  0  0  0  0  0  0
   12.7620    0.3980   22.8960 C   0  0  0  0  0  0  0  0  0  0  0  0
    8.6550   -4.0200   26.1950 C   0  0  0  0  0  0  0  0  0  0  0  0
   12.2640    1.5530   23.4290 C   0  0  0  0  0  0  0  0  0  0  0  0
    9.5730   -5.0520   25.9450 C   0  0  0  0  0  0  0  0  0  0  0  0
    7.5590   -4.3100   27.4820 S   0  0  0  0  0  0  0  0  0  0  0  0
    9.3440   -6.0480   26.8130 C   0  0  0  0  0  0  0  0  0  0  0  0
    8.3090   -5.8240   27.7110 C   0  0  0  0  0  0  0  0  0  0  0  0
  1  2  1  0
  1  3  2  0
  1  4  1  0
  4  5  1  0
  4  6  1  0
  5  7  1  0
  6  8  1  0
  7  9  1  0
  8  9  1  0
  9 10  1  0
 10 11  1  1
 10 12  1  0
 11 13  1  0
 12 14  2  0
 12 15  1  0
 15 16  1  0
 13 17  2  0
 14 18  1  0
 15 19  2  0
 13 20  1  0
 18 21  2  0
 19 21  1  0
 20 22  2  0
 20 23  1  0
 22 24  1  0
 23 25  1  0
 24 25  2  0
M  END
