x0831_0-x1385_1-x1334_1-x1334_0-x0397_0
     RDKit          3D

 27 30  0  0  0  0  0  0  0  0999 V2000
    6.3760   -3.2210   19.8260 C   0  0  0  0  0  0  0  0  0  0  0  0
    7.3840   -2.9850   18.7200 C   0  0  0  0  0  0  0  0  0  0  0  0
    5.3950   -3.9400   19.6260 O   0  0  0  0  0  0  0  0  0  0  0  0
    6.6250   -2.6460   21.0540 N   0  0  0  0  0  0  0  0  0  0  0  0
    6.8950   -3.6160   22.1260 C   0  0  1  0  0  0  0  0  0  0  0  0
    7.5520   -1.5020   21.0550 C   0  0  0  0  0  0  0  0  0  0  0  0
    7.4300   -2.9430   23.4090 C   0  0  0  0  0  0  0  0  0  0  0  0
    8.7440   -1.7560   21.7390 C   0  0  0  0  0  0  0  0  0  0  0  0
    5.8020   -4.5860   22.4280 C   0  0  0  0  0  0  0  0  0  0  0  0
    8.4600   -1.9570   23.1500 N   0  0  0  0  0  0  0  0  0  0  0  0
    6.2070   -5.6050   23.0680 C   0  0  0  0  0  0  0  0  0  0  0  0
    5.7950   -6.1680   21.9810 C   0  0  0  0  0  0  0  0  0  0  0  0
    9.5410   -2.0290   23.9480 C   0  0  1  0  0  0  0  0  0  0  0  0
   10.1270   -3.3880   23.9610 C   0  0  0  0  0  0  0  0  0  0  0  0
   10.5440   -0.8460   23.7060 C   0  0  0  0  0  0  0  0  0  0  0  0
   10.2210    0.4450   24.0970 C   0  0  0  0  0  0  0  0  0  0  0  0
   11.8230   -0.9810   23.0870 C   0  0  0  0  0  0  0  0  0  0  0  0
    9.5000   -4.2220   25.1140 C   0  0  0  0  0  0  0  0  0  0  0  0
   12.3800   -2.2670   22.5700 C   0  0  0  0  0  0  0  0  0  0  0  0
   11.1290    1.6440   23.9080 C   0  0  0  0  0  0  0  0  0  0  0  0
   12.7160    0.2560   22.9160 C   0  0  0  0  0  0  0  0  0  0  0  0
    9.9250   -5.4710   25.3840 C   0  0  0  0  0  0  0  0  0  0  0  0
    8.2410   -3.8070   26.2090 S   0  0  0  0  0  0  0  0  0  0  0  0
   12.3560    1.5380   23.3270 C   0  0  0  0  0  0  0  0  0  0  0  0
    9.3220   -6.0840   26.3990 C   0  0  0  0  0  0  0  0  0  0  0  0
    8.3380   -5.2950   26.9950 C   0  0  0  0  0  0  0  0  0  0  0  0
    7.3230   -5.6760   28.3210 Cl  0  0  0  0  0  0  0  0  0  0  0  0
  1  2  1  0
  1  3  2  0
  1  4  1  0
  4  5  1  0
  4  6  1  0
  5  7  1  0
  6  8  1  0
  5  9  1  1
  7 10  1  0
  8 10  1  0
  9 11  1  0
  9 12  1  0
 11 12  1  0
 10 13  1  0
 13 14  1  6
 13 15  1  0
 15 16  2  0
 15 17  1  0
 14 18  1  0
 17 19  1  0
 16 20  1  0
 17 21  2  0
 18 22  2  0
 18 23  1  0
 20 24  2  0
 21 24  1  0
 22 25  1  0
 23 26  1  0
 25 26  2  0
 26 27  1  0
M  END
