x0831_0-x1334_1-x0770_1-x0692_1
     RDKit          3D

 17 18  0  0  0  0  0  0  0  0999 V2000
    6.3720   -3.3570   19.9350 C   0  0  0  0  0  0  0  0  0  0  0  0
    7.3690   -3.0360   18.8320 C   0  0  0  0  0  0  0  0  0  0  0  0
    5.4350   -4.1520   19.7690 O   0  0  0  0  0  0  0  0  0  0  0  0
    6.6020   -2.7120   21.1540 N   0  0  0  0  0  0  0  0  0  0  0  0
    7.2960   -1.4190   21.2590 C   0  0  0  0  0  0  0  0  0  0  0  0
    6.6100   -3.4470   22.4530 C   0  0  0  0  0  0  0  0  0  0  0  0
    8.7000   -1.6600   21.8380 C   0  0  0  0  0  0  0  0  0  0  0  0
    7.8730   -3.6340   22.9730 C   0  0  0  0  0  0  0  0  0  0  0  0
    8.6980   -2.4120   23.0870 N   0  0  0  0  0  0  0  0  0  0  0  0
   10.0980   -2.5960   23.4970 C   0  0  0  0  0  0  0  0  0  0  0  0
   10.8110   -1.2170   23.5180 C   0  0  0  0  0  0  0  0  0  0  0  0
   10.1700   -0.1540   24.1990 C   0  0  0  0  0  0  0  0  0  0  0  0
   12.0560   -0.9600   22.8920 C   0  0  0  0  0  0  0  0  0  0  0  0
   12.7870   -2.0310   22.1490 C   0  0  0  0  0  0  0  0  0  0  0  0
   10.8320    1.1880   24.2150 C   0  0  0  0  0  0  0  0  0  0  0  0
   12.6630    0.2810   22.9200 C   0  0  0  0  0  0  0  0  0  0  0  0
   12.0430    1.3740   23.5850 C   0  0  0  0  0  0  0  0  0  0  0  0
  1  2  1  0
  1  3  2  0
  1  4  1  0
  4  5  1  0
  4  6  1  0
  5  7  1  0
  6  8  1  0
  7  9  1  0
  8  9  1  0
  9 10  1  0
 10 11  1  0
 11 12  2  0
 11 13  1  0
 13 14  1  0
 12 15  1  0
 13 16  2  0
 15 17  2  0
 16 17  1  0
M  END
