x0831_0-x1334_1-x0689_0-x1412_1-x0692_1
     RDKit          3D

 27 29  0  0  0  0  0  0  0  0999 V2000
    6.3230   -3.4220   20.0140 C   0  0  0  0  0  0  0  0  0  0  0  0
    7.2650   -3.0310   18.8780 C   0  0  0  0  0  0  0  0  0  0  0  0
    5.4170   -4.2380   19.7990 O   0  0  0  0  0  0  0  0  0  0  0  0
    6.5460   -2.8290   21.2640 N   0  0  0  0  0  0  0  0  0  0  0  0
    7.2520   -1.5440   21.2430 C   0  0  0  0  0  0  0  0  0  0  0  0
    6.5690   -3.4960   22.5910 C   0  0  1  0  0  0  0  0  0  0  0  0
    5.9080   -4.9190   22.5870 C   0  0  0  0  0  0  0  0  0  0  0  0
    8.6940   -1.7020   21.7650 C   0  0  0  0  0  0  0  0  0  0  0  0
    8.0260   -3.6000   23.1520 C   0  0  0  0  0  0  0  0  0  0  0  0
    4.5670   -5.0710   23.2900 C   0  0  0  0  0  0  0  0  0  0  0  0
    8.8220   -2.3600   23.0650 N   0  0  0  0  0  0  0  0  0  0  0  0
    4.5210   -5.0310   25.0980 S   0  0  0  0  0  0  0  0  0  0  0  0
   10.1290   -2.4940   23.5720 C   0  0  0  0  0  0  0  0  0  0  0  0
    4.0100   -6.2690   25.6390 O   0  0  0  0  0  0  0  0  0  0  0  0
    5.8560   -4.5230   25.8100 O   0  0  0  0  0  0  0  0  0  0  0  0
    3.3060   -3.8560   25.3600 C   0  0  0  0  0  0  0  0  0  0  0  0
   10.8400   -1.1420   23.5810 C   0  0  0  0  0  0  0  0  0  0  0  0
    3.9120   -2.3110   25.8190 S   0  0  0  0  0  0  0  0  0  0  0  0
    1.9280   -3.8730   25.2820 C   0  0  0  0  0  0  0  0  0  0  0  0
   10.2030   -0.1170   24.2650 C   0  0  0  0  0  0  0  0  0  0  0  0
   12.0730   -0.9570   22.9190 C   0  0  0  0  0  0  0  0  0  0  0  0
   12.7920   -2.0300   22.1630 C   0  0  0  0  0  0  0  0  0  0  0  0
    2.3150   -1.7120   25.8990 C   0  0  0  0  0  0  0  0  0  0  0  0
    1.3540   -2.6630   25.5850 C   0  0  0  0  0  0  0  0  0  0  0  0
   10.9030    1.0940   24.2160 C   0  0  0  0  0  0  0  0  0  0  0  0
   12.7090    0.2770   22.9240 C   0  0  0  0  0  0  0  0  0  0  0  0
   12.1190    1.3270   23.5780 C   0  0  0  0  0  0  0  0  0  0  0  0
  1  2  1  0
  1  3  2  0
  1  4  1  0
  4  5  1  0
  4  6  1  0
  6  7  1  6
  5  8  1  0
  6  9  1  0
  7 10  1  0
  8 11  1  0
  9 11  1  0
 12 10  1  0
 11 13  1  0
 12 14  2  0
 12 15  2  0
 12 16  1  0
 13 17  1  0
 16 18  1  0
 16 19  2  0
 17 20  2  0
 17 21  1  0
 21 22  1  0
 18 23  1  0
 19 24  1  0
 23 24  2  0
 20 25  1  0
 21 26  2  0
 25 27  2  0
 26 27  1  0
M  END
