x0831_0-x1334_0-x1334_1-x1418_1-x0434_2-x1375_1-x1412_1-x0770_1-x0692_1-x0397_0-x1386_1
     RDKit          3D

 38 42  0  0  0  0  0  0  0  0999 V2000
    2.5130   -7.5960   23.6010 O   0  0  0  0  0  0  0  0  0  0  0  0
    3.1560   -7.0560   24.7380 C   0  0  0  0  0  0  0  0  0  0  0  0
    4.5250   -7.3660   24.6790 O   0  0  0  0  0  0  0  0  0  0  0  0
    5.0730   -7.0440   23.4030 C   0  0  0  0  0  0  0  0  0  0  0  0
    5.8580   -5.7800   23.2900 C   0  0  2  0  0  0  0  0  0  0  0  0
    5.6260   -4.6170   22.4730 C   0  0  2  0  0  0  0  0  0  0  0  0
    6.7540   -5.8240   22.1570 C   0  0  0  0  0  0  0  0  0  0  0  0
    6.5430   -3.3580   22.5560 C   0  0  2  0  0  0  0  0  0  0  0  0
    6.6110   -2.6440   21.2600 N   0  0  0  0  0  0  0  0  0  0  0  0
    7.8460   -3.7730   22.9570 C   0  0  0  0  0  0  0  0  0  0  0  0
    6.3950   -3.2520   19.9780 C   0  0  0  0  0  0  0  0  0  0  0  0
    8.9200   -2.7370   22.8840 N   0  0  0  0  0  0  0  0  0  0  0  0
    7.4630   -1.4570   21.4900 C   0  0  2  0  0  0  0  0  0  0  0  0
    7.3300   -2.9800   18.8150 C   0  0  0  0  0  0  0  0  0  0  0  0
    5.4670   -4.0660   19.7570 O   0  0  0  0  0  0  0  0  0  0  0  0
    9.5690   -2.2110   23.9490 C   0  0  1  0  0  0  0  0  0  0  0  0
    7.6340   -0.6820   20.3190 N   0  0  0  0  0  0  0  0  0  0  0  0
    8.8970   -1.8510   21.7870 C   0  0  0  0  0  0  0  0  0  0  0  0
   10.3740   -3.2600   24.5770 C   0  0  0  0  0  0  0  0  0  0  0  0
   10.5130   -0.9880   23.6940 C   0  0  0  0  0  0  0  0  0  0  0  0
    6.6910    0.0700   19.6900 C   0  0  0  0  0  0  0  0  0  0  0  0
   10.1200    0.3040   24.0520 C   0  0  0  0  0  0  0  0  0  0  0  0
   11.9700   -0.9850   23.0590 C   0  0  0  0  0  0  0  0  0  0  0  0
    9.5870   -4.1300   25.4940 C   0  0  0  0  0  0  0  0  0  0  0  0
    6.9930    0.2400   18.4350 C   0  0  0  0  0  0  0  0  0  0  0  0
    5.5380    0.6150   20.2730 C   0  0  0  0  0  0  0  0  0  0  0  0
   12.6300   -2.2380   22.5800 C   0  0  0  0  0  0  0  0  0  0  0  0
   10.8540    1.4830   23.9120 C   0  0  0  0  0  0  0  0  0  0  0  0
   12.7160    0.1700   22.9100 C   0  0  0  0  0  0  0  0  0  0  0  0
   10.0280   -5.4190   25.6990 C   0  0  0  0  0  0  0  0  0  0  0  0
    8.1410   -3.8310   26.4230 S   0  0  0  0  0  0  0  0  0  0  0  0
    6.1790    1.0110   17.5220 N   0  0  0  0  0  0  0  0  0  0  0  0
    4.6440    1.3870   19.5410 C   0  0  0  0  0  0  0  0  0  0  0  0
   12.1200    1.5040   23.3710 C   0  0  0  0  0  0  0  0  0  0  0  0
    9.2410   -6.0650   26.5640 C   0  0  0  0  0  0  0  0  0  0  0  0
    8.1890   -5.3920   27.0760 C   0  0  0  0  0  0  0  0  0  0  0  0
    4.9610    1.6230   18.0710 C   0  0  0  0  0  0  0  0  0  0  0  0
    7.0200   -5.9150   28.2080 Cl  0  0  0  0  0  0  0  0  0  0  0  0
  1  2  1  0
  2  3  1  0
  3  4  1  0
  5  4  1  6
  5  6  1  0
  5  7  1  0
  6  7  1  6
  6  8  1  0
  8  9  1  0
  8 10  1  6
  9 11  1  0
 10 12  1  0
  9 13  1  0
 11 14  1  0
 11 15  2  0
 12 16  1  0
 13 17  1  6
 12 18  1  0
 13 18  1  0
 16 19  1  6
 16 20  1  0
 17 21  1  0
 20 22  2  0
 20 23  1  0
 19 24  1  0
 21 25  2  0
 21 26  1  0
 23 27  1  0
 22 28  1  0
 23 29  2  0
 24 30  2  0
 24 31  1  0
 25 32  1  0
 26 33  2  0
 28 34  2  0
 29 34  1  0
 30 35  1  0
 31 36  1  0
 35 36  2  0
 32 37  2  0
 33 37  1  0
 36 38  1  0
M  END
