x0831_0-x1334_0-x0426_1-x1375_1-x1386_1-x1412_1-x1385_1-x1334_1-x0692_1-x0770_1-x1418_1-x0397_0-x0831_1-x0434_2
     RDKit          3D

 44 49  0  0  0  0  0  0  0  0999 V2000
    2.4870   -7.6160   23.6340 O   0  0  0  0  0  0  0  0  0  0  0  0
    3.1660   -7.1110   24.7620 C   0  0  0  0  0  0  0  0  0  0  0  0
    4.5470   -7.3470   24.6530 O   0  0  0  0  0  0  0  0  0  0  0  0
    5.0470   -7.0790   23.4150 C   0  0  0  0  0  0  0  0  0  0  0  0
    5.7870   -5.8090   23.2850 C   0  0  2  0  0  0  0  0  0  0  0  0
    5.5390   -5.1080   22.0550 C   0  0  2  0  0  0  0  0  0  0  0  0
    6.9190   -5.8560   22.5890 C   0  0  0  0  0  0  0  0  0  0  0  0
    5.1710   -3.6820   22.4600 C   0  0  0  0  0  0  0  0  0  0  0  0
    6.4080   -2.7850   22.3610 C   0  0  2  0  0  0  0  0  0  0  0  0
    6.5340   -2.2500   21.0040 N   0  0  0  0  0  0  0  0  0  0  0  0
    7.6670   -3.1230   22.9040 C   0  0  0  0  0  0  0  0  0  0  0  0
    6.4190   -3.0920   19.8610 C   0  0  0  0  0  0  0  0  0  0  0  0
    8.5740   -1.9700   22.9080 N   0  0  0  0  0  0  0  0  0  0  0  0
    7.5310   -1.1490   21.0330 C   0  0  2  0  0  0  0  0  0  0  0  0
    7.4140   -2.9350   18.7290 C   0  0  0  0  0  0  0  0  0  0  0  0
    5.5440   -3.9790   19.7180 O   0  0  0  0  0  0  0  0  0  0  0  0
    9.6540   -2.0100   23.8410 C   0  0  1  0  0  0  0  0  0  0  0  0
    8.8770   -1.5930   21.5480 C   0  0  0  0  0  0  0  0  0  0  0  0
    7.0090   -0.0900   22.0480 C   0  0  0  0  0  0  0  0  0  0  0  0
   10.2060   -3.3610   23.9950 C   0  0  0  0  0  0  0  0  0  0  0  0
   10.6900   -0.8780   23.6150 C   0  0  0  0  0  0  0  0  0  0  0  0
    6.8460    1.3170   21.4980 C   0  0  2  0  0  0  0  0  0  0  0  0
   10.2390    0.3800   24.0350 C   0  0  0  0  0  0  0  0  0  0  0  0
   11.9910   -0.9810   23.0440 C   0  0  0  0  0  0  0  0  0  0  0  0
    9.5470   -4.1810   25.0990 C   0  0  0  0  0  0  0  0  0  0  0  0
    5.9980    2.2270   22.4100 C   0  0  0  0  0  0  0  0  0  0  0  0
    6.0440    1.2400   20.2690 C   0  0  0  0  0  0  0  0  0  0  0  0
   12.6050   -2.2450   22.5400 C   0  0  0  0  0  0  0  0  0  0  0  0
   10.9260    1.5590   23.9610 C   0  0  0  0  0  0  0  0  0  0  0  0
   12.8680    0.2730   22.9060 C   0  0  0  0  0  0  0  0  0  0  0  0
    9.9290   -5.4290   25.3810 C   0  0  0  0  0  0  0  0  0  0  0  0
    8.1900   -3.7820   26.2610 S   0  0  0  0  0  0  0  0  0  0  0  0
    4.5450    1.8090   22.3540 C   0  0  1  0  0  0  0  0  0  0  0  0
    4.7200    1.6400   20.1190 C   0  0  0  0  0  0  0  0  0  0  0  0
    6.7790    0.7060   19.2400 C   0  0  0  0  0  0  0  0  0  0  0  0
   12.2380    1.6060   23.4150 C   0  0  0  0  0  0  0  0  0  0  0  0
    9.2320   -6.0940   26.4720 C   0  0  0  0  0  0  0  0  0  0  0  0
    8.2920   -5.3340   27.0270 C   0  0  0  0  0  0  0  0  0  0  0  0
    3.9410    2.3310   23.4570 N   0  0  0  0  0  0  0  0  0  0  0  0
    3.9980    2.1460   21.1130 C   0  0  0  0  0  0  0  0  0  0  0  0
    4.1960    1.4850   18.8800 C   0  0  0  0  0  0  0  0  0  0  0  0
    6.4060    0.4960   18.0050 N   0  0  0  0  0  0  0  0  0  0  0  0
    7.2590   -5.7390   28.3290 Cl  0  0  0  0  0  0  0  0  0  0  0  0
    5.1020    0.8850   17.7920 C   0  0  0  0  0  0  0  0  0  0  0  0
  1  2  1  0
  2  3  1  0
  3  4  1  0
  5  4  1  6
  5  6  1  0
  5  7  1  0
  6  7  1  0
  6  8  1  1
  9  8  1  6
  9 10  1  0
  9 11  1  0
 10 12  1  0
 11 13  1  0
 10 14  1  0
 12 15  1  0
 12 16  2  0
 13 17  1  0
 13 18  1  0
 14 18  1  0
 14 19  1  1
 17 20  1  6
 17 21  1  0
 22 19  1  1
 21 23  2  0
 21 24  1  0
 20 25  1  0
 22 26  1  0
 22 27  1  0
 24 28  1  0
 23 29  1  0
 24 30  2  0
 25 31  2  0
 25 32  1  0
 26 33  1  0
 27 34  2  0
 27 35  1  0
 29 36  2  0
 30 36  1  0
 31 37  1  0
 32 38  1  0
 37 38  2  0
 33 39  1  1
 33 40  1  0
 34 40  1  0
 34 41  1  0
 35 42  2  0
 38 43  1  0
 41 44  2  0
 42 44  1  0
M  END
