x0831_0-x0540_3-x0692_1-x1375_1
     RDKit          3D

 31 33  0  0  0  0  0  0  0  0999 V2000
    5.1250    0.2120   21.2620 C   0  0  0  0  0  0  0  0  0  0  0  0
    5.2390    1.5780   21.9340 C   0  0  0  0  0  0  0  0  0  0  0  0
    4.2500    1.9410   22.7390 N   0  0  0  0  0  0  0  0  0  0  0  0
    5.9180   -0.8380   22.0210 C   0  0  0  0  0  0  0  0  0  0  0  0
    6.9420   -1.5410   21.3380 C   0  0  1  0  0  0  0  0  0  0  0  0
    3.2280    2.2750   23.5870 C   0  0  0  0  0  0  0  0  0  0  0  0
    8.2590   -1.3270   21.7810 C   0  0  0  0  0  0  0  0  0  0  0  0
    6.5210   -2.8260   21.2190 N   0  0  0  0  0  0  0  0  0  0  0  0
    2.6510    1.5960   24.4760 O   0  0  0  0  0  0  0  0  0  0  0  0
    6.2560   -3.3290   19.9400 C   0  0  0  0  0  0  0  0  0  0  0  0
    8.4810   -1.8430   23.1410 N   0  0  0  0  0  0  0  0  0  0  0  0
    7.2590   -3.6190   22.2100 C   0  0  2  0  0  0  0  0  0  0  0  0
    5.3130   -4.0900   19.7150 O   0  0  0  0  0  0  0  0  0  0  0  0
    7.2120   -2.9770   18.8170 C   0  0  0  0  0  0  0  0  0  0  0  0
    9.8830   -2.2180   23.4000 C   0  0  0  0  0  0  0  0  0  0  0  0
    6.6170   -4.9910   22.3410 C   0  0  0  0  0  0  0  0  0  0  0  0
    7.5510   -2.9370   23.3700 C   0  0  0  0  0  0  0  0  0  0  0  0
   10.7740   -1.0070   23.3840 C   0  0  0  0  0  0  0  0  0  0  0  0
    5.1280   -4.9570   22.6790 C   0  0  2  0  0  0  0  0  0  0  0  0
   10.2670    0.2470   24.0230 C   0  0  0  0  0  0  0  0  0  0  0  0
   12.0410   -0.9380   22.8050 C   0  0  0  0  0  0  0  0  0  0  0  0
    4.8900   -4.3860   23.9190 C   0  0  0  0  0  0  0  0  0  0  0  0
    4.7390   -6.4380   22.7870 C   0  0  0  0  0  0  0  0  0  0  0  0
   12.7090   -2.1760   22.0850 C   0  0  0  0  0  0  0  0  0  0  0  0
   10.9260    1.4250   24.0710 C   0  0  0  0  0  0  0  0  0  0  0  0
   12.7750    0.2480   22.8270 C   0  0  0  0  0  0  0  0  0  0  0  0
    4.1840   -5.1280   24.9050 C   0  0  0  0  0  0  0  0  0  0  0  0
    3.7560   -6.6710   24.3240 S   0  0  0  0  0  0  0  0  0  0  0  0
    2.1710   -6.8680   23.9060 O   0  0  0  0  0  0  0  0  0  0  0  0
    4.3570   -7.8830   25.1270 O   0  0  0  0  0  0  0  0  0  0  0  0
   12.3470    1.6030   23.4430 C   0  0  0  0  0  0  0  0  0  0  0  0
  1  2  1  0
  2  3  1  0
  1  4  1  0
  5  4  1  1
  3  6  1  0
  5  7  1  0
  5  8  1  0
  6  9  2  0
  8 10  1  0
  7 11  1  0
  8 12  1  0
 10 13  2  0
 10 14  1  0
 11 15  1  0
 12 16  1  1
 11 17  1  0
 12 17  1  0
 15 18  1  0
 19 16  1  1
 18 20  2  0
 18 21  1  0
 19 22  1  0
 19 23  1  0
 21 24  1  0
 20 25  1  0
 21 26  2  0
 22 27  2  0
 23 28  1  0
 27 28  1  0
 28 29  1  0
 28 30  1  0
 25 31  2  0
 26 31  1  0
M  END
