x0831_0-x0072_0-x1386_1
     RDKit          3D

 22 23  0  0  0  0  0  0  0  0999 V2000
    7.2660   -3.3350   24.6440 N   0  0  0  0  0  0  0  0  0  0  0  0
    7.8820   -4.2320   25.9530 S   0  0  0  0  0  0  0  0  0  0  0  0
    6.4810   -5.2000   26.4850 C   0  0  0  0  0  0  0  0  0  0  0  0
    7.8100   -3.2900   23.2740 C   0  0  2  0  0  0  0  0  0  0  0  0
    8.9020   -5.1460   25.5160 O   0  0  0  0  0  0  0  0  0  0  0  0
    8.1570   -3.2740   26.9980 O   0  0  0  0  0  0  0  0  0  0  0  0
    8.6810   -2.1150   23.0700 N   0  0  0  0  0  0  0  0  0  0  0  0
    6.5580   -3.2580   22.3680 C   0  0  0  0  0  0  0  0  0  0  0  0
    9.9280   -2.2140   23.6180 C   0  0  0  0  0  0  0  0  0  0  0  0
    8.8410   -1.7350   21.6640 C   0  0  0  0  0  0  0  0  0  0  0  0
    6.6470   -2.5090   21.0770 N   0  0  0  0  0  0  0  0  0  0  0  0
    6.4010   -3.1840   19.8720 C   0  0  0  0  0  0  0  0  0  0  0  0
    7.6160   -1.4090   21.0570 C   0  0  0  0  0  0  0  0  0  0  0  0
   10.7540   -0.9490   23.5200 C   0  0  0  0  0  0  0  0  0  0  0  0
    7.3510   -2.9670   18.7190 C   0  0  0  0  0  0  0  0  0  0  0  0
    5.4630   -3.9880   19.7030 O   0  0  0  0  0  0  0  0  0  0  0  0
   10.2650    0.2130   24.1790 C   0  0  0  0  0  0  0  0  0  0  0  0
   11.9740   -0.8830   22.8150 C   0  0  0  0  0  0  0  0  0  0  0  0
   12.5680   -2.0590   22.0750 C   0  0  0  0  0  0  0  0  0  0  0  0
   11.0110    1.3980   24.1090 C   0  0  0  0  0  0  0  0  0  0  0  0
   12.6990    0.3010   22.7720 C   0  0  0  0  0  0  0  0  0  0  0  0
   12.2230    1.4560   23.4160 C   0  0  0  0  0  0  0  0  0  0  0  0
  2  1  1  0
  2  3  1  0
  4  1  1  1
  2  5  2  0
  2  6  2  0
  4  7  1  0
  4  8  1  0
  7  9  1  0
  7 10  1  0
  8 11  1  0
 11 12  1  0
 10 13  1  0
 11 13  1  0
  9 14  1  0
 12 15  1  0
 12 16  2  0
 14 17  2  0
 14 18  1  0
 18 19  1  0
 17 20  1  0
 18 21  2  0
 20 22  2  0
 21 22  1  0
M  END
