x0831_0-x1385_1-x0692_1
     RDKit          3D

 17 18  0  0  0  0  0  0  0  0999 V2000
    6.3440   -3.2970   19.9350 C   0  0  0  0  0  0  0  0  0  0  0  0
    7.3110   -2.9970   18.7960 C   0  0  0  0  0  0  0  0  0  0  0  0
    5.4250   -4.1030   19.7410 O   0  0  0  0  0  0  0  0  0  0  0  0
    6.5670   -2.6500   21.1550 N   0  0  0  0  0  0  0  0  0  0  0  0
    6.5280   -3.4610   22.3840 C   0  0  0  0  0  0  0  0  0  0  0  0
    7.3290   -1.4010   21.2680 C   0  0  0  0  0  0  0  0  0  0  0  0
    7.9250   -3.6280   23.0400 C   0  0  0  0  0  0  0  0  0  0  0  0
    8.7100   -1.6390   21.8770 C   0  0  0  0  0  0  0  0  0  0  0  0
    8.7090   -2.3690   23.1420 N   0  0  0  0  0  0  0  0  0  0  0  0
   10.1160   -2.5500   23.5370 C   0  0  0  0  0  0  0  0  0  0  0  0
   10.8440   -1.2110   23.5340 C   0  0  0  0  0  0  0  0  0  0  0  0
   10.2180   -0.0530   24.2300 C   0  0  0  0  0  0  0  0  0  0  0  0
   12.0780   -0.9860   22.9000 C   0  0  0  0  0  0  0  0  0  0  0  0
   12.8080   -2.0580   22.1580 C   0  0  0  0  0  0  0  0  0  0  0  0
   10.8380    1.1850   24.2330 C   0  0  0  0  0  0  0  0  0  0  0  0
   12.6770    0.2800   22.9350 C   0  0  0  0  0  0  0  0  0  0  0  0
   12.1050    1.3780   23.5740 C   0  0  0  0  0  0  0  0  0  0  0  0
  1  2  1  0
  1  3  2  0
  1  4  1  0
  4  5  1  0
  4  6  1  0
  5  7  1  0
  6  8  1  0
  7  9  1  0
  8  9  1  0
  9 10  1  0
 10 11  1  0
 11 12  2  0
 11 13  1  0
 13 14  1  0
 12 15  1  0
 13 16  2  0
 15 17  2  0
 16 17  1  0
M  END
