x0831_0-x1385_1-x0397_0-x1386_1-x0769_1
     RDKit          3D

 31 34  0  0  0  0  0  0  0  0999 V2000
    6.4120   -3.2700   19.9170 C   0  0  0  0  0  0  0  0  0  0  0  0
    7.3580   -2.9860   18.7490 C   0  0  0  0  0  0  0  0  0  0  0  0
    5.4660   -4.0670   19.7340 O   0  0  0  0  0  0  0  0  0  0  0  0
    6.6600   -2.6410   21.1470 N   0  0  0  0  0  0  0  0  0  0  0  0
    6.5870   -3.3140   22.4510 C   0  0  2  0  0  0  0  0  0  0  0  0
    7.5640   -1.4690   21.1640 C   0  0  0  0  0  0  0  0  0  0  0  0
    7.9900   -3.6220   23.0340 C   0  0  0  0  0  0  0  0  0  0  0  0
    8.8030   -1.8110   21.7120 C   0  0  0  0  0  0  0  0  0  0  0  0
    5.7640   -4.5860   22.3330 C   0  0  2  0  0  0  0  0  0  0  0  0
    8.7570   -2.3690   23.0690 N   0  0  0  0  0  0  0  0  0  0  0  0
    5.8600   -5.4920   23.2620 C   0  0  2  0  0  0  0  0  0  0  0  0
    6.4350   -6.0900   22.2140 C   0  0  0  0  0  0  0  0  0  0  0  0
    4.6800   -5.9600   24.0620 C   0  0  0  0  0  0  0  0  0  0  0  0
   10.0590   -2.4520   23.5220 C   0  0  0  0  0  0  0  0  0  0  0  0
    4.6480   -5.4610   25.7570 S   0  0  0  0  0  0  0  0  0  0  0  0
   10.7650   -1.1190   23.5660 C   0  0  0  0  0  0  0  0  0  0  0  0
    5.9630   -5.2250   26.2990 O   0  0  0  0  0  0  0  0  0  0  0  0
    3.8040   -6.5250   26.2510 O   0  0  0  0  0  0  0  0  0  0  0  0
    3.7170   -4.0250   25.8230 C   0  0  0  0  0  0  0  0  0  0  0  0
   10.1900    0.0050   24.2430 C   0  0  0  0  0  0  0  0  0  0  0  0
   12.0240   -0.9550   22.9160 C   0  0  0  0  0  0  0  0  0  0  0  0
   12.6960   -2.0680   22.1790 C   0  0  0  0  0  0  0  0  0  0  0  0
    2.3160   -4.1320   25.6880 C   0  0  0  0  0  0  0  0  0  0  0  0
    4.3430   -2.7510   26.0170 C   0  0  0  0  0  0  0  0  0  0  0  0
   10.9160    1.1650   24.1970 C   0  0  0  0  0  0  0  0  0  0  0  0
   12.6950    0.2750   22.9340 C   0  0  0  0  0  0  0  0  0  0  0  0
    5.6670   -2.6200   26.1490 F   0  0  0  0  0  0  0  0  0  0  0  0
    1.3960   -2.8670   25.7490 C   0  0  0  0  0  0  0  0  0  0  0  0
    3.4890   -1.4740   26.0830 C   0  0  0  0  0  0  0  0  0  0  0  0
   12.1300    1.3490   23.5780 C   0  0  0  0  0  0  0  0  0  0  0  0
    1.9740   -1.6200   25.9390 C   0  0  0  0  0  0  0  0  0  0  0  0
  1  2  1  0
  1  3  2  0
  1  4  1  0
  4  5  1  0
  4  6  1  0
  5  7  1  6
  6  8  1  0
  5  9  1  0
  7 10  1  0
  8 10  1  0
  9 11  1  0
  9 12  1  6
 11 12  1  0
 11 13  1  6
 10 14  1  0
 15 13  1  0
 14 16  1  0
 15 17  2  0
 15 18  2  0
 15 19  1  0
 16 20  2  0
 16 21  1  0
 21 22  1  0
 19 23  2  0
 19 24  1  0
 20 25  1  0
 21 26  2  0
 24 27  1  0
 23 28  1  0
 24 29  2  0
 25 30  2  0
 26 30  1  0
 28 31  2  0
 29 31  1  0
M  END
