x0831_0-x1334_1-x1334_0-x1386_1-x0769_1
     RDKit          3D

 36 39  0  0  0  0  0  0  0  0999 V2000
    6.3580   -3.2960   19.8800 C   0  0  0  0  0  0  0  0  0  0  0  0
    7.3360   -2.9960   18.7690 C   0  0  0  0  0  0  0  0  0  0  0  0
    5.4010   -4.0630   19.7050 O   0  0  0  0  0  0  0  0  0  0  0  0
    6.5520   -2.7360   21.1500 N   0  0  0  0  0  0  0  0  0  0  0  0
    7.3510   -1.4980   21.1820 C   0  0  0  0  0  0  0  0  0  0  0  0
    6.7370   -3.7340   22.2210 C   0  0  0  0  0  0  0  0  0  0  0  0
    8.6030   -1.7120   22.0080 C   0  0  0  0  0  0  0  0  0  0  0  0
    7.7180   -3.5370   23.2460 C   0  0  0  0  0  0  0  0  0  0  0  0
    8.2980   -2.0920   23.3070 C   0  0  0  0  0  0  0  0  0  0  0  0
    7.2760   -1.1250   23.9690 C   0  0  0  0  0  0  0  0  0  0  0  0
    9.5940   -2.0040   24.1340 C   0  0  1  0  0  0  0  0  0  0  0  0
    5.8090   -1.6680   24.1120 C   0  0  0  0  0  0  0  0  0  0  0  0
   10.2750   -3.2960   24.2370 C   0  0  0  0  0  0  0  0  0  0  0  0
   10.6160   -0.8900   23.7750 C   0  0  0  0  0  0  0  0  0  0  0  0
    5.5730   -2.2890   25.4030 O   0  0  0  0  0  0  0  0  0  0  0  0
   10.2160    0.4670   24.2960 C   0  0  0  0  0  0  0  0  0  0  0  0
   11.8480   -0.9810   23.0420 C   0  0  0  0  0  0  0  0  0  0  0  0
    9.6850   -4.2300   25.2440 C   0  0  0  0  0  0  0  0  0  0  0  0
   12.4230   -2.2170   22.4330 C   0  0  0  0  0  0  0  0  0  0  0  0
    4.2540   -2.5310   25.6580 C   0  0  0  0  0  0  0  0  0  0  0  0
   10.9640    1.5530   24.0910 C   0  0  0  0  0  0  0  0  0  0  0  0
   12.6100    0.1560   22.8500 C   0  0  0  0  0  0  0  0  0  0  0  0
    9.9890   -5.5200   25.4720 C   0  0  0  0  0  0  0  0  0  0  0  0
    8.4470   -3.7730   26.3460 S   0  0  0  0  0  0  0  0  0  0  0  0
    3.7680   -3.8440   25.7800 C   0  0  0  0  0  0  0  0  0  0  0  0
    3.2270   -1.4190   25.8180 C   0  0  0  0  0  0  0  0  0  0  0  0
   12.1590    1.5070   23.3960 C   0  0  0  0  0  0  0  0  0  0  0  0
    9.3110   -6.1420   26.4730 C   0  0  0  0  0  0  0  0  0  0  0  0
    8.4020   -5.2980   27.0810 C   0  0  0  0  0  0  0  0  0  0  0  0
    4.7780   -5.2150   25.6420 S   0  0  0  0  0  0  0  0  0  0  0  0
    7.3480   -5.6530   28.3800 Cl  0  0  0  0  0  0  0  0  0  0  0  0
    2.2620   -4.0020   26.0480 C   0  0  0  0  0  0  0  0  0  0  0  0
    1.8740   -1.5700   26.0630 C   0  0  0  0  0  0  0  0  0  0  0  0
    5.8570   -5.0720   26.5900 O   0  0  0  0  0  0  0  0  0  0  0  0
    3.9370   -6.3930   25.6280 O   0  0  0  0  0  0  0  0  0  0  0  0
    1.2950   -2.7820   26.1900 C   0  0  0  0  0  0  0  0  0  0  0  0
  1  2  1  0
  1  3  2  0
  1  4  1  0
  4  5  1  0
  4  6  1  0
  5  7  1  0
  6  8  1  0
  7  9  1  0
  8  9  1  0
  9 10  1  0
  9 11  1  0
 10 12  1  0
 11 13  1  6
 11 14  1  0
 12 15  1  0
 14 16  2  0
 14 17  1  0
 13 18  1  0
 17 19  1  0
 15 20  1  0
 16 21  1  0
 17 22  2  0
 18 23  2  0
 18 24  1  0
 20 25  2  0
 20 26  1  0
 21 27  2  0
 22 27  1  0
 23 28  1  0
 24 29  1  0
 28 29  2  0
 25 30  1  0
 29 31  1  0
 25 32  1  0
 26 33  2  0
 30 34  2  0
 30 35  2  0
 32 36  2  0
 33 36  1  0
M  END
