x0831_0-x1385_1-x0831_1-x0734_0-x0397_0
     RDKit          3D

 30 33  0  0  0  0  0  0  0  0999 V2000
    6.2990   -3.2470   19.9080 C   0  0  0  0  0  0  0  0  0  0  0  0
    7.3240   -2.9920   18.8200 C   0  0  0  0  0  0  0  0  0  0  0  0
    5.4140   -4.0920   19.7240 O   0  0  0  0  0  0  0  0  0  0  0  0
    6.4080   -2.5280   21.0970 N   0  0  0  0  0  0  0  0  0  0  0  0
    6.4140   -3.2180   22.3970 C   0  0  2  0  0  0  0  0  0  0  0  0
    7.2310   -1.3650   21.1060 C   0  0  0  0  0  0  0  0  0  0  0  0
    7.8840   -3.4550   22.8550 C   0  0  0  0  0  0  0  0  0  0  0  0
    8.6440   -1.5170   21.6830 C   0  0  0  0  0  0  0  0  0  0  0  0
    5.4930   -4.4780   22.4950 C   0  0  2  0  0  0  0  0  0  0  0  0
    8.6450   -2.1840   22.9760 N   0  0  0  0  0  0  0  0  0  0  0  0
    5.7920   -5.5620   23.2560 C   0  0  2  0  0  0  0  0  0  0  0  0
    6.0210   -5.9770   21.9130 C   0  0  0  0  0  0  0  0  0  0  0  0
    4.6940   -6.2620   23.9760 C   0  0  0  0  0  0  0  0  0  0  0  0
    9.9580   -2.3600   23.3510 C   0  0  0  0  0  0  0  0  0  0  0  0
    4.6310   -5.9720   25.4260 N   0  0  0  0  0  0  0  0  0  0  0  0
   10.6890   -1.0400   23.4200 C   0  0  0  0  0  0  0  0  0  0  0  0
    5.2420   -4.9230   25.8400 N   0  0  0  0  0  0  0  0  0  0  0  0
   10.2110    0.0660   24.0950 C   0  0  0  0  0  0  0  0  0  0  0  0
   11.9340   -0.9040   22.7700 C   0  0  0  0  0  0  0  0  0  0  0  0
    4.6670   -3.9510   26.4470 O   0  0  0  0  0  0  0  0  0  0  0  0
   12.5610   -2.0230   21.9980 C   0  0  0  0  0  0  0  0  0  0  0  0
    6.6730   -5.1270   26.0910 C   0  0  0  0  0  0  0  0  0  0  0  0
   10.8920    1.2660   24.1480 C   0  0  0  0  0  0  0  0  0  0  0  0
   12.6420    0.2870   22.8150 C   0  0  0  0  0  0  0  0  0  0  0  0
    7.6200   -4.8840   25.0940 C   0  0  0  0  0  0  0  0  0  0  0  0
    7.0080   -5.5650   27.3340 C   0  0  0  0  0  0  0  0  0  0  0  0
   12.1560    1.3980   23.4910 C   0  0  0  0  0  0  0  0  0  0  0  0
    8.9770   -5.0500   25.2080 C   0  0  0  0  0  0  0  0  0  0  0  0
    8.3220   -5.7720   27.5910 C   0  0  0  0  0  0  0  0  0  0  0  0
    9.2630   -5.5230   26.5570 C   0  0  0  0  0  0  0  0  0  0  0  0
  1  2  1  0
  1  3  2  0
  1  4  1  0
  4  5  1  0
  4  6  1  0
  5  7  1  6
  6  8  1  0
  5  9  1  0
  7 10  1  0
  8 10  1  0
  9 11  1  0
  9 12  1  6
 11 12  1  0
 11 13  1  6
 10 14  1  0
 13 15  1  0
 14 16  1  0
 15 17  2  3
 16 18  2  0
 16 19  1  0
 17 20  1  0
 19 21  1  0
 17 22  1  0
 18 23  1  0
 19 24  2  0
 22 25  2  0
 22 26  1  0
 23 27  2  0
 24 27  1  0
 25 28  1  0
 26 29  2  0
 28 30  2  0
 29 30  1  0
M  CHG  2  17   1  20  -1
M  END
