x0831_0-x1334_0-x0770_1-x0434_2-x1375_1-x1334_1-x0831_1-x1412_1-x1385_1-x1418_1-x0426_1-x0692_1-x0397_0
     RDKit          3D

 43 48  0  0  0  0  0  0  0  0999 V2000
    2.5060   -7.1620   24.2900 O   0  0  0  0  0  0  0  0  0  0  0  0
    3.4650   -6.8680   25.2860 C   0  0  0  0  0  0  0  0  0  0  0  0
    4.7660   -6.9390   24.7400 O   0  0  0  0  0  0  0  0  0  0  0  0
    5.3760   -5.7090   24.3210 C   0  0  0  0  0  0  0  0  0  0  0  0
    5.6430   -5.7820   22.8560 C   0  0  1  0  0  0  0  0  0  0  0  0
    5.8540   -4.7240   22.1160 C   0  0  2  0  0  0  0  0  0  0  0  0
    6.7660   -6.0630   22.3990 C   0  0  0  0  0  0  0  0  0  0  0  0
    6.3950   -3.3280   22.4010 C   0  0  2  0  0  0  0  0  0  0  0  0
    6.4030   -2.5780   21.1240 N   0  0  0  0  0  0  0  0  0  0  0  0
    7.6870   -3.4160   22.9330 C   0  0  0  0  0  0  0  0  0  0  0  0
    6.2710   -3.2730   19.9130 C   0  0  0  0  0  0  0  0  0  0  0  0
    8.3350   -2.0890   23.0160 N   0  0  0  0  0  0  0  0  0  0  0  0
    7.1610   -1.3060   21.0430 C   0  0  1  0  0  0  0  0  0  0  0  0
    7.2840   -2.9940   18.8020 C   0  0  0  0  0  0  0  0  0  0  0  0
    5.3810   -4.1160   19.7300 O   0  0  0  0  0  0  0  0  0  0  0  0
    6.5790    0.0820   21.4470 C   0  0  1  0  0  0  0  0  0  0  0  0
    9.5010   -2.0050   23.8830 C   0  0  1  0  0  0  0  0  0  0  0  0
    8.5330   -1.5590   21.6800 C   0  0  0  0  0  0  0  0  0  0  0  0
    5.5870    0.1150   22.6380 C   0  0  0  0  0  0  0  0  0  0  0  0
   10.0990   -3.3500   24.0990 C   0  0  0  0  0  0  0  0  0  0  0  0
    7.6850    1.0500   21.9350 C   0  0  0  0  0  0  0  0  0  0  0  0
    6.0430    0.6000   20.2150 C   0  0  0  0  0  0  0  0  0  0  0  0
   10.4230   -0.8670   23.6830 C   0  0  0  0  0  0  0  0  0  0  0  0
    4.7370    1.4400   22.6510 C   0  0  2  0  0  0  0  0  0  0  0  0
    4.7330    1.4340   20.1710 C   0  0  0  0  0  0  0  0  0  0  0  0
    6.7450    0.3270   19.0990 C   0  0  0  0  0  0  0  0  0  0  0  0
   10.0600    0.4190   24.0840 C   0  0  0  0  0  0  0  0  0  0  0  0
   11.7220   -1.0090   23.0900 C   0  0  0  0  0  0  0  0  0  0  0  0
    9.4250   -4.1060   25.1740 C   0  0  0  0  0  0  0  0  0  0  0  0
    3.7920    1.4580   23.7420 N   0  0  0  0  0  0  0  0  0  0  0  0
    3.9210    1.7520   21.3740 C   0  0  0  0  0  0  0  0  0  0  0  0
   12.2760   -2.3030   22.5910 C   0  0  0  0  0  0  0  0  0  0  0  0
    4.4580    1.8450   18.7600 C   0  0  0  0  0  0  0  0  0  0  0  0
    6.4960    0.7080   17.7140 N   0  0  0  0  0  0  0  0  0  0  0  0
   10.9990    1.6340   23.9150 C   0  0  0  0  0  0  0  0  0  0  0  0
   12.6230    0.1830   22.9360 C   0  0  0  0  0  0  0  0  0  0  0  0
    9.9470   -5.4430   25.4240 C   0  0  0  0  0  0  0  0  0  0  0  0
    8.0440   -3.7810   26.3200 S   0  0  0  0  0  0  0  0  0  0  0  0
    5.3450    1.4730   17.6010 C   0  0  0  0  0  0  0  0  0  0  0  0
   12.2510    1.3880   23.3310 C   0  0  0  0  0  0  0  0  0  0  0  0
    9.2720   -6.0540   26.4480 C   0  0  0  0  0  0  0  0  0  0  0  0
    8.2590   -5.3290   27.0280 C   0  0  0  0  0  0  0  0  0  0  0  0
    7.2490   -5.8140   28.3220 Cl  0  0  0  0  0  0  0  0  0  0  0  0
  1  2  1  0
  2  3  1  0
  3  4  1  0
  5  4  1  1
  5  6  1  0
  5  7  1  0
  6  7  1  6
  6  8  1  0
  8  9  1  0
  8 10  1  6
  9 11  1  0
 10 12  1  0
  9 13  1  0
 11 14  1  0
 11 15  2  0
 13 16  1  0
 12 17  1  0
 12 18  1  0
 13 18  1  1
 16 19  1  0
 17 20  1  6
 16 21  1  1
 16 22  1  0
 17 23  1  0
 19 24  1  0
 22 25  2  0
 22 26  1  0
 23 27  2  0
 23 28  1  0
 20 29  1  0
 24 30  1  1
 24 31  1  0
 25 31  1  0
 28 32  1  0
 25 33  1  0
 26 34  2  0
 27 35  1  0
 28 36  2  0
 29 37  2  0
 29 38  1  0
 33 39  2  0
 34 39  1  0
 35 40  2  0
 36 40  1  0
 37 41  1  0
 38 42  1  0
 41 42  2  0
 42 43  1  0
M  END
