x0831_0-x1418_1-x0770_1-x1386_1-x1375_1
     RDKit          3D

 25 27  0  0  0  0  0  0  0  0999 V2000
    6.3010   -3.1620   19.7950 C   0  0  0  0  0  0  0  0  0  0  0  0
    7.3260   -2.9530   18.6890 C   0  0  0  0  0  0  0  0  0  0  0  0
    5.3970   -3.9880   19.6320 O   0  0  0  0  0  0  0  0  0  0  0  0
    6.4450   -2.4340   20.9690 N   0  0  0  0  0  0  0  0  0  0  0  0
    6.4080   -3.1480   22.2220 C   0  0  0  0  0  0  0  0  0  0  0  0
    7.2890   -1.2290   21.0290 C   0  0  0  0  0  0  0  0  0  0  0  0
    7.8120   -3.5990   22.5980 C   0  0  2  0  0  0  0  0  0  0  0  0
    8.5940   -1.4020   21.7870 C   0  0  0  0  0  0  0  0  0  0  0  0
    7.6360   -4.6590   23.7010 C   0  0  0  0  0  0  0  0  0  0  0  0
    8.5890   -2.3540   22.9250 N   0  0  0  0  0  0  0  0  0  0  0  0
    9.9370   -2.5540   23.5040 C   0  0  0  0  0  0  0  0  0  0  0  0
    6.1640   -5.2050   24.0050 C   0  0  1  0  0  0  0  0  0  0  0  0
   10.7190   -1.2400   23.5200 C   0  0  0  0  0  0  0  0  0  0  0  0
    5.0640   -4.2490   24.4230 C   0  0  0  0  0  0  0  0  0  0  0  0
    5.5330   -6.0950   23.1210 C   0  0  0  0  0  0  0  0  0  0  0  0
   10.1470   -0.1530   24.1900 C   0  0  0  0  0  0  0  0  0  0  0  0
   11.9810   -1.0640   22.8860 C   0  0  0  0  0  0  0  0  0  0  0  0
    3.7300   -5.0000   24.3920 C   0  0  0  0  0  0  0  0  0  0  0  0
    4.0440   -6.6060   23.8630 S   0  0  0  0  0  0  0  0  0  0  0  0
   12.6920   -2.1370   22.1340 C   0  0  0  0  0  0  0  0  0  0  0  0
    3.1230   -7.0550   22.8570 O   0  0  0  0  0  0  0  0  0  0  0  0
    4.4030   -7.6570   25.0690 O   0  0  0  0  0  0  0  0  0  0  0  0
   10.7730    1.1330   24.2560 C   0  0  0  0  0  0  0  0  0  0  0  0
   12.6660    0.3220   22.9630 C   0  0  0  0  0  0  0  0  0  0  0  0
   11.9830    1.3110   23.6500 C   0  0  0  0  0  0  0  0  0  0  0  0
  1  2  1  0
  1  3  2  0
  1  4  1  0
  4  5  1  0
  4  6  1  0
  5  7  1  0
  6  8  1  0
  7  9  1  1
  7 10  1  0
  8 10  1  0
 10 11  1  0
 12  9  1  6
 11 13  1  0
 12 14  1  0
 12 15  1  0
 13 16  2  0
 13 17  1  0
 14 18  2  0
 15 19  1  0
 18 19  1  0
 17 20  1  0
 19 21  1  0
 19 22  1  0
 16 23  1  0
 17 24  2  0
 23 25  2  0
 24 25  1  0
M  END
