x0831_0-x1418_1-x1385_1-x0434_2-x1412_1
     RDKit          3D

 24 26  0  0  0  0  0  0  0  0999 V2000
    6.3950   -3.3090   19.8290 C   0  0  0  0  0  0  0  0  0  0  0  0
    7.3760   -3.0450   18.6950 C   0  0  0  0  0  0  0  0  0  0  0  0
    5.4570   -4.1100   19.7420 O   0  0  0  0  0  0  0  0  0  0  0  0
    6.7330   -2.5480   20.9630 N   0  0  0  0  0  0  0  0  0  0  0  0
    6.6360   -3.3490   22.1980 C   0  0  0  0  0  0  0  0  0  0  0  0
    7.8080   -1.5530   20.8650 C   0  0  2  0  0  0  0  0  0  0  0  0
    7.9870   -3.4780   22.9860 C   0  0  0  0  0  0  0  0  0  0  0  0
    8.9330   -1.7480   21.6720 C   0  0  0  0  0  0  0  0  0  0  0  0
    7.5170   -0.0670   20.7090 C   0  0  0  0  0  0  0  0  0  0  0  0
    8.7620   -2.2250   23.0460 N   0  0  0  0  0  0  0  0  0  0  0  0
    7.1200    0.3150   19.3010 C   0  0  0  0  0  0  0  0  0  0  0  0
   10.0510   -2.3820   23.5750 C   0  0  0  0  0  0  0  0  0  0  0  0
    6.0830    0.4810   20.2650 C   0  0  0  0  0  0  0  0  0  0  0  0
    6.4830    0.7360   18.1350 N   0  0  0  0  0  0  0  0  0  0  0  0
   10.8160   -1.0760   23.5380 C   0  0  0  0  0  0  0  0  0  0  0  0
    5.2450    1.1990   17.9240 C   0  0  0  0  0  0  0  0  0  0  0  0
    4.7820    0.9460   20.0970 C   0  0  0  0  0  0  0  0  0  0  0  0
   10.1980    0.0390   24.1720 C   0  0  0  0  0  0  0  0  0  0  0  0
   12.0830   -0.9410   22.8990 C   0  0  0  0  0  0  0  0  0  0  0  0
    4.3360    1.3250   18.8930 C   0  0  0  0  0  0  0  0  0  0  0  0
   12.7440   -2.0940   22.2210 C   0  0  0  0  0  0  0  0  0  0  0  0
   10.9140    1.3680   24.1400 C   0  0  0  0  0  0  0  0  0  0  0  0
   12.7700    0.2810   22.8670 C   0  0  0  0  0  0  0  0  0  0  0  0
   12.1380    1.5090   23.5250 C   0  0  0  0  0  0  0  0  0  0  0  0
  1  2  1  0
  1  3  2  0
  1  4  1  0
  4  5  1  0
  4  6  1  0
  5  7  1  0
  6  8  1  0
  6  9  1  1
  7 10  1  0
  8 10  1  0
  9 11  1  0
 10 12  1  0
 11 13  2  0
 11 14  1  0
 12 15  1  0
 14 16  2  0
 13 17  1  0
 15 18  2  0
 15 19  1  0
 16 20  1  0
 17 20  2  0
 19 21  1  0
 18 22  1  0
 19 23  2  0
 22 24  2  0
 23 24  1  0
M  END
