x0831_0-x0689_1
     RDKit          3D

 19 20  0  0  0  0  0  0  0  0999 V2000
    6.2090   -4.4020   20.5240 C   0  0  0  0  0  0  0  0  0  0  0  0
    7.0870   -3.3870   19.8080 C   0  0  0  0  0  0  0  0  0  0  0  0
    5.2380   -4.8460   19.9530 O   0  0  0  0  0  0  0  0  0  0  0  0
    6.4980   -4.8540   21.8030 N   0  0  0  0  0  0  0  0  0  0  0  0
    6.0080   -6.1640   22.3010 C   0  0  0  0  0  0  0  0  0  0  0  0
    6.7090   -3.8100   22.8360 C   0  0  2  0  0  0  0  0  0  0  0  0
    8.0480   -3.6670   23.4910 C   0  0  0  0  0  0  0  0  0  0  0  0
    4.9500   -6.0210   23.1930 C   0  0  0  0  0  0  0  0  0  0  0  0
    5.7300   -3.8730   23.8350 C   0  0  0  0  0  0  0  0  0  0  0  0
    8.9420   -2.6190   22.8080 C   0  0  0  0  0  0  0  0  0  0  0  0
    5.3660   -5.2140   24.3250 N   0  0  0  0  0  0  0  0  0  0  0  0
   10.3330   -2.5450   23.4670 C   0  0  0  0  0  0  0  0  0  0  0  0
   10.8700   -1.1490   23.5520 C   0  0  0  0  0  0  0  0  0  0  0  0
   10.1880   -0.1110   24.2240 C   0  0  0  0  0  0  0  0  0  0  0  0
   12.1110   -0.9090   22.9160 C   0  0  0  0  0  0  0  0  0  0  0  0
   12.8510   -1.9910   22.1880 C   0  0  0  0  0  0  0  0  0  0  0  0
   10.7250    1.1660   24.2630 C   0  0  0  0  0  0  0  0  0  0  0  0
   12.6990    0.3530   22.9330 C   0  0  0  0  0  0  0  0  0  0  0  0
   12.0610    1.3930   23.5720 C   0  0  0  0  0  0  0  0  0  0  0  0
  1  2  1  0
  1  3  2  0
  1  4  1  0
  4  5  1  0
  4  6  1  0
  6  7  1  1
  5  8  1  0
  6  9  1  0
  7 10  1  0
  8 11  1  0
  9 11  1  0
 10 12  1  0
 12 13  1  0
 13 14  2  0
 13 15  1  0
 15 16  1  0
 14 17  1  0
 15 18  2  0
 17 19  2  0
 18 19  1  0
M  END
