x0831_0-x0820_1-x0771_0
     RDKit          3D

 28 31  0  0  0  0  0  0  0  0999 V2000
    6.3960   -4.1580   20.3990 C   0  0  0  0  0  0  0  0  0  0  0  0
    7.3410   -3.2300   19.6290 C   0  0  0  0  0  0  0  0  0  0  0  0
    5.3100   -4.4110   19.8740 O   0  0  0  0  0  0  0  0  0  0  0  0
    6.7280   -4.7910   21.6050 N   0  0  0  0  0  0  0  0  0  0  0  0
    6.1210   -6.1310   21.6960 C   0  0  0  0  0  0  0  0  0  0  0  0
    7.1470   -4.1350   22.8970 C   0  0  1  0  0  0  0  0  0  0  0  0
    7.3710   -2.5910   22.8190 C   0  0  0  0  0  0  0  0  0  0  0  0
    5.1560   -6.1700   22.8490 C   0  0  0  0  0  0  0  0  0  0  0  0
    6.2630   -4.4490   23.9700 C   0  0  1  0  0  0  0  0  0  0  0  0
    8.7970   -2.2820   22.3010 C   0  0  0  0  0  0  0  0  0  0  0  0
    6.0160   -5.8790   23.9430 N   0  0  0  0  0  0  0  0  0  0  0  0
    6.7910   -4.4250   25.2780 C   0  0  2  0  0  0  0  0  0  0  0  0
    4.9080   -3.7430   23.8750 C   0  0  0  0  0  0  0  0  0  0  0  0
    9.8290   -2.1850   23.4550 C   0  0  0  0  0  0  0  0  0  0  0  0
    5.9550   -4.2760   26.4480 C   0  0  0  0  0  0  0  0  0  0  0  0
    4.0940   -3.4520   25.1240 C   0  0  0  0  0  0  0  0  0  0  0  0
    8.1490   -4.0880   25.4770 C   0  0  0  0  0  0  0  0  0  0  0  0
    4.6550   -3.8190   26.3340 C   0  0  0  0  0  0  0  0  0  0  0  0
    8.7360   -4.1750   26.7540 C   0  0  0  0  0  0  0  0  0  0  0  0
    6.5540   -4.6360   27.7280 C   0  0  0  0  0  0  0  0  0  0  0  0
   10.7220   -0.9580   23.4210 C   0  0  0  0  0  0  0  0  0  0  0  0
    7.9390   -4.5690   27.8200 C   0  0  0  0  0  0  0  0  0  0  0  0
   10.2420    0.2180   23.9270 C   0  0  0  0  0  0  0  0  0  0  0  0
   12.0350   -0.9460   22.8950 C   0  0  0  0  0  0  0  0  0  0  0  0
   12.6900   -2.1580   22.2970 C   0  0  0  0  0  0  0  0  0  0  0  0
   10.9340    1.4080   23.9680 C   0  0  0  0  0  0  0  0  0  0  0  0
   12.7680    0.2550   22.9240 C   0  0  0  0  0  0  0  0  0  0  0  0
   12.2190    1.4280   23.4570 C   0  0  0  0  0  0  0  0  0  0  0  0
  1  2  1  0
  1  3  2  0
  1  4  1  0
  4  5  1  0
  4  6  1  0
  6  7  1  6
  5  8  1  0
  6  9  1  0
  7 10  1  0
  8 11  1  0
  9 11  1  0
  9 12  1  0
  9 13  1  1
 10 14  1  0
 12 15  1  0
 13 16  2  0
 12 17  1  6
 15 18  2  0
 16 18  1  0
 17 19  2  0
 15 20  1  0
 14 21  1  0
 19 22  1  0
 20 22  2  0
 21 23  2  0
 21 24  1  0
 24 25  1  0
 23 26  1  0
 24 27  2  0
 26 28  2  0
 27 28  1  0
M  END
