x0831_0-x1418_1-x1334_1-x0770_1-x1386_1
     RDKit          3D

 17 18  0  0  0  0  0  0  0  0999 V2000
    6.3390   -3.3020   19.8530 C   0  0  0  0  0  0  0  0  0  0  0  0
    7.3350   -2.9980   18.7370 C   0  0  0  0  0  0  0  0  0  0  0  0
    5.4120   -4.0980   19.7130 O   0  0  0  0  0  0  0  0  0  0  0  0
    6.5420   -2.6490   21.0680 N   0  0  0  0  0  0  0  0  0  0  0  0
    6.5100   -3.3580   22.3470 C   0  0  0  0  0  0  0  0  0  0  0  0
    7.3700   -1.4480   21.0530 C   0  0  0  0  0  0  0  0  0  0  0  0
    7.8950   -3.5170   22.9870 C   0  0  0  0  0  0  0  0  0  0  0  0
    8.7580   -1.6840   21.6530 C   0  0  0  0  0  0  0  0  0  0  0  0
    8.7300   -2.3210   22.9580 N   0  0  0  0  0  0  0  0  0  0  0  0
   10.0600   -2.4160   23.5790 C   0  0  0  0  0  0  0  0  0  0  0  0
   10.8320   -1.1210   23.5310 C   0  0  0  0  0  0  0  0  0  0  0  0
   10.2500    0.1160   24.1720 C   0  0  0  0  0  0  0  0  0  0  0  0
   12.1880   -0.9530   22.8490 C   0  0  0  0  0  0  0  0  0  0  0  0
   12.8990   -2.0660   22.1580 C   0  0  0  0  0  0  0  0  0  0  0  0
   10.8380    1.3530   24.1750 C   0  0  0  0  0  0  0  0  0  0  0  0
   12.8420    0.3910   22.8590 C   0  0  0  0  0  0  0  0  0  0  0  0
   12.1190    1.5790   23.5480 C   0  0  0  0  0  0  0  0  0  0  0  0
  1  2  1  0
  1  3  2  0
  1  4  1  0
  4  5  1  0
  4  6  1  0
  5  7  1  0
  6  8  1  0
  7  9  1  0
  8  9  1  0
  9 10  1  0
 10 11  1  0
 11 12  2  0
 11 13  1  0
 13 14  1  0
 12 15  1  0
 13 16  2  0
 15 17  2  0
 16 17  1  0
M  END
