x0831_0-x1334_0-x1374_1-x1412_1-x0770_1
     RDKit          3D

 32 35  0  0  0  0  0  0  0  0999 V2000
    6.3600   -3.4270   19.9830 C   0  0  0  0  0  0  0  0  0  0  0  0
    7.3450   -3.0270   18.8850 C   0  0  0  0  0  0  0  0  0  0  0  0
    5.3910   -4.1470   19.7320 O   0  0  0  0  0  0  0  0  0  0  0  0
    6.6000   -2.9910   21.2740 N   0  0  0  0  0  0  0  0  0  0  0  0
    6.8710   -1.5930   21.5580 C   0  0  0  0  0  0  0  0  0  0  0  0
    7.3630   -3.9400   22.1190 C   0  0  2  0  0  0  0  0  0  0  0  0
    6.7170   -5.2890   22.3680 C   0  0  0  0  0  0  0  0  0  0  0  0
    8.3020   -1.3700   22.0620 C   0  0  0  0  0  0  0  0  0  0  0  0
    7.7720   -3.3390   23.4700 C   0  0  0  0  0  0  0  0  0  0  0  0
    8.5640   -2.0760   23.3420 N   0  0  0  0  0  0  0  0  0  0  0  0
    5.2170   -5.2320   22.7030 C   0  0  2  0  0  0  0  0  0  0  0  0
   10.0080   -2.2270   23.4210 C   0  0  2  0  0  0  0  0  0  0  0  0
    5.0490   -4.6120   23.9440 C   0  0  0  0  0  0  0  0  0  0  0  0
    4.8500   -6.5610   22.7570 C   0  0  0  0  0  0  0  0  0  0  0  0
   10.5630   -3.2840   24.4520 C   0  0  0  0  0  0  0  0  0  0  0  0
   10.8320   -0.9510   23.4160 C   0  0  0  0  0  0  0  0  0  0  0  0
    4.2520   -5.3440   24.8000 C   0  0  0  0  0  0  0  0  0  0  0  0
    3.7410   -6.7690   24.0540 S   0  0  0  0  0  0  0  0  0  0  0  0
    2.2610   -6.6680   23.4680 O   0  0  0  0  0  0  0  0  0  0  0  0
    3.9630   -8.0460   24.8830 O   0  0  0  0  0  0  0  0  0  0  0  0
   10.2080    0.2270   23.9270 C   0  0  0  0  0  0  0  0  0  0  0  0
   12.1500   -0.8940   22.9320 C   0  0  0  0  0  0  0  0  0  0  0  0
    9.6760   -4.1120   25.3790 C   0  0  0  0  0  0  0  0  0  0  0  0
   12.8640   -2.0730   22.3690 C   0  0  0  0  0  0  0  0  0  0  0  0
   10.9350    1.3980   23.9320 C   0  0  0  0  0  0  0  0  0  0  0  0
   12.8350    0.3170   22.9620 C   0  0  0  0  0  0  0  0  0  0  0  0
    9.9950   -5.3670   25.6390 C   0  0  0  0  0  0  0  0  0  0  0  0
    8.2470   -3.7000   26.2430 S   0  0  0  0  0  0  0  0  0  0  0  0
   12.2330    1.4510   23.4560 C   0  0  0  0  0  0  0  0  0  0  0  0
    9.2000   -6.0270   26.4970 C   0  0  0  0  0  0  0  0  0  0  0  0
    8.1670   -5.2820   26.9710 C   0  0  0  0  0  0  0  0  0  0  0  0
    6.9530   -5.7240   28.0880 Cl  0  0  0  0  0  0  0  0  0  0  0  0
  1  2  1  0
  1  3  2  0
  1  4  1  0
  4  5  1  0
  4  6  1  0
  6  7  1  1
  5  8  1  0
  6  9  1  0
  8 10  1  0
  9 10  1  0
 11  7  1  1
 10 12  1  0
 11 13  1  0
 11 14  1  0
 12 15  1  1
 12 16  1  0
 13 17  2  0
 14 18  1  0
 17 18  1  0
 18 19  1  0
 18 20  1  0
 16 21  2  0
 16 22  1  0
 15 23  1  0
 22 24  1  0
 21 25  1  0
 22 26  2  0
 23 27  2  0
 23 28  1  0
 25 29  2  0
 26 29  1  0
 27 30  1  0
 28 31  1  0
 30 31  2  0
 31 32  1  0
M  END
