x0831_1-x0107_0
     RDKit          3D

 20 22  0  0  0  0  0  0  0  0999 V2000
   10.0850   -0.7010   22.5440 C   0  0  0  0  0  0  0  0  0  0  0  0
    8.6600   -1.9270   23.1090 C   0  0  2  0  0  0  0  0  0  0  0  0
    7.6320   -2.9530   23.3730 C   0  0  0  0  0  0  0  0  0  0  0  0
    9.6370   -0.3890   22.0100 C   0  0  0  0  0  0  0  0  0  0  0  0
    9.1880   -0.0770   21.4760 C   0  0  0  0  0  0  0  0  0  0  0  0
    7.6000   -0.6190   21.2900 C   0  0  2  0  0  0  0  0  0  0  0  0
    9.5150    0.9360   20.9620 O   0  0  0  0  0  0  0  0  0  0  0  0
    7.0860   -0.1310   20.0810 C   0  0  0  0  0  0  0  0  0  0  0  0
    6.3330   -1.4340   21.3300 C   0  0  0  0  0  0  0  0  0  0  0  0
    7.0660   -3.6990   22.1660 C   0  0  0  0  0  0  0  0  0  0  0  0
    5.8930    0.5030   20.4190 C   0  0  0  0  0  0  0  0  0  0  0  0
    7.4580   -0.1950   18.7440 C   0  0  0  0  0  0  0  0  0  0  0  0
    6.5860   -2.8550   21.0640 N   0  0  0  0  0  0  0  0  0  0  0  0
    5.4530    0.6060   21.8770 C   0  0  0  0  0  0  0  0  0  0  0  0
    6.4550   -3.3550   19.8220 C   0  0  0  0  0  0  0  0  0  0  0  0
    5.1220    1.0500   19.3930 C   0  0  0  0  0  0  0  0  0  0  0  0
    6.7050    0.3260   17.7940 N   0  0  0  0  0  0  0  0  0  0  0  0
    5.8370   -4.3960   19.6120 O   0  0  0  0  0  0  0  0  0  0  0  0
    7.1470   -2.6790   18.6480 C   0  0  0  0  0  0  0  0  0  0  0  0
    5.5750    0.9300   18.0850 C   0  0  0  0  0  0  0  0  0  0  0  0
  2  1  1  6
  2  3  1  0
  1  4  2  0
  4  5  1  0
  2  6  1  0
  5  6  1  0
  5  7  2  0
  6  8  1  6
  6  9  1  0
  3 10  1  0
  8 11  2  0
  8 12  1  0
  9 13  1  0
 10 13  1  0
 11 14  1  0
 13 15  1  0
 11 16  1  0
 12 17  2  0
 15 18  2  0
 15 19  1  0
 16 20  2  0
 17 20  1  0
M  END
