x0831_0-x1385_1-x1334_0-x1412_1-x0397_0
     RDKit          3D

 27 30  0  0  0  0  0  0  0  0999 V2000
    6.3070   -3.3010   19.9620 C   0  0  0  0  0  0  0  0  0  0  0  0
    7.3200   -2.9920   18.8540 C   0  0  0  0  0  0  0  0  0  0  0  0
    5.4190   -4.1310   19.7460 O   0  0  0  0  0  0  0  0  0  0  0  0
    6.4530   -2.6270   21.1810 N   0  0  0  0  0  0  0  0  0  0  0  0
    6.4880   -3.2950   22.4770 C   0  0  2  0  0  0  0  0  0  0  0  0
    7.1240   -1.3320   21.2440 C   0  0  0  0  0  0  0  0  0  0  0  0
    7.9290   -3.5590   22.9560 C   0  0  0  0  0  0  0  0  0  0  0  0
    8.4980   -1.4010   21.8510 C   0  0  0  0  0  0  0  0  0  0  0  0
    5.7030   -4.6200   22.4790 C   0  0  0  0  0  0  0  0  0  0  0  0
    8.6480   -2.2490   23.0550 N   0  0  0  0  0  0  0  0  0  0  0  0
    6.1630   -5.8420   23.0440 C   0  0  0  0  0  0  0  0  0  0  0  0
    6.2270   -5.9450   21.7490 C   0  0  0  0  0  0  0  0  0  0  0  0
   10.0820   -2.4450   23.2740 C   0  0  2  0  0  0  0  0  0  0  0  0
   10.5300   -3.2370   24.4590 C   0  0  0  0  0  0  0  0  0  0  0  0
   10.7750   -1.0780   23.3320 C   0  0  0  0  0  0  0  0  0  0  0  0
   10.0580    0.1350   23.9200 C   0  0  0  0  0  0  0  0  0  0  0  0
   12.0820   -0.9010   22.8550 C   0  0  0  0  0  0  0  0  0  0  0  0
    9.6420   -4.0820   25.3540 C   0  0  0  0  0  0  0  0  0  0  0  0
   12.8670   -2.0080   22.2480 C   0  0  0  0  0  0  0  0  0  0  0  0
   10.8020    1.4530   23.9630 C   0  0  0  0  0  0  0  0  0  0  0  0
   12.7290    0.4330   22.9430 C   0  0  0  0  0  0  0  0  0  0  0  0
    9.9720   -5.3960   25.6610 C   0  0  0  0  0  0  0  0  0  0  0  0
    8.1780   -3.6540   26.1590 S   0  0  0  0  0  0  0  0  0  0  0  0
   12.0890    1.5510   23.4810 C   0  0  0  0  0  0  0  0  0  0  0  0
    9.1470   -6.0740   26.5160 C   0  0  0  0  0  0  0  0  0  0  0  0
    8.1180   -5.2820   26.9080 C   0  0  0  0  0  0  0  0  0  0  0  0
    6.8640   -5.7080   27.9950 Cl  0  0  0  0  0  0  0  0  0  0  0  0
  1  2  1  0
  1  3  2  0
  1  4  1  0
  4  5  1  0
  4  6  1  0
  5  7  1  0
  6  8  1  0
  5  9  1  6
  7 10  1  0
  8 10  1  0
  9 11  1  0
  9 12  1  0
 11 12  1  0
 10 13  1  0
 13 14  1  1
 13 15  1  0
 15 16  2  0
 15 17  1  0
 14 18  1  0
 17 19  1  0
 16 20  1  0
 17 21  2  0
 18 22  2  0
 18 23  1  0
 20 24  2  0
 21 24  1  0
 22 25  1  0
 23 26  1  0
 25 26  2  0
 26 27  1  0
M  END
