x0831_0-x0397_0-x0692_1-x1412_1-x0770_1-x1418_1-x0434_2-x0831_1-x1334_0-x1385_1
     RDKit          3D

 34 38  0  0  0  0  0  0  0  0999 V2000
    6.1820   -3.2730   19.9210 C   0  0  0  0  0  0  0  0  0  0  0  0
    7.0970   -2.9890   18.7480 C   0  0  0  0  0  0  0  0  0  0  0  0
    5.3670   -4.2030   19.7680 O   0  0  0  0  0  0  0  0  0  0  0  0
    6.3620   -2.4830   21.0500 N   0  0  0  0  0  0  0  0  0  0  0  0
    7.1420   -1.3440   21.1330 C   0  0  1  0  0  0  0  0  0  0  0  0
    6.1130   -3.0590   22.3880 C   0  0  2  0  0  0  0  0  0  0  0  0
    8.4480   -1.6970   21.8000 C   0  0  0  0  0  0  0  0  0  0  0  0
    7.2680   -2.9620   23.4300 C   0  0  0  0  0  0  0  0  0  0  0  0
    5.5540   -4.4960   22.3700 C   0  0  0  0  0  0  0  0  0  0  0  0
    7.5570   -0.5460   19.9080 C   0  0  0  0  0  0  0  0  0  0  0  0
    8.2570   -1.9020   23.2390 N   0  0  0  0  0  0  0  0  0  0  0  0
    6.1130   -5.5880   23.1490 C   0  0  0  0  0  0  0  0  0  0  0  0
    6.3930   -5.8600   21.7400 C   0  0  0  0  0  0  0  0  0  0  0  0
    6.8860   -0.0190   18.8110 C   0  0  0  0  0  0  0  0  0  0  0  0
    9.4310   -1.9540   23.9200 C   0  0  1  0  0  0  0  0  0  0  0  0
    6.2140    0.3530   20.0230 C   0  0  0  0  0  0  0  0  0  0  0  0
    6.0970    0.5830   17.8720 N   0  0  0  0  0  0  0  0  0  0  0  0
    9.9010   -3.3430   23.8460 C   0  0  0  0  0  0  0  0  0  0  0  0
   10.4780   -0.8360   23.6190 C   0  0  0  0  0  0  0  0  0  0  0  0
    5.0210    1.3250   17.9840 C   0  0  0  0  0  0  0  0  0  0  0  0
    5.0660    1.1160   20.2770 C   0  0  0  0  0  0  0  0  0  0  0  0
   10.0300    0.4940   24.2590 C   0  0  0  0  0  0  0  0  0  0  0  0
   11.6270   -1.0550   22.8850 C   0  0  0  0  0  0  0  0  0  0  0  0
    9.4070   -4.2120   24.9590 C   0  0  0  0  0  0  0  0  0  0  0  0
    4.4380    1.6260   19.2690 C   0  0  0  0  0  0  0  0  0  0  0  0
   12.0530   -2.3320   22.2510 C   0  0  0  0  0  0  0  0  0  0  0  0
   10.9180    1.7300   24.0910 C   0  0  0  0  0  0  0  0  0  0  0  0
   12.4620   -0.0150   22.7140 C   0  0  0  0  0  0  0  0  0  0  0  0
    9.8900   -5.5940   25.3010 C   0  0  0  0  0  0  0  0  0  0  0  0
    8.1530   -3.7830   26.1080 S   0  0  0  0  0  0  0  0  0  0  0  0
   12.2030    1.4460   23.2840 C   0  0  0  0  0  0  0  0  0  0  0  0
    9.1690   -6.0810   26.4650 C   0  0  0  0  0  0  0  0  0  0  0  0
    8.2290   -5.2480   27.0000 C   0  0  0  0  0  0  0  0  0  0  0  0
    7.2280   -5.5410   28.3560 Cl  0  0  0  0  0  0  0  0  0  0  0  0
  1  2  1  0
  1  3  2  0
  1  4  1  0
  4  5  1  0
  4  6  1  0
  5  7  1  0
  6  8  1  0
  6  9  1  6
  5 10  1  6
  7 11  1  0
  8 11  1  0
  9 12  1  0
  9 13  1  0
 12 13  1  0
 10 14  1  0
 11 15  1  0
 14 16  2  0
 14 17  1  0
 15 18  1  6
 15 19  1  0
 17 20  2  0
 16 21  1  0
 19 22  2  0
 19 23  1  0
 18 24  1  0
 20 25  1  0
 21 25  2  0
 23 26  1  0
 22 27  1  0
 23 28  2  0
 24 29  2  0
 24 30  1  0
 27 31  2  0
 28 31  1  0
 29 32  1  0
 30 33  1  0
 32 33  2  0
 33 34  1  0
M  END
