x0831_0-x0434_2-x1412_1-x1412_0-x0981_1
     RDKit          3D

 44 47  0  0  0  0  0  0  0  0999 V2000
    4.2850   -5.2740   23.2950 C   0  0  0  0  0  0  0  0  0  0  0  0
    2.8970   -5.9120   23.5420 C   0  0  1  0  0  0  0  0  0  0  0  0
    2.6770   -7.1190   22.7240 N   0  0  0  0  0  0  0  0  0  0  0  0
    4.5100   -4.0380   23.6780 N   0  0  0  0  0  0  0  0  0  0  0  0
    2.7360   -6.2440   25.0370 C   0  0  0  0  0  0  0  0  0  0  0  0
    5.8300   -3.3150   23.5110 C   0  0  0  0  0  0  0  0  0  0  0  0
    1.4260   -7.3720   22.1800 C   0  0  0  0  0  0  0  0  0  0  0  0
    3.1210   -7.6830   25.2800 C   0  0  0  0  0  0  0  0  0  0  0  0
    6.7080   -3.7370   22.3070 C   0  0  1  0  0  0  0  0  0  0  0  0
    1.2560   -8.6920   21.4190 C   0  0  0  0  0  0  0  0  0  0  0  0
    0.5020   -6.5750   22.2770 O   0  0  0  0  0  0  0  0  0  0  0  0
    2.4810   -8.3650   26.2740 N   0  0  0  0  0  0  0  0  0  0  0  0
    3.9830   -8.1820   24.5950 O   0  0  0  0  0  0  0  0  0  0  0  0
    6.5650   -2.8230   21.1360 N   0  0  0  0  0  0  0  0  0  0  0  0
    8.2190   -3.6960   22.7220 C   0  0  0  0  0  0  0  0  0  0  0  0
    6.2960   -3.4380   19.9090 C   0  0  0  0  0  0  0  0  0  0  0  0
    8.7390   -2.3260   22.9650 N   0  0  0  0  0  0  0  0  0  0  0  0
    7.4290   -1.6320   20.9520 C   0  0  1  0  0  0  0  0  0  0  0  0
    7.2800   -3.0680   18.7930 C   0  0  0  0  0  0  0  0  0  0  0  0
    5.3660   -4.2270   19.7460 O   0  0  0  0  0  0  0  0  0  0  0  0
   10.1840   -2.3320   23.3090 C   0  0  2  0  0  0  0  0  0  0  0  0
    6.7150   -0.5540   21.2580 N   0  0  0  0  0  0  0  0  0  0  0  0
    8.7620   -1.6390   21.7390 C   0  0  0  0  0  0  0  0  0  0  0  0
   10.3330   -3.0090   24.6210 C   0  0  0  0  0  0  0  0  0  0  0  0
   10.7900   -0.9320   23.3640 C   0  0  0  0  0  0  0  0  0  0  0  0
    6.1740    0.1280   20.1700 C   0  0  0  0  0  0  0  0  0  0  0  0
    8.9250   -2.9320   25.1950 C   0  0  0  0  0  0  0  0  0  0  0  0
   10.0810    0.2930   23.8950 C   0  0  0  0  0  0  0  0  0  0  0  0
   12.1800   -0.7740   22.8650 C   0  0  0  0  0  0  0  0  0  0  0  0
    6.8090    0.0860   18.9360 C   0  0  0  0  0  0  0  0  0  0  0  0
    5.0030    0.8710   20.2400 C   0  0  0  0  0  0  0  0  0  0  0  0
   12.9120   -1.9490   22.3190 C   0  0  0  0  0  0  0  0  0  0  0  0
    8.0920   -2.0560   24.9500 O   0  0  0  0  0  0  0  0  0  0  0  0
   10.8320    1.5870   23.8920 C   0  0  0  0  0  0  0  0  0  0  0  0
   12.8570    0.4040   22.8650 C   0  0  0  0  0  0  0  0  0  0  0  0
    8.7560   -4.0920   26.0780 C   0  0  0  0  0  0  0  0  0  0  0  0
    6.3550    0.7630   17.6920 N   0  0  0  0  0  0  0  0  0  0  0  0
    4.5300    1.5580   19.0040 C   0  0  0  0  0  0  0  0  0  0  0  0
   12.2570    1.6180   23.3570 C   0  0  0  0  0  0  0  0  0  0  0  0
    9.4770   -5.1990   25.8210 C   0  0  0  0  0  0  0  0  0  0  0  0
    7.7470   -4.2930   27.4770 S   0  0  0  0  0  0  0  0  0  0  0  0
    5.2220    1.4760   17.7970 C   0  0  0  0  0  0  0  0  0  0  0  0
    9.2340   -6.2930   26.7840 C   0  0  0  0  0  0  0  0  0  0  0  0
    8.2900   -5.8900   27.7470 C   0  0  0  0  0  0  0  0  0  0  0  0
  2  1  1  1
  2  3  1  0
  1  4  2  3
  2  5  1  0
  4  6  1  0
  3  7  1  0
  5  8  1  0
  9  6  1  1
  7 10  1  0
  7 11  2  0
  8 12  1  0
  8 13  2  0
  9 14  1  0
  9 15  1  0
 14 16  1  0
 15 17  1  0
 14 18  1  0
 16 19  1  0
 16 20  2  0
 17 21  1  0
 18 22  1  1
 17 23  1  0
 18 23  1  0
 21 24  1  1
 21 25  1  0
 22 26  1  0
 24 27  1  0
 25 28  2  0
 25 29  1  0
 26 30  2  0
 26 31  1  0
 29 32  1  0
 27 33  2  0
 28 34  1  0
 29 35  2  0
 27 36  1  0
 30 37  1  0
 31 38  2  0
 34 39  2  0
 35 39  1  0
 36 40  2  0
 36 41  1  0
 37 42  2  0
 38 42  1  0
 40 43  1  0
 41 44  1  0
 43 44  2  0
M  END
