x0831_0-x1334_1-x1418_0-x0692_1
     RDKit          3D

 18 19  0  0  0  0  0  0  0  0999 V2000
    6.3320   -3.2820   19.8990 C   0  0  0  0  0  0  0  0  0  0  0  0
    7.3040   -3.0130   18.7690 C   0  0  0  0  0  0  0  0  0  0  0  0
    5.3920   -4.0690   19.7070 O   0  0  0  0  0  0  0  0  0  0  0  0
    6.6090   -2.6330   21.1000 N   0  0  0  0  0  0  0  0  0  0  0  0
    7.4950   -1.4580   21.1160 C   0  0  0  0  0  0  0  0  0  0  0  0
    6.4970   -3.3350   22.3920 C   0  0  0  0  0  0  0  0  0  0  0  0
    8.8690   -1.7060   21.7570 C   0  0  0  0  0  0  0  0  0  0  0  0
    7.7770   -3.3640   23.2060 C   0  0  0  0  0  0  0  0  0  0  0  0
    8.5880   -2.1240   23.1400 N   0  0  0  0  0  0  0  0  0  0  0  0
    9.7620   -1.9740   24.0150 C   0  0  1  0  0  0  0  0  0  0  0  0
   10.5800   -3.1950   24.0280 C   0  0  0  0  0  0  0  0  0  0  0  0
   10.6750   -0.8070   23.7370 C   0  0  0  0  0  0  0  0  0  0  0  0
   10.2490    0.4350   24.2060 C   0  0  0  0  0  0  0  0  0  0  0  0
   11.9210   -0.8850   23.0450 C   0  0  0  0  0  0  0  0  0  0  0  0
   12.5440   -2.1200   22.4620 C   0  0  0  0  0  0  0  0  0  0  0  0
   10.9880    1.6480   24.0350 C   0  0  0  0  0  0  0  0  0  0  0  0
   12.6790    0.4440   22.8980 C   0  0  0  0  0  0  0  0  0  0  0  0
   12.1920    1.6420   23.3860 C   0  0  0  0  0  0  0  0  0  0  0  0
  1  2  1  0
  1  3  2  0
  1  4  1  0
  4  5  1  0
  4  6  1  0
  5  7  1  0
  6  8  1  0
  7  9  1  0
  8  9  1  0
  9 10  1  0
 10 11  1  6
 10 12  1  0
 12 13  2  0
 12 14  1  0
 14 15  1  0
 13 16  1  0
 14 17  2  0
 16 18  2  0
 17 18  1  0
M  END
