x0831_0-x0981_1-x1412_0-x1412_1-x0434_2
     RDKit          3D

 44 47  0  0  0  0  0  0  0  0999 V2000
    4.1720   -5.2810   23.2700 C   0  0  0  0  0  0  0  0  0  0  0  0
    2.7920   -5.9940   23.5390 C   0  0  1  0  0  0  0  0  0  0  0  0
    2.6140   -7.1860   22.7110 N   0  0  0  0  0  0  0  0  0  0  0  0
    4.5110   -3.9040   23.7180 N   0  0  0  0  0  0  0  0  0  0  0  0
    2.6050   -6.2930   25.0480 C   0  0  0  0  0  0  0  0  0  0  0  0
    5.7780   -3.1660   23.5250 C   0  0  0  0  0  0  0  0  0  0  0  0
    1.3830   -7.4260   22.1280 C   0  0  0  0  0  0  0  0  0  0  0  0
    3.0720   -7.7250   25.2860 C   0  0  0  0  0  0  0  0  0  0  0  0
    6.7130   -3.5990   22.3690 C   0  0  1  0  0  0  0  0  0  0  0  0
    1.2500   -8.7300   21.3810 C   0  0  0  0  0  0  0  0  0  0  0  0
    0.4620   -6.6190   22.1940 O   0  0  0  0  0  0  0  0  0  0  0  0
    2.4360   -8.4140   26.2800 N   0  0  0  0  0  0  0  0  0  0  0  0
    3.9630   -8.2050   24.6280 O   0  0  0  0  0  0  0  0  0  0  0  0
    6.6440   -2.7870   21.1220 N   0  0  0  0  0  0  0  0  0  0  0  0
    8.0460   -3.6310   22.8090 C   0  0  0  0  0  0  0  0  0  0  0  0
    6.3500   -3.3990   19.9190 C   0  0  0  0  0  0  0  0  0  0  0  0
    8.7310   -2.3240   22.9280 N   0  0  0  0  0  0  0  0  0  0  0  0
    7.5570   -1.6440   20.9920 C   0  0  1  0  0  0  0  0  0  0  0  0
    7.2960   -3.0620   18.7690 C   0  0  0  0  0  0  0  0  0  0  0  0
    5.4120   -4.1880   19.7450 O   0  0  0  0  0  0  0  0  0  0  0  0
   10.1510   -2.3920   23.3290 C   0  0  2  0  0  0  0  0  0  0  0  0
    6.7720   -0.4660   21.1950 N   0  0  0  0  0  0  0  0  0  0  0  0
    8.6770   -1.5930   21.6980 C   0  0  0  0  0  0  0  0  0  0  0  0
   10.2720   -3.0320   24.6850 C   0  0  0  0  0  0  0  0  0  0  0  0
   10.8640   -1.0290   23.3320 C   0  0  0  0  0  0  0  0  0  0  0  0
    6.1820    0.1920   20.1200 C   0  0  0  0  0  0  0  0  0  0  0  0
    8.8750   -2.9340   25.2980 C   0  0  0  0  0  0  0  0  0  0  0  0
   10.1360   -0.0320   23.8610 C   0  0  0  0  0  0  0  0  0  0  0  0
   12.2770   -0.8320   22.7950 C   0  0  0  0  0  0  0  0  0  0  0  0
    6.8300    0.1070   18.8870 C   0  0  0  0  0  0  0  0  0  0  0  0
    5.0100    0.9080   20.2190 C   0  0  0  0  0  0  0  0  0  0  0  0
   13.0780   -1.9350   22.1970 C   0  0  0  0  0  0  0  0  0  0  0  0
    8.0660   -2.0470   25.0730 O   0  0  0  0  0  0  0  0  0  0  0  0
   10.6950    1.3690   23.9580 C   0  0  0  0  0  0  0  0  0  0  0  0
   12.8580    0.5960   22.8980 C   0  0  0  0  0  0  0  0  0  0  0  0
    8.7030   -4.1010   26.1920 C   0  0  0  0  0  0  0  0  0  0  0  0
    6.3950    0.6900   17.7560 N   0  0  0  0  0  0  0  0  0  0  0  0
    4.5710    1.5000   19.0610 C   0  0  0  0  0  0  0  0  0  0  0  0
   11.9830    1.6480   23.4980 C   0  0  0  0  0  0  0  0  0  0  0  0
    9.4370   -5.2160   25.9790 C   0  0  0  0  0  0  0  0  0  0  0  0
    7.6590   -4.3230   27.5860 S   0  0  0  0  0  0  0  0  0  0  0  0
    5.2510    1.3920   17.8690 C   0  0  0  0  0  0  0  0  0  0  0  0
    9.2260   -6.2020   26.8310 C   0  0  0  0  0  0  0  0  0  0  0  0
    8.2630   -5.9080   27.8220 C   0  0  0  0  0  0  0  0  0  0  0  0
  2  1  1  1
  2  3  1  0
  1  4  2  3
  2  5  1  0
  4  6  1  0
  3  7  1  0
  5  8  1  0
  9  6  1  1
  7 10  1  0
  7 11  2  0
  8 12  1  0
  8 13  2  0
  9 14  1  0
  9 15  1  0
 14 16  1  0
 15 17  1  0
 14 18  1  0
 16 19  1  0
 16 20  2  0
 17 21  1  0
 18 22  1  1
 17 23  1  0
 18 23  1  0
 21 24  1  1
 21 25  1  0
 22 26  1  0
 24 27  1  0
 25 28  2  0
 25 29  1  0
 26 30  2  0
 26 31  1  0
 29 32  1  0
 27 33  2  0
 28 34  1  0
 29 35  2  0
 27 36  1  0
 30 37  1  0
 31 38  2  0
 34 39  2  0
 35 39  1  0
 36 40  2  0
 36 41  1  0
 37 42  2  0
 38 42  1  0
 40 43  1  0
 41 44  1  0
 43 44  2  0
M  END
