x0831_0-x1334_0-x0434_2-x1374_1-x0692_1-x0397_0-x0770_1-x1386_1-x1385_1-x1334_1-x1412_1
     RDKit          3D

 39 43  0  0  0  0  0  0  0  0999 V2000
    6.2590   -3.2430   19.9130 C   0  0  0  0  0  0  0  0  0  0  0  0
    7.2090   -2.9600   18.7790 C   0  0  0  0  0  0  0  0  0  0  0  0
    5.3840   -4.1200   19.7440 O   0  0  0  0  0  0  0  0  0  0  0  0
    6.4120   -2.5430   21.1260 N   0  0  0  0  0  0  0  0  0  0  0  0
    7.0840   -1.2500   21.2780 C   0  0  1  0  0  0  0  0  0  0  0  0
    6.2820   -3.1930   22.4410 C   0  0  2  0  0  0  0  0  0  0  0  0
    8.3160   -1.4890   21.7580 C   0  0  0  0  0  0  0  0  0  0  0  0
    7.6450   -3.3150   23.1310 C   0  0  0  0  0  0  0  0  0  0  0  0
    5.5180   -4.4870   22.3960 C   0  0  2  0  0  0  0  0  0  0  0  0
    7.6070   -0.5410   20.0290 C   0  0  0  0  0  0  0  0  0  0  0  0
    8.4400   -2.0980   23.0850 N   0  0  0  0  0  0  0  0  0  0  0  0
    5.9210   -5.4760   23.3780 C   0  0  2  0  0  0  0  0  0  0  0  0
    6.0680   -6.0000   22.0200 C   0  0  0  0  0  0  0  0  0  0  0  0
    6.9090   -0.0830   18.9080 C   0  0  0  0  0  0  0  0  0  0  0  0
    9.7820   -2.2960   23.3040 C   0  0  2  0  0  0  0  0  0  0  0  0
    6.3060    0.3960   20.1090 C   0  0  0  0  0  0  0  0  0  0  0  0
    6.0930    0.4710   17.9570 N   0  0  0  0  0  0  0  0  0  0  0  0
    4.9640   -6.0740   24.3620 C   0  0  0  0  0  0  0  0  0  0  0  0
   10.2620   -3.2960   24.2990 C   0  0  0  0  0  0  0  0  0  0  0  0
   10.6300   -1.0080   23.3220 C   0  0  0  0  0  0  0  0  0  0  0  0
    5.0200    1.2620   18.0120 C   0  0  0  0  0  0  0  0  0  0  0  0
    5.1920    1.2050   20.2870 C   0  0  0  0  0  0  0  0  0  0  0  0
    4.5290   -7.1710   23.8060 C   0  0  0  0  0  0  0  0  0  0  0  0
   10.0760    0.1670   23.8540 C   0  0  0  0  0  0  0  0  0  0  0  0
   12.0740   -0.8740   22.8010 C   0  0  0  0  0  0  0  0  0  0  0  0
    9.5300   -4.1690   25.2680 C   0  0  0  0  0  0  0  0  0  0  0  0
    4.4510    1.7090   19.1400 C   0  0  0  0  0  0  0  0  0  0  0  0
    3.9970   -7.9930   24.8160 O   0  0  0  0  0  0  0  0  0  0  0  0
   12.9050   -1.9340   22.1770 C   0  0  0  0  0  0  0  0  0  0  0  0
   10.6860    1.4190   23.9610 C   0  0  0  0  0  0  0  0  0  0  0  0
   12.7680    0.5360   22.9220 C   0  0  0  0  0  0  0  0  0  0  0  0
    9.8710   -5.5120   25.5280 C   0  0  0  0  0  0  0  0  0  0  0  0
    8.1790   -3.7560   26.2750 S   0  0  0  0  0  0  0  0  0  0  0  0
    2.5830   -8.0060   24.7870 C   0  0  0  0  0  0  0  0  0  0  0  0
   12.1280    1.6390   23.4660 C   0  0  0  0  0  0  0  0  0  0  0  0
    9.1510   -6.1070   26.4320 C   0  0  0  0  0  0  0  0  0  0  0  0
    8.1310   -5.3060   27.0100 C   0  0  0  0  0  0  0  0  0  0  0  0
    2.0900   -7.0780   23.8360 O   0  0  0  0  0  0  0  0  0  0  0  0
    6.9990   -5.7050   28.2290 Cl  0  0  0  0  0  0  0  0  0  0  0  0
  1  2  1  0
  1  3  2  0
  1  4  1  0
  4  5  1  0
  4  6  1  0
  5  7  1  0
  6  8  1  6
  6  9  1  0
  5 10  1  6
  7 11  1  0
  8 11  1  0
  9 12  1  0
  9 13  1  6
 12 13  1  0
 10 14  1  0
 11 15  1  0
 14 16  2  0
 14 17  1  0
 12 18  1  1
 15 19  1  1
 15 20  1  0
 17 21  2  0
 16 22  1  0
 18 23  1  0
 20 24  2  0
 20 25  1  0
 19 26  1  0
 21 27  1  0
 22 27  2  0
 23 28  1  0
 25 29  1  0
 24 30  1  0
 25 31  2  0
 26 32  2  0
 26 33  1  0
 28 34  1  0
 30 35  2  0
 31 35  1  0
 32 36  1  0
 33 37  1  0
 36 37  2  0
 34 38  1  0
 37 39  1  0
M  END
