x0831_0-x1334_1-x0981_1-x0426_1-x1412_0
     RDKit          3D

 49 53  0  0  0  0  0  0  0  0999 V2000
    4.2260   -5.3230   23.2340 C   0  0  0  0  0  0  0  0  0  0  0  0
    2.8490   -5.9810   23.5200 C   0  0  1  0  0  0  0  0  0  0  0  0
    2.6080   -7.2050   22.7370 N   0  0  0  0  0  0  0  0  0  0  0  0
    4.3550   -4.0940   23.6560 N   0  0  0  0  0  0  0  0  0  0  0  0
    2.7290   -6.2500   25.0170 C   0  0  0  0  0  0  0  0  0  0  0  0
    5.5660   -3.2380   23.5280 C   0  0  0  0  0  0  0  0  0  0  0  0
    1.3800   -7.4190   22.1460 C   0  0  0  0  0  0  0  0  0  0  0  0
    3.1430   -7.6660   25.2530 C   0  0  0  0  0  0  0  0  0  0  0  0
    6.5760   -3.5860   22.4080 C   0  0  1  0  0  0  0  0  0  0  0  0
    1.2340   -8.7100   21.3800 C   0  0  0  0  0  0  0  0  0  0  0  0
    0.4670   -6.6020   22.2190 O   0  0  0  0  0  0  0  0  0  0  0  0
    2.5090   -8.3290   26.2690 N   0  0  0  0  0  0  0  0  0  0  0  0
    4.0020   -8.1820   24.5780 O   0  0  0  0  0  0  0  0  0  0  0  0
    6.4410   -2.7740   21.2090 N   0  0  0  0  0  0  0  0  0  0  0  0
    7.9960   -3.5620   23.0530 C   0  0  0  0  0  0  0  0  0  0  0  0
    6.2670   -3.4210   19.9630 C   0  0  0  0  0  0  0  0  0  0  0  0
    8.9710   -2.4920   22.6430 N   0  0  0  0  0  0  0  0  0  0  0  0
    7.2040   -1.5480   21.2590 C   0  0  2  0  0  0  0  0  0  0  0  0
    7.2590   -3.0720   18.8450 C   0  0  0  0  0  0  0  0  0  0  0  0
    5.3750   -4.2460   19.7630 O   0  0  0  0  0  0  0  0  0  0  0  0
    9.3310   -1.6250   23.7350 C   0  0  1  0  0  0  0  0  0  0  0  0
    8.6970   -1.8000   21.4300 C   0  0  0  0  0  0  0  0  0  0  0  0
    6.6330   -0.5380   22.2770 C   0  0  0  0  0  0  0  0  0  0  0  0
    9.5610   -2.2920   25.0040 C   0  0  0  0  0  0  0  0  0  0  0  0
   10.4320   -0.6150   23.5560 C   0  0  0  0  0  0  0  0  0  0  0  0
    6.5350    0.9320   21.8480 C   0  0  2  0  0  0  0  0  0  0  0  0
    8.3240   -2.5430   25.5200 C   0  0  0  0  0  0  0  0  0  0  0  0
   10.2670    0.6710   24.0510 C   0  0  0  0  0  0  0  0  0  0  0  0
   11.6820   -0.8710   22.9020 C   0  0  0  0  0  0  0  0  0  0  0  0
    5.6830    1.6950   22.7120 C   0  0  0  0  0  0  0  0  0  0  0  0
    6.0520    0.9620   20.4190 C   0  0  0  0  0  0  0  0  0  0  0  0
   12.0450   -2.1930   22.3030 C   0  0  0  0  0  0  0  0  0  0  0  0
    7.2110   -1.6590   25.3970 O   0  0  0  0  0  0  0  0  0  0  0  0
   11.1940    1.6910   23.9560 C   0  0  0  0  0  0  0  0  0  0  0  0
   12.6400    0.1450   22.8010 C   0  0  0  0  0  0  0  0  0  0  0  0
    8.4060   -3.8930   26.2480 C   0  0  0  0  0  0  0  0  0  0  0  0
    4.1850    1.6170   22.3960 C   0  0  1  0  0  0  0  0  0  0  0  0
    4.8390    1.5500   20.0980 C   0  0  0  0  0  0  0  0  0  0  0  0
    6.8040    0.4080   19.3860 C   0  0  0  0  0  0  0  0  0  0  0  0
   12.3810    1.4080   23.3250 C   0  0  0  0  0  0  0  0  0  0  0  0
    9.1910   -4.9290   25.7740 C   0  0  0  0  0  0  0  0  0  0  0  0
    7.6250   -4.3150   27.7120 S   0  0  0  0  0  0  0  0  0  0  0  0
    3.4410    2.3880   23.3860 N   0  0  0  0  0  0  0  0  0  0  0  0
    3.9540    2.1630   21.1470 C   0  0  0  0  0  0  0  0  0  0  0  0
    4.4450    1.5760   18.7990 C   0  0  0  0  0  0  0  0  0  0  0  0
    6.4310    0.4230   18.0980 N   0  0  0  0  0  0  0  0  0  0  0  0
    9.1800   -6.0310   26.5600 C   0  0  0  0  0  0  0  0  0  0  0  0
    8.3660   -5.8600   27.6690 C   0  0  0  0  0  0  0  0  0  0  0  0
    5.2600    1.0130   17.8560 C   0  0  0  0  0  0  0  0  0  0  0  0
  2  1  1  1
  2  3  1  0
  1  4  2  3
  2  5  1  0
  4  6  1  0
  3  7  1  0
  5  8  1  0
  9  6  1  1
  7 10  1  0
  7 11  2  0
  8 12  1  0
  8 13  2  0
  9 14  1  0
  9 15  1  0
 14 16  1  0
 15 17  1  0
 14 18  1  0
 16 19  1  0
 16 20  2  0
 17 21  1  0
 17 22  1  0
 18 22  1  0
 18 23  1  1
 21 24  1  1
 21 25  1  0
 26 23  1  1
 24 27  1  0
 25 28  2  0
 25 29  1  0
 26 30  1  0
 26 31  1  0
 29 32  1  0
 27 33  2  0
 28 34  1  0
 29 35  2  0
 27 36  1  0
 30 37  1  0
 31 38  2  0
 31 39  1  0
 34 40  2  0
 35 40  1  0
 36 41  2  0
 36 42  1  0
 37 43  1  1
 37 44  1  0
 38 44  1  0
 38 45  1  0
 39 46  2  0
 41 47  1  0
 42 48  1  0
 47 48  2  0
 45 49  2  0
 46 49  1  0
M  END
