x0831_0-x1386_1-x0770_1
     RDKit          3D

 17 18  0  0  0  0  0  0  0  0999 V2000
    6.3740   -3.1610   19.8450 C   0  0  0  0  0  0  0  0  0  0  0  0
    7.3410   -2.9540   18.7010 C   0  0  0  0  0  0  0  0  0  0  0  0
    5.4520   -3.9830   19.6820 O   0  0  0  0  0  0  0  0  0  0  0  0
    6.6010   -2.4390   21.0240 N   0  0  0  0  0  0  0  0  0  0  0  0
    7.5140   -1.2810   20.9400 C   0  0  0  0  0  0  0  0  0  0  0  0
    6.4450   -3.0020   22.3700 C   0  0  0  0  0  0  0  0  0  0  0  0
    8.8500   -1.5950   21.6240 C   0  0  0  0  0  0  0  0  0  0  0  0
    7.7820   -3.1780   23.1270 C   0  0  0  0  0  0  0  0  0  0  0  0
    8.7100   -2.0470   23.0170 N   0  0  0  0  0  0  0  0  0  0  0  0
   10.0510   -2.3200   23.5430 C   0  0  0  0  0  0  0  0  0  0  0  0
   10.8600   -1.0540   23.5090 C   0  0  0  0  0  0  0  0  0  0  0  0
   10.2830    0.1520   24.1550 C   0  0  0  0  0  0  0  0  0  0  0  0
   12.1200   -0.9390   22.8930 C   0  0  0  0  0  0  0  0  0  0  0  0
   12.7880   -2.0900   22.2070 C   0  0  0  0  0  0  0  0  0  0  0  0
   10.9710    1.3460   24.1350 C   0  0  0  0  0  0  0  0  0  0  0  0
   12.7840    0.2940   22.9070 C   0  0  0  0  0  0  0  0  0  0  0  0
   12.2580    1.4430   23.4990 C   0  0  0  0  0  0  0  0  0  0  0  0
  1  2  1  0
  1  3  2  0
  1  4  1  0
  4  5  1  0
  4  6  1  0
  5  7  1  0
  6  8  1  0
  7  9  1  0
  8  9  1  0
  9 10  1  0
 10 11  1  0
 11 12  2  0
 11 13  1  0
 13 14  1  0
 12 15  1  0
 13 16  2  0
 15 17  2  0
 16 17  1  0
M  END
