x0831_0-x1385_1-x0981_1
     RDKit          3D

 29 30  0  0  0  0  0  0  0  0999 V2000
    4.8280   -5.5920   23.5740 C   0  0  0  0  0  0  0  0  0  0  0  0
    3.2800   -5.8700   23.6520 C   0  0  1  0  0  0  0  0  0  0  0  0
    2.9260   -6.9920   22.7480 N   0  0  0  0  0  0  0  0  0  0  0  0
    5.5110   -4.5390   24.0060 N   0  0  0  0  0  0  0  0  0  0  0  0
    2.9850   -6.0990   25.0190 C   0  0  0  0  0  0  0  0  0  0  0  0
    7.0100   -4.3060   23.9520 C   0  0  0  0  0  0  0  0  0  0  0  0
    1.6030   -7.1870   22.3270 C   0  0  0  0  0  0  0  0  0  0  0  0
    3.2140   -7.5770   25.2930 C   0  0  0  0  0  0  0  0  0  0  0  0
    7.4450   -3.6440   22.7920 C   0  0  2  0  0  0  0  0  0  0  0  0
    1.3170   -8.5170   21.6670 C   0  0  0  0  0  0  0  0  0  0  0  0
    0.7240   -6.3440   22.4490 O   0  0  0  0  0  0  0  0  0  0  0  0
    2.5430   -8.1810   26.3160 N   0  0  0  0  0  0  0  0  0  0  0  0
    3.9960   -8.1810   24.5930 O   0  0  0  0  0  0  0  0  0  0  0  0
    8.3310   -2.4010   23.0160 N   0  0  0  0  0  0  0  0  0  0  0  0
    6.2390   -3.2140   22.2440 C   0  0  0  0  0  0  0  0  0  0  0  0
    9.7180   -2.5610   23.5360 C   0  0  0  0  0  0  0  0  0  0  0  0
    6.3170   -2.4370   21.0040 N   0  0  0  0  0  0  0  0  0  0  0  0
    8.5050   -1.7550   21.8840 C   0  0  0  0  0  0  0  0  0  0  0  0
    6.2250   -3.1480   19.8170 C   0  0  0  0  0  0  0  0  0  0  0  0
    7.2710   -1.3330   21.1380 C   0  0  0  0  0  0  0  0  0  0  0  0
   10.5420   -1.2430   23.5840 C   0  0  0  0  0  0  0  0  0  0  0  0
    7.2800   -2.9460   18.7480 C   0  0  0  0  0  0  0  0  0  0  0  0
    5.3210   -3.9650   19.6180 O   0  0  0  0  0  0  0  0  0  0  0  0
   10.0190   -0.1230   24.2540 C   0  0  0  0  0  0  0  0  0  0  0  0
   11.8110   -1.1200   22.9600 C   0  0  0  0  0  0  0  0  0  0  0  0
   12.4680   -2.2370   22.2130 C   0  0  0  0  0  0  0  0  0  0  0  0
   10.7390    1.0860   24.2910 C   0  0  0  0  0  0  0  0  0  0  0  0
   12.5180    0.0760   23.0110 C   0  0  0  0  0  0  0  0  0  0  0  0
   11.9870    1.1660   23.6640 C   0  0  0  0  0  0  0  0  0  0  0  0
  2  1  1  1
  2  3  1  0
  1  4  2  3
  2  5  1  0
  4  6  1  0
  3  7  1  0
  5  8  1  0
  9  6  1  1
  7 10  1  0
  7 11  2  0
  8 12  1  0
  8 13  2  0
  9 14  1  0
  9 15  1  0
 14 16  1  0
 15 17  1  0
 14 18  1  0
 17 19  1  0
 17 20  1  0
 18 20  1  0
 16 21  1  0
 19 22  1  0
 19 23  2  0
 21 24  2  0
 21 25  1  0
 25 26  1  0
 24 27  1  0
 25 28  2  0
 27 29  2  0
 28 29  1  0
M  END
