x0831_1-x0771_1
     RDKit          3D

 24 25  0  0  0  0  0  0  0  0999 V2000
    4.7810   -5.7970   25.7730 S   0  0  0  0  0  0  0  0  0  0  0  0
    5.0680   -5.6810   24.0690 C   0  0  0  0  0  0  0  0  0  0  0  0
    4.3620   -4.4260   23.3400 C   0  0  0  0  0  0  0  0  0  0  0  0
    4.2690   -7.0980   26.1120 O   0  0  0  0  0  0  0  0  0  0  0  0
    6.0480   -5.3060   26.6070 O   0  0  0  0  0  0  0  0  0  0  0  0
    3.6580   -4.5590   25.8660 C   0  0  0  0  0  0  0  0  0  0  0  0
    2.3090   -4.7620   25.5180 C   0  0  0  0  0  0  0  0  0  0  0  0
    4.0450   -3.2870   26.3050 C   0  0  0  0  0  0  0  0  0  0  0  0
    1.7590   -6.1030   25.0180 C   0  0  0  0  0  0  0  0  0  0  0  0
    5.1890   -3.1260   23.1360 C   0  0  0  0  0  0  0  0  0  0  0  0
    1.3630   -3.7800   25.6010 C   0  0  0  0  0  0  0  0  0  0  0  0
    3.1100   -2.2490   26.4050 C   0  0  0  0  0  0  0  0  0  0  0  0
    1.7630   -2.5080   26.0540 C   0  0  0  0  0  0  0  0  0  0  0  0
    6.5250   -3.3710   22.4090 C   0  0  1  0  0  0  0  0  0  0  0  0
    0.6630   -1.4900   26.1300 C   0  0  0  0  0  0  0  0  0  0  0  0
    6.4070   -2.6510   21.1110 N   0  0  0  0  0  0  0  0  0  0  0  0
    7.6660   -3.1260   23.2050 C   0  0  0  0  0  0  0  0  0  0  0  0
    6.2670   -3.3880   19.9510 C   0  0  0  0  0  0  0  0  0  0  0  0
    8.2660   -1.7850   23.1350 N   0  0  0  0  0  0  0  0  0  0  0  0
    6.3240   -1.1850   21.1330 C   0  0  0  0  0  0  0  0  0  0  0  0
    5.4340   -4.2910   19.8180 O   0  0  0  0  0  0  0  0  0  0  0  0
    7.2290   -3.0180   18.8440 C   0  0  0  0  0  0  0  0  0  0  0  0
    8.6990   -1.3620   21.7990 C   0  0  0  0  0  0  0  0  0  0  0  0
    7.5930   -0.6450   21.0380 C   0  0  0  0  0  0  0  0  0  0  0  0
  1  2  1  0
  2  3  1  0
  1  4  2  0
  1  5  2  0
  1  6  1  0
  6  7  2  0
  6  8  1  0
  7  9  1  0
  3 10  1  0
  7 11  1  0
  8 12  2  0
 11 13  2  0
 12 13  1  0
 14 10  1  1
 13 15  1  0
 14 16  1  0
 14 17  1  0
 16 18  1  0
 17 19  1  0
 16 20  1  0
 18 21  2  0
 18 22  1  0
 19 23  1  0
 20 24  1  0
 23 24  1  0
M  END
