x0831_0-x1418_0-x0770_1-x1374_1
     RDKit          3D

 26 28  0  0  0  0  0  0  0  0999 V2000
    6.3170   -3.3780   19.9870 C   0  0  0  0  0  0  0  0  0  0  0  0
    7.2640   -3.0070   18.8610 C   0  0  0  0  0  0  0  0  0  0  0  0
    5.3660   -4.1250   19.7460 O   0  0  0  0  0  0  0  0  0  0  0  0
    6.5910   -2.8970   21.2650 N   0  0  0  0  0  0  0  0  0  0  0  0
    6.8940   -1.4650   21.3700 C   0  0  0  0  0  0  0  0  0  0  0  0
    7.3500   -3.7040   22.2280 C   0  0  2  0  0  0  0  0  0  0  0  0
    6.7470   -5.0820   22.5180 C   0  0  0  0  0  0  0  0  0  0  0  0
    8.1570   -1.1920   21.7600 C   0  0  0  0  0  0  0  0  0  0  0  0
    7.7300   -2.9830   23.3480 C   0  0  0  0  0  0  0  0  0  0  0  0
    8.6310   -1.9020   22.9530 N   0  0  0  0  0  0  0  0  0  0  0  0
    5.2790   -5.1260   22.8470 C   0  0  2  0  0  0  0  0  0  0  0  0
    9.9600   -2.1990   23.0340 C   0  0  2  0  0  0  0  0  0  0  0  0
    4.9080   -4.6230   24.0590 C   0  0  0  0  0  0  0  0  0  0  0  0
    4.9050   -6.6120   22.7740 C   0  0  0  0  0  0  0  0  0  0  0  0
   10.3500   -3.2050   24.0790 C   0  0  0  0  0  0  0  0  0  0  0  0
   10.7520   -0.9470   23.2160 C   0  0  0  0  0  0  0  0  0  0  0  0
    4.0800   -5.3640   24.8430 C   0  0  0  0  0  0  0  0  0  0  0  0
    3.7260   -6.8130   24.0230 S   0  0  0  0  0  0  0  0  0  0  0  0
    2.3990   -6.7610   23.4550 O   0  0  0  0  0  0  0  0  0  0  0  0
    4.1470   -8.0710   24.9810 O   0  0  0  0  0  0  0  0  0  0  0  0
   10.2220    0.1480   23.8800 C   0  0  0  0  0  0  0  0  0  0  0  0
   12.2050   -0.7980   22.6680 C   0  0  0  0  0  0  0  0  0  0  0  0
   12.8990   -1.9020   21.9330 C   0  0  0  0  0  0  0  0  0  0  0  0
   10.9560    1.3140   24.0250 C   0  0  0  0  0  0  0  0  0  0  0  0
   12.8650    0.4010   22.8640 C   0  0  0  0  0  0  0  0  0  0  0  0
   12.2490    1.4520   23.5270 C   0  0  0  0  0  0  0  0  0  0  0  0
  1  2  1  0
  1  3  2  0
  1  4  1  0
  4  5  1  0
  4  6  1  0
  6  7  1  1
  5  8  1  0
  6  9  1  0
  8 10  1  0
  9 10  1  0
 11  7  1  1
 10 12  1  0
 11 13  1  0
 11 14  1  0
 12 15  1  1
 12 16  1  0
 13 17  2  0
 14 18  1  0
 17 18  1  0
 18 19  1  0
 18 20  1  0
 16 21  2  0
 16 22  1  0
 22 23  1  0
 21 24  1  0
 22 25  2  0
 24 26  2  0
 25 26  1  0
M  END
