x0831_0-x1334_1-x0770_1-x0397_0-x0692_1
     RDKit          3D

 20 22  0  0  0  0  0  0  0  0999 V2000
    6.3610   -3.3100   19.8850 C   0  0  0  0  0  0  0  0  0  0  0  0
    7.3230   -2.9850   18.7610 C   0  0  0  0  0  0  0  0  0  0  0  0
    5.3780   -4.0380   19.6870 O   0  0  0  0  0  0  0  0  0  0  0  0
    6.6600   -2.8080   21.1380 N   0  0  0  0  0  0  0  0  0  0  0  0
    7.3240   -1.4960   21.2750 C   0  0  0  0  0  0  0  0  0  0  0  0
    6.9790   -3.7870   22.1820 C   0  0  1  0  0  0  0  0  0  0  0  0
    8.7390   -1.7140   21.7930 C   0  0  0  0  0  0  0  0  0  0  0  0
    7.8370   -3.3490   23.3570 C   0  0  0  0  0  0  0  0  0  0  0  0
    5.9400   -4.6530   22.4880 C   0  0  0  0  0  0  0  0  0  0  0  0
    8.7670   -2.2280   23.1600 N   0  0  0  0  0  0  0  0  0  0  0  0
    6.1810   -6.0160   23.3020 C   0  0  0  0  0  0  0  0  0  0  0  0
    5.8870   -6.1110   21.9480 C   0  0  0  0  0  0  0  0  0  0  0  0
   10.1750   -2.4590   23.5190 C   0  0  0  0  0  0  0  0  0  0  0  0
   10.8790   -1.1260   23.5130 C   0  0  0  0  0  0  0  0  0  0  0  0
   10.2170    0.0690   24.1870 C   0  0  0  0  0  0  0  0  0  0  0  0
   12.0580   -0.9310   22.9340 C   0  0  0  0  0  0  0  0  0  0  0  0
   12.7700   -2.0460   22.2420 C   0  0  0  0  0  0  0  0  0  0  0  0
   10.9160    1.4090   24.1630 C   0  0  0  0  0  0  0  0  0  0  0  0
   12.7110    0.3070   22.9190 C   0  0  0  0  0  0  0  0  0  0  0  0
   12.2870    1.4690   23.4490 C   0  0  0  0  0  0  0  0  0  0  0  0
  1  2  1  0
  1  3  2  0
  1  4  1  0
  4  5  1  0
  4  6  1  0
  5  7  1  0
  6  8  1  0
  6  9  1  1
  7 10  1  0
  8 10  1  0
  9 11  1  0
  9 12  1  0
 11 12  1  0
 10 13  1  0
 13 14  1  0
 14 15  2  0
 14 16  1  0
 16 17  1  0
 15 18  1  0
 16 19  2  0
 18 20  2  0
 19 20  1  0
M  END
