x0831_0-x1385_1-x0770_1-x1334_1
     RDKit          3D

 17 18  0  0  0  0  0  0  0  0999 V2000
    6.3460   -3.2980   19.9290 C   0  0  0  0  0  0  0  0  0  0  0  0
    7.3390   -3.0170   18.8070 C   0  0  0  0  0  0  0  0  0  0  0  0
    5.4110   -4.0830   19.7240 O   0  0  0  0  0  0  0  0  0  0  0  0
    6.5210   -2.6890   21.1660 N   0  0  0  0  0  0  0  0  0  0  0  0
    6.4670   -3.4150   22.4670 C   0  0  0  0  0  0  0  0  0  0  0  0
    7.3650   -1.4890   21.1780 C   0  0  0  0  0  0  0  0  0  0  0  0
    7.8920   -3.6990   23.0640 C   0  0  0  0  0  0  0  0  0  0  0  0
    8.7550   -1.8000   21.7370 C   0  0  0  0  0  0  0  0  0  0  0  0
    8.7790   -2.4670   23.0360 N   0  0  0  0  0  0  0  0  0  0  0  0
   10.1450   -2.5430   23.5600 C   0  0  0  0  0  0  0  0  0  0  0  0
   10.8210   -1.1650   23.5580 C   0  0  0  0  0  0  0  0  0  0  0  0
   10.2290    0.0750   24.1880 C   0  0  0  0  0  0  0  0  0  0  0  0
   12.0760   -0.9790   22.9290 C   0  0  0  0  0  0  0  0  0  0  0  0
   12.7820   -2.1020   22.2530 C   0  0  0  0  0  0  0  0  0  0  0  0
   10.8820    1.4320   24.1710 C   0  0  0  0  0  0  0  0  0  0  0  0
   12.7240    0.2720   22.8980 C   0  0  0  0  0  0  0  0  0  0  0  0
   12.1140    1.5130   23.5310 C   0  0  0  0  0  0  0  0  0  0  0  0
  1  2  1  0
  1  3  2  0
  1  4  1  0
  4  5  1  0
  4  6  1  0
  5  7  1  0
  6  8  1  0
  7  9  1  0
  8  9  1  0
  9 10  1  0
 10 11  1  0
 11 12  2  0
 11 13  1  0
 13 14  1  0
 12 15  1  0
 13 16  2  0
 15 17  2  0
 16 17  1  0
M  END
