x0831_0-x0434_2-x1308_0
     RDKit          3D

 28 30  0  0  0  0  0  0  0  0999 V2000
    6.4280   -4.5280   20.5490 C   0  0  0  0  0  0  0  0  0  0  0  0
    7.3610   -3.4630   19.9280 C   0  0  0  0  0  0  0  0  0  0  0  0
    5.3680   -4.7760   19.9790 O   0  0  0  0  0  0  0  0  0  0  0  0
    6.7580   -5.2560   21.7000 N   0  0  0  0  0  0  0  0  0  0  0  0
    7.7820   -4.9470   22.6760 C   0  0  0  0  0  0  0  0  0  0  0  0
    5.8570   -6.2990   22.1450 C   0  0  0  0  0  0  0  0  0  0  0  0
    7.2880   -4.6130   23.9340 C   0  0  1  0  0  0  0  0  0  0  0  0
    5.2280   -5.9690   23.3750 C   0  0  0  0  0  0  0  0  0  0  0  0
    7.5340   -3.1270   24.2540 C   0  0  0  0  0  0  0  0  0  0  0  0
    5.8320   -4.8650   24.1450 N   0  0  0  0  0  0  0  0  0  0  0  0
    8.5230   -2.4000   23.2790 C   0  0  2  0  0  0  0  0  0  0  0  0
   10.0200   -2.4450   23.6980 C   0  0  0  0  0  0  0  0  0  0  0  0
    7.9980   -0.9230   23.1500 C   0  0  0  0  0  0  0  0  0  0  0  0
    6.8090   -0.6790   22.3980 C   0  0  0  0  0  0  0  0  0  0  0  0
   10.7900   -1.1380   23.6040 C   0  0  0  0  0  0  0  0  0  0  0  0
    6.9480   -0.9220   20.9730 N   0  0  0  0  0  0  0  0  0  0  0  0
   10.2190   -0.0270   24.2160 C   0  0  0  0  0  0  0  0  0  0  0  0
   12.0350   -0.9730   22.9290 C   0  0  0  0  0  0  0  0  0  0  0  0
   12.7480   -2.0720   22.2260 C   0  0  0  0  0  0  0  0  0  0  0  0
   10.8820    1.3690   24.1750 C   0  0  0  0  0  0  0  0  0  0  0  0
   12.7720    0.3800   22.8530 C   0  0  0  0  0  0  0  0  0  0  0  0
    6.3650   -0.1520   19.9890 C   0  0  0  0  0  0  0  0  0  0  0  0
   12.0940    1.5760   23.5310 C   0  0  0  0  0  0  0  0  0  0  0  0
    6.9000   -0.0220   18.6920 C   0  0  0  0  0  0  0  0  0  0  0  0
    5.1820    0.5480   20.2590 C   0  0  0  0  0  0  0  0  0  0  0  0
    6.4080    0.7080   17.6680 N   0  0  0  0  0  0  0  0  0  0  0  0
    4.5900    1.3280   19.2680 C   0  0  0  0  0  0  0  0  0  0  0  0
    5.2760    1.3850   17.9050 C   0  0  0  0  0  0  0  0  0  0  0  0
  1  2  1  0
  1  3  2  0
  1  4  1  0
  4  5  1  0
  4  6  1  0
  5  7  1  0
  6  8  1  0
  7  9  1  6
  7 10  1  0
  8 10  1  0
 11  9  1  1
 11 12  1  0
 11 13  1  0
 13 14  1  0
 12 15  1  0
 14 16  1  0
 15 17  2  0
 15 18  1  0
 18 19  1  0
 17 20  1  0
 18 21  2  0
 16 22  1  0
 20 23  2  0
 21 23  1  0
 22 24  2  0
 22 25  1  0
 24 26  1  0
 25 27  2  0
 26 28  2  0
 27 28  1  0
M  END
