x0831_0-x1334_1-x1374_1-x0692_1
     RDKit          3D

 25 27  0  0  0  0  0  0  0  0999 V2000
    6.3940   -3.2730   19.8890 C   0  0  0  0  0  0  0  0  0  0  0  0
    7.3910   -3.0030   18.7820 C   0  0  0  0  0  0  0  0  0  0  0  0
    5.4070   -3.9830   19.6590 O   0  0  0  0  0  0  0  0  0  0  0  0
    6.6590   -2.7550   21.1530 N   0  0  0  0  0  0  0  0  0  0  0  0
    7.3060   -1.4220   21.2470 C   0  0  0  0  0  0  0  0  0  0  0  0
    7.0280   -3.7410   22.1730 C   0  0  2  0  0  0  0  0  0  0  0  0
    6.0790   -3.9370   23.3480 C   0  0  0  0  0  0  0  0  0  0  0  0
    8.6840   -1.4280   21.9830 C   0  0  0  0  0  0  0  0  0  0  0  0
    8.3430   -3.6650   22.6230 C   0  0  0  0  0  0  0  0  0  0  0  0
    8.8000   -2.3610   23.0790 N   0  0  0  0  0  0  0  0  0  0  0  0
    4.8060   -4.6960   22.9720 C   0  0  2  0  0  0  0  0  0  0  0  0
   10.0880   -2.4620   23.5470 C   0  0  0  0  0  0  0  0  0  0  0  0
    3.8110   -4.2860   24.1020 C   0  0  0  0  0  0  0  0  0  0  0  0
    5.0830   -6.1940   23.0540 C   0  0  0  0  0  0  0  0  0  0  0  0
   10.8320   -1.1220   23.5380 C   0  0  0  0  0  0  0  0  0  0  0  0
    3.1960   -5.4080   24.6160 C   0  0  0  0  0  0  0  0  0  0  0  0
    3.7180   -6.8190   23.8440 S   0  0  0  0  0  0  0  0  0  0  0  0
    2.8120   -7.2920   22.8340 O   0  0  0  0  0  0  0  0  0  0  0  0
    4.2680   -7.9280   24.9150 O   0  0  0  0  0  0  0  0  0  0  0  0
   10.2280   -0.0970   24.1840 C   0  0  0  0  0  0  0  0  0  0  0  0
   12.0710   -0.9110   22.9050 C   0  0  0  0  0  0  0  0  0  0  0  0
   12.7790   -2.0110   22.1680 C   0  0  0  0  0  0  0  0  0  0  0  0
   10.8160    1.1470   24.2160 C   0  0  0  0  0  0  0  0  0  0  0  0
   12.6960    0.3420   22.9310 C   0  0  0  0  0  0  0  0  0  0  0  0
   12.0320    1.3330   23.5900 C   0  0  0  0  0  0  0  0  0  0  0  0
  1  2  1  0
  1  3  2  0
  1  4  1  0
  4  5  1  0
  4  6  1  0
  6  7  1  1
  5  8  1  0
  6  9  1  0
  8 10  1  0
  9 10  1  0
 11  7  1  1
 10 12  1  0
 11 13  1  0
 11 14  1  0
 12 15  1  0
 13 16  2  0
 14 17  1  0
 16 17  1  0
 17 18  1  0
 17 19  1  0
 15 20  2  0
 15 21  1  0
 21 22  1  0
 20 23  1  0
 21 24  2  0
 23 25  2  0
 24 25  1  0
M  END
