x0831_0-x0831_1-x0769_1-x0769_0
     RDKit          3D

 34 37  0  0  0  0  0  0  0  0999 V2000
    6.2700   -3.4030   20.0480 C   0  0  0  0  0  0  0  0  0  0  0  0
    7.2350   -3.0270   18.9070 C   0  0  0  0  0  0  0  0  0  0  0  0
    5.4950   -4.3640   19.8720 O   0  0  0  0  0  0  0  0  0  0  0  0
    6.2770   -2.6270   21.2270 N   0  0  0  0  0  0  0  0  0  0  0  0
    6.2170   -1.1610   21.1970 C   0  0  0  0  0  0  0  0  0  0  0  0
    6.6130   -3.1750   22.5870 C   0  0  2  0  0  0  0  0  0  0  0  0
    7.6050   -0.5490   21.4580 C   0  0  0  0  0  0  0  0  0  0  0  0
    7.4380   -2.3130   23.3250 C   0  0  0  0  0  0  0  0  0  0  0  0
    7.1150   -4.6010   22.6840 C   0  0  2  0  0  0  0  0  0  0  0  0
    8.7620   -2.0950   22.7300 N   0  0  0  0  0  0  0  0  0  0  0  0
    8.8370   -1.2780   21.5490 C   0  0  0  0  0  0  0  0  0  0  0  0
    6.5640   -5.4600   21.6120 N   0  0  0  0  0  0  0  0  0  0  0  0
    6.8300   -5.0140   23.9600 C   0  0  0  0  0  0  0  0  0  0  0  0
    9.9370   -2.2150   23.5860 C   0  0  0  0  0  0  0  0  0  0  0  0
    5.4040   -5.2120   24.1890 N   0  0  0  0  0  0  0  0  0  0  0  0
    5.6260   -6.4310   22.1650 C   0  0  0  0  0  0  0  0  0  0  0  0
    4.7850   -5.2680   25.7570 S   0  0  0  0  0  0  0  0  0  0  0  0
    4.7070   -5.9230   23.1080 C   0  0  0  0  0  0  0  0  0  0  0  0
   10.7750   -0.9550   23.5450 C   0  0  0  0  0  0  0  0  0  0  0  0
    5.8630   -5.1150   26.7070 O   0  0  0  0  0  0  0  0  0  0  0  0
    3.8750   -6.3930   25.8210 O   0  0  0  0  0  0  0  0  0  0  0  0
    3.7600   -3.9060   25.8570 C   0  0  0  0  0  0  0  0  0  0  0  0
   10.2460    0.1700   24.1540 C   0  0  0  0  0  0  0  0  0  0  0  0
   12.0380   -0.9020   22.9090 C   0  0  0  0  0  0  0  0  0  0  0  0
   12.6650   -2.0770   22.2260 C   0  0  0  0  0  0  0  0  0  0  0  0
    2.2100   -4.0120   25.7080 C   0  0  0  0  0  0  0  0  0  0  0  0
    4.3050   -2.6250   26.0840 C   0  0  0  0  0  0  0  0  0  0  0  0
   10.9640    1.3660   24.1300 C   0  0  0  0  0  0  0  0  0  0  0  0
   12.7180    0.3030   22.9170 C   0  0  0  0  0  0  0  0  0  0  0  0
    5.6290   -2.4640   26.2210 F   0  0  0  0  0  0  0  0  0  0  0  0
    1.3710   -2.9000   25.7920 C   0  0  0  0  0  0  0  0  0  0  0  0
    3.4830   -1.4960   26.1710 C   0  0  0  0  0  0  0  0  0  0  0  0
   12.2040    1.4380   23.5120 C   0  0  0  0  0  0  0  0  0  0  0  0
    1.9540   -1.6380   26.0220 C   0  0  0  0  0  0  0  0  0  0  0  0
  1  2  1  0
  1  3  2  0
  1  4  1  0
  4  5  1  0
  4  6  1  0
  5  7  1  0
  6  8  1  6
  6  9  1  0
  8 10  1  0
  7 11  1  0
 10 11  1  0
  9 12  1  0
  9 13  1  1
 10 14  1  0
 13 15  1  0
 12 16  1  0
 15 17  1  0
 15 18  1  0
 16 18  1  0
 14 19  1  0
 17 20  2  0
 17 21  2  0
 17 22  1  0
 19 23  2  0
 19 24  1  0
 24 25  1  0
 22 26  2  0
 22 27  1  0
 23 28  1  0
 24 29  2  0
 27 30  1  0
 26 31  1  0
 27 32  2  0
 28 33  2  0
 29 33  1  0
 31 34  2  0
 32 34  1  0
M  END
