x0831_1-x1418_0-x0770_1-x0692_1
     RDKit          3D

 16 17  0  0  0  0  0  0  0  0999 V2000
    6.2290   -3.4690   19.9910 C   0  0  0  0  0  0  0  0  0  0  0  0
    7.2110   -3.0530   18.8940 C   0  0  0  0  0  0  0  0  0  0  0  0
    5.3180   -4.2590   19.7670 O   0  0  0  0  0  0  0  0  0  0  0  0
    6.3900   -2.9610   21.2620 N   0  0  0  0  0  0  0  0  0  0  0  0
    6.1530   -1.5320   21.5820 C   0  0  0  0  0  0  0  0  0  0  0  0
    7.0270   -3.7490   22.3200 C   0  0  0  0  0  0  0  0  0  0  0  0
    7.4750   -0.7630   21.3910 C   0  0  0  0  0  0  0  0  0  0  0  0
    7.5560   -2.9310   23.4660 C   0  0  0  0  0  0  0  0  0  0  0  0
    8.6780   -2.0400   23.1380 N   0  0  0  0  0  0  0  0  0  0  0  0
    8.6940   -1.6070   21.7950 C   0  0  0  0  0  0  0  0  0  0  0  0
    9.9940   -2.6100   23.4490 C   0  0  0  0  0  0  0  0  0  0  0  0
   10.9740   -1.4770   23.4460 C   0  0  0  0  0  0  0  0  0  0  0  0
   12.2480   -1.4450   22.5640 C   0  0  0  0  0  0  0  0  0  0  0  0
   10.7770   -0.0440   24.4240 S   0  0  0  0  0  0  0  0  0  0  0  0
   12.9680   -0.1540   22.7890 C   0  0  0  0  0  0  0  0  0  0  0  0
   12.3830    0.7520   23.7170 C   0  0  0  0  0  0  0  0  0  0  0  0
  1  2  1  0
  1  3  2  0
  1  4  1  0
  4  5  1  0
  4  6  1  0
  5  7  1  0
  6  8  1  0
  8  9  1  0
  7 10  1  0
  9 10  1  0
  9 11  1  0
 11 12  1  0
 12 13  2  0
 12 14  1  0
 13 15  1  0
 14 16  1  0
 15 16  2  0
M  END
