x0831_0-x0770_1-x0397_0
     RDKit          3D

 20 22  0  0  0  0  0  0  0  0999 V2000
    6.3230   -3.3360   19.9400 C   0  0  0  0  0  0  0  0  0  0  0  0
    7.2870   -2.9990   18.8130 C   0  0  0  0  0  0  0  0  0  0  0  0
    5.4340   -4.1870   19.7960 O   0  0  0  0  0  0  0  0  0  0  0  0
    6.5300   -2.6330   21.1400 N   0  0  0  0  0  0  0  0  0  0  0  0
    7.1590   -1.3060   21.2130 C   0  0  0  0  0  0  0  0  0  0  0  0
    6.5360   -3.2940   22.4740 C   0  0  2  0  0  0  0  0  0  0  0  0
    8.5710   -1.4630   21.8190 C   0  0  0  0  0  0  0  0  0  0  0  0
    7.8220   -3.4830   22.9460 C   0  0  0  0  0  0  0  0  0  0  0  0
    5.7070   -4.6030   22.5120 C   0  0  0  0  0  0  0  0  0  0  0  0
    8.6170   -2.2460   23.0530 N   0  0  0  0  0  0  0  0  0  0  0  0
    6.1910   -5.6280   23.2720 C   0  0  0  0  0  0  0  0  0  0  0  0
    6.1790   -6.0990   21.9320 C   0  0  0  0  0  0  0  0  0  0  0  0
   10.0300   -2.4400   23.4280 C   0  0  0  0  0  0  0  0  0  0  0  0
   10.7910   -1.1180   23.4770 C   0  0  0  0  0  0  0  0  0  0  0  0
   10.1440   -0.0350   24.1830 C   0  0  0  0  0  0  0  0  0  0  0  0
   12.0390   -0.9660   22.8650 C   0  0  0  0  0  0  0  0  0  0  0  0
   12.7220   -2.0630   22.1250 C   0  0  0  0  0  0  0  0  0  0  0  0
   10.7960    1.1990   24.2370 C   0  0  0  0  0  0  0  0  0  0  0  0
   12.6430    0.2670   22.9570 C   0  0  0  0  0  0  0  0  0  0  0  0
   12.0850    1.3470   23.6040 C   0  0  0  0  0  0  0  0  0  0  0  0
  1  2  1  0
  1  3  2  0
  1  4  1  0
  4  5  1  0
  4  6  1  0
  5  7  1  0
  6  8  1  0
  6  9  1  6
  7 10  1  0
  8 10  1  0
  9 11  1  0
  9 12  1  0
 11 12  1  0
 10 13  1  0
 13 14  1  0
 14 15  2  0
 14 16  1  0
 16 17  1  0
 15 18  1  0
 16 19  2  0
 18 20  2  0
 19 20  1  0
M  END
