x0831_0-x1385_1-x0540_3-x0397_0
     RDKit          3D

 26 28  0  0  0  0  0  0  0  0999 V2000
    6.3490   -3.2930   19.9760 C   0  0  0  0  0  0  0  0  0  0  0  0
    7.3420   -3.0090   18.8640 C   0  0  0  0  0  0  0  0  0  0  0  0
    5.4330   -4.1080   19.7630 O   0  0  0  0  0  0  0  0  0  0  0  0
    6.5380   -2.6250   21.2070 N   0  0  0  0  0  0  0  0  0  0  0  0
    6.5150   -3.3830   22.4590 C   0  0  2  0  0  0  0  0  0  0  0  0
    7.3500   -1.4150   21.3540 C   0  0  1  0  0  0  0  0  0  0  0  0
    6.7230   -0.4130   22.3450 C   0  0  0  0  0  0  0  0  0  0  0  0
    7.8240   -3.5870   22.9610 C   0  0  0  0  0  0  0  0  0  0  0  0
    8.6550   -1.6480   21.7690 C   0  0  0  0  0  0  0  0  0  0  0  0
    5.7630   -4.5440   22.3980 C   0  0  0  0  0  0  0  0  0  0  0  0
    5.4600    0.2990   21.8410 C   0  0  0  0  0  0  0  0  0  0  0  0
    8.6750   -2.3730   23.0300 N   0  0  0  0  0  0  0  0  0  0  0  0
    6.2890   -5.7840   23.0810 C   0  0  0  0  0  0  0  0  0  0  0  0
    6.2430   -5.9510   21.8140 C   0  0  0  0  0  0  0  0  0  0  0  0
    5.3050    1.7350   22.3740 C   0  0  0  0  0  0  0  0  0  0  0  0
    9.9290   -2.5400   23.4300 C   0  0  0  0  0  0  0  0  0  0  0  0
    3.9510    2.2880   22.2390 N   0  0  0  0  0  0  0  0  0  0  0  0
   10.6780   -1.2200   23.5020 C   0  0  0  0  0  0  0  0  0  0  0  0
    2.9660    2.1630   23.3240 C   0  0  0  0  0  0  0  0  0  0  0  0
   10.1410   -0.1110   24.1860 C   0  0  0  0  0  0  0  0  0  0  0  0
   11.9490   -1.0290   22.8790 C   0  0  0  0  0  0  0  0  0  0  0  0
    2.9620    1.3180   24.2080 O   0  0  0  0  0  0  0  0  0  0  0  0
   12.6470   -2.1020   22.1130 C   0  0  0  0  0  0  0  0  0  0  0  0
   10.8070    1.1090   24.2430 C   0  0  0  0  0  0  0  0  0  0  0  0
   12.6060    0.2060   22.9560 C   0  0  0  0  0  0  0  0  0  0  0  0
   12.0390    1.2680   23.6270 C   0  0  0  0  0  0  0  0  0  0  0  0
  1  2  1  0
  1  3  2  0
  1  4  1  0
  4  5  1  0
  4  6  1  0
  6  7  1  1
  5  8  1  0
  6  9  1  0
  5 10  1  6
  7 11  1  0
  8 12  1  0
  9 12  1  0
 10 13  1  0
 10 14  1  0
 13 14  1  0
 11 15  1  0
 12 16  1  0
 15 17  1  0
 16 18  1  0
 17 19  1  0
 18 20  2  0
 18 21  1  0
 19 22  2  0
 21 23  1  0
 20 24  1  0
 21 25  2  0
 24 26  2  0
 25 26  1  0
M  END
