x0831_1-x1418_0-x0540_3
     RDKit          3D

 22 23  0  0  0  0  0  0  0  0999 V2000
    6.2120   -3.5790   20.1010 C   0  0  0  0  0  0  0  0  0  0  0  0
    7.2040   -3.1020   19.0250 C   0  0  0  0  0  0  0  0  0  0  0  0
    5.3020   -4.3390   19.7940 O   0  0  0  0  0  0  0  0  0  0  0  0
    6.3300   -3.1780   21.4150 N   0  0  0  0  0  0  0  0  0  0  0  0
    6.1860   -1.7270   21.5910 C   0  0  0  0  0  0  0  0  0  0  0  0
    7.2230   -3.7500   22.1910 C   0  0  0  0  0  0  0  0  0  0  0  0
    7.4030   -0.9060   21.1060 C   0  0  1  0  0  0  0  0  0  0  0  0
    7.6280   -2.9430   23.4080 C   0  0  0  0  0  0  0  0  0  0  0  0
    7.1100    0.6010   21.3370 C   0  0  0  0  0  0  0  0  0  0  0  0
    8.6930   -1.9710   23.1020 N   0  0  0  0  0  0  0  0  0  0  0  0
    8.7290   -1.4680   21.7160 C   0  0  0  0  0  0  0  0  0  0  0  0
    5.5930    0.9340   21.4840 C   0  0  0  0  0  0  0  0  0  0  0  0
   10.0180   -2.5360   23.3720 C   0  0  0  0  0  0  0  0  0  0  0  0
    5.3310    1.6780   22.7650 C   0  0  0  0  0  0  0  0  0  0  0  0
   11.0570   -1.4470   23.3790 C   0  0  0  0  0  0  0  0  0  0  0  0
    4.1580    2.5160   22.6750 N   0  0  0  0  0  0  0  0  0  0  0  0
   12.1290   -1.5030   22.5320 C   0  0  0  0  0  0  0  0  0  0  0  0
   10.8710   -0.1290   24.4470 S   0  0  0  0  0  0  0  0  0  0  0  0
    2.9850    2.1800   23.3780 C   0  0  0  0  0  0  0  0  0  0  0  0
   12.8130   -0.2730   22.8660 C   0  0  0  0  0  0  0  0  0  0  0  0
   12.2770    0.5300   23.8270 C   0  0  0  0  0  0  0  0  0  0  0  0
    2.9380    1.4960   24.3970 O   0  0  0  0  0  0  0  0  0  0  0  0
  1  2  1  0
  1  3  2  0
  1  4  1  0
  4  5  1  0
  4  6  1  0
  5  7  1  0
  6  8  1  0
  7  9  1  1
  8 10  1  0
  7 11  1  0
 10 11  1  0
  9 12  1  0
 10 13  1  0
 12 14  1  0
 13 15  1  0
 14 16  1  0
 15 17  2  0
 15 18  1  0
 16 19  1  0
 17 20  1  0
 18 21  1  0
 20 21  2  0
 19 22  2  0
M  END
