x0831_0-x1418_1-x1385_1-x1334_1-x0540_3
     RDKit          3D

 23 24  0  0  0  0  0  0  0  0999 V2000
    6.3980   -3.2390   19.8900 C   0  0  0  0  0  0  0  0  0  0  0  0
    7.3940   -2.9920   18.7700 C   0  0  0  0  0  0  0  0  0  0  0  0
    5.4510   -4.0210   19.6940 O   0  0  0  0  0  0  0  0  0  0  0  0
    6.5770   -2.6210   21.1320 N   0  0  0  0  0  0  0  0  0  0  0  0
    6.5020   -3.3610   22.4200 C   0  0  0  0  0  0  0  0  0  0  0  0
    7.4690   -1.4380   21.1200 C   0  0  1  0  0  0  0  0  0  0  0  0
    7.0600   -0.2330   22.0070 C   0  0  0  0  0  0  0  0  0  0  0  0
    7.8780   -3.4850   23.0690 C   0  0  0  0  0  0  0  0  0  0  0  0
    8.7520   -1.8050   21.5490 C   0  0  0  0  0  0  0  0  0  0  0  0
    5.6100    0.2520   21.8290 C   0  0  0  0  0  0  0  0  0  0  0  0
    8.7180   -2.2830   22.9370 N   0  0  0  0  0  0  0  0  0  0  0  0
    5.2740    1.5410   22.6760 C   0  0  0  0  0  0  0  0  0  0  0  0
   10.0870   -2.4190   23.4550 C   0  0  0  0  0  0  0  0  0  0  0  0
    3.9890    2.1290   22.3840 N   0  0  0  0  0  0  0  0  0  0  0  0
   10.8400   -1.1000   23.4760 C   0  0  0  0  0  0  0  0  0  0  0  0
    2.9830    2.2150   23.3670 C   0  0  0  0  0  0  0  0  0  0  0  0
   10.2690   -0.0130   24.1230 C   0  0  0  0  0  0  0  0  0  0  0  0
   12.0940   -0.9220   22.8530 C   0  0  0  0  0  0  0  0  0  0  0  0
    2.9020    1.5380   24.3870 O   0  0  0  0  0  0  0  0  0  0  0  0
   12.7870   -2.0250   22.1230 C   0  0  0  0  0  0  0  0  0  0  0  0
   10.8820    1.2100   24.1660 C   0  0  0  0  0  0  0  0  0  0  0  0
   12.7190    0.3190   22.9040 C   0  0  0  0  0  0  0  0  0  0  0  0
   12.1180    1.3880   23.5540 C   0  0  0  0  0  0  0  0  0  0  0  0
  1  2  1  0
  1  3  2  0
  1  4  1  0
  4  5  1  0
  4  6  1  0
  6  7  1  1
  5  8  1  0
  6  9  1  0
  7 10  1  0
  8 11  1  0
  9 11  1  0
 10 12  1  0
 11 13  1  0
 12 14  1  0
 13 15  1  0
 14 16  1  0
 15 17  2  0
 15 18  1  0
 16 19  2  0
 18 20  1  0
 17 21  1  0
 18 22  2  0
 21 23  2  0
 22 23  1  0
M  END
