x0831_0-x0434_2-x1412_1-x0770_1-x1386_1
     RDKit          3D

 24 26  0  0  0  0  0  0  0  0999 V2000
    6.3360   -3.4260   19.9690 C   0  0  0  0  0  0  0  0  0  0  0  0
    7.2370   -3.0560   18.7980 C   0  0  0  0  0  0  0  0  0  0  0  0
    5.4010   -4.2130   19.7800 O   0  0  0  0  0  0  0  0  0  0  0  0
    6.6570   -2.8560   21.2110 N   0  0  0  0  0  0  0  0  0  0  0  0
    7.6200   -1.7770   21.1020 C   0  0  1  0  0  0  0  0  0  0  0  0
    6.6860   -3.6190   22.4770 C   0  0  0  0  0  0  0  0  0  0  0  0
    6.9240   -0.5000   21.2780 N   0  0  0  0  0  0  0  0  0  0  0  0
    8.8700   -1.9390   21.9300 C   0  0  0  0  0  0  0  0  0  0  0  0
    8.0230   -3.4880   23.2700 C   0  0  0  0  0  0  0  0  0  0  0  0
    8.7300   -2.3530   23.2070 N   0  0  0  0  0  0  0  0  0  0  0  0
    6.3400    0.1760   20.1280 C   0  0  0  0  0  0  0  0  0  0  0  0
   10.0460   -2.4710   23.6750 C   0  0  0  0  0  0  0  0  0  0  0  0
    6.8840    0.1230   18.8310 C   0  0  0  0  0  0  0  0  0  0  0  0
    5.1640    0.9200   20.3380 C   0  0  0  0  0  0  0  0  0  0  0  0
   10.8060   -1.1520   23.6100 C   0  0  0  0  0  0  0  0  0  0  0  0
    6.4170    0.7240   17.7010 N   0  0  0  0  0  0  0  0  0  0  0  0
    4.5790    1.6070   19.1720 C   0  0  0  0  0  0  0  0  0  0  0  0
   10.2110    0.0430   24.2640 C   0  0  0  0  0  0  0  0  0  0  0  0
   12.0460   -0.9840   22.9540 C   0  0  0  0  0  0  0  0  0  0  0  0
    5.1980    1.5130   17.8740 C   0  0  0  0  0  0  0  0  0  0  0  0
   12.7520   -2.1000   22.2450 C   0  0  0  0  0  0  0  0  0  0  0  0
   10.8590    1.2660   24.2160 C   0  0  0  0  0  0  0  0  0  0  0  0
   12.6710    0.2780   22.9380 C   0  0  0  0  0  0  0  0  0  0  0  0
   12.1220    1.4080   23.5410 C   0  0  0  0  0  0  0  0  0  0  0  0
  1  2  1  0
  1  3  2  0
  1  4  1  0
  4  5  1  0
  4  6  1  0
  5  7  1  1
  5  8  1  0
  6  9  1  0
  8 10  1  0
  9 10  1  0
  7 11  1  0
 10 12  1  0
 11 13  2  0
 11 14  1  0
 12 15  1  0
 13 16  1  0
 14 17  2  0
 15 18  2  0
 15 19  1  0
 16 20  2  0
 17 20  1  0
 19 21  1  0
 18 22  1  0
 19 23  2  0
 22 24  2  0
 23 24  1  0
M  END
