x0831_1-x0967_2
     RDKit          3D

 18 19  0  0  0  0  0  0  0  0999 V2000
    6.6280    0.4560   22.4100 C   0  0  0  0  0  0  0  0  0  0  0  0
    7.9270    1.1120   22.7710 C   0  0  1  0  0  0  0  0  0  0  0  0
    8.9840    0.1990   22.2010 C   0  0  0  0  0  0  0  0  0  0  0  0
    7.0790   -0.6790   21.4500 C   0  0  1  0  0  0  0  0  0  0  0  0
    8.0370    2.4680   22.2330 N   0  0  0  0  0  0  0  0  0  0  0  0
    8.3810   -1.0640   21.9350 C   0  0  2  0  0  0  0  0  0  0  0  0
    6.0700   -1.5960   21.5170 C   0  0  0  0  0  0  0  0  0  0  0  0
   10.1500    0.5290   22.0190 O   0  0  0  0  0  0  0  0  0  0  0  0
    7.2420    3.5320   22.8150 C   0  0  0  0  0  0  0  0  0  0  0  0
    8.5660   -1.9570   23.0800 N   0  0  0  0  0  0  0  0  0  0  0  0
    6.4790   -2.8040   21.1940 N   0  0  0  0  0  0  0  0  0  0  0  0
    7.7180    4.9250   22.3980 C   0  0  0  0  0  0  0  0  0  0  0  0
    6.2900    3.3420   23.5620 O   0  0  0  0  0  0  0  0  0  0  0  0
    6.2660   -3.3960   19.9510 C   0  0  0  0  0  0  0  0  0  0  0  0
    6.8860   -3.6740   22.3000 C   0  0  0  0  0  0  0  0  0  0  0  0
    7.5590   -2.9480   23.4670 C   0  0  0  0  0  0  0  0  0  0  0  0
    5.3580   -4.2140   19.7760 O   0  0  0  0  0  0  0  0  0  0  0  0
    7.2360   -3.0070   18.8660 C   0  0  0  0  0  0  0  0  0  0  0  0
  1  2  1  0
  2  3  1  0
  4  1  1  1
  2  5  1  6
  3  6  1  0
  4  6  1  0
  4  7  1  0
  3  8  2  0
  5  9  1  0
  6 10  1  1
  7 11  1  0
  9 12  1  0
  9 13  2  0
 11 14  1  0
 11 15  1  0
 10 16  1  0
 15 16  1  0
 14 17  2  0
 14 18  1  0
M  END
