x0831_0-x0770_1-x0397_0-x1418_0-x0692_1
     RDKit          3D

 21 23  0  0  0  0  0  0  0  0999 V2000
    6.3060   -3.3200   19.9680 C   0  0  0  0  0  0  0  0  0  0  0  0
    7.2680   -3.0030   18.8240 C   0  0  0  0  0  0  0  0  0  0  0  0
    5.4390   -4.2020   19.8010 O   0  0  0  0  0  0  0  0  0  0  0  0
    6.4790   -2.5930   21.1540 N   0  0  0  0  0  0  0  0  0  0  0  0
    7.2530   -1.3370   21.1620 C   0  0  0  0  0  0  0  0  0  0  0  0
    6.4860   -3.2910   22.4700 C   0  0  2  0  0  0  0  0  0  0  0  0
    8.6730   -1.5210   21.7340 C   0  0  0  0  0  0  0  0  0  0  0  0
    7.8040   -3.3520   22.9630 C   0  0  0  0  0  0  0  0  0  0  0  0
    5.7340   -4.4830   22.4610 C   0  0  0  0  0  0  0  0  0  0  0  0
    8.4860   -2.0390   23.0770 N   0  0  0  0  0  0  0  0  0  0  0  0
    6.1520   -5.5840   23.0080 C   0  0  0  0  0  0  0  0  0  0  0  0
    6.2070   -5.9040   21.7280 C   0  0  0  0  0  0  0  0  0  0  0  0
    9.6870   -2.0560   23.9110 C   0  0  1  0  0  0  0  0  0  0  0  0
   10.3330   -3.3780   23.7770 C   0  0  0  0  0  0  0  0  0  0  0  0
   10.5970   -0.8660   23.6950 C   0  0  0  0  0  0  0  0  0  0  0  0
   10.1090    0.3320   24.2010 C   0  0  0  0  0  0  0  0  0  0  0  0
   11.8700   -0.9040   23.0370 C   0  0  0  0  0  0  0  0  0  0  0  0
   12.4800   -2.1440   22.4510 C   0  0  0  0  0  0  0  0  0  0  0  0
   10.9310    1.6360   24.0520 C   0  0  0  0  0  0  0  0  0  0  0  0
   12.7610    0.3380   22.8520 C   0  0  0  0  0  0  0  0  0  0  0  0
   12.1700    1.6350   23.4210 C   0  0  0  0  0  0  0  0  0  0  0  0
  1  2  1  0
  1  3  2  0
  1  4  1  0
  4  5  1  0
  4  6  1  0
  5  7  1  0
  6  8  1  0
  6  9  1  6
  7 10  1  0
  8 10  1  0
  9 11  1  0
  9 12  1  0
 11 12  1  0
 10 13  1  0
 13 14  1  6
 13 15  1  0
 15 16  2  0
 15 17  1  0
 17 18  1  0
 16 19  1  0
 17 20  2  0
 19 21  2  0
 20 21  1  0
M  END
