x0831_0-x1418_1-x1418_0-x0981_1
     RDKit          3D

 30 31  0  0  0  0  0  0  0  0999 V2000
    4.1250   -5.8060   23.0160 C   0  0  0  0  0  0  0  0  0  0  0  0
    2.7300   -6.1410   23.5420 C   0  0  1  0  0  0  0  0  0  0  0  0
    2.4240   -7.3710   22.8100 N   0  0  0  0  0  0  0  0  0  0  0  0
    4.7800   -4.7120   23.0190 N   0  0  0  0  0  0  0  0  0  0  0  0
    2.7830   -6.2200   24.9520 C   0  0  0  0  0  0  0  0  0  0  0  0
    6.1020   -4.7040   22.4030 C   0  0  0  0  0  0  0  0  0  0  0  0
    1.2530   -7.4750   22.1000 C   0  0  0  0  0  0  0  0  0  0  0  0
    3.1570   -7.6450   25.2980 C   0  0  0  0  0  0  0  0  0  0  0  0
    6.6970   -3.2840   22.4560 C   0  0  1  0  0  0  0  0  0  0  0  0
    1.1430   -8.7410   21.2970 C   0  0  0  0  0  0  0  0  0  0  0  0
    0.3820   -6.6140   22.1010 O   0  0  0  0  0  0  0  0  0  0  0  0
    2.5200   -8.2630   26.3330 N   0  0  0  0  0  0  0  0  0  0  0  0
    4.0130   -8.1950   24.6460 O   0  0  0  0  0  0  0  0  0  0  0  0
    7.9640   -3.2020   23.0150 C   0  0  0  0  0  0  0  0  0  0  0  0
    6.6410   -2.6270   21.1360 N   0  0  0  0  0  0  0  0  0  0  0  0
    6.3820   -3.2600   19.9090 C   0  0  0  0  0  0  0  0  0  0  0  0
    8.7380   -1.9800   22.8030 N   0  0  0  0  0  0  0  0  0  0  0  0
    7.3060   -1.3060   21.1050 C   0  0  0  0  0  0  0  0  0  0  0  0
    7.3150   -2.9770   18.7510 C   0  0  0  0  0  0  0  0  0  0  0  0
    5.4510   -4.0630   19.7240 O   0  0  0  0  0  0  0  0  0  0  0  0
   10.1590   -2.2010   23.0430 C   0  0  2  0  0  0  0  0  0  0  0  0
    8.5910   -1.5400   21.5430 C   0  0  0  0  0  0  0  0  0  0  0  0
   10.4960   -3.0990   24.1970 C   0  0  0  0  0  0  0  0  0  0  0  0
   10.9130   -0.8930   23.1930 C   0  0  0  0  0  0  0  0  0  0  0  0
   10.2290    0.1290   23.8620 C   0  0  0  0  0  0  0  0  0  0  0  0
   12.2160   -0.7230   22.6880 C   0  0  0  0  0  0  0  0  0  0  0  0
   12.9570   -1.8420   21.9630 C   0  0  0  0  0  0  0  0  0  0  0  0
   10.9040    1.3320   23.9860 C   0  0  0  0  0  0  0  0  0  0  0  0
   12.8390    0.5120   22.8530 C   0  0  0  0  0  0  0  0  0  0  0  0
   12.1810    1.5410   23.4930 C   0  0  0  0  0  0  0  0  0  0  0  0
  2  1  1  6
  2  3  1  0
  1  4  2  3
  2  5  1  0
  4  6  1  0
  3  7  1  0
  5  8  1  0
  9  6  1  6
  7 10  1  0
  7 11  2  0
  8 12  1  0
  8 13  2  0
  9 14  1  0
  9 15  1  0
 15 16  1  0
 14 17  1  0
 15 18  1  0
 16 19  1  0
 16 20  2  0
 17 21  1  0
 17 22  1  0
 18 22  1  0
 21 23  1  1
 21 24  1  0
 24 25  2  0
 24 26  1  0
 26 27  1  0
 25 28  1  0
 26 29  2  0
 28 30  2  0
 29 30  1  0
M  END
