x0831_0-x1374_1-x1334_1
     RDKit          3D

 25 27  0  0  0  0  0  0  0  0999 V2000
    6.4190   -3.3340   19.9120 C   0  0  0  0  0  0  0  0  0  0  0  0
    7.3660   -3.0060   18.7710 C   0  0  0  0  0  0  0  0  0  0  0  0
    5.4450   -4.0800   19.7320 O   0  0  0  0  0  0  0  0  0  0  0  0
    6.7110   -2.7990   21.1610 N   0  0  0  0  0  0  0  0  0  0  0  0
    7.3820   -1.5010   21.2180 C   0  0  0  0  0  0  0  0  0  0  0  0
    6.8430   -3.5980   22.3890 C   0  0  1  0  0  0  0  0  0  0  0  0
    6.3480   -5.0460   22.3070 C   0  0  0  0  0  0  0  0  0  0  0  0
    8.8160   -1.6790   21.7430 C   0  0  0  0  0  0  0  0  0  0  0  0
    8.0810   -3.5940   23.0140 C   0  0  0  0  0  0  0  0  0  0  0  0
    8.8060   -2.3290   23.0560 N   0  0  0  0  0  0  0  0  0  0  0  0
    4.9270   -5.2270   22.8140 C   0  0  2  0  0  0  0  0  0  0  0  0
   10.1660   -2.4420   23.5960 C   0  0  0  0  0  0  0  0  0  0  0  0
    4.7390   -4.6510   24.0830 C   0  0  0  0  0  0  0  0  0  0  0  0
    4.7650   -6.6000   22.8790 C   0  0  0  0  0  0  0  0  0  0  0  0
   10.8250   -1.0980   23.5880 C   0  0  0  0  0  0  0  0  0  0  0  0
    4.0360   -5.3970   25.0060 C   0  0  0  0  0  0  0  0  0  0  0  0
    3.6390   -6.8430   24.2210 S   0  0  0  0  0  0  0  0  0  0  0  0
    2.3010   -6.8590   23.6500 O   0  0  0  0  0  0  0  0  0  0  0  0
    4.1020   -7.9720   24.9810 O   0  0  0  0  0  0  0  0  0  0  0  0
   10.2030   -0.0100   24.1930 C   0  0  0  0  0  0  0  0  0  0  0  0
   12.1040   -0.9460   22.9370 C   0  0  0  0  0  0  0  0  0  0  0  0
   12.7810   -2.0950   22.2760 C   0  0  0  0  0  0  0  0  0  0  0  0
   10.8300    1.3380   24.1760 C   0  0  0  0  0  0  0  0  0  0  0  0
   12.8460    0.4220   22.8790 C   0  0  0  0  0  0  0  0  0  0  0  0
   12.1700    1.5590   23.5090 C   0  0  0  0  0  0  0  0  0  0  0  0
  1  2  1  0
  1  3  2  0
  1  4  1  0
  4  5  1  0
  4  6  1  0
  6  7  1  6
  5  8  1  0
  6  9  1  0
  8 10  1  0
  9 10  1  0
 11  7  1  1
 10 12  1  0
 11 13  1  0
 11 14  1  0
 12 15  1  0
 13 16  2  0
 14 17  1  0
 16 17  1  0
 17 18  1  0
 17 19  1  0
 15 20  2  0
 15 21  1  0
 21 22  1  0
 20 23  1  0
 21 24  2  0
 23 25  2  0
 24 25  1  0
M  END
