x0831_0-x1418_1-x0831_1-x1385_1-x0769_1
     RDKit          3D

 29 31  0  0  0  0  0  0  0  0999 V2000
    6.4020   -3.2690   19.8560 C   0  0  0  0  0  0  0  0  0  0  0  0
    7.3600   -2.9730   18.7240 C   0  0  0  0  0  0  0  0  0  0  0  0
    5.4340   -4.0410   19.7100 O   0  0  0  0  0  0  0  0  0  0  0  0
    6.6980   -2.6500   21.0810 N   0  0  0  0  0  0  0  0  0  0  0  0
    6.5230   -3.3060   22.3790 C   0  0  0  0  0  0  0  0  0  0  0  0
    7.5650   -1.4250   21.0760 C   0  0  0  0  0  0  0  0  0  0  0  0
    7.5760   -2.8260   23.3830 C   0  0  2  0  0  0  0  0  0  0  0  0
    8.7830   -1.4690   21.7800 C   0  0  0  0  0  0  0  0  0  0  0  0
    7.1050   -1.4550   24.0110 C   0  0  0  0  0  0  0  0  0  0  0  0
    8.8710   -2.5420   22.7660 N   0  0  0  0  0  0  0  0  0  0  0  0
    6.6530   -1.4560   25.4810 C   0  0  0  0  0  0  0  0  0  0  0  0
    9.8440   -2.2650   23.8260 C   0  0  0  0  0  0  0  0  0  0  0  0
    5.8870   -2.5940   25.8880 O   0  0  0  0  0  0  0  0  0  0  0  0
   10.7140   -0.9450   23.6690 C   0  0  0  0  0  0  0  0  0  0  0  0
    4.5130   -2.5860   25.8820 C   0  0  0  0  0  0  0  0  0  0  0  0
   10.2770    0.2760   24.1980 C   0  0  0  0  0  0  0  0  0  0  0  0
   11.9520   -0.9740   22.9910 C   0  0  0  0  0  0  0  0  0  0  0  0
   12.5520   -2.2020   22.3640 C   0  0  0  0  0  0  0  0  0  0  0  0
    3.7680   -3.9680   25.8160 C   0  0  0  0  0  0  0  0  0  0  0  0
    3.7340   -1.4370   25.9340 C   0  0  0  0  0  0  0  0  0  0  0  0
   11.0410    1.4810   24.0670 C   0  0  0  0  0  0  0  0  0  0  0  0
   12.6590    0.2030   22.8950 C   0  0  0  0  0  0  0  0  0  0  0  0
    4.7370   -5.3870   25.7610 S   0  0  0  0  0  0  0  0  0  0  0  0
    2.2170   -4.1040   25.8000 C   0  0  0  0  0  0  0  0  0  0  0  0
    2.1990   -1.5890   25.9210 C   0  0  0  0  0  0  0  0  0  0  0  0
   12.2370    1.4130   23.4080 C   0  0  0  0  0  0  0  0  0  0  0  0
    5.7970   -5.2270   26.7340 O   0  0  0  0  0  0  0  0  0  0  0  0
    3.8450   -6.5260   25.8310 O   0  0  0  0  0  0  0  0  0  0  0  0
    1.5400   -2.8690   25.8560 C   0  0  0  0  0  0  0  0  0  0  0  0
  1  2  1  0
  1  3  2  0
  1  4  1  0
  4  5  1  0
  4  6  1  0
  5  7  1  0
  6  8  1  0
  7  9  1  6
  7 10  1  0
  8 10  1  0
  9 11  1  0
 10 12  1  0
 11 13  1  0
 12 14  1  0
 13 15  1  0
 14 16  2  0
 14 17  1  0
 17 18  1  0
 15 19  2  0
 15 20  1  0
 16 21  1  0
 17 22  2  0
 19 23  1  0
 19 24  1  0
 20 25  2  0
 21 26  2  0
 22 26  1  0
 23 27  2  0
 23 28  2  0
 24 29  2  0
 25 29  1  0
M  END
