x0831_0-x1412_0-x0771_0
     RDKit          3D

 26 28  0  0  0  0  0  0  0  0999 V2000
    6.2290   -4.2850   20.4150 C   0  0  0  0  0  0  0  0  0  0  0  0
    7.1170   -3.3080   19.6460 C   0  0  0  0  0  0  0  0  0  0  0  0
    5.1830   -4.6120   19.8930 O   0  0  0  0  0  0  0  0  0  0  0  0
    6.6000   -4.8160   21.6400 N   0  0  0  0  0  0  0  0  0  0  0  0
    6.0410   -6.1460   21.9250 C   0  0  0  0  0  0  0  0  0  0  0  0
    7.3010   -4.1840   22.7620 C   0  0  1  0  0  0  0  0  0  0  0  0
    7.9450   -2.8200   22.4290 C   0  0  0  0  0  0  0  0  0  0  0  0
    5.0420   -6.0850   23.1130 C   0  0  0  0  0  0  0  0  0  0  0  0
    6.5050   -4.3010   24.0760 C   0  0  0  0  0  0  0  0  0  0  0  0
    8.6270   -2.0820   23.5720 C   0  0  2  0  0  0  0  0  0  0  0  0
    5.1410   -4.8330   23.8740 N   0  0  0  0  0  0  0  0  0  0  0  0
   10.1430   -2.2620   23.6140 C   0  0  0  0  0  0  0  0  0  0  0  0
    8.0090   -2.4690   24.9250 C   0  0  0  0  0  0  0  0  0  0  0  0
    7.1160   -1.7250   25.3260 O   0  0  0  0  0  0  0  0  0  0  0  0
   10.9220   -0.9670   23.5030 C   0  0  0  0  0  0  0  0  0  0  0  0
    8.4080   -3.6190   25.7310 C   0  0  0  0  0  0  0  0  0  0  0  0
   10.2570    0.3510   23.9240 C   0  0  0  0  0  0  0  0  0  0  0  0
   12.2340   -0.8940   23.0330 C   0  0  0  0  0  0  0  0  0  0  0  0
    9.4470   -4.4720   25.5010 C   0  0  0  0  0  0  0  0  0  0  0  0
    7.5900   -4.1080   27.1580 S   0  0  0  0  0  0  0  0  0  0  0  0
   12.9830   -2.1030   22.5790 C   0  0  0  0  0  0  0  0  0  0  0  0
   10.9600    1.5970   23.8520 C   0  0  0  0  0  0  0  0  0  0  0  0
   12.8780    0.3450   22.9780 C   0  0  0  0  0  0  0  0  0  0  0  0
    9.5890   -5.5180   26.4380 C   0  0  0  0  0  0  0  0  0  0  0  0
    8.6320   -5.4370   27.4150 C   0  0  0  0  0  0  0  0  0  0  0  0
   12.2720    1.5400   23.3710 C   0  0  0  0  0  0  0  0  0  0  0  0
  1  2  1  0
  1  3  2  0
  1  4  1  0
  4  5  1  0
  4  6  1  0
  6  7  1  6
  5  8  1  0
  6  9  1  0
 10  7  1  6
  8 11  1  0
  9 11  1  0
 10 12  1  0
 10 13  1  0
 13 14  2  0
 12 15  1  0
 13 16  1  0
 15 17  2  0
 15 18  1  0
 16 19  2  0
 16 20  1  0
 18 21  1  0
 17 22  1  0
 18 23  2  0
 19 24  1  0
 20 25  1  0
 24 25  2  0
 22 26  2  0
 23 26  1  0
M  END
