x0831_0-x1418_1-x1374_1-x0397_0-x0692_1
     RDKit          3D

 25 27  0  0  0  0  0  0  0  0999 V2000
    2.3760   -7.6410   23.4160 O   0  0  0  0  0  0  0  0  0  0  0  0
    2.6760   -7.8150   24.7870 C   0  0  0  0  0  0  0  0  0  0  0  0
    4.0780   -7.7960   24.8870 O   0  0  0  0  0  0  0  0  0  0  0  0
    4.6400   -7.0560   23.8040 C   0  0  0  0  0  0  0  0  0  0  0  0
    5.2920   -5.9130   24.2360 C   0  0  0  0  0  0  0  0  0  0  0  0
    6.2820   -5.4320   23.2510 C   0  0  2  0  0  0  0  0  0  0  0  0
    6.0230   -4.6960   22.2630 C   0  0  2  0  0  0  0  0  0  0  0  0
    6.2700   -6.0510   21.9300 C   0  0  0  0  0  0  0  0  0  0  0  0
    7.1140   -3.6660   22.0860 C   0  0  2  0  0  0  0  0  0  0  0  0
    7.6160   -2.9940   23.3830 C   0  0  0  0  0  0  0  0  0  0  0  0
    6.6190   -2.7190   21.0790 N   0  0  0  0  0  0  0  0  0  0  0  0
    6.2710   -3.2600   19.8330 C   0  0  0  0  0  0  0  0  0  0  0  0
    8.7200   -2.0400   23.1450 N   0  0  0  0  0  0  0  0  0  0  0  0
    7.3030   -1.4260   21.1550 C   0  0  0  0  0  0  0  0  0  0  0  0
    7.2960   -2.9870   18.7570 C   0  0  0  0  0  0  0  0  0  0  0  0
    5.2780   -3.9520   19.6040 O   0  0  0  0  0  0  0  0  0  0  0  0
   10.1060   -2.3060   23.5610 C   0  0  0  0  0  0  0  0  0  0  0  0
    8.7100   -1.5680   21.7470 C   0  0  0  0  0  0  0  0  0  0  0  0
   10.8620   -1.0150   23.5460 C   0  0  0  0  0  0  0  0  0  0  0  0
   10.3430    0.1320   24.1440 C   0  0  0  0  0  0  0  0  0  0  0  0
   12.1180   -0.9340   22.9060 C   0  0  0  0  0  0  0  0  0  0  0  0
   12.7920   -2.1230   22.2030 C   0  0  0  0  0  0  0  0  0  0  0  0
   11.0150    1.3340   24.1180 C   0  0  0  0  0  0  0  0  0  0  0  0
   12.8420    0.3580   22.8900 C   0  0  0  0  0  0  0  0  0  0  0  0
   12.2620    1.4620   23.4950 C   0  0  0  0  0  0  0  0  0  0  0  0
  1  2  1  0
  2  3  1  0
  3  4  1  0
  4  5  1  0
  6  5  1  1
  6  7  1  0
  6  8  1  0
  7  8  1  6
  7  9  1  0
  9 10  1  1
  9 11  1  0
 11 12  1  0
 10 13  1  0
 11 14  1  0
 12 15  1  0
 12 16  2  0
 13 17  1  0
 13 18  1  0
 14 18  1  0
 17 19  1  0
 19 20  2  0
 19 21  1  0
 21 22  1  0
 20 23  1  0
 21 24  2  0
 23 25  2  0
 24 25  1  0
M  END
