x0831_0-x1386_1-x0981_1
     RDKit          3D

 29 30  0  0  0  0  0  0  0  0999 V2000
    4.1350   -5.7490   22.9460 C   0  0  0  0  0  0  0  0  0  0  0  0
    2.7810   -6.1710   23.4920 C   0  0  1  0  0  0  0  0  0  0  0  0
    2.3860   -7.4220   22.8560 N   0  0  0  0  0  0  0  0  0  0  0  0
    4.7060   -4.6020   23.0010 N   0  0  0  0  0  0  0  0  0  0  0  0
    2.7690   -6.2450   25.0170 C   0  0  0  0  0  0  0  0  0  0  0  0
    6.0030   -4.5120   22.3430 C   0  0  0  0  0  0  0  0  0  0  0  0
    1.2510   -7.5080   22.0920 C   0  0  0  0  0  0  0  0  0  0  0  0
    3.1440   -7.6590   25.3210 C   0  0  0  0  0  0  0  0  0  0  0  0
    6.5150   -3.0560   22.3770 C   0  0  2  0  0  0  0  0  0  0  0  0
    1.1640   -8.7630   21.2590 C   0  0  0  0  0  0  0  0  0  0  0  0
    0.3860   -6.6380   22.0710 O   0  0  0  0  0  0  0  0  0  0  0  0
    2.4910   -8.2910   26.3410 N   0  0  0  0  0  0  0  0  0  0  0  0
    4.0070   -8.1940   24.6570 O   0  0  0  0  0  0  0  0  0  0  0  0
    6.6790   -2.4870   21.0080 N   0  0  0  0  0  0  0  0  0  0  0  0
    7.8350   -3.1330   23.2130 C   0  0  0  0  0  0  0  0  0  0  0  0
    6.4120   -3.1520   19.8060 C   0  0  0  0  0  0  0  0  0  0  0  0
    8.8000   -2.0720   23.0070 N   0  0  0  0  0  0  0  0  0  0  0  0
    7.5690   -1.3220   20.9420 C   0  0  0  0  0  0  0  0  0  0  0  0
    7.3690   -2.9490   18.6500 C   0  0  0  0  0  0  0  0  0  0  0  0
    5.4480   -3.9360   19.6610 O   0  0  0  0  0  0  0  0  0  0  0  0
   10.0910   -2.2060   23.6480 C   0  0  0  0  0  0  0  0  0  0  0  0
    8.9090   -1.6440   21.6170 C   0  0  0  0  0  0  0  0  0  0  0  0
   10.9310   -0.9700   23.5530 C   0  0  0  0  0  0  0  0  0  0  0  0
   10.3900    0.1880   24.1350 C   0  0  0  0  0  0  0  0  0  0  0  0
   12.1820   -0.9010   22.9210 C   0  0  0  0  0  0  0  0  0  0  0  0
   12.8550   -2.0650   22.2570 C   0  0  0  0  0  0  0  0  0  0  0  0
   11.0680    1.3900   24.0850 C   0  0  0  0  0  0  0  0  0  0  0  0
   12.8520    0.3270   22.8930 C   0  0  0  0  0  0  0  0  0  0  0  0
   12.3000    1.4600   23.4640 C   0  0  0  0  0  0  0  0  0  0  0  0
  2  1  1  6
  2  3  1  0
  1  4  2  3
  2  5  1  0
  4  6  1  0
  3  7  1  0
  5  8  1  0
  9  6  1  6
  7 10  1  0
  7 11  2  0
  8 12  1  0
  8 13  2  0
  9 14  1  0
  9 15  1  0
 14 16  1  0
 15 17  1  0
 14 18  1  0
 16 19  1  0
 16 20  2  0
 17 21  1  0
 17 22  1  0
 18 22  1  0
 21 23  1  0
 23 24  2  0
 23 25  1  0
 25 26  1  0
 24 27  1  0
 25 28  2  0
 27 29  2  0
 28 29  1  0
M  END
