x0831_1-x0692_0-x0769_1
     RDKit          3D

 30 32  0  0  0  0  0  0  0  0999 V2000
    6.0910   -3.4500   19.9920 C   0  0  0  0  0  0  0  0  0  0  0  0
    7.0870   -3.0470   18.9000 C   0  0  0  0  0  0  0  0  0  0  0  0
    5.2440   -4.2980   19.7450 O   0  0  0  0  0  0  0  0  0  0  0  0
    6.1650   -2.8810   21.2400 N   0  0  0  0  0  0  0  0  0  0  0  0
    6.1790   -1.4160   21.3930 C   0  0  0  0  0  0  0  0  0  0  0  0
    6.8690   -3.6440   22.3060 C   0  0  0  0  0  0  0  0  0  0  0  0
    7.5880   -0.8110   21.1250 C   0  0  0  0  0  0  0  0  0  0  0  0
    7.2370   -2.7360   23.5060 C   0  0  2  0  0  0  0  0  0  0  0  0
    6.2090   -1.8370   24.1650 C   0  0  0  0  0  0  0  0  0  0  0  0
    8.4390   -1.9200   23.1720 N   0  0  0  0  0  0  0  0  0  0  0  0
    8.7370   -1.5930   21.7920 C   0  0  0  0  0  0  0  0  0  0  0  0
    6.3990   -1.7370   25.6730 C   0  0  0  0  0  0  0  0  0  0  0  0
    9.5390   -2.2530   23.8830 C   0  0  0  0  0  0  0  0  0  0  0  0
    5.6060   -2.7010   26.3630 O   0  0  0  0  0  0  0  0  0  0  0  0
   10.6770   -1.3310   23.6140 C   0  0  0  0  0  0  0  0  0  0  0  0
    4.2540   -2.6800   26.1860 C   0  0  0  0  0  0  0  0  0  0  0  0
   10.4570    0.0400   23.7360 C   0  0  0  0  0  0  0  0  0  0  0  0
   11.9420   -1.8010   23.2350 C   0  0  0  0  0  0  0  0  0  0  0  0
    3.6140   -3.9270   26.1390 C   0  0  0  0  0  0  0  0  0  0  0  0
    3.4960   -1.5230   26.0570 C   0  0  0  0  0  0  0  0  0  0  0  0
   11.4660    0.9420   23.4820 C   0  0  0  0  0  0  0  0  0  0  0  0
   12.9580   -0.8730   22.9860 C   0  0  0  0  0  0  0  0  0  0  0  0
    4.5350   -5.3660   26.3110 S   0  0  0  0  0  0  0  0  0  0  0  0
   11.2050    2.4030   23.5980 C   0  0  0  0  0  0  0  0  0  0  0  0
    2.2420   -4.0280   25.9610 C   0  0  0  0  0  0  0  0  0  0  0  0
    2.1160   -1.6190   25.8840 C   0  0  0  0  0  0  0  0  0  0  0  0
   12.7210    0.4950   23.1090 C   0  0  0  0  0  0  0  0  0  0  0  0
    5.9250   -5.0160   26.4200 O   0  0  0  0  0  0  0  0  0  0  0  0
    4.0470   -6.3470   25.3680 O   0  0  0  0  0  0  0  0  0  0  0  0
    1.4900   -2.8630   25.8340 C   0  0  0  0  0  0  0  0  0  0  0  0
  1  2  1  0
  1  3  2  0
  1  4  1  0
  4  5  1  0
  4  6  1  0
  5  7  1  0
  6  8  1  0
  8  9  1  6
  8 10  1  0
  7 11  1  0
 10 11  1  0
  9 12  1  0
 10 13  1  0
 12 14  1  0
 13 15  1  0
 14 16  1  0
 15 17  2  0
 15 18  1  0
 16 19  2  0
 16 20  1  0
 17 21  1  0
 18 22  2  0
 19 23  1  0
 21 24  1  0
 19 25  1  0
 20 26  2  0
 21 27  2  0
 22 27  1  0
 23 28  2  0
 23 29  2  0
 25 30  2  0
 26 30  1  0
M  END
