x0831_0-x0397_0-x0692_1-x0434_2-x1334_0-x1418_1-x1374_1-x1385_1-x0831_1-x1334_1-x0426_1-x1412_1-x0770_1-x1375_1
     RDKit          3D

 44 49  0  0  0  0  0  0  0  0999 V2000
    2.3160   -7.6230   23.2220 O   0  0  0  0  0  0  0  0  0  0  0  0
    2.5180   -7.9730   24.5750 C   0  0  0  0  0  0  0  0  0  0  0  0
    3.9110   -7.9880   24.7920 O   0  0  0  0  0  0  0  0  0  0  0  0
    4.5940   -7.1830   23.8330 C   0  0  0  0  0  0  0  0  0  0  0  0
    5.0110   -6.0310   24.4090 C   0  0  0  0  0  0  0  0  0  0  0  0
    5.9740   -5.4070   23.4560 C   0  0  2  0  0  0  0  0  0  0  0  0
    5.5740   -4.4200   22.4500 C   0  0  2  0  0  0  0  0  0  0  0  0
    6.1520   -5.9400   22.1290 C   0  0  0  0  0  0  0  0  0  0  0  0
    6.3790   -3.1300   22.3570 C   0  0  2  0  0  0  0  0  0  0  0  0
    6.3770   -2.5100   21.0300 N   0  0  0  0  0  0  0  0  0  0  0  0
    7.8570   -3.3340   22.8220 C   0  0  0  0  0  0  0  0  0  0  0  0
    6.2410   -3.2870   19.8890 C   0  0  0  0  0  0  0  0  0  0  0  0
    8.5700   -2.0460   23.0710 N   0  0  0  0  0  0  0  0  0  0  0  0
    7.3300   -1.3890   20.9400 C   0  0  1  0  0  0  0  0  0  0  0  0
    5.4010   -4.1880   19.7630 O   0  0  0  0  0  0  0  0  0  0  0  0
    7.2110   -3.0040   18.7560 C   0  0  0  0  0  0  0  0  0  0  0  0
   10.0050   -2.2570   23.3270 C   0  0  2  0  0  0  0  0  0  0  0  0
    7.3380   -0.2610   21.9970 C   0  0  0  0  0  0  0  0  0  0  0  0
    8.5530   -1.3310   21.8160 C   0  0  0  0  0  0  0  0  0  0  0  0
    6.2420    0.7800   21.9900 C   0  0  2  0  0  0  0  0  0  0  0  0
   10.5360   -3.2060   24.4220 C   0  0  0  0  0  0  0  0  0  0  0  0
   10.8190   -0.9660   23.3670 C   0  0  0  0  0  0  0  0  0  0  0  0
    4.9450    0.5220   22.7770 C   0  0  0  0  0  0  0  0  0  0  0  0
    5.8800    0.9510   20.5120 C   0  0  0  0  0  0  0  0  0  0  0  0
   10.1810    0.2280   23.9300 C   0  0  0  0  0  0  0  0  0  0  0  0
   12.0840   -0.8730   22.9080 C   0  0  0  0  0  0  0  0  0  0  0  0
    9.7400   -4.1010   25.3110 C   0  0  0  0  0  0  0  0  0  0  0  0
    3.9140    1.6750   22.6340 C   0  0  1  0  0  0  0  0  0  0  0  0
   12.7670   -2.0570   22.3110 C   0  0  0  0  0  0  0  0  0  0  0  0
    4.6680    1.5640   20.1960 C   0  0  0  0  0  0  0  0  0  0  0  0
    6.7140    0.5230   19.4400 C   0  0  0  0  0  0  0  0  0  0  0  0
   10.7970    1.4010   24.0130 C   0  0  0  0  0  0  0  0  0  0  0  0
   12.8320    0.3030   22.9430 C   0  0  0  0  0  0  0  0  0  0  0  0
   10.0350   -5.3810   25.6300 C   0  0  0  0  0  0  0  0  0  0  0  0
    8.2800   -3.6520   26.1380 S   0  0  0  0  0  0  0  0  0  0  0  0
    4.3130    2.8340   23.3940 N   0  0  0  0  0  0  0  0  0  0  0  0
    3.6560    2.0670   21.1750 C   0  0  0  0  0  0  0  0  0  0  0  0
    4.3710    1.7310   18.7590 C   0  0  0  0  0  0  0  0  0  0  0  0
    6.5410    0.6110   18.0960 N   0  0  0  0  0  0  0  0  0  0  0  0
   12.1810    1.4060   23.4880 C   0  0  0  0  0  0  0  0  0  0  0  0
    9.1300   -6.0360   26.5560 C   0  0  0  0  0  0  0  0  0  0  0  0
    8.1160   -5.2380   26.9550 C   0  0  0  0  0  0  0  0  0  0  0  0
    6.8090   -5.6240   28.0930 Cl  0  0  0  0  0  0  0  0  0  0  0  0
    5.3000    1.2650   17.7470 C   0  0  0  0  0  0  0  0  0  0  0  0
  1  2  1  0
  2  3  1  0
  3  4  1  0
  4  5  1  0
  6  5  1  1
  6  7  1  0
  6  8  1  0
  7  8  1  6
  7  9  1  0
  9 10  1  0
  9 11  1  6
 10 12  1  0
 11 13  1  0
 10 14  1  0
 12 15  2  0
 12 16  1  0
 13 17  1  0
 14 18  1  1
 13 19  1  0
 14 19  1  0
 20 18  1  6
 17 21  1  1
 17 22  1  0
 20 23  1  0
 20 24  1  0
 22 25  2  0
 22 26  1  0
 21 27  1  0
 23 28  1  0
 26 29  1  0
 24 30  2  0
 24 31  1  0
 25 32  1  0
 26 33  2  0
 27 34  2  0
 27 35  1  0
 28 36  1  1
 28 37  1  0
 30 37  1  0
 30 38  1  0
 31 39  2  0
 32 40  2  0
 33 40  1  0
 34 41  1  0
 35 42  1  0
 41 42  2  0
 42 43  1  0
 38 44  2  0
 39 44  1  0
M  END
