x0831_0-x1418_1-x1374_1-x0770_1
     RDKit          3D

 25 27  0  0  0  0  0  0  0  0999 V2000
    6.2780   -3.1620   19.7570 C   0  0  0  0  0  0  0  0  0  0  0  0
    7.3130   -2.9400   18.6770 C   0  0  0  0  0  0  0  0  0  0  0  0
    5.3640   -3.9820   19.6380 O   0  0  0  0  0  0  0  0  0  0  0  0
    6.4090   -2.4320   20.9300 N   0  0  0  0  0  0  0  0  0  0  0  0
    6.2300   -3.0940   22.2140 C   0  0  0  0  0  0  0  0  0  0  0  0
    7.2830   -1.2200   21.0750 C   0  0  0  0  0  0  0  0  0  0  0  0
    7.6240   -3.5010   22.6710 C   0  0  2  0  0  0  0  0  0  0  0  0
    8.5520   -1.5370   21.6260 C   0  0  0  0  0  0  0  0  0  0  0  0
    7.3200   -4.3930   23.8850 C   0  0  0  0  0  0  0  0  0  0  0  0
    8.4710   -2.2730   22.8980 N   0  0  0  0  0  0  0  0  0  0  0  0
    9.7730   -2.5060   23.4370 C   0  0  0  0  0  0  0  0  0  0  0  0
    6.0160   -5.1840   23.9900 C   0  0  1  0  0  0  0  0  0  0  0  0
   10.5690   -1.2080   23.5170 C   0  0  0  0  0  0  0  0  0  0  0  0
    4.9330   -4.4000   24.3580 C   0  0  0  0  0  0  0  0  0  0  0  0
    5.5880   -6.0770   22.9780 C   0  0  0  0  0  0  0  0  0  0  0  0
   10.0940   -0.0610   24.1740 C   0  0  0  0  0  0  0  0  0  0  0  0
   11.8480   -1.0980   22.9060 C   0  0  0  0  0  0  0  0  0  0  0  0
    3.7020   -5.1050   24.3000 C   0  0  0  0  0  0  0  0  0  0  0  0
    4.0610   -6.6270   23.7430 S   0  0  0  0  0  0  0  0  0  0  0  0
   12.5130   -2.2130   22.1580 C   0  0  0  0  0  0  0  0  0  0  0  0
    3.1250   -7.0560   22.7300 O   0  0  0  0  0  0  0  0  0  0  0  0
    4.3740   -7.5990   24.7690 O   0  0  0  0  0  0  0  0  0  0  0  0
   10.8030    1.1300   24.2330 C   0  0  0  0  0  0  0  0  0  0  0  0
   12.5460    0.0990   22.9820 C   0  0  0  0  0  0  0  0  0  0  0  0
   12.0330    1.1960   23.6300 C   0  0  0  0  0  0  0  0  0  0  0  0
  1  2  1  0
  1  3  2  0
  1  4  1  0
  4  5  1  0
  4  6  1  0
  5  7  1  0
  6  8  1  0
  7  9  1  1
  7 10  1  0
  8 10  1  0
 10 11  1  0
 12  9  1  6
 11 13  1  0
 12 14  1  0
 12 15  1  0
 13 16  2  0
 13 17  1  0
 14 18  2  0
 15 19  1  0
 18 19  1  0
 17 20  1  0
 19 21  1  0
 19 22  1  0
 16 23  1  0
 17 24  2  0
 23 25  2  0
 24 25  1  0
M  END
