x0831_0-x0426_1-x1385_1-x1334_0-x0831_1-x1418_1-x1375_1-x1412_1-x1334_1-x0770_1-x0434_2-x1386_1-x0692_1-x1374_1-x0397_0
     RDKit          3D

 43 48  0  0  0  0  0  0  0  0999 V2000
    3.0670   -8.1790   23.9760 O   0  0  0  0  0  0  0  0  0  0  0  0
    3.4700   -6.8420   24.0490 C   0  0  0  0  0  0  0  0  0  0  0  0
    4.8320   -6.8410   24.4210 O   0  0  0  0  0  0  0  0  0  0  0  0
    5.4020   -5.5370   24.3470 C   0  0  0  0  0  0  0  0  0  0  0  0
    5.9630   -5.2220   22.9880 C   0  0  2  0  0  0  0  0  0  0  0  0
    5.5640   -4.1910   22.2630 C   0  0  2  0  0  0  0  0  0  0  0  0
    5.5990   -5.8310   21.9110 C   0  0  0  0  0  0  0  0  0  0  0  0
    6.7690   -3.2420   22.0170 C   0  0  2  0  0  0  0  0  0  0  0  0
    7.5930   -2.9090   23.2590 C   0  0  0  0  0  0  0  0  0  0  0  0
    6.6690   -2.2520   21.0180 C   0  0  1  0  0  0  0  0  0  0  0  0
    6.3990   -3.1100   19.7620 C   0  0  0  0  0  0  0  0  0  0  0  0
    5.7320   -1.0690   21.4110 C   0  0  2  0  0  0  0  0  0  0  0  0
    8.6580   -1.9520   22.9460 N   0  0  0  0  0  0  0  0  0  0  0  0
    7.8300   -1.5780   20.7270 C   0  0  0  0  0  0  0  0  0  0  0  0
    7.4160   -2.9790   18.6340 C   0  0  0  0  0  0  0  0  0  0  0  0
    5.4630   -3.9180   19.6520 O   0  0  0  0  0  0  0  0  0  0  0  0
    4.6700   -1.0840   22.5200 C   0  0  0  0  0  0  0  0  0  0  0  0
    9.9490   -2.2920   23.4010 C   0  0  2  0  0  0  0  0  0  0  0  0
    9.0070   -1.9610   21.5180 C   0  0  0  0  0  0  0  0  0  0  0  0
    5.4220   -0.0950   20.2470 C   0  0  0  0  0  0  0  0  0  0  0  0
    4.6120    0.1780   23.4590 C   0  0  0  0  0  0  0  0  0  0  0  0
   10.1540   -3.6180   24.0950 C   0  0  0  0  0  0  0  0  0  0  0  0
    4.4500    0.9190   20.1720 C   0  0  0  0  0  0  0  0  0  0  0  0
    6.3400   -0.3050   19.0450 C   0  0  0  0  0  0  0  0  0  0  0  0
   10.7570   -1.0270   23.4920 C   0  0  0  0  0  0  0  0  0  0  0  0
    4.2880    1.4720   22.6620 C   0  0  1  0  0  0  0  0  0  0  0  0
    3.5480    1.1480   21.3380 C   0  0  0  0  0  0  0  0  0  0  0  0
    4.3970    1.7020   18.9180 C   0  0  0  0  0  0  0  0  0  0  0  0
    6.2990    0.4580   17.8090 N   0  0  0  0  0  0  0  0  0  0  0  0
   10.2200    0.0660   24.1700 C   0  0  0  0  0  0  0  0  0  0  0  0
   12.0330   -0.9060   22.8700 C   0  0  0  0  0  0  0  0  0  0  0  0
    9.4490   -4.1450   25.0980 C   0  0  0  0  0  0  0  0  0  0  0  0
    3.4810    2.3780   23.4520 N   0  0  0  0  0  0  0  0  0  0  0  0
   12.6740   -2.0240   22.1160 C   0  0  0  0  0  0  0  0  0  0  0  0
    5.3610    1.4090   17.7760 C   0  0  0  0  0  0  0  0  0  0  0  0
   10.9420    1.2590   24.2120 C   0  0  0  0  0  0  0  0  0  0  0  0
   12.7400    0.2840   22.9330 C   0  0  0  0  0  0  0  0  0  0  0  0
    9.7920   -5.5100   25.5170 C   0  0  0  0  0  0  0  0  0  0  0  0
    8.1590   -3.5940   26.0970 S   0  0  0  0  0  0  0  0  0  0  0  0
   12.1870    1.3600   23.5970 C   0  0  0  0  0  0  0  0  0  0  0  0
    9.0700   -5.9290   26.5100 C   0  0  0  0  0  0  0  0  0  0  0  0
    8.1590   -5.0850   26.9710 C   0  0  0  0  0  0  0  0  0  0  0  0
    7.0860   -5.3830   28.2740 Cl  0  0  0  0  0  0  0  0  0  0  0  0
  1  2  1  0
  2  3  1  0
  3  4  1  0
  5  4  1  1
  5  6  1  0
  5  7  1  0
  6  7  1  6
  6  8  1  0
  8  9  1  1
  8 10  1  0
 10 11  1  6
 10 12  1  0
  9 13  1  0
 10 14  1  0
 11 15  1  0
 11 16  2  0
 12 17  1  6
 13 18  1  0
 13 19  1  0
 14 19  1  0
 12 20  1  0
 17 21  1  0
 18 22  1  1
 20 23  2  0
 20 24  1  0
 18 25  1  0
 21 26  1  0
 23 27  1  0
 26 27  1  0
 23 28  1  0
 24 29  2  0
 25 30  2  0
 25 31  1  0
 22 32  1  0
 26 33  1  1
 31 34  1  0
 28 35  2  0
 29 35  1  0
 30 36  1  0
 31 37  2  0
 32 38  2  0
 32 39  1  0
 36 40  2  0
 37 40  1  0
 38 41  1  0
 39 42  1  0
 41 42  2  0
 42 43  1  0
M  END
