x0831_0-x0434_2-x1348_0-x0731_0-x0072_0
     RDKit          3D

 33 35  0  0  0  0  0  0  0  0999 V2000
    6.9750   -3.2660   21.4740 N   0  0  0  0  0  0  0  0  0  0  0  0
    6.5370   -3.6200   20.1460 C   0  0  0  0  0  0  0  0  0  0  0  0
    5.5480   -4.3400   19.8940 O   0  0  0  0  0  0  0  0  0  0  0  0
    8.1720   -2.4300   21.6020 C   0  0  0  0  0  0  0  0  0  0  0  0
    7.2300   -4.3400   22.4160 C   0  0  1  0  0  0  0  0  0  0  0  0
    7.3670   -3.1040   18.9860 C   0  0  0  0  0  0  0  0  0  0  0  0
    8.1260   -1.0760   20.8970 C   0  0  0  0  0  0  0  0  0  0  0  0
    6.7030   -4.0860   23.8510 C   0  0  2  0  0  0  0  0  0  0  0  0
    6.8600   -5.5590   21.6490 N   0  0  0  0  0  0  0  0  0  0  0  0
    7.7670   -3.7290   24.7200 N   0  0  0  0  0  0  0  0  0  0  0  0
    6.8370   -0.4520   21.1840 N   0  0  0  0  0  0  0  0  0  0  0  0
    6.0050   -5.2700   24.3530 N   0  0  0  0  0  0  0  0  0  0  0  0
    5.9070   -6.4500   22.2980 C   0  0  0  0  0  0  0  0  0  0  0  0
    8.0640   -4.4710   26.0700 S   0  0  0  0  0  0  0  0  0  0  0  0
    8.4410   -2.4440   24.4290 C   0  0  0  0  0  0  0  0  0  0  0  0
    5.1490   -5.8660   23.3200 C   0  0  0  0  0  0  0  0  0  0  0  0
    6.1850    0.2300   20.0910 C   0  0  0  0  0  0  0  0  0  0  0  0
    6.5010   -5.1440   26.6140 C   0  0  0  0  0  0  0  0  0  0  0  0
    9.0240   -5.5590   26.1120 O   0  0  0  0  0  0  0  0  0  0  0  0
    8.2650   -3.3720   26.9870 O   0  0  0  0  0  0  0  0  0  0  0  0
    9.8090   -2.5190   23.7080 C   0  0  0  0  0  0  0  0  0  0  0  0
    6.8090    0.1450   18.8350 C   0  0  0  0  0  0  0  0  0  0  0  0
    4.8830    1.0330   20.1930 C   0  0  0  0  0  0  0  0  0  0  0  0
   10.5690   -1.2030   23.6050 C   0  0  0  0  0  0  0  0  0  0  0  0
    6.3560    0.7240   17.7100 N   0  0  0  0  0  0  0  0  0  0  0  0
    4.4950    1.5860   19.0010 C   0  0  0  0  0  0  0  0  0  0  0  0
   10.1260   -0.0290   24.2150 C   0  0  0  0  0  0  0  0  0  0  0  0
   11.8860   -1.0420   22.8410 C   0  0  0  0  0  0  0  0  0  0  0  0
    5.2190    1.4290   17.8160 C   0  0  0  0  0  0  0  0  0  0  0  0
   12.5370   -2.1730   22.1070 C   0  0  0  0  0  0  0  0  0  0  0  0
   10.8360    1.3310   24.1670 C   0  0  0  0  0  0  0  0  0  0  0  0
   12.6100    0.2470   22.7790 C   0  0  0  0  0  0  0  0  0  0  0  0
   12.0620    1.4550   23.4590 C   0  0  0  0  0  0  0  0  0  0  0  0
  1  2  1  0
  2  3  2  0
  1  4  1  0
  5  1  1  6
  2  6  1  0
  4  7  1  0
  5  8  1  0
  5  9  1  0
  8 10  1  1
  7 11  1  0
  8 12  1  0
  9 13  1  0
 14 10  1  0
 10 15  1  0
 12 16  1  0
 13 16  1  0
 11 17  1  0
 14 18  1  0
 14 19  2  0
 14 20  2  0
 15 21  1  0
 17 22  2  0
 17 23  1  0
 21 24  1  0
 22 25  1  0
 23 26  2  0
 24 27  2  0
 24 28  1  0
 25 29  2  0
 26 29  1  0
 28 30  1  0
 27 31  1  0
 28 32  2  0
 31 33  2  0
 32 33  1  0
M  END
