x0831_0-x0820_1-x0540_3-x0434_2
     RDKit          3D

 35 39  0  0  0  0  0  0  0  0999 V2000
    4.9940    0.0560   21.7380 C   0  0  2  0  0  0  0  0  0  0  0  0
    5.2650    1.2980   22.5750 C   0  0  0  0  0  0  0  0  0  0  0  0
    4.2150    2.0030   22.9610 N   0  0  0  0  0  0  0  0  0  0  0  0
    5.7520   -1.1410   22.3160 C   0  0  0  0  0  0  0  0  0  0  0  0
    5.4590    0.2920   20.3170 C   0  0  0  0  0  0  0  0  0  0  0  0
    7.2660   -1.2440   22.0440 C   0  0  1  0  0  0  0  0  0  0  0  0
    6.6240   -0.3260   19.8540 C   0  0  0  0  0  0  0  0  0  0  0  0
    4.7440    1.1290   19.4300 C   0  0  0  0  0  0  0  0  0  0  0  0
    3.1080    2.3390   23.6790 C   0  0  0  0  0  0  0  0  0  0  0  0
    8.0050   -2.5100   22.5340 C   0  0  2  0  0  0  0  0  0  0  0  0
    7.4400   -1.1820   20.5980 N   0  0  0  0  0  0  0  0  0  0  0  0
    6.9650   -0.0500   18.5590 C   0  0  0  0  0  0  0  0  0  0  0  0
    5.2170    1.3200   18.1360 C   0  0  0  0  0  0  0  0  0  0  0  0
    2.4600    1.6520   24.5100 O   0  0  0  0  0  0  0  0  0  0  0  0
    7.1750   -3.8350   22.6680 C   0  0  0  0  0  0  0  0  0  0  0  0
    8.6710   -2.2400   23.7230 C   0  0  0  0  0  0  0  0  0  0  0  0
    6.3350    0.7370   17.6790 N   0  0  0  0  0  0  0  0  0  0  0  0
   10.1940   -2.3020   23.6110 C   0  0  0  0  0  0  0  0  0  0  0  0
    6.3400   -4.0470   23.9170 C   0  0  0  0  0  0  0  0  0  0  0  0
    6.8760   -4.2400   25.2120 C   0  0  0  0  0  0  0  0  0  0  0  0
    4.7740   -4.0720   23.8000 C   0  0  0  0  0  0  0  0  0  0  0  0
   10.9230   -0.9780   23.5390 C   0  0  0  0  0  0  0  0  0  0  0  0
    5.9950   -4.4330   26.3130 C   0  0  0  0  0  0  0  0  0  0  0  0
    3.9830   -4.2690   24.9090 C   0  0  0  0  0  0  0  0  0  0  0  0
    8.2570   -4.2620   25.5400 C   0  0  0  0  0  0  0  0  0  0  0  0
   10.3040    0.1840   24.0380 C   0  0  0  0  0  0  0  0  0  0  0  0
   12.2070   -0.8740   22.9820 C   0  0  0  0  0  0  0  0  0  0  0  0
   12.9280   -2.0580   22.4140 C   0  0  0  0  0  0  0  0  0  0  0  0
    4.6070   -4.4430   26.1380 C   0  0  0  0  0  0  0  0  0  0  0  0
    8.7330   -4.4520   26.8110 C   0  0  0  0  0  0  0  0  0  0  0  0
    6.4880   -4.6270   27.6270 C   0  0  0  0  0  0  0  0  0  0  0  0
   10.9480    1.4010   23.9880 C   0  0  0  0  0  0  0  0  0  0  0  0
   12.8580    0.3640   22.9360 C   0  0  0  0  0  0  0  0  0  0  0  0
    7.8520   -4.6330   27.8560 C   0  0  0  0  0  0  0  0  0  0  0  0
   12.2120    1.4940   23.4460 C   0  0  0  0  0  0  0  0  0  0  0  0
  1  2  1  1
  2  3  1  0
  1  4  1  0
  1  5  1  0
  6  4  1  6
  5  7  2  0
  5  8  1  0
  3  9  1  0
  6 10  1  0
  6 11  1  0
  7 11  1  0
  7 12  1  0
  8 13  2  0
  9 14  2  0
 10 15  1  1
 10 16  1  0
 12 17  2  0
 13 17  1  0
 16 18  1  0
 15 19  1  0
 19 20  1  0
 19 21  2  0
 18 22  1  0
 20 23  2  0
 21 24  1  0
 20 25  1  0
 22 26  2  0
 22 27  1  0
 27 28  1  0
 23 29  1  0
 24 29  2  0
 25 30  2  0
 23 31  1  0
 26 32  1  0
 27 33  2  0
 30 34  1  0
 31 34  2  0
 32 35  2  0
 33 35  1  0
M  END
