x0831_0-x1334_0-x1412_1-x0770_1-x0692_1
     RDKit          3D

 24 26  0  0  0  0  0  0  0  0999 V2000
    6.3170   -3.3990   19.9620 C   0  0  0  0  0  0  0  0  0  0  0  0
    7.3120   -3.0270   18.8700 C   0  0  0  0  0  0  0  0  0  0  0  0
    5.3620   -4.1410   19.7230 O   0  0  0  0  0  0  0  0  0  0  0  0
    6.5220   -2.9050   21.2320 N   0  0  0  0  0  0  0  0  0  0  0  0
    6.9510   -1.5300   21.4550 C   0  0  0  0  0  0  0  0  0  0  0  0
    6.6540   -3.7750   22.3930 C   0  0  0  0  0  0  0  0  0  0  0  0
    8.3760   -1.4420   22.0260 C   0  0  0  0  0  0  0  0  0  0  0  0
    8.0460   -3.6500   23.0400 C   0  0  0  0  0  0  0  0  0  0  0  0
    8.5810   -2.2790   23.2140 N   0  0  0  0  0  0  0  0  0  0  0  0
   10.0480   -2.3390   23.3210 C   0  0  2  0  0  0  0  0  0  0  0  0
   10.5870   -3.2550   24.4110 C   0  0  0  0  0  0  0  0  0  0  0  0
   10.7380   -0.9950   23.3890 C   0  0  0  0  0  0  0  0  0  0  0  0
   10.0810    0.1780   23.9190 C   0  0  0  0  0  0  0  0  0  0  0  0
   12.0670   -0.8820   22.9220 C   0  0  0  0  0  0  0  0  0  0  0  0
    9.6690   -4.0540   25.3570 C   0  0  0  0  0  0  0  0  0  0  0  0
   12.8060   -2.0440   22.3470 C   0  0  0  0  0  0  0  0  0  0  0  0
   10.8200    1.3850   23.9470 C   0  0  0  0  0  0  0  0  0  0  0  0
   12.7520    0.3170   22.9680 C   0  0  0  0  0  0  0  0  0  0  0  0
    9.9980   -5.4220   25.6760 C   0  0  0  0  0  0  0  0  0  0  0  0
    8.2230   -3.7200   26.2460 S   0  0  0  0  0  0  0  0  0  0  0  0
   12.1300    1.4480   23.4790 C   0  0  0  0  0  0  0  0  0  0  0  0
    9.1700   -6.0760   26.5490 C   0  0  0  0  0  0  0  0  0  0  0  0
    8.1420   -5.3010   26.9860 C   0  0  0  0  0  0  0  0  0  0  0  0
    6.9080   -5.7200   28.0940 Cl  0  0  0  0  0  0  0  0  0  0  0  0
  1  2  1  0
  1  3  2  0
  1  4  1  0
  4  5  1  0
  4  6  1  0
  5  7  1  0
  6  8  1  0
  7  9  1  0
  8  9  1  0
  9 10  1  0
 10 11  1  1
 10 12  1  0
 12 13  2  0
 12 14  1  0
 11 15  1  0
 14 16  1  0
 13 17  1  0
 14 18  2  0
 15 19  2  0
 15 20  1  0
 17 21  2  0
 18 21  1  0
 19 22  1  0
 20 23  1  0
 22 23  2  0
 23 24  1  0
M  END
