x0831_1-x0831_0-x1418_1-x0692_1-x1334_1
     RDKit          3D

 18 19  0  0  0  0  0  0  0  0999 V2000
    6.1750   -3.4520   20.0010 C   0  0  0  0  0  0  0  0  0  0  0  0
    7.1340   -3.0360   18.8840 C   0  0  0  0  0  0  0  0  0  0  0  0
    5.3490   -4.3430   19.8030 O   0  0  0  0  0  0  0  0  0  0  0  0
    6.2510   -2.8350   21.2380 N   0  0  0  0  0  0  0  0  0  0  0  0
    6.0970   -1.3990   21.4440 C   0  0  0  0  0  0  0  0  0  0  0  0
    6.8490   -3.6450   22.3160 C   0  0  0  0  0  0  0  0  0  0  0  0
    7.4030   -0.6570   21.2030 C   0  0  0  0  0  0  0  0  0  0  0  0
    7.6760   -2.9360   23.4160 C   0  0  0  0  0  0  0  0  0  0  0  0
    8.6900   -1.9660   22.9960 N   0  0  0  0  0  0  0  0  0  0  0  0
    8.6520   -1.4020   21.6600 C   0  0  0  0  0  0  0  0  0  0  0  0
   10.0310   -2.1650   23.5130 C   0  0  0  0  0  0  0  0  0  0  0  0
   10.8700   -0.9290   23.4910 C   0  0  0  0  0  0  0  0  0  0  0  0
   10.3410    0.2240   24.0840 C   0  0  0  0  0  0  0  0  0  0  0  0
   12.1440   -0.8800   22.8940 C   0  0  0  0  0  0  0  0  0  0  0  0
   12.7940   -2.0640   22.2290 C   0  0  0  0  0  0  0  0  0  0  0  0
   11.0510    1.4120   24.0780 C   0  0  0  0  0  0  0  0  0  0  0  0
   12.8460    0.3280   22.9050 C   0  0  0  0  0  0  0  0  0  0  0  0
   12.3020    1.4610   23.4860 C   0  0  0  0  0  0  0  0  0  0  0  0
  1  2  1  0
  1  3  2  0
  1  4  1  0
  4  5  1  0
  4  6  1  0
  5  7  1  0
  6  8  1  0
  8  9  1  0
  7 10  1  0
  9 10  1  0
  9 11  1  0
 11 12  1  0
 12 13  2  0
 12 14  1  0
 14 15  1  0
 13 16  1  0
 14 17  2  0
 16 18  2  0
 17 18  1  0
M  END
