x0831_0-x1385_1
     RDKit          3D

 17 18  0  0  0  0  0  0  0  0999 V2000
    6.4310   -3.3080   19.8930 C   0  0  0  0  0  0  0  0  0  0  0  0
    7.3930   -2.9840   18.7640 C   0  0  0  0  0  0  0  0  0  0  0  0
    5.4620   -4.0750   19.7490 O   0  0  0  0  0  0  0  0  0  0  0  0
    6.7260   -2.6940   21.1280 N   0  0  0  0  0  0  0  0  0  0  0  0
    6.6720   -3.5550   22.2950 C   0  0  0  0  0  0  0  0  0  0  0  0
    7.5240   -1.6010   21.2110 C   0  0  0  0  0  0  0  0  0  0  0  0
    7.8980   -3.6330   22.9330 C   0  0  0  0  0  0  0  0  0  0  0  0
    8.7860   -1.8170   21.7660 C   0  0  0  0  0  0  0  0  0  0  0  0
    8.6940   -2.3600   22.9950 N   0  0  0  0  0  0  0  0  0  0  0  0
    9.9610   -2.5030   23.5230 C   0  0  0  0  0  0  0  0  0  0  0  0
   10.7180   -1.1680   23.5340 C   0  0  0  0  0  0  0  0  0  0  0  0
   10.1610   -0.0510   24.1690 C   0  0  0  0  0  0  0  0  0  0  0  0
   11.9690   -1.0200   22.9060 C   0  0  0  0  0  0  0  0  0  0  0  0
   12.7350   -2.0970   22.1590 C   0  0  0  0  0  0  0  0  0  0  0  0
   10.7260    1.2620   24.2480 C   0  0  0  0  0  0  0  0  0  0  0  0
   12.6750    0.3300   22.9300 C   0  0  0  0  0  0  0  0  0  0  0  0
   12.0910    1.4050   23.5570 C   0  0  0  0  0  0  0  0  0  0  0  0
  1  2  1  0
  1  3  2  0
  1  4  1  0
  4  5  1  0
  4  6  1  0
  5  7  1  0
  6  8  1  0
  7  9  1  0
  8  9  1  0
  9 10  1  0
 10 11  1  0
 11 12  2  0
 11 13  1  0
 13 14  1  0
 12 15  1  0
 13 16  2  0
 15 17  2  0
 16 17  1  0
M  END
