x0831_0-x0770_1-x0426_1-x1418_1-x1334_0-x0397_0-x1385_1-x1375_1-x0692_1-x0831_1-x1334_1
     RDKit          3D

 42 47  0  0  0  0  0  0  0  0999 V2000
    3.0880   -8.1020   24.5470 O   0  0  0  0  0  0  0  0  0  0  0  0
    3.5640   -7.1990   25.5180 C   0  0  0  0  0  0  0  0  0  0  0  0
    4.7210   -6.5720   25.0160 O   0  0  0  0  0  0  0  0  0  0  0  0
    4.9170   -6.8610   23.6430 C   0  0  0  0  0  0  0  0  0  0  0  0
    5.9010   -5.9300   23.0450 C   0  0  2  0  0  0  0  0  0  0  0  0
    5.6450   -4.6860   22.4770 C   0  0  2  0  0  0  0  0  0  0  0  0
    6.1950   -6.0760   21.7840 C   0  0  0  0  0  0  0  0  0  0  0  0
    6.4650   -3.4140   22.4070 C   0  0  2  0  0  0  0  0  0  0  0  0
    6.1690   -2.5510   21.2840 N   0  0  0  0  0  0  0  0  0  0  0  0
    7.8290   -3.5880   22.7260 C   0  0  0  0  0  0  0  0  0  0  0  0
    6.1720   -3.2470   20.0020 C   0  0  0  0  0  0  0  0  0  0  0  0
    8.7480   -2.4070   22.5170 N   0  0  0  0  0  0  0  0  0  0  0  0
    6.8390   -1.3020   21.7390 C   0  0  2  0  0  0  0  0  0  0  0  0
    7.2350   -2.9160   18.9500 C   0  0  0  0  0  0  0  0  0  0  0  0
    5.3440   -4.1370   19.7630 O   0  0  0  0  0  0  0  0  0  0  0  0
    6.1610    0.0720   21.6540 C   0  0  2  0  0  0  0  0  0  0  0  0
    9.5870   -2.0290   23.6530 C   0  0  1  0  0  0  0  0  0  0  0  0
    8.3260   -1.3850   21.5690 C   0  0  0  0  0  0  0  0  0  0  0  0
    4.8590    0.2240   22.4550 C   0  0  0  0  0  0  0  0  0  0  0  0
   10.2470   -3.2230   24.2350 C   0  0  0  0  0  0  0  0  0  0  0  0
    5.8590    0.5540   20.2830 C   0  0  0  0  0  0  0  0  0  0  0  0
   10.5160   -0.7780   23.5360 C   0  0  0  0  0  0  0  0  0  0  0  0
    4.3300    1.6770   22.5000 C   0  0  2  0  0  0  0  0  0  0  0  0
    4.7900    1.4050   20.0410 C   0  0  0  0  0  0  0  0  0  0  0  0
    6.7420    0.1290   19.0680 C   0  0  0  0  0  0  0  0  0  0  0  0
   10.0450    0.4340   23.9980 C   0  0  0  0  0  0  0  0  0  0  0  0
   11.9430   -0.8900   22.9250 C   0  0  0  0  0  0  0  0  0  0  0  0
    9.5740   -4.1190   25.2320 C   0  0  0  0  0  0  0  0  0  0  0  0
    3.2070    1.8610   23.3980 N   0  0  0  0  0  0  0  0  0  0  0  0
    3.8430    1.9100   21.0750 C   0  0  0  0  0  0  0  0  0  0  0  0
   12.5880   -2.1230   22.3730 C   0  0  0  0  0  0  0  0  0  0  0  0
    4.5760    1.8440   18.7110 C   0  0  0  0  0  0  0  0  0  0  0  0
    6.5680    0.5220   17.8040 N   0  0  0  0  0  0  0  0  0  0  0  0
   10.8250    1.5870   23.9410 C   0  0  0  0  0  0  0  0  0  0  0  0
   12.6810    0.2850   22.8930 C   0  0  0  0  0  0  0  0  0  0  0  0
    9.9620   -5.5210   25.5810 C   0  0  0  0  0  0  0  0  0  0  0  0
    8.1970   -3.6990   26.2020 S   0  0  0  0  0  0  0  0  0  0  0  0
    5.5310    1.3510   17.6340 C   0  0  0  0  0  0  0  0  0  0  0  0
   12.0940    1.6050   23.4290 C   0  0  0  0  0  0  0  0  0  0  0  0
    9.2720   -6.1420   26.4950 C   0  0  0  0  0  0  0  0  0  0  0  0
    8.1620   -5.1980   27.0060 C   0  0  0  0  0  0  0  0  0  0  0  0
    7.0070   -5.5460   28.2220 Cl  0  0  0  0  0  0  0  0  0  0  0  0
  1  2  1  0
  2  3  1  0
  3  4  1  0
  5  4  1  6
  5  6  1  0
  5  7  1  0
  6  7  1  6
  6  8  1  0
  8  9  1  0
  8 10  1  6
  9 11  1  0
 10 12  1  0
  9 13  1  0
 11 14  1  0
 11 15  2  0
 13 16  1  0
 12 17  1  0
 12 18  1  0
 13 18  1  6
 16 19  1  1
 17 20  1  6
 16 21  1  0
 17 22  1  0
 19 23  1  0
 21 24  2  0
 21 25  1  0
 22 26  2  0
 22 27  1  0
 20 28  1  0
 23 29  1  1
 23 30  1  0
 24 30  1  0
 27 31  1  0
 24 32  1  0
 25 33  2  0
 26 34  1  0
 27 35  2  0
 28 36  2  0
 28 37  1  0
 32 38  2  0
 33 38  1  0
 34 39  2  0
 35 39  1  0
 36 40  1  0
 37 41  1  0
 40 41  2  0
 41 42  1  0
M  END
