x0831_0-x1334_1-x1374_1-x0434_2-x1412_1
     RDKit          3D

 32 35  0  0  0  0  0  0  0  0999 V2000
    6.4730   -3.3680   19.8610 C   0  0  0  0  0  0  0  0  0  0  0  0
    7.3940   -3.0430   18.6910 C   0  0  0  0  0  0  0  0  0  0  0  0
    5.4700   -4.0920   19.7260 O   0  0  0  0  0  0  0  0  0  0  0  0
    6.8830   -2.8300   21.0680 N   0  0  0  0  0  0  0  0  0  0  0  0
    7.8160   -1.6990   20.9830 C   0  0  1  0  0  0  0  0  0  0  0  0
    7.3370   -3.8460   22.0370 C   0  0  2  0  0  0  0  0  0  0  0  0
    6.4840   -5.0990   22.0040 C   0  0  0  0  0  0  0  0  0  0  0  0
    7.0160   -0.5450   21.3190 N   0  0  0  0  0  0  0  0  0  0  0  0
    9.1370   -1.8940   21.7420 C   0  0  0  0  0  0  0  0  0  0  0  0
    7.7060   -3.2690   23.2400 C   0  0  0  0  0  0  0  0  0  0  0  0
    8.8610   -2.3880   23.0690 N   0  0  0  0  0  0  0  0  0  0  0  0
    5.1720   -5.1450   22.7880 C   0  0  2  0  0  0  0  0  0  0  0  0
    6.3890    0.1320   20.2080 C   0  0  0  0  0  0  0  0  0  0  0  0
    9.7990   -2.1360   24.0380 C   0  0  0  0  0  0  0  0  0  0  0  0
    4.9950   -4.7240   24.1000 C   0  0  0  0  0  0  0  0  0  0  0  0
    4.7890   -6.4790   22.7290 C   0  0  0  0  0  0  0  0  0  0  0  0
    6.9010    0.0790   18.9060 C   0  0  0  0  0  0  0  0  0  0  0  0
    5.1400    0.9720   20.2190 C   0  0  0  0  0  0  0  0  0  0  0  0
   10.7480   -0.9590   23.7680 C   0  0  0  0  0  0  0  0  0  0  0  0
    4.2650   -5.4400   25.0060 C   0  0  0  0  0  0  0  0  0  0  0  0
    3.7660   -6.7730   24.0900 S   0  0  0  0  0  0  0  0  0  0  0  0
    6.3810    0.7120   17.7170 N   0  0  0  0  0  0  0  0  0  0  0  0
    4.6030    1.6000   19.0850 C   0  0  0  0  0  0  0  0  0  0  0  0
    2.3920   -6.7020   23.6450 O   0  0  0  0  0  0  0  0  0  0  0  0
    4.2340   -8.0240   24.5780 O   0  0  0  0  0  0  0  0  0  0  0  0
   10.2850    0.2460   24.2030 C   0  0  0  0  0  0  0  0  0  0  0  0
   12.0330   -0.9950   23.1100 C   0  0  0  0  0  0  0  0  0  0  0  0
    5.1760    1.5040   17.8420 C   0  0  0  0  0  0  0  0  0  0  0  0
   12.6550   -2.2420   22.5770 C   0  0  0  0  0  0  0  0  0  0  0  0
   10.9780    1.6240   24.0730 C   0  0  0  0  0  0  0  0  0  0  0  0
   12.7810    0.3300   22.9520 C   0  0  0  0  0  0  0  0  0  0  0  0
   12.2270    1.5550   23.4300 C   0  0  0  0  0  0  0  0  0  0  0  0
  1  2  1  0
  1  3  2  0
  1  4  1  0
  4  5  1  0
  4  6  1  0
  6  7  1  1
  5  8  1  1
  5  9  1  0
  6 10  1  0
  9 11  1  0
 10 11  1  0
 12  7  1  1
  8 13  1  0
 11 14  1  0
 12 15  1  0
 12 16  1  0
 13 17  2  0
 13 18  1  0
 14 19  1  0
 15 20  2  0
 16 21  1  0
 20 21  1  0
 17 22  1  0
 18 23  2  0
 21 24  1  0
 21 25  1  0
 19 26  2  0
 19 27  1  0
 22 28  2  0
 23 28  1  0
 27 29  1  0
 26 30  1  0
 27 31  2  0
 30 32  2  0
 31 32  1  0
M  END
