x0831_0-x1334_1-x0691_1
     RDKit          3D

 30 32  0  0  0  0  0  0  0  0999 V2000
    6.3670   -3.3150   19.9010 C   0  0  0  0  0  0  0  0  0  0  0  0
    7.3120   -3.0010   18.7620 C   0  0  0  0  0  0  0  0  0  0  0  0
    5.4310   -4.1010   19.7310 O   0  0  0  0  0  0  0  0  0  0  0  0
    6.6270   -2.7040   21.1190 N   0  0  0  0  0  0  0  0  0  0  0  0
    7.3020   -1.4090   21.2110 C   0  0  0  0  0  0  0  0  0  0  0  0
    6.7330   -3.5850   22.3110 C   0  0  2  0  0  0  0  0  0  0  0  0
    5.4890   -3.3930   23.2060 C   0  0  0  0  0  0  0  0  0  0  0  0
    8.6840   -1.6220   21.8130 C   0  0  0  0  0  0  0  0  0  0  0  0
    7.9370   -3.6020   22.9880 C   0  0  0  0  0  0  0  0  0  0  0  0
    4.5430   -4.6020   23.1980 C   0  0  0  0  0  0  0  0  0  0  0  0
    8.6570   -2.3070   23.1000 N   0  0  0  0  0  0  0  0  0  0  0  0
    5.1510   -5.6810   24.1090 C   0  0  0  0  0  0  0  0  0  0  0  0
   10.0540   -2.4670   23.5490 C   0  0  0  0  0  0  0  0  0  0  0  0
    4.5820   -5.6390   25.7140 S   0  0  0  0  0  0  0  0  0  0  0  0
   10.8160   -1.1440   23.5430 C   0  0  0  0  0  0  0  0  0  0  0  0
    3.8800   -6.8860   25.9380 O   0  0  0  0  0  0  0  0  0  0  0  0
    5.8160   -5.1840   26.7150 O   0  0  0  0  0  0  0  0  0  0  0  0
    3.4340   -4.3720   25.7470 C   0  0  0  0  0  0  0  0  0  0  0  0
   10.2560   -0.0590   24.1910 C   0  0  0  0  0  0  0  0  0  0  0  0
   12.0570   -0.9530   22.9110 C   0  0  0  0  0  0  0  0  0  0  0  0
   12.7530   -2.0490   22.1750 C   0  0  0  0  0  0  0  0  0  0  0  0
    3.8410   -3.0410   25.8520 C   0  0  0  0  0  0  0  0  0  0  0  0
    2.0390   -4.6580   25.6700 C   0  0  0  0  0  0  0  0  0  0  0  0
   10.8880    1.1620   24.2080 C   0  0  0  0  0  0  0  0  0  0  0  0
   12.6700    0.2560   22.9450 C   0  0  0  0  0  0  0  0  0  0  0  0
    2.9720   -1.9700   25.8890 C   0  0  0  0  0  0  0  0  0  0  0  0
    1.0690   -3.6280   25.7020 C   0  0  0  0  0  0  0  0  0  0  0  0
   12.0930    1.3380   23.5920 C   0  0  0  0  0  0  0  0  0  0  0  0
    3.3990   -0.7050   25.9920 F   0  0  0  0  0  0  0  0  0  0  0  0
    1.4960   -2.3060   25.8100 C   0  0  0  0  0  0  0  0  0  0  0  0
  1  2  1  0
  1  3  2  0
  1  4  1  0
  4  5  1  0
  4  6  1  0
  6  7  1  1
  5  8  1  0
  6  9  1  0
  7 10  1  0
  8 11  1  0
  9 11  1  0
 10 12  1  0
 11 13  1  0
 14 12  1  0
 13 15  1  0
 14 16  2  0
 14 17  2  0
 14 18  1  0
 15 19  2  0
 15 20  1  0
 20 21  1  0
 18 22  2  0
 18 23  1  0
 19 24  1  0
 20 25  2  0
 22 26  1  0
 23 27  2  0
 24 28  2  0
 25 28  1  0
 26 29  1  0
 26 30  2  0
 27 30  1  0
M  END
