x0831_1-x0104_0
     RDKit          3D

 21 21  0  0  0  0  0  0  0  0999 V2000
   12.6700    3.7370   22.4100 C   0  0  0  0  0  0  0  0  0  0  0  0
   12.2620    4.9750   23.2390 C   0  0  0  0  0  0  0  0  0  0  0  0
   11.2410    5.6640   22.6020 N   0  0  0  0  0  0  0  0  0  0  0  0
   11.9740    2.4200   22.8090 C   0  0  0  0  0  0  0  0  0  0  0  0
   10.5680    2.5170   22.8530 C   0  0  0  0  0  0  0  0  0  0  0  0
   10.2010    6.1470   23.3870 C   0  0  0  0  0  0  0  0  0  0  0  0
    9.8330    1.1720   22.8130 C   0  0  0  0  0  0  0  0  0  0  0  0
    8.9770    6.5610   22.5600 C   0  0  0  0  0  0  0  0  0  0  0  0
   10.2330    6.2570   24.8100 O   0  0  0  0  0  0  0  0  0  0  0  0
    8.4650    1.1610   23.1460 C   0  0  0  0  0  0  0  0  0  0  0  0
    7.7960   -0.0480   23.3560 C   0  0  0  0  0  0  0  0  0  0  0  0
    8.4030   -1.3420   23.0380 N   0  0  0  0  0  0  0  0  0  0  0  0
    8.8050   -1.4220   21.6470 C   0  0  0  0  0  0  0  0  0  0  0  0
    7.5500   -2.4620   23.4840 C   0  0  0  0  0  0  0  0  0  0  0  0
    7.6650   -0.7820   20.8510 C   0  0  0  0  0  0  0  0  0  0  0  0
    7.0930   -3.4200   22.3810 C   0  0  0  0  0  0  0  0  0  0  0  0
    6.3000   -1.3790   21.2130 C   0  0  0  0  0  0  0  0  0  0  0  0
    6.3190   -2.8360   21.2580 N   0  0  0  0  0  0  0  0  0  0  0  0
    6.1960   -3.4590   20.0150 C   0  0  0  0  0  0  0  0  0  0  0  0
    5.3550   -4.3370   19.8160 O   0  0  0  0  0  0  0  0  0  0  0  0
    7.1560   -3.0430   18.9030 C   0  0  0  0  0  0  0  0  0  0  0  0
  1  2  1  0
  2  3  1  0
  1  4  1  0
  4  5  1  0
  3  6  1  0
  5  7  1  0
  6  8  1  0
  6  9  2  0
  7 10  1  0
 10 11  1  0
 11 12  1  0
 12 13  1  0
 12 14  1  0
 13 15  1  0
 14 16  1  0
 15 17  1  0
 16 18  1  0
 17 18  1  0
 18 19  1  0
 19 20  2  0
 19 21  1  0
M  END
