x0831_0-x1385_1-x0770_1-x0540_3
     RDKit          3D

 23 24  0  0  0  0  0  0  0  0999 V2000
    6.2490   -3.3430   19.9720 C   0  0  0  0  0  0  0  0  0  0  0  0
    7.2380   -2.9520   18.8770 C   0  0  0  0  0  0  0  0  0  0  0  0
    5.3020   -4.1010   19.7200 O   0  0  0  0  0  0  0  0  0  0  0  0
    6.4480   -2.8720   21.2760 N   0  0  0  0  0  0  0  0  0  0  0  0
    6.7320   -3.8440   22.3610 C   0  0  0  0  0  0  0  0  0  0  0  0
    6.9450   -1.5230   21.5650 C   0  0  2  0  0  0  0  0  0  0  0  0
    6.2370   -0.4330   20.7120 C   0  0  0  0  0  0  0  0  0  0  0  0
    7.7320   -3.3390   23.3840 C   0  0  0  0  0  0  0  0  0  0  0  0
    8.4710   -1.6020   21.7850 C   0  0  0  0  0  0  0  0  0  0  0  0
    4.9900    0.1520   21.4020 C   0  0  0  0  0  0  0  0  0  0  0  0
    8.8630   -2.6750   22.7050 N   0  0  0  0  0  0  0  0  0  0  0  0
    5.3050    1.2270   22.4520 C   0  0  0  0  0  0  0  0  0  0  0  0
    9.8910   -2.2060   23.6380 C   0  0  0  0  0  0  0  0  0  0  0  0
    4.3070    2.3250   22.4580 N   0  0  0  0  0  0  0  0  0  0  0  0
   10.7340   -1.0860   23.5530 C   0  0  0  0  0  0  0  0  0  0  0  0
    3.1140    2.0520   23.2720 C   0  0  0  0  0  0  0  0  0  0  0  0
   10.2200    0.0690   24.1280 C   0  0  0  0  0  0  0  0  0  0  0  0
   12.0260   -1.0320   22.9320 C   0  0  0  0  0  0  0  0  0  0  0  0
    3.0960    1.4260   24.3290 O   0  0  0  0  0  0  0  0  0  0  0  0
   12.5490   -2.2660   22.3230 C   0  0  0  0  0  0  0  0  0  0  0  0
   10.7790    1.3070   24.1890 C   0  0  0  0  0  0  0  0  0  0  0  0
   12.8200    0.2450   22.8970 C   0  0  0  0  0  0  0  0  0  0  0  0
   12.1720    1.4450   23.5370 C   0  0  0  0  0  0  0  0  0  0  0  0
  1  2  1  0
  1  3  2  0
  1  4  1  0
  4  5  1  0
  4  6  1  0
  6  7  1  6
  5  8  1  0
  6  9  1  0
  7 10  1  0
  8 11  1  0
  9 11  1  0
 10 12  1  0
 11 13  1  0
 12 14  1  0
 13 15  1  0
 14 16  1  0
 15 17  2  0
 15 18  1  0
 16 19  2  0
 18 20  1  0
 17 21  1  0
 18 22  2  0
 21 23  2  0
 22 23  1  0
M  END
