x0831_0-x1334_1-x0426_1-x0770_1-x1386_1
     RDKit          3D

 29 32  0  0  0  0  0  0  0  0999 V2000
    6.3780   -3.4060   19.9640 C   0  0  0  0  0  0  0  0  0  0  0  0
    7.3150   -3.0580   18.8250 C   0  0  0  0  0  0  0  0  0  0  0  0
    5.4130   -4.1590   19.7630 O   0  0  0  0  0  0  0  0  0  0  0  0
    6.6780   -2.8820   21.2140 N   0  0  0  0  0  0  0  0  0  0  0  0
    7.4770   -1.6410   21.3530 C   0  0  2  0  0  0  0  0  0  0  0  0
    6.6600   -3.6830   22.4510 C   0  0  0  0  0  0  0  0  0  0  0  0
    8.8640   -1.9920   21.8370 C   0  0  0  0  0  0  0  0  0  0  0  0
    7.9870   -3.7670   23.1990 C   0  0  0  0  0  0  0  0  0  0  0  0
    6.8630   -0.6680   22.3690 C   0  0  0  0  0  0  0  0  0  0  0  0
    8.8100   -2.5360   23.1880 N   0  0  0  0  0  0  0  0  0  0  0  0
    5.5750    0.0050   21.8890 C   0  0  1  0  0  0  0  0  0  0  0  0
   10.2030   -2.6400   23.6400 C   0  0  0  0  0  0  0  0  0  0  0  0
    5.3650    1.1510   22.6280 C   0  0  0  0  0  0  0  0  0  0  0  0
    5.6090    0.4260   20.4390 C   0  0  0  0  0  0  0  0  0  0  0  0
   10.8480   -1.2590   23.6230 C   0  0  0  0  0  0  0  0  0  0  0  0
    3.9860    1.7050   22.4120 C   0  0  1  0  0  0  0  0  0  0  0  0
    4.5620    1.4430   19.9690 C   0  0  0  0  0  0  0  0  0  0  0  0
    6.6060   -0.0720   19.3780 C   0  0  0  0  0  0  0  0  0  0  0  0
   10.1030   -0.1270   24.3590 C   0  0  0  0  0  0  0  0  0  0  0  0
   12.1800   -0.9890   22.8910 C   0  0  0  0  0  0  0  0  0  0  0  0
    3.7570    2.8950   23.2350 N   0  0  0  0  0  0  0  0  0  0  0  0
    3.5440    1.9720   20.9670 C   0  0  0  0  0  0  0  0  0  0  0  0
    4.6010    1.8690   18.5430 C   0  0  0  0  0  0  0  0  0  0  0  0
    6.5550    0.4040   18.0000 N   0  0  0  0  0  0  0  0  0  0  0  0
   12.9150   -2.0590   22.1580 C   0  0  0  0  0  0  0  0  0  0  0  0
   10.7840    1.2010   24.2790 C   0  0  0  0  0  0  0  0  0  0  0  0
   12.7280    0.2700   22.8900 C   0  0  0  0  0  0  0  0  0  0  0  0
    5.5050    1.3810   17.7090 C   0  0  0  0  0  0  0  0  0  0  0  0
   12.0250    1.4220   23.5960 C   0  0  0  0  0  0  0  0  0  0  0  0
  1  2  1  0
  1  3  2  0
  1  4  1  0
  4  5  1  0
  4  6  1  0
  5  7  1  0
  6  8  1  0
  5  9  1  1
  7 10  1  0
  8 10  1  0
 11  9  1  1
 10 12  1  0
 11 13  1  0
 11 14  1  0
 12 15  1  0
 13 16  1  0
 14 17  2  0
 14 18  1  0
 15 19  2  0
 15 20  1  0
 16 21  1  1
 16 22  1  0
 17 22  1  0
 17 23  1  0
 18 24  2  0
 20 25  1  0
 19 26  1  0
 20 27  2  0
 23 28  2  0
 24 28  1  0
 26 29  2  0
 27 29  1  0
M  END
