x0831_0-x0831_1-x0770_1-x0397_0-x0769_1
     RDKit          3D

 32 35  0  0  0  0  0  0  0  0999 V2000
    6.1120   -3.5270   19.9980 C   0  0  0  0  0  0  0  0  0  0  0  0
    7.1220   -3.0570   18.9340 C   0  0  0  0  0  0  0  0  0  0  0  0
    5.2230   -4.3260   19.7630 O   0  0  0  0  0  0  0  0  0  0  0  0
    6.2520   -3.0320   21.2880 N   0  0  0  0  0  0  0  0  0  0  0  0
    6.0560   -1.6070   21.5900 C   0  0  0  0  0  0  0  0  0  0  0  0
    7.3990   -3.5820   22.0160 C   0  0  1  0  0  0  0  0  0  0  0  0
    7.3560   -0.7800   21.4200 C   0  0  0  0  0  0  0  0  0  0  0  0
    7.7020   -3.0700   23.4250 C   0  0  0  0  0  0  0  0  0  0  0  0
    7.2640   -4.7940   22.9210 C   0  0  1  0  0  0  0  0  0  0  0  0
    8.7040   -1.9470   23.2270 N   0  0  0  0  0  0  0  0  0  0  0  0
    8.6880   -1.3860   21.8410 C   0  0  0  0  0  0  0  0  0  0  0  0
    6.2180   -5.5280   23.3080 C   0  0  2  0  0  0  0  0  0  0  0  0
    6.5110   -6.0890   22.2280 C   0  0  0  0  0  0  0  0  0  0  0  0
    4.9730   -4.7160   23.7170 C   0  0  0  0  0  0  0  0  0  0  0  0
   10.0700   -2.2400   23.6210 C   0  0  0  0  0  0  0  0  0  0  0  0
    4.5960   -5.0310   25.4650 S   0  0  0  0  0  0  0  0  0  0  0  0
   10.8280   -0.9470   23.6060 C   0  0  0  0  0  0  0  0  0  0  0  0
    5.7780   -4.8840   26.2880 O   0  0  0  0  0  0  0  0  0  0  0  0
    3.7910   -6.2290   25.5950 O   0  0  0  0  0  0  0  0  0  0  0  0
    3.5860   -3.7080   25.7640 C   0  0  0  0  0  0  0  0  0  0  0  0
   10.3100    0.1960   24.1960 C   0  0  0  0  0  0  0  0  0  0  0  0
   12.1060   -0.8940   22.9540 C   0  0  0  0  0  0  0  0  0  0  0  0
   12.7190   -2.1360   22.2720 C   0  0  0  0  0  0  0  0  0  0  0  0
    2.1670   -3.9150   25.6680 C   0  0  0  0  0  0  0  0  0  0  0  0
    4.1430   -2.4540   26.0820 C   0  0  0  0  0  0  0  0  0  0  0  0
   11.0330    1.3740   24.1380 C   0  0  0  0  0  0  0  0  0  0  0  0
   12.8250    0.2330   22.8970 C   0  0  0  0  0  0  0  0  0  0  0  0
    5.4720   -2.2870   26.1660 F   0  0  0  0  0  0  0  0  0  0  0  0
    1.3510   -2.8300   25.9010 C   0  0  0  0  0  0  0  0  0  0  0  0
    3.3130   -1.3720   26.3120 C   0  0  0  0  0  0  0  0  0  0  0  0
   12.2580    1.3370   23.4920 C   0  0  0  0  0  0  0  0  0  0  0  0
    1.9210   -1.4520   26.2470 C   0  0  0  0  0  0  0  0  0  0  0  0
  1  2  1  0
  1  3  2  0
  1  4  1  0
  4  5  1  0
  4  6  1  0
  5  7  1  0
  6  8  1  1
  6  9  1  0
  8 10  1  0
  7 11  1  0
 10 11  1  0
  9 12  1  0
  9 13  1  6
 12 13  1  0
 12 14  1  6
 10 15  1  0
 16 14  1  0
 15 17  1  0
 16 18  2  0
 16 19  2  0
 16 20  1  0
 17 21  2  0
 17 22  1  0
 22 23  1  0
 20 24  2  0
 20 25  1  0
 21 26  1  0
 22 27  2  0
 25 28  1  0
 24 29  1  0
 25 30  2  0
 26 31  2  0
 27 31  1  0
 29 32  2  0
 30 32  1  0
M  END
