x0831_0-x1412_0-x1386_1-x0770_1
     RDKit          3D

 25 28  0  0  0  0  0  0  0  0999 V2000
    6.4730   -3.2370   19.9070 C   0  0  0  0  0  0  0  0  0  0  0  0
    7.3820   -2.9820   18.7220 C   0  0  0  0  0  0  0  0  0  0  0  0
    5.5520   -4.0790   19.8040 O   0  0  0  0  0  0  0  0  0  0  0  0
    6.8030   -2.4450   21.0530 N   0  0  0  0  0  0  0  0  0  0  0  0
    7.7230   -1.2900   20.8860 C   0  0  0  0  0  0  0  0  0  0  0  0
    6.7330   -2.9860   22.4820 C   0  0  0  0  0  0  0  0  0  0  0  0
    9.0840   -1.6920   21.4390 C   0  0  0  0  0  0  0  0  0  0  0  0
    8.0200   -3.1240   23.1560 C   0  0  2  0  0  0  0  0  0  0  0  0
    8.1910   -2.8820   24.7110 C   0  0  2  0  0  0  0  0  0  0  0  0
    8.9280   -2.0030   22.8240 N   0  0  0  0  0  0  0  0  0  0  0  0
   10.1140   -2.0810   23.5550 C   0  0  2  0  0  0  0  0  0  0  0  0
    7.3870   -2.0500   25.1160 O   0  0  0  0  0  0  0  0  0  0  0  0
    9.5620   -2.2760   24.9310 C   0  0  0  0  0  0  0  0  0  0  0  0
    8.2550   -4.0630   25.6620 C   0  0  0  0  0  0  0  0  0  0  0  0
   10.8720   -0.8120   23.5090 C   0  0  0  0  0  0  0  0  0  0  0  0
    9.4410   -4.8460   25.6570 C   0  0  0  0  0  0  0  0  0  0  0  0
    7.0800   -4.5940   26.7940 S   0  0  0  0  0  0  0  0  0  0  0  0
   10.3440    0.3390   24.0940 C   0  0  0  0  0  0  0  0  0  0  0  0
   12.1380   -0.7870   22.8630 C   0  0  0  0  0  0  0  0  0  0  0  0
    9.3180   -5.8390   26.5800 C   0  0  0  0  0  0  0  0  0  0  0  0
    8.1290   -5.8490   27.2800 C   0  0  0  0  0  0  0  0  0  0  0  0
   12.7540   -1.9900   22.2100 C   0  0  0  0  0  0  0  0  0  0  0  0
   11.0410    1.5180   24.0450 C   0  0  0  0  0  0  0  0  0  0  0  0
   12.8240    0.4000   22.8330 C   0  0  0  0  0  0  0  0  0  0  0  0
   12.3910    1.5800   23.3670 C   0  0  0  0  0  0  0  0  0  0  0  0
  1  2  1  0
  1  3  2  0
  1  4  1  0
  4  5  1  0
  4  6  1  0
  5  7  1  0
  8  6  1  6
  8  9  1  0
  7 10  1  0
  8 10  1  0
 10 11  1  0
  9 12  1  1
  9 13  1  0
 11 13  1  0
  9 14  1  0
 11 15  1  1
 14 16  2  0
 14 17  1  0
 15 18  2  0
 15 19  1  0
 16 20  1  0
 17 21  1  0
 20 21  2  0
 19 22  1  0
 18 23  1  0
 19 24  2  0
 23 25  2  0
 24 25  1  0
M  END
