x0831_0-x1385_1-x1412_1-x0689_0
     RDKit          3D

 27 29  0  0  0  0  0  0  0  0999 V2000
    6.3070   -3.2500   19.8300 C   0  0  0  0  0  0  0  0  0  0  0  0
    7.3060   -2.9540   18.7210 C   0  0  0  0  0  0  0  0  0  0  0  0
    5.3060   -3.9350   19.5970 O   0  0  0  0  0  0  0  0  0  0  0  0
    6.5830   -2.8240   21.1050 N   0  0  0  0  0  0  0  0  0  0  0  0
    6.8460   -3.8440   22.1070 C   0  0  0  0  0  0  0  0  0  0  0  0
    7.3400   -1.5650   21.2090 C   0  0  0  0  0  0  0  0  0  0  0  0
    7.7210   -3.4610   23.2650 C   0  0  2  0  0  0  0  0  0  0  0  0
    8.6090   -1.7570   21.8090 C   0  0  0  0  0  0  0  0  0  0  0  0
    6.7020   -3.4740   24.4660 C   0  0  0  0  0  0  0  0  0  0  0  0
    8.6450   -2.3140   23.1710 N   0  0  0  0  0  0  0  0  0  0  0  0
    5.8910   -4.8000   24.5520 C   0  0  0  0  0  0  0  0  0  0  0  0
   10.0300   -2.4130   23.6190 C   0  0  0  0  0  0  0  0  0  0  0  0
    4.7670   -4.9640   25.9140 S   0  0  0  0  0  0  0  0  0  0  0  0
   10.7930   -1.1030   23.5980 C   0  0  0  0  0  0  0  0  0  0  0  0
    4.1370   -6.2690   25.9040 O   0  0  0  0  0  0  0  0  0  0  0  0
    5.5410   -4.6230   27.2610 O   0  0  0  0  0  0  0  0  0  0  0  0
    3.5110   -3.8150   25.7390 C   0  0  0  0  0  0  0  0  0  0  0  0
   10.2430   -0.0130   24.2220 C   0  0  0  0  0  0  0  0  0  0  0  0
   12.0490   -0.9650   22.9400 C   0  0  0  0  0  0  0  0  0  0  0  0
   12.7020   -2.1110   22.2290 C   0  0  0  0  0  0  0  0  0  0  0  0
    3.9400   -2.1520   26.0720 S   0  0  0  0  0  0  0  0  0  0  0  0
    2.1620   -3.9740   25.3720 C   0  0  0  0  0  0  0  0  0  0  0  0
   10.9460    1.1970   24.1760 C   0  0  0  0  0  0  0  0  0  0  0  0
   12.7330    0.2490   22.9170 C   0  0  0  0  0  0  0  0  0  0  0  0
    2.3540   -1.6270   25.7420 C   0  0  0  0  0  0  0  0  0  0  0  0
    1.5270   -2.8210   25.3680 C   0  0  0  0  0  0  0  0  0  0  0  0
   12.1730    1.3470   23.5390 C   0  0  0  0  0  0  0  0  0  0  0  0
  1  2  1  0
  1  3  2  0
  1  4  1  0
  4  5  1  0
  4  6  1  0
  5  7  1  0
  6  8  1  0
  7  9  1  1
  7 10  1  0
  8 10  1  0
  9 11  1  0
 10 12  1  0
 13 11  1  0
 12 14  1  0
 13 15  2  0
 13 16  2  0
 13 17  1  0
 14 18  2  0
 14 19  1  0
 19 20  1  0
 17 21  1  0
 17 22  2  0
 18 23  1  0
 19 24  2  0
 21 25  1  0
 22 26  1  0
 25 26  2  0
 23 27  2  0
 24 27  1  0
M  END
