x0831_0-x1334_1-x0434_2-x1412_1-x0692_1
     RDKit          3D

 24 26  0  0  0  0  0  0  0  0999 V2000
    6.4120   -3.3820   20.0100 C   0  0  0  0  0  0  0  0  0  0  0  0
    7.3290   -3.0010   18.8590 C   0  0  0  0  0  0  0  0  0  0  0  0
    5.4310   -4.1050   19.7590 O   0  0  0  0  0  0  0  0  0  0  0  0
    6.7300   -2.9740   21.3200 N   0  0  0  0  0  0  0  0  0  0  0  0
    7.2380   -1.6420   21.7210 C   0  0  2  0  0  0  0  0  0  0  0  0
    6.9760   -4.0110   22.3220 C   0  0  0  0  0  0  0  0  0  0  0  0
    7.5260   -0.8010   20.5900 N   0  0  0  0  0  0  0  0  0  0  0  0
    8.5270   -1.6320   22.5380 C   0  0  0  0  0  0  0  0  0  0  0  0
    8.1560   -3.7580   23.2950 C   0  0  0  0  0  0  0  0  0  0  0  0
    9.1250   -2.9210   22.8210 N   0  0  0  0  0  0  0  0  0  0  0  0
    6.5690    0.0350   19.8780 C   0  0  0  0  0  0  0  0  0  0  0  0
   10.2890   -2.7640   23.5830 C   0  0  0  0  0  0  0  0  0  0  0  0
    6.9790    0.1670   18.4390 C   0  0  0  0  0  0  0  0  0  0  0  0
    5.4230    0.6490   20.4110 C   0  0  0  0  0  0  0  0  0  0  0  0
   10.8480   -1.3080   23.6080 C   0  0  0  0  0  0  0  0  0  0  0  0
    6.2170    0.9490   17.4920 N   0  0  0  0  0  0  0  0  0  0  0  0
    4.6690    1.4070   19.5350 C   0  0  0  0  0  0  0  0  0  0  0  0
   10.1540   -0.1260   24.3250 C   0  0  0  0  0  0  0  0  0  0  0  0
   12.0600   -1.0400   22.9320 C   0  0  0  0  0  0  0  0  0  0  0  0
    5.0470    1.5790   18.0680 C   0  0  0  0  0  0  0  0  0  0  0  0
   12.8130   -2.1010   22.1960 C   0  0  0  0  0  0  0  0  0  0  0  0
   10.7220    1.2040   24.2980 C   0  0  0  0  0  0  0  0  0  0  0  0
   12.6120    0.2330   22.9140 C   0  0  0  0  0  0  0  0  0  0  0  0
   11.9370    1.3920   23.6060 C   0  0  0  0  0  0  0  0  0  0  0  0
  1  2  1  0
  1  3  2  0
  1  4  1  0
  4  5  1  0
  4  6  1  0
  5  7  1  6
  5  8  1  0
  6  9  1  0
  8 10  1  0
  9 10  1  0
  7 11  1  0
 10 12  1  0
 11 13  2  0
 11 14  1  0
 12 15  1  0
 13 16  1  0
 14 17  2  0
 15 18  2  0
 15 19  1  0
 16 20  2  0
 17 20  1  0
 19 21  1  0
 18 22  1  0
 19 23  2  0
 22 24  2  0
 23 24  1  0
M  END
