x0831_0-x0769_1-x0769_0
     RDKit          3D

 29 31  0  0  0  0  0  0  0  0999 V2000
    4.8290   -5.3850   25.8490 S   0  0  0  0  0  0  0  0  0  0  0  0
    3.7950   -3.9480   25.8960 C   0  0  0  0  0  0  0  0  0  0  0  0
    4.3640   -2.5570   26.0880 C   0  0  0  0  0  0  0  0  0  0  0  0
    5.8500   -5.1780   26.8460 O   0  0  0  0  0  0  0  0  0  0  0  0
    3.9770   -6.5520   25.8780 O   0  0  0  0  0  0  0  0  0  0  0  0
    5.6000   -5.3120   24.3480 N   0  0  0  0  0  0  0  0  0  0  0  0
    2.2710   -4.0590   25.7430 C   0  0  0  0  0  0  0  0  0  0  0  0
    5.0270   -6.0810   23.2310 C   0  0  0  0  0  0  0  0  0  0  0  0
    6.2520   -4.0240   23.9820 C   0  0  0  0  0  0  0  0  0  0  0  0
    5.6820   -2.3100   26.2320 F   0  0  0  0  0  0  0  0  0  0  0  0
    1.4690   -2.9800   25.7800 C   0  0  0  0  0  0  0  0  0  0  0  0
    3.3720   -1.3700   26.1180 C   0  0  0  0  0  0  0  0  0  0  0  0
    5.9850   -6.2060   22.1750 C   0  0  0  0  0  0  0  0  0  0  0  0
    7.1830   -4.1330   22.9220 C   0  0  2  0  0  0  0  0  0  0  0  0
    7.5350   -2.7110   22.5580 C   0  0  0  0  0  0  0  0  0  0  0  0
    2.0510   -1.5630   25.9790 C   0  0  0  0  0  0  0  0  0  0  0  0
    6.6060   -4.9360   21.7960 N   0  0  0  0  0  0  0  0  0  0  0  0
    6.3170   -4.3930   20.5290 C   0  0  0  0  0  0  0  0  0  0  0  0
    9.0060   -2.4040   22.2070 C   0  0  0  0  0  0  0  0  0  0  0  0
    5.2970   -4.7410   19.9520 O   0  0  0  0  0  0  0  0  0  0  0  0
    7.2630   -3.3990   19.8520 C   0  0  0  0  0  0  0  0  0  0  0  0
    9.9090   -2.2960   23.4410 C   0  0  0  0  0  0  0  0  0  0  0  0
   10.7050   -1.0200   23.4880 C   0  0  0  0  0  0  0  0  0  0  0  0
   10.1250    0.2090   24.1640 C   0  0  0  0  0  0  0  0  0  0  0  0
   11.9900   -0.9420   22.8920 C   0  0  0  0  0  0  0  0  0  0  0  0
   12.6200   -2.1190   22.1980 C   0  0  0  0  0  0  0  0  0  0  0  0
   10.9940    1.4110   24.1180 C   0  0  0  0  0  0  0  0  0  0  0  0
   12.7320    0.2460   22.9130 C   0  0  0  0  0  0  0  0  0  0  0  0
   12.2830    1.4330   23.5000 C   0  0  0  0  0  0  0  0  0  0  0  0
  1  2  1  0
  2  3  2  0
  1  4  2  0
  1  5  2  0
  1  6  1  0
  2  7  1  0
  6  8  1  0
  6  9  1  0
  3 10  1  0
  7 11  2  0
  3 12  1  0
  8 13  1  0
  9 14  1  0
 14 15  1  6
 11 16  1  0
 12 16  2  0
 13 17  1  0
 14 17  1  0
 17 18  1  0
 15 19  1  0
 18 20  2  0
 18 21  1  0
 19 22  1  0
 22 23  1  0
 23 24  2  0
 23 25  1  0
 25 26  1  0
 24 27  1  0
 25 28  2  0
 27 29  2  0
 28 29  1  0
M  END
