x0831_0-x1386_1-x0692_1-x1375_1
     RDKit          3D

 25 27  0  0  0  0  0  0  0  0999 V2000
    6.4340   -3.0610   19.7470 C   0  0  0  0  0  0  0  0  0  0  0  0
    7.4020   -2.9410   18.6080 C   0  0  0  0  0  0  0  0  0  0  0  0
    5.4710   -3.8490   19.6210 O   0  0  0  0  0  0  0  0  0  0  0  0
    6.7160   -2.2780   20.8730 N   0  0  0  0  0  0  0  0  0  0  0  0
    7.7070   -1.2050   20.8670 C   0  0  0  0  0  0  0  0  0  0  0  0
    6.4540   -2.8920   22.1760 C   0  0  1  0  0  0  0  0  0  0  0  0
    5.5860   -4.1290   21.9970 C   0  0  0  0  0  0  0  0  0  0  0  0
    9.0020   -1.6280   21.5960 C   0  0  0  0  0  0  0  0  0  0  0  0
    7.7300   -3.1690   23.0220 C   0  0  0  0  0  0  0  0  0  0  0  0
    8.7420   -2.1030   22.9360 N   0  0  0  0  0  0  0  0  0  0  0  0
    5.4410   -5.0670   23.1880 C   0  0  1  0  0  0  0  0  0  0  0  0
    9.8170   -2.1560   23.7740 C   0  0  0  0  0  0  0  0  0  0  0  0
    5.1530   -4.6060   24.4790 C   0  0  0  0  0  0  0  0  0  0  0  0
    4.3040   -6.0550   22.8210 C   0  0  0  0  0  0  0  0  0  0  0  0
   10.6500   -0.9550   23.6790 C   0  0  0  0  0  0  0  0  0  0  0  0
    4.2540   -5.3010   25.2790 C   0  0  0  0  0  0  0  0  0  0  0  0
    3.7360   -6.6120   24.3260 S   0  0  0  0  0  0  0  0  0  0  0  0
    2.2930   -6.5630   24.3790 O   0  0  0  0  0  0  0  0  0  0  0  0
    4.3860   -8.0200   24.5870 O   0  0  0  0  0  0  0  0  0  0  0  0
   10.2280    0.2830   24.2260 C   0  0  0  0  0  0  0  0  0  0  0  0
   11.9190   -0.9680   23.0200 C   0  0  0  0  0  0  0  0  0  0  0  0
   12.4520   -2.2250   22.4030 C   0  0  0  0  0  0  0  0  0  0  0  0
   11.1340    1.4550   24.0560 C   0  0  0  0  0  0  0  0  0  0  0  0
   12.8270    0.2380   22.8680 C   0  0  0  0  0  0  0  0  0  0  0  0
   12.3540    1.4220   23.4150 C   0  0  0  0  0  0  0  0  0  0  0  0
  1  2  1  0
  1  3  2  0
  1  4  1  0
  4  5  1  0
  4  6  1  0
  6  7  1  6
  5  8  1  0
  6  9  1  0
  8 10  1  0
  9 10  1  0
 11  7  1  6
 10 12  1  0
 11 13  1  0
 11 14  1  0
 12 15  1  0
 13 16  2  0
 14 17  1  0
 16 17  1  0
 17 18  1  0
 17 19  1  0
 15 20  2  0
 15 21  1  0
 21 22  1  0
 20 23  1  0
 21 24  2  0
 23 25  2  0
 24 25  1  0
M  END
