x0831_0-x0831_1-x0769_1
     RDKit          3D

 30 32  0  0  0  0  0  0  0  0999 V2000
    6.1710   -3.4580   19.9790 C   0  0  0  0  0  0  0  0  0  0  0  0
    7.1630   -3.0400   18.8850 C   0  0  0  0  0  0  0  0  0  0  0  0
    5.3420   -4.3430   19.8020 O   0  0  0  0  0  0  0  0  0  0  0  0
    6.2300   -2.8220   21.1960 N   0  0  0  0  0  0  0  0  0  0  0  0
    6.2000   -1.3510   21.1480 C   0  0  0  0  0  0  0  0  0  0  0  0
    6.9710   -3.4520   22.2830 C   0  0  0  0  0  0  0  0  0  0  0  0
    7.5800   -0.6060   21.1190 C   0  0  0  0  0  0  0  0  0  0  0  0
    7.3060   -2.5380   23.2350 C   0  0  1  0  0  0  0  0  0  0  0  0
    7.3080   -2.9530   24.6480 C   0  0  0  0  0  0  0  0  0  0  0  0
    8.5430   -1.7700   22.9640 N   0  0  0  0  0  0  0  0  0  0  0  0
    8.7200   -1.3410   21.5700 C   0  0  0  0  0  0  0  0  0  0  0  0
    6.5790   -1.9510   25.5490 C   0  0  0  0  0  0  0  0  0  0  0  0
    9.7360   -2.1340   23.5430 C   0  0  0  0  0  0  0  0  0  0  0  0
    5.7220   -2.6510   26.4550 O   0  0  0  0  0  0  0  0  0  0  0  0
   10.7030   -0.9720   23.4950 C   0  0  0  0  0  0  0  0  0  0  0  0
    4.3720   -2.6650   26.2030 C   0  0  0  0  0  0  0  0  0  0  0  0
   10.2380    0.1980   24.1080 C   0  0  0  0  0  0  0  0  0  0  0  0
   11.9800   -0.9910   22.8840 C   0  0  0  0  0  0  0  0  0  0  0  0
   12.5980   -2.1730   22.1900 C   0  0  0  0  0  0  0  0  0  0  0  0
    3.8110   -3.9240   25.9080 C   0  0  0  0  0  0  0  0  0  0  0  0
    3.5530   -1.5420   26.2290 C   0  0  0  0  0  0  0  0  0  0  0  0
   11.0330    1.3370   24.1000 C   0  0  0  0  0  0  0  0  0  0  0  0
   12.7540    0.1770   22.9050 C   0  0  0  0  0  0  0  0  0  0  0  0
    4.8150   -5.3050   25.8780 S   0  0  0  0  0  0  0  0  0  0  0  0
    2.3000   -4.0910   25.6140 C   0  0  0  0  0  0  0  0  0  0  0  0
    2.1750   -1.5370   25.9870 C   0  0  0  0  0  0  0  0  0  0  0  0
   12.2780    1.3320   23.5060 C   0  0  0  0  0  0  0  0  0  0  0  0
    5.7840   -5.1580   26.9490 O   0  0  0  0  0  0  0  0  0  0  0  0
    3.9540   -6.4620   25.8010 O   0  0  0  0  0  0  0  0  0  0  0  0
    1.4070   -2.8370   25.6500 C   0  0  0  0  0  0  0  0  0  0  0  0
  1  2  1  0
  1  3  2  0
  1  4  1  0
  4  5  1  0
  4  6  1  0
  5  7  1  0
  6  8  1  0
  8  9  1  1
  8 10  1  0
  7 11  1  0
 10 11  1  0
  9 12  1  0
 10 13  1  0
 12 14  1  0
 13 15  1  0
 14 16  1  0
 15 17  2  0
 15 18  1  0
 18 19  1  0
 16 20  2  0
 16 21  1  0
 17 22  1  0
 18 23  2  0
 20 24  1  0
 20 25  1  0
 21 26  2  0
 22 27  2  0
 23 27  1  0
 24 28  2  0
 24 29  2  0
 25 30  2  0
 26 30  1  0
M  END
