x0831_0-x1334_1-x0770_1-x0426_1-x0397_0-x1385_1-x1386_1-x1412_1-x0434_2-x1418_1-x1375_1-x1334_0-x1374_1-x0692_1
     RDKit          3D

 44 50  0  0  0  0  0  0  0  0999 V2000
    2.1780   -7.3280   24.5440 O   0  0  0  0  0  0  0  0  0  0  0  0
    3.3080   -7.4980   25.3720 C   0  0  0  0  0  0  0  0  0  0  0  0
    4.4420   -7.5500   24.5370 O   0  0  0  0  0  0  0  0  0  0  0  0
    4.4370   -6.3850   23.6980 C   0  0  0  0  0  0  0  0  0  0  0  0
    5.7800   -5.9190   23.1780 C   0  0  2  0  0  0  0  0  0  0  0  0
    5.8550   -4.6730   22.3460 C   0  0  2  0  0  0  0  0  0  0  0  0
    6.1040   -6.2030   21.8030 C   0  0  0  0  0  0  0  0  0  0  0  0
    7.0620   -3.6900   22.1710 C   0  0  1  0  0  0  0  0  0  0  0  0
    6.7570   -2.7200   21.0850 N   0  0  0  0  0  0  0  0  0  0  0  0
    7.7050   -3.2110   23.3010 C   0  0  0  0  0  0  0  0  0  0  0  0
    6.4210   -3.3120   19.8660 C   0  0  0  0  0  0  0  0  0  0  0  0
    8.7330   -2.1840   23.0090 N   0  0  0  0  0  0  0  0  0  0  0  0
    7.8140   -1.7520   20.8420 C   0  0  1  0  0  0  0  0  0  0  0  0
    7.3500   -3.0520   18.6880 C   0  0  0  0  0  0  0  0  0  0  0  0
    5.4470   -4.0710   19.6990 O   0  0  0  0  0  0  0  0  0  0  0  0
   10.1370   -2.3350   23.3940 C   0  0  2  0  0  0  0  0  0  0  0  0
    7.4920   -0.3590   20.9930 N   0  0  0  0  0  0  0  0  0  0  0  0
    8.9320   -2.0450   21.5630 C   0  0  0  0  0  0  0  0  0  0  0  0
   10.5990   -3.1830   24.5390 C   0  0  0  0  0  0  0  0  0  0  0  0
    7.1220    0.2560   22.2790 C   0  0  0  0  0  0  0  0  0  0  0  0
    6.5870    0.2220   19.9960 C   0  0  0  0  0  0  0  0  0  0  0  0
   10.8330   -1.0490   23.4180 C   0  0  0  0  0  0  0  0  0  0  0  0
    5.6080    0.3160   22.1340 C   0  0  2  0  0  0  0  0  0  0  0  0
    6.7210    0.4080   18.5060 N   0  0  0  0  0  0  0  0  0  0  0  0
    5.4720    0.6430   20.6580 C   0  0  0  0  0  0  0  0  0  0  0  0
   10.1770    0.0280   23.9160 C   0  0  0  0  0  0  0  0  0  0  0  0
   12.1640   -0.8860   22.9380 C   0  0  0  0  0  0  0  0  0  0  0  0
    9.7290   -4.0830   25.3850 C   0  0  0  0  0  0  0  0  0  0  0  0
    4.9160    1.3870   23.0080 C   0  0  0  0  0  0  0  0  0  0  0  0
   12.9550   -2.0060   22.3550 C   0  0  0  0  0  0  0  0  0  0  0  0
    4.3670    1.2840   20.0940 C   0  0  0  0  0  0  0  0  0  0  0  0
    5.6630    1.0320   17.9510 C   0  0  0  0  0  0  0  0  0  0  0  0
   10.7700    1.2850   23.9830 C   0  0  0  0  0  0  0  0  0  0  0  0
   12.7700    0.3490   22.9940 C   0  0  0  0  0  0  0  0  0  0  0  0
   10.0270   -5.3830   25.6210 C   0  0  0  0  0  0  0  0  0  0  0  0
    8.2600   -3.6890   26.2340 S   0  0  0  0  0  0  0  0  0  0  0  0
    3.4840    1.7040   22.5130 C   0  0  2  0  0  0  0  0  0  0  0  0
    3.2150    1.6850   20.9900 C   0  0  0  0  0  0  0  0  0  0  0  0
    4.4060    1.5140   18.7420 C   0  0  0  0  0  0  0  0  0  0  0  0
   12.0780    1.4130   23.5100 C   0  0  0  0  0  0  0  0  0  0  0  0
    9.0610   -6.0640   26.5350 C   0  0  0  0  0  0  0  0  0  0  0  0
    8.0670   -5.2360   26.9410 C   0  0  0  0  0  0  0  0  0  0  0  0
    3.0190    2.9470   23.0680 N   0  0  0  0  0  0  0  0  0  0  0  0
    6.7820   -5.6140   28.0010 Cl  0  0  0  0  0  0  0  0  0  0  0  0
  1  2  1  0
  2  3  1  0
  3  4  1  0
  5  4  1  6
  5  6  1  0
  5  7  1  0
  6  7  1  6
  6  8  1  0
  8  9  1  0
  8 10  1  1
  9 11  1  0
 10 12  1  0
  9 13  1  0
 11 14  1  0
 11 15  2  0
 12 16  1  0
 13 17  1  1
 12 18  1  0
 13 18  1  0
 16 19  1  1
 17 20  1  0
 17 21  1  0
 16 22  1  0
 23 20  1  1
 21 24  2  0
 21 25  1  0
 23 25  1  0
 22 26  2  0
 22 27  1  0
 19 28  1  0
 23 29  1  0
 27 30  1  0
 25 31  2  0
 24 32  1  0
 26 33  1  0
 27 34  2  0
 28 35  2  0
 28 36  1  0
 29 37  1  0
 31 38  1  0
 37 38  1  0
 31 39  1  0
 32 39  2  0
 33 40  2  0
 34 40  1  0
 35 41  1  0
 36 42  1  0
 41 42  2  0
 37 43  1  6
 42 44  1  0
M  END
