x0831_0-x0831_1-x1334_1-x0434_2-x0769_1
     RDKit          3D

 37 40  0  0  0  0  0  0  0  0999 V2000
    6.3180   -3.4530   20.0780 C   0  0  0  0  0  0  0  0  0  0  0  0
    7.2680   -3.0480   18.9460 C   0  0  0  0  0  0  0  0  0  0  0  0
    5.4010   -4.2580   19.8210 O   0  0  0  0  0  0  0  0  0  0  0  0
    6.5340   -2.9310   21.3690 N   0  0  0  0  0  0  0  0  0  0  0  0
    6.3760   -1.4710   21.5620 C   0  0  1  0  0  0  0  0  0  0  0  0
    7.0830   -3.7000   22.5110 C   0  0  0  0  0  0  0  0  0  0  0  0
    7.6180   -0.7220   21.0800 C   0  0  0  0  0  0  0  0  0  0  0  0
    7.6390   -2.8530   23.4530 C   0  0  2  0  0  0  0  0  0  0  0  0
    5.0150   -1.1000   20.9580 C   0  0  0  0  0  0  0  0  0  0  0  0
    6.5260   -2.0270   24.0080 C   0  0  0  0  0  0  0  0  0  0  0  0
    8.7880   -2.0610   22.9560 N   0  0  0  0  0  0  0  0  0  0  0  0
    8.8130   -1.4800   21.5980 C   0  0  0  0  0  0  0  0  0  0  0  0
    4.7820    0.0720   20.2140 C   0  0  0  0  0  0  0  0  0  0  0  0
    6.5740   -1.6600   25.5130 C   0  0  0  0  0  0  0  0  0  0  0  0
   10.0540   -2.1760   23.6450 C   0  0  0  0  0  0  0  0  0  0  0  0
    5.8570   -0.6100   19.5770 C   0  0  0  0  0  0  0  0  0  0  0  0
    4.7030    1.1860   19.3350 C   0  0  0  0  0  0  0  0  0  0  0  0
    5.7590   -2.5610   26.2710 O   0  0  0  0  0  0  0  0  0  0  0  0
   10.8550   -0.9220   23.5850 C   0  0  0  0  0  0  0  0  0  0  0  0
    6.5770   -0.2780   18.4560 C   0  0  0  0  0  0  0  0  0  0  0  0
    5.4280    1.5010   18.1940 C   0  0  0  0  0  0  0  0  0  0  0  0
    4.4010   -2.5740   26.0880 C   0  0  0  0  0  0  0  0  0  0  0  0
   10.3330    0.2340   24.1560 C   0  0  0  0  0  0  0  0  0  0  0  0
   12.1030   -0.9280   22.9430 C   0  0  0  0  0  0  0  0  0  0  0  0
    6.3930    0.7750   17.7140 N   0  0  0  0  0  0  0  0  0  0  0  0
   12.6970   -2.1570   22.3040 C   0  0  0  0  0  0  0  0  0  0  0  0
    3.8440   -4.0270   25.8370 C   0  0  0  0  0  0  0  0  0  0  0  0
    3.5220   -1.2730   26.1350 C   0  0  0  0  0  0  0  0  0  0  0  0
   11.0080    1.4310   24.1130 C   0  0  0  0  0  0  0  0  0  0  0  0
   12.8570    0.2540   22.8660 C   0  0  0  0  0  0  0  0  0  0  0  0
    4.8610   -5.3930   25.8020 S   0  0  0  0  0  0  0  0  0  0  0  0
    2.3220   -4.0980   25.6320 C   0  0  0  0  0  0  0  0  0  0  0  0
    2.1340   -1.4340   25.9390 C   0  0  0  0  0  0  0  0  0  0  0  0
   12.2850    1.4940   23.4730 C   0  0  0  0  0  0  0  0  0  0  0  0
    5.8310   -5.2770   26.8680 O   0  0  0  0  0  0  0  0  0  0  0  0
    3.9560   -6.7030   25.8780 O   0  0  0  0  0  0  0  0  0  0  0  0
    1.5200   -2.8120   25.6900 C   0  0  0  0  0  0  0  0  0  0  0  0
  1  2  1  0
  1  3  2  0
  1  4  1  0
  4  5  1  0
  4  6  1  0
  5  7  1  0
  6  8  1  0
  5  9  1  6
  8 10  1  6
  8 11  1  0
  7 12  1  0
 11 12  1  0
  9 13  1  0
 10 14  1  0
 11 15  1  0
 13 16  2  0
 13 17  1  0
 14 18  1  0
 15 19  1  0
 16 20  1  0
 17 21  2  0
 18 22  1  0
 19 23  2  0
 19 24  1  0
 20 25  2  0
 21 25  1  0
 24 26  1  0
 22 27  2  0
 22 28  1  0
 23 29  1  0
 24 30  2  0
 27 31  1  0
 27 32  1  0
 28 33  2  0
 29 34  2  0
 30 34  1  0
 31 35  2  0
 31 36  2  0
 32 37  2  0
 33 37  1  0
M  END
