x0831_1-x1334_0-x0397_0-x0434_2-x0831_0-x1334_1-x0692_1
     RDKit          3D

 35 39  0  0  0  0  0  0  0  0999 V2000
    6.3470   -3.3600   19.8740 C   0  0  0  0  0  0  0  0  0  0  0  0
    7.3290   -3.0310   18.7630 C   0  0  0  0  0  0  0  0  0  0  0  0
    5.3630   -4.0730   19.6710 O   0  0  0  0  0  0  0  0  0  0  0  0
    6.6480   -2.8650   21.1260 N   0  0  0  0  0  0  0  0  0  0  0  0
    6.4070   -1.5480   21.6930 C   0  0  1  0  0  0  0  0  0  0  0  0
    7.2360   -3.7470   22.0850 C   0  0  1  0  0  0  0  0  0  0  0  0
    7.7270   -0.7390   21.6330 C   0  0  0  0  0  0  0  0  0  0  0  0
    7.3040   -3.1120   23.4320 C   0  0  0  0  0  0  0  0  0  0  0  0
    6.2590   -4.5250   22.9210 C   0  0  0  0  0  0  0  0  0  0  0  0
    5.0840   -1.0640   21.0820 C   0  0  0  0  0  0  0  0  0  0  0  0
    8.5550   -2.3320   23.4920 N   0  0  0  0  0  0  0  0  0  0  0  0
    8.8540   -1.7100   22.2350 C   0  0  0  0  0  0  0  0  0  0  0  0
    6.6310   -5.7190   23.2690 C   0  0  0  0  0  0  0  0  0  0  0  0
    5.7060   -6.0420   22.4280 C   0  0  0  0  0  0  0  0  0  0  0  0
    4.8040    0.1390   20.4160 C   0  0  0  0  0  0  0  0  0  0  0  0
    9.5430   -3.2070   23.8620 C   0  0  1  0  0  0  0  0  0  0  0  0
    5.7990   -0.5740   19.6640 C   0  0  0  0  0  0  0  0  0  0  0  0
    4.7880    1.3150   19.3720 C   0  0  0  0  0  0  0  0  0  0  0  0
   10.9500   -2.5980   24.0490 C   0  0  0  0  0  0  0  0  0  0  0  0
    9.1130   -4.0700   25.0720 C   0  0  0  0  0  0  0  0  0  0  0  0
    6.4750   -0.3430   18.4900 C   0  0  0  0  0  0  0  0  0  0  0  0
    5.4700    1.5090   18.1830 C   0  0  0  0  0  0  0  0  0  0  0  0
    9.7620   -5.2840   25.2720 C   0  0  0  0  0  0  0  0  0  0  0  0
    7.8990   -3.7370   26.2500 S   0  0  0  0  0  0  0  0  0  0  0  0
   11.1980   -1.1220   23.8830 C   0  0  0  0  0  0  0  0  0  0  0  0
    6.3480    0.6860   17.6910 N   0  0  0  0  0  0  0  0  0  0  0  0
    9.3870   -6.0200   26.3100 C   0  0  0  0  0  0  0  0  0  0  0  0
    8.2620   -5.2570   27.0310 C   0  0  0  0  0  0  0  0  0  0  0  0
   10.4240   -0.0710   24.4410 C   0  0  0  0  0  0  0  0  0  0  0  0
   12.3250   -0.7920   23.0910 C   0  0  0  0  0  0  0  0  0  0  0  0
    7.4010   -5.7360   28.4270 Cl  0  0  0  0  0  0  0  0  0  0  0  0
   13.1640   -1.8490   22.4550 C   0  0  0  0  0  0  0  0  0  0  0  0
   10.6580    1.2980   24.2960 C   0  0  0  0  0  0  0  0  0  0  0  0
   12.6140    0.7040   22.9340 C   0  0  0  0  0  0  0  0  0  0  0  0
   11.7190    1.7360   23.5740 C   0  0  0  0  0  0  0  0  0  0  0  0
  1  2  1  0
  1  3  2  0
  1  4  1  0
  4  5  1  0
  4  6  1  0
  5  7  1  0
  6  8  1  0
  6  9  1  1
  5 10  1  6
  8 11  1  0
  7 12  1  0
 11 12  1  0
  9 13  1  0
  9 14  1  0
 13 14  1  0
 10 15  1  0
 11 16  1  0
 15 17  2  0
 15 18  1  0
 16 19  1  1
 16 20  1  0
 17 21  1  0
 18 22  2  0
 20 23  2  0
 20 24  1  0
 19 25  1  0
 21 26  2  0
 22 26  1  0
 23 27  1  0
 24 28  1  0
 27 28  2  0
 25 29  2  0
 25 30  1  0
 28 31  1  0
 30 32  1  0
 29 33  1  0
 30 34  2  0
 33 35  2  0
 34 35  1  0
M  END
