x0831_0-x0434_1-x0831_1-x0981_1
     RDKit          3D

 39 41  0  0  0  0  0  0  0  0999 V2000
    4.4160   -5.4910   23.4010 C   0  0  0  0  0  0  0  0  0  0  0  0
    3.0080   -6.0480   23.5670 C   0  0  1  0  0  0  0  0  0  0  0  0
    2.6690   -7.2780   22.8370 N   0  0  0  0  0  0  0  0  0  0  0  0
    4.7040   -4.3740   24.0060 N   0  0  0  0  0  0  0  0  0  0  0  0
    2.7260   -6.2250   25.0500 C   0  0  0  0  0  0  0  0  0  0  0  0
    6.0130   -3.7020   23.9930 C   0  0  0  0  0  0  0  0  0  0  0  0
    1.4570   -7.5460   22.0910 C   0  0  0  0  0  0  0  0  0  0  0  0
    3.1210   -7.6380   25.3520 C   0  0  0  0  0  0  0  0  0  0  0  0
    6.8060   -3.8470   22.6770 C   0  0  1  0  0  0  0  0  0  0  0  0
    1.2030   -8.7970   21.2430 C   0  0  0  0  0  0  0  0  0  0  0  0
    0.4490   -6.5380   22.1400 O   0  0  0  0  0  0  0  0  0  0  0  0
    2.5250   -8.2440   26.4190 N   0  0  0  0  0  0  0  0  0  0  0  0
    3.9460   -8.1850   24.6460 O   0  0  0  0  0  0  0  0  0  0  0  0
    6.1820   -3.1570   21.5320 N   0  0  0  0  0  0  0  0  0  0  0  0
    8.1510   -3.6210   22.9860 C   0  0  0  0  0  0  0  0  0  0  0  0
    6.1950   -3.7030   20.2310 C   0  0  0  0  0  0  0  0  0  0  0  0
    8.6220   -2.2470   23.1510 N   0  0  0  0  0  0  0  0  0  0  0  0
    5.8120   -1.7270   21.6510 C   0  0  1  0  0  0  0  0  0  0  0  0
    5.4180   -4.6050   19.9340 O   0  0  0  0  0  0  0  0  0  0  0  0
    7.1790   -3.1360   19.1820 C   0  0  0  0  0  0  0  0  0  0  0  0
   10.0650   -2.3370   23.4840 C   0  0  0  0  0  0  0  0  0  0  0  0
    8.3120   -1.4700   21.9270 C   0  0  1  0  0  0  0  0  0  0  0  0
    6.9540   -0.7180   21.9450 C   0  0  0  0  0  0  0  0  0  0  0  0
    5.3300   -1.4700   20.2120 C   0  0  0  0  0  0  0  0  0  0  0  0
    9.4460   -0.4900   21.5890 C   0  0  0  0  0  0  0  0  0  0  0  0
   10.8200   -1.0280   23.5010 C   0  0  0  0  0  0  0  0  0  0  0  0
    4.7480   -0.2560   19.8710 C   0  0  0  0  0  0  0  0  0  0  0  0
    9.2940    0.7310   21.5040 O   0  0  0  0  0  0  0  0  0  0  0  0
   10.2450    0.0870   24.1370 C   0  0  0  0  0  0  0  0  0  0  0  0
   12.1000   -0.8810   22.8840 C   0  0  0  0  0  0  0  0  0  0  0  0
    5.9700   -0.6120   19.2800 C   0  0  0  0  0  0  0  0  0  0  0  0
    4.5500    0.9970   19.2080 C   0  0  0  0  0  0  0  0  0  0  0  0
   12.7950   -2.0010   22.1720 C   0  0  0  0  0  0  0  0  0  0  0  0
   10.9010    1.3030   24.1550 C   0  0  0  0  0  0  0  0  0  0  0  0
   12.7400    0.3670   22.9310 C   0  0  0  0  0  0  0  0  0  0  0  0
    6.7220    0.0010   18.3640 C   0  0  0  0  0  0  0  0  0  0  0  0
    5.3110    1.6200   18.2410 C   0  0  0  0  0  0  0  0  0  0  0  0
   12.1280    1.4320   23.5600 C   0  0  0  0  0  0  0  0  0  0  0  0
    6.4370    1.1150   17.7720 N   0  0  0  0  0  0  0  0  0  0  0  0
  2  1  1  1
  2  3  1  0
  1  4  2  3
  2  5  1  0
  4  6  1  0
  3  7  1  0
  5  8  1  0
  9  6  1  1
  7 10  1  0
  7 11  2  0
  8 12  1  0
  8 13  2  0
  9 14  1  0
  9 15  1  0
 14 16  1  0
 15 17  1  0
 14 18  1  0
 16 19  2  0
 16 20  1  0
 17 21  1  0
 17 22  1  0
 18 23  1  0
 22 23  1  0
 18 24  1  6
 22 25  1  1
 21 26  1  0
 24 27  1  0
 25 28  2  0
 26 29  2  0
 26 30  1  0
 27 31  2  0
 27 32  1  0
 30 33  1  0
 29 34  1  0
 30 35  2  0
 31 36  1  0
 32 37  2  0
 34 38  2  0
 35 38  1  0
 36 39  2  0
 37 39  1  0
M  END
