x0831_0-x0072_0-x0708_0
     RDKit          3D

 22 22  0  0  0  0  0  0  0  0999 V2000
    7.5710   -3.2650   22.9510 C   0  0  0  0  0  0  0  0  0  0  0  0
    7.6800   -3.9690   21.8890 N   0  0  0  0  0  0  0  0  0  0  0  0
    6.5700   -4.4190   21.1830 N   0  0  0  0  0  0  0  0  0  0  0  0
    6.6840   -2.1250   23.0590 O   0  0  0  0  0  0  0  0  0  0  0  0
    8.4450   -3.7290   24.1220 C   0  0  2  0  0  0  0  0  0  0  0  0
    7.7960   -3.5820   25.2960 N   0  0  0  0  0  0  0  0  0  0  0  0
    9.7640   -3.0060   24.1620 C   0  0  0  0  0  0  0  0  0  0  0  0
    6.2260   -3.8300   19.9620 C   0  0  0  0  0  0  0  0  0  0  0  0
    8.1690   -4.7510   26.4620 S   0  0  0  0  0  0  0  0  0  0  0  0
    9.7880   -1.9330   23.0760 C   0  0  0  0  0  0  0  0  0  0  0  0
    7.2890   -3.0920   19.1400 C   0  0  0  0  0  0  0  0  0  0  0  0
    5.0760   -3.9520   19.5600 O   0  0  0  0  0  0  0  0  0  0  0  0
    6.5570   -5.4370   26.7300 C   0  0  0  0  0  0  0  0  0  0  0  0
    9.0160   -5.7640   25.8760 O   0  0  0  0  0  0  0  0  0  0  0  0
    8.5490   -4.0600   27.6510 O   0  0  0  0  0  0  0  0  0  0  0  0
   10.7050   -0.9120   23.1630 C   0  0  0  0  0  0  0  0  0  0  0  0
   10.1220    0.2010   23.7640 C   0  0  0  0  0  0  0  0  0  0  0  0
   12.1680   -0.9070   22.6750 C   0  0  0  0  0  0  0  0  0  0  0  0
   12.8330   -2.0730   22.0170 C   0  0  0  0  0  0  0  0  0  0  0  0
   10.8270    1.3590   23.9420 C   0  0  0  0  0  0  0  0  0  0  0  0
   12.9010    0.2880   22.8580 C   0  0  0  0  0  0  0  0  0  0  0  0
   12.2920    1.5240   23.4990 C   0  0  0  0  0  0  0  0  0  0  0  0
  1  2  1  0
  2  3  1  0
  1  4  2  0
  1  5  1  0
  5  6  1  0
  5  7  1  1
  3  8  1  0
  9  6  1  0
  7 10  1  0
  8 11  1  0
  8 12  2  0
  9 13  1  0
  9 14  2  0
  9 15  2  0
 10 16  1  0
 16 17  2  0
 16 18  1  0
 18 19  1  0
 17 20  1  0
 18 21  2  0
 20 22  2  0
 21 22  1  0
M  END
