x0831_0-x0771_1-x1308_0
     RDKit          3D

 30 32  0  0  0  0  0  0  0  0999 V2000
    5.1650   -5.4620   25.6100 S   0  0  0  0  0  0  0  0  0  0  0  0
    3.8500   -4.2690   25.7660 C   0  0  0  0  0  0  0  0  0  0  0  0
    4.1020   -2.8350   26.2330 C   0  0  0  0  0  0  0  0  0  0  0  0
    4.5070   -6.7490   25.5890 O   0  0  0  0  0  0  0  0  0  0  0  0
    6.0710   -5.1690   26.6720 O   0  0  0  0  0  0  0  0  0  0  0  0
    5.8930   -5.2920   24.0680 N   0  0  0  0  0  0  0  0  0  0  0  0
    2.4170   -4.6950   25.4420 C   0  0  0  0  0  0  0  0  0  0  0  0
    6.6230   -4.0670   23.5830 C   0  0  1  0  0  0  0  0  0  0  0  0
    5.1290   -5.8740   23.0390 C   0  0  0  0  0  0  0  0  0  0  0  0
    2.0310   -6.0670   24.9690 C   0  0  0  0  0  0  0  0  0  0  0  0
    7.6440   -3.4450   24.5230 C   0  0  0  0  0  0  0  0  0  0  0  0
    1.3920   -3.7690   25.5950 C   0  0  0  0  0  0  0  0  0  0  0  0
    2.9740   -1.8690   26.3830 C   0  0  0  0  0  0  0  0  0  0  0  0
    7.4790   -4.4640   22.5960 C   0  0  0  0  0  0  0  0  0  0  0  0
    5.9310   -6.2280   21.9390 C   0  0  0  0  0  0  0  0  0  0  0  0
    8.3510   -2.1750   23.9920 C   0  0  0  0  0  0  0  0  0  0  0  0
    1.5610   -2.4080   26.0420 C   0  0  0  0  0  0  0  0  0  0  0  0
    6.7370   -5.0660   21.5290 N   0  0  0  0  0  0  0  0  0  0  0  0
    0.3670   -1.5150   26.1830 C   0  0  0  0  0  0  0  0  0  0  0  0
    6.3520   -4.3810   20.3810 C   0  0  0  0  0  0  0  0  0  0  0  0
    9.8570   -2.3670   23.6310 C   0  0  0  0  0  0  0  0  0  0  0  0
    7.3470   -3.3920   19.7450 C   0  0  0  0  0  0  0  0  0  0  0  0
    5.2530   -4.5810   19.9060 O   0  0  0  0  0  0  0  0  0  0  0  0
   10.6740   -1.0750   23.5900 C   0  0  0  0  0  0  0  0  0  0  0  0
   10.1150    0.0820   24.2360 C   0  0  0  0  0  0  0  0  0  0  0  0
   11.9370   -0.9700   22.9490 C   0  0  0  0  0  0  0  0  0  0  0  0
   12.5940   -2.1110   22.2490 C   0  0  0  0  0  0  0  0  0  0  0  0
   10.8370    1.2590   24.1940 C   0  0  0  0  0  0  0  0  0  0  0  0
   12.6180    0.2470   22.9490 C   0  0  0  0  0  0  0  0  0  0  0  0
   12.0700    1.3500   23.5630 C   0  0  0  0  0  0  0  0  0  0  0  0
  1  2  1  0
  2  3  2  0
  1  4  2  0
  1  5  2  0
  1  6  1  0
  2  7  1  0
  6  8  1  0
  6  9  1  0
  7 10  1  0
  8 11  1  1
  7 12  2  0
  3 13  1  0
  8 14  1  0
  9 15  1  0
 11 16  1  0
 12 17  1  0
 13 17  2  0
 14 18  1  0
 15 18  1  0
 17 19  1  0
 18 20  1  0
 16 21  1  0
 20 22  1  0
 20 23  2  0
 21 24  1  0
 24 25  2  0
 24 26  1  0
 26 27  1  0
 25 28  1  0
 26 29  2  0
 28 30  2  0
 29 30  1  0
M  END
