x0831_0-x1418_1-x0770_1-x1385_1-x0692_1-x1334_1-x1412_1-x0434_2-x1374_1-x1334_0-x0397_0-x0426_1
     RDKit          3D

 43 48  0  0  0  0  0  0  0  0999 V2000
    2.0440   -7.1750   23.5400 O   0  0  0  0  0  0  0  0  0  0  0  0
    2.3720   -7.5530   24.8660 C   0  0  0  0  0  0  0  0  0  0  0  0
    3.7470   -7.9010   24.8880 O   0  0  0  0  0  0  0  0  0  0  0  0
    4.4390   -7.2370   23.8520 C   0  0  0  0  0  0  0  0  0  0  0  0
    4.9130   -6.0000   24.3320 C   0  0  0  0  0  0  0  0  0  0  0  0
    6.0430   -5.6230   23.4420 C   0  0  2  0  0  0  0  0  0  0  0  0
    5.7620   -4.7990   22.4560 C   0  0  2  0  0  0  0  0  0  0  0  0
    6.4130   -6.2840   22.2010 C   0  0  0  0  0  0  0  0  0  0  0  0
    6.4670   -3.4950   22.5070 C   0  0  1  0  0  0  0  0  0  0  0  0
    7.9470   -3.5800   22.9270 C   0  0  0  0  0  0  0  0  0  0  0  0
    6.3070   -2.6860   21.3250 N   0  0  0  0  0  0  0  0  0  0  0  0
    6.2350   -3.2210   20.0000 C   0  0  0  0  0  0  0  0  0  0  0  0
    8.5750   -2.2420   23.0970 N   0  0  0  0  0  0  0  0  0  0  0  0
    6.8740   -1.4080   21.8150 C   0  0  2  0  0  0  0  0  0  0  0  0
    7.2420   -2.9100   18.9030 C   0  0  0  0  0  0  0  0  0  0  0  0
    5.3460   -4.0400   19.7170 O   0  0  0  0  0  0  0  0  0  0  0  0
    6.2350    0.0050   21.5050 C   0  0  2  0  0  0  0  0  0  0  0  0
   10.0340   -2.3180   23.2730 C   0  0  2  0  0  0  0  0  0  0  0  0
    8.2650   -1.4400   21.8990 C   0  0  0  0  0  0  0  0  0  0  0  0
    5.0010    0.1580   22.4360 C   0  0  0  0  0  0  0  0  0  0  0  0
   10.5800   -3.2190   24.4120 C   0  0  0  0  0  0  0  0  0  0  0  0
    5.8690    0.5660   20.1400 C   0  0  0  0  0  0  0  0  0  0  0  0
   10.7620   -0.9840   23.3280 C   0  0  0  0  0  0  0  0  0  0  0  0
    4.4680    1.6120   22.4510 C   0  0  2  0  0  0  0  0  0  0  0  0
    4.7530    1.4340   19.9960 C   0  0  0  0  0  0  0  0  0  0  0  0
    6.6290    0.2470   19.0040 C   0  0  0  0  0  0  0  0  0  0  0  0
   10.1460    0.1290   23.8530 C   0  0  0  0  0  0  0  0  0  0  0  0
   12.0840   -0.8300   22.8530 C   0  0  0  0  0  0  0  0  0  0  0  0
    9.7290   -4.1090   25.3070 C   0  0  0  0  0  0  0  0  0  0  0  0
    3.5040    1.8520   23.5040 N   0  0  0  0  0  0  0  0  0  0  0  0
    3.8460    1.8660   21.0970 C   0  0  0  0  0  0  0  0  0  0  0  0
   12.8370   -1.9700   22.2520 C   0  0  0  0  0  0  0  0  0  0  0  0
    4.4940    1.9590   18.6090 C   0  0  0  0  0  0  0  0  0  0  0  0
    6.4310    0.6900   17.7470 N   0  0  0  0  0  0  0  0  0  0  0  0
   10.8600    1.3970   23.9080 C   0  0  0  0  0  0  0  0  0  0  0  0
   12.7350    0.4080   22.9260 C   0  0  0  0  0  0  0  0  0  0  0  0
   10.0490   -5.4080   25.5730 C   0  0  0  0  0  0  0  0  0  0  0  0
    8.2400   -3.6230   26.1590 S   0  0  0  0  0  0  0  0  0  0  0  0
    5.4100    1.5180   17.5550 C   0  0  0  0  0  0  0  0  0  0  0  0
   12.1090    1.5680   23.4690 C   0  0  0  0  0  0  0  0  0  0  0  0
    9.2140   -6.0270   26.4230 C   0  0  0  0  0  0  0  0  0  0  0  0
    8.1230   -5.1710   26.8830 C   0  0  0  0  0  0  0  0  0  0  0  0
    6.8770   -5.5860   27.9810 Cl  0  0  0  0  0  0  0  0  0  0  0  0
  1  2  1  0
  2  3  1  0
  3  4  1  0
  4  5  1  0
  6  5  1  6
  6  7  1  0
  6  8  1  0
  7  8  1  6
  7  9  1  0
  9 10  1  6
  9 11  1  0
 11 12  1  0
 10 13  1  0
 11 14  1  0
 12 15  1  0
 12 16  2  0
 14 17  1  0
 13 18  1  0
 13 19  1  0
 14 19  1  6
 17 20  1  1
 18 21  1  1
 17 22  1  0
 18 23  1  0
 20 24  1  0
 22 25  2  0
 22 26  1  0
 23 27  2  0
 23 28  1  0
 21 29  1  0
 24 30  1  1
 24 31  1  0
 25 31  1  0
 28 32  1  0
 25 33  1  0
 26 34  2  0
 27 35  1  0
 28 36  2  0
 29 37  2  0
 29 38  1  0
 33 39  2  0
 34 39  1  0
 35 40  2  0
 36 40  1  0
 37 41  1  0
 38 42  1  0
 41 42  2  0
 42 43  1  0
M  END
