x0831_0-x0771_1-x1334_1-x0434_2
     RDKit          3D

 37 40  0  0  0  0  0  0  0  0999 V2000
    5.0920   -5.6010   25.3430 S   0  0  0  0  0  0  0  0  0  0  0  0
    5.6880   -5.4690   23.6540 C   0  0  0  0  0  0  0  0  0  0  0  0
    5.7060   -4.0820   22.9660 C   0  0  0  0  0  0  0  0  0  0  0  0
    4.4390   -6.8920   25.4870 O   0  0  0  0  0  0  0  0  0  0  0  0
    6.1540   -5.2700   26.2580 O   0  0  0  0  0  0  0  0  0  0  0  0
    3.8220   -4.3700   25.6210 C   0  0  0  0  0  0  0  0  0  0  0  0
    2.3720   -4.7340   25.3510 C   0  0  0  0  0  0  0  0  0  0  0  0
    4.0770   -3.0580   26.0870 C   0  0  0  0  0  0  0  0  0  0  0  0
    1.8640   -6.0590   24.8510 C   0  0  0  0  0  0  0  0  0  0  0  0
    1.2930   -3.7030   25.5930 C   0  0  0  0  0  0  0  0  0  0  0  0
    3.0630   -2.0990   26.3120 C   0  0  0  0  0  0  0  0  0  0  0  0
    7.0370   -3.8030   22.1930 C   0  0  1  0  0  0  0  0  0  0  0  0
    1.5940   -2.4290   26.0580 C   0  0  0  0  0  0  0  0  0  0  0  0
    6.8190   -2.8900   21.1790 N   0  0  0  0  0  0  0  0  0  0  0  0
    8.0050   -3.5550   23.1830 C   0  0  0  0  0  0  0  0  0  0  0  0
    0.5150   -1.4220   26.3070 C   0  0  0  0  0  0  0  0  0  0  0  0
    6.4170   -3.4420   19.9730 C   0  0  0  0  0  0  0  0  0  0  0  0
    8.7650   -2.3070   23.0640 N   0  0  0  0  0  0  0  0  0  0  0  0
    7.6880   -1.8510   21.0290 C   0  0  1  0  0  0  0  0  0  0  0  0
    7.3380   -3.0680   18.8080 C   0  0  0  0  0  0  0  0  0  0  0  0
    5.4460   -4.1880   19.7790 O   0  0  0  0  0  0  0  0  0  0  0  0
   10.1340   -2.4390   23.5750 C   0  0  0  0  0  0  0  0  0  0  0  0
    6.9420   -0.6680   21.3090 N   0  0  0  0  0  0  0  0  0  0  0  0
    8.9130   -1.8760   21.6830 C   0  0  0  0  0  0  0  0  0  0  0  0
   10.8480   -1.1110   23.5710 C   0  0  0  0  0  0  0  0  0  0  0  0
    6.3140    0.0580   20.2090 C   0  0  0  0  0  0  0  0  0  0  0  0
   10.3220    0.0170   24.1850 C   0  0  0  0  0  0  0  0  0  0  0  0
   12.0780   -0.9420   22.9370 C   0  0  0  0  0  0  0  0  0  0  0  0
    6.8390    0.0640   18.9240 C   0  0  0  0  0  0  0  0  0  0  0  0
    5.0540    0.8820   20.2480 C   0  0  0  0  0  0  0  0  0  0  0  0
   12.8090   -2.0250   22.2080 C   0  0  0  0  0  0  0  0  0  0  0  0
   10.9330    1.2630   24.1920 C   0  0  0  0  0  0  0  0  0  0  0  0
   12.7020    0.2890   22.9450 C   0  0  0  0  0  0  0  0  0  0  0  0
    6.3710    0.6840   17.8230 N   0  0  0  0  0  0  0  0  0  0  0  0
    4.5790    1.5160   19.1000 C   0  0  0  0  0  0  0  0  0  0  0  0
   12.1150    1.3860   23.5750 C   0  0  0  0  0  0  0  0  0  0  0  0
    5.2470    1.3930   17.9570 C   0  0  0  0  0  0  0  0  0  0  0  0
  1  2  1  0
  2  3  1  0
  1  4  2  0
  1  5  2  0
  1  6  1  0
  6  7  2  0
  6  8  1  0
  7  9  1  0
  7 10  1  0
  8 11  2  0
 12  3  1  1
 10 13  2  0
 11 13  1  0
 12 14  1  0
 12 15  1  0
 13 16  1  0
 14 17  1  0
 15 18  1  0
 14 19  1  0
 17 20  1  0
 17 21  2  0
 18 22  1  0
 19 23  1  1
 18 24  1  0
 19 24  1  0
 22 25  1  0
 23 26  1  0
 25 27  2  0
 25 28  1  0
 26 29  2  0
 26 30  1  0
 28 31  1  0
 27 32  1  0
 28 33  2  0
 29 34  1  0
 30 35  2  0
 32 36  2  0
 33 36  1  0
 34 37  2  0
 35 37  1  0
M  END
