x0831_0-x0981_1-x0434_2-x1412_1-x0689_0
     RDKit          3D

 43 46  0  0  0  0  0  0  0  0999 V2000
    4.4130   -5.8870   23.6640 C   0  0  0  0  0  0  0  0  0  0  0  0
    2.9040   -6.0960   23.5230 C   0  0  1  0  0  0  0  0  0  0  0  0
    2.6200   -7.1880   22.5800 N   0  0  0  0  0  0  0  0  0  0  0  0
    5.1590   -4.6220   24.1270 C   0  0  0  0  0  0  0  0  0  0  0  0
    2.1460   -6.5330   24.7470 C   0  0  1  0  0  0  0  0  0  0  0  0
    5.5580   -4.4540   25.3730 O   0  0  0  0  0  0  0  0  0  0  0  0
    5.4580   -3.5620   23.0490 C   0  0  0  0  0  0  0  0  0  0  0  0
    1.2750   -7.4510   22.0690 C   0  0  0  0  0  0  0  0  0  0  0  0
    2.8970   -7.6700   25.3660 C   0  0  0  0  0  0  0  0  0  0  0  0
    6.7090   -3.6970   22.3170 C   0  0  1  0  0  0  0  0  0  0  0  0
    1.5580   -5.4370   25.6830 C   0  0  0  0  0  0  0  0  0  0  0  0
    1.1380   -8.7550   21.3300 C   0  0  0  0  0  0  0  0  0  0  0  0
    0.3420   -6.6660   22.2070 O   0  0  0  0  0  0  0  0  0  0  0  0
    2.4700   -8.2100   26.6520 N   0  0  0  0  0  0  0  0  0  0  0  0
    3.8560   -8.1510   24.7750 O   0  0  0  0  0  0  0  0  0  0  0  0
    6.6600   -2.7870   21.1680 N   0  0  0  0  0  0  0  0  0  0  0  0
    8.1190   -3.7220   23.0100 C   0  0  0  0  0  0  0  0  0  0  0  0
    2.1710   -4.1800   25.6950 C   0  0  0  0  0  0  0  0  0  0  0  0
    6.3860   -3.3930   19.9470 C   0  0  0  0  0  0  0  0  0  0  0  0
    8.6860   -2.3780   23.1650 N   0  0  0  0  0  0  0  0  0  0  0  0
    7.6370   -1.7030   21.0850 C   0  0  1  0  0  0  0  0  0  0  0  0
    3.5130   -3.9420   25.9050 C   0  0  0  0  0  0  0  0  0  0  0  0
    1.4890   -2.8610   25.5020 C   0  0  0  0  0  0  0  0  0  0  0  0
    7.3300   -3.0660   18.8010 C   0  0  0  0  0  0  0  0  0  0  0  0
    5.4410   -4.1900   19.7860 O   0  0  0  0  0  0  0  0  0  0  0  0
   10.0500   -2.4610   23.6930 C   0  0  0  0  0  0  0  0  0  0  0  0
    6.9580   -0.5680   21.3030 N   0  0  0  0  0  0  0  0  0  0  0  0
    8.8400   -1.8070   21.8260 C   0  0  0  0  0  0  0  0  0  0  0  0
    3.9450   -2.2760   25.8770 S   0  0  0  0  0  0  0  0  0  0  0  0
    2.3570   -1.7850   25.5860 C   0  0  0  0  0  0  0  0  0  0  0  0
   10.8320   -1.1480   23.6000 C   0  0  0  0  0  0  0  0  0  0  0  0
    6.3630    0.0820   20.2140 C   0  0  0  0  0  0  0  0  0  0  0  0
   10.2140   -0.0790   24.2380 C   0  0  0  0  0  0  0  0  0  0  0  0
   12.0560   -0.9760   22.9400 C   0  0  0  0  0  0  0  0  0  0  0  0
    6.9370    0.0050   18.9480 C   0  0  0  0  0  0  0  0  0  0  0  0
    5.1890    0.8300   20.3200 C   0  0  0  0  0  0  0  0  0  0  0  0
   12.7710   -2.0740   22.2250 C   0  0  0  0  0  0  0  0  0  0  0  0
   10.8120    1.2240   24.2310 C   0  0  0  0  0  0  0  0  0  0  0  0
   12.6370    0.2720   22.9420 C   0  0  0  0  0  0  0  0  0  0  0  0
    6.4160    0.6470   17.7560 N   0  0  0  0  0  0  0  0  0  0  0  0
    4.6500    1.4630   19.1910 C   0  0  0  0  0  0  0  0  0  0  0  0
   12.0230    1.3470   23.5720 C   0  0  0  0  0  0  0  0  0  0  0  0
    5.1800    1.4310   17.9110 C   0  0  0  0  0  0  0  0  0  0  0  0
  2  1  1  1
  2  3  1  0
  1  4  1  0
  2  5  1  0
  4  6  2  0
  4  7  1  0
  3  8  1  0
  5  9  1  0
 10  7  1  1
  5 11  1  1
  8 12  1  0
  8 13  2  0
  9 14  1  0
  9 15  2  0
 10 16  1  0
 10 17  1  0
 11 18  1  0
 16 19  1  0
 17 20  1  0
 16 21  1  0
 18 22  2  0
 18 23  1  0
 19 24  1  0
 19 25  2  0
 20 26  1  0
 21 27  1  1
 20 28  1  0
 21 28  1  0
 22 29  1  0
 23 30  2  0
 29 30  1  0
 26 31  1  0
 27 32  1  0
 31 33  2  0
 31 34  1  0
 32 35  2  0
 32 36  1  0
 34 37  1  0
 33 38  1  0
 34 39  2  0
 35 40  1  0
 36 41  2  0
 38 42  2  0
 39 42  1  0
 40 43  2  0
 41 43  1  0
M  END
