x0831_0-x1385_1-x1334_1-x0734_0-x1374_1
     RDKit          3D

 35 40  0  0  0  0  0  0  0  0999 V2000
    6.2890   -3.2420   19.8800 C   0  0  0  0  0  0  0  0  0  0  0  0
    7.2880   -2.9890   18.7740 C   0  0  0  0  0  0  0  0  0  0  0  0
    5.3640   -4.0400   19.6840 O   0  0  0  0  0  0  0  0  0  0  0  0
    6.4660   -2.5850   21.0850 N   0  0  0  0  0  0  0  0  0  0  0  0
    6.0700   -3.0290   22.4360 C   0  0  0  0  0  0  0  0  0  0  0  0
    7.4240   -1.4890   21.0920 C   0  0  0  0  0  0  0  0  0  0  0  0
    7.3140   -3.3960   23.3240 C   0  0  2  0  0  0  0  0  0  0  0  0
    8.6420   -1.8990   21.8980 C   0  0  0  0  0  0  0  0  0  0  0  0
    6.5030   -3.6120   24.7120 C   0  0  1  0  0  0  0  0  0  0  0  0
    8.3410   -2.2570   23.2810 N   0  0  0  0  0  0  0  0  0  0  0  0
    6.0420   -4.6230   25.9270 C   0  0  2  0  0  0  0  0  0  0  0  0
    9.6860   -2.4130   23.8900 C   0  0  0  0  0  0  0  0  0  0  0  0
    7.8400   -3.7170   25.5230 C   0  0  2  0  0  0  0  0  0  0  0  0
    5.7140   -4.7750   23.9800 C   0  0  0  0  0  0  0  0  0  0  0  0
    4.6780   -4.7190   26.0260 N   0  0  2  0  0  0  0  0  0  0  0  0
    8.9870   -4.3680   25.1770 C   0  0  0  0  0  0  0  0  0  0  0  0
    6.7640   -4.4270   27.2180 C   0  0  2  0  0  0  0  0  0  0  0  0
   10.5750   -1.1390   23.7190 C   0  0  0  0  0  0  0  0  0  0  0  0
    5.8390   -5.3380   22.6970 C   0  0  0  0  0  0  0  0  0  0  0  0
    4.7060   -5.3670   24.7810 C   0  0  0  0  0  0  0  0  0  0  0  0
    7.6840   -4.9300   26.2000 C   0  0  0  0  0  0  0  0  0  0  0  0
    3.9660   -3.5880   26.0390 O   0  0  0  0  0  0  0  0  0  0  0  0
    9.4560   -5.3360   26.1490 C   0  0  0  0  0  0  0  0  0  0  0  0
    7.5520   -5.2370   27.9820 C   0  0  0  0  0  0  0  0  0  0  0  0
   10.0770    0.0680   24.3540 C   0  0  0  0  0  0  0  0  0  0  0  0
   11.8150   -1.1060   22.9870 C   0  0  0  0  0  0  0  0  0  0  0  0
    4.0410   -6.6400   23.9870 S   0  0  0  0  0  0  0  0  0  0  0  0
    5.2580   -6.6010   22.6570 C   0  0  0  0  0  0  0  0  0  0  0  0
   12.4400   -2.2630   22.2820 C   0  0  0  0  0  0  0  0  0  0  0  0
    2.7560   -6.4380   23.3520 O   0  0  0  0  0  0  0  0  0  0  0  0
    4.1920   -7.8340   24.7950 O   0  0  0  0  0  0  0  0  0  0  0  0
    8.8190   -5.6380   27.4430 C   0  0  0  0  0  0  0  0  0  0  0  0
   10.8050    1.2380   24.2440 C   0  0  0  0  0  0  0  0  0  0  0  0
   12.5910    0.0840   22.8680 C   0  0  0  0  0  0  0  0  0  0  0  0
   12.0080    1.2860   23.5480 C   0  0  0  0  0  0  0  0  0  0  0  0
  1  2  1  0
  1  3  2  0
  1  4  1  0
  4  5  1  0
  4  6  1  0
  7  5  1  6
  6  8  1  0
  7  9  1  0
  7 10  1  0
  8 10  1  0
  9 11  1  0
 10 12  1  0
  9 13  1  0
  9 14  1  1
 11 15  1  1
 13 16  1  6
 11 17  1  0
 12 18  1  0
 14 19  1  0
 14 20  2  0
 15 20  1  0
 13 21  1  0
 17 21  1  0
 15 22  1  6
 16 23  2  0
 17 24  1  1
 18 25  2  0
 18 26  1  0
 20 27  1  0
 19 28  1  0
 27 28  1  0
 26 29  1  0
 27 30  1  0
 27 31  1  0
 23 32  1  0
 24 32  2  0
 25 33  1  0
 26 34  2  0
 33 35  2  0
 34 35  1  0
M  CHG  2  15   1  22  -1
M  END
