x0831_0-x0770_1-x0397_0-x1334_1-x0692_1-x1385_1-x1334_0-x1412_1-x1418_1
     RDKit          3D

 27 30  0  0  0  0  0  0  0  0999 V2000
    6.1610   -3.3010   19.9520 C   0  0  0  0  0  0  0  0  0  0  0  0
    7.1540   -2.9900   18.8560 C   0  0  0  0  0  0  0  0  0  0  0  0
    5.3400   -4.2170   19.7740 O   0  0  0  0  0  0  0  0  0  0  0  0
    6.2080   -2.5770   21.1460 N   0  0  0  0  0  0  0  0  0  0  0  0
    6.8110   -1.2440   21.2310 C   0  0  0  0  0  0  0  0  0  0  0  0
    6.1370   -3.2430   22.4540 C   0  0  2  0  0  0  0  0  0  0  0  0
    8.0900   -1.3830   21.5930 C   0  0  0  0  0  0  0  0  0  0  0  0
    7.5030   -3.2400   23.1100 C   0  0  0  0  0  0  0  0  0  0  0  0
    5.4650   -4.6040   22.4240 C   0  0  0  0  0  0  0  0  0  0  0  0
    8.2720   -2.0010   22.9300 N   0  0  0  0  0  0  0  0  0  0  0  0
    6.0240   -5.7190   23.1800 C   0  0  0  0  0  0  0  0  0  0  0  0
    6.0370   -6.0200   21.7610 C   0  0  0  0  0  0  0  0  0  0  0  0
    9.5820   -2.2650   23.1130 C   0  0  2  0  0  0  0  0  0  0  0  0
    9.8520   -3.5830   23.7340 C   0  0  0  0  0  0  0  0  0  0  0  0
   10.5200   -1.0510   23.2340 C   0  0  0  0  0  0  0  0  0  0  0  0
   10.0980    0.0820   23.9360 C   0  0  0  0  0  0  0  0  0  0  0  0
   11.9540   -0.9150   22.6260 C   0  0  0  0  0  0  0  0  0  0  0  0
    9.3090   -4.2540   24.9620 C   0  0  0  0  0  0  0  0  0  0  0  0
   12.7070   -1.9180   21.8250 C   0  0  0  0  0  0  0  0  0  0  0  0
   10.7910    1.2580   24.1190 C   0  0  0  0  0  0  0  0  0  0  0  0
   12.7350    0.4490   22.8570 C   0  0  0  0  0  0  0  0  0  0  0  0
    9.7830   -5.5300   25.3510 C   0  0  0  0  0  0  0  0  0  0  0  0
    8.0970   -3.7180   26.0920 S   0  0  0  0  0  0  0  0  0  0  0  0
   12.1890    1.5020   23.5610 C   0  0  0  0  0  0  0  0  0  0  0  0
    9.2190   -5.9910   26.4290 C   0  0  0  0  0  0  0  0  0  0  0  0
    8.2400   -5.1610   27.0240 C   0  0  0  0  0  0  0  0  0  0  0  0
    7.3120   -5.4650   28.4250 Cl  0  0  0  0  0  0  0  0  0  0  0  0
  1  2  1  0
  1  3  2  0
  1  4  1  0
  4  5  1  0
  4  6  1  0
  5  7  1  0
  6  8  1  0
  6  9  1  6
  7 10  1  0
  8 10  1  0
  9 11  1  0
  9 12  1  0
 11 12  1  0
 10 13  1  0
 13 14  1  1
 13 15  1  0
 15 16  2  0
 15 17  1  0
 14 18  1  0
 17 19  1  0
 16 20  1  0
 17 21  2  0
 18 22  2  0
 18 23  1  0
 20 24  2  0
 21 24  1  0
 22 25  1  0
 23 26  1  0
 25 26  2  0
 26 27  1  0
M  END
