x0831_0-x1385_1-x0770_1-x0397_0-x1412_0
     RDKit          3D

 28 31  0  0  0  0  0  0  0  0999 V2000
    6.3140   -3.2620   19.8600 C   0  0  0  0  0  0  0  0  0  0  0  0
    7.3080   -2.9920   18.7490 C   0  0  0  0  0  0  0  0  0  0  0  0
    5.3230   -3.9640   19.6280 O   0  0  0  0  0  0  0  0  0  0  0  0
    6.5900   -2.7690   21.1270 N   0  0  0  0  0  0  0  0  0  0  0  0
    7.0910   -3.7330   22.1000 C   0  0  1  0  0  0  0  0  0  0  0  0
    7.3120   -1.4740   21.1650 C   0  0  0  0  0  0  0  0  0  0  0  0
    7.8240   -3.1710   23.3450 C   0  0  0  0  0  0  0  0  0  0  0  0
    8.7670   -1.6990   21.6070 C   0  0  0  0  0  0  0  0  0  0  0  0
    5.9620   -4.6670   22.5160 C   0  0  0  0  0  0  0  0  0  0  0  0
    8.7520   -2.0290   23.0480 N   0  0  0  0  0  0  0  0  0  0  0  0
    6.1840   -5.7680   23.2480 C   0  0  0  0  0  0  0  0  0  0  0  0
    5.9760   -6.2200   22.0410 C   0  0  0  0  0  0  0  0  0  0  0  0
   10.1310   -2.1380   23.5500 C   0  0  2  0  0  0  0  0  0  0  0  0
   10.0930   -2.3650   25.0270 C   0  0  0  0  0  0  0  0  0  0  0  0
   10.8600   -0.8610   23.4940 C   0  0  0  0  0  0  0  0  0  0  0  0
    8.6900   -2.6210   25.5380 C   0  0  0  0  0  0  0  0  0  0  0  0
   10.3880    0.3190   24.0140 C   0  0  0  0  0  0  0  0  0  0  0  0
   12.2330   -0.8030   22.8320 C   0  0  0  0  0  0  0  0  0  0  0  0
   12.8750   -2.0040   22.2130 C   0  0  0  0  0  0  0  0  0  0  0  0
    7.7570   -1.8470   25.3570 O   0  0  0  0  0  0  0  0  0  0  0  0
   10.9990    1.5620   24.0080 C   0  0  0  0  0  0  0  0  0  0  0  0
   12.9860    0.4820   22.7800 C   0  0  0  0  0  0  0  0  0  0  0  0
    8.6120   -3.9070   26.2990 C   0  0  0  0  0  0  0  0  0  0  0  0
   12.3390    1.6730   23.3780 C   0  0  0  0  0  0  0  0  0  0  0  0
    9.4330   -4.9300   25.9610 C   0  0  0  0  0  0  0  0  0  0  0  0
    7.6010   -4.2980   27.6170 S   0  0  0  0  0  0  0  0  0  0  0  0
    9.2970   -6.0560   26.7220 C   0  0  0  0  0  0  0  0  0  0  0  0
    8.3160   -5.8560   27.6910 C   0  0  0  0  0  0  0  0  0  0  0  0
  1  2  1  0
  1  3  2  0
  1  4  1  0
  4  5  1  0
  4  6  1  0
  5  7  1  0
  6  8  1  0
  5  9  1  1
  7 10  1  0
  8 10  1  0
  9 11  1  0
  9 12  1  0
 11 12  1  0
 10 13  1  0
 13 14  1  1
 13 15  1  0
 14 16  1  0
 15 17  2  0
 15 18  1  0
 18 19  1  0
 16 20  2  0
 17 21  1  0
 18 22  2  0
 16 23  1  0
 21 24  2  0
 22 24  1  0
 23 25  2  0
 23 26  1  0
 25 27  1  0
 26 28  1  0
 27 28  2  0
M  END
