x0831_0-x1334_1-x0434_2-x1412_0-x0692_1
     RDKit          3D

 32 35  0  0  0  0  0  0  0  0999 V2000
    6.3910   -3.3750   19.8800 C   0  0  0  0  0  0  0  0  0  0  0  0
    7.3080   -3.0380   18.7130 C   0  0  0  0  0  0  0  0  0  0  0  0
    5.4530   -4.1800   19.7800 O   0  0  0  0  0  0  0  0  0  0  0  0
    6.7490   -2.6940   21.0460 N   0  0  0  0  0  0  0  0  0  0  0  0
    7.6350   -1.5610   20.8870 C   0  0  1  0  0  0  0  0  0  0  0  0
    6.6940   -3.2020   22.4410 C   0  0  0  0  0  0  0  0  0  0  0  0
    6.9230   -0.3480   21.2070 N   0  0  0  0  0  0  0  0  0  0  0  0
    8.9520   -1.6740   21.6170 C   0  0  0  0  0  0  0  0  0  0  0  0
    8.0220   -3.4290   22.8970 C   0  0  0  0  0  0  0  0  0  0  0  0
    8.7860   -2.1600   22.9690 N   0  0  0  0  0  0  0  0  0  0  0  0
    6.3100    0.2880   20.0310 C   0  0  0  0  0  0  0  0  0  0  0  0
   10.1310   -2.2020   23.5600 C   0  0  2  0  0  0  0  0  0  0  0  0
    6.8800    0.1570   18.8390 C   0  0  0  0  0  0  0  0  0  0  0  0
    5.1490    1.0050   20.2180 C   0  0  0  0  0  0  0  0  0  0  0  0
   10.0910   -2.5340   25.0210 C   0  0  0  0  0  0  0  0  0  0  0  0
   10.8510   -0.9000   23.5110 C   0  0  0  0  0  0  0  0  0  0  0  0
    6.3330    0.7700   17.6260 N   0  0  0  0  0  0  0  0  0  0  0  0
    4.6090    1.5920   19.0870 C   0  0  0  0  0  0  0  0  0  0  0  0
    8.6990   -2.7130   25.5480 C   0  0  0  0  0  0  0  0  0  0  0  0
   10.3050    0.2400   24.1130 C   0  0  0  0  0  0  0  0  0  0  0  0
   12.1120   -0.8260   22.8500 C   0  0  0  0  0  0  0  0  0  0  0  0
    5.2010    1.4700   17.8320 C   0  0  0  0  0  0  0  0  0  0  0  0
   12.7590   -1.9980   22.1780 C   0  0  0  0  0  0  0  0  0  0  0  0
    7.7030   -2.0080   25.4230 O   0  0  0  0  0  0  0  0  0  0  0  0
   10.9740    1.4420   24.0690 C   0  0  0  0  0  0  0  0  0  0  0  0
   12.7670    0.3810   22.8250 C   0  0  0  0  0  0  0  0  0  0  0  0
    8.6030   -3.9680   26.3450 C   0  0  0  0  0  0  0  0  0  0  0  0
   12.3140    1.5460   23.3770 C   0  0  0  0  0  0  0  0  0  0  0  0
    9.4590   -5.0100   25.9300 C   0  0  0  0  0  0  0  0  0  0  0  0
    7.6180   -4.3210   27.7000 S   0  0  0  0  0  0  0  0  0  0  0  0
    9.2720   -6.0660   26.7450 C   0  0  0  0  0  0  0  0  0  0  0  0
    8.3290   -5.8690   27.7450 C   0  0  0  0  0  0  0  0  0  0  0  0
  1  2  1  0
  1  3  2  0
  1  4  1  0
  4  5  1  0
  4  6  1  0
  5  7  1  1
  5  8  1  0
  6  9  1  0
  8 10  1  0
  9 10  1  0
  7 11  1  0
 10 12  1  0
 11 13  2  0
 11 14  1  0
 12 15  1  1
 12 16  1  0
 13 17  1  0
 14 18  2  0
 15 19  1  0
 16 20  2  0
 16 21  1  0
 17 22  2  0
 18 22  1  0
 21 23  1  0
 19 24  2  0
 20 25  1  0
 21 26  2  0
 19 27  1  0
 25 28  2  0
 26 28  1  0
 27 29  2  0
 27 30  1  0
 29 31  1  0
 30 32  1  0
 31 32  2  0
M  END
