x0831_0-x1418_1-x0770_1-x0397_0-x1412_1-x1385_1-x1334_0-x0692_1
     RDKit          3D

 27 30  0  0  0  0  0  0  0  0999 V2000
    6.3300   -3.2670   19.8490 C   0  0  0  0  0  0  0  0  0  0  0  0
    7.3540   -2.9980   18.7480 C   0  0  0  0  0  0  0  0  0  0  0  0
    5.4240   -4.0910   19.6940 O   0  0  0  0  0  0  0  0  0  0  0  0
    6.4440   -2.5860   21.0400 N   0  0  0  0  0  0  0  0  0  0  0  0
    6.4600   -3.2380   22.3510 C   0  0  2  0  0  0  0  0  0  0  0  0
    7.3010   -1.3790   20.9740 C   0  0  0  0  0  0  0  0  0  0  0  0
    7.8940   -3.4880   22.8570 C   0  0  0  0  0  0  0  0  0  0  0  0
    8.7250   -1.6780   21.5120 C   0  0  0  0  0  0  0  0  0  0  0  0
    5.6460   -4.5780   22.3110 C   0  0  0  0  0  0  0  0  0  0  0  0
    8.7070   -2.2570   22.8320 N   0  0  0  0  0  0  0  0  0  0  0  0
    6.2540   -5.4500   23.2880 C   0  0  0  0  0  0  0  0  0  0  0  0
    6.1830   -5.9100   21.8630 C   0  0  0  0  0  0  0  0  0  0  0  0
   10.0340   -2.4170   23.3950 C   0  0  2  0  0  0  0  0  0  0  0  0
    9.8330   -2.6290   24.8490 C   0  0  0  0  0  0  0  0  0  0  0  0
   10.8530   -1.0970   23.3530 C   0  0  0  0  0  0  0  0  0  0  0  0
   10.2330    0.0420   23.9120 C   0  0  0  0  0  0  0  0  0  0  0  0
   12.1460   -0.9410   22.8210 C   0  0  0  0  0  0  0  0  0  0  0  0
    9.4440   -3.9050   25.5250 C   0  0  0  0  0  0  0  0  0  0  0  0
   12.9160   -2.0440   22.1810 C   0  0  0  0  0  0  0  0  0  0  0  0
   10.8730    1.2810   23.9520 C   0  0  0  0  0  0  0  0  0  0  0  0
   12.7720    0.3110   22.8740 C   0  0  0  0  0  0  0  0  0  0  0  0
    9.9830   -5.2940   25.5210 C   0  0  0  0  0  0  0  0  0  0  0  0
    8.0990   -3.8800   26.6170 S   0  0  0  0  0  0  0  0  0  0  0  0
   12.1450    1.4120   23.4330 C   0  0  0  0  0  0  0  0  0  0  0  0
    9.2600   -6.2260   26.4600 C   0  0  0  0  0  0  0  0  0  0  0  0
    8.1600   -5.5000   27.1430 C   0  0  0  0  0  0  0  0  0  0  0  0
    7.0380   -6.0530   28.3080 Cl  0  0  0  0  0  0  0  0  0  0  0  0
  1  2  1  0
  1  3  2  0
  1  4  1  0
  4  5  1  0
  4  6  1  0
  5  7  1  0
  6  8  1  0
  5  9  1  6
  7 10  1  0
  8 10  1  0
  9 11  1  0
  9 12  1  0
 11 12  1  0
 10 13  1  0
 13 14  1  1
 13 15  1  0
 15 16  2  0
 15 17  1  0
 14 18  1  0
 17 19  1  0
 16 20  1  0
 17 21  2  0
 18 22  2  0
 18 23  1  0
 20 24  2  0
 21 24  1  0
 22 25  1  0
 23 26  1  0
 25 26  2  0
 26 27  1  0
M  END
