x0831_0-x1385_1-x0831_1-x0397_0-x0769_1
     RDKit          3D

 31 34  0  0  0  0  0  0  0  0999 V2000
    6.3420   -3.2610   19.8940 C   0  0  0  0  0  0  0  0  0  0  0  0
    7.2980   -2.9750   18.7400 C   0  0  0  0  0  0  0  0  0  0  0  0
    5.3810   -4.0280   19.6920 O   0  0  0  0  0  0  0  0  0  0  0  0
    6.5960   -2.6880   21.1480 N   0  0  0  0  0  0  0  0  0  0  0  0
    6.5140   -3.4560   22.4020 C   0  0  2  0  0  0  0  0  0  0  0  0
    7.4510   -1.4880   21.2080 C   0  0  0  0  0  0  0  0  0  0  0  0
    7.7980   -3.4600   23.2990 C   0  0  0  0  0  0  0  0  0  0  0  0
    8.6940   -1.8280   21.7210 C   0  0  0  0  0  0  0  0  0  0  0  0
    6.1980   -4.9010   22.0310 C   0  0  2  0  0  0  0  0  0  0  0  0
    8.6650   -2.2740   23.1120 N   0  0  0  0  0  0  0  0  0  0  0  0
    5.5460   -5.7420   22.7840 C   0  0  1  0  0  0  0  0  0  0  0  0
    6.8040   -6.0880   23.0110 C   0  0  0  0  0  0  0  0  0  0  0  0
    4.3980   -5.3780   23.6870 C   0  0  0  0  0  0  0  0  0  0  0  0
    9.9820   -2.3880   23.5220 C   0  0  0  0  0  0  0  0  0  0  0  0
    4.6340   -5.2740   25.4400 S   0  0  0  0  0  0  0  0  0  0  0  0
   10.7260   -1.0810   23.5620 C   0  0  0  0  0  0  0  0  0  0  0  0
    5.9980   -5.0610   25.8600 O   0  0  0  0  0  0  0  0  0  0  0  0
    3.8600   -6.4240   25.8570 O   0  0  0  0  0  0  0  0  0  0  0  0
    3.6920   -3.8850   25.7310 C   0  0  0  0  0  0  0  0  0  0  0  0
   10.1870    0.0690   24.2210 C   0  0  0  0  0  0  0  0  0  0  0  0
   11.9970   -0.9730   22.9180 C   0  0  0  0  0  0  0  0  0  0  0  0
   12.6290   -2.1260   22.2000 C   0  0  0  0  0  0  0  0  0  0  0  0
    2.2890   -4.0160   25.6430 C   0  0  0  0  0  0  0  0  0  0  0  0
    4.3030   -2.6330   26.0440 C   0  0  0  0  0  0  0  0  0  0  0  0
   10.9500    1.2020   24.1680 C   0  0  0  0  0  0  0  0  0  0  0  0
   12.7070    0.2320   22.9290 C   0  0  0  0  0  0  0  0  0  0  0  0
    5.6300   -2.4930   26.1350 F   0  0  0  0  0  0  0  0  0  0  0  0
    1.3470   -2.7930   25.8830 C   0  0  0  0  0  0  0  0  0  0  0  0
    3.4280   -1.3960   26.2890 C   0  0  0  0  0  0  0  0  0  0  0  0
   12.1790    1.3360   23.5550 C   0  0  0  0  0  0  0  0  0  0  0  0
    1.9090   -1.5600   26.1880 C   0  0  0  0  0  0  0  0  0  0  0  0
  1  2  1  0
  1  3  2  0
  1  4  1  0
  4  5  1  0
  4  6  1  0
  5  7  1  6
  6  8  1  0
  5  9  1  0
  7 10  1  0
  8 10  1  0
  9 11  1  0
  9 12  1  1
 11 12  1  0
 11 13  1  1
 10 14  1  0
 15 13  1  0
 14 16  1  0
 15 17  2  0
 15 18  2  0
 15 19  1  0
 16 20  2  0
 16 21  1  0
 21 22  1  0
 19 23  2  0
 19 24  1  0
 20 25  1  0
 21 26  2  0
 24 27  1  0
 23 28  1  0
 24 29  2  0
 25 30  2  0
 26 30  1  0
 28 31  2  0
 29 31  1  0
M  END
