x0831_0-x0831_1-x1374_1-x0770_1-x0397_0
     RDKit          3D

 26 28  0  0  0  0  0  0  0  0999 V2000
    2.0560   -7.0900   23.9110 O   0  0  0  0  0  0  0  0  0  0  0  0
    2.4930   -7.9480   24.9470 C   0  0  0  0  0  0  0  0  0  0  0  0
    3.9050   -7.9570   24.9360 O   0  0  0  0  0  0  0  0  0  0  0  0
    4.4480   -7.1910   23.8700 C   0  0  0  0  0  0  0  0  0  0  0  0
    5.1040   -6.0410   24.3830 C   0  0  0  0  0  0  0  0  0  0  0  0
    6.2420   -5.6060   23.5210 C   0  0  2  0  0  0  0  0  0  0  0  0
    6.0410   -4.6120   22.4830 C   0  0  2  0  0  0  0  0  0  0  0  0
    6.2970   -6.1570   22.2500 C   0  0  0  0  0  0  0  0  0  0  0  0
    7.0400   -3.5500   22.1740 C   0  0  1  0  0  0  0  0  0  0  0  0
    6.4330   -2.6910   21.1660 N   0  0  0  0  0  0  0  0  0  0  0  0
    7.5690   -2.8710   23.3120 C   0  0  0  0  0  0  0  0  0  0  0  0
    6.2690   -3.2920   19.9210 C   0  0  0  0  0  0  0  0  0  0  0  0
    8.5760   -1.8200   23.0560 N   0  0  0  0  0  0  0  0  0  0  0  0
    6.2650   -1.2580   21.4050 C   0  0  0  0  0  0  0  0  0  0  0  0
    5.3680   -4.1230   19.7230 O   0  0  0  0  0  0  0  0  0  0  0  0
    7.2410   -2.9860   18.7830 C   0  0  0  0  0  0  0  0  0  0  0  0
    9.9040   -2.2150   23.4800 C   0  0  0  0  0  0  0  0  0  0  0  0
    8.6530   -1.4280   21.6370 C   0  0  0  0  0  0  0  0  0  0  0  0
    7.5380   -0.4550   21.2250 C   0  0  0  0  0  0  0  0  0  0  0  0
   10.8040   -1.0040   23.4570 C   0  0  0  0  0  0  0  0  0  0  0  0
   10.2450    0.2950   24.1120 C   0  0  0  0  0  0  0  0  0  0  0  0
   12.0850   -0.9720   22.8760 C   0  0  0  0  0  0  0  0  0  0  0  0
   12.7400   -2.1430   22.2050 C   0  0  0  0  0  0  0  0  0  0  0  0
   10.9840    1.4600   24.1170 C   0  0  0  0  0  0  0  0  0  0  0  0
   12.7650    0.2160   22.9250 C   0  0  0  0  0  0  0  0  0  0  0  0
   12.2550    1.3590   23.5010 C   0  0  0  0  0  0  0  0  0  0  0  0
  1  2  1  0
  2  3  1  0
  3  4  1  0
  4  5  1  0
  6  5  1  1
  6  7  1  0
  6  8  1  0
  7  8  1  6
  7  9  1  0
  9 10  1  0
  9 11  1  1
 10 12  1  0
 11 13  1  0
 10 14  1  0
 12 15  2  0
 12 16  1  0
 13 17  1  0
 13 18  1  0
 14 19  1  0
 18 19  1  0
 17 20  1  0
 20 21  2  0
 20 22  1  0
 22 23  1  0
 21 24  1  0
 22 25  2  0
 24 26  2  0
 25 26  1  0
M  END
