x0831_0-x0434_1-x0770_1-x0981_1
     RDKit          3D

 38 40  0  0  0  0  0  0  0  0999 V2000
    4.1890   -5.2200   23.2420 C   0  0  0  0  0  0  0  0  0  0  0  0
    2.8970   -5.9920   23.5430 C   0  0  1  0  0  0  0  0  0  0  0  0
    2.6790   -7.1710   22.7080 N   0  0  0  0  0  0  0  0  0  0  0  0
    4.5360   -3.9300   23.6520 N   0  0  0  0  0  0  0  0  0  0  0  0
    2.7030   -6.2910   25.0130 C   0  0  0  0  0  0  0  0  0  0  0  0
    5.7190   -3.0920   23.4320 C   0  0  0  0  0  0  0  0  0  0  0  0
    1.3520   -7.4200   22.1370 C   0  0  0  0  0  0  0  0  0  0  0  0
    3.0720   -7.7060   25.3490 C   0  0  0  0  0  0  0  0  0  0  0  0
    6.6380   -3.6150   22.3440 C   0  0  1  0  0  0  0  0  0  0  0  0
    1.1950   -8.7150   21.3830 C   0  0  0  0  0  0  0  0  0  0  0  0
    0.4390   -6.6110   22.2500 O   0  0  0  0  0  0  0  0  0  0  0  0
    2.4280   -8.3840   26.3360 N   0  0  0  0  0  0  0  0  0  0  0  0
    3.9610   -8.2130   24.7020 O   0  0  0  0  0  0  0  0  0  0  0  0
    6.6530   -2.8240   21.1290 N   0  0  0  0  0  0  0  0  0  0  0  0
    7.9800   -3.6190   23.0490 C   0  0  0  0  0  0  0  0  0  0  0  0
    6.3930   -3.3800   19.9000 C   0  0  0  0  0  0  0  0  0  0  0  0
    8.6500   -2.3060   23.0310 N   0  0  0  0  0  0  0  0  0  0  0  0
    7.6660   -1.7730   20.9910 C   0  0  2  0  0  0  0  0  0  0  0  0
    7.3490   -3.0730   18.7490 C   0  0  0  0  0  0  0  0  0  0  0  0
    5.4320   -4.1390   19.7160 O   0  0  0  0  0  0  0  0  0  0  0  0
    9.9940   -2.3480   23.6370 C   0  0  0  0  0  0  0  0  0  0  0  0
    8.7120   -1.6630   21.8390 C   0  0  1  0  0  0  0  0  0  0  0  0
    6.9580   -0.4360   20.8390 C   0  0  0  0  0  0  0  0  0  0  0  0
    8.8300   -0.1720   22.1460 C   0  0  0  0  0  0  0  0  0  0  0  0
   10.7700   -1.0090   23.6100 C   0  0  0  0  0  0  0  0  0  0  0  0
    6.8740    0.0150   19.3990 C   0  0  0  0  0  0  0  0  0  0  0  0
    9.2530    0.6780   21.3470 O   0  0  0  0  0  0  0  0  0  0  0  0
   10.2610    0.1890   24.2310 C   0  0  0  0  0  0  0  0  0  0  0  0
   12.1550   -0.9580   22.8640 C   0  0  0  0  0  0  0  0  0  0  0  0
    5.7800    0.3820   20.2280 C   0  0  0  0  0  0  0  0  0  0  0  0
    6.4780    0.5780   18.1910 N   0  0  0  0  0  0  0  0  0  0  0  0
   12.7960   -2.1110   22.1710 C   0  0  0  0  0  0  0  0  0  0  0  0
   10.9430    1.3900   24.1830 C   0  0  0  0  0  0  0  0  0  0  0  0
   12.7830    0.2890   22.8740 C   0  0  0  0  0  0  0  0  0  0  0  0
    5.3920    1.2910   17.8480 C   0  0  0  0  0  0  0  0  0  0  0  0
    4.6350    1.1020   19.9320 C   0  0  0  0  0  0  0  0  0  0  0  0
   12.1420    1.4760   23.5490 C   0  0  0  0  0  0  0  0  0  0  0  0
    4.4140    1.5860   18.7050 C   0  0  0  0  0  0  0  0  0  0  0  0
  2  1  1  1
  2  3  1  0
  1  4  2  3
  2  5  1  0
  4  6  1  0
  3  7  1  0
  5  8  1  0
  9  6  1  1
  7 10  1  0
  7 11  2  0
  8 12  1  0
  8 13  2  0
  9 14  1  0
  9 15  1  0
 14 16  1  0
 15 17  1  0
 14 18  1  0
 16 19  1  0
 16 20  2  0
 17 21  1  0
 17 22  1  0
 18 22  1  0
 18 23  1  1
 22 24  1  1
 21 25  1  0
 23 26  1  0
 24 27  2  0
 25 28  2  0
 25 29  1  0
 26 30  2  0
 26 31  1  0
 29 32  1  0
 28 33  1  0
 29 34  2  0
 31 35  2  0
 30 36  1  0
 33 37  2  0
 34 37  1  0
 35 38  1  0
 36 38  2  0
M  END
