x0831_0-x1334_1-x0397_0-x1386_1-x0692_1
     RDKit          3D

 20 22  0  0  0  0  0  0  0  0999 V2000
    6.3050   -3.2730   19.8900 C   0  0  0  0  0  0  0  0  0  0  0  0
    7.2780   -2.9880   18.7610 C   0  0  0  0  0  0  0  0  0  0  0  0
    5.4080   -4.1170   19.7290 O   0  0  0  0  0  0  0  0  0  0  0  0
    6.4780   -2.5810   21.0800 N   0  0  0  0  0  0  0  0  0  0  0  0
    7.3070   -1.3750   21.1380 C   0  0  0  0  0  0  0  0  0  0  0  0
    6.4320   -3.2560   22.3760 C   0  0  2  0  0  0  0  0  0  0  0  0
    8.6840   -1.6630   21.7550 C   0  0  0  0  0  0  0  0  0  0  0  0
    7.8040   -3.5070   23.0670 C   0  0  0  0  0  0  0  0  0  0  0  0
    6.8460   -4.6890   22.3650 C   0  0  0  0  0  0  0  0  0  0  0  0
    8.6840   -2.3020   23.0840 N   0  0  0  0  0  0  0  0  0  0  0  0
    6.3950   -5.6230   23.3520 C   0  0  0  0  0  0  0  0  0  0  0  0
    5.8880   -6.0220   22.1500 C   0  0  0  0  0  0  0  0  0  0  0  0
   10.0940   -2.5020   23.5100 C   0  0  0  0  0  0  0  0  0  0  0  0
   10.8120   -1.1670   23.5310 C   0  0  0  0  0  0  0  0  0  0  0  0
   10.2160   -0.0690   24.1960 C   0  0  0  0  0  0  0  0  0  0  0  0
   12.0560   -0.9900   22.8930 C   0  0  0  0  0  0  0  0  0  0  0  0
   12.7700   -2.0710   22.1510 C   0  0  0  0  0  0  0  0  0  0  0  0
   10.8400    1.1890   24.2250 C   0  0  0  0  0  0  0  0  0  0  0  0
   12.6480    0.2520   22.9450 C   0  0  0  0  0  0  0  0  0  0  0  0
   12.0500    1.3080   23.5930 C   0  0  0  0  0  0  0  0  0  0  0  0
  1  2  1  0
  1  3  2  0
  1  4  1  0
  4  5  1  0
  4  6  1  0
  5  7  1  0
  6  8  1  0
  6  9  1  6
  7 10  1  0
  8 10  1  0
  9 11  1  0
  9 12  1  0
 11 12  1  0
 10 13  1  0
 13 14  1  0
 14 15  2  0
 14 16  1  0
 16 17  1  0
 15 18  1  0
 16 19  2  0
 18 20  2  0
 19 20  1  0
M  END
