x0831_0-x1386_1-x0820_1-x0692_1
     RDKit          3D

 28 31  0  0  0  0  0  0  0  0999 V2000
    6.3670   -3.1580   19.7860 C   0  0  0  0  0  0  0  0  0  0  0  0
    7.3680   -2.9380   18.6690 C   0  0  0  0  0  0  0  0  0  0  0  0
    5.4430   -3.9750   19.6720 O   0  0  0  0  0  0  0  0  0  0  0  0
    6.5950   -2.3780   20.9500 N   0  0  0  0  0  0  0  0  0  0  0  0
    7.5440   -1.2580   20.7370 C   0  0  0  0  0  0  0  0  0  0  0  0
    6.5230   -2.8750   22.3230 C   0  0  2  0  0  0  0  0  0  0  0  0
    8.8650   -1.4370   21.5480 C   0  0  0  0  0  0  0  0  0  0  0  0
    7.7850   -3.0060   22.9250 C   0  0  0  0  0  0  0  0  0  0  0  0
    5.7510   -4.2270   22.3960 C   0  0  0  0  0  0  0  0  0  0  0  0
    8.6620   -1.8270   22.9440 N   0  0  0  0  0  0  0  0  0  0  0  0
    4.8050   -4.3710   23.5890 C   0  0  0  0  0  0  0  0  0  0  0  0
    9.9020   -2.1120   23.5140 C   0  0  0  0  0  0  0  0  0  0  0  0
    6.2990   -4.3410   24.1360 C   0  0  0  0  0  0  0  0  0  0  0  0
    4.1200   -4.5060   24.8340 C   0  0  0  0  0  0  0  0  0  0  0  0
   10.7880   -0.8930   23.4560 C   0  0  0  0  0  0  0  0  0  0  0  0
    6.8240   -4.4170   25.4240 C   0  0  0  0  0  0  0  0  0  0  0  0
    4.5990   -4.5880   26.1420 C   0  0  0  0  0  0  0  0  0  0  0  0
   10.2200    0.3060   23.9670 C   0  0  0  0  0  0  0  0  0  0  0  0
   12.1020   -0.9170   22.9190 C   0  0  0  0  0  0  0  0  0  0  0  0
    5.9110   -4.5450   26.4300 C   0  0  0  0  0  0  0  0  0  0  0  0
    8.2090   -4.3670   25.7170 C   0  0  0  0  0  0  0  0  0  0  0  0
   12.7120   -2.1710   22.3620 C   0  0  0  0  0  0  0  0  0  0  0  0
   11.0410    1.5660   23.9320 C   0  0  0  0  0  0  0  0  0  0  0  0
   12.8880    0.2480   22.8800 C   0  0  0  0  0  0  0  0  0  0  0  0
    8.6970   -4.4530   27.0060 C   0  0  0  0  0  0  0  0  0  0  0  0
    6.3290   -4.6350   27.7640 C   0  0  0  0  0  0  0  0  0  0  0  0
   12.3100    1.5620   23.4190 C   0  0  0  0  0  0  0  0  0  0  0  0
    7.6730   -4.6020   28.1400 C   0  0  0  0  0  0  0  0  0  0  0  0
  1  2  1  0
  1  3  2  0
  1  4  1  0
  4  5  1  0
  4  6  1  0
  5  7  1  0
  6  8  1  0
  6  9  1  6
  7 10  1  0
  8 10  1  0
  9 11  1  0
 10 12  1  0
 11 13  2  0
 11 14  1  0
 12 15  1  0
 13 16  1  0
 14 17  2  0
 15 18  2  0
 15 19  1  0
 16 20  2  0
 17 20  1  0
 16 21  1  0
 19 22  1  0
 18 23  1  0
 19 24  2  0
 21 25  2  0
 20 26  1  0
 23 27  2  0
 24 27  1  0
 25 28  1  0
 26 28  2  0
M  END
