x0831_0-x0771_1-x0691_0
     RDKit          3D

 30 32  0  0  0  0  0  0  0  0999 V2000
    5.0140   -5.6340   25.6890 S   0  0  0  0  0  0  0  0  0  0  0  0
    3.6660   -4.4660   25.7860 C   0  0  0  0  0  0  0  0  0  0  0  0
    3.9810   -3.1890   26.2520 C   0  0  0  0  0  0  0  0  0  0  0  0
    4.4360   -6.9570   25.7540 O   0  0  0  0  0  0  0  0  0  0  0  0
    6.1310   -5.1990   26.7310 O   0  0  0  0  0  0  0  0  0  0  0  0
    5.5740   -5.4400   24.2660 N   0  0  0  0  0  0  0  0  0  0  0  0
    2.3370   -4.7890   25.4210 C   0  0  0  0  0  0  0  0  0  0  0  0
    5.0990   -6.1780   23.1930 C   0  0  0  0  0  0  0  0  0  0  0  0
    6.2590   -4.1620   23.9170 C   0  0  0  0  0  0  0  0  0  0  0  0
    1.8640   -6.1250   24.9030 C   0  0  0  0  0  0  0  0  0  0  0  0
    1.3300   -3.6660   25.5830 C   0  0  0  0  0  0  0  0  0  0  0  0
    3.0570   -2.1780   26.3940 C   0  0  0  0  0  0  0  0  0  0  0  0
    5.9130   -6.1830   22.0950 C   0  0  0  0  0  0  0  0  0  0  0  0
    7.2200   -4.3290   22.9210 C   0  0  2  0  0  0  0  0  0  0  0  0
    7.9670   -3.0140   22.5880 C   0  0  0  0  0  0  0  0  0  0  0  0
    1.6900   -2.4130   26.0570 C   0  0  0  0  0  0  0  0  0  0  0  0
    6.6500   -5.0960   21.7560 N   0  0  0  0  0  0  0  0  0  0  0  0
    0.6670   -1.3290   26.2140 C   0  0  0  0  0  0  0  0  0  0  0  0
    6.2710   -4.4960   20.5320 C   0  0  0  0  0  0  0  0  0  0  0  0
    8.6430   -2.4650   23.6420 C   0  0  0  0  0  0  0  0  0  0  0  0
    5.2500   -4.8270   19.9600 O   0  0  0  0  0  0  0  0  0  0  0  0
    7.1170   -3.4070   19.8550 C   0  0  0  0  0  0  0  0  0  0  0  0
   10.1780   -2.5120   23.5320 C   0  0  0  0  0  0  0  0  0  0  0  0
   10.8680   -1.1660   23.5370 C   0  0  0  0  0  0  0  0  0  0  0  0
   10.2600   -0.0800   24.1950 C   0  0  0  0  0  0  0  0  0  0  0  0
   12.1060   -0.9620   22.8920 C   0  0  0  0  0  0  0  0  0  0  0  0
   12.8240   -2.0580   22.1590 C   0  0  0  0  0  0  0  0  0  0  0  0
   10.8660    1.1710   24.2020 C   0  0  0  0  0  0  0  0  0  0  0  0
   12.7000    0.3030   22.9200 C   0  0  0  0  0  0  0  0  0  0  0  0
   12.0840    1.3620   23.5660 C   0  0  0  0  0  0  0  0  0  0  0  0
  1  2  1  0
  2  3  2  0
  1  4  2  0
  1  5  2  0
  1  6  1  0
  2  7  1  0
  6  8  1  0
  6  9  1  0
  7 10  1  0
  7 11  2  0
  3 12  1  0
  8 13  1  0
  9 14  1  0
 14 15  1  6
 11 16  1  0
 12 16  2  0
 13 17  1  0
 14 17  1  0
 16 18  1  0
 17 19  1  0
 15 20  1  0
 19 21  2  0
 19 22  1  0
 20 23  1  0
 23 24  1  0
 24 25  2  0
 24 26  1  0
 26 27  1  0
 25 28  1  0
 26 29  2  0
 28 30  2  0
 29 30  1  0
M  END
