x0831_0-x0771_1-x1418_0-x0692_1
     RDKit          3D

 32 34  0  0  0  0  0  0  0  0999 V2000
    4.8140   -5.8270   25.5850 S   0  0  0  0  0  0  0  0  0  0  0  0
    4.8150   -6.1460   23.8410 C   0  0  0  0  0  0  0  0  0  0  0  0
    5.8930   -5.3780   23.0650 C   0  0  0  0  0  0  0  0  0  0  0  0
    4.3190   -7.0370   26.2100 O   0  0  0  0  0  0  0  0  0  0  0  0
    6.0750   -5.2760   26.0100 O   0  0  0  0  0  0  0  0  0  0  0  0
    3.6360   -4.6050   25.7540 C   0  0  0  0  0  0  0  0  0  0  0  0
    2.3120   -4.8450   25.4330 C   0  0  0  0  0  0  0  0  0  0  0  0
    4.0280   -3.3330   26.2360 C   0  0  0  0  0  0  0  0  0  0  0  0
    1.8110   -6.1680   24.9120 C   0  0  0  0  0  0  0  0  0  0  0  0
    5.3170   -4.0360   22.5680 C   0  0  0  0  0  0  0  0  0  0  0  0
    1.2790   -3.7300   25.6120 C   0  0  0  0  0  0  0  0  0  0  0  0
    3.1810   -2.2330   26.4420 C   0  0  0  0  0  0  0  0  0  0  0  0
    1.6660   -2.4400   26.1080 C   0  0  0  0  0  0  0  0  0  0  0  0
    6.3610   -2.9410   22.4100 C   0  0  2  0  0  0  0  0  0  0  0  0
    0.6820   -1.3360   26.3080 C   0  0  0  0  0  0  0  0  0  0  0  0
    6.5560   -2.4980   21.0250 N   0  0  0  0  0  0  0  0  0  0  0  0
    7.6440   -3.2150   22.9660 C   0  0  0  0  0  0  0  0  0  0  0  0
    6.3500   -3.2270   19.8330 C   0  0  0  0  0  0  0  0  0  0  0  0
    8.4020   -1.9510   22.9920 N   0  0  0  0  0  0  0  0  0  0  0  0
    7.4720   -1.3140   20.8990 C   0  0  0  0  0  0  0  0  0  0  0  0
    5.4260   -4.0530   19.7130 O   0  0  0  0  0  0  0  0  0  0  0  0
    7.3400   -2.9760   18.7190 C   0  0  0  0  0  0  0  0  0  0  0  0
    9.6080   -1.9550   23.8670 C   0  0  1  0  0  0  0  0  0  0  0  0
    8.6040   -1.5030   21.6940 C   0  0  0  0  0  0  0  0  0  0  0  0
   10.3410   -3.2600   23.6670 C   0  0  0  0  0  0  0  0  0  0  0  0
   10.5940   -0.8150   23.6550 C   0  0  0  0  0  0  0  0  0  0  0  0
   10.2290    0.4160   24.1580 C   0  0  0  0  0  0  0  0  0  0  0  0
   11.9820   -0.8180   22.9500 C   0  0  0  0  0  0  0  0  0  0  0  0
   12.6010   -2.0300   22.3170 C   0  0  0  0  0  0  0  0  0  0  0  0
   10.9940    1.5630   24.0590 C   0  0  0  0  0  0  0  0  0  0  0  0
   12.7170    0.3550   22.8840 C   0  0  0  0  0  0  0  0  0  0  0  0
   12.2300    1.5350   23.4290 C   0  0  0  0  0  0  0  0  0  0  0  0
  1  2  1  0
  2  3  1  0
  1  4  2  0
  1  5  2  0
  1  6  1  0
  6  7  2  0
  6  8  1  0
  7  9  1  0
  3 10  1  0
  7 11  1  0
  8 12  2  0
 11 13  2  0
 12 13  1  0
 14 10  1  6
 13 15  1  0
 14 16  1  0
 14 17  1  0
 16 18  1  0
 17 19  1  0
 16 20  1  0
 18 21  2  0
 18 22  1  0
 19 23  1  0
 19 24  1  0
 20 24  1  0
 23 25  1  6
 23 26  1  0
 26 27  2  0
 26 28  1  0
 28 29  1  0
 27 30  1  0
 28 31  2  0
 30 32  2  0
 31 32  1  0
M  END
