x0831_0-x0831_1-x1375_1
     RDKit          3D

 26 28  0  0  0  0  0  0  0  0999 V2000
    6.2750   -3.5660   20.1240 C   0  0  0  0  0  0  0  0  0  0  0  0
    7.2420   -3.0840   19.0340 C   0  0  0  0  0  0  0  0  0  0  0  0
    5.4170   -4.4040   19.8550 O   0  0  0  0  0  0  0  0  0  0  0  0
    6.3450   -3.0250   21.5970 C   0  0  2  0  0  0  0  0  0  0  0  0
    4.9220   -3.2460   22.0660 C   0  0  0  0  0  0  0  0  0  0  0  0
    6.4310   -1.5880   21.5200 C   0  0  0  0  0  0  0  0  0  0  0  0
    7.4870   -3.6400   22.1680 C   0  0  0  0  0  0  0  0  0  0  0  0
    7.8180   -1.0030   21.1470 C   0  0  0  0  0  0  0  0  0  0  0  0
    7.9280   -2.9900   23.4440 C   0  0  0  0  0  0  0  0  0  0  0  0
    4.4090   -4.3380   23.0710 C   0  0  2  0  0  0  0  0  0  0  0  0
    8.8710   -1.9120   23.1650 N   0  0  0  0  0  0  0  0  0  0  0  0
    9.0370   -1.6850   21.7270 C   0  0  0  0  0  0  0  0  0  0  0  0
    4.5170   -4.1010   24.4280 C   0  0  0  0  0  0  0  0  0  0  0  0
    4.7900   -5.6790   22.8730 C   0  0  0  0  0  0  0  0  0  0  0  0
   10.1840   -2.1990   23.7080 C   0  0  0  0  0  0  0  0  0  0  0  0
    4.2490   -5.2180   25.1980 C   0  0  0  0  0  0  0  0  0  0  0  0
    3.9070   -6.5000   24.1340 S   0  0  0  0  0  0  0  0  0  0  0  0
    2.3770   -6.6790   23.7360 O   0  0  0  0  0  0  0  0  0  0  0  0
    4.5800   -7.8270   24.6670 O   0  0  0  0  0  0  0  0  0  0  0  0
   10.9820   -0.9410   23.5990 C   0  0  0  0  0  0  0  0  0  0  0  0
   10.3810    0.2200   24.1820 C   0  0  0  0  0  0  0  0  0  0  0  0
   12.2260   -0.8830   22.9590 C   0  0  0  0  0  0  0  0  0  0  0  0
   12.8560   -2.0910   22.3350 C   0  0  0  0  0  0  0  0  0  0  0  0
   11.0230    1.4170   24.1130 C   0  0  0  0  0  0  0  0  0  0  0  0
   12.8910    0.3410   22.8960 C   0  0  0  0  0  0  0  0  0  0  0  0
   12.2910    1.4650   23.4620 C   0  0  0  0  0  0  0  0  0  0  0  0
  1  2  1  0
  1  3  2  0
  4  1  1  0
  4  5  1  1
  4  6  1  0
  4  7  1  0
  6  8  1  0
  7  9  1  0
 10  5  1  6
  9 11  1  0
  8 12  1  0
 11 12  1  0
 10 13  1  0
 10 14  1  0
 11 15  1  0
 13 16  2  0
 14 17  1  0
 16 17  1  0
 17 18  1  0
 17 19  1  0
 15 20  1  0
 20 21  2  0
 20 22  1  0
 22 23  1  0
 21 24  1  0
 22 25  2  0
 24 26  2  0
 25 26  1  0
M  END
