x0831_1-x0734_0-x1385_1-x0692_1-x0831_0-x1418_1-x0770_1-x0397_0
     RDKit          3D

 31 34  0  0  0  0  0  0  0  0999 V2000
    6.2020   -3.3470   19.8500 C   0  0  0  0  0  0  0  0  0  0  0  0
    7.2310   -3.0210   18.7730 C   0  0  0  0  0  0  0  0  0  0  0  0
    5.2540   -4.0970   19.6560 O   0  0  0  0  0  0  0  0  0  0  0  0
    6.4110   -2.7930   21.0810 N   0  0  0  0  0  0  0  0  0  0  0  0
    6.2450   -1.3730   21.3890 C   0  0  0  0  0  0  0  0  0  0  0  0
    7.0930   -3.6530   22.0440 C   0  0  1  0  0  0  0  0  0  0  0  0
    7.5810   -0.6320   21.1590 C   0  0  0  0  0  0  0  0  0  0  0  0
    7.4360   -3.0780   23.3750 C   0  0  0  0  0  0  0  0  0  0  0  0
    5.9900   -4.3200   22.8560 C   0  0  2  0  0  0  0  0  0  0  0  0
    8.4150   -1.9660   23.2220 N   0  0  0  0  0  0  0  0  0  0  0  0
    8.6610   -1.5310   21.8300 C   0  0  0  0  0  0  0  0  0  0  0  0
    5.9360   -5.6180   23.4390 C   0  0  2  0  0  0  0  0  0  0  0  0
    5.6000   -5.6630   22.0260 C   0  0  0  0  0  0  0  0  0  0  0  0
    4.8090   -6.2360   24.2340 C   0  0  0  0  0  0  0  0  0  0  0  0
    9.7490   -2.2180   23.8400 C   0  0  0  0  0  0  0  0  0  0  0  0
    4.8510   -5.9860   25.6790 N   0  0  0  0  0  0  0  0  0  0  0  0
   10.6610   -1.0000   23.7000 C   0  0  0  0  0  0  0  0  0  0  0  0
    5.3710   -4.8820   26.0110 N   0  0  0  0  0  0  0  0  0  0  0  0
   10.2600    0.2130   24.2290 C   0  0  0  0  0  0  0  0  0  0  0  0
   11.9310   -1.0100   23.0290 C   0  0  0  0  0  0  0  0  0  0  0  0
    4.7290   -3.9190   26.5630 O   0  0  0  0  0  0  0  0  0  0  0  0
   12.5400   -2.2180   22.3780 C   0  0  0  0  0  0  0  0  0  0  0  0
    6.8100   -4.9780   26.2480 C   0  0  0  0  0  0  0  0  0  0  0  0
   10.9740    1.3790   24.1510 C   0  0  0  0  0  0  0  0  0  0  0  0
   12.7000    0.1730   22.9370 C   0  0  0  0  0  0  0  0  0  0  0  0
    7.7100   -4.5390   25.2870 C   0  0  0  0  0  0  0  0  0  0  0  0
    7.3630   -5.4980   27.4050 C   0  0  0  0  0  0  0  0  0  0  0  0
   12.2140    1.3610   23.4970 C   0  0  0  0  0  0  0  0  0  0  0  0
    9.0790   -4.6290   25.5130 C   0  0  0  0  0  0  0  0  0  0  0  0
    8.7160   -5.6090   27.6720 C   0  0  0  0  0  0  0  0  0  0  0  0
    9.5980   -5.1560   26.6890 C   0  0  0  0  0  0  0  0  0  0  0  0
  1  2  1  0
  1  3  2  0
  1  4  1  0
  4  5  1  0
  4  6  1  0
  5  7  1  0
  6  8  1  1
  6  9  1  0
  8 10  1  0
  7 11  1  0
 10 11  1  0
  9 12  1  0
  9 13  1  6
 12 13  1  0
 12 14  1  1
 10 15  1  0
 14 16  1  0
 15 17  1  0
 16 18  2  3
 17 19  2  0
 17 20  1  0
 18 21  1  0
 20 22  1  0
 18 23  1  0
 19 24  1  0
 20 25  2  0
 23 26  2  0
 23 27  1  0
 24 28  2  0
 25 28  1  0
 26 29  1  0
 27 30  2  0
 29 31  2  0
 30 31  1  0
M  CHG  2  18   1  21  -1
M  END
