x0831_0-x1374_1-x0770_1-x0397_0-x1386_1
     RDKit          3D

 25 27  0  0  0  0  0  0  0  0999 V2000
    2.2350   -7.7160   23.2970 O   0  0  0  0  0  0  0  0  0  0  0  0
    2.5100   -8.0160   24.6510 C   0  0  0  0  0  0  0  0  0  0  0  0
    3.9020   -7.9470   24.8550 O   0  0  0  0  0  0  0  0  0  0  0  0
    4.5250   -7.1640   23.8440 C   0  0  0  0  0  0  0  0  0  0  0  0
    5.2150   -5.9700   24.4130 C   0  0  0  0  0  0  0  0  0  0  0  0
    6.2260   -5.6260   23.4410 C   0  0  2  0  0  0  0  0  0  0  0  0
    5.9930   -4.5470   22.4940 C   0  0  2  0  0  0  0  0  0  0  0  0
    6.1570   -6.1850   22.1850 C   0  0  0  0  0  0  0  0  0  0  0  0
    7.0520   -3.5300   22.1700 C   0  0  1  0  0  0  0  0  0  0  0  0
    6.5230   -2.6680   21.1170 N   0  0  0  0  0  0  0  0  0  0  0  0
    7.4700   -2.9040   23.2930 C   0  0  0  0  0  0  0  0  0  0  0  0
    6.2610   -3.2700   19.8920 C   0  0  0  0  0  0  0  0  0  0  0  0
    8.5740   -1.9280   23.1540 N   0  0  0  0  0  0  0  0  0  0  0  0
    7.1520   -1.3540   21.1910 C   0  0  0  0  0  0  0  0  0  0  0  0
    7.2230   -2.9720   18.7620 C   0  0  0  0  0  0  0  0  0  0  0  0
    5.3300   -4.0690   19.7110 O   0  0  0  0  0  0  0  0  0  0  0  0
    9.8790   -2.3410   23.4680 C   0  0  0  0  0  0  0  0  0  0  0  0
    8.5680   -1.3450   21.7870 C   0  0  0  0  0  0  0  0  0  0  0  0
   10.8270   -1.1180   23.4060 C   0  0  0  0  0  0  0  0  0  0  0  0
   10.1650    0.0860   24.0840 C   0  0  0  0  0  0  0  0  0  0  0  0
   12.0820   -1.0130   22.8400 C   0  0  0  0  0  0  0  0  0  0  0  0
   12.7510   -2.1670   22.1650 C   0  0  0  0  0  0  0  0  0  0  0  0
   10.8700    1.4640   24.1490 C   0  0  0  0  0  0  0  0  0  0  0  0
   12.7580    0.3460   22.9230 C   0  0  0  0  0  0  0  0  0  0  0  0
   12.2660    1.5050   23.4950 C   0  0  0  0  0  0  0  0  0  0  0  0
  1  2  1  0
  2  3  1  0
  3  4  1  0
  4  5  1  0
  6  5  1  1
  6  7  1  0
  6  8  1  0
  7  8  1  6
  7  9  1  0
  9 10  1  0
  9 11  1  1
 10 12  1  0
 11 13  1  0
 10 14  1  0
 12 15  1  0
 12 16  2  0
 13 17  1  0
 13 18  1  0
 14 18  1  0
 17 19  1  0
 19 20  2  0
 19 21  1  0
 21 22  1  0
 20 23  1  0
 21 24  2  0
 23 25  2  0
 24 25  1  0
M  END
