x0831_0-x0771_1-x1386_0-x0771_0
     RDKit          3D

 31 33  0  0  0  0  0  0  0  0999 V2000
    5.0470   -5.6500   25.6840 S   0  0  0  0  0  0  0  0  0  0  0  0
    3.8430   -4.4390   25.8080 C   0  0  0  0  0  0  0  0  0  0  0  0
    4.0810   -3.1090   26.2500 C   0  0  0  0  0  0  0  0  0  0  0  0
    4.3590   -6.9140   25.5640 O   0  0  0  0  0  0  0  0  0  0  0  0
    6.0110   -5.4240   26.7220 O   0  0  0  0  0  0  0  0  0  0  0  0
    5.7990   -5.4140   24.1870 N   0  0  0  0  0  0  0  0  0  0  0  0
    2.4890   -4.7720   25.4570 C   0  0  0  0  0  0  0  0  0  0  0  0
    5.0540   -6.0140   23.0420 C   0  0  0  0  0  0  0  0  0  0  0  0
    6.3530   -4.1620   23.8960 C   0  0  0  0  0  0  0  0  0  0  0  0
    1.9830   -6.0990   24.9630 C   0  0  0  0  0  0  0  0  0  0  0  0
    1.4190   -3.7100   25.5850 C   0  0  0  0  0  0  0  0  0  0  0  0
    2.9660   -2.0930   26.3550 C   0  0  0  0  0  0  0  0  0  0  0  0
    5.9040   -6.1960   21.9490 C   0  0  0  0  0  0  0  0  0  0  0  0
    7.2740   -4.3080   22.8460 C   0  0  2  0  0  0  0  0  0  0  0  0
    7.9080   -2.9430   22.5200 C   0  0  0  0  0  0  0  0  0  0  0  0
    1.6650   -2.4200   26.0250 C   0  0  0  0  0  0  0  0  0  0  0  0
    6.6940   -4.9840   21.6470 N   0  0  0  0  0  0  0  0  0  0  0  0
    0.5740   -1.4040   26.1480 C   0  0  0  0  0  0  0  0  0  0  0  0
    6.3680   -4.2990   20.4540 C   0  0  0  0  0  0  0  0  0  0  0  0
    8.6680   -2.3120   23.5030 C   0  0  0  0  0  0  0  0  0  0  0  0
    5.2900   -4.5160   19.9100 O   0  0  0  0  0  0  0  0  0  0  0  0
    7.2930   -3.3170   19.7350 C   0  0  0  0  0  0  0  0  0  0  0  0
   10.1590   -2.2380   23.1710 C   0  0  2  0  0  0  0  0  0  0  0  0
   10.8910   -3.1610   24.0760 C   0  0  0  0  0  0  0  0  0  0  0  0
   10.8600   -0.9040   23.3180 C   0  0  0  0  0  0  0  0  0  0  0  0
   10.2430    0.1410   23.9660 C   0  0  0  0  0  0  0  0  0  0  0  0
   12.1200   -0.7710   22.7850 C   0  0  0  0  0  0  0  0  0  0  0  0
   12.8230   -1.8880   22.0690 C   0  0  0  0  0  0  0  0  0  0  0  0
   10.9070    1.3940   24.0830 C   0  0  0  0  0  0  0  0  0  0  0  0
   12.7700    0.4290   22.8980 C   0  0  0  0  0  0  0  0  0  0  0  0
   12.1720    1.5000   23.5330 C   0  0  0  0  0  0  0  0  0  0  0  0
  1  2  1  0
  2  3  2  0
  1  4  2  0
  1  5  2  0
  1  6  1  0
  2  7  1  0
  6  8  1  0
  6  9  1  0
  7 10  1  0
  7 11  2  0
  3 12  1  0
  8 13  1  0
  9 14  1  0
 14 15  1  6
 11 16  1  0
 12 16  2  0
 13 17  1  0
 14 17  1  0
 16 18  1  0
 17 19  1  0
 15 20  1  0
 19 21  2  0
 19 22  1  0
 20 23  1  0
 23 24  1  1
 23 25  1  0
 25 26  2  0
 25 27  1  0
 27 28  1  0
 26 29  1  0
 27 30  2  0
 29 31  2  0
 30 31  1  0
M  END
