x0831_0-x1385_1-x0736_1-x0397_0-x1412_0
     RDKit          3D

 28 31  0  0  0  0  0  0  0  0999 V2000
    6.3430   -3.2940   19.8790 C   0  0  0  0  0  0  0  0  0  0  0  0
    7.3510   -2.9800   18.7740 C   0  0  0  0  0  0  0  0  0  0  0  0
    5.4110   -4.0870   19.7160 O   0  0  0  0  0  0  0  0  0  0  0  0
    6.5340   -2.6500   21.1010 N   0  0  0  0  0  0  0  0  0  0  0  0
    6.5700   -3.4850   22.3210 C   0  0  2  0  0  0  0  0  0  0  0  0
    7.2700   -1.3910   21.2280 C   0  0  0  0  0  0  0  0  0  0  0  0
    7.8810   -3.3200   23.1380 C   0  0  0  0  0  0  0  0  0  0  0  0
    8.6310   -1.6200   21.5590 C   0  0  0  0  0  0  0  0  0  0  0  0
    6.5120   -4.9420   21.9290 C   0  0  0  0  0  0  0  0  0  0  0  0
    8.7580   -2.1520   22.9010 N   0  0  0  0  0  0  0  0  0  0  0  0
    6.4720   -5.8700   22.8530 C   0  0  0  0  0  0  0  0  0  0  0  0
    5.2680   -5.9410   22.2490 C   0  0  0  0  0  0  0  0  0  0  0  0
   10.1760   -2.2220   23.2420 C   0  0  2  0  0  0  0  0  0  0  0  0
   10.3240   -2.8350   24.5930 C   0  0  0  0  0  0  0  0  0  0  0  0
   10.9360   -0.9060   23.2790 C   0  0  0  0  0  0  0  0  0  0  0  0
    8.9700   -2.8690   25.2920 C   0  0  0  0  0  0  0  0  0  0  0  0
   10.3030    0.2240   23.8600 C   0  0  0  0  0  0  0  0  0  0  0  0
   12.2040   -0.7560   22.7820 C   0  0  0  0  0  0  0  0  0  0  0  0
   12.9890   -1.8590   22.1330 C   0  0  0  0  0  0  0  0  0  0  0  0
    8.1370   -1.9780   25.1400 O   0  0  0  0  0  0  0  0  0  0  0  0
   10.9020    1.4570   23.9490 C   0  0  0  0  0  0  0  0  0  0  0  0
   12.8050    0.4790   22.8730 C   0  0  0  0  0  0  0  0  0  0  0  0
    8.7610   -4.0430   26.1490 C   0  0  0  0  0  0  0  0  0  0  0  0
   12.1920    1.5920   23.4390 C   0  0  0  0  0  0  0  0  0  0  0  0
    9.5260   -5.1550   25.9040 C   0  0  0  0  0  0  0  0  0  0  0  0
    7.6960   -4.2920   27.4710 S   0  0  0  0  0  0  0  0  0  0  0  0
    9.2730   -6.1690   26.7470 C   0  0  0  0  0  0  0  0  0  0  0  0
    8.2890   -5.8740   27.6890 C   0  0  0  0  0  0  0  0  0  0  0  0
  1  2  1  0
  1  3  2  0
  1  4  1  0
  4  5  1  0
  4  6  1  0
  5  7  1  0
  6  8  1  0
  5  9  1  6
  7 10  1  0
  8 10  1  0
  9 11  1  0
  9 12  1  0
 11 12  1  0
 10 13  1  0
 13 14  1  1
 13 15  1  0
 14 16  1  0
 15 17  2  0
 15 18  1  0
 18 19  1  0
 16 20  2  0
 17 21  1  0
 18 22  2  0
 16 23  1  0
 21 24  2  0
 22 24  1  0
 23 25  2  0
 23 26  1  0
 25 27  1  0
 26 28  1  0
 27 28  2  0
M  END
