x0831_0-x0540_3-x0820_1-x1386_0
     RDKit          3D

 29 31  0  0  0  0  0  0  0  0999 V2000
    4.9840    0.0970   21.6820 C   0  0  0  0  0  0  0  0  0  0  0  0
    5.2460    1.3320   22.5030 C   0  0  0  0  0  0  0  0  0  0  0  0
    4.2940    2.3450   22.5240 N   0  0  0  0  0  0  0  0  0  0  0  0
    5.4770   -1.1380   22.4290 C   0  0  0  0  0  0  0  0  0  0  0  0
    6.6120   -1.8950   21.6860 C   0  0  0  0  0  0  0  0  0  0  0  0
    3.0590    2.2270   23.3080 C   0  0  0  0  0  0  0  0  0  0  0  0
    7.6840   -2.4460   22.6620 C   0  0  1  0  0  0  0  0  0  0  0  0
    2.9340    1.4270   24.4910 O   0  0  0  0  0  0  0  0  0  0  0  0
    7.4620   -3.9330   22.9450 C   0  0  0  0  0  0  0  0  0  0  0  0
    8.9220   -2.1800   22.2140 C   0  0  0  0  0  0  0  0  0  0  0  0
   10.0770   -2.3460   23.2110 C   0  0  2  0  0  0  0  0  0  0  0  0
    6.4050   -4.1780   24.0280 C   0  0  0  0  0  0  0  0  0  0  0  0
    9.7250   -2.8140   24.4420 C   0  0  0  0  0  0  0  0  0  0  0  0
    6.8410   -4.3590   25.3430 C   0  0  0  0  0  0  0  0  0  0  0  0
    5.0210   -4.2240   23.7660 C   0  0  0  0  0  0  0  0  0  0  0  0
   10.8480   -1.0440   23.2960 C   0  0  0  0  0  0  0  0  0  0  0  0
    5.9140   -4.5720   26.3730 C   0  0  0  0  0  0  0  0  0  0  0  0
    4.1060   -4.4400   24.7910 C   0  0  0  0  0  0  0  0  0  0  0  0
    8.2100   -4.3390   25.7040 C   0  0  0  0  0  0  0  0  0  0  0  0
   10.1820    0.1680   23.9400 C   0  0  0  0  0  0  0  0  0  0  0  0
   12.1610   -0.8550   22.8100 C   0  0  0  0  0  0  0  0  0  0  0  0
   12.9690   -1.9230   22.1410 C   0  0  0  0  0  0  0  0  0  0  0  0
    4.5680   -4.6110   26.0930 C   0  0  0  0  0  0  0  0  0  0  0  0
    8.6580   -4.5170   27.0050 C   0  0  0  0  0  0  0  0  0  0  0  0
    6.3410   -4.7510   27.7060 C   0  0  0  0  0  0  0  0  0  0  0  0
   10.9360    1.4550   24.0120 C   0  0  0  0  0  0  0  0  0  0  0  0
   12.8220    0.3950   22.9160 C   0  0  0  0  0  0  0  0  0  0  0  0
    7.7020   -4.7180   27.9780 C   0  0  0  0  0  0  0  0  0  0  0  0
   12.2040    1.4980   23.5000 C   0  0  0  0  0  0  0  0  0  0  0  0
  1  2  1  0
  2  3  1  0
  1  4  1  0
  4  5  1  0
  3  6  1  0
  7  5  1  6
  6  8  2  0
  7  9  1  0
  7 10  1  0
 10 11  1  0
  9 12  1  0
 11 13  1  1
 12 14  1  0
 12 15  2  0
 11 16  1  0
 14 17  2  0
 15 18  1  0
 14 19  1  0
 16 20  2  0
 16 21  1  0
 21 22  1  0
 17 23  1  0
 18 23  2  0
 19 24  2  0
 17 25  1  0
 20 26  1  0
 21 27  2  0
 24 28  1  0
 25 28  2  0
 26 29  2  0
 27 29  1  0
M  END
