x0831_0-x1418_1-x0770_1-x1386_1-x0769_1
     RDKit          3D

 29 31  0  0  0  0  0  0  0  0999 V2000
    6.3770   -3.2350   19.8590 C   0  0  0  0  0  0  0  0  0  0  0  0
    7.3640   -3.0030   18.7460 C   0  0  0  0  0  0  0  0  0  0  0  0
    5.4080   -3.9780   19.6650 O   0  0  0  0  0  0  0  0  0  0  0  0
    6.6550   -2.6240   21.0720 N   0  0  0  0  0  0  0  0  0  0  0  0
    7.0340   -3.5590   22.1400 C   0  0  0  0  0  0  0  0  0  0  0  0
    7.3510   -1.3250   21.1210 C   0  0  0  0  0  0  0  0  0  0  0  0
    7.5110   -2.9850   23.2680 C   0  0  2  0  0  0  0  0  0  0  0  0
    8.6290   -1.5300   21.6410 C   0  0  0  0  0  0  0  0  0  0  0  0
    6.2870   -2.3350   23.9870 C   0  0  0  0  0  0  0  0  0  0  0  0
    8.5500   -1.9720   23.0280 N   0  0  0  0  0  0  0  0  0  0  0  0
    6.4920   -1.7530   25.3890 C   0  0  0  0  0  0  0  0  0  0  0  0
    9.9050   -2.2940   23.4720 C   0  0  0  0  0  0  0  0  0  0  0  0
    5.7300   -2.5160   26.3390 O   0  0  0  0  0  0  0  0  0  0  0  0
   10.7570   -1.0400   23.4930 C   0  0  0  0  0  0  0  0  0  0  0  0
    4.3660   -2.5900   26.1370 C   0  0  0  0  0  0  0  0  0  0  0  0
   10.2550    0.0690   24.1210 C   0  0  0  0  0  0  0  0  0  0  0  0
   12.0370   -0.9610   22.8790 C   0  0  0  0  0  0  0  0  0  0  0  0
   12.6560   -2.1280   22.1640 C   0  0  0  0  0  0  0  0  0  0  0  0
    3.8150   -3.8560   25.8870 C   0  0  0  0  0  0  0  0  0  0  0  0
    3.4930   -1.4940   26.1670 C   0  0  0  0  0  0  0  0  0  0  0  0
   10.9640    1.2390   24.1510 C   0  0  0  0  0  0  0  0  0  0  0  0
   12.7820    0.2290   22.9080 C   0  0  0  0  0  0  0  0  0  0  0  0
    4.8490   -5.2820   25.8380 S   0  0  0  0  0  0  0  0  0  0  0  0
    2.4480   -3.9780   25.6820 C   0  0  0  0  0  0  0  0  0  0  0  0
    2.1100   -1.5950   25.9660 C   0  0  0  0  0  0  0  0  0  0  0  0
   12.2040    1.3210   23.5560 C   0  0  0  0  0  0  0  0  0  0  0  0
    5.8490   -5.1270   26.8730 O   0  0  0  0  0  0  0  0  0  0  0  0
    3.8650   -6.6120   25.8130 O   0  0  0  0  0  0  0  0  0  0  0  0
    1.6380   -2.8580   25.7260 C   0  0  0  0  0  0  0  0  0  0  0  0
  1  2  1  0
  1  3  2  0
  1  4  1  0
  4  5  1  0
  4  6  1  0
  5  7  1  0
  6  8  1  0
  7  9  1  6
  7 10  1  0
  8 10  1  0
  9 11  1  0
 10 12  1  0
 11 13  1  0
 12 14  1  0
 13 15  1  0
 14 16  2  0
 14 17  1  0
 17 18  1  0
 15 19  2  0
 15 20  1  0
 16 21  1  0
 17 22  2  0
 19 23  1  0
 19 24  1  0
 20 25  2  0
 21 26  2  0
 22 26  1  0
 23 27  2  0
 23 28  2  0
 24 29  2  0
 25 29  1  0
M  END
