x0831_0-x1385_1-x1334_1-x0397_0-x1412_0
     RDKit          3D

 28 31  0  0  0  0  0  0  0  0999 V2000
    6.3940   -3.2710   19.8470 C   0  0  0  0  0  0  0  0  0  0  0  0
    7.3480   -2.9850   18.7000 C   0  0  0  0  0  0  0  0  0  0  0  0
    5.3960   -3.9820   19.6670 O   0  0  0  0  0  0  0  0  0  0  0  0
    6.7160   -2.7820   21.1010 N   0  0  0  0  0  0  0  0  0  0  0  0
    7.0870   -3.7220   22.1410 C   0  0  1  0  0  0  0  0  0  0  0  0
    7.5850   -1.5910   21.1120 C   0  0  0  0  0  0  0  0  0  0  0  0
    7.7310   -3.0920   23.2410 C   0  0  0  0  0  0  0  0  0  0  0  0
    8.9230   -1.9350   21.4760 C   0  0  0  0  0  0  0  0  0  0  0  0
    6.0370   -4.5090   22.5540 C   0  0  0  0  0  0  0  0  0  0  0  0
    8.9810   -2.3710   22.8410 N   0  0  0  0  0  0  0  0  0  0  0  0
    6.3100   -5.8290   23.2680 C   0  0  0  0  0  0  0  0  0  0  0  0
    5.6750   -6.0460   22.0440 C   0  0  0  0  0  0  0  0  0  0  0  0
    9.2560   -1.3110   23.7990 C   0  0  1  0  0  0  0  0  0  0  0  0
    9.4360   -2.0580   25.0090 C   0  0  0  0  0  0  0  0  0  0  0  0
   10.4400   -0.4370   23.5510 C   0  0  0  0  0  0  0  0  0  0  0  0
    8.1500   -2.5680   25.6470 C   0  0  0  0  0  0  0  0  0  0  0  0
   10.3590    0.8540   24.0230 C   0  0  0  0  0  0  0  0  0  0  0  0
   11.6680   -0.7930   22.8760 C   0  0  0  0  0  0  0  0  0  0  0  0
   11.9450   -2.1440   22.2910 C   0  0  0  0  0  0  0  0  0  0  0  0
    7.1150   -1.9210   25.6360 O   0  0  0  0  0  0  0  0  0  0  0  0
   11.3450    1.7800   23.8840 C   0  0  0  0  0  0  0  0  0  0  0  0
   12.7070    0.1480   22.7300 C   0  0  0  0  0  0  0  0  0  0  0  0
    8.3670   -3.8510   26.2360 C   0  0  0  0  0  0  0  0  0  0  0  0
   12.5090    1.4260   23.2430 C   0  0  0  0  0  0  0  0  0  0  0  0
    9.1370   -4.8860   25.7610 C   0  0  0  0  0  0  0  0  0  0  0  0
    7.6590   -4.2650   27.7460 S   0  0  0  0  0  0  0  0  0  0  0  0
    9.1690   -5.9850   26.5840 C   0  0  0  0  0  0  0  0  0  0  0  0
    8.4060   -5.8040   27.7180 C   0  0  0  0  0  0  0  0  0  0  0  0
  1  2  1  0
  1  3  2  0
  1  4  1  0
  4  5  1  0
  4  6  1  0
  5  7  1  0
  6  8  1  0
  5  9  1  1
  7 10  1  0
  8 10  1  0
  9 11  1  0
  9 12  1  0
 11 12  1  0
 10 13  1  0
 13 14  1  1
 13 15  1  0
 14 16  1  0
 15 17  2  0
 15 18  1  0
 18 19  1  0
 16 20  2  0
 17 21  1  0
 18 22  2  0
 16 23  1  0
 21 24  2  0
 22 24  1  0
 23 25  2  0
 23 26  1  0
 25 27  1  0
 26 28  1  0
 27 28  2  0
M  END
