x0831_0-x0397_0-x0692_1-x0434_2-x1334_0-x1412_1-x1375_1-x0770_1-x0831_1-x1374_1-x1385_1-x0426_1-x1334_1
     RDKit          3D

 43 48  0  0  0  0  0  0  0  0999 V2000
    2.1900   -7.1840   23.7340 O   0  0  0  0  0  0  0  0  0  0  0  0
    2.9600   -7.3940   24.8970 C   0  0  0  0  0  0  0  0  0  0  0  0
    4.3240   -7.4990   24.5230 O   0  0  0  0  0  0  0  0  0  0  0  0
    4.9020   -6.1800   24.5800 C   0  0  0  0  0  0  0  0  0  0  0  0
    5.9610   -5.9640   23.5470 C   0  0  2  0  0  0  0  0  0  0  0  0
    5.8540   -4.7590   22.7270 C   0  0  2  0  0  0  0  0  0  0  0  0
    5.7710   -6.4010   22.3110 C   0  0  0  0  0  0  0  0  0  0  0  0
    7.0400   -3.9870   22.2400 C   0  0  1  0  0  0  0  0  0  0  0  0
    6.5950   -2.9930   21.3150 N   0  0  0  0  0  0  0  0  0  0  0  0
    7.9380   -3.5110   23.4060 C   0  0  0  0  0  0  0  0  0  0  0  0
    6.3410   -3.3390   19.9810 C   0  0  0  0  0  0  0  0  0  0  0  0
    8.8490   -2.3480   23.1340 N   0  0  0  0  0  0  0  0  0  0  0  0
    7.1520   -1.8310   21.7210 C   0  0  2  0  0  0  0  0  0  0  0  0
    5.3670   -4.0610   19.7090 O   0  0  0  0  0  0  0  0  0  0  0  0
    7.2580   -2.9400   18.8440 C   0  0  0  0  0  0  0  0  0  0  0  0
   10.2580   -2.4390   23.4630 C   0  0  2  0  0  0  0  0  0  0  0  0
    6.7860   -0.5860   21.0020 C   0  0  0  0  0  0  0  0  0  0  0  0
    8.6630   -1.8850   21.8080 C   0  0  0  0  0  0  0  0  0  0  0  0
    5.3910   -0.1980   21.2850 C   0  0  1  0  0  0  0  0  0  0  0  0
   10.5660   -2.9730   24.8150 C   0  0  0  0  0  0  0  0  0  0  0  0
   10.8840   -1.1340   23.4740 C   0  0  0  0  0  0  0  0  0  0  0  0
    5.1150    0.7510   22.4420 C   0  0  0  0  0  0  0  0  0  0  0  0
    5.2740    0.5070   19.9990 C   0  0  0  0  0  0  0  0  0  0  0  0
   10.1780   -0.0270   24.2260 C   0  0  0  0  0  0  0  0  0  0  0  0
   12.2090   -0.9370   22.7420 C   0  0  0  0  0  0  0  0  0  0  0  0
    9.6540   -3.9230   25.5920 C   0  0  0  0  0  0  0  0  0  0  0  0
    3.7260    1.4170   22.3430 C   0  0  1  0  0  0  0  0  0  0  0  0
   12.9710   -1.9560   21.9690 C   0  0  0  0  0  0  0  0  0  0  0  0
    4.3160    1.4750   19.8380 C   0  0  0  0  0  0  0  0  0  0  0  0
    6.2040    0.1970   18.8380 C   0  0  0  0  0  0  0  0  0  0  0  0
   10.7770    1.2110   24.2290 C   0  0  0  0  0  0  0  0  0  0  0  0
   12.6180    0.3720   22.8930 C   0  0  0  0  0  0  0  0  0  0  0  0
   10.0350   -5.3610   25.8160 C   0  0  0  0  0  0  0  0  0  0  0  0
    8.0360   -3.6350   26.4310 S   0  0  0  0  0  0  0  0  0  0  0  0
    3.6340    2.4580   23.3530 N   0  0  0  0  0  0  0  0  0  0  0  0
    3.3440    1.8540   20.9220 C   0  0  0  0  0  0  0  0  0  0  0  0
    4.3120    2.1260   18.5080 C   0  0  0  0  0  0  0  0  0  0  0  0
    6.2320    0.7470   17.6470 N   0  0  0  0  0  0  0  0  0  0  0  0
   11.9830    1.3930   23.5690 C   0  0  0  0  0  0  0  0  0  0  0  0
    9.1370   -6.0500   26.5740 C   0  0  0  0  0  0  0  0  0  0  0  0
    8.0590   -5.3340   26.9950 C   0  0  0  0  0  0  0  0  0  0  0  0
    6.8290   -5.9990   27.9900 Cl  0  0  0  0  0  0  0  0  0  0  0  0
    5.1960    1.7940   17.4910 C   0  0  0  0  0  0  0  0  0  0  0  0
  1  2  1  0
  2  3  1  0
  3  4  1  0
  5  4  1  1
  5  6  1  0
  5  7  1  0
  6  7  1  6
  6  8  1  0
  8  9  1  0
  8 10  1  1
  9 11  1  0
 10 12  1  0
  9 13  1  0
 11 14  2  0
 11 15  1  0
 12 16  1  0
 13 17  1  6
 12 18  1  0
 13 18  1  0
 19 17  1  1
 16 20  1  1
 16 21  1  0
 19 22  1  0
 19 23  1  0
 21 24  2  0
 21 25  1  0
 20 26  1  0
 22 27  1  0
 25 28  1  0
 23 29  2  0
 23 30  1  0
 24 31  1  0
 25 32  2  0
 26 33  2  0
 26 34  1  0
 27 35  1  1
 27 36  1  0
 29 36  1  0
 29 37  1  0
 30 38  2  0
 31 39  2  0
 32 39  1  0
 33 40  1  0
 34 41  1  0
 40 41  2  0
 41 42  1  0
 37 43  2  0
 38 43  1  0
M  END
