x0831_0-x1418_1-x1385_1-x1334_0-x1412_1
     RDKit          3D

 24 26  0  0  0  0  0  0  0  0999 V2000
    6.3470   -3.1700   19.7620 C   0  0  0  0  0  0  0  0  0  0  0  0
    7.3480   -2.9680   18.6470 C   0  0  0  0  0  0  0  0  0  0  0  0
    5.4640   -4.0380   19.6910 O   0  0  0  0  0  0  0  0  0  0  0  0
    6.4840   -2.3560   20.8620 N   0  0  0  0  0  0  0  0  0  0  0  0
    6.2400   -2.9730   22.1630 C   0  0  0  0  0  0  0  0  0  0  0  0
    7.4140   -1.1990   20.9110 C   0  0  0  0  0  0  0  0  0  0  0  0
    7.5740   -3.2090   22.8950 C   0  0  0  0  0  0  0  0  0  0  0  0
    8.5970   -1.4800   21.5800 C   0  0  0  0  0  0  0  0  0  0  0  0
    8.3330   -1.9410   22.9350 N   0  0  0  0  0  0  0  0  0  0  0  0
    9.4770   -2.0050   23.8270 C   0  0  1  0  0  0  0  0  0  0  0  0
   10.0140   -3.3800   23.9150 C   0  0  0  0  0  0  0  0  0  0  0  0
   10.4660   -0.8760   23.6360 C   0  0  0  0  0  0  0  0  0  0  0  0
   10.1050    0.3360   24.2300 C   0  0  0  0  0  0  0  0  0  0  0  0
   11.7150   -0.9990   22.8930 C   0  0  0  0  0  0  0  0  0  0  0  0
    9.4000   -4.2000   25.0690 C   0  0  0  0  0  0  0  0  0  0  0  0
   12.1420   -2.2610   22.2300 C   0  0  0  0  0  0  0  0  0  0  0  0
   11.0110    1.5090   24.0940 C   0  0  0  0  0  0  0  0  0  0  0  0
   12.7010    0.1990   22.7410 C   0  0  0  0  0  0  0  0  0  0  0  0
    9.8690   -5.4470   25.3490 C   0  0  0  0  0  0  0  0  0  0  0  0
    8.1270   -3.7950   26.1740 S   0  0  0  0  0  0  0  0  0  0  0  0
   12.3220    1.4650   23.3560 C   0  0  0  0  0  0  0  0  0  0  0  0
    9.2650   -6.0650   26.3980 C   0  0  0  0  0  0  0  0  0  0  0  0
    8.2690   -5.3130   26.9980 C   0  0  0  0  0  0  0  0  0  0  0  0
    7.2770   -5.7130   28.3320 Cl  0  0  0  0  0  0  0  0  0  0  0  0
  1  2  1  0
  1  3  2  0
  1  4  1  0
  4  5  1  0
  4  6  1  0
  5  7  1  0
  6  8  1  0
  7  9  1  0
  8  9  1  0
  9 10  1  0
 10 11  1  6
 10 12  1  0
 12 13  2  0
 12 14  1  0
 11 15  1  0
 14 16  1  0
 13 17  1  0
 14 18  2  0
 15 19  2  0
 15 20  1  0
 17 21  2  0
 18 21  1  0
 19 22  1  0
 20 23  1  0
 22 23  2  0
 23 24  1  0
M  END
