x0831_0-x1418_1-x1374_1
     RDKit          3D

 25 27  0  0  0  0  0  0  0  0999 V2000
    6.3440   -3.0510   19.7050 C   0  0  0  0  0  0  0  0  0  0  0  0
    7.3870   -2.9510   18.6250 C   0  0  0  0  0  0  0  0  0  0  0  0
    5.4400   -3.9000   19.6200 O   0  0  0  0  0  0  0  0  0  0  0  0
    6.4540   -2.1920   20.7860 N   0  0  0  0  0  0  0  0  0  0  0  0
    6.2330   -2.8130   22.0480 C   0  0  0  0  0  0  0  0  0  0  0  0
    7.4830   -1.1420   20.9430 C   0  0  0  0  0  0  0  0  0  0  0  0
    7.5500   -3.4700   22.4860 C   0  0  2  0  0  0  0  0  0  0  0  0
    8.6270   -1.4910   21.6710 C   0  0  0  0  0  0  0  0  0  0  0  0
    7.0480   -4.5390   23.5040 C   0  0  0  0  0  0  0  0  0  0  0  0
    8.4460   -2.3210   22.8770 N   0  0  0  0  0  0  0  0  0  0  0  0
    9.7850   -2.5240   23.4860 C   0  0  0  0  0  0  0  0  0  0  0  0
    5.5730   -4.9540   23.1200 C   0  0  2  0  0  0  0  0  0  0  0  0
   10.5560   -1.2160   23.5400 C   0  0  0  0  0  0  0  0  0  0  0  0
    4.6930   -4.4570   24.0940 C   0  0  0  0  0  0  0  0  0  0  0  0
    5.4590   -6.3520   22.9670 C   0  0  0  0  0  0  0  0  0  0  0  0
   10.0090   -0.1110   24.1920 C   0  0  0  0  0  0  0  0  0  0  0  0
   11.8610   -1.1010   22.9020 C   0  0  0  0  0  0  0  0  0  0  0  0
    3.7520   -5.3120   24.6370 C   0  0  0  0  0  0  0  0  0  0  0  0
    3.9900   -6.8060   23.8910 S   0  0  0  0  0  0  0  0  0  0  0  0
   12.4990   -2.2400   22.1840 C   0  0  0  0  0  0  0  0  0  0  0  0
    2.9820   -7.1700   22.9220 O   0  0  0  0  0  0  0  0  0  0  0  0
    4.3710   -7.8100   24.8360 O   0  0  0  0  0  0  0  0  0  0  0  0
   10.7240    1.1940   24.2420 C   0  0  0  0  0  0  0  0  0  0  0  0
   12.6920    0.2270   22.9110 C   0  0  0  0  0  0  0  0  0  0  0  0
   12.0820    1.3690   23.5920 C   0  0  0  0  0  0  0  0  0  0  0  0
  1  2  1  0
  1  3  2  0
  1  4  1  0
  4  5  1  0
  4  6  1  0
  5  7  1  0
  6  8  1  0
  7  9  1  1
  7 10  1  0
  8 10  1  0
 10 11  1  0
 12  9  1  1
 11 13  1  0
 12 14  1  0
 12 15  1  0
 13 16  2  0
 13 17  1  0
 14 18  2  0
 15 19  1  0
 18 19  1  0
 17 20  1  0
 19 21  1  0
 19 22  1  0
 16 23  1  0
 17 24  2  0
 23 25  2  0
 24 25  1  0
M  END
