x0831_0-x1418_1-x1334_1-x1374_1-x0770_1
     RDKit          3D

 25 27  0  0  0  0  0  0  0  0999 V2000
    6.3410   -3.0320   19.7050 C   0  0  0  0  0  0  0  0  0  0  0  0
    7.3600   -2.9220   18.6050 C   0  0  0  0  0  0  0  0  0  0  0  0
    5.4540   -3.9040   19.6170 O   0  0  0  0  0  0  0  0  0  0  0  0
    6.4500   -2.1730   20.7830 N   0  0  0  0  0  0  0  0  0  0  0  0
    6.2630   -2.8400   22.0320 C   0  0  0  0  0  0  0  0  0  0  0  0
    7.4280   -1.0830   20.8920 C   0  0  0  0  0  0  0  0  0  0  0  0
    7.5820   -3.4040   22.5320 C   0  0  2  0  0  0  0  0  0  0  0  0
    8.6790   -1.4120   21.7230 C   0  0  0  0  0  0  0  0  0  0  0  0
    7.1390   -4.5470   23.5040 C   0  0  0  0  0  0  0  0  0  0  0  0
    8.4860   -2.2650   22.9170 N   0  0  0  0  0  0  0  0  0  0  0  0
    9.8050   -2.5350   23.5120 C   0  0  0  0  0  0  0  0  0  0  0  0
    5.6940   -4.9800   23.2070 C   0  0  2  0  0  0  0  0  0  0  0  0
   10.6780   -1.2440   23.5040 C   0  0  0  0  0  0  0  0  0  0  0  0
    4.6860   -4.4620   24.0810 C   0  0  0  0  0  0  0  0  0  0  0  0
    5.3620   -6.3510   23.0170 C   0  0  0  0  0  0  0  0  0  0  0  0
   10.0830   -0.0410   24.2220 C   0  0  0  0  0  0  0  0  0  0  0  0
   11.9410   -1.0860   22.8950 C   0  0  0  0  0  0  0  0  0  0  0  0
    3.7100   -5.3220   24.5260 C   0  0  0  0  0  0  0  0  0  0  0  0
    3.9340   -6.8750   23.8980 S   0  0  0  0  0  0  0  0  0  0  0  0
   12.6450   -2.1760   22.1470 C   0  0  0  0  0  0  0  0  0  0  0  0
    2.9490   -7.2540   22.9250 O   0  0  0  0  0  0  0  0  0  0  0  0
    4.3130   -7.8400   24.8920 O   0  0  0  0  0  0  0  0  0  0  0  0
   10.7740    1.1560   24.2540 C   0  0  0  0  0  0  0  0  0  0  0  0
   12.5860    0.1590   22.9760 C   0  0  0  0  0  0  0  0  0  0  0  0
   12.0020    1.2370   23.6380 C   0  0  0  0  0  0  0  0  0  0  0  0
  1  2  1  0
  1  3  2  0
  1  4  1  0
  4  5  1  0
  4  6  1  0
  5  7  1  0
  6  8  1  0
  7  9  1  1
  7 10  1  0
  8 10  1  0
 10 11  1  0
 12  9  1  1
 11 13  1  0
 12 14  1  0
 12 15  1  0
 13 16  2  0
 13 17  1  0
 14 18  2  0
 15 19  1  0
 18 19  1  0
 17 20  1  0
 19 21  1  0
 19 22  1  0
 16 23  1  0
 17 24  2  0
 23 25  2  0
 24 25  1  0
M  END
