x0831_0-x0770_1-x1374_1-x1334_1-x1375_1-x1386_1-x0692_1
     RDKit          3D

 27 29  0  0  0  0  0  0  0  0999 V2000
    6.3650   -3.2740   19.9080 C   0  0  0  0  0  0  0  0  0  0  0  0
    7.3210   -2.9780   18.7700 C   0  0  0  0  0  0  0  0  0  0  0  0
    5.4390   -4.0910   19.7630 O   0  0  0  0  0  0  0  0  0  0  0  0
    6.6480   -2.5650   21.1030 N   0  0  0  0  0  0  0  0  0  0  0  0
    7.4360   -1.3340   21.0970 C   0  0  0  0  0  0  0  0  0  0  0  0
    6.5930   -3.2570   22.4090 C   0  0  1  0  0  0  0  0  0  0  0  0
    6.3810   -4.7630   22.1700 C   0  0  0  0  0  0  0  0  0  0  0  0
    8.8220   -1.5500   21.7020 C   0  0  0  0  0  0  0  0  0  0  0  0
    7.8240   -3.0860   23.3390 C   0  0  0  0  0  0  0  0  0  0  0  0
    8.7520   -2.0130   23.0760 N   0  0  0  0  0  0  0  0  0  0  0  0
    5.0010   -5.1110   22.6230 C   0  0  2  0  0  0  0  0  0  0  0  0
   10.0790   -2.2750   23.5720 C   0  0  0  0  0  0  0  0  0  0  0  0
    4.6730   -4.5020   23.8320 C   0  0  0  0  0  0  0  0  0  0  0  0
    4.7980   -6.5980   22.7880 C   0  0  0  0  0  0  0  0  0  0  0  0
   10.9310   -1.0300   23.4810 C   0  0  0  0  0  0  0  0  0  0  0  0
    3.9240   -5.2440   24.7720 C   0  0  0  0  0  0  0  0  0  0  0  0
    3.6680   -6.7770   24.0510 S   0  0  0  0  0  0  0  0  0  0  0  0
    2.2310   -6.9590   23.4110 O   0  0  0  0  0  0  0  0  0  0  0  0
    4.1090   -7.9430   24.9940 O   0  0  0  0  0  0  0  0  0  0  0  0
   10.3000    0.2010   24.1150 C   0  0  0  0  0  0  0  0  0  0  0  0
   12.1860   -0.9580   22.8660 C   0  0  0  0  0  0  0  0  0  0  0  0
   12.8340   -2.1490   22.2230 C   0  0  0  0  0  0  0  0  0  0  0  0
   10.9120    1.3730   24.0910 C   0  0  0  0  0  0  0  0  0  0  0  0
   12.9480    0.3910   22.8240 C   0  0  0  0  0  0  0  0  0  0  0  0
    1.2750   -7.1950   24.4670 O   0  0  0  0  0  0  0  0  0  0  0  0
    4.6640   -7.3400   26.1830 O   0  0  0  0  0  0  0  0  0  0  0  0
   12.2650    1.6520   23.4720 C   0  0  0  0  0  0  0  0  0  0  0  0
  1  2  1  0
  1  3  2  0
  1  4  1  0
  4  5  1  0
  4  6  1  0
  6  7  1  6
  5  8  1  0
  6  9  1  0
  8 10  1  0
  9 10  1  0
 11  7  1  1
 10 12  1  0
 11 13  1  0
 11 14  1  0
 12 15  1  0
 13 16  2  0
 14 17  1  0
 16 17  1  0
 17 18  1  0
 17 19  1  0
 15 20  2  0
 15 21  1  0
 21 22  1  0
 20 23  1  0
 21 24  2  0
 18 25  1  0
 19 26  1  0
 23 27  2  0
 24 27  1  0
M  END
