x0831_0-x1412_1-x0831_1-x0434_2
     RDKit          3D

 24 26  0  0  0  0  0  0  0  0999 V2000
    6.3860   -3.4250   20.0290 C   0  0  0  0  0  0  0  0  0  0  0  0
    7.3180   -3.0110   18.8890 C   0  0  0  0  0  0  0  0  0  0  0  0
    5.4380   -4.1940   19.8110 O   0  0  0  0  0  0  0  0  0  0  0  0
    6.6810   -2.9310   21.3410 N   0  0  0  0  0  0  0  0  0  0  0  0
    7.2070   -1.5990   21.6600 C   0  0  2  0  0  0  0  0  0  0  0  0
    6.7740   -3.8780   22.4730 C   0  0  0  0  0  0  0  0  0  0  0  0
    7.5100   -0.8240   20.5050 N   0  0  0  0  0  0  0  0  0  0  0  0
    8.6040   -1.7210   22.3050 C   0  0  0  0  0  0  0  0  0  0  0  0
    8.0610   -3.9360   23.0680 C   0  0  0  0  0  0  0  0  0  0  0  0
    8.6770   -2.6250   23.4530 N   0  0  0  0  0  0  0  0  0  0  0  0
    6.6380   -0.0720   19.7740 C   0  0  0  0  0  0  0  0  0  0  0  0
   10.1500   -2.7010   23.6440 C   0  0  0  0  0  0  0  0  0  0  0  0
    6.9560    0.2470   18.5050 C   0  0  0  0  0  0  0  0  0  0  0  0
    5.4130    0.4100   20.2470 C   0  0  0  0  0  0  0  0  0  0  0  0
   10.8030   -1.3090   23.6300 C   0  0  0  0  0  0  0  0  0  0  0  0
    6.2330    0.9710   17.6570 N   0  0  0  0  0  0  0  0  0  0  0  0
    4.6070    1.1810   19.3990 C   0  0  0  0  0  0  0  0  0  0  0  0
   10.1210   -0.2660   24.3380 C   0  0  0  0  0  0  0  0  0  0  0  0
   12.0300   -1.0510   22.9410 C   0  0  0  0  0  0  0  0  0  0  0  0
    5.0630    1.4330   18.1220 C   0  0  0  0  0  0  0  0  0  0  0  0
   12.7590   -2.1120   22.1880 C   0  0  0  0  0  0  0  0  0  0  0  0
   10.7570    1.1190   24.3080 C   0  0  0  0  0  0  0  0  0  0  0  0
   12.6140    0.2230   22.9280 C   0  0  0  0  0  0  0  0  0  0  0  0
   11.9370    1.3790   23.6480 C   0  0  0  0  0  0  0  0  0  0  0  0
  1  2  1  0
  1  3  2  0
  1  4  1  0
  4  5  1  0
  4  6  1  0
  5  7  1  6
  5  8  1  0
  6  9  1  0
  8 10  1  0
  9 10  1  0
  7 11  1  0
 10 12  1  0
 11 13  2  0
 11 14  1  0
 12 15  1  0
 13 16  1  0
 14 17  2  0
 15 18  2  0
 15 19  1  0
 16 20  2  0
 17 20  1  0
 19 21  1  0
 18 22  1  0
 19 23  2  0
 22 24  2  0
 23 24  1  0
M  END
