x0831_0-x1334_0-x1385_1-x0397_0-x1412_1-x0770_1-x0692_1
     RDKit          3D

 27 30  0  0  0  0  0  0  0  0999 V2000
    6.3440   -3.2590   19.8510 C   0  0  0  0  0  0  0  0  0  0  0  0
    7.3770   -2.9850   18.7670 C   0  0  0  0  0  0  0  0  0  0  0  0
    5.3950   -4.0340   19.6900 O   0  0  0  0  0  0  0  0  0  0  0  0
    6.5520   -2.5860   21.0660 N   0  0  0  0  0  0  0  0  0  0  0  0
    6.4670   -3.2560   22.3750 C   0  0  2  0  0  0  0  0  0  0  0  0
    7.4350   -1.3870   21.0330 C   0  0  0  0  0  0  0  0  0  0  0  0
    7.8700   -3.5090   22.9540 C   0  0  0  0  0  0  0  0  0  0  0  0
    8.7250   -1.5830   21.8340 C   0  0  0  0  0  0  0  0  0  0  0  0
    5.6110   -4.5280   22.3270 C   0  0  0  0  0  0  0  0  0  0  0  0
    8.4650   -2.1710   23.1120 N   0  0  0  0  0  0  0  0  0  0  0  0
    6.3440   -5.6510   23.1040 C   0  0  0  0  0  0  0  0  0  0  0  0
    6.0650   -6.0160   21.9160 C   0  0  0  0  0  0  0  0  0  0  0  0
    9.5090   -1.9850   24.1260 C   0  0  1  0  0  0  0  0  0  0  0  0
   10.3030   -3.2080   24.2920 C   0  0  0  0  0  0  0  0  0  0  0  0
   10.5190   -0.9140   23.8200 C   0  0  0  0  0  0  0  0  0  0  0  0
   10.0980    0.4380   24.3300 C   0  0  0  0  0  0  0  0  0  0  0  0
   11.8870   -1.0000   23.0700 C   0  0  0  0  0  0  0  0  0  0  0  0
    9.6530   -4.1410   25.2690 C   0  0  0  0  0  0  0  0  0  0  0  0
   12.4710   -2.2400   22.4840 C   0  0  0  0  0  0  0  0  0  0  0  0
   11.0070    1.6170   24.0840 C   0  0  0  0  0  0  0  0  0  0  0  0
   12.6630    0.2550   22.9220 C   0  0  0  0  0  0  0  0  0  0  0  0
   10.0910   -5.4080   25.6440 C   0  0  0  0  0  0  0  0  0  0  0  0
    8.1800   -3.7780   26.1430 S   0  0  0  0  0  0  0  0  0  0  0  0
   12.3550    1.4750   23.3370 C   0  0  0  0  0  0  0  0  0  0  0  0
    9.2770   -5.9470   26.5480 C   0  0  0  0  0  0  0  0  0  0  0  0
    8.1870   -5.2700   26.9870 C   0  0  0  0  0  0  0  0  0  0  0  0
    7.0110   -5.7290   28.1410 Cl  0  0  0  0  0  0  0  0  0  0  0  0
  1  2  1  0
  1  3  2  0
  1  4  1  0
  4  5  1  0
  4  6  1  0
  5  7  1  0
  6  8  1  0
  5  9  1  6
  7 10  1  0
  8 10  1  0
  9 11  1  0
  9 12  1  0
 11 12  1  0
 10 13  1  0
 13 14  1  6
 13 15  1  0
 15 16  2  0
 15 17  1  0
 14 18  1  0
 17 19  1  0
 16 20  1  0
 17 21  2  0
 18 22  2  0
 18 23  1  0
 20 24  2  0
 21 24  1  0
 22 25  1  0
 23 26  1  0
 25 26  2  0
 26 27  1  0
M  END
