x0831_0-x1385_1-x1334_1-x0770_1-x0692_1
     RDKit          3D

 17 18  0  0  0  0  0  0  0  0999 V2000
    6.3480   -3.3300   19.9160 C   0  0  0  0  0  0  0  0  0  0  0  0
    7.3590   -3.0150   18.8170 C   0  0  0  0  0  0  0  0  0  0  0  0
    5.4120   -4.1190   19.7460 O   0  0  0  0  0  0  0  0  0  0  0  0
    6.5430   -2.6910   21.1460 N   0  0  0  0  0  0  0  0  0  0  0  0
    6.5900   -3.5660   22.3290 C   0  0  0  0  0  0  0  0  0  0  0  0
    7.2670   -1.4100   21.2840 C   0  0  0  0  0  0  0  0  0  0  0  0
    7.9340   -3.6400   23.0920 C   0  0  0  0  0  0  0  0  0  0  0  0
    8.7050   -1.7070   21.7320 C   0  0  0  0  0  0  0  0  0  0  0  0
    8.7990   -2.4560   22.9770 N   0  0  0  0  0  0  0  0  0  0  0  0
   10.0610   -2.4730   23.6010 C   0  0  0  0  0  0  0  0  0  0  0  0
   10.7170   -1.1720   23.6330 C   0  0  0  0  0  0  0  0  0  0  0  0
   10.2320   -0.0330   24.2530 C   0  0  0  0  0  0  0  0  0  0  0  0
   12.0840   -0.9550   22.9170 C   0  0  0  0  0  0  0  0  0  0  0  0
   12.7660   -2.0610   22.1860 C   0  0  0  0  0  0  0  0  0  0  0  0
   10.9300    1.1470   24.1960 C   0  0  0  0  0  0  0  0  0  0  0  0
   12.7670    0.2750   22.8950 C   0  0  0  0  0  0  0  0  0  0  0  0
   12.1350    1.3470   23.5660 C   0  0  0  0  0  0  0  0  0  0  0  0
  1  2  1  0
  1  3  2  0
  1  4  1  0
  4  5  1  0
  4  6  1  0
  5  7  1  0
  6  8  1  0
  7  9  1  0
  8  9  1  0
  9 10  1  0
 10 11  1  0
 11 12  2  0
 11 13  1  0
 13 14  1  0
 12 15  1  0
 13 16  2  0
 15 17  2  0
 16 17  1  0
M  END
