x0831_0-x1412_1-x0770_1-x0397_0-x1334_0-x0434_2-x0692_1-x1385_1
     RDKit          3D

 34 38  0  0  0  0  0  0  0  0999 V2000
    6.4110   -3.3640   19.8940 C   0  0  0  0  0  0  0  0  0  0  0  0
    7.3590   -3.0410   18.7490 C   0  0  0  0  0  0  0  0  0  0  0  0
    5.4250   -4.0920   19.7070 O   0  0  0  0  0  0  0  0  0  0  0  0
    6.7650   -2.8310   21.1370 N   0  0  0  0  0  0  0  0  0  0  0  0
    7.7140   -1.7150   21.0890 C   0  0  1  0  0  0  0  0  0  0  0  0
    7.1010   -3.8200   22.0500 C   0  0  1  0  0  0  0  0  0  0  0  0
    6.9510   -0.4770   21.2830 N   0  0  0  0  0  0  0  0  0  0  0  0
    8.9250   -1.8310   22.0330 C   0  0  0  0  0  0  0  0  0  0  0  0
    7.8160   -3.3660   23.3330 C   0  0  0  0  0  0  0  0  0  0  0  0
    5.9350   -4.7100   22.3670 C   0  0  0  0  0  0  0  0  0  0  0  0
    8.3900   -2.0060   23.2780 N   0  0  0  0  0  0  0  0  0  0  0  0
    5.9820   -5.8190   23.3940 C   0  0  0  0  0  0  0  0  0  0  0  0
    5.9600   -6.1570   21.9330 C   0  0  0  0  0  0  0  0  0  0  0  0
    6.4010    0.1160   20.1490 C   0  0  0  0  0  0  0  0  0  0  0  0
    9.5570   -1.8660   24.1500 C   0  0  1  0  0  0  0  0  0  0  0  0
    6.9210    0.0540   18.8260 C   0  0  0  0  0  0  0  0  0  0  0  0
    5.2190    0.8500   20.2870 C   0  0  0  0  0  0  0  0  0  0  0  0
   10.2730   -3.1820   24.2740 C   0  0  0  0  0  0  0  0  0  0  0  0
   10.5840   -0.7580   23.8220 C   0  0  0  0  0  0  0  0  0  0  0  0
    6.3700    0.6480   17.7520 N   0  0  0  0  0  0  0  0  0  0  0  0
    4.6300    1.4690   19.1820 C   0  0  0  0  0  0  0  0  0  0  0  0
   10.2430    0.5280   24.2770 C   0  0  0  0  0  0  0  0  0  0  0  0
   11.8250   -0.9270   23.1110 C   0  0  0  0  0  0  0  0  0  0  0  0
    9.6200   -4.1230   25.2680 C   0  0  0  0  0  0  0  0  0  0  0  0
    5.2370    1.3410   17.9550 C   0  0  0  0  0  0  0  0  0  0  0  0
   12.3170   -2.2320   22.5570 C   0  0  0  0  0  0  0  0  0  0  0  0
   11.0860    1.5970   24.0380 C   0  0  0  0  0  0  0  0  0  0  0  0
   12.6530    0.1900   22.9010 C   0  0  0  0  0  0  0  0  0  0  0  0
    9.9720   -5.5370   25.5050 C   0  0  0  0  0  0  0  0  0  0  0  0
    8.3260   -3.7220   26.3320 S   0  0  0  0  0  0  0  0  0  0  0  0
   12.2720    1.4310   23.3650 C   0  0  0  0  0  0  0  0  0  0  0  0
    9.1990   -6.1260   26.5080 C   0  0  0  0  0  0  0  0  0  0  0  0
    8.2790   -5.2790   27.0480 C   0  0  0  0  0  0  0  0  0  0  0  0
    7.1650   -5.6380   28.2960 Cl  0  0  0  0  0  0  0  0  0  0  0  0
  1  2  1  0
  1  3  2  0
  1  4  1  0
  4  5  1  0
  4  6  1  0
  5  7  1  1
  5  8  1  0
  6  9  1  0
  6 10  1  1
  8 11  1  0
  9 11  1  0
 10 12  1  0
 10 13  1  0
 12 13  1  0
  7 14  1  0
 11 15  1  0
 14 16  2  0
 14 17  1  0
 15 18  1  6
 15 19  1  0
 16 20  1  0
 17 21  2  0
 19 22  2  0
 19 23  1  0
 18 24  1  0
 20 25  2  0
 21 25  1  0
 23 26  1  0
 22 27  1  0
 23 28  2  0
 24 29  2  0
 24 30  1  0
 27 31  2  0
 28 31  1  0
 29 32  1  0
 30 33  1  0
 32 33  2  0
 33 34  1  0
M  END
