x0831_0-x1334_1-x0426_1-x0770_1-x0397_0
     RDKit          3D

 32 36  0  0  0  0  0  0  0  0999 V2000
    6.4270   -3.3530   19.9520 C   0  0  0  0  0  0  0  0  0  0  0  0
    7.3960   -2.9560   18.8470 C   0  0  0  0  0  0  0  0  0  0  0  0
    5.3970   -4.0050   19.6900 O   0  0  0  0  0  0  0  0  0  0  0  0
    6.7650   -3.0660   21.2940 N   0  0  0  0  0  0  0  0  0  0  0  0
    7.2850   -1.8040   21.8560 C   0  0  1  0  0  0  0  0  0  0  0  0
    7.3590   -4.1580   22.0140 C   0  0  1  0  0  0  0  0  0  0  0  0
    8.6390   -1.9030   22.0600 C   0  0  0  0  0  0  0  0  0  0  0  0
    7.9990   -3.9350   23.2630 C   0  0  0  0  0  0  0  0  0  0  0  0
    6.3770   -4.6140   23.0320 C   0  0  0  0  0  0  0  0  0  0  0  0
    6.9200   -0.5530   21.1030 C   0  0  0  0  0  0  0  0  0  0  0  0
    8.8540   -2.7140   23.2470 N   0  0  0  0  0  0  0  0  0  0  0  0
    6.6740   -5.8060   23.4260 C   0  0  0  0  0  0  0  0  0  0  0  0
    5.5610   -6.0740   22.8260 C   0  0  0  0  0  0  0  0  0  0  0  0
    5.4030   -0.3770   21.0610 C   0  0  1  0  0  0  0  0  0  0  0  0
   10.2660   -2.7810   23.6490 C   0  0  0  0  0  0  0  0  0  0  0  0
    4.9770    0.3250   22.2260 C   0  0  0  0  0  0  0  0  0  0  0  0
    5.2900    0.4090   19.8400 C   0  0  0  0  0  0  0  0  0  0  0  0
   10.8920   -1.3550   23.6300 C   0  0  0  0  0  0  0  0  0  0  0  0
    4.3380    1.7510   22.0090 C   0  0  2  0  0  0  0  0  0  0  0  0
    4.4470    1.4290   19.6950 C   0  0  0  0  0  0  0  0  0  0  0  0
    6.1370    0.0120   18.8410 C   0  0  0  0  0  0  0  0  0  0  0  0
   10.2840   -0.3120   24.2890 C   0  0  0  0  0  0  0  0  0  0  0  0
   12.0840   -1.0420   22.9480 C   0  0  0  0  0  0  0  0  0  0  0  0
    3.3900    1.9690   23.0980 N   0  0  0  0  0  0  0  0  0  0  0  0
    3.5460    1.8160   20.8280 C   0  0  0  0  0  0  0  0  0  0  0  0
    4.4640    2.0680   18.5080 C   0  0  0  0  0  0  0  0  0  0  0  0
    6.1680    0.6280   17.6660 N   0  0  0  0  0  0  0  0  0  0  0  0
   12.8230   -2.0950   22.1890 C   0  0  0  0  0  0  0  0  0  0  0  0
   10.7590    0.9740   24.3090 C   0  0  0  0  0  0  0  0  0  0  0  0
   12.6410    0.3840   22.9640 C   0  0  0  0  0  0  0  0  0  0  0  0
    5.3220    1.6720   17.4900 C   0  0  0  0  0  0  0  0  0  0  0  0
   11.9180    1.3730   23.6720 C   0  0  0  0  0  0  0  0  0  0  0  0
  1  2  1  0
  1  3  2  0
  1  4  1  0
  4  5  1  0
  4  6  1  0
  5  7  1  0
  6  8  1  0
  6  9  1  1
  5 10  1  6
  7 11  1  0
  8 11  1  0
  9 12  1  0
  9 13  1  0
 12 13  1  0
 14 10  1  1
 11 15  1  0
 14 16  1  0
 14 17  1  0
 15 18  1  0
 16 19  1  0
 17 20  2  0
 17 21  1  0
 18 22  2  0
 18 23  1  0
 19 24  1  1
 19 25  1  0
 20 25  1  0
 20 26  1  0
 21 27  2  0
 23 28  1  0
 22 29  1  0
 23 30  2  0
 26 31  2  0
 27 31  1  0
 29 32  2  0
 30 32  1  0
M  END
