x0831_0-x1385_1-x0540_3-x1418_0-x0692_1
     RDKit          3D

 24 25  0  0  0  0  0  0  0  0999 V2000
    6.3620   -3.2230   19.9080 C   0  0  0  0  0  0  0  0  0  0  0  0
    7.3440   -2.9810   18.7840 C   0  0  0  0  0  0  0  0  0  0  0  0
    5.4280   -4.0280   19.7340 O   0  0  0  0  0  0  0  0  0  0  0  0
    6.6090   -2.5280   21.1120 N   0  0  0  0  0  0  0  0  0  0  0  0
    6.5900   -3.3530   22.3430 C   0  0  0  0  0  0  0  0  0  0  0  0
    7.5770   -1.3870   21.0290 C   0  0  1  0  0  0  0  0  0  0  0  0
    7.0330   -0.0030   21.4920 C   0  0  0  0  0  0  0  0  0  0  0  0
    7.7290   -3.3000   23.0930 C   0  0  0  0  0  0  0  0  0  0  0  0
    8.7240   -1.6520   21.6710 C   0  0  0  0  0  0  0  0  0  0  0  0
    5.5160    0.0930   21.7450 C   0  0  0  0  0  0  0  0  0  0  0  0
    8.4180   -1.9870   23.0330 N   0  0  0  0  0  0  0  0  0  0  0  0
    4.8670    1.5050   21.5810 C   0  0  0  0  0  0  0  0  0  0  0  0
    9.5860   -1.9590   23.9180 C   0  0  1  0  0  0  0  0  0  0  0  0
    4.5630    2.1670   22.8560 N   0  0  0  0  0  0  0  0  0  0  0  0
   10.2880   -3.1270   23.7890 C   0  0  0  0  0  0  0  0  0  0  0  0
   10.5790   -0.8060   23.6920 C   0  0  0  0  0  0  0  0  0  0  0  0
    3.1940    2.2920   23.3480 C   0  0  0  0  0  0  0  0  0  0  0  0
   10.1430    0.4410   24.2100 C   0  0  0  0  0  0  0  0  0  0  0  0
   11.8540   -0.8710   23.0310 C   0  0  0  0  0  0  0  0  0  0  0  0
    2.9990    1.7290   24.4230 O   0  0  0  0  0  0  0  0  0  0  0  0
   12.4470   -2.1070   22.4290 C   0  0  0  0  0  0  0  0  0  0  0  0
   10.9150    1.5480   24.0790 C   0  0  0  0  0  0  0  0  0  0  0  0
   12.6600    0.2710   22.9000 C   0  0  0  0  0  0  0  0  0  0  0  0
   12.2670    1.5220   23.3920 C   0  0  0  0  0  0  0  0  0  0  0  0
  1  2  1  0
  1  3  2  0
  1  4  1  0
  4  5  1  0
  4  6  1  0
  6  7  1  1
  5  8  1  0
  6  9  1  0
  7 10  1  0
  8 11  1  0
  9 11  1  0
 10 12  1  0
 11 13  1  0
 12 14  1  0
 13 15  1  6
 13 16  1  0
 14 17  1  0
 16 18  2  0
 16 19  1  0
 17 20  2  0
 19 21  1  0
 18 22  1  0
 19 23  2  0
 22 24  2  0
 23 24  1  0
M  END
