x0831_0-x1374_1-x1334_1-x0770_1-x0434_2-x0692_1-x1385_1
     RDKit          3D

 32 35  0  0  0  0  0  0  0  0999 V2000
    6.4690   -3.2980   19.9800 C   0  0  0  0  0  0  0  0  0  0  0  0
    7.3920   -2.9700   18.8140 C   0  0  0  0  0  0  0  0  0  0  0  0
    5.4910   -4.0450   19.7590 O   0  0  0  0  0  0  0  0  0  0  0  0
    6.7760   -2.7840   21.2790 N   0  0  0  0  0  0  0  0  0  0  0  0
    7.3680   -1.4880   21.6270 C   0  0  2  0  0  0  0  0  0  0  0  0
    6.8450   -3.6700   22.4410 C   0  0  1  0  0  0  0  0  0  0  0  0
    6.2350   -5.0330   22.1340 C   0  0  0  0  0  0  0  0  0  0  0  0
    7.6490   -0.7800   20.4450 N   0  0  0  0  0  0  0  0  0  0  0  0
    8.6980   -1.5590   22.3860 C   0  0  0  0  0  0  0  0  0  0  0  0
    8.2550   -3.7900   22.9970 C   0  0  0  0  0  0  0  0  0  0  0  0
    8.8330   -2.5220   23.4840 N   0  0  0  0  0  0  0  0  0  0  0  0
    4.9100   -5.2180   22.8300 C   0  0  2  0  0  0  0  0  0  0  0  0
    6.7170   -0.0230   19.7750 C   0  0  0  0  0  0  0  0  0  0  0  0
   10.3100   -2.5530   23.6380 C   0  0  0  0  0  0  0  0  0  0  0  0
    4.8660   -4.6970   24.1210 C   0  0  0  0  0  0  0  0  0  0  0  0
    4.6270   -6.5540   22.9330 C   0  0  0  0  0  0  0  0  0  0  0  0
    6.9410    0.3160   18.3620 C   0  0  0  0  0  0  0  0  0  0  0  0
    5.5510    0.4540   20.3580 C   0  0  0  0  0  0  0  0  0  0  0  0
   10.8390   -1.3000   23.6340 C   0  0  0  0  0  0  0  0  0  0  0  0
    4.1710   -5.4720   25.0320 C   0  0  0  0  0  0  0  0  0  0  0  0
    3.5890   -6.8650   24.2610 S   0  0  0  0  0  0  0  0  0  0  0  0
    6.2000    1.0260   17.5210 N   0  0  0  0  0  0  0  0  0  0  0  0
    4.5650    1.3180   19.4870 C   0  0  0  0  0  0  0  0  0  0  0  0
    2.0970   -6.8060   23.7120 O   0  0  0  0  0  0  0  0  0  0  0  0
    3.9030   -8.2540   25.0550 O   0  0  0  0  0  0  0  0  0  0  0  0
   10.2020   -0.2070   24.3160 C   0  0  0  0  0  0  0  0  0  0  0  0
   12.0510   -1.0590   22.9290 C   0  0  0  0  0  0  0  0  0  0  0  0
    5.0650    1.5200   18.0300 C   0  0  0  0  0  0  0  0  0  0  0  0
   12.7720   -2.1350   22.1860 C   0  0  0  0  0  0  0  0  0  0  0  0
   10.7180    1.0670   24.3040 C   0  0  0  0  0  0  0  0  0  0  0  0
   12.6820    0.3270   22.8870 C   0  0  0  0  0  0  0  0  0  0  0  0
   12.0000    1.4940   23.6020 C   0  0  0  0  0  0  0  0  0  0  0  0
  1  2  1  0
  1  3  2  0
  1  4  1  0
  4  5  1  0
  4  6  1  0
  6  7  1  6
  5  8  1  6
  5  9  1  0
  6 10  1  0
  9 11  1  0
 10 11  1  0
 12  7  1  1
  8 13  1  0
 11 14  1  0
 12 15  1  0
 12 16  1  0
 13 17  2  0
 13 18  1  0
 14 19  1  0
 15 20  2  0
 16 21  1  0
 20 21  1  0
 17 22  1  0
 18 23  2  0
 21 24  1  0
 21 25  1  0
 19 26  2  0
 19 27  1  0
 22 28  2  0
 23 28  1  0
 27 29  1  0
 26 30  1  0
 27 31  2  0
 30 32  2  0
 31 32  1  0
M  END
