x0831_0-x0426_1-x1385_1-x1375_1-x1334_1-x1412_1-x0397_0-x1418_1-x0692_1-x1334_0-x0770_1-x0434_2
     RDKit          3D

 43 48  0  0  0  0  0  0  0  0999 V2000
    3.0600   -8.2010   24.1740 O   0  0  0  0  0  0  0  0  0  0  0  0
    3.3300   -6.9130   24.6820 C   0  0  0  0  0  0  0  0  0  0  0  0
    4.7230   -6.7230   24.6500 O   0  0  0  0  0  0  0  0  0  0  0  0
    5.1710   -6.8070   23.3100 C   0  0  0  0  0  0  0  0  0  0  0  0
    6.0660   -5.6890   22.9430 C   0  0  2  0  0  0  0  0  0  0  0  0
    5.6970   -4.3980   22.2290 C   0  0  2  0  0  0  0  0  0  0  0  0
    6.4950   -5.7110   21.5500 C   0  0  0  0  0  0  0  0  0  0  0  0
    6.4590   -3.0470   22.3900 C   0  0  1  0  0  0  0  0  0  0  0  0
    7.8090   -3.3460   23.0170 C   0  0  0  0  0  0  0  0  0  0  0  0
    6.5090   -2.2590   21.2290 C   0  0  1  0  0  0  0  0  0  0  0  0
    6.3880   -3.1690   19.9300 C   0  0  0  0  0  0  0  0  0  0  0  0
    5.4670   -1.1190   21.3140 C   0  0  1  0  0  0  0  0  0  0  0  0
    8.5530   -2.1220   23.3810 N   0  0  0  0  0  0  0  0  0  0  0  0
    7.8470   -1.4900   21.1480 C   0  0  0  0  0  0  0  0  0  0  0  0
    7.3710   -2.9670   18.7760 C   0  0  0  0  0  0  0  0  0  0  0  0
    5.5440   -4.0780   19.7870 O   0  0  0  0  0  0  0  0  0  0  0  0
    5.3420   -0.2270   22.5550 C   0  0  0  0  0  0  0  0  0  0  0  0
    9.9990   -2.3200   23.4340 C   0  0  2  0  0  0  0  0  0  0  0  0
    8.2310   -0.9800   22.5510 C   0  0  0  0  0  0  0  0  0  0  0  0
    5.3880   -0.1550   20.1120 C   0  0  0  0  0  0  0  0  0  0  0  0
    3.9170    0.1670   22.9190 C   0  0  0  0  0  0  0  0  0  0  0  0
   10.5670   -3.2690   24.4900 C   0  0  0  0  0  0  0  0  0  0  0  0
    4.4320    1.0230   19.9430 C   0  0  0  0  0  0  0  0  0  0  0  0
    6.2710   -0.4100   19.1210 C   0  0  0  0  0  0  0  0  0  0  0  0
   10.7580   -0.9980   23.4330 C   0  0  0  0  0  0  0  0  0  0  0  0
    3.5160    1.5490   22.3920 C   0  0  2  0  0  0  0  0  0  0  0  0
    3.3420    1.5480   20.8620 C   0  0  0  0  0  0  0  0  0  0  0  0
    4.5880    1.7660   18.6770 C   0  0  0  0  0  0  0  0  0  0  0  0
    6.4350    0.2570   17.9460 N   0  0  0  0  0  0  0  0  0  0  0  0
   10.2120    0.1230   23.9230 C   0  0  0  0  0  0  0  0  0  0  0  0
   12.2050   -0.8720   22.8580 C   0  0  0  0  0  0  0  0  0  0  0  0
    9.7140   -4.1240   25.3890 C   0  0  0  0  0  0  0  0  0  0  0  0
    4.4180    2.5830   22.8280 N   0  0  0  0  0  0  0  0  0  0  0  0
   12.9480   -2.0160   22.2600 C   0  0  0  0  0  0  0  0  0  0  0  0
    5.6500    1.3110   17.6790 C   0  0  0  0  0  0  0  0  0  0  0  0
   10.9920    1.3880   23.9000 C   0  0  0  0  0  0  0  0  0  0  0  0
   12.8750    0.4760   22.9030 C   0  0  0  0  0  0  0  0  0  0  0  0
   10.0210   -5.5030   25.6950 C   0  0  0  0  0  0  0  0  0  0  0  0
    8.2680   -3.7370   26.2560 S   0  0  0  0  0  0  0  0  0  0  0  0
   12.2630    1.5990   23.4220 C   0  0  0  0  0  0  0  0  0  0  0  0
    9.1750   -6.0870   26.5410 C   0  0  0  0  0  0  0  0  0  0  0  0
    8.1200   -5.2770   26.9970 C   0  0  0  0  0  0  0  0  0  0  0  0
    6.8330   -5.5750   28.0860 Cl  0  0  0  0  0  0  0  0  0  0  0  0
  1  2  1  0
  2  3  1  0
  3  4  1  0
  5  4  1  6
  5  6  1  0
  5  7  1  0
  6  7  1  6
  6  8  1  0
  8  9  1  6
  8 10  1  0
 10 11  1  6
 10 12  1  0
  9 13  1  0
 10 14  1  0
 11 15  1  0
 11 16  2  0
 12 17  1  1
 13 18  1  0
 13 19  1  0
 14 19  1  0
 12 20  1  0
 17 21  1  0
 18 22  1  1
 20 23  2  0
 20 24  1  0
 18 25  1  0
 21 26  1  0
 23 27  1  0
 26 27  1  0
 23 28  1  0
 24 29  2  0
 25 30  2  0
 25 31  1  0
 22 32  1  0
 26 33  1  6
 31 34  1  0
 28 35  2  0
 29 35  1  0
 30 36  1  0
 31 37  2  0
 32 38  2  0
 32 39  1  0
 36 40  2  0
 37 40  1  0
 38 41  1  0
 39 42  1  0
 41 42  2  0
 42 43  1  0
M  END
