x0831_0-x1374_1-x1334_1-x1412_1-x0434_2-x0736_1-x1386_0-x1412_0
     RDKit          3D

 41 45  0  0  0  0  0  0  0  0999 V2000
    6.4980   -3.2760   19.8410 C   0  0  0  0  0  0  0  0  0  0  0  0
    7.4270   -2.9870   18.6910 C   0  0  0  0  0  0  0  0  0  0  0  0
    5.4740   -3.9610   19.6560 O   0  0  0  0  0  0  0  0  0  0  0  0
    6.8690   -2.8250   21.1170 N   0  0  0  0  0  0  0  0  0  0  0  0
    7.5990   -1.5690   21.3180 C   0  0  2  0  0  0  0  0  0  0  0  0
    6.8740   -3.7440   22.2250 C   0  0  2  0  0  0  0  0  0  0  0  0
    5.4670   -3.5130   22.8360 C   0  0  0  0  0  0  0  0  0  0  0  0
    7.6910   -0.7150   20.2090 N   0  0  0  0  0  0  0  0  0  0  0  0
    9.0150   -1.8900   21.7970 C   0  0  0  0  0  0  0  0  0  0  0  0
    8.1550   -3.6170   23.0930 C   0  0  0  0  0  0  0  0  0  0  0  0
    8.8820   -2.3290   23.1350 N   0  0  0  0  0  0  0  0  0  0  0  0
    4.5920   -4.7010   23.1520 C   0  0  2  0  0  0  0  0  0  0  0  0
    6.7090    0.0180   19.6220 C   0  0  0  0  0  0  0  0  0  0  0  0
   10.0520   -2.1160   23.9500 C   0  0  1  0  0  0  0  0  0  0  0  0
    3.7570   -4.5070   24.3580 C   0  0  0  0  0  0  0  0  0  0  0  0
    5.1030   -6.1480   23.1990 C   0  0  0  0  0  0  0  0  0  0  0  0
    6.9330    0.3460   18.3860 C   0  0  0  0  0  0  0  0  0  0  0  0
    5.5220    0.4170   20.2700 C   0  0  0  0  0  0  0  0  0  0  0  0
    9.6260   -2.0230   25.3360 C   0  0  0  0  0  0  0  0  0  0  0  0
   10.8720   -3.3220   23.9490 C   0  0  0  0  0  0  0  0  0  0  0  0
   10.8230   -0.8450   23.6990 C   0  0  0  0  0  0  0  0  0  0  0  0
    3.1890   -5.5710   24.9690 C   0  0  0  0  0  0  0  0  0  0  0  0
    3.6650   -6.9040   24.0870 S   0  0  0  0  0  0  0  0  0  0  0  0
    6.1680    1.0530   17.5600 N   0  0  0  0  0  0  0  0  0  0  0  0
    4.6430    1.1660   19.5250 C   0  0  0  0  0  0  0  0  0  0  0  0
    2.6860   -7.4450   22.9680 O   0  0  0  0  0  0  0  0  0  0  0  0
    4.1680   -8.0920   24.9840 O   0  0  0  0  0  0  0  0  0  0  0  0
    8.2430   -2.5060   25.6060 C   0  0  0  0  0  0  0  0  0  0  0  0
   10.3550    0.3400   24.1460 C   0  0  0  0  0  0  0  0  0  0  0  0
   12.1750   -0.8580   22.9360 C   0  0  0  0  0  0  0  0  0  0  0  0
    4.9910    1.4910   18.1270 C   0  0  0  0  0  0  0  0  0  0  0  0
   12.8780   -2.0310   22.3430 C   0  0  0  0  0  0  0  0  0  0  0  0
    7.2750   -1.8420   25.2900 O   0  0  0  0  0  0  0  0  0  0  0  0
   10.9790    1.7010   24.0070 C   0  0  0  0  0  0  0  0  0  0  0  0
   12.8710    0.5090   22.7750 C   0  0  0  0  0  0  0  0  0  0  0  0
    8.4020   -3.8440   26.3000 C   0  0  0  0  0  0  0  0  0  0  0  0
   12.3140    1.8670   23.2960 C   0  0  0  0  0  0  0  0  0  0  0  0
    9.3600   -4.8840   25.7170 C   0  0  0  0  0  0  0  0  0  0  0  0
    7.5730   -4.3730   27.8170 S   0  0  0  0  0  0  0  0  0  0  0  0
    9.2740   -6.0230   26.6510 C   0  0  0  0  0  0  0  0  0  0  0  0
    8.4160   -5.8610   27.7200 C   0  0  0  0  0  0  0  0  0  0  0  0
  1  2  1  0
  1  3  2  0
  1  4  1  0
  4  5  1  0
  4  6  1  0
  6  7  1  1
  5  8  1  6
  5  9  1  0
  6 10  1  0
  9 11  1  0
 10 11  1  0
 12  7  1  1
  8 13  1  0
 11 14  1  0
 12 15  1  0
 12 16  1  0
 13 17  2  0
 13 18  1  0
 14 19  1  0
 14 20  1  1
 14 21  1  0
 15 22  2  0
 16 23  1  0
 22 23  1  0
 17 24  1  0
 18 25  2  0
 23 26  1  0
 23 27  1  0
 19 28  1  0
 21 29  2  0
 21 30  1  0
 24 31  2  0
 25 31  1  0
 30 32  1  0
 28 33  2  0
 29 34  1  0
 30 35  2  0
 28 36  1  0
 34 37  2  0
 35 37  1  0
 36 38  2  0
 36 39  1  0
 38 40  1  0
 39 41  1  0
 40 41  2  0
M  END
