x0831_0-x1334_1-x0434_2-x0397_0-x1412_0
     RDKit          3D

 35 39  0  0  0  0  0  0  0  0999 V2000
    6.4250   -3.2570   19.8300 C   0  0  0  0  0  0  0  0  0  0  0  0
    7.3740   -2.9500   18.6830 C   0  0  0  0  0  0  0  0  0  0  0  0
    5.4170   -3.9590   19.6620 O   0  0  0  0  0  0  0  0  0  0  0  0
    6.7860   -2.8030   21.1060 N   0  0  0  0  0  0  0  0  0  0  0  0
    7.4490   -1.5480   21.4860 C   0  0  2  0  0  0  0  0  0  0  0  0
    7.3730   -3.8630   21.9130 C   0  0  1  0  0  0  0  0  0  0  0  0
    7.6980   -0.6920   20.3800 N   0  0  0  0  0  0  0  0  0  0  0  0
    8.8730   -1.8900   21.8720 C   0  0  0  0  0  0  0  0  0  0  0  0
    7.9410   -3.5280   23.2130 C   0  0  0  0  0  0  0  0  0  0  0  0
    6.4350   -4.4950   22.9610 C   0  0  0  0  0  0  0  0  0  0  0  0
    8.8030   -2.4770   23.1440 N   0  0  0  0  0  0  0  0  0  0  0  0
    6.7800   -5.7300   23.2260 C   0  0  0  0  0  0  0  0  0  0  0  0
    5.6030   -5.8600   22.5790 C   0  0  0  0  0  0  0  0  0  0  0  0
    6.6720    0.0460   19.6710 C   0  0  0  0  0  0  0  0  0  0  0  0
   10.1550   -2.4120   23.7360 C   0  0  2  0  0  0  0  0  0  0  0  0
    6.9330    0.3430   18.3990 C   0  0  0  0  0  0  0  0  0  0  0  0
    5.4640    0.4630   20.2240 C   0  0  0  0  0  0  0  0  0  0  0  0
   10.1270   -2.4500   25.2080 C   0  0  0  0  0  0  0  0  0  0  0  0
   10.9340   -1.0990   23.5420 C   0  0  0  0  0  0  0  0  0  0  0  0
    6.1470    1.0170   17.5740 N   0  0  0  0  0  0  0  0  0  0  0  0
    4.5920    1.1860   19.4010 C   0  0  0  0  0  0  0  0  0  0  0  0
    8.7030   -2.7160   25.6260 C   0  0  0  0  0  0  0  0  0  0  0  0
   10.3790    0.0530   24.1700 C   0  0  0  0  0  0  0  0  0  0  0  0
   12.1100   -0.9400   22.8390 C   0  0  0  0  0  0  0  0  0  0  0  0
    4.9850    1.4360   18.0940 C   0  0  0  0  0  0  0  0  0  0  0  0
   12.8390   -2.0290   22.1040 C   0  0  0  0  0  0  0  0  0  0  0  0
    7.7850   -1.9470   25.3580 O   0  0  0  0  0  0  0  0  0  0  0  0
   10.9540    1.3020   24.1080 C   0  0  0  0  0  0  0  0  0  0  0  0
   12.6860    0.3200   22.7920 C   0  0  0  0  0  0  0  0  0  0  0  0
    8.5820   -3.9670   26.3720 C   0  0  0  0  0  0  0  0  0  0  0  0
   12.1440    1.4460   23.4040 C   0  0  0  0  0  0  0  0  0  0  0  0
    9.3940   -5.0150   26.0150 C   0  0  0  0  0  0  0  0  0  0  0  0
    7.5730   -4.3640   27.6930 S   0  0  0  0  0  0  0  0  0  0  0  0
    9.2200   -6.1100   26.7740 C   0  0  0  0  0  0  0  0  0  0  0  0
    8.2470   -5.9270   27.7600 C   0  0  0  0  0  0  0  0  0  0  0  0
  1  2  1  0
  1  3  2  0
  1  4  1  0
  4  5  1  0
  4  6  1  0
  5  7  1  6
  5  8  1  0
  6  9  1  0
  6 10  1  1
  8 11  1  0
  9 11  1  0
 10 12  1  0
 10 13  1  0
 12 13  1  0
  7 14  1  0
 11 15  1  0
 14 16  2  0
 14 17  1  0
 15 18  1  1
 15 19  1  0
 16 20  1  0
 17 21  2  0
 18 22  1  0
 19 23  2  0
 19 24  1  0
 20 25  2  0
 21 25  1  0
 24 26  1  0
 22 27  2  0
 23 28  1  0
 24 29  2  0
 22 30  1  0
 28 31  2  0
 29 31  1  0
 30 32  2  0
 30 33  1  0
 32 34  1  0
 33 35  1  0
 34 35  2  0
M  END
