x0831_0-x1334_1-x1374_1-x1412_1-x1418_0
     RDKit          3D

 26 28  0  0  0  0  0  0  0  0999 V2000
    6.3530   -3.2980   19.9450 C   0  0  0  0  0  0  0  0  0  0  0  0
    7.3240   -2.9820   18.8070 C   0  0  0  0  0  0  0  0  0  0  0  0
    5.4240   -4.1040   19.7420 O   0  0  0  0  0  0  0  0  0  0  0  0
    6.5630   -2.6850   21.1840 N   0  0  0  0  0  0  0  0  0  0  0  0
    7.1550   -1.3360   21.1890 C   0  0  0  0  0  0  0  0  0  0  0  0
    6.7690   -3.4010   22.4420 C   0  0  1  0  0  0  0  0  0  0  0  0
    6.3400   -4.8470   22.2850 C   0  0  0  0  0  0  0  0  0  0  0  0
    8.5800   -1.3380   21.7460 C   0  0  0  0  0  0  0  0  0  0  0  0
    8.1060   -3.4500   22.7660 C   0  0  0  0  0  0  0  0  0  0  0  0
    8.7580   -2.1420   22.9470 N   0  0  0  0  0  0  0  0  0  0  0  0
    4.9520   -5.1210   22.7990 C   0  0  2  0  0  0  0  0  0  0  0  0
   10.1940   -2.2180   23.1080 C   0  0  2  0  0  0  0  0  0  0  0  0
    4.8620   -4.7120   24.1340 C   0  0  0  0  0  0  0  0  0  0  0  0
    4.7960   -6.6330   22.8450 C   0  0  0  0  0  0  0  0  0  0  0  0
   10.7170   -3.1790   24.1370 C   0  0  0  0  0  0  0  0  0  0  0  0
   10.8470   -0.9390   23.2840 C   0  0  0  0  0  0  0  0  0  0  0  0
    4.2010   -5.5250   25.0130 C   0  0  0  0  0  0  0  0  0  0  0  0
    3.6900   -6.8700   24.1340 S   0  0  0  0  0  0  0  0  0  0  0  0
    2.3220   -6.6470   23.7150 O   0  0  0  0  0  0  0  0  0  0  0  0
    4.0000   -8.0230   24.9470 O   0  0  0  0  0  0  0  0  0  0  0  0
   10.2610    0.1850   23.9560 C   0  0  0  0  0  0  0  0  0  0  0  0
   12.1570   -0.8170   22.7340 C   0  0  0  0  0  0  0  0  0  0  0  0
   12.8120   -1.9550   22.0220 C   0  0  0  0  0  0  0  0  0  0  0  0
   10.9200    1.3700   24.0690 C   0  0  0  0  0  0  0  0  0  0  0  0
   12.8540    0.3730   22.8410 C   0  0  0  0  0  0  0  0  0  0  0  0
   12.1800    1.5290   23.5460 C   0  0  0  0  0  0  0  0  0  0  0  0
  1  2  1  0
  1  3  2  0
  1  4  1  0
  4  5  1  0
  4  6  1  0
  6  7  1  6
  5  8  1  0
  6  9  1  0
  8 10  1  0
  9 10  1  0
 11  7  1  1
 10 12  1  0
 11 13  1  0
 11 14  1  0
 12 15  1  1
 12 16  1  0
 13 17  2  0
 14 18  1  0
 17 18  1  0
 18 19  1  0
 18 20  1  0
 16 21  2  0
 16 22  1  0
 22 23  1  0
 21 24  1  0
 22 25  2  0
 24 26  2  0
 25 26  1  0
M  END
