x0831_0-x1334_1-x0434_2-x0397_0-x0692_1
     RDKit          3D

 27 30  0  0  0  0  0  0  0  0999 V2000
    6.4040   -3.3020   19.9200 C   0  0  0  0  0  0  0  0  0  0  0  0
    7.3390   -2.9820   18.7690 C   0  0  0  0  0  0  0  0  0  0  0  0
    5.4110   -4.0160   19.6990 O   0  0  0  0  0  0  0  0  0  0  0  0
    6.7200   -2.8680   21.2170 N   0  0  0  0  0  0  0  0  0  0  0  0
    7.4270   -1.6260   21.5610 C   0  0  2  0  0  0  0  0  0  0  0  0
    7.1250   -3.9170   22.1790 C   0  0  1  0  0  0  0  0  0  0  0  0
    7.5790   -0.7110   20.4570 N   0  0  0  0  0  0  0  0  0  0  0  0
    8.8500   -1.9390   21.9940 C   0  0  0  0  0  0  0  0  0  0  0  0
    8.0270   -3.6180   23.4190 C   0  0  0  0  0  0  0  0  0  0  0  0
    5.9040   -4.6970   22.6050 C   0  0  0  0  0  0  0  0  0  0  0  0
    8.8450   -2.4110   23.3420 N   0  0  0  0  0  0  0  0  0  0  0  0
    6.2290   -5.7410   23.4980 C   0  0  0  0  0  0  0  0  0  0  0  0
    5.6150   -6.3890   22.4040 C   0  0  0  0  0  0  0  0  0  0  0  0
    6.6470    0.0280   19.7790 C   0  0  0  0  0  0  0  0  0  0  0  0
   10.2730   -2.5220   23.6810 C   0  0  0  0  0  0  0  0  0  0  0  0
    7.0100    0.1750   18.4640 C   0  0  0  0  0  0  0  0  0  0  0  0
    5.4780    0.5720   20.3330 C   0  0  0  0  0  0  0  0  0  0  0  0
   10.8670   -1.1940   23.6740 C   0  0  0  0  0  0  0  0  0  0  0  0
    6.2200    0.8850   17.6440 N   0  0  0  0  0  0  0  0  0  0  0  0
    4.6500    1.3110   19.4840 C   0  0  0  0  0  0  0  0  0  0  0  0
   10.3230   -0.0660   24.2910 C   0  0  0  0  0  0  0  0  0  0  0  0
   12.0940   -0.9940   22.9830 C   0  0  0  0  0  0  0  0  0  0  0  0
    5.0140    1.4670   18.1710 C   0  0  0  0  0  0  0  0  0  0  0  0
   12.8250   -2.0820   22.2490 C   0  0  0  0  0  0  0  0  0  0  0  0
   10.9350    1.1780   24.2320 C   0  0  0  0  0  0  0  0  0  0  0  0
   12.7030    0.2560   22.9380 C   0  0  0  0  0  0  0  0  0  0  0  0
   12.1150    1.3340   23.5630 C   0  0  0  0  0  0  0  0  0  0  0  0
  1  2  1  0
  1  3  2  0
  1  4  1  0
  4  5  1  0
  4  6  1  0
  5  7  1  6
  5  8  1  0
  6  9  1  0
  6 10  1  1
  8 11  1  0
  9 11  1  0
 10 12  1  0
 10 13  1  0
 12 13  1  0
  7 14  1  0
 11 15  1  0
 14 16  2  0
 14 17  1  0
 15 18  1  0
 16 19  1  0
 17 20  2  0
 18 21  2  0
 18 22  1  0
 19 23  2  0
 20 23  1  0
 22 24  1  0
 21 25  1  0
 22 26  2  0
 25 27  2  0
 26 27  1  0
M  END
