x0831_0-x0770_1-x0981_1
     RDKit          3D

 29 30  0  0  0  0  0  0  0  0999 V2000
    4.0780   -5.8620   22.9940 C   0  0  0  0  0  0  0  0  0  0  0  0
    2.7050   -6.2340   23.5030 C   0  0  1  0  0  0  0  0  0  0  0  0
    2.3160   -7.4790   22.8640 N   0  0  0  0  0  0  0  0  0  0  0  0
    4.6920   -4.7530   23.0920 N   0  0  0  0  0  0  0  0  0  0  0  0
    2.6690   -6.2980   25.0250 C   0  0  0  0  0  0  0  0  0  0  0  0
    5.9950   -4.7330   22.4620 C   0  0  0  0  0  0  0  0  0  0  0  0
    1.2090   -7.5410   22.0620 C   0  0  0  0  0  0  0  0  0  0  0  0
    3.0880   -7.6960   25.3400 C   0  0  0  0  0  0  0  0  0  0  0  0
    6.5310   -3.3000   22.5050 C   0  0  2  0  0  0  0  0  0  0  0  0
    1.1540   -8.7770   21.2020 C   0  0  0  0  0  0  0  0  0  0  0  0
    0.3480   -6.6680   22.0330 O   0  0  0  0  0  0  0  0  0  0  0  0
    2.4580   -8.3370   26.3660 N   0  0  0  0  0  0  0  0  0  0  0  0
    3.9690   -8.2100   24.6800 O   0  0  0  0  0  0  0  0  0  0  0  0
    6.5450   -2.6590   21.1650 N   0  0  0  0  0  0  0  0  0  0  0  0
    7.9410   -3.4150   23.1470 C   0  0  0  0  0  0  0  0  0  0  0  0
    6.3510   -3.2980   19.9360 C   0  0  0  0  0  0  0  0  0  0  0  0
    8.7540   -2.2190   23.0690 N   0  0  0  0  0  0  0  0  0  0  0  0
    7.2760   -1.3910   21.1640 C   0  0  0  0  0  0  0  0  0  0  0  0
    7.3070   -2.9880   18.7830 C   0  0  0  0  0  0  0  0  0  0  0  0
    5.4370   -4.1300   19.7580 O   0  0  0  0  0  0  0  0  0  0  0  0
   10.1200   -2.3360   23.5530 C   0  0  0  0  0  0  0  0  0  0  0  0
    8.6880   -1.5880   21.7450 C   0  0  0  0  0  0  0  0  0  0  0  0
   10.9100   -1.0540   23.5130 C   0  0  0  0  0  0  0  0  0  0  0  0
   10.3350    0.0640   24.1450 C   0  0  0  0  0  0  0  0  0  0  0  0
   12.1580   -0.9080   22.8840 C   0  0  0  0  0  0  0  0  0  0  0  0
   12.8670   -2.0110   22.1730 C   0  0  0  0  0  0  0  0  0  0  0  0
   10.9740    1.2930   24.1430 C   0  0  0  0  0  0  0  0  0  0  0  0
   12.7890    0.3400   22.9040 C   0  0  0  0  0  0  0  0  0  0  0  0
   12.2040    1.4280   23.5200 C   0  0  0  0  0  0  0  0  0  0  0  0
  2  1  1  1
  2  3  1  0
  1  4  2  3
  2  5  1  0
  4  6  1  0
  3  7  1  0
  5  8  1  0
  9  6  1  6
  7 10  1  0
  7 11  2  0
  8 12  1  0
  8 13  2  0
  9 14  1  0
  9 15  1  0
 14 16  1  0
 15 17  1  0
 14 18  1  0
 16 19  1  0
 16 20  2  0
 17 21  1  0
 17 22  1  0
 18 22  1  0
 21 23  1  0
 23 24  2  0
 23 25  1  0
 25 26  1  0
 24 27  1  0
 25 28  2  0
 27 29  2  0
 28 29  1  0
M  END
