x0831_0-x1385_1-x1375_1-x0831_1-x1386_1-x0692_1-x0397_0
     RDKit          3D

 24 26  0  0  0  0  0  0  0  0999 V2000
    2.2310   -7.1970   24.2780 O   0  0  0  0  0  0  0  0  0  0  0  0
    3.2400   -7.4110   25.2430 C   0  0  0  0  0  0  0  0  0  0  0  0
    4.4890   -7.4580   24.5910 O   0  0  0  0  0  0  0  0  0  0  0  0
    5.0730   -6.1340   24.5620 C   0  0  0  0  0  0  0  0  0  0  0  0
    5.9670   -5.8380   23.3210 C   0  0  2  0  0  0  0  0  0  0  0  0
    5.7980   -4.7040   22.4290 C   0  0  2  0  0  0  0  0  0  0  0  0
    5.6280   -6.3820   22.1660 C   0  0  0  0  0  0  0  0  0  0  0  0
    7.0200   -3.8020   22.1890 C   0  0  2  0  0  0  0  0  0  0  0  0
    7.6760   -3.0960   23.4310 C   0  0  0  0  0  0  0  0  0  0  0  0
    6.5890   -2.7670   21.2210 N   0  0  0  0  0  0  0  0  0  0  0  0
    6.2970   -3.2950   19.9460 C   0  0  0  0  0  0  0  0  0  0  0  0
    8.7730   -2.1370   23.1090 N   0  0  0  0  0  0  0  0  0  0  0  0
    7.3330   -1.5180   21.2690 C   0  0  0  0  0  0  0  0  0  0  0  0
    7.2970   -2.9980   18.8440 C   0  0  0  0  0  0  0  0  0  0  0  0
    5.3250   -4.0180   19.6800 O   0  0  0  0  0  0  0  0  0  0  0  0
   10.0450   -2.3600   23.5780 C   0  0  0  0  0  0  0  0  0  0  0  0
    8.7800   -1.7590   21.7020 C   0  0  0  0  0  0  0  0  0  0  0  0
   10.7460   -1.0210   23.5880 C   0  0  0  0  0  0  0  0  0  0  0  0
   10.1740    0.2470   24.2250 C   0  0  0  0  0  0  0  0  0  0  0  0
   12.0540   -1.0840   22.8870 C   0  0  0  0  0  0  0  0  0  0  0  0
   12.6700   -2.2800   22.2340 C   0  0  0  0  0  0  0  0  0  0  0  0
   10.8650    1.4220   24.1650 C   0  0  0  0  0  0  0  0  0  0  0  0
   12.7780    0.2890   22.8750 C   0  0  0  0  0  0  0  0  0  0  0  0
   12.1060    1.5190   23.5410 C   0  0  0  0  0  0  0  0  0  0  0  0
  1  2  1  0
  2  3  1  0
  3  4  1  0
  5  4  1  1
  5  6  1  0
  5  7  1  0
  6  7  1  6
  6  8  1  0
  8  9  1  1
  8 10  1  0
 10 11  1  0
  9 12  1  0
 10 13  1  0
 11 14  1  0
 11 15  2  0
 12 16  1  0
 12 17  1  0
 13 17  1  0
 16 18  1  0
 18 19  2  0
 18 20  1  0
 20 21  1  0
 19 22  1  0
 20 23  2  0
 22 24  2  0
 23 24  1  0
M  END
