x0831_0-x0770_1-x0692_1-x0397_0
     RDKit          3D

 20 22  0  0  0  0  0  0  0  0999 V2000
    6.2150   -3.2880   19.9300 C   0  0  0  0  0  0  0  0  0  0  0  0
    7.2340   -3.0030   18.8370 C   0  0  0  0  0  0  0  0  0  0  0  0
    5.2590   -4.0250   19.6640 O   0  0  0  0  0  0  0  0  0  0  0  0
    6.4520   -2.7530   21.2020 N   0  0  0  0  0  0  0  0  0  0  0  0
    7.0680   -1.4190   21.2310 C   0  0  0  0  0  0  0  0  0  0  0  0
    6.9460   -3.6570   22.2360 C   0  0  1  0  0  0  0  0  0  0  0  0
    8.5000   -1.5130   21.7670 C   0  0  0  0  0  0  0  0  0  0  0  0
    7.6030   -3.0260   23.4720 C   0  0  0  0  0  0  0  0  0  0  0  0
    5.9190   -4.6690   22.6530 C   0  0  0  0  0  0  0  0  0  0  0  0
    8.5620   -1.9580   23.1700 N   0  0  0  0  0  0  0  0  0  0  0  0
    6.1930   -5.8560   23.3080 C   0  0  0  0  0  0  0  0  0  0  0  0
    5.9100   -6.2330   22.0920 C   0  0  0  0  0  0  0  0  0  0  0  0
    9.9560   -2.2420   23.5270 C   0  0  0  0  0  0  0  0  0  0  0  0
   10.7790   -0.9870   23.5120 C   0  0  0  0  0  0  0  0  0  0  0  0
   10.2490    0.1330   24.1050 C   0  0  0  0  0  0  0  0  0  0  0  0
   12.0570   -0.9370   22.8960 C   0  0  0  0  0  0  0  0  0  0  0  0
   12.6580   -2.1450   22.2360 C   0  0  0  0  0  0  0  0  0  0  0  0
   11.0070    1.4410   24.1010 C   0  0  0  0  0  0  0  0  0  0  0  0
   12.8210    0.2390   22.8630 C   0  0  0  0  0  0  0  0  0  0  0  0
   12.3540    1.4250   23.4290 C   0  0  0  0  0  0  0  0  0  0  0  0
  1  2  1  0
  1  3  2  0
  1  4  1  0
  4  5  1  0
  4  6  1  0
  5  7  1  0
  6  8  1  0
  6  9  1  1
  7 10  1  0
  8 10  1  0
  9 11  1  0
  9 12  1  0
 11 12  1  0
 10 13  1  0
 13 14  1  0
 14 15  2  0
 14 16  1  0
 16 17  1  0
 15 18  1  0
 16 19  2  0
 18 20  2  0
 19 20  1  0
M  END
