x0831_0-x1418_1-x1418_0-x0770_1
     RDKit          3D

 18 19  0  0  0  0  0  0  0  0999 V2000
    6.3210   -3.2590   19.8800 C   0  0  0  0  0  0  0  0  0  0  0  0
    7.2990   -2.9870   18.7430 C   0  0  0  0  0  0  0  0  0  0  0  0
    5.4050   -4.0790   19.7140 O   0  0  0  0  0  0  0  0  0  0  0  0
    6.5210   -2.5890   21.0860 N   0  0  0  0  0  0  0  0  0  0  0  0
    6.5470   -3.3220   22.3470 C   0  0  0  0  0  0  0  0  0  0  0  0
    7.2060   -1.2950   21.1660 C   0  0  0  0  0  0  0  0  0  0  0  0
    7.9250   -3.2440   23.0670 C   0  0  0  0  0  0  0  0  0  0  0  0
    8.5350   -1.4420   21.5000 C   0  0  0  0  0  0  0  0  0  0  0  0
    8.7390   -2.0280   22.8260 N   0  0  0  0  0  0  0  0  0  0  0  0
   10.1000   -2.2290   23.0490 C   0  0  2  0  0  0  0  0  0  0  0  0
   10.4420   -3.0970   24.1750 C   0  0  0  0  0  0  0  0  0  0  0  0
   10.7810   -0.9280   23.2490 C   0  0  0  0  0  0  0  0  0  0  0  0
   10.1950    0.1430   23.9080 C   0  0  0  0  0  0  0  0  0  0  0  0
   12.1290   -0.7970   22.7180 C   0  0  0  0  0  0  0  0  0  0  0  0
   12.8090   -1.9280   21.9990 C   0  0  0  0  0  0  0  0  0  0  0  0
   10.8630    1.2880   24.0380 C   0  0  0  0  0  0  0  0  0  0  0  0
   12.9090    0.5210   22.8690 C   0  0  0  0  0  0  0  0  0  0  0  0
   12.2660    1.4880   23.4950 C   0  0  0  0  0  0  0  0  0  0  0  0
  1  2  1  0
  1  3  2  0
  1  4  1  0
  4  5  1  0
  4  6  1  0
  5  7  1  0
  6  8  1  0
  7  9  1  0
  8  9  1  0
  9 10  1  0
 10 11  1  1
 10 12  1  0
 12 13  2  0
 12 14  1  0
 14 15  1  0
 13 16  1  0
 14 17  2  0
 16 18  2  0
 17 18  1  0
M  END
