x0831_0-x1418_1-x1334_1-x1412_1-x1412_0
     RDKit          3D

 25 27  0  0  0  0  0  0  0  0999 V2000
    6.3200   -3.2300   19.8220 C   0  0  0  0  0  0  0  0  0  0  0  0
    7.2980   -2.9620   18.6910 C   0  0  0  0  0  0  0  0  0  0  0  0
    5.4310   -4.0860   19.7200 O   0  0  0  0  0  0  0  0  0  0  0  0
    6.4970   -2.4800   20.9980 N   0  0  0  0  0  0  0  0  0  0  0  0
    6.4700   -3.1920   22.2570 C   0  0  0  0  0  0  0  0  0  0  0  0
    7.2960   -1.2510   21.0310 C   0  0  0  0  0  0  0  0  0  0  0  0
    7.8900   -3.3030   22.8950 C   0  0  0  0  0  0  0  0  0  0  0  0
    8.6410   -1.5410   21.4170 C   0  0  0  0  0  0  0  0  0  0  0  0
    8.7340   -2.1000   22.7640 N   0  0  0  0  0  0  0  0  0  0  0  0
   10.0890   -2.1950   23.1160 C   0  0  2  0  0  0  0  0  0  0  0  0
   10.1610   -2.8870   24.4160 C   0  0  0  0  0  0  0  0  0  0  0  0
   10.8470   -0.9010   23.2230 C   0  0  0  0  0  0  0  0  0  0  0  0
    8.8290   -2.8360   25.1310 C   0  0  0  0  0  0  0  0  0  0  0  0
   10.2460    0.2050   23.8100 C   0  0  0  0  0  0  0  0  0  0  0  0
   12.0940   -0.7660   22.7710 C   0  0  0  0  0  0  0  0  0  0  0  0
   12.8200   -1.9050   22.1170 C   0  0  0  0  0  0  0  0  0  0  0  0
    7.9980   -1.9490   24.9650 O   0  0  0  0  0  0  0  0  0  0  0  0
   11.0100    1.3800   23.8730 C   0  0  0  0  0  0  0  0  0  0  0  0
   12.7900    0.4580   22.8790 C   0  0  0  0  0  0  0  0  0  0  0  0
    8.7010   -3.9920   26.0210 C   0  0  0  0  0  0  0  0  0  0  0  0
   12.2470    1.6150   23.4520 C   0  0  0  0  0  0  0  0  0  0  0  0
    9.5540   -5.0900   25.9290 C   0  0  0  0  0  0  0  0  0  0  0  0
    7.5350   -4.1800   27.2770 S   0  0  0  0  0  0  0  0  0  0  0  0
    9.3260   -6.0920   26.8130 C   0  0  0  0  0  0  0  0  0  0  0  0
    8.2480   -5.7970   27.6670 C   0  0  0  0  0  0  0  0  0  0  0  0
  1  2  1  0
  1  3  2  0
  1  4  1  0
  4  5  1  0
  4  6  1  0
  5  7  1  0
  6  8  1  0
  7  9  1  0
  8  9  1  0
  9 10  1  0
 10 11  1  1
 10 12  1  0
 11 13  1  0
 12 14  2  0
 12 15  1  0
 15 16  1  0
 13 17  2  0
 14 18  1  0
 15 19  2  0
 13 20  1  0
 18 21  2  0
 19 21  1  0
 20 22  2  0
 20 23  1  0
 22 24  1  0
 23 25  1  0
 24 25  2  0
M  END
