x0831_1-x0981_1-x0874_0-x0387_0-x1384_2
     RDKit          3D

 31 33  0  0  0  0  0  0  0  0999 V2000
    2.4840   -6.2090   23.6940 C   0  0  1  0  0  0  0  0  0  0  0  0
    2.6800   -7.0760   22.7540 N   0  0  0  0  0  0  0  0  0  0  0  0
    1.4940   -7.4840   22.0930 C   0  0  0  0  0  0  0  0  0  0  0  0
    1.7910   -7.0120   24.7570 C   0  0  0  0  0  0  0  0  0  0  0  0
    3.5220   -5.5280   24.5470 C   0  0  0  0  0  0  0  0  0  0  0  0
    2.7820   -7.9790   25.3130 C   0  0  0  0  0  0  0  0  0  0  0  0
    4.6700   -4.8120   24.9450 C   0  0  0  0  0  0  0  0  0  0  0  0
    3.8200   -5.5180   23.1070 C   0  0  0  0  0  0  0  0  0  0  0  0
    1.3940   -8.7580   21.2880 C   0  0  0  0  0  0  0  0  0  0  0  0
    0.2460   -6.7740   22.0450 O   0  0  0  0  0  0  0  0  0  0  0  0
    2.4100   -8.5300   26.4950 N   0  0  0  0  0  0  0  0  0  0  0  0
    3.8270   -8.2210   24.7360 O   0  0  0  0  0  0  0  0  0  0  0  0
    4.8990   -4.9550   22.3750 C   0  0  0  0  0  0  0  0  0  0  0  0
    5.7300   -4.2340   24.2970 C   0  0  0  0  0  0  0  0  0  0  0  0
    5.8720   -4.2810   22.9960 C   0  0  0  0  0  0  0  0  0  0  0  0
    7.0480   -3.6020   22.3460 C   0  0  1  0  0  0  0  0  0  0  0  0
    6.5810   -2.8420   21.1750 N   0  0  0  0  0  0  0  0  0  0  0  0
    7.7220   -2.8070   23.2710 C   0  0  0  0  0  0  0  0  0  0  0  0
    6.3270   -3.3740   19.9210 C   0  0  0  0  0  0  0  0  0  0  0  0
    8.9150   -2.1050   22.8040 N   0  0  0  0  0  0  0  0  0  0  0  0
    6.3480   -1.3930   21.3420 C   0  0  0  0  0  0  0  0  0  0  0  0
    5.3810   -4.1380   19.7300 O   0  0  0  0  0  0  0  0  0  0  0  0
    7.2950   -3.0110   18.8070 C   0  0  0  0  0  0  0  0  0  0  0  0
    9.6630   -1.4440   23.8900 C   0  0  0  0  0  0  0  0  0  0  0  0
    8.7470   -1.4350   21.6490 C   0  0  0  0  0  0  0  0  0  0  0  0
    7.5570   -0.6760   21.4310 C   0  0  0  0  0  0  0  0  0  0  0  0
   11.0270   -1.1260   23.3810 C   0  0  0  0  0  0  0  0  0  0  0  0
   11.8190   -0.0550   23.7560 C   0  0  0  0  0  0  0  0  0  0  0  0
   11.6590   -1.9110   22.4330 C   0  0  0  0  0  0  0  0  0  0  0  0
   13.0350   -0.0330   23.0910 C   0  0  0  0  0  0  0  0  0  0  0  0
   13.2060   -1.3350   22.0140 S   0  0  0  0  0  0  0  0  0  0  0  0
  1  2  1  0
  2  3  1  0
  1  4  1  1
  1  5  1  0
  4  6  1  0
  5  7  2  0
  5  8  1  0
  3  9  1  0
  3 10  2  0
  6 11  1  0
  6 12  2  0
  8 13  2  0
  7 14  1  0
 13 15  1  0
 14 15  2  0
 16 15  1  1
 16 17  1  0
 16 18  1  0
 17 19  1  0
 18 20  1  0
 17 21  1  0
 19 22  2  0
 19 23  1  0
 20 24  1  0
 20 25  1  0
 21 26  1  0
 25 26  1  0
 24 27  1  0
 27 28  1  0
 27 29  2  0
 28 30  2  0
 29 31  1  0
 30 31  1  0
M  END
