x0831_0-x1374_1-x0770_1-x1386_0-x0692_1
     RDKit          3D

 26 28  0  0  0  0  0  0  0  0999 V2000
    6.3290   -3.2250   19.8270 C   0  0  0  0  0  0  0  0  0  0  0  0
    7.3410   -2.9700   18.7320 C   0  0  0  0  0  0  0  0  0  0  0  0
    5.3580   -3.9720   19.6570 O   0  0  0  0  0  0  0  0  0  0  0  0
    6.5900   -2.5890   21.0460 N   0  0  0  0  0  0  0  0  0  0  0  0
    7.2990   -1.3030   21.1500 C   0  0  0  0  0  0  0  0  0  0  0  0
    6.6130   -3.4260   22.2590 C   0  0  1  0  0  0  0  0  0  0  0  0
    6.2310   -4.8770   21.9860 C   0  0  0  0  0  0  0  0  0  0  0  0
    8.7050   -1.4270   21.7720 C   0  0  0  0  0  0  0  0  0  0  0  0
    7.9610   -3.3930   23.0230 C   0  0  0  0  0  0  0  0  0  0  0  0
    8.6160   -2.0420   23.1180 N   0  0  0  0  0  0  0  0  0  0  0  0
    4.9630   -5.2850   22.6390 C   0  0  2  0  0  0  0  0  0  0  0  0
    9.8240   -2.0020   23.9710 C   0  0  1  0  0  0  0  0  0  0  0  0
    4.2620   -4.4880   23.7380 C   0  0  0  0  0  0  0  0  0  0  0  0
    5.2880   -6.4840   23.2410 C   0  0  0  0  0  0  0  0  0  0  0  0
   10.5520   -3.3280   23.9120 C   0  0  0  0  0  0  0  0  0  0  0  0
   10.7230   -0.7780   23.7300 C   0  0  0  0  0  0  0  0  0  0  0  0
    3.5310   -5.3560   24.6810 C   0  0  0  0  0  0  0  0  0  0  0  0
    3.8340   -6.9170   24.0570 S   0  0  0  0  0  0  0  0  0  0  0  0
    2.9010   -7.3180   23.0390 O   0  0  0  0  0  0  0  0  0  0  0  0
    4.1700   -7.8820   25.0690 O   0  0  0  0  0  0  0  0  0  0  0  0
   10.2420    0.4560   24.2500 C   0  0  0  0  0  0  0  0  0  0  0  0
   11.9800   -0.8180   23.0370 C   0  0  0  0  0  0  0  0  0  0  0  0
   12.5750   -2.0650   22.4410 C   0  0  0  0  0  0  0  0  0  0  0  0
   10.9900    1.5310   24.0640 C   0  0  0  0  0  0  0  0  0  0  0  0
   12.7190    0.3730   22.8910 C   0  0  0  0  0  0  0  0  0  0  0  0
   12.2380    1.5100   23.3850 C   0  0  0  0  0  0  0  0  0  0  0  0
  1  2  1  0
  1  3  2  0
  1  4  1  0
  4  5  1  0
  4  6  1  0
  6  7  1  6
  5  8  1  0
  6  9  1  0
  8 10  1  0
  9 10  1  0
 11  7  1  1
 10 12  1  0
 11 13  1  0
 11 14  1  0
 12 15  1  6
 12 16  1  0
 13 17  2  0
 14 18  1  0
 17 18  1  0
 18 19  1  0
 18 20  1  0
 16 21  2  0
 16 22  1  0
 22 23  1  0
 21 24  1  0
 22 25  2  0
 24 26  2  0
 25 26  1  0
M  END
