x0831_0-x1385_1-x0540_3
     RDKit          3D

 23 24  0  0  0  0  0  0  0  0999 V2000
    6.2420   -3.3190   19.9970 C   0  0  0  0  0  0  0  0  0  0  0  0
    7.2450   -2.9790   18.9000 C   0  0  0  0  0  0  0  0  0  0  0  0
    5.3370   -4.1160   19.7290 O   0  0  0  0  0  0  0  0  0  0  0  0
    6.3980   -2.7380   21.2780 N   0  0  0  0  0  0  0  0  0  0  0  0
    6.5300   -3.6520   22.4250 C   0  0  0  0  0  0  0  0  0  0  0  0
    7.0360   -1.4490   21.5280 C   0  0  2  0  0  0  0  0  0  0  0  0
    6.5310   -0.2130   20.7540 C   0  0  0  0  0  0  0  0  0  0  0  0
    7.9490   -3.6890   23.0770 C   0  0  0  0  0  0  0  0  0  0  0  0
    8.5370   -1.6300   21.8650 C   0  0  0  0  0  0  0  0  0  0  0  0
    5.2280    0.4890   21.2210 C   0  0  0  0  0  0  0  0  0  0  0  0
    8.6750   -2.3980   23.1280 N   0  0  0  0  0  0  0  0  0  0  0  0
    5.3340    1.3610   22.4760 C   0  0  0  0  0  0  0  0  0  0  0  0
   10.0980   -2.5210   23.4800 C   0  0  0  0  0  0  0  0  0  0  0  0
    4.2400    2.3290   22.5430 N   0  0  0  0  0  0  0  0  0  0  0  0
   10.8110   -1.1780   23.5080 C   0  0  0  0  0  0  0  0  0  0  0  0
    3.1070    2.0850   23.2810 C   0  0  0  0  0  0  0  0  0  0  0  0
   10.1810   -0.1230   24.1820 C   0  0  0  0  0  0  0  0  0  0  0  0
   12.0650   -0.9760   22.8750 C   0  0  0  0  0  0  0  0  0  0  0  0
    3.0200    1.4700   24.3420 O   0  0  0  0  0  0  0  0  0  0  0  0
   12.7760   -2.0620   22.1380 C   0  0  0  0  0  0  0  0  0  0  0  0
   10.7580    1.1510   24.2430 C   0  0  0  0  0  0  0  0  0  0  0  0
   12.7270    0.3780   22.9250 C   0  0  0  0  0  0  0  0  0  0  0  0
   12.1080    1.4130   23.5730 C   0  0  0  0  0  0  0  0  0  0  0  0
  1  2  1  0
  1  3  2  0
  1  4  1  0
  4  5  1  0
  4  6  1  0
  6  7  1  6
  5  8  1  0
  6  9  1  0
  7 10  1  0
  8 11  1  0
  9 11  1  0
 10 12  1  0
 11 13  1  0
 12 14  1  0
 13 15  1  0
 14 16  1  0
 15 17  2  0
 15 18  1  0
 16 19  2  0
 18 20  1  0
 17 21  1  0
 18 22  2  0
 21 23  2  0
 22 23  1  0
M  END
