x0831_0-x1412_1-x1418_1-x1334_0-x1334_1-x0692_1-x1374_1-x0397_0-x1385_1-x0434_2-x0770_1
     RDKit          3D

 39 43  0  0  0  0  0  0  0  0999 V2000
    1.9700   -6.6190   23.9910 O   0  0  0  0  0  0  0  0  0  0  0  0
    2.8850   -7.5720   23.5170 C   0  0  0  0  0  0  0  0  0  0  0  0
    3.7960   -7.9480   24.5430 O   0  0  0  0  0  0  0  0  0  0  0  0
    5.0800   -7.3790   24.3500 C   0  0  0  0  0  0  0  0  0  0  0  0
    4.9620   -6.0310   24.1820 C   0  0  0  0  0  0  0  0  0  0  0  0
    6.0770   -5.6830   23.2550 C   0  0  2  0  0  0  0  0  0  0  0  0
    5.8960   -4.5750   22.3290 C   0  0  2  0  0  0  0  0  0  0  0  0
    6.0590   -6.1680   21.8740 C   0  0  0  0  0  0  0  0  0  0  0  0
    7.0050   -3.5780   22.0670 C   0  0  1  0  0  0  0  0  0  0  0  0
    6.6500   -2.6590   21.0000 N   0  0  0  0  0  0  0  0  0  0  0  0
    7.4090   -2.8420   23.3170 C   0  0  0  0  0  0  0  0  0  0  0  0
    6.3890   -3.2810   19.8050 C   0  0  0  0  0  0  0  0  0  0  0  0
    8.4820   -1.8530   23.1340 N   0  0  0  0  0  0  0  0  0  0  0  0
    7.6400   -1.5840   20.8900 C   0  0  1  0  0  0  0  0  0  0  0  0
    7.4080   -3.0430   18.6980 C   0  0  0  0  0  0  0  0  0  0  0  0
    5.4150   -4.0270   19.6570 O   0  0  0  0  0  0  0  0  0  0  0  0
    9.5760   -2.0240   23.8720 C   0  0  1  0  0  0  0  0  0  0  0  0
    6.9310   -0.3910   21.2830 N   0  0  0  0  0  0  0  0  0  0  0  0
    8.8630   -1.7970   21.7420 C   0  0  0  0  0  0  0  0  0  0  0  0
    9.9350   -3.4360   23.8730 C   0  0  0  0  0  0  0  0  0  0  0  0
   10.5380   -0.8370   23.6560 C   0  0  0  0  0  0  0  0  0  0  0  0
    6.1960    0.2840   20.2210 C   0  0  0  0  0  0  0  0  0  0  0  0
   10.1190    0.5030   24.2320 C   0  0  0  0  0  0  0  0  0  0  0  0
   11.9230   -0.9160   22.8740 C   0  0  0  0  0  0  0  0  0  0  0  0
    9.3790   -4.1510   25.0490 C   0  0  0  0  0  0  0  0  0  0  0  0
    6.8770    0.1450   18.8190 C   0  0  0  0  0  0  0  0  0  0  0  0
    4.8970    1.0880   20.2540 C   0  0  0  0  0  0  0  0  0  0  0  0
   12.4420   -2.1740   22.2510 C   0  0  0  0  0  0  0  0  0  0  0  0
   11.0330    1.7980   24.0590 C   0  0  0  0  0  0  0  0  0  0  0  0
   12.7680    0.2150   22.7160 C   0  0  0  0  0  0  0  0  0  0  0  0
    9.9410   -5.4240   25.3690 C   0  0  0  0  0  0  0  0  0  0  0  0
    8.1390   -3.7230   26.1770 S   0  0  0  0  0  0  0  0  0  0  0  0
    6.3770    0.6980   17.7120 N   0  0  0  0  0  0  0  0  0  0  0  0
    4.4990    1.6020   19.0050 C   0  0  0  0  0  0  0  0  0  0  0  0
   12.3510    1.5870   23.2940 C   0  0  0  0  0  0  0  0  0  0  0  0
    9.4320   -6.0320   26.4830 C   0  0  0  0  0  0  0  0  0  0  0  0
    8.3300   -5.1580   27.1110 C   0  0  0  0  0  0  0  0  0  0  0  0
    5.2310    1.3940   17.8370 C   0  0  0  0  0  0  0  0  0  0  0  0
    7.3650   -5.4180   28.5010 Cl  0  0  0  0  0  0  0  0  0  0  0  0
  1  2  1  0
  2  3  1  0
  3  4  1  0
  4  5  1  0
  6  5  1  1
  6  7  1  0
  6  8  1  0
  7  8  1  6
  7  9  1  0
  9 10  1  0
  9 11  1  1
 10 12  1  0
 11 13  1  0
 10 14  1  0
 12 15  1  0
 12 16  2  0
 13 17  1  0
 14 18  1  1
 13 19  1  0
 14 19  1  0
 17 20  1  6
 17 21  1  0
 18 22  1  0
 21 23  2  0
 21 24  1  0
 20 25  1  0
 22 26  2  0
 22 27  1  0
 24 28  1  0
 23 29  1  0
 24 30  2  0
 25 31  2  0
 25 32  1  0
 26 33  1  0
 27 34  2  0
 29 35  2  0
 30 35  1  0
 31 36  1  0
 32 37  1  0
 36 37  2  0
 33 38  2  0
 34 38  1  0
 37 39  1  0
M  END
