x0831_0-x1308_0-x0731_0-x0072_0-x0769_1
     RDKit          3D

 33 36  0  0  0  0  0  0  0  0999 V2000
    6.5990   -4.5030   20.6160 C   0  0  0  0  0  0  0  0  0  0  0  0
    7.7040   -3.5400   20.1720 C   0  0  0  0  0  0  0  0  0  0  0  0
    5.5530   -4.6100   19.9600 O   0  0  0  0  0  0  0  0  0  0  0  0
    6.8170   -5.2630   21.7570 N   0  0  0  0  0  0  0  0  0  0  0  0
    7.6070   -4.8730   22.7990 C   0  0  0  0  0  0  0  0  0  0  0  0
    5.9470   -6.3370   22.2260 C   0  0  0  0  0  0  0  0  0  0  0  0
    6.7940   -4.2470   23.9240 C   0  0  2  0  0  0  0  0  0  0  0  0
    5.0140   -5.9060   23.3200 C   0  0  0  0  0  0  0  0  0  0  0  0
    7.7310   -3.6440   24.9430 N   0  0  0  0  0  0  0  0  0  0  0  0
    5.7350   -5.2120   24.4300 N   0  0  0  0  0  0  0  0  0  0  0  0
    8.3380   -4.5210   26.2650 S   0  0  0  0  0  0  0  0  0  0  0  0
    4.8090   -5.0620   25.8470 S   0  0  2  0  0  0  0  0  0  0  0  0
    8.5240   -2.3820   24.7310 C   0  0  0  0  0  0  0  0  0  0  0  0
    7.0370   -5.5160   26.9050 C   0  0  0  0  0  0  0  0  0  0  0  0
    9.4340   -5.3660   25.8540 O   0  0  0  0  0  0  0  0  0  0  0  0
    8.3920   -3.5100   27.5610 O   0  0  0  0  0  0  0  0  0  0  0  0
    5.7240   -4.8770   27.0370 N   0  0  0  0  0  0  0  0  0  0  0  0
    3.9290   -6.2100   25.7370 O   0  0  0  0  0  0  0  0  0  0  0  0
    9.7200   -2.5050   23.7050 C   0  0  0  0  0  0  0  0  0  0  0  0
    3.7810   -3.7010   25.8780 C   0  0  0  0  0  0  0  0  0  0  0  0
    2.3720   -3.9890   25.7280 C   0  0  0  0  0  0  0  0  0  0  0  0
    4.2760   -2.3800   26.0470 C   0  0  0  0  0  0  0  0  0  0  0  0
   10.5430   -1.1990   23.6010 C   0  0  0  0  0  0  0  0  0  0  0  0
    5.5840   -2.1330   26.1820 F   0  0  0  0  0  0  0  0  0  0  0  0
    1.4260   -2.9980   25.7460 C   0  0  0  0  0  0  0  0  0  0  0  0
    3.3770   -1.3010   26.0750 C   0  0  0  0  0  0  0  0  0  0  0  0
   10.0060    0.0400   24.3170 C   0  0  0  0  0  0  0  0  0  0  0  0
   11.7730   -1.0700   22.8860 C   0  0  0  0  0  0  0  0  0  0  0  0
   12.4100   -2.1930   22.1380 C   0  0  0  0  0  0  0  0  0  0  0  0
    1.8650   -1.5500   25.9270 C   0  0  0  0  0  0  0  0  0  0  0  0
   10.6840    1.2470   24.2740 C   0  0  0  0  0  0  0  0  0  0  0  0
   12.4620    0.1580   22.8590 C   0  0  0  0  0  0  0  0  0  0  0  0
   11.8920    1.3520   23.5750 C   0  0  0  0  0  0  0  0  0  0  0  0
  1  2  1  0
  1  3  2  0
  1  4  1  0
  4  5  1  0
  4  6  1  0
  7  5  1  6
  6  8  1  0
  7  9  1  0
  7 10  1  0
  8 10  1  0
 11  9  1  0
 10 12  1  0
  9 13  1  0
 11 14  1  0
 11 15  2  0
 11 16  2  0
 12 17  2  0
 14 17  1  0
 12 18  2  0
 13 19  1  0
 12 20  1  6
 20 21  2  0
 20 22  1  0
 19 23  1  0
 22 24  1  0
 21 25  1  0
 22 26  2  0
 23 27  2  0
 23 28  1  0
 28 29  1  0
 25 30  2  0
 26 30  1  0
 27 31  1  0
 28 32  2  0
 31 33  2  0
 32 33  1  0
M  END
