x0831_0-x1418_1-x0397_0-x0426_1-x1334_1-x0770_1-x1334_0-x0692_1-x1385_1-x1374_1-x1375_1-x1412_1-x0831_1-x1386_1-x0434_2
     RDKit          3D

 43 48  0  0  0  0  0  0  0  0999 V2000
    2.2160   -7.7930   23.2240 O   0  0  0  0  0  0  0  0  0  0  0  0
    2.4360   -8.0840   24.5890 C   0  0  0  0  0  0  0  0  0  0  0  0
    3.8270   -8.0420   24.8020 O   0  0  0  0  0  0  0  0  0  0  0  0
    4.4630   -7.1990   23.8480 C   0  0  0  0  0  0  0  0  0  0  0  0
    5.0270   -5.9790   24.4450 C   0  0  0  0  0  0  0  0  0  0  0  0
    6.0830   -5.5630   23.4740 C   0  0  2  0  0  0  0  0  0  0  0  0
    5.7310   -4.6940   22.3800 C   0  0  2  0  0  0  0  0  0  0  0  0
    6.3290   -6.2080   22.0900 C   0  0  0  0  0  0  0  0  0  0  0  0
    6.5510   -3.3840   22.4120 C   0  0  1  0  0  0  0  0  0  0  0  0
    8.0120   -3.5650   22.8220 C   0  0  0  0  0  0  0  0  0  0  0  0
    6.2960   -2.6580   21.3370 N   0  0  0  0  0  0  0  0  0  0  0  0
    6.2580   -3.2280   20.0040 C   0  0  0  0  0  0  0  0  0  0  0  0
    8.6630   -2.2360   22.9260 N   0  0  0  0  0  0  0  0  0  0  0  0
    6.8220   -1.3220   21.7240 C   0  0  2  0  0  0  0  0  0  0  0  0
    7.3110   -2.9270   18.9470 C   0  0  0  0  0  0  0  0  0  0  0  0
    5.3650   -4.0390   19.7130 O   0  0  0  0  0  0  0  0  0  0  0  0
    6.0130   -0.0640   21.6070 C   0  0  2  0  0  0  0  0  0  0  0  0
   10.0820   -2.3130   23.2510 C   0  0  2  0  0  0  0  0  0  0  0  0
    8.2530   -1.4110   21.7880 C   0  0  0  0  0  0  0  0  0  0  0  0
    4.7080   -0.1750   22.3880 C   0  0  0  0  0  0  0  0  0  0  0  0
   10.4990   -3.2780   24.3450 C   0  0  0  0  0  0  0  0  0  0  0  0
    5.7910    0.4590   20.2200 C   0  0  0  0  0  0  0  0  0  0  0  0
   10.8330   -0.9630   23.3270 C   0  0  0  0  0  0  0  0  0  0  0  0
    3.7510    1.0420   22.3360 C   0  0  1  0  0  0  0  0  0  0  0  0
    4.7100    1.3070   19.9370 C   0  0  0  0  0  0  0  0  0  0  0  0
    6.7390    0.1000   19.0500 C   0  0  0  0  0  0  0  0  0  0  0  0
   10.1550    0.1520   23.8760 C   0  0  0  0  0  0  0  0  0  0  0  0
   12.1380   -0.8490   22.8580 C   0  0  0  0  0  0  0  0  0  0  0  0
    9.5370   -3.9500   25.2880 C   0  0  0  0  0  0  0  0  0  0  0  0
    4.1230    2.0970   23.3760 N   0  0  0  0  0  0  0  0  0  0  0  0
    3.6720    1.7710   20.9250 C   0  0  0  0  0  0  0  0  0  0  0  0
   12.8570   -2.0150   22.2600 C   0  0  0  0  0  0  0  0  0  0  0  0
    4.5720    1.7540   18.7120 C   0  0  0  0  0  0  0  0  0  0  0  0
    6.5730    0.5670   17.8140 N   0  0  0  0  0  0  0  0  0  0  0  0
   10.8240    1.3470   23.9320 C   0  0  0  0  0  0  0  0  0  0  0  0
   12.9020    0.4510   22.9100 C   0  0  0  0  0  0  0  0  0  0  0  0
    9.9940   -5.3470   25.5260 C   0  0  0  0  0  0  0  0  0  0  0  0
    8.1300   -3.6510   26.1860 S   0  0  0  0  0  0  0  0  0  0  0  0
    5.5270    1.3760   17.6390 C   0  0  0  0  0  0  0  0  0  0  0  0
   12.0780    1.5750   23.5120 C   0  0  0  0  0  0  0  0  0  0  0  0
    9.0970   -6.0090   26.4930 C   0  0  0  0  0  0  0  0  0  0  0  0
    8.0750   -5.2200   26.9310 C   0  0  0  0  0  0  0  0  0  0  0  0
    6.8580   -5.6340   28.0620 Cl  0  0  0  0  0  0  0  0  0  0  0  0
  1  2  1  0
  2  3  1  0
  3  4  1  0
  4  5  1  0
  6  5  1  1
  6  7  1  0
  6  8  1  0
  7  8  1  6
  7  9  1  0
  9 10  1  6
  9 11  1  0
 11 12  1  0
 10 13  1  0
 11 14  1  0
 12 15  1  0
 12 16  2  0
 14 17  1  0
 13 18  1  0
 13 19  1  0
 14 19  1  6
 17 20  1  6
 18 21  1  1
 17 22  1  0
 18 23  1  0
 20 24  1  0
 22 25  2  0
 22 26  1  0
 23 27  2  0
 23 28  1  0
 21 29  1  0
 24 30  1  1
 24 31  1  0
 25 31  1  0
 28 32  1  0
 25 33  1  0
 26 34  2  0
 27 35  1  0
 28 36  2  0
 29 37  2  0
 29 38  1  0
 33 39  2  0
 34 39  1  0
 35 40  2  0
 36 40  1  0
 37 41  1  0
 38 42  1  0
 41 42  2  0
 42 43  1  0
M  END
