x0831_1-x0831_0-x1386_1-x1374_1-x1385_1-x0692_1-x0770_1-x0397_0
     RDKit          3D

 26 28  0  0  0  0  0  0  0  0999 V2000
    2.2240   -7.7460   23.2810 O   0  0  0  0  0  0  0  0  0  0  0  0
    2.4290   -8.0720   24.6400 C   0  0  0  0  0  0  0  0  0  0  0  0
    3.7980   -7.9910   24.9390 O   0  0  0  0  0  0  0  0  0  0  0  0
    4.4660   -7.2590   23.9290 C   0  0  0  0  0  0  0  0  0  0  0  0
    4.9720   -6.1070   24.3240 C   0  0  0  0  0  0  0  0  0  0  0  0
    6.1560   -5.5620   23.4830 C   0  0  2  0  0  0  0  0  0  0  0  0
    6.0100   -4.6610   22.4930 C   0  0  2  0  0  0  0  0  0  0  0  0
    6.3430   -6.1340   22.1120 C   0  0  0  0  0  0  0  0  0  0  0  0
    6.9580   -3.5490   22.2050 C   0  0  1  0  0  0  0  0  0  0  0  0
    6.3000   -2.7450   21.1760 N   0  0  0  0  0  0  0  0  0  0  0  0
    7.5850   -2.8140   23.4940 C   0  0  0  0  0  0  0  0  0  0  0  0
    6.1670   -3.3430   19.9290 C   0  0  0  0  0  0  0  0  0  0  0  0
    8.6570   -1.8970   23.0960 N   0  0  0  0  0  0  0  0  0  0  0  0
    6.2210   -1.2830   21.3840 C   0  0  0  0  0  0  0  0  0  0  0  0
    5.2670   -4.1620   19.7080 O   0  0  0  0  0  0  0  0  0  0  0  0
    7.1950   -3.0120   18.8660 C   0  0  0  0  0  0  0  0  0  0  0  0
    9.9160   -2.1670   23.5560 C   0  0  0  0  0  0  0  0  0  0  0  0
    8.7140   -1.6020   21.7570 C   0  0  0  0  0  0  0  0  0  0  0  0
    7.6180   -0.6370   21.2840 C   0  0  0  0  0  0  0  0  0  0  0  0
   10.7940   -0.9430   23.4960 C   0  0  0  0  0  0  0  0  0  0  0  0
   10.2750    0.2290   24.0550 C   0  0  0  0  0  0  0  0  0  0  0  0
   12.0910   -0.9600   22.8780 C   0  0  0  0  0  0  0  0  0  0  0  0
   12.6800   -2.1990   22.2600 C   0  0  0  0  0  0  0  0  0  0  0  0
   10.9880    1.5650   24.0580 C   0  0  0  0  0  0  0  0  0  0  0  0
   12.9740    0.3350   22.8010 C   0  0  0  0  0  0  0  0  0  0  0  0
   12.3590    1.6460   23.4240 C   0  0  0  0  0  0  0  0  0  0  0  0
  1  2  1  0
  2  3  1  0
  3  4  1  0
  4  5  1  0
  6  5  1  6
  6  7  1  0
  6  8  1  0
  7  8  1  6
  7  9  1  0
  9 10  1  0
  9 11  1  1
 10 12  1  0
 11 13  1  0
 10 14  1  0
 12 15  2  0
 12 16  1  0
 13 17  1  0
 13 18  1  0
 14 19  1  0
 18 19  1  0
 17 20  1  0
 20 21  2  0
 20 22  1  0
 22 23  1  0
 21 24  1  0
 22 25  2  0
 24 26  2  0
 25 26  1  0
M  END
