x0831_0-x0749_1-x0434_2
     RDKit          3D

 27 29  0  0  0  0  0  0  0  0999 V2000
    6.3860   -3.9460   20.1380 C   0  0  0  0  0  0  0  0  0  0  0  0
    7.4270   -3.2380   19.1810 C   0  0  0  0  0  0  0  0  0  0  0  0
    5.2720   -4.2710   19.7480 O   0  0  0  0  0  0  0  0  0  0  0  0
    6.7250   -4.2360   21.4430 N   0  0  0  0  0  0  0  0  0  0  0  0
    8.0570   -4.0110   21.8350 C   0  0  0  0  0  0  0  0  0  0  0  0
    6.2890   -5.4990   22.0310 C   0  0  0  0  0  0  0  0  0  0  0  0
    8.2680   -3.8370   23.2730 C   0  0  2  0  0  0  0  0  0  0  0  0
    7.0890   -6.0400   23.0590 C   0  0  0  0  0  0  0  0  0  0  0  0
    9.5900   -3.0520   23.1880 C   0  0  2  0  0  0  0  0  0  0  0  0
    7.9680   -5.2150   23.8740 C   0  0  0  0  0  0  0  0  0  0  0  0
   10.1200   -2.1910   24.3320 C   0  0  0  0  0  0  0  0  0  0  0  0
    9.4300   -2.1090   21.9330 C   0  0  0  0  0  0  0  0  0  0  0  0
    7.9170   -1.5900   21.7840 C   0  0  0  0  0  0  0  0  0  0  0  0
   10.8740   -0.9400   23.9780 C   0  0  0  0  0  0  0  0  0  0  0  0
    7.8500   -0.2560   21.1790 N   0  0  0  0  0  0  0  0  0  0  0  0
   10.2930    0.2560   24.3690 C   0  0  0  0  0  0  0  0  0  0  0  0
   12.1120   -0.9150   23.2760 C   0  0  0  0  0  0  0  0  0  0  0  0
   12.8120   -2.1450   22.8060 C   0  0  0  0  0  0  0  0  0  0  0  0
   10.9320    1.6340   24.0740 C   0  0  0  0  0  0  0  0  0  0  0  0
   12.8350    0.3990   22.9410 C   0  0  0  0  0  0  0  0  0  0  0  0
    6.9440    0.1800   20.1970 C   0  0  0  0  0  0  0  0  0  0  0  0
   12.1460    1.6980   23.3940 C   0  0  0  0  0  0  0  0  0  0  0  0
    7.0640   -0.0940   18.8010 C   0  0  0  0  0  0  0  0  0  0  0  0
    5.8290    0.9570   20.5760 C   0  0  0  0  0  0  0  0  0  0  0  0
    6.2360    0.3210   17.8000 N   0  0  0  0  0  0  0  0  0  0  0  0
    4.9460    1.4070   19.6020 C   0  0  0  0  0  0  0  0  0  0  0  0
    5.1840    1.0620   18.1470 C   0  0  0  0  0  0  0  0  0  0  0  0
  1  2  1  0
  1  3  2  0
  1  4  1  0
  4  5  1  0
  4  6  1  0
  7  5  1  6
  6  8  1  0
  7  9  1  0
  7 10  1  0
  8 10  1  0
  9 11  1  1
  9 12  1  0
 12 13  1  0
 11 14  1  0
 13 15  1  0
 14 16  2  0
 14 17  1  0
 17 18  1  0
 16 19  1  0
 17 20  2  0
 15 21  1  0
 19 22  2  0
 20 22  1  0
 21 23  2  0
 21 24  1  0
 23 25  1  0
 24 26  2  0
 25 27  2  0
 26 27  1  0
M  END
