x0831_0-x1418_1-x1334_1-x0540_3-x0692_1
     RDKit          3D

 23 24  0  0  0  0  0  0  0  0999 V2000
    6.3630   -3.2810   19.9210 C   0  0  0  0  0  0  0  0  0  0  0  0
    7.3610   -3.0040   18.7970 C   0  0  0  0  0  0  0  0  0  0  0  0
    5.4270   -4.0760   19.7190 O   0  0  0  0  0  0  0  0  0  0  0  0
    6.5330   -2.6700   21.1740 N   0  0  0  0  0  0  0  0  0  0  0  0
    6.7050   -3.4540   22.4030 C   0  0  0  0  0  0  0  0  0  0  0  0
    7.2710   -1.4030   21.2170 C   0  0  1  0  0  0  0  0  0  0  0  0
    6.6540   -0.4500   22.2650 C   0  0  0  0  0  0  0  0  0  0  0  0
    8.0310   -3.5430   22.8650 C   0  0  0  0  0  0  0  0  0  0  0  0
    8.6220   -1.6130   21.6070 C   0  0  0  0  0  0  0  0  0  0  0  0
    5.4040    0.3480   21.8080 C   0  0  0  0  0  0  0  0  0  0  0  0
    8.7310   -2.2440   22.9120 N   0  0  0  0  0  0  0  0  0  0  0  0
    5.2770    1.7430   22.4180 C   0  0  0  0  0  0  0  0  0  0  0  0
   10.0730   -2.3800   23.5040 C   0  0  0  0  0  0  0  0  0  0  0  0
    3.9050    2.3120   22.3430 N   0  0  0  0  0  0  0  0  0  0  0  0
   10.7650   -1.1560   23.5000 C   0  0  0  0  0  0  0  0  0  0  0  0
    2.9620    2.2580   23.4390 C   0  0  0  0  0  0  0  0  0  0  0  0
   10.1730   -0.0610   24.1230 C   0  0  0  0  0  0  0  0  0  0  0  0
   12.0340   -0.9940   22.8770 C   0  0  0  0  0  0  0  0  0  0  0  0
    2.9800    1.4890   24.4030 O   0  0  0  0  0  0  0  0  0  0  0  0
   12.7210   -2.1200   22.1850 C   0  0  0  0  0  0  0  0  0  0  0  0
   10.8330    1.3390   24.1610 C   0  0  0  0  0  0  0  0  0  0  0  0
   12.7780    0.3540   22.8700 C   0  0  0  0  0  0  0  0  0  0  0  0
   12.0760    1.5330   23.5600 C   0  0  0  0  0  0  0  0  0  0  0  0
  1  2  1  0
  1  3  2  0
  1  4  1  0
  4  5  1  0
  4  6  1  0
  6  7  1  1
  5  8  1  0
  6  9  1  0
  7 10  1  0
  8 11  1  0
  9 11  1  0
 10 12  1  0
 11 13  1  0
 12 14  1  0
 13 15  1  0
 14 16  1  0
 15 17  2  0
 15 18  1  0
 16 19  2  0
 18 20  1  0
 17 21  1  0
 18 22  2  0
 21 23  2  0
 22 23  1  0
M  END
