x0831_0-x1334_1-x0981_1-x0434_2-x1418_0
     RDKit          3D

 37 39  0  0  0  0  0  0  0  0999 V2000
    4.1480   -5.8250   23.0030 C   0  0  0  0  0  0  0  0  0  0  0  0
    2.7360   -6.1200   23.4560 C   0  0  1  0  0  0  0  0  0  0  0  0
    2.4120   -7.3670   22.7740 N   0  0  0  0  0  0  0  0  0  0  0  0
    4.8520   -4.7760   23.1820 N   0  0  0  0  0  0  0  0  0  0  0  0
    2.6940   -6.3020   24.9590 C   0  0  0  0  0  0  0  0  0  0  0  0
    6.1840   -4.8330   22.5800 C   0  0  0  0  0  0  0  0  0  0  0  0
    1.2410   -7.4950   22.0860 C   0  0  0  0  0  0  0  0  0  0  0  0
    3.0830   -7.6900   25.3630 C   0  0  0  0  0  0  0  0  0  0  0  0
    6.7320   -3.4070   22.5120 C   0  0  2  0  0  0  0  0  0  0  0  0
    1.1210   -8.7550   21.2750 C   0  0  0  0  0  0  0  0  0  0  0  0
    0.3650   -6.6320   22.1120 O   0  0  0  0  0  0  0  0  0  0  0  0
    2.4600   -8.3100   26.4020 N   0  0  0  0  0  0  0  0  0  0  0  0
    3.9620   -8.2310   24.7220 O   0  0  0  0  0  0  0  0  0  0  0  0
    6.6570   -2.7580   21.1760 N   0  0  0  0  0  0  0  0  0  0  0  0
    8.0400   -3.4080   23.1300 C   0  0  0  0  0  0  0  0  0  0  0  0
    6.3660   -3.3950   19.9570 C   0  0  0  0  0  0  0  0  0  0  0  0
    8.8220   -2.1370   22.9830 N   0  0  0  0  0  0  0  0  0  0  0  0
    7.6610   -1.7020   20.9970 C   0  0  1  0  0  0  0  0  0  0  0  0
    7.3230   -3.0670   18.8200 C   0  0  0  0  0  0  0  0  0  0  0  0
    5.4280   -4.1860   19.7850 O   0  0  0  0  0  0  0  0  0  0  0  0
   10.2790   -2.2170   23.2300 C   0  0  2  0  0  0  0  0  0  0  0  0
    6.9950   -0.4460   21.2670 N   0  0  0  0  0  0  0  0  0  0  0  0
    8.8830   -1.8160   21.6110 C   0  0  0  0  0  0  0  0  0  0  0  0
   10.7890   -3.1250   24.2590 C   0  0  0  0  0  0  0  0  0  0  0  0
   10.8750   -0.9750   23.3580 C   0  0  0  0  0  0  0  0  0  0  0  0
    6.3870    0.2010   20.1260 C   0  0  0  0  0  0  0  0  0  0  0  0
   10.2960    0.1170   24.0060 C   0  0  0  0  0  0  0  0  0  0  0  0
   12.1390   -0.7800   22.8000 C   0  0  0  0  0  0  0  0  0  0  0  0
    6.8430    0.1890   18.8110 C   0  0  0  0  0  0  0  0  0  0  0  0
    5.0710    1.0240   20.2780 C   0  0  0  0  0  0  0  0  0  0  0  0
   12.8700   -1.8740   22.0720 C   0  0  0  0  0  0  0  0  0  0  0  0
   10.9370    1.3450   24.0840 C   0  0  0  0  0  0  0  0  0  0  0  0
   12.7840    0.4350   22.8790 C   0  0  0  0  0  0  0  0  0  0  0  0
    6.3590    0.7630   17.6710 N   0  0  0  0  0  0  0  0  0  0  0  0
    4.4740    1.6770   19.0980 C   0  0  0  0  0  0  0  0  0  0  0  0
   12.2220    1.5340   23.5050 C   0  0  0  0  0  0  0  0  0  0  0  0
    5.2300    1.4810   17.7800 C   0  0  0  0  0  0  0  0  0  0  0  0
  2  1  1  6
  2  3  1  0
  1  4  2  3
  2  5  1  0
  4  6  1  0
  3  7  1  0
  5  8  1  0
  9  6  1  6
  7 10  1  0
  7 11  2  0
  8 12  1  0
  8 13  2  0
  9 14  1  0
  9 15  1  0
 14 16  1  0
 15 17  1  0
 14 18  1  0
 16 19  1  0
 16 20  2  0
 17 21  1  0
 18 22  1  1
 17 23  1  0
 18 23  1  0
 21 24  1  1
 21 25  1  0
 22 26  1  0
 25 27  2  0
 25 28  1  0
 26 29  2  0
 26 30  1  0
 28 31  1  0
 27 32  1  0
 28 33  2  0
 29 34  1  0
 30 35  2  0
 32 36  2  0
 33 36  1  0
 34 37  2  0
 35 37  1  0
M  END
