x0831_0-x1334_0-x1412_1-x0770_1-x1386_1
     RDKit          3D

 24 26  0  0  0  0  0  0  0  0999 V2000
    6.2740   -3.3760   19.9730 C   0  0  0  0  0  0  0  0  0  0  0  0
    7.3070   -3.0500   18.9010 C   0  0  0  0  0  0  0  0  0  0  0  0
    5.3450   -4.1460   19.7290 O   0  0  0  0  0  0  0  0  0  0  0  0
    6.4130   -2.8240   21.2360 N   0  0  0  0  0  0  0  0  0  0  0  0
    7.0050   -1.4920   21.3280 C   0  0  0  0  0  0  0  0  0  0  0  0
    6.5800   -3.6430   22.4360 C   0  0  0  0  0  0  0  0  0  0  0  0
    8.4190   -1.5130   21.9440 C   0  0  0  0  0  0  0  0  0  0  0  0
    8.0270   -3.6630   22.9650 C   0  0  0  0  0  0  0  0  0  0  0  0
    8.6190   -2.3150   23.1590 N   0  0  0  0  0  0  0  0  0  0  0  0
   10.0720   -2.3620   23.3120 C   0  0  2  0  0  0  0  0  0  0  0  0
   10.6290   -3.2630   24.4610 C   0  0  0  0  0  0  0  0  0  0  0  0
   10.7230   -0.9950   23.4060 C   0  0  0  0  0  0  0  0  0  0  0  0
   10.0940    0.1490   23.9240 C   0  0  0  0  0  0  0  0  0  0  0  0
   12.0500   -0.8940   22.9340 C   0  0  0  0  0  0  0  0  0  0  0  0
    9.6560   -4.0180   25.3880 C   0  0  0  0  0  0  0  0  0  0  0  0
   12.8030   -2.0420   22.3480 C   0  0  0  0  0  0  0  0  0  0  0  0
   10.7890    1.4230   23.9920 C   0  0  0  0  0  0  0  0  0  0  0  0
   12.6610    0.3140   23.0160 C   0  0  0  0  0  0  0  0  0  0  0  0
   10.0010   -5.3870   25.7560 C   0  0  0  0  0  0  0  0  0  0  0  0
    8.1720   -3.6880   26.1980 S   0  0  0  0  0  0  0  0  0  0  0  0
   12.0800    1.4630   23.5230 C   0  0  0  0  0  0  0  0  0  0  0  0
    9.2300   -6.0280   26.5550 C   0  0  0  0  0  0  0  0  0  0  0  0
    8.1470   -5.3180   26.9660 C   0  0  0  0  0  0  0  0  0  0  0  0
    6.9050   -5.7980   28.0410 Cl  0  0  0  0  0  0  0  0  0  0  0  0
  1  2  1  0
  1  3  2  0
  1  4  1  0
  4  5  1  0
  4  6  1  0
  5  7  1  0
  6  8  1  0
  7  9  1  0
  8  9  1  0
  9 10  1  0
 10 11  1  1
 10 12  1  0
 12 13  2  0
 12 14  1  0
 11 15  1  0
 14 16  1  0
 13 17  1  0
 14 18  2  0
 15 19  2  0
 15 20  1  0
 17 21  2  0
 18 21  1  0
 19 22  1  0
 20 23  1  0
 22 23  2  0
 23 24  1  0
M  END
