x0831_0-x1334_1-x1385_1-x1386_1-x1418_1-x0831_1-x0434_2-x0426_1-x1412_1-x0770_1-x1334_0-x0397_0-x0692_1
     RDKit          3D

 40 46  0  0  0  0  0  0  0  0999 V2000
    6.4440   -3.3020   19.7770 C   0  0  0  0  0  0  0  0  0  0  0  0
    7.3690   -3.0410   18.6150 C   0  0  0  0  0  0  0  0  0  0  0  0
    5.4430   -4.0330   19.6510 O   0  0  0  0  0  0  0  0  0  0  0  0
    6.8560   -2.7030   20.9530 N   0  0  0  0  0  0  0  0  0  0  0  0
    7.9190   -1.6850   20.7740 C   0  0  1  0  0  0  0  0  0  0  0  0
    7.2200   -3.7010   21.8580 C   0  0  1  0  0  0  0  0  0  0  0  0
    7.5460   -0.3050   20.9270 N   0  0  0  0  0  0  0  0  0  0  0  0
    9.0820   -1.9550   21.7020 C   0  0  0  0  0  0  0  0  0  0  0  0
    7.6180   -3.3370   23.1420 C   0  0  0  0  0  0  0  0  0  0  0  0
    6.1710   -4.3150   22.7550 C   0  0  0  0  0  0  0  0  0  0  0  0
    7.2340    0.2360   22.2290 C   0  0  0  0  0  0  0  0  0  0  0  0
    8.6250   -2.2310   23.0490 N   0  0  0  0  0  0  0  0  0  0  0  0
    6.6440   -5.6550   23.3230 C   0  0  0  0  0  0  0  0  0  0  0  0
    5.4080   -5.6240   22.4310 C   0  0  0  0  0  0  0  0  0  0  0  0
    6.6360    0.2620   19.9580 C   0  0  0  0  0  0  0  0  0  0  0  0
    5.6980    0.4150   22.2120 C   0  0  2  0  0  0  0  0  0  0  0  0
    9.5550   -1.9760   24.1040 C   0  0  1  0  0  0  0  0  0  0  0  0
    6.7360    0.4210   18.4310 N   0  0  0  0  0  0  0  0  0  0  0  0
    5.5110    0.7130   20.7400 C   0  0  0  0  0  0  0  0  0  0  0  0
    5.0570    1.5640   22.9520 C   0  0  0  0  0  0  0  0  0  0  0  0
   10.2130   -3.3490   24.2940 C   0  0  0  0  0  0  0  0  0  0  0  0
    4.4060    1.3460   20.2110 C   0  0  0  0  0  0  0  0  0  0  0  0
    5.6730    1.0490   17.8800 C   0  0  0  0  0  0  0  0  0  0  0  0
   10.5920   -0.8640   23.7810 C   0  0  0  0  0  0  0  0  0  0  0  0
    3.5710    1.6870   22.5590 C   0  0  2  0  0  0  0  0  0  0  0  0
    3.2700    1.7950   21.0560 C   0  0  0  0  0  0  0  0  0  0  0  0
    4.4220    1.5740   18.6630 C   0  0  0  0  0  0  0  0  0  0  0  0
   10.1910    0.3980   24.2380 C   0  0  0  0  0  0  0  0  0  0  0  0
   11.8260   -0.9900   23.1080 C   0  0  0  0  0  0  0  0  0  0  0  0
    9.5840   -4.1980   25.2680 C   0  0  0  0  0  0  0  0  0  0  0  0
    2.9580    2.7960   23.3040 N   0  0  0  0  0  0  0  0  0  0  0  0
   12.4510   -2.2240   22.5340 C   0  0  0  0  0  0  0  0  0  0  0  0
   11.0300    1.6730   24.0360 C   0  0  0  0  0  0  0  0  0  0  0  0
   12.6140    0.2840   22.9400 C   0  0  0  0  0  0  0  0  0  0  0  0
    9.9090   -5.5820   25.5750 C   0  0  0  0  0  0  0  0  0  0  0  0
    8.2930   -3.7170   26.2840 S   0  0  0  0  0  0  0  0  0  0  0  0
   12.2640    1.6420   23.3810 C   0  0  0  0  0  0  0  0  0  0  0  0
    9.1970   -6.1310   26.5190 C   0  0  0  0  0  0  0  0  0  0  0  0
    8.2690   -5.2620   27.0270 C   0  0  0  0  0  0  0  0  0  0  0  0
    7.1800   -5.7110   28.3010 Cl  0  0  0  0  0  0  0  0  0  0  0  0
  1  2  1  0
  1  3  2  0
  1  4  1  0
  4  5  1  0
  4  6  1  0
  5  7  1  1
  5  8  1  0
  6  9  1  0
  6 10  1  1
  7 11  1  0
  8 12  1  0
  9 12  1  0
 10 13  1  0
 10 14  1  0
 13 14  1  0
  7 15  1  0
 16 11  1  6
 12 17  1  0
 15 18  2  0
 15 19  1  0
 16 19  1  0
 16 20  1  0
 17 21  1  6
 19 22  2  0
 18 23  1  0
 17 24  1  0
 20 25  1  0
 22 26  1  0
 25 26  1  0
 22 27  1  0
 23 27  2  0
 24 28  2  0
 24 29  1  0
 21 30  1  0
 25 31  1  1
 29 32  1  0
 28 33  1  0
 29 34  2  0
 30 35  2  0
 30 36  1  0
 33 37  2  0
 34 37  1  0
 35 38  1  0
 36 39  1  0
 38 39  2  0
 39 40  1  0
M  END
