x0831_0-x0831_1-x1386_1
     RDKit          3D

 18 19  0  0  0  0  0  0  0  0999 V2000
    6.1680   -3.4850   20.0200 C   0  0  0  0  0  0  0  0  0  0  0  0
    7.1860   -3.0640   18.9530 C   0  0  0  0  0  0  0  0  0  0  0  0
    5.2910   -4.3150   19.7970 O   0  0  0  0  0  0  0  0  0  0  0  0
    6.2950   -2.9030   21.2890 N   0  0  0  0  0  0  0  0  0  0  0  0
    6.1560   -1.4620   21.5030 C   0  0  0  0  0  0  0  0  0  0  0  0
    7.1120   -3.6380   22.2680 C   0  0  0  0  0  0  0  0  0  0  0  0
    7.4890   -0.6720   21.1990 C   0  0  0  0  0  0  0  0  0  0  0  0
    7.5520   -2.7950   23.4290 C   0  0  0  0  0  0  0  0  0  0  0  0
    8.6560   -1.8660   23.0660 N   0  0  0  0  0  0  0  0  0  0  0  0
    8.7180   -1.4500   21.6630 C   0  0  0  0  0  0  0  0  0  0  0  0
    9.9460   -2.2080   23.4950 C   0  0  0  0  0  0  0  0  0  0  0  0
   10.8400   -0.9570   23.4830 C   0  0  0  0  0  0  0  0  0  0  0  0
   10.2940    0.1700   24.0840 C   0  0  0  0  0  0  0  0  0  0  0  0
   12.1140   -0.9560   22.8900 C   0  0  0  0  0  0  0  0  0  0  0  0
   12.7030   -2.1690   22.2320 C   0  0  0  0  0  0  0  0  0  0  0  0
   10.9340    1.3730   24.1440 C   0  0  0  0  0  0  0  0  0  0  0  0
   12.8850    0.2400   22.8960 C   0  0  0  0  0  0  0  0  0  0  0  0
   12.1770    1.3690   23.5620 C   0  0  0  0  0  0  0  0  0  0  0  0
  1  2  1  0
  1  3  2  0
  1  4  1  0
  4  5  1  0
  4  6  1  0
  5  7  1  0
  6  8  1  0
  8  9  1  0
  7 10  1  0
  9 10  1  0
  9 11  1  0
 11 12  1  0
 12 13  2  0
 12 14  1  0
 14 15  1  0
 13 16  1  0
 14 17  2  0
 16 18  2  0
 17 18  1  0
M  END
