x0831_0-x1386_1-x0434_2
     RDKit          3D

 24 26  0  0  0  0  0  0  0  0999 V2000
    6.4160   -3.2300   19.8150 C   0  0  0  0  0  0  0  0  0  0  0  0
    7.3980   -2.9930   18.6720 C   0  0  0  0  0  0  0  0  0  0  0  0
    5.4860   -4.0450   19.7220 O   0  0  0  0  0  0  0  0  0  0  0  0
    6.6990   -2.4450   20.9660 N   0  0  0  0  0  0  0  0  0  0  0  0
    7.8100   -1.5100   20.6770 C   0  0  2  0  0  0  0  0  0  0  0  0
    6.5610   -2.8870   22.3620 C   0  0  0  0  0  0  0  0  0  0  0  0
    9.0580   -1.7340   21.5620 C   0  0  0  0  0  0  0  0  0  0  0  0
    7.7960   -3.1400   22.9890 C   0  0  0  0  0  0  0  0  0  0  0  0
    7.4180   -0.0540   20.6500 C   0  0  0  0  0  0  0  0  0  0  0  0
    8.7740   -2.0350   22.9590 N   0  0  0  0  0  0  0  0  0  0  0  0
    7.0580    0.3370   19.2440 C   0  0  0  0  0  0  0  0  0  0  0  0
   10.0060   -2.3050   23.5370 C   0  0  0  0  0  0  0  0  0  0  0  0
    6.0270    0.5140   20.2130 C   0  0  0  0  0  0  0  0  0  0  0  0
    6.4350    0.7780   18.0850 N   0  0  0  0  0  0  0  0  0  0  0  0
   10.8240   -1.0430   23.5140 C   0  0  0  0  0  0  0  0  0  0  0  0
    5.2060    1.2660   17.8850 C   0  0  0  0  0  0  0  0  0  0  0  0
    4.7390    1.0020   20.0550 C   0  0  0  0  0  0  0  0  0  0  0  0
   10.2400    0.0950   24.1360 C   0  0  0  0  0  0  0  0  0  0  0  0
   12.1020   -0.9700   22.8910 C   0  0  0  0  0  0  0  0  0  0  0  0
    4.2990    1.3990   18.8600 C   0  0  0  0  0  0  0  0  0  0  0  0
   12.7240   -2.1620   22.2250 C   0  0  0  0  0  0  0  0  0  0  0  0
   11.0040    1.3910   24.1070 C   0  0  0  0  0  0  0  0  0  0  0  0
   12.8340    0.2260   22.8620 C   0  0  0  0  0  0  0  0  0  0  0  0
   12.2370    1.4820   23.5070 C   0  0  0  0  0  0  0  0  0  0  0  0
  1  2  1  0
  1  3  2  0
  1  4  1  0
  4  5  1  0
  4  6  1  0
  5  7  1  0
  6  8  1  0
  5  9  1  1
  7 10  1  0
  8 10  1  0
  9 11  1  0
 10 12  1  0
 11 13  2  0
 11 14  1  0
 12 15  1  0
 14 16  2  0
 13 17  1  0
 15 18  2  0
 15 19  1  0
 16 20  1  0
 17 20  2  0
 19 21  1  0
 18 22  1  0
 19 23  2  0
 22 24  2  0
 23 24  1  0
M  END
