x0831_0-x0831_1-x1334_1-x0397_0-x0691_1
     RDKit          3D

 32 35  0  0  0  0  0  0  0  0999 V2000
    6.2520   -3.3360   19.8370 C   0  0  0  0  0  0  0  0  0  0  0  0
    7.2710   -2.9970   18.7640 C   0  0  0  0  0  0  0  0  0  0  0  0
    5.2840   -4.0670   19.6550 O   0  0  0  0  0  0  0  0  0  0  0  0
    6.5180   -2.8060   21.0840 N   0  0  0  0  0  0  0  0  0  0  0  0
    6.1550   -1.4350   21.4260 C   0  0  0  0  0  0  0  0  0  0  0  0
    7.1810   -3.6380   22.0590 C   0  0  1  0  0  0  0  0  0  0  0  0
    7.4310   -0.5380   21.3190 C   0  0  0  0  0  0  0  0  0  0  0  0
    7.5000   -3.0860   23.3310 C   0  0  0  0  0  0  0  0  0  0  0  0
    6.1710   -4.3620   22.9250 C   0  0  2  0  0  0  0  0  0  0  0  0
    8.4760   -1.9570   23.1770 N   0  0  0  0  0  0  0  0  0  0  0  0
    8.5990   -1.4860   21.7840 C   0  0  0  0  0  0  0  0  0  0  0  0
    6.1610   -5.6240   23.3780 C   0  0  2  0  0  0  0  0  0  0  0  0
    6.1740   -5.8450   22.1000 C   0  0  0  0  0  0  0  0  0  0  0  0
    4.9290   -6.1570   24.0260 C   0  0  0  0  0  0  0  0  0  0  0  0
    9.8430   -2.3140   23.5610 C   0  0  0  0  0  0  0  0  0  0  0  0
    4.6270   -5.6730   25.6880 S   0  0  0  0  0  0  0  0  0  0  0  0
   10.7170   -1.0700   23.5380 C   0  0  0  0  0  0  0  0  0  0  0  0
    4.0100   -6.9280   26.4470 O   0  0  0  0  0  0  0  0  0  0  0  0
    6.0310   -5.1780   26.2290 O   0  0  0  0  0  0  0  0  0  0  0  0
    3.4720   -4.4070   25.7070 C   0  0  0  0  0  0  0  0  0  0  0  0
   10.2170    0.0530   24.1550 C   0  0  0  0  0  0  0  0  0  0  0  0
   11.9950   -0.9950   22.9160 C   0  0  0  0  0  0  0  0  0  0  0  0
   12.6250   -2.1590   22.2120 C   0  0  0  0  0  0  0  0  0  0  0  0
    3.9010   -3.0130   25.8220 C   0  0  0  0  0  0  0  0  0  0  0  0
    2.0870   -4.6490   25.6210 C   0  0  0  0  0  0  0  0  0  0  0  0
   10.9090    1.2500   24.1810 C   0  0  0  0  0  0  0  0  0  0  0  0
   12.7220    0.2130   22.9370 C   0  0  0  0  0  0  0  0  0  0  0  0
    2.9100   -1.8970   25.8500 C   0  0  0  0  0  0  0  0  0  0  0  0
    1.1490   -3.6040   25.6470 C   0  0  0  0  0  0  0  0  0  0  0  0
   12.1450    1.2990   23.5710 C   0  0  0  0  0  0  0  0  0  0  0  0
    3.3190   -0.6250   25.9570 F   0  0  0  0  0  0  0  0  0  0  0  0
    1.6090   -2.1780   25.7690 C   0  0  0  0  0  0  0  0  0  0  0  0
  1  2  1  0
  1  3  2  0
  1  4  1  0
  4  5  1  0
  4  6  1  0
  5  7  1  0
  6  8  1  1
  6  9  1  0
  8 10  1  0
  7 11  1  0
 10 11  1  0
  9 12  1  0
  9 13  1  6
 12 13  1  0
 12 14  1  6
 10 15  1  0
 16 14  1  0
 15 17  1  0
 16 18  2  0
 16 19  2  0
 16 20  1  0
 17 21  2  0
 17 22  1  0
 22 23  1  0
 20 24  2  0
 20 25  1  0
 21 26  1  0
 22 27  2  0
 24 28  1  0
 25 29  2  0
 26 30  2  0
 27 30  1  0
 28 31  1  0
 28 32  2  0
 29 32  1  0
M  END
