x0831_0-x0708_0-x1374_1
     RDKit          3D

 24 25  0  0  0  0  0  0  0  0999 V2000
    8.0520   -2.7190   22.4670 C   0  0  0  0  0  0  0  0  0  0  0  0
    7.7970   -3.9650   21.9770 N   0  0  0  0  0  0  0  0  0  0  0  0
    6.5400   -4.1360   21.4230 N   0  0  0  0  0  0  0  0  0  0  0  0
    7.2000   -2.0280   23.0180 O   0  0  0  0  0  0  0  0  0  0  0  0
    9.4690   -2.2870   22.2530 C   0  0  0  0  0  0  0  0  0  0  0  0
   10.2180   -2.2230   23.5670 C   0  0  0  0  0  0  0  0  0  0  0  0
    6.2780   -3.8000   20.0970 C   0  0  0  0  0  0  0  0  0  0  0  0
    5.6030   -3.7820   22.4710 C   0  0  0  0  0  0  0  0  0  0  0  0
   10.9550   -0.9310   23.5440 C   0  0  0  0  0  0  0  0  0  0  0  0
    7.2760   -3.1030   19.1670 C   0  0  0  0  0  0  0  0  0  0  0  0
    5.1800   -4.0630   19.6310 O   0  0  0  0  0  0  0  0  0  0  0  0
   10.3380    0.1680   24.1220 C   0  0  0  0  0  0  0  0  0  0  0  0
   12.2230   -0.8390   22.9330 C   0  0  0  0  0  0  0  0  0  0  0  0
    4.6190   -4.8630   22.8800 C   0  0  2  0  0  0  0  0  0  0  0  0
   12.9280   -2.0400   22.2730 C   0  0  0  0  0  0  0  0  0  0  0  0
   10.9400    1.4580   24.1220 C   0  0  0  0  0  0  0  0  0  0  0  0
   12.9050    0.4830   22.9130 C   0  0  0  0  0  0  0  0  0  0  0  0
    3.9930   -4.3930   24.0290 C   0  0  0  0  0  0  0  0  0  0  0  0
    5.1440   -6.2930   23.1980 C   0  0  0  0  0  0  0  0  0  0  0  0
   12.3300    1.5990   23.4590 C   0  0  0  0  0  0  0  0  0  0  0  0
    3.3750   -5.4190   24.9230 C   0  0  0  0  0  0  0  0  0  0  0  0
    3.7420   -6.9420   24.0920 S   0  0  0  0  0  0  0  0  0  0  0  0
    2.7810   -7.3990   23.1250 O   0  0  0  0  0  0  0  0  0  0  0  0
    4.1720   -8.0760   25.0780 O   0  0  0  0  0  0  0  0  0  0  0  0
  1  2  1  0
  2  3  1  0
  1  4  2  0
  1  5  1  0
  5  6  1  0
  3  7  1  0
  3  8  1  0
  6  9  1  0
  7 10  1  0
  7 11  2  0
  9 12  2  0
  9 13  1  0
 14  8  1  1
 13 15  1  0
 12 16  1  0
 13 17  2  0
 14 18  1  0
 14 19  1  0
 16 20  2  0
 17 20  1  0
 18 21  2  0
 19 22  1  0
 21 22  1  0
 22 23  1  0
 22 24  1  0
M  END
