x0831_0-x1385_1-x0831_1-x0397_0-x0692_1
     RDKit          3D

 20 22  0  0  0  0  0  0  0  0999 V2000
    6.3540   -3.3290   19.9310 C   0  0  0  0  0  0  0  0  0  0  0  0
    7.3320   -2.9960   18.8070 C   0  0  0  0  0  0  0  0  0  0  0  0
    5.4490   -4.1590   19.7850 O   0  0  0  0  0  0  0  0  0  0  0  0
    6.6110   -2.5950   21.1260 N   0  0  0  0  0  0  0  0  0  0  0  0
    6.5310   -3.3730   22.3870 C   0  0  2  0  0  0  0  0  0  0  0  0
    7.4670   -1.4040   21.2100 C   0  0  0  0  0  0  0  0  0  0  0  0
    7.9600   -3.5530   23.0310 C   0  0  0  0  0  0  0  0  0  0  0  0
    8.7190   -1.7030   21.7560 C   0  0  0  0  0  0  0  0  0  0  0  0
    5.6880   -4.6130   22.3000 C   0  0  0  0  0  0  0  0  0  0  0  0
    8.7340   -2.2900   23.1010 N   0  0  0  0  0  0  0  0  0  0  0  0
    6.0710   -5.7970   23.1050 C   0  0  0  0  0  0  0  0  0  0  0  0
    6.1810   -6.0510   21.7410 C   0  0  0  0  0  0  0  0  0  0  0  0
   10.0770   -2.3960   23.4970 C   0  0  0  0  0  0  0  0  0  0  0  0
   10.7880   -1.1210   23.5270 C   0  0  0  0  0  0  0  0  0  0  0  0
   10.2630    0.0100   24.1570 C   0  0  0  0  0  0  0  0  0  0  0  0
   12.0490   -0.9760   22.8970 C   0  0  0  0  0  0  0  0  0  0  0  0
   12.7560   -2.0730   22.1670 C   0  0  0  0  0  0  0  0  0  0  0  0
   10.9160    1.2850   24.1890 C   0  0  0  0  0  0  0  0  0  0  0  0
   12.6540    0.2430   22.9500 C   0  0  0  0  0  0  0  0  0  0  0  0
   12.1340    1.3500   23.5600 C   0  0  0  0  0  0  0  0  0  0  0  0
  1  2  1  0
  1  3  2  0
  1  4  1  0
  4  5  1  0
  4  6  1  0
  5  7  1  0
  6  8  1  0
  5  9  1  6
  7 10  1  0
  8 10  1  0
  9 11  1  0
  9 12  1  0
 11 12  1  0
 10 13  1  0
 13 14  1  0
 14 15  2  0
 14 16  1  0
 16 17  1  0
 15 18  1  0
 16 19  2  0
 18 20  2  0
 19 20  1  0
M  END
