x0831_0-x1418_1-x0831_1-x1385_1
     RDKit          3D

 17 18  0  0  0  0  0  0  0  0999 V2000
    6.3620   -3.2660   19.8990 C   0  0  0  0  0  0  0  0  0  0  0  0
    7.3520   -3.0220   18.7760 C   0  0  0  0  0  0  0  0  0  0  0  0
    5.4510   -4.0900   19.7320 O   0  0  0  0  0  0  0  0  0  0  0  0
    6.5650   -2.5500   21.0800 N   0  0  0  0  0  0  0  0  0  0  0  0
    6.5450   -3.3210   22.3360 C   0  0  0  0  0  0  0  0  0  0  0  0
    7.3570   -1.3140   21.1240 C   0  0  0  0  0  0  0  0  0  0  0  0
    7.9610   -3.5120   22.9220 C   0  0  0  0  0  0  0  0  0  0  0  0
    8.7350   -1.5260   21.7650 C   0  0  0  0  0  0  0  0  0  0  0  0
    8.7260   -2.2530   23.0370 N   0  0  0  0  0  0  0  0  0  0  0  0
   10.1100   -2.4580   23.4890 C   0  0  0  0  0  0  0  0  0  0  0  0
   10.8610   -1.1400   23.4940 C   0  0  0  0  0  0  0  0  0  0  0  0
   10.2450    0.0280   24.1840 C   0  0  0  0  0  0  0  0  0  0  0  0
   12.1060   -0.9450   22.8740 C   0  0  0  0  0  0  0  0  0  0  0  0
   12.8160   -2.0400   22.1460 C   0  0  0  0  0  0  0  0  0  0  0  0
   10.8880    1.2490   24.1910 C   0  0  0  0  0  0  0  0  0  0  0  0
   12.7270    0.3080   22.9160 C   0  0  0  0  0  0  0  0  0  0  0  0
   12.1650    1.4180   23.5460 C   0  0  0  0  0  0  0  0  0  0  0  0
  1  2  1  0
  1  3  2  0
  1  4  1  0
  4  5  1  0
  4  6  1  0
  5  7  1  0
  6  8  1  0
  7  9  1  0
  8  9  1  0
  9 10  1  0
 10 11  1  0
 11 12  2  0
 11 13  1  0
 13 14  1  0
 12 15  1  0
 13 16  2  0
 15 17  2  0
 16 17  1  0
M  END
