x0831_0-x1385_1-x1334_1-x0540_3-x0397_0
     RDKit          3D

 26 28  0  0  0  0  0  0  0  0999 V2000
    6.2160   -3.3350   19.9910 C   0  0  0  0  0  0  0  0  0  0  0  0
    7.2000   -2.9610   18.8820 C   0  0  0  0  0  0  0  0  0  0  0  0
    5.2790   -4.0820   19.6980 O   0  0  0  0  0  0  0  0  0  0  0  0
    6.4310   -2.8550   21.3040 N   0  0  0  0  0  0  0  0  0  0  0  0
    7.0130   -3.8610   22.2110 C   0  0  1  0  0  0  0  0  0  0  0  0
    6.9830   -1.5290   21.5750 C   0  0  2  0  0  0  0  0  0  0  0  0
    6.4380   -0.3500   20.7420 C   0  0  0  0  0  0  0  0  0  0  0  0
    7.7800   -3.3490   23.4580 C   0  0  0  0  0  0  0  0  0  0  0  0
    8.5010   -1.6460   21.8400 C   0  0  0  0  0  0  0  0  0  0  0  0
    5.9520   -4.6840   22.4850 C   0  0  0  0  0  0  0  0  0  0  0  0
    5.1490    0.3670   21.2080 C   0  0  0  0  0  0  0  0  0  0  0  0
    8.6710   -2.2060   23.2030 N   0  0  0  0  0  0  0  0  0  0  0  0
    6.0320   -5.6480   23.3070 C   0  0  0  0  0  0  0  0  0  0  0  0
    5.9540   -6.2070   21.9670 C   0  0  0  0  0  0  0  0  0  0  0  0
    5.2930    1.3430   22.3820 C   0  0  0  0  0  0  0  0  0  0  0  0
   10.0880   -2.4260   23.4840 C   0  0  0  0  0  0  0  0  0  0  0  0
    4.1860    2.2970   22.4060 N   0  0  0  0  0  0  0  0  0  0  0  0
   10.8490   -1.1230   23.4800 C   0  0  0  0  0  0  0  0  0  0  0  0
    3.1280    2.1710   23.2750 C   0  0  0  0  0  0  0  0  0  0  0  0
   10.2070    0.0570   24.1510 C   0  0  0  0  0  0  0  0  0  0  0  0
   12.1140   -0.9900   22.8620 C   0  0  0  0  0  0  0  0  0  0  0  0
    2.9710    1.3270   24.1470 O   0  0  0  0  0  0  0  0  0  0  0  0
   12.7820   -2.1390   22.1730 C   0  0  0  0  0  0  0  0  0  0  0  0
   10.8660    1.3170   24.1550 C   0  0  0  0  0  0  0  0  0  0  0  0
   12.8420    0.3610   22.8700 C   0  0  0  0  0  0  0  0  0  0  0  0
   12.1160    1.4650   23.5460 C   0  0  0  0  0  0  0  0  0  0  0  0
  1  2  1  0
  1  3  2  0
  1  4  1  0
  4  5  1  0
  4  6  1  0
  6  7  1  6
  5  8  1  0
  6  9  1  0
  5 10  1  1
  7 11  1  0
  8 12  1  0
  9 12  1  0
 10 13  1  0
 10 14  1  0
 13 14  1  0
 11 15  1  0
 12 16  1  0
 15 17  1  0
 16 18  1  0
 17 19  1  0
 18 20  2  0
 18 21  1  0
 19 22  2  0
 21 23  1  0
 20 24  1  0
 21 25  2  0
 24 26  2  0
 25 26  1  0
M  END
