x0831_0-x1385_1-x0692_0-x0770_1
     RDKit          3D

 19 20  0  0  0  0  0  0  0  0999 V2000
    6.3940   -3.2890   19.8920 C   0  0  0  0  0  0  0  0  0  0  0  0
    7.3890   -2.9880   18.7720 C   0  0  0  0  0  0  0  0  0  0  0  0
    5.4610   -4.0890   19.7460 O   0  0  0  0  0  0  0  0  0  0  0  0
    6.6470   -2.5870   21.0990 N   0  0  0  0  0  0  0  0  0  0  0  0
    6.5580   -3.3310   22.3620 C   0  0  0  0  0  0  0  0  0  0  0  0
    7.6350   -1.4910   21.0580 C   0  0  0  0  0  0  0  0  0  0  0  0
    7.8340   -3.4360   23.0850 C   0  0  0  0  0  0  0  0  0  0  0  0
    8.8530   -1.7440   21.7520 C   0  0  0  0  0  0  0  0  0  0  0  0
    8.6610   -2.2170   23.1150 N   0  0  0  0  0  0  0  0  0  0  0  0
    9.7560   -2.1060   23.9900 C   0  0  1  0  0  0  0  0  0  0  0  0
   10.4950   -3.3890   24.0280 C   0  0  0  0  0  0  0  0  0  0  0  0
   10.6690   -0.8830   23.7080 C   0  0  0  0  0  0  0  0  0  0  0  0
   10.2060    0.3830   23.9730 C   0  0  0  0  0  0  0  0  0  0  0  0
   11.9930   -0.9820   23.1830 C   0  0  0  0  0  0  0  0  0  0  0  0
   12.6530   -2.2690   22.8270 C   0  0  0  0  0  0  0  0  0  0  0  0
   10.8750    1.5760   23.7870 C   0  0  0  0  0  0  0  0  0  0  0  0
   12.7670    0.1460   22.9650 C   0  0  0  0  0  0  0  0  0  0  0  0
   10.2390    2.8730   24.0880 C   0  0  0  0  0  0  0  0  0  0  0  0
   12.1970    1.5350   23.2800 C   0  0  0  0  0  0  0  0  0  0  0  0
  1  2  1  0
  1  3  2  0
  1  4  1  0
  4  5  1  0
  4  6  1  0
  5  7  1  0
  6  8  1  0
  7  9  1  0
  8  9  1  0
  9 10  1  0
 10 11  1  6
 10 12  1  0
 12 13  2  0
 12 14  1  0
 14 15  1  0
 13 16  1  0
 14 17  2  0
 16 18  1  0
 16 19  2  0
 17 19  1  0
M  END
