x0831_0-x1374_1-x0692_1-x0397_0
     RDKit          3D

 25 27  0  0  0  0  0  0  0  0999 V2000
    2.1010   -6.7110   24.3880 O   0  0  0  0  0  0  0  0  0  0  0  0
    3.0750   -7.3840   23.6300 C   0  0  0  0  0  0  0  0  0  0  0  0
    4.1180   -7.8660   24.4730 O   0  0  0  0  0  0  0  0  0  0  0  0
    5.4030   -7.3760   24.0840 C   0  0  0  0  0  0  0  0  0  0  0  0
    5.4660   -5.9080   24.3080 C   0  0  0  0  0  0  0  0  0  0  0  0
    6.2110   -5.3420   23.2130 C   0  0  2  0  0  0  0  0  0  0  0  0
    5.6120   -4.2790   22.4140 C   0  0  2  0  0  0  0  0  0  0  0  0
    6.0960   -5.8200   21.9360 C   0  0  0  0  0  0  0  0  0  0  0  0
    6.3640   -2.9550   22.3750 C   0  0  2  0  0  0  0  0  0  0  0  0
    6.4070   -2.4240   21.0050 N   0  0  0  0  0  0  0  0  0  0  0  0
    7.6080   -3.1480   22.8980 C   0  0  0  0  0  0  0  0  0  0  0  0
    6.2380   -3.2170   19.8710 C   0  0  0  0  0  0  0  0  0  0  0  0
    8.5350   -1.9990   22.9770 N   0  0  0  0  0  0  0  0  0  0  0  0
    7.2670   -1.2410   20.9610 C   0  0  0  0  0  0  0  0  0  0  0  0
    5.3860   -4.1130   19.7450 O   0  0  0  0  0  0  0  0  0  0  0  0
    7.2100   -2.9810   18.7370 C   0  0  0  0  0  0  0  0  0  0  0  0
    9.8270   -2.3100   23.4490 C   0  0  0  0  0  0  0  0  0  0  0  0
    8.6490   -1.3960   21.6250 C   0  0  0  0  0  0  0  0  0  0  0  0
   10.7750   -1.0870   23.4000 C   0  0  0  0  0  0  0  0  0  0  0  0
   10.1180    0.1210   24.0730 C   0  0  0  0  0  0  0  0  0  0  0  0
   12.0420   -0.9890   22.8440 C   0  0  0  0  0  0  0  0  0  0  0  0
   12.7130   -2.1430   22.1720 C   0  0  0  0  0  0  0  0  0  0  0  0
   10.8320    1.4930   24.1490 C   0  0  0  0  0  0  0  0  0  0  0  0
   12.7240    0.3640   22.9380 C   0  0  0  0  0  0  0  0  0  0  0  0
   12.2370    1.5250   23.5070 C   0  0  0  0  0  0  0  0  0  0  0  0
  1  2  1  0
  2  3  1  0
  3  4  1  0
  4  5  1  0
  6  5  1  1
  6  7  1  0
  6  8  1  0
  7  8  1  6
  7  9  1  0
  9 10  1  0
  9 11  1  6
 10 12  1  0
 11 13  1  0
 10 14  1  0
 12 15  2  0
 12 16  1  0
 13 17  1  0
 13 18  1  0
 14 18  1  0
 17 19  1  0
 19 20  2  0
 19 21  1  0
 21 22  1  0
 20 23  1  0
 21 24  2  0
 23 25  2  0
 24 25  1  0
M  END
