x0831_0-x1418_1-x0692_1
     RDKit          3D

 17 18  0  0  0  0  0  0  0  0999 V2000
    6.3860   -3.2780   19.8740 C   0  0  0  0  0  0  0  0  0  0  0  0
    7.3400   -2.9940   18.7330 C   0  0  0  0  0  0  0  0  0  0  0  0
    5.4570   -4.0870   19.7160 O   0  0  0  0  0  0  0  0  0  0  0  0
    6.6040   -2.6400   21.0810 N   0  0  0  0  0  0  0  0  0  0  0  0
    6.5670   -3.3620   22.3560 C   0  0  0  0  0  0  0  0  0  0  0  0
    7.3530   -1.3770   21.1550 C   0  0  0  0  0  0  0  0  0  0  0  0
    7.9660   -3.5130   22.9900 C   0  0  0  0  0  0  0  0  0  0  0  0
    8.7540   -1.6100   21.7280 C   0  0  0  0  0  0  0  0  0  0  0  0
    8.7650   -2.2670   23.0480 N   0  0  0  0  0  0  0  0  0  0  0  0
   10.1590   -2.4380   23.5050 C   0  0  0  0  0  0  0  0  0  0  0  0
   10.8630   -1.0730   23.5220 C   0  0  0  0  0  0  0  0  0  0  0  0
   10.2350    0.1660   24.1880 C   0  0  0  0  0  0  0  0  0  0  0  0
   12.1190   -0.9420   22.8970 C   0  0  0  0  0  0  0  0  0  0  0  0
   12.7960   -2.0850   22.2190 C   0  0  0  0  0  0  0  0  0  0  0  0
   10.9050    1.4340   24.1660 C   0  0  0  0  0  0  0  0  0  0  0  0
   12.7730    0.2770   22.8870 C   0  0  0  0  0  0  0  0  0  0  0  0
   12.1620    1.5040   23.5270 C   0  0  0  0  0  0  0  0  0  0  0  0
  1  2  1  0
  1  3  2  0
  1  4  1  0
  4  5  1  0
  4  6  1  0
  5  7  1  0
  6  8  1  0
  7  9  1  0
  8  9  1  0
  9 10  1  0
 10 11  1  0
 11 12  2  0
 11 13  1  0
 13 14  1  0
 12 15  1  0
 13 16  2  0
 15 17  2  0
 16 17  1  0
M  END
