x0831_0-x0981_1-x0434_2-x1412_1-x0770_1
     RDKit          3D

 39 41  0  0  0  0  0  0  0  0999 V2000
    4.3770   -5.3840   23.2580 C   0  0  0  0  0  0  0  0  0  0  0  0
    2.9670   -5.9560   23.5140 C   0  0  1  0  0  0  0  0  0  0  0  0
    2.7030   -7.1930   22.7670 N   0  0  0  0  0  0  0  0  0  0  0  0
    4.6660   -4.0560   23.6120 N   0  0  0  0  0  0  0  0  0  0  0  0
    2.7880   -6.1690   25.0160 C   0  0  0  0  0  0  0  0  0  0  0  0
    5.9720   -3.3610   23.4400 C   0  0  0  0  0  0  0  0  0  0  0  0
    1.3870   -7.4250   22.1540 C   0  0  0  0  0  0  0  0  0  0  0  0
    3.1680   -7.6510   25.2790 C   0  0  0  0  0  0  0  0  0  0  0  0
    6.9190   -3.9030   22.3270 C   0  0  1  0  0  0  0  0  0  0  0  0
    1.2350   -8.7150   21.3870 C   0  0  0  0  0  0  0  0  0  0  0  0
    0.4680   -6.6170   22.2350 O   0  0  0  0  0  0  0  0  0  0  0  0
    2.5380   -8.2950   26.3000 N   0  0  0  0  0  0  0  0  0  0  0  0
    4.0080   -8.1710   24.5780 O   0  0  0  0  0  0  0  0  0  0  0  0
    6.8280   -2.9860   21.2740 C   0  0  0  0  0  0  0  0  0  0  0  0
    8.2070   -3.9240   22.9110 C   0  0  0  0  0  0  0  0  0  0  0  0
    6.8300   -3.7640   19.9980 C   0  0  0  0  0  0  0  0  0  0  0  0
    5.5590   -2.7210   20.8050 C   0  0  0  0  0  0  0  0  0  0  0  0
    8.7650   -2.5630   23.1380 N   0  0  0  0  0  0  0  0  0  0  0  0
    7.6380   -1.8470   21.1850 C   0  0  1  0  0  0  0  0  0  0  0  0
    7.6700   -3.2310   18.8610 C   0  0  0  0  0  0  0  0  0  0  0  0
    6.1030   -4.7500   19.9330 O   0  0  0  0  0  0  0  0  0  0  0  0
    5.3740   -1.9780   19.6540 C   0  0  0  0  0  0  0  0  0  0  0  0
    4.6350   -3.2930   21.3750 O   0  0  0  0  0  0  0  0  0  0  0  0
   10.1710   -2.6000   23.5990 C   0  0  0  0  0  0  0  0  0  0  0  0
    6.8950   -0.5790   21.2960 N   0  0  0  0  0  0  0  0  0  0  0  0
    8.8060   -1.7200   21.9250 C   0  0  0  0  0  0  0  0  0  0  0  0
   10.8000   -1.2690   23.6120 C   0  0  0  0  0  0  0  0  0  0  0  0
    6.3470    0.1020   20.1270 C   0  0  0  0  0  0  0  0  0  0  0  0
   10.1330   -0.2030   24.3260 C   0  0  0  0  0  0  0  0  0  0  0  0
   12.0180   -1.0040   22.9470 C   0  0  0  0  0  0  0  0  0  0  0  0
    6.8800    0.0730   18.8470 C   0  0  0  0  0  0  0  0  0  0  0  0
    5.1780    0.8410   20.3220 C   0  0  0  0  0  0  0  0  0  0  0  0
   12.7620   -2.0510   22.1810 C   0  0  0  0  0  0  0  0  0  0  0  0
   10.7390    1.0400   24.3070 C   0  0  0  0  0  0  0  0  0  0  0  0
   12.5710    0.2640   22.9790 C   0  0  0  0  0  0  0  0  0  0  0  0
    6.4070    0.6890   17.7400 N   0  0  0  0  0  0  0  0  0  0  0  0
    4.4940    1.6020   19.1820 C   0  0  0  0  0  0  0  0  0  0  0  0
   11.9380    1.2900   23.6520 C   0  0  0  0  0  0  0  0  0  0  0  0
    5.2890    1.4190   17.8460 C   0  0  0  0  0  0  0  0  0  0  0  0
  2  1  1  1
  2  3  1  0
  1  4  2  3
  2  5  1  0
  4  6  1  0
  3  7  1  0
  5  8  1  0
  9  6  1  1
  7 10  1  0
  7 11  2  0
  8 12  1  0
  8 13  2  0
  9 14  1  0
  9 15  1  0
 14 16  1  0
 14 17  1  0
 15 18  1  0
 14 19  1  0
 16 20  1  0
 16 21  2  0
 17 22  1  0
 17 23  2  0
 18 24  1  0
 19 25  1  1
 18 26  1  0
 19 26  1  0
 24 27  1  0
 25 28  1  0
 27 29  2  0
 27 30  1  0
 28 31  2  0
 28 32  1  0
 30 33  1  0
 29 34  1  0
 30 35  2  0
 31 36  1  0
 32 37  2  0
 34 38  2  0
 35 38  1  0
 36 39  2  0
 37 39  1  0
M  END
