x0831_0-x1418_1-x1418_0-x0692_1-x1375_1
     RDKit          3D

 26 28  0  0  0  0  0  0  0  0999 V2000
    6.3760   -3.0650   19.6990 C   0  0  0  0  0  0  0  0  0  0  0  0
    7.4090   -2.9610   18.6180 C   0  0  0  0  0  0  0  0  0  0  0  0
    5.4640   -3.9000   19.5910 O   0  0  0  0  0  0  0  0  0  0  0  0
    6.4980   -2.2570   20.8020 N   0  0  0  0  0  0  0  0  0  0  0  0
    6.3100   -2.8380   22.0920 C   0  0  0  0  0  0  0  0  0  0  0  0
    7.5240   -1.1930   20.7730 C   0  0  0  0  0  0  0  0  0  0  0  0
    7.6240   -3.4030   22.6260 C   0  0  2  0  0  0  0  0  0  0  0  0
    8.7480   -1.4000   21.6980 C   0  0  0  0  0  0  0  0  0  0  0  0
    7.2240   -4.3740   23.7530 C   0  0  0  0  0  0  0  0  0  0  0  0
    8.4580   -2.1600   22.9580 N   0  0  0  0  0  0  0  0  0  0  0  0
    9.5900   -2.1050   23.9050 C   0  0  1  0  0  0  0  0  0  0  0  0
    5.7450   -4.7560   23.6020 C   0  0  2  0  0  0  0  0  0  0  0  0
   10.2970   -3.4070   23.6900 C   0  0  0  0  0  0  0  0  0  0  0  0
   10.5430   -0.9220   23.7130 C   0  0  0  0  0  0  0  0  0  0  0  0
    4.9690   -4.4450   24.7210 C   0  0  0  0  0  0  0  0  0  0  0  0
    5.3190   -6.0690   23.2380 C   0  0  0  0  0  0  0  0  0  0  0  0
   10.0980    0.2870   24.2370 C   0  0  0  0  0  0  0  0  0  0  0  0
   11.8140   -0.9690   23.0570 C   0  0  0  0  0  0  0  0  0  0  0  0
    4.0110   -5.3160   25.1680 C   0  0  0  0  0  0  0  0  0  0  0  0
    3.9900   -6.6980   24.1690 S   0  0  0  0  0  0  0  0  0  0  0  0
   12.4040   -2.1990   22.4460 C   0  0  0  0  0  0  0  0  0  0  0  0
    2.7550   -6.7150   23.4230 O   0  0  0  0  0  0  0  0  0  0  0  0
    4.4120   -7.8120   24.9720 O   0  0  0  0  0  0  0  0  0  0  0  0
   10.8700    1.4260   24.1200 C   0  0  0  0  0  0  0  0  0  0  0  0
   12.5840    0.1920   22.9570 C   0  0  0  0  0  0  0  0  0  0  0  0
   12.0980    1.3680   23.4880 C   0  0  0  0  0  0  0  0  0  0  0  0
  1  2  1  0
  1  3  2  0
  1  4  1  0
  4  5  1  0
  4  6  1  0
  5  7  1  0
  6  8  1  0
  7  9  1  1
  7 10  1  0
  8 10  1  0
 10 11  1  0
 12  9  1  1
 11 13  1  6
 11 14  1  0
 12 15  1  0
 12 16  1  0
 14 17  2  0
 14 18  1  0
 15 19  2  0
 16 20  1  0
 19 20  1  0
 18 21  1  0
 20 22  1  0
 20 23  1  0
 17 24  1  0
 18 25  2  0
 24 26  2  0
 25 26  1  0
M  END
