x0831_0-x0770_1-x0397_0-x1334_0-x1334_1
     RDKit          3D

 27 30  0  0  0  0  0  0  0  0999 V2000
    6.1510   -3.3160   19.9110 C   0  0  0  0  0  0  0  0  0  0  0  0
    7.1740   -2.9770   18.8340 C   0  0  0  0  0  0  0  0  0  0  0  0
    5.2150   -4.0660   19.6510 O   0  0  0  0  0  0  0  0  0  0  0  0
    6.3450   -2.8080   21.1910 N   0  0  0  0  0  0  0  0  0  0  0  0
    6.6530   -1.3640   21.3170 C   0  0  0  0  0  0  0  0  0  0  0  0
    6.8700   -3.5950   22.2860 C   0  0  1  0  0  0  0  0  0  0  0  0
    8.0920   -1.0690   21.8570 C   0  0  0  0  0  0  0  0  0  0  0  0
    7.2750   -2.7260   23.4650 C   0  0  0  0  0  0  0  0  0  0  0  0
    5.9620   -4.7410   22.6760 C   0  0  0  0  0  0  0  0  0  0  0  0
    8.3160   -1.6820   23.1730 N   0  0  0  0  0  0  0  0  0  0  0  0
    6.4290   -5.7450   23.2640 C   0  0  0  0  0  0  0  0  0  0  0  0
    6.0660   -6.0910   21.8990 C   0  0  0  0  0  0  0  0  0  0  0  0
    9.5850   -2.1490   23.1630 C   0  0  2  0  0  0  0  0  0  0  0  0
    9.9780   -3.4640   23.7400 C   0  0  0  0  0  0  0  0  0  0  0  0
   10.5980   -0.9860   23.2890 C   0  0  0  0  0  0  0  0  0  0  0  0
   10.1370    0.1170   24.0020 C   0  0  0  0  0  0  0  0  0  0  0  0
   11.8970   -0.9230   22.7480 C   0  0  0  0  0  0  0  0  0  0  0  0
    9.4020   -4.1920   24.9360 C   0  0  0  0  0  0  0  0  0  0  0  0
   12.5010   -2.0370   21.9660 C   0  0  0  0  0  0  0  0  0  0  0  0
   10.9660    1.2190   24.1280 C   0  0  0  0  0  0  0  0  0  0  0  0
   12.7090    0.2030   22.9030 C   0  0  0  0  0  0  0  0  0  0  0  0
    9.7880   -5.4340   25.3340 C   0  0  0  0  0  0  0  0  0  0  0  0
    8.1560   -3.6800   26.0690 S   0  0  0  0  0  0  0  0  0  0  0  0
   12.2100    1.2980   23.6080 C   0  0  0  0  0  0  0  0  0  0  0  0
    9.1910   -5.9380   26.4050 C   0  0  0  0  0  0  0  0  0  0  0  0
    8.2430   -5.1470   26.9870 C   0  0  0  0  0  0  0  0  0  0  0  0
    7.2760   -5.4630   28.3640 Cl  0  0  0  0  0  0  0  0  0  0  0  0
  1  2  1  0
  1  3  2  0
  1  4  1  0
  4  5  1  0
  4  6  1  0
  5  7  1  0
  6  8  1  0
  6  9  1  1
  7 10  1  0
  8 10  1  0
  9 11  1  0
  9 12  1  0
 11 12  1  0
 10 13  1  0
 13 14  1  1
 13 15  1  0
 15 16  2  0
 15 17  1  0
 14 18  1  0
 17 19  1  0
 16 20  1  0
 17 21  2  0
 18 22  2  0
 18 23  1  0
 20 24  2  0
 21 24  1  0
 22 25  1  0
 23 26  1  0
 25 26  2  0
 26 27  1  0
M  END
