x0831_0-x0770_1-x0540_3-x0692_1-x1334_1-x1385_1-x1375_1-x1412_1-x1418_1-x1334_0-x0434_2-x0397_0
     RDKit          3D

 43 47  0  0  0  0  0  0  0  0999 V2000
    2.6810   -7.5620   23.6640 O   0  0  0  0  0  0  0  0  0  0  0  0
    3.4300   -7.2380   24.8220 C   0  0  0  0  0  0  0  0  0  0  0  0
    4.7770   -7.1490   24.4190 O   0  0  0  0  0  0  0  0  0  0  0  0
    5.3590   -5.8440   24.5620 C   0  0  0  0  0  0  0  0  0  0  0  0
    6.2770   -5.5750   23.4040 C   0  0  2  0  0  0  0  0  0  0  0  0
    5.7800   -4.7740   22.3340 C   0  0  2  0  0  0  0  0  0  0  0  0
    6.2290   -6.3700   22.3550 C   0  0  0  0  0  0  0  0  0  0  0  0
    6.8240   -3.6640   22.1540 C   0  0  1  0  0  0  0  0  0  0  0  0
    6.3790   -2.7530   21.1120 N   0  0  0  0  0  0  0  0  0  0  0  0
    7.1700   -2.9510   23.4730 C   0  0  0  0  0  0  0  0  0  0  0  0
    6.1750   -3.3450   19.8840 C   0  0  0  0  0  0  0  0  0  0  0  0
    8.1410   -1.8140   23.2920 N   0  0  0  0  0  0  0  0  0  0  0  0
    6.8110   -1.3880   21.3550 C   0  0  1  0  0  0  0  0  0  0  0  0
    7.1910   -2.9820   18.8030 C   0  0  0  0  0  0  0  0  0  0  0  0
    5.2610   -4.1440   19.7030 O   0  0  0  0  0  0  0  0  0  0  0  0
    5.8800   -0.6760   22.3710 C   0  0  0  0  0  0  0  0  0  0  0  0
    9.4190   -1.9510   24.0040 C   0  0  1  0  0  0  0  0  0  0  0  0
    8.2790   -1.4910   21.8930 C   0  0  0  0  0  0  0  0  0  0  0  0
    5.0990    0.5120   21.7620 C   0  0  1  0  0  0  0  0  0  0  0  0
    9.9000   -3.3680   23.8640 C   0  0  0  0  0  0  0  0  0  0  0  0
   10.4860   -0.8610   23.6910 C   0  0  0  0  0  0  0  0  0  0  0  0
    5.2730    1.7710   22.5960 C   0  0  0  0  0  0  0  0  0  0  0  0
   10.1910    0.3580   24.2410 C   0  0  0  0  0  0  0  0  0  0  0  0
   11.7160   -0.9500   22.9230 C   0  0  0  0  0  0  0  0  0  0  0  0
    9.4110   -4.2530   25.0020 C   0  0  0  0  0  0  0  0  0  0  0  0
    5.4450    0.6540   20.2900 C   0  0  0  0  0  0  0  0  0  0  0  0
    4.0300    2.5580   22.6250 N   0  0  0  0  0  0  0  0  0  0  0  0
   12.1930   -2.1920   22.2390 C   0  0  0  0  0  0  0  0  0  0  0  0
   11.0670    1.6070   24.0940 C   0  0  0  0  0  0  0  0  0  0  0  0
   12.5800    0.1490   22.7570 C   0  0  0  0  0  0  0  0  0  0  0  0
    9.8380   -5.5080   25.3460 C   0  0  0  0  0  0  0  0  0  0  0  0
    8.1640   -3.8090   26.1370 S   0  0  0  0  0  0  0  0  0  0  0  0
    6.5530    0.0370   19.8820 C   0  0  0  0  0  0  0  0  0  0  0  0
    4.7310    1.3580   19.3270 C   0  0  0  0  0  0  0  0  0  0  0  0
    2.9500    2.1760   23.3840 C   0  0  0  0  0  0  0  0  0  0  0  0
   12.2340    1.3760   23.3380 C   0  0  0  0  0  0  0  0  0  0  0  0
    9.2400   -6.0930   26.4290 C   0  0  0  0  0  0  0  0  0  0  0  0
    8.2830   -5.2800   26.9890 C   0  0  0  0  0  0  0  0  0  0  0  0
    6.9710    0.0830   18.5790 C   0  0  0  0  0  0  0  0  0  0  0  0
    5.1760    1.3940   18.0210 C   0  0  0  0  0  0  0  0  0  0  0  0
    2.9760    1.4830   24.3980 O   0  0  0  0  0  0  0  0  0  0  0  0
    7.2970   -5.6100   28.3490 Cl  0  0  0  0  0  0  0  0  0  0  0  0
    6.3000    0.7560   17.6290 N   0  0  0  0  0  0  0  0  0  0  0  0
  1  2  1  0
  2  3  1  0
  3  4  1  0
  5  4  1  1
  5  6  1  0
  5  7  1  0
  6  7  1  6
  6  8  1  0
  8  9  1  0
  8 10  1  1
  9 11  1  0
 10 12  1  0
  9 13  1  0
 11 14  1  0
 11 15  2  0
 13 16  1  1
 12 17  1  0
 12 18  1  0
 13 18  1  0
 19 16  1  1
 17 20  1  6
 17 21  1  0
 19 22  1  0
 21 23  2  0
 21 24  1  0
 20 25  1  0
 19 26  1  0
 22 27  1  0
 24 28  1  0
 23 29  1  0
 24 30  2  0
 25 31  2  0
 25 32  1  0
 26 33  2  0
 26 34  1  0
 27 35  1  0
 29 36  2  0
 30 36  1  0
 31 37  1  0
 32 38  1  0
 37 38  2  0
 33 39  1  0
 34 40  2  0
 35 41  2  0
 38 42  1  0
 39 43  2  0
 40 43  1  0
M  END
