x0831_0-x0771_1-x1334_1
     RDKit          3D

 30 32  0  0  0  0  0  0  0  0999 V2000
    5.0480   -5.6740   25.4700 S   0  0  0  0  0  0  0  0  0  0  0  0
    5.6590   -5.5870   23.8000 C   0  0  0  0  0  0  0  0  0  0  0  0
    5.6230   -4.1890   23.1340 C   0  0  0  0  0  0  0  0  0  0  0  0
    4.3770   -6.9450   25.6170 O   0  0  0  0  0  0  0  0  0  0  0  0
    6.1190   -5.3200   26.3660 O   0  0  0  0  0  0  0  0  0  0  0  0
    3.8100   -4.4040   25.7010 C   0  0  0  0  0  0  0  0  0  0  0  0
    2.3530   -4.7470   25.3950 C   0  0  0  0  0  0  0  0  0  0  0  0
    4.1430   -2.9910   26.1960 C   0  0  0  0  0  0  0  0  0  0  0  0
    1.8930   -6.0910   24.9000 C   0  0  0  0  0  0  0  0  0  0  0  0
    1.3780   -3.7760   25.5810 C   0  0  0  0  0  0  0  0  0  0  0  0
    3.0640   -1.9740   26.3830 C   0  0  0  0  0  0  0  0  0  0  0  0
    6.8820   -3.9550   22.2680 C   0  0  1  0  0  0  0  0  0  0  0  0
    1.6200   -2.4310   26.0490 C   0  0  0  0  0  0  0  0  0  0  0  0
    6.6300   -2.9070   21.2410 N   0  0  0  0  0  0  0  0  0  0  0  0
    8.0600   -3.6810   23.2270 C   0  0  0  0  0  0  0  0  0  0  0  0
    0.4740   -1.4810   26.2150 C   0  0  0  0  0  0  0  0  0  0  0  0
    6.3480   -3.4090   19.9580 C   0  0  0  0  0  0  0  0  0  0  0  0
    8.7470   -2.3640   23.1160 N   0  0  0  0  0  0  0  0  0  0  0  0
    7.3440   -1.6370   21.4180 C   0  0  0  0  0  0  0  0  0  0  0  0
    7.3160   -3.0180   18.8450 C   0  0  0  0  0  0  0  0  0  0  0  0
    5.3890   -4.1570   19.7540 O   0  0  0  0  0  0  0  0  0  0  0  0
   10.1560   -2.4760   23.4880 C   0  0  0  0  0  0  0  0  0  0  0  0
    8.6820   -1.8880   21.7400 C   0  0  0  0  0  0  0  0  0  0  0  0
   10.8580   -1.1290   23.5190 C   0  0  0  0  0  0  0  0  0  0  0  0
   10.2190   -0.0420   24.2090 C   0  0  0  0  0  0  0  0  0  0  0  0
   12.1000   -0.9290   22.8840 C   0  0  0  0  0  0  0  0  0  0  0  0
   12.8120   -2.0180   22.1440 C   0  0  0  0  0  0  0  0  0  0  0  0
   10.8640    1.1790   24.2120 C   0  0  0  0  0  0  0  0  0  0  0  0
   12.7020    0.3210   22.9310 C   0  0  0  0  0  0  0  0  0  0  0  0
   12.0870    1.3660   23.5830 C   0  0  0  0  0  0  0  0  0  0  0  0
  1  2  1  0
  2  3  1  0
  1  4  2  0
  1  5  2  0
  1  6  1  0
  6  7  2  0
  6  8  1  0
  7  9  1  0
  7 10  1  0
  8 11  2  0
 12  3  1  1
 10 13  2  0
 11 13  1  0
 12 14  1  0
 12 15  1  0
 13 16  1  0
 14 17  1  0
 15 18  1  0
 14 19  1  0
 17 20  1  0
 17 21  2  0
 18 22  1  0
 18 23  1  0
 19 23  1  0
 22 24  1  0
 24 25  2  0
 24 26  1  0
 26 27  1  0
 25 28  1  0
 26 29  2  0
 28 30  2  0
 29 30  1  0
M  END
