x0831_0-x1374_1-x0770_1-x0692_1-x1375_1
     RDKit          3D

 27 29  0  0  0  0  0  0  0  0999 V2000
    6.3540   -3.2980   19.9330 C   0  0  0  0  0  0  0  0  0  0  0  0
    7.2950   -2.9840   18.7910 C   0  0  0  0  0  0  0  0  0  0  0  0
    5.4260   -4.1050   19.7630 O   0  0  0  0  0  0  0  0  0  0  0  0
    6.6140   -2.6680   21.1580 N   0  0  0  0  0  0  0  0  0  0  0  0
    7.2790   -1.3720   21.1480 C   0  0  0  0  0  0  0  0  0  0  0  0
    6.6780   -3.3550   22.4550 C   0  0  1  0  0  0  0  0  0  0  0  0
    6.4230   -4.8510   22.3410 C   0  0  0  0  0  0  0  0  0  0  0  0
    8.7240   -1.5250   21.6600 C   0  0  0  0  0  0  0  0  0  0  0  0
    7.8690   -3.2550   23.1720 C   0  0  0  0  0  0  0  0  0  0  0  0
    8.7170   -2.0830   23.0190 N   0  0  0  0  0  0  0  0  0  0  0  0
    4.9990   -5.1800   22.7130 C   0  0  2  0  0  0  0  0  0  0  0  0
   10.0740   -2.2890   23.5370 C   0  0  0  0  0  0  0  0  0  0  0  0
    4.5910   -4.6250   23.9210 C   0  0  0  0  0  0  0  0  0  0  0  0
    4.9000   -6.5550   22.7550 C   0  0  0  0  0  0  0  0  0  0  0  0
   10.7990   -0.9950   23.5390 C   0  0  0  0  0  0  0  0  0  0  0  0
    3.8420   -5.3530   24.8030 C   0  0  0  0  0  0  0  0  0  0  0  0
    3.6730   -6.8430   24.0100 S   0  0  0  0  0  0  0  0  0  0  0  0
    2.3910   -6.9890   23.3650 O   0  0  0  0  0  0  0  0  0  0  0  0
    4.1650   -7.8780   24.8580 O   0  0  0  0  0  0  0  0  0  0  0  0
   10.2030    0.1160   24.1490 C   0  0  0  0  0  0  0  0  0  0  0  0
   12.0840   -0.9330   22.8980 C   0  0  0  0  0  0  0  0  0  0  0  0
   12.7030   -2.1270   22.2440 C   0  0  0  0  0  0  0  0  0  0  0  0
   10.9400    1.4110   24.1140 C   0  0  0  0  0  0  0  0  0  0  0  0
   12.8950    0.3880   22.8440 C   0  0  0  0  0  0  0  0  0  0  0  0
    1.3690   -7.1330   24.3730 O   0  0  0  0  0  0  0  0  0  0  0  0
    4.6890   -7.2680   26.0540 O   0  0  0  0  0  0  0  0  0  0  0  0
   12.2910    1.5630   23.4610 C   0  0  0  0  0  0  0  0  0  0  0  0
  1  2  1  0
  1  3  2  0
  1  4  1  0
  4  5  1  0
  4  6  1  0
  6  7  1  6
  5  8  1  0
  6  9  1  0
  8 10  1  0
  9 10  1  0
 11  7  1  1
 10 12  1  0
 11 13  1  0
 11 14  1  0
 12 15  1  0
 13 16  2  0
 14 17  1  0
 16 17  1  0
 17 18  1  0
 17 19  1  0
 15 20  2  0
 15 21  1  0
 21 22  1  0
 20 23  1  0
 21 24  2  0
 18 25  1  0
 19 26  1  0
 23 27  2  0
 24 27  1  0
M  END
