x0831_0-x1418_1-x1386_1-x1334_1
     RDKit          3D

 17 18  0  0  0  0  0  0  0  0999 V2000
    6.3760   -3.2660   19.8810 C   0  0  0  0  0  0  0  0  0  0  0  0
    7.3730   -3.0120   18.7520 C   0  0  0  0  0  0  0  0  0  0  0  0
    5.4420   -4.0710   19.7160 O   0  0  0  0  0  0  0  0  0  0  0  0
    6.5820   -2.5990   21.0770 N   0  0  0  0  0  0  0  0  0  0  0  0
    6.5690   -3.3000   22.3650 C   0  0  0  0  0  0  0  0  0  0  0  0
    7.4020   -1.3820   21.1180 C   0  0  0  0  0  0  0  0  0  0  0  0
    7.9790   -3.5020   22.9580 C   0  0  0  0  0  0  0  0  0  0  0  0
    8.7940   -1.6420   21.7140 C   0  0  0  0  0  0  0  0  0  0  0  0
    8.7240   -2.2240   23.0670 N   0  0  0  0  0  0  0  0  0  0  0  0
   10.0270   -2.4120   23.5270 C   0  0  0  0  0  0  0  0  0  0  0  0
   10.8170   -1.0790   23.5140 C   0  0  0  0  0  0  0  0  0  0  0  0
   10.2570    0.0740   24.1530 C   0  0  0  0  0  0  0  0  0  0  0  0
   12.1900   -0.9290   22.8240 C   0  0  0  0  0  0  0  0  0  0  0  0
   12.8810   -2.0460   22.1130 C   0  0  0  0  0  0  0  0  0  0  0  0
   10.8820    1.3070   24.1700 C   0  0  0  0  0  0  0  0  0  0  0  0
   12.7550    0.2620   22.8720 C   0  0  0  0  0  0  0  0  0  0  0  0
   12.0840    1.4340   23.5630 C   0  0  0  0  0  0  0  0  0  0  0  0
  1  2  1  0
  1  3  2  0
  1  4  1  0
  4  5  1  0
  4  6  1  0
  5  7  1  0
  6  8  1  0
  7  9  1  0
  8  9  1  0
  9 10  1  0
 10 11  1  0
 11 12  2  0
 11 13  1  0
 13 14  1  0
 12 15  1  0
 13 16  2  0
 15 17  2  0
 16 17  1  0
M  END
