x0831_0-x0397_0-x1386_1-x1375_1
     RDKit          3D

 25 27  0  0  0  0  0  0  0  0999 V2000
    3.0680   -8.1720   24.0190 O   0  0  0  0  0  0  0  0  0  0  0  0
    3.4450   -6.8530   24.3230 C   0  0  0  0  0  0  0  0  0  0  0  0
    4.7490   -6.9010   24.8570 O   0  0  0  0  0  0  0  0  0  0  0  0
    5.5590   -5.7900   24.4670 C   0  0  0  0  0  0  0  0  0  0  0  0
    6.1020   -6.1040   23.0940 C   0  0  2  0  0  0  0  0  0  0  0  0
    6.0890   -5.2620   22.0320 C   0  0  1  0  0  0  0  0  0  0  0  0
    5.1160   -6.3410   22.0210 C   0  0  0  0  0  0  0  0  0  0  0  0
    5.7780   -3.8660   22.4970 C   0  0  0  0  0  0  0  0  0  0  0  0
    7.0220   -3.1020   22.0930 C   0  0  1  0  0  0  0  0  0  0  0  0
    6.6680   -2.2520   20.9300 N   0  0  0  0  0  0  0  0  0  0  0  0
    7.4810   -2.5000   23.2420 C   0  0  0  0  0  0  0  0  0  0  0  0
    6.4190   -3.0270   19.7770 C   0  0  0  0  0  0  0  0  0  0  0  0
    8.6300   -1.6590   22.9600 N   0  0  0  0  0  0  0  0  0  0  0  0
    7.5750   -1.1120   20.8140 C   0  0  0  0  0  0  0  0  0  0  0  0
    7.4170   -2.9470   18.6540 C   0  0  0  0  0  0  0  0  0  0  0  0
    5.4560   -3.8240   19.6290 O   0  0  0  0  0  0  0  0  0  0  0  0
    9.8420   -2.0560   23.6190 C   0  0  0  0  0  0  0  0  0  0  0  0
    8.8980   -1.4320   21.5440 C   0  0  0  0  0  0  0  0  0  0  0  0
   10.7280   -0.8480   23.5890 C   0  0  0  0  0  0  0  0  0  0  0  0
   10.3340    0.3500   24.1430 C   0  0  0  0  0  0  0  0  0  0  0  0
   12.0390   -0.9090   22.9350 C   0  0  0  0  0  0  0  0  0  0  0  0
   12.5990   -2.1410   22.2820 C   0  0  0  0  0  0  0  0  0  0  0  0
   11.1070    1.4210   24.0780 C   0  0  0  0  0  0  0  0  0  0  0  0
   12.9520    0.3290   22.8630 C   0  0  0  0  0  0  0  0  0  0  0  0
   12.4680    1.4250   23.4140 C   0  0  0  0  0  0  0  0  0  0  0  0
  1  2  1  0
  2  3  1  0
  3  4  1  0
  5  4  1  1
  5  6  1  0
  5  7  1  0
  6  7  1  0
  6  8  1  1
  9  8  1  1
  9 10  1  0
  9 11  1  0
 10 12  1  0
 11 13  1  0
 10 14  1  0
 12 15  1  0
 12 16  2  0
 13 17  1  0
 13 18  1  0
 14 18  1  0
 17 19  1  0
 19 20  2  0
 19 21  1  0
 21 22  1  0
 20 23  1  0
 21 24  2  0
 23 25  2  0
 24 25  1  0
M  END
