x0831_0-x0692_1-x1374_1-x0831_1-x0397_0
     RDKit          3D

 25 27  0  0  0  0  0  0  0  0999 V2000
    2.3630   -7.5860   23.2410 O   0  0  0  0  0  0  0  0  0  0  0  0
    2.6110   -7.8600   24.6030 C   0  0  0  0  0  0  0  0  0  0  0  0
    4.0090   -7.9190   24.7700 O   0  0  0  0  0  0  0  0  0  0  0  0
    4.6910   -7.1650   23.7690 C   0  0  0  0  0  0  0  0  0  0  0  0
    5.0110   -5.9520   24.2010 C   0  0  0  0  0  0  0  0  0  0  0  0
    5.9900   -5.3830   23.2270 C   0  0  2  0  0  0  0  0  0  0  0  0
    5.5290   -4.3560   22.3240 C   0  0  2  0  0  0  0  0  0  0  0  0
    6.0910   -5.8990   22.0530 C   0  0  0  0  0  0  0  0  0  0  0  0
    6.3070   -3.0810   22.3290 C   0  0  2  0  0  0  0  0  0  0  0  0
    6.4270   -2.4580   20.9980 N   0  0  0  0  0  0  0  0  0  0  0  0
    7.6880   -3.2140   23.0000 C   0  0  0  0  0  0  0  0  0  0  0  0
    6.2730   -3.2350   19.8590 C   0  0  0  0  0  0  0  0  0  0  0  0
    8.5450   -2.0110   22.9930 N   0  0  0  0  0  0  0  0  0  0  0  0
    7.2220   -1.1900   21.0690 C   0  0  0  0  0  0  0  0  0  0  0  0
    5.4100   -4.1250   19.7560 O   0  0  0  0  0  0  0  0  0  0  0  0
    7.2410   -2.9780   18.7300 C   0  0  0  0  0  0  0  0  0  0  0  0
    9.9120   -2.2950   23.4680 C   0  0  0  0  0  0  0  0  0  0  0  0
    8.6290   -1.4370   21.6520 C   0  0  0  0  0  0  0  0  0  0  0  0
   10.7240   -1.0230   23.4810 C   0  0  0  0  0  0  0  0  0  0  0  0
   10.1950    0.1520   24.1000 C   0  0  0  0  0  0  0  0  0  0  0  0
   12.0060   -0.9940   22.8650 C   0  0  0  0  0  0  0  0  0  0  0  0
   12.6090   -2.1930   22.1960 C   0  0  0  0  0  0  0  0  0  0  0  0
   10.8660    1.3780   24.1360 C   0  0  0  0  0  0  0  0  0  0  0  0
   12.8390    0.2880   22.8500 C   0  0  0  0  0  0  0  0  0  0  0  0
   12.2600    1.4980   23.4890 C   0  0  0  0  0  0  0  0  0  0  0  0
  1  2  1  0
  2  3  1  0
  3  4  1  0
  4  5  1  0
  6  5  1  1
  6  7  1  0
  6  8  1  0
  7  8  1  6
  7  9  1  0
  9 10  1  0
  9 11  1  6
 10 12  1  0
 11 13  1  0
 10 14  1  0
 12 15  2  0
 12 16  1  0
 13 17  1  0
 13 18  1  0
 14 18  1  0
 17 19  1  0
 19 20  2  0
 19 21  1  0
 21 22  1  0
 20 23  1  0
 21 24  2  0
 23 25  2  0
 24 25  1  0
M  END
