x0831_0-x1385_1-x1386_1-x0692_1-x1375_1
     RDKit          3D

 25 27  0  0  0  0  0  0  0  0999 V2000
    6.3270   -3.0630   19.7470 C   0  0  0  0  0  0  0  0  0  0  0  0
    7.3310   -2.9250   18.6370 C   0  0  0  0  0  0  0  0  0  0  0  0
    5.4390   -3.9290   19.6390 O   0  0  0  0  0  0  0  0  0  0  0  0
    6.4490   -2.2410   20.8530 N   0  0  0  0  0  0  0  0  0  0  0  0
    6.2480   -2.9330   22.0860 C   0  0  0  0  0  0  0  0  0  0  0  0
    7.4110   -1.1420   20.9930 C   0  0  0  0  0  0  0  0  0  0  0  0
    7.5640   -3.4480   22.6650 C   0  0  2  0  0  0  0  0  0  0  0  0
    8.6740   -1.5160   21.7720 C   0  0  0  0  0  0  0  0  0  0  0  0
    7.0890   -4.4810   23.7190 C   0  0  0  0  0  0  0  0  0  0  0  0
    8.4770   -2.3020   23.0040 N   0  0  0  0  0  0  0  0  0  0  0  0
    9.8160   -2.5540   23.5680 C   0  0  0  0  0  0  0  0  0  0  0  0
    5.6400   -4.8730   23.4290 C   0  0  2  0  0  0  0  0  0  0  0  0
   10.6810   -1.2590   23.5410 C   0  0  0  0  0  0  0  0  0  0  0  0
    4.6390   -4.3960   24.3300 C   0  0  0  0  0  0  0  0  0  0  0  0
    5.3020   -6.2240   23.1540 C   0  0  0  0  0  0  0  0  0  0  0  0
   10.0770   -0.0530   24.2560 C   0  0  0  0  0  0  0  0  0  0  0  0
   11.9400   -1.0890   22.9230 C   0  0  0  0  0  0  0  0  0  0  0  0
    3.6920   -5.2950   24.7630 C   0  0  0  0  0  0  0  0  0  0  0  0
    3.9540   -6.8280   24.0940 S   0  0  0  0  0  0  0  0  0  0  0  0
   12.6530   -2.1750   22.1760 C   0  0  0  0  0  0  0  0  0  0  0  0
    2.9420   -7.2660   23.1730 O   0  0  0  0  0  0  0  0  0  0  0  0
    4.4430   -7.7650   25.0570 O   0  0  0  0  0  0  0  0  0  0  0  0
   10.7610    1.1460   24.2690 C   0  0  0  0  0  0  0  0  0  0  0  0
   12.5750    0.1590   22.9880 C   0  0  0  0  0  0  0  0  0  0  0  0
   11.9830    1.2400   23.6460 C   0  0  0  0  0  0  0  0  0  0  0  0
  1  2  1  0
  1  3  2  0
  1  4  1  0
  4  5  1  0
  4  6  1  0
  5  7  1  0
  6  8  1  0
  7  9  1  1
  7 10  1  0
  8 10  1  0
 10 11  1  0
 12  9  1  1
 11 13  1  0
 12 14  1  0
 12 15  1  0
 13 16  2  0
 13 17  1  0
 14 18  2  0
 15 19  1  0
 18 19  1  0
 17 20  1  0
 19 21  1  0
 19 22  1  0
 16 23  1  0
 17 24  2  0
 23 25  2  0
 24 25  1  0
M  END
