x0831_0-x0770_1-x1334_1
     RDKit          3D

 17 18  0  0  0  0  0  0  0  0999 V2000
    6.2870   -3.3520   19.9760 C   0  0  0  0  0  0  0  0  0  0  0  0
    7.3030   -3.0240   18.8830 C   0  0  0  0  0  0  0  0  0  0  0  0
    5.4200   -4.2150   19.7910 O   0  0  0  0  0  0  0  0  0  0  0  0
    6.3960   -2.6560   21.1870 N   0  0  0  0  0  0  0  0  0  0  0  0
    7.1480   -1.3760   21.2720 C   0  0  0  0  0  0  0  0  0  0  0  0
    6.4150   -3.3880   22.4650 C   0  0  0  0  0  0  0  0  0  0  0  0
    8.5950   -1.6120   21.7670 C   0  0  0  0  0  0  0  0  0  0  0  0
    7.8570   -3.5390   23.0260 C   0  0  0  0  0  0  0  0  0  0  0  0
    8.6320   -2.2850   23.0770 N   0  0  0  0  0  0  0  0  0  0  0  0
   10.0430   -2.4570   23.4740 C   0  0  0  0  0  0  0  0  0  0  0  0
   10.7590   -1.1370   23.4920 C   0  0  0  0  0  0  0  0  0  0  0  0
   10.1830    0.1220   24.1400 C   0  0  0  0  0  0  0  0  0  0  0  0
   12.0360   -0.9920   22.8800 C   0  0  0  0  0  0  0  0  0  0  0  0
   12.7210   -2.1290   22.1970 C   0  0  0  0  0  0  0  0  0  0  0  0
   10.8830    1.4630   24.1440 C   0  0  0  0  0  0  0  0  0  0  0  0
   12.7140    0.2400   22.8800 C   0  0  0  0  0  0  0  0  0  0  0  0
   12.1060    1.5210   23.5370 C   0  0  0  0  0  0  0  0  0  0  0  0
  1  2  1  0
  1  3  2  0
  1  4  1  0
  4  5  1  0
  4  6  1  0
  5  7  1  0
  6  8  1  0
  7  9  1  0
  8  9  1  0
  9 10  1  0
 10 11  1  0
 11 12  2  0
 11 13  1  0
 13 14  1  0
 12 15  1  0
 13 16  2  0
 15 17  2  0
 16 17  1  0
M  END
