x0831_1-x0831_0
     RDKit          3D

 18 19  0  0  0  0  0  0  0  0999 V2000
    6.1010   -3.4860   20.0340 C   0  0  0  0  0  0  0  0  0  0  0  0
    7.1120   -3.0630   18.9730 C   0  0  0  0  0  0  0  0  0  0  0  0
    5.2650   -4.3500   19.7960 O   0  0  0  0  0  0  0  0  0  0  0  0
    6.2060   -2.8570   21.2830 N   0  0  0  0  0  0  0  0  0  0  0  0
    6.1920   -1.4950   21.4250 C   0  0  0  0  0  0  0  0  0  0  0  0
    6.9590   -3.6100   22.3040 C   0  0  0  0  0  0  0  0  0  0  0  0
    7.4990   -0.7300   21.3460 C   0  0  0  0  0  0  0  0  0  0  0  0
    7.6220   -2.8080   23.4260 C   0  0  0  0  0  0  0  0  0  0  0  0
    8.7130   -1.8830   23.0600 N   0  0  0  0  0  0  0  0  0  0  0  0
    8.7860   -1.4840   21.7400 C   0  0  0  0  0  0  0  0  0  0  0  0
   10.0370   -2.2560   23.5600 C   0  0  0  0  0  0  0  0  0  0  0  0
   10.9130   -0.9800   23.5050 C   0  0  0  0  0  0  0  0  0  0  0  0
   10.3630    0.1390   24.1020 C   0  0  0  0  0  0  0  0  0  0  0  0
   12.1620   -0.9060   22.8980 C   0  0  0  0  0  0  0  0  0  0  0  0
   12.8090   -2.0830   22.2250 C   0  0  0  0  0  0  0  0  0  0  0  0
   11.0150    1.3540   24.1100 C   0  0  0  0  0  0  0  0  0  0  0  0
   12.8440    0.3090   22.9010 C   0  0  0  0  0  0  0  0  0  0  0  0
   12.2700    1.4310   23.5000 C   0  0  0  0  0  0  0  0  0  0  0  0
  1  2  1  0
  1  3  2  0
  1  4  1  0
  4  5  1  0
  4  6  1  0
  5  7  1  0
  6  8  1  0
  8  9  1  0
  7 10  1  0
  9 10  1  0
  9 11  1  0
 11 12  1  0
 12 13  2  0
 12 14  1  0
 14 15  1  0
 13 16  1  0
 14 17  2  0
 16 18  2  0
 17 18  1  0
M  END
