x0831_0-x1418_1-x0692_1-x1375_1
     RDKit          3D

 25 27  0  0  0  0  0  0  0  0999 V2000
    6.3640   -3.1130   19.7060 C   0  0  0  0  0  0  0  0  0  0  0  0
    7.4390   -2.9560   18.6510 C   0  0  0  0  0  0  0  0  0  0  0  0
    5.4350   -3.9210   19.6040 O   0  0  0  0  0  0  0  0  0  0  0  0
    6.5360   -2.2880   20.8250 N   0  0  0  0  0  0  0  0  0  0  0  0
    6.3700   -2.8340   22.1240 C   0  0  0  0  0  0  0  0  0  0  0  0
    7.6080   -1.2890   20.8320 C   0  0  0  0  0  0  0  0  0  0  0  0
    7.6890   -3.4890   22.5500 C   0  0  2  0  0  0  0  0  0  0  0  0
    8.7520   -1.6600   21.5630 C   0  0  0  0  0  0  0  0  0  0  0  0
    7.3030   -4.3830   23.7630 C   0  0  0  0  0  0  0  0  0  0  0  0
    8.5750   -2.3430   22.8370 N   0  0  0  0  0  0  0  0  0  0  0  0
    9.7410   -2.4420   23.6220 C   0  0  0  0  0  0  0  0  0  0  0  0
    5.7780   -4.6570   23.7380 C   0  0  2  0  0  0  0  0  0  0  0  0
   10.5840   -1.1750   23.5910 C   0  0  0  0  0  0  0  0  0  0  0  0
    5.1020   -4.5450   24.9640 C   0  0  0  0  0  0  0  0  0  0  0  0
    5.3210   -5.9710   23.0240 C   0  0  0  0  0  0  0  0  0  0  0  0
   10.1130    0.1190   24.2250 C   0  0  0  0  0  0  0  0  0  0  0  0
   11.8460   -1.0990   22.9630 C   0  0  0  0  0  0  0  0  0  0  0  0
    4.1230   -5.4560   25.3170 C   0  0  0  0  0  0  0  0  0  0  0  0
    4.0090   -6.5450   24.0660 S   0  0  0  0  0  0  0  0  0  0  0  0
   12.4920   -2.2480   22.2720 C   0  0  0  0  0  0  0  0  0  0  0  0
    2.7380   -6.5200   23.3760 O   0  0  0  0  0  0  0  0  0  0  0  0
    4.3720   -8.0200   24.4700 O   0  0  0  0  0  0  0  0  0  0  0  0
   10.8630    1.2790   24.1780 C   0  0  0  0  0  0  0  0  0  0  0  0
   12.6340    0.2300   22.9580 C   0  0  0  0  0  0  0  0  0  0  0  0
   12.1000    1.3670   23.5660 C   0  0  0  0  0  0  0  0  0  0  0  0
  1  2  1  0
  1  3  2  0
  1  4  1  0
  4  5  1  0
  4  6  1  0
  5  7  1  0
  6  8  1  0
  7  9  1  1
  7 10  1  0
  8 10  1  0
 10 11  1  0
 12  9  1  1
 11 13  1  0
 12 14  1  0
 12 15  1  0
 13 16  2  0
 13 17  1  0
 14 18  2  0
 15 19  1  0
 18 19  1  0
 17 20  1  0
 19 21  1  0
 19 22  1  0
 16 23  1  0
 17 24  2  0
 23 25  2  0
 24 25  1  0
M  END
