x0831_0-x1412_1-x0770_1-x0397_0-x0434_2-x1334_0-x1334_1
     RDKit          3D

 34 38  0  0  0  0  0  0  0  0999 V2000
    6.3860   -3.3250   20.0070 C   0  0  0  0  0  0  0  0  0  0  0  0
    7.3520   -2.9950   18.8640 C   0  0  0  0  0  0  0  0  0  0  0  0
    5.4660   -4.1330   19.7700 O   0  0  0  0  0  0  0  0  0  0  0  0
    6.5440   -2.7600   21.3110 N   0  0  0  0  0  0  0  0  0  0  0  0
    7.4180   -1.5910   21.5260 C   0  0  2  0  0  0  0  0  0  0  0  0
    6.4030   -3.4820   22.5930 C   0  0  2  0  0  0  0  0  0  0  0  0
    7.6120   -0.8590   20.3230 N   0  0  0  0  0  0  0  0  0  0  0  0
    8.7820   -2.0140   22.0130 C   0  0  0  0  0  0  0  0  0  0  0  0
    7.7890   -3.6130   23.3250 C   0  0  0  0  0  0  0  0  0  0  0  0
    5.6630   -4.8130   22.4190 C   0  0  0  0  0  0  0  0  0  0  0  0
    8.5150   -2.3210   23.2920 N   0  0  0  0  0  0  0  0  0  0  0  0
    6.1710   -6.1560   23.0410 C   0  0  0  0  0  0  0  0  0  0  0  0
    6.3020   -6.1060   21.8060 C   0  0  0  0  0  0  0  0  0  0  0  0
    6.7030   -0.0930   19.6410 C   0  0  0  0  0  0  0  0  0  0  0  0
    9.6260   -2.0960   24.2180 C   0  0  1  0  0  0  0  0  0  0  0  0
    6.9690    0.2630   18.4310 C   0  0  0  0  0  0  0  0  0  0  0  0
    5.5000    0.3180   20.2110 C   0  0  0  0  0  0  0  0  0  0  0  0
   10.3740   -3.3540   24.4170 C   0  0  0  0  0  0  0  0  0  0  0  0
   10.5610   -0.9150   23.8970 C   0  0  0  0  0  0  0  0  0  0  0  0
    6.2420    0.9990   17.6040 N   0  0  0  0  0  0  0  0  0  0  0  0
    4.5790    1.1850   19.3260 C   0  0  0  0  0  0  0  0  0  0  0  0
   10.1800    0.4660   24.3410 C   0  0  0  0  0  0  0  0  0  0  0  0
   11.9310   -0.9630   23.1240 C   0  0  0  0  0  0  0  0  0  0  0  0
    9.6680   -4.2570   25.3850 C   0  0  0  0  0  0  0  0  0  0  0  0
    5.0620    1.4560   18.0510 C   0  0  0  0  0  0  0  0  0  0  0  0
   12.5490   -2.2000   22.5590 C   0  0  0  0  0  0  0  0  0  0  0  0
   10.9230    1.5800   24.1120 C   0  0  0  0  0  0  0  0  0  0  0  0
   12.6880    0.3120   22.9230 C   0  0  0  0  0  0  0  0  0  0  0  0
    9.9460   -5.5610   25.5860 C   0  0  0  0  0  0  0  0  0  0  0  0
    8.3750   -3.7890   26.4280 S   0  0  0  0  0  0  0  0  0  0  0  0
   12.2600    1.4940   23.3590 C   0  0  0  0  0  0  0  0  0  0  0  0
    9.1950   -6.1600   26.5250 C   0  0  0  0  0  0  0  0  0  0  0  0
    8.2750   -5.3580   27.1100 C   0  0  0  0  0  0  0  0  0  0  0  0
    7.1510   -5.7510   28.3350 Cl  0  0  0  0  0  0  0  0  0  0  0  0
  1  2  1  0
  1  3  2  0
  1  4  1  0
  4  5  1  0
  4  6  1  0
  5  7  1  6
  5  8  1  0
  6  9  1  0
  6 10  1  6
  8 11  1  0
  9 11  1  0
 10 12  1  0
 10 13  1  0
 12 13  1  0
  7 14  1  0
 11 15  1  0
 14 16  2  0
 14 17  1  0
 15 18  1  6
 15 19  1  0
 16 20  1  0
 17 21  2  0
 19 22  2  0
 19 23  1  0
 18 24  1  0
 20 25  2  0
 21 25  1  0
 23 26  1  0
 22 27  1  0
 23 28  2  0
 24 29  2  0
 24 30  1  0
 27 31  2  0
 28 31  1  0
 29 32  1  0
 30 33  1  0
 32 33  2  0
 33 34  1  0
M  END
