x0831_0-x0692_1-x1412_1-x0397_0-x0434_2-x1334_0-x1386_1-x1418_1-x0831_1-x0770_1-x0426_1-x1334_1-x1385_1
     RDKit          3D

 39 44  0  0  0  0  0  0  0  0999 V2000
    6.3370   -3.3590   19.9280 C   0  0  0  0  0  0  0  0  0  0  0  0
    7.2390   -3.0180   18.7680 C   0  0  0  0  0  0  0  0  0  0  0  0
    5.4090   -4.1690   19.7760 O   0  0  0  0  0  0  0  0  0  0  0  0
    6.6590   -2.7170   21.1350 N   0  0  0  0  0  0  0  0  0  0  0  0
    7.6140   -1.5950   21.1470 C   0  0  1  0  0  0  0  0  0  0  0  0
    6.2900   -3.1500   22.4840 C   0  0  2  0  0  0  0  0  0  0  0  0
    7.0790   -0.2750   21.6770 C   0  0  0  0  0  0  0  0  0  0  0  0
    7.9470   -1.0820   22.5340 C   0  0  0  0  0  0  0  0  0  0  0  0
    7.4350   -3.3760   23.2810 C   0  0  0  0  0  0  0  0  0  0  0  0
    6.2930   -4.6060   22.9630 C   0  0  0  0  0  0  0  0  0  0  0  0
    5.5200   -0.2100   21.5900 C   0  0  1  0  0  0  0  0  0  0  0  0
    8.3220   -2.1610   23.4430 N   0  0  0  0  0  0  0  0  0  0  0  0
    6.8930   -5.7080   22.3890 C   0  0  0  0  0  0  0  0  0  0  0  0
    5.6390   -5.8410   21.9750 C   0  0  0  0  0  0  0  0  0  0  0  0
    4.7720    0.5600   22.7260 C   0  0  0  0  0  0  0  0  0  0  0  0
    9.6800   -2.3480   23.3240 C   0  0  2  0  0  0  0  0  0  0  0  0
    5.4110    0.4230   20.2120 C   0  0  0  0  0  0  0  0  0  0  0  0
    4.1860    1.9170   22.3100 C   0  0  2  0  0  0  0  0  0  0  0  0
   10.3720   -3.2480   24.3000 C   0  0  0  0  0  0  0  0  0  0  0  0
    4.4340    1.3750   19.9500 C   0  0  0  0  0  0  0  0  0  0  0  0
    6.3250    0.0330   19.2110 C   0  0  0  0  0  0  0  0  0  0  0  0
   10.5430   -1.0420   23.3460 C   0  0  0  0  0  0  0  0  0  0  0  0
    3.3050    2.4410   23.3890 N   0  0  0  0  0  0  0  0  0  0  0  0
    3.4540    1.8110   20.9800 C   0  0  0  0  0  0  0  0  0  0  0  0
    4.3870    1.9220   18.7130 C   0  0  0  0  0  0  0  0  0  0  0  0
    6.3790    0.5010   17.9440 N   0  0  0  0  0  0  0  0  0  0  0  0
   10.0010    0.2400   23.9030 C   0  0  0  0  0  0  0  0  0  0  0  0
   12.0060   -0.9720   22.8090 C   0  0  0  0  0  0  0  0  0  0  0  0
    9.6420   -4.1510   25.2450 C   0  0  0  0  0  0  0  0  0  0  0  0
   12.7440   -2.1070   22.2030 C   0  0  0  0  0  0  0  0  0  0  0  0
    5.3770    1.5030   17.6410 C   0  0  0  0  0  0  0  0  0  0  0  0
   10.6420    1.4640   23.9980 C   0  0  0  0  0  0  0  0  0  0  0  0
   12.7010    0.3310   22.9090 C   0  0  0  0  0  0  0  0  0  0  0  0
    9.9810   -5.4460   25.5540 C   0  0  0  0  0  0  0  0  0  0  0  0
    8.1390   -3.6490   26.1990 S   0  0  0  0  0  0  0  0  0  0  0  0
   11.9610    1.5590   23.5250 C   0  0  0  0  0  0  0  0  0  0  0  0
    9.2090   -6.0890   26.4740 C   0  0  0  0  0  0  0  0  0  0  0  0
    8.1100   -5.2460   26.9820 C   0  0  0  0  0  0  0  0  0  0  0  0
    6.9370   -5.6620   28.1540 Cl  0  0  0  0  0  0  0  0  0  0  0  0
  1  2  1  0
  1  3  2  0
  1  4  1  0
  4  5  1  0
  4  6  1  0
  5  7  1  6
  5  8  1  0
  6  9  1  0
  6 10  1  6
 11  7  1  1
  8 12  1  0
  9 12  1  0
 10 13  1  0
 10 14  1  0
 13 14  1  0
 11 15  1  0
 12 16  1  0
 11 17  1  0
 15 18  1  0
 16 19  1  1
 17 20  2  0
 17 21  1  0
 16 22  1  0
 18 23  1  1
 18 24  1  0
 20 24  1  0
 20 25  1  0
 21 26  2  0
 22 27  2  0
 22 28  1  0
 19 29  1  0
 28 30  1  0
 25 31  2  0
 26 31  1  0
 27 32  1  0
 28 33  2  0
 29 34  2  0
 29 35  1  0
 32 36  2  0
 33 36  1  0
 34 37  1  0
 35 38  1  0
 37 38  2  0
 38 39  1  0
M  END
