x0831_0-x1385_1-x1418_1-x1412_0
     RDKit          3D

 25 27  0  0  0  0  0  0  0  0999 V2000
    6.3670   -3.2530   19.8830 C   0  0  0  0  0  0  0  0  0  0  0  0
    7.3210   -3.0060   18.7370 C   0  0  0  0  0  0  0  0  0  0  0  0
    5.4140   -4.0270   19.6970 O   0  0  0  0  0  0  0  0  0  0  0  0
    6.6490   -2.6160   21.0940 N   0  0  0  0  0  0  0  0  0  0  0  0
    6.5610   -3.3110   22.3880 C   0  0  0  0  0  0  0  0  0  0  0  0
    7.5230   -1.4030   21.0370 C   0  0  0  0  0  0  0  0  0  0  0  0
    7.9030   -3.3270   23.1410 C   0  0  0  0  0  0  0  0  0  0  0  0
    8.8760   -1.7370   21.6070 C   0  0  0  0  0  0  0  0  0  0  0  0
    8.7140   -2.0860   23.0050 N   0  0  0  0  0  0  0  0  0  0  0  0
    9.8410   -1.8980   23.9450 C   0  0  2  0  0  0  0  0  0  0  0  0
    9.1780   -1.4100   25.2260 C   0  0  0  0  0  0  0  0  0  0  0  0
   10.7530   -0.7410   23.6520 C   0  0  0  0  0  0  0  0  0  0  0  0
    8.0610   -2.3510   25.5720 C   0  0  0  0  0  0  0  0  0  0  0  0
   10.3430    0.5370   24.1790 C   0  0  0  0  0  0  0  0  0  0  0  0
   11.9510   -0.9000   22.9190 C   0  0  0  0  0  0  0  0  0  0  0  0
   12.3980   -2.2090   22.3560 C   0  0  0  0  0  0  0  0  0  0  0  0
    6.8840   -2.1010   25.4450 O   0  0  0  0  0  0  0  0  0  0  0  0
   11.1270    1.6500   23.9750 C   0  0  0  0  0  0  0  0  0  0  0  0
   12.7860    0.1800   22.6920 C   0  0  0  0  0  0  0  0  0  0  0  0
    8.3740   -3.7100   26.1330 C   0  0  0  0  0  0  0  0  0  0  0  0
   12.4420    1.5770   23.2070 C   0  0  0  0  0  0  0  0  0  0  0  0
    9.2430   -4.8280   25.5960 C   0  0  0  0  0  0  0  0  0  0  0  0
    7.7270   -4.2210   27.6540 S   0  0  0  0  0  0  0  0  0  0  0  0
    9.2840   -5.9140   26.4390 C   0  0  0  0  0  0  0  0  0  0  0  0
    8.5150   -5.7480   27.6000 C   0  0  0  0  0  0  0  0  0  0  0  0
  1  2  1  0
  1  3  2  0
  1  4  1  0
  4  5  1  0
  4  6  1  0
  5  7  1  0
  6  8  1  0
  7  9  1  0
  8  9  1  0
  9 10  1  0
 10 11  1  1
 10 12  1  0
 11 13  1  0
 12 14  2  0
 12 15  1  0
 15 16  1  0
 13 17  2  0
 14 18  1  0
 15 19  2  0
 13 20  1  0
 18 21  2  0
 19 21  1  0
 20 22  2  0
 20 23  1  0
 22 24  1  0
 23 25  1  0
 24 25  2  0
M  END
