x0831_0-x1418_0-x0692_1-x1375_1
     RDKit          3D

 26 28  0  0  0  0  0  0  0  0999 V2000
    6.4170   -3.1700   19.8050 C   0  0  0  0  0  0  0  0  0  0  0  0
    7.4220   -2.9670   18.7020 C   0  0  0  0  0  0  0  0  0  0  0  0
    5.4350   -3.9110   19.6210 O   0  0  0  0  0  0  0  0  0  0  0  0
    6.6550   -2.5280   21.0130 N   0  0  0  0  0  0  0  0  0  0  0  0
    7.5420   -1.3490   20.9880 C   0  0  0  0  0  0  0  0  0  0  0  0
    6.4760   -3.1940   22.3010 C   0  0  1  0  0  0  0  0  0  0  0  0
    5.7850   -4.5190   22.0000 C   0  0  0  0  0  0  0  0  0  0  0  0
    8.7320   -1.4860   21.7090 C   0  0  0  0  0  0  0  0  0  0  0  0
    7.7800   -3.2010   23.1130 C   0  0  0  0  0  0  0  0  0  0  0  0
    8.5040   -1.9150   23.0910 N   0  0  0  0  0  0  0  0  0  0  0  0
    4.6520   -4.9290   22.9130 C   0  0  2  0  0  0  0  0  0  0  0  0
    9.7540   -1.9670   23.8720 C   0  0  1  0  0  0  0  0  0  0  0  0
    4.6310   -4.4980   24.2260 C   0  0  0  0  0  0  0  0  0  0  0  0
    4.5170   -6.3920   22.9830 C   0  0  0  0  0  0  0  0  0  0  0  0
   10.4940   -3.2450   23.6310 C   0  0  0  0  0  0  0  0  0  0  0  0
   10.6120   -0.7620   23.6910 C   0  0  0  0  0  0  0  0  0  0  0  0
    4.1640   -5.3180   25.1980 C   0  0  0  0  0  0  0  0  0  0  0  0
    3.7100   -6.8230   24.4200 S   0  0  0  0  0  0  0  0  0  0  0  0
    2.2900   -6.8360   24.1610 O   0  0  0  0  0  0  0  0  0  0  0  0
    4.3750   -7.8900   25.0840 O   0  0  0  0  0  0  0  0  0  0  0  0
   10.1510    0.4950   24.2060 C   0  0  0  0  0  0  0  0  0  0  0  0
   11.9040   -0.8020   23.0150 C   0  0  0  0  0  0  0  0  0  0  0  0
   12.5400   -2.0230   22.4070 C   0  0  0  0  0  0  0  0  0  0  0  0
   11.0070    1.7200   24.0290 C   0  0  0  0  0  0  0  0  0  0  0  0
   12.7440    0.2490   22.8190 C   0  0  0  0  0  0  0  0  0  0  0  0
   12.3430    1.6340   23.3250 C   0  0  0  0  0  0  0  0  0  0  0  0
  1  2  1  0
  1  3  2  0
  1  4  1  0
  4  5  1  0
  4  6  1  0
  6  7  1  6
  5  8  1  0
  6  9  1  0
  8 10  1  0
  9 10  1  0
 11  7  1  1
 10 12  1  0
 11 13  1  0
 11 14  1  0
 12 15  1  6
 12 16  1  0
 13 17  2  0
 14 18  1  0
 17 18  1  0
 18 19  1  0
 18 20  1  0
 16 21  2  0
 16 22  1  0
 22 23  1  0
 21 24  1  0
 22 25  2  0
 24 26  2  0
 25 26  1  0
M  END
