x0831_0-x1418_1-x0981_1
     RDKit          3D

 29 30  0  0  0  0  0  0  0  0999 V2000
    4.3510   -5.2920   23.2950 C   0  0  0  0  0  0  0  0  0  0  0  0
    2.9490   -5.9090   23.5420 C   0  0  1  0  0  0  0  0  0  0  0  0
    2.7080   -7.1240   22.7310 N   0  0  0  0  0  0  0  0  0  0  0  0
    4.5580   -4.0650   23.7200 N   0  0  0  0  0  0  0  0  0  0  0  0
    2.7110   -6.2500   25.0110 C   0  0  0  0  0  0  0  0  0  0  0  0
    5.8520   -3.3080   23.5980 C   0  0  0  0  0  0  0  0  0  0  0  0
    1.4500   -7.3620   22.1930 C   0  0  0  0  0  0  0  0  0  0  0  0
    3.1170   -7.6720   25.2610 C   0  0  0  0  0  0  0  0  0  0  0  0
    6.7400   -3.6260   22.3640 C   0  0  2  0  0  0  0  0  0  0  0  0
    1.2580   -8.6710   21.4630 C   0  0  0  0  0  0  0  0  0  0  0  0
    0.5380   -6.5450   22.2800 O   0  0  0  0  0  0  0  0  0  0  0  0
    2.4910   -8.3440   26.2680 N   0  0  0  0  0  0  0  0  0  0  0  0
    3.9820   -8.1740   24.5770 O   0  0  0  0  0  0  0  0  0  0  0  0
    8.1230   -3.5870   22.7040 C   0  0  0  0  0  0  0  0  0  0  0  0
    6.4540   -2.7680   21.1810 N   0  0  0  0  0  0  0  0  0  0  0  0
    6.2780   -3.3330   19.9100 C   0  0  0  0  0  0  0  0  0  0  0  0
    8.7470   -2.2340   22.8400 N   0  0  0  0  0  0  0  0  0  0  0  0
    7.0680   -1.4360   21.2380 C   0  0  0  0  0  0  0  0  0  0  0  0
    7.3220   -3.0100   18.8350 C   0  0  0  0  0  0  0  0  0  0  0  0
    5.3350   -4.0920   19.6990 O   0  0  0  0  0  0  0  0  0  0  0  0
    9.9200   -2.3090   23.7210 C   0  0  0  0  0  0  0  0  0  0  0  0
    8.5780   -1.5720   21.6270 C   0  0  0  0  0  0  0  0  0  0  0  0
   10.7570   -1.0410   23.6160 C   0  0  0  0  0  0  0  0  0  0  0  0
   10.2090    0.0920   24.2040 C   0  0  0  0  0  0  0  0  0  0  0  0
   12.0060   -0.9790   22.9690 C   0  0  0  0  0  0  0  0  0  0  0  0
   12.6580   -2.1440   22.3060 C   0  0  0  0  0  0  0  0  0  0  0  0
   10.9050    1.3500   24.1540 C   0  0  0  0  0  0  0  0  0  0  0  0
   12.7190    0.3390   22.9350 C   0  0  0  0  0  0  0  0  0  0  0  0
   12.1320    1.4300   23.5250 C   0  0  0  0  0  0  0  0  0  0  0  0
  2  1  1  1
  2  3  1  0
  1  4  2  3
  2  5  1  0
  4  6  1  0
  3  7  1  0
  5  8  1  0
  9  6  1  1
  7 10  1  0
  7 11  2  0
  8 12  1  0
  8 13  2  0
  9 14  1  0
  9 15  1  0
 15 16  1  0
 14 17  1  0
 15 18  1  0
 16 19  1  0
 16 20  2  0
 17 21  1  0
 17 22  1  0
 18 22  1  0
 21 23  1  0
 23 24  2  0
 23 25  1  0
 25 26  1  0
 24 27  1  0
 25 28  2  0
 27 29  2  0
 28 29  1  0
M  END
