x0831_0-x0434_2-x1386_0-x0731_0-x0689_0
     RDKit          3D

 37 40  0  0  0  0  0  0  0  0999 V2000
    6.2520   -4.7280   20.4860 C   0  0  0  0  0  0  0  0  0  0  0  0
    6.9110   -3.5830   19.7450 C   0  0  0  0  0  0  0  0  0  0  0  0
    5.2660   -5.2140   19.9960 O   0  0  0  0  0  0  0  0  0  0  0  0
    6.8220   -5.2640   21.6440 N   0  0  0  0  0  0  0  0  0  0  0  0
    7.4190   -4.2820   22.5200 C   0  0  0  0  0  0  0  0  0  0  0  0
    6.2440   -6.4060   22.3380 C   0  0  0  0  0  0  0  0  0  0  0  0
    7.0350   -4.3330   23.8480 C   0  0  1  0  0  0  0  0  0  0  0  0
    5.3340   -6.0370   23.3060 C   0  0  0  0  0  0  0  0  0  0  0  0
    7.4260   -2.9370   24.4160 C   0  0  0  0  0  0  0  0  0  0  0  0
    5.6100   -4.7490   23.9860 N   0  0  0  0  0  0  0  0  0  0  0  0
    4.8680   -4.8210   25.5820 S   0  0  0  0  0  0  0  0  0  0  0  0
    8.3270   -1.9980   23.5620 C   0  0  1  0  0  0  0  0  0  0  0  0
    4.2870   -6.1420   25.7620 O   0  0  0  0  0  0  0  0  0  0  0  0
    5.8920   -4.1830   26.7050 O   0  0  0  0  0  0  0  0  0  0  0  0
    9.8750   -2.1920   23.4040 C   0  0  2  0  0  0  0  0  0  0  0  0
    7.8250   -2.1600   22.1410 C   0  0  0  0  0  0  0  0  0  0  0  0
    3.5370   -3.7560   25.5950 C   0  0  0  0  0  0  0  0  0  0  0  0
    8.1460   -1.0430   21.1980 C   0  0  0  0  0  0  0  0  0  0  0  0
   10.4820   -3.2470   24.2280 C   0  0  0  0  0  0  0  0  0  0  0  0
    3.7980   -2.1230   25.9880 S   0  0  0  0  0  0  0  0  0  0  0  0
    2.1540   -3.9290   25.3330 C   0  0  0  0  0  0  0  0  0  0  0  0
   10.7010   -0.9340   23.4210 C   0  0  0  0  0  0  0  0  0  0  0  0
    7.1490    0.0020   21.3260 N   0  0  0  0  0  0  0  0  0  0  0  0
    2.2040   -1.6410   25.8370 C   0  0  0  0  0  0  0  0  0  0  0  0
    1.4230   -2.7040   25.4820 C   0  0  0  0  0  0  0  0  0  0  0  0
   10.1720    0.1670   24.0410 C   0  0  0  0  0  0  0  0  0  0  0  0
   11.9840   -0.7960   22.8460 C   0  0  0  0  0  0  0  0  0  0  0  0
   12.6990   -1.9040   22.1310 C   0  0  0  0  0  0  0  0  0  0  0  0
   10.8790    1.3270   24.0700 C   0  0  0  0  0  0  0  0  0  0  0  0
   12.6800    0.3830   22.8930 C   0  0  0  0  0  0  0  0  0  0  0  0
    6.4760    0.4560   20.1310 C   0  0  0  0  0  0  0  0  0  0  0  0
   12.1050    1.4860   23.5220 C   0  0  0  0  0  0  0  0  0  0  0  0
    6.8990    0.1820   18.8820 C   0  0  0  0  0  0  0  0  0  0  0  0
    5.3350    1.2190   20.3460 C   0  0  0  0  0  0  0  0  0  0  0  0
    6.3430    0.5850   17.7110 N   0  0  0  0  0  0  0  0  0  0  0  0
    4.6050    1.7340   19.1160 C   0  0  0  0  0  0  0  0  0  0  0  0
    5.2420    1.3340   17.8070 C   0  0  0  0  0  0  0  0  0  0  0  0
  1  2  1  0
  1  3  2  0
  1  4  1  0
  4  5  1  0
  4  6  1  0
  5  7  1  0
  6  8  1  0
  7  9  1  6
  7 10  1  0
  8 10  1  0
 10 11  1  0
 12  9  1  1
 11 13  2  0
 11 14  2  0
 12 15  1  0
 12 16  1  0
 11 17  1  0
 16 18  1  0
 15 19  1  1
 17 20  1  0
 17 21  2  0
 15 22  1  0
 18 23  1  0
 20 24  1  0
 21 25  1  0
 24 25  2  0
 22 26  2  0
 22 27  1  0
 27 28  1  0
 26 29  1  0
 27 30  2  0
 23 31  1  0
 29 32  2  0
 30 32  1  0
 31 33  2  0
 31 34  1  0
 33 35  1  0
 34 36  2  0
 35 37  2  0
 36 37  1  0
M  END
