x0831_0-x1334_1-x1374_1-x0692_1-x1375_1
     RDKit          3D

 27 29  0  0  0  0  0  0  0  0999 V2000
    6.4550   -3.2370   19.8580 C   0  0  0  0  0  0  0  0  0  0  0  0
    7.4290   -3.0010   18.7340 C   0  0  0  0  0  0  0  0  0  0  0  0
    5.4360   -3.9170   19.6380 O   0  0  0  0  0  0  0  0  0  0  0  0
    6.7780   -2.7300   21.1140 N   0  0  0  0  0  0  0  0  0  0  0  0
    7.5400   -1.4810   21.1350 C   0  0  0  0  0  0  0  0  0  0  0  0
    6.8100   -3.5470   22.3340 C   0  0  1  0  0  0  0  0  0  0  0  0
    6.2350   -4.9040   21.9750 C   0  0  0  0  0  0  0  0  0  0  0  0
    8.9060   -1.6460   21.7910 C   0  0  0  0  0  0  0  0  0  0  0  0
    8.1490   -3.5240   23.0650 C   0  0  0  0  0  0  0  0  0  0  0  0
    8.8740   -2.2610   23.1150 N   0  0  0  0  0  0  0  0  0  0  0  0
    4.9800   -5.1860   22.6970 C   0  0  2  0  0  0  0  0  0  0  0  0
   10.2270   -2.4100   23.6420 C   0  0  0  0  0  0  0  0  0  0  0  0
    4.7400   -4.5650   23.9760 C   0  0  0  0  0  0  0  0  0  0  0  0
    4.7340   -6.5180   22.8480 C   0  0  0  0  0  0  0  0  0  0  0  0
   10.9770   -1.0780   23.5560 C   0  0  0  0  0  0  0  0  0  0  0  0
    3.9770   -5.3710   24.8150 C   0  0  0  0  0  0  0  0  0  0  0  0
    3.5880   -6.8450   24.0690 S   0  0  0  0  0  0  0  0  0  0  0  0
    2.2860   -6.8680   23.4700 O   0  0  0  0  0  0  0  0  0  0  0  0
    4.0680   -7.9170   24.8770 O   0  0  0  0  0  0  0  0  0  0  0  0
   10.2720    0.0830   24.2320 C   0  0  0  0  0  0  0  0  0  0  0  0
   12.1820   -0.8980   22.9240 C   0  0  0  0  0  0  0  0  0  0  0  0
   12.9020   -2.0170   22.2350 C   0  0  0  0  0  0  0  0  0  0  0  0
   10.9090    1.3170   24.1650 C   0  0  0  0  0  0  0  0  0  0  0  0
   12.7650    0.3540   22.9050 C   0  0  0  0  0  0  0  0  0  0  0  0
    1.3090   -7.2860   24.4440 O   0  0  0  0  0  0  0  0  0  0  0  0
    4.6910   -7.3120   26.0320 O   0  0  0  0  0  0  0  0  0  0  0  0
   12.1360    1.4530   23.5140 C   0  0  0  0  0  0  0  0  0  0  0  0
  1  2  1  0
  1  3  2  0
  1  4  1  0
  4  5  1  0
  4  6  1  0
  6  7  1  6
  5  8  1  0
  6  9  1  0
  8 10  1  0
  9 10  1  0
 11  7  1  1
 10 12  1  0
 11 13  1  0
 11 14  1  0
 12 15  1  0
 13 16  2  0
 14 17  1  0
 16 17  1  0
 17 18  1  0
 17 19  1  0
 15 20  2  0
 15 21  1  0
 21 22  1  0
 20 23  1  0
 21 24  2  0
 18 25  1  0
 19 26  1  0
 23 27  2  0
 24 27  1  0
M  END
