x0831_0-x1418_1-x0397_0-x1418_0-x0692_1
     RDKit          3D

 21 23  0  0  0  0  0  0  0  0999 V2000
    6.2510   -3.3010   19.8900 C   0  0  0  0  0  0  0  0  0  0  0  0
    7.2340   -2.9700   18.7700 C   0  0  0  0  0  0  0  0  0  0  0  0
    5.3660   -4.1420   19.7370 O   0  0  0  0  0  0  0  0  0  0  0  0
    6.4230   -2.6210   21.1080 N   0  0  0  0  0  0  0  0  0  0  0  0
    6.4570   -3.3000   22.4000 C   0  0  2  0  0  0  0  0  0  0  0  0
    7.0590   -1.3110   21.1170 C   0  0  0  0  0  0  0  0  0  0  0  0
    7.9340   -3.3600   22.9780 C   0  0  0  0  0  0  0  0  0  0  0  0
    8.4780   -1.4210   21.5550 C   0  0  0  0  0  0  0  0  0  0  0  0
    5.7330   -4.4930   22.2970 C   0  0  0  0  0  0  0  0  0  0  0  0
    8.7120   -2.0940   22.8490 N   0  0  0  0  0  0  0  0  0  0  0  0
    6.5340   -5.3420   23.1450 C   0  0  0  0  0  0  0  0  0  0  0  0
    6.3120   -5.9780   22.0830 C   0  0  0  0  0  0  0  0  0  0  0  0
   10.0990   -2.2070   22.9980 C   0  0  2  0  0  0  0  0  0  0  0  0
   10.4960   -3.0820   24.1760 C   0  0  0  0  0  0  0  0  0  0  0  0
   10.7680   -0.8960   23.2310 C   0  0  0  0  0  0  0  0  0  0  0  0
   10.1470    0.1220   23.8860 C   0  0  0  0  0  0  0  0  0  0  0  0
   12.0970   -0.7940   22.7160 C   0  0  0  0  0  0  0  0  0  0  0  0
   12.7640   -1.9310   22.0020 C   0  0  0  0  0  0  0  0  0  0  0  0
   10.9290    1.3500   24.0120 C   0  0  0  0  0  0  0  0  0  0  0  0
   12.8790    0.4520   22.8580 C   0  0  0  0  0  0  0  0  0  0  0  0
   12.3000    1.4990   23.4840 C   0  0  0  0  0  0  0  0  0  0  0  0
  1  2  1  0
  1  3  2  0
  1  4  1  0
  4  5  1  0
  4  6  1  0
  5  7  1  0
  6  8  1  0
  5  9  1  6
  7 10  1  0
  8 10  1  0
  9 11  1  0
  9 12  1  0
 11 12  1  0
 10 13  1  0
 13 14  1  1
 13 15  1  0
 15 16  2  0
 15 17  1  0
 17 18  1  0
 16 19  1  0
 17 20  2  0
 19 21  2  0
 20 21  1  0
M  END
