x0831_0-x1418_1-x1385_1-x1334_1-x1418_0
     RDKit          3D

 18 19  0  0  0  0  0  0  0  0999 V2000
    6.4150   -3.2140   19.8250 C   0  0  0  0  0  0  0  0  0  0  0  0
    7.3840   -2.9900   18.6850 C   0  0  0  0  0  0  0  0  0  0  0  0
    5.4830   -4.0330   19.7110 O   0  0  0  0  0  0  0  0  0  0  0  0
    6.6550   -2.4810   20.9790 N   0  0  0  0  0  0  0  0  0  0  0  0
    6.4750   -3.1530   22.2720 C   0  0  0  0  0  0  0  0  0  0  0  0
    7.5740   -1.3220   21.0320 C   0  0  0  0  0  0  0  0  0  0  0  0
    7.8050   -3.3040   23.0650 C   0  0  0  0  0  0  0  0  0  0  0  0
    8.7870   -1.6240   21.6330 C   0  0  0  0  0  0  0  0  0  0  0  0
    8.5910   -2.0490   23.0090 N   0  0  0  0  0  0  0  0  0  0  0  0
    9.7600   -1.9760   23.9070 C   0  0  1  0  0  0  0  0  0  0  0  0
   10.6390   -3.1510   23.9790 C   0  0  0  0  0  0  0  0  0  0  0  0
   10.6130   -0.7630   23.7080 C   0  0  0  0  0  0  0  0  0  0  0  0
   10.1490    0.4370   24.1970 C   0  0  0  0  0  0  0  0  0  0  0  0
   11.8930   -0.8300   23.0250 C   0  0  0  0  0  0  0  0  0  0  0  0
   12.4690   -2.0890   22.4570 C   0  0  0  0  0  0  0  0  0  0  0  0
   10.9360    1.6800   24.0340 C   0  0  0  0  0  0  0  0  0  0  0  0
   12.7870    0.4350   22.8230 C   0  0  0  0  0  0  0  0  0  0  0  0
   12.2820    1.7180   23.3420 C   0  0  0  0  0  0  0  0  0  0  0  0
  1  2  1  0
  1  3  2  0
  1  4  1  0
  4  5  1  0
  4  6  1  0
  5  7  1  0
  6  8  1  0
  7  9  1  0
  8  9  1  0
  9 10  1  0
 10 11  1  6
 10 12  1  0
 12 13  2  0
 12 14  1  0
 14 15  1  0
 13 16  1  0
 14 17  2  0
 16 18  2  0
 17 18  1  0
M  END
