x0831_0-x1386_1-x1418_0
     RDKit          3D

 18 19  0  0  0  0  0  0  0  0999 V2000
    6.4450   -3.1410   19.7890 C   0  0  0  0  0  0  0  0  0  0  0  0
    7.4120   -2.9700   18.6390 C   0  0  0  0  0  0  0  0  0  0  0  0
    5.4910   -3.9270   19.6520 O   0  0  0  0  0  0  0  0  0  0  0  0
    6.7220   -2.4110   20.9470 N   0  0  0  0  0  0  0  0  0  0  0  0
    7.6840   -1.2960   20.9330 C   0  0  0  0  0  0  0  0  0  0  0  0
    6.5010   -2.9990   22.2720 C   0  0  0  0  0  0  0  0  0  0  0  0
    9.0050   -1.5840   21.6740 C   0  0  0  0  0  0  0  0  0  0  0  0
    7.7730   -3.1740   23.0650 C   0  0  0  0  0  0  0  0  0  0  0  0
    8.6480   -1.9870   23.0480 N   0  0  0  0  0  0  0  0  0  0  0  0
    9.8220   -2.0010   23.9170 C   0  0  1  0  0  0  0  0  0  0  0  0
   10.5680   -3.2750   23.7950 C   0  0  0  0  0  0  0  0  0  0  0  0
   10.7380   -0.8270   23.6850 C   0  0  0  0  0  0  0  0  0  0  0  0
   10.2930    0.4010   24.1750 C   0  0  0  0  0  0  0  0  0  0  0  0
   11.9870   -0.8890   23.0150 C   0  0  0  0  0  0  0  0  0  0  0  0
   12.6120   -2.1110   22.4200 C   0  0  0  0  0  0  0  0  0  0  0  0
   11.0300    1.6180   24.0360 C   0  0  0  0  0  0  0  0  0  0  0  0
   12.7410    0.4430   22.9020 C   0  0  0  0  0  0  0  0  0  0  0  0
   12.2410    1.6300   23.4060 C   0  0  0  0  0  0  0  0  0  0  0  0
  1  2  1  0
  1  3  2  0
  1  4  1  0
  4  5  1  0
  4  6  1  0
  5  7  1  0
  6  8  1  0
  7  9  1  0
  8  9  1  0
  9 10  1  0
 10 11  1  6
 10 12  1  0
 12 13  2  0
 12 14  1  0
 14 15  1  0
 13 16  1  0
 14 17  2  0
 16 18  2  0
 17 18  1  0
M  END
