x0831_0-x1418_1-x1385_1-x0770_1-x0692_0
     RDKit          3D

 19 20  0  0  0  0  0  0  0  0999 V2000
    6.3780   -3.1940   19.8280 C   0  0  0  0  0  0  0  0  0  0  0  0
    7.3480   -2.9850   18.6940 C   0  0  0  0  0  0  0  0  0  0  0  0
    5.4580   -4.0210   19.7020 O   0  0  0  0  0  0  0  0  0  0  0  0
    6.6270   -2.4430   20.9740 N   0  0  0  0  0  0  0  0  0  0  0  0
    6.4960   -3.1340   22.2640 C   0  0  0  0  0  0  0  0  0  0  0  0
    7.5240   -1.2710   20.9650 C   0  0  0  0  0  0  0  0  0  0  0  0
    7.8470   -3.2510   23.0310 C   0  0  0  0  0  0  0  0  0  0  0  0
    8.8660   -1.4960   21.7240 C   0  0  0  0  0  0  0  0  0  0  0  0
    8.6440   -2.0070   23.0690 N   0  0  0  0  0  0  0  0  0  0  0  0
    9.6880   -1.9620   23.9560 C   0  0  1  0  0  0  0  0  0  0  0  0
   10.3820   -3.2680   24.0280 C   0  0  0  0  0  0  0  0  0  0  0  0
   10.6360   -0.8300   23.6820 C   0  0  0  0  0  0  0  0  0  0  0  0
   10.2590    0.5560   23.9480 C   0  0  0  0  0  0  0  0  0  0  0  0
   11.9330   -0.9240   23.1660 C   0  0  0  0  0  0  0  0  0  0  0  0
   12.6120   -2.2010   22.7790 C   0  0  0  0  0  0  0  0  0  0  0  0
   11.0560    1.6550   23.7260 C   0  0  0  0  0  0  0  0  0  0  0  0
   12.7430    0.2330   22.9570 C   0  0  0  0  0  0  0  0  0  0  0  0
   10.4410    2.9730   24.0490 C   0  0  0  0  0  0  0  0  0  0  0  0
   12.3290    1.6820   23.2410 C   0  0  0  0  0  0  0  0  0  0  0  0
  1  2  1  0
  1  3  2  0
  1  4  1  0
  4  5  1  0
  4  6  1  0
  5  7  1  0
  6  8  1  0
  7  9  1  0
  8  9  1  0
  9 10  1  0
 10 11  1  6
 10 12  1  0
 12 13  2  0
 12 14  1  0
 14 15  1  0
 13 16  1  0
 14 17  2  0
 16 18  1  0
 16 19  2  0
 17 19  1  0
M  END
