x0831_0-x1385_1-x0831_1-x0769_1
     RDKit          3D

 29 31  0  0  0  0  0  0  0  0999 V2000
    6.2110   -3.2870   19.9210 C   0  0  0  0  0  0  0  0  0  0  0  0
    7.2020   -2.9890   18.8020 C   0  0  0  0  0  0  0  0  0  0  0  0
    5.3380   -4.1360   19.7250 O   0  0  0  0  0  0  0  0  0  0  0  0
    6.3300   -2.6250   21.1140 N   0  0  0  0  0  0  0  0  0  0  0  0
    6.1910   -3.2980   22.4050 C   0  0  0  0  0  0  0  0  0  0  0  0
    7.1770   -1.4370   21.0980 C   0  0  0  0  0  0  0  0  0  0  0  0
    7.5730   -3.4680   23.1210 C   0  0  0  0  0  0  0  0  0  0  0  0
    8.5230   -1.5410   21.8320 C   0  0  0  0  0  0  0  0  0  0  0  0
    8.3520   -2.1350   23.2530 C   0  0  0  0  0  0  0  0  0  0  0  0
    7.5130   -1.1300   24.1300 C   0  0  0  0  0  0  0  0  0  0  0  0
    9.7840   -2.1780   23.8120 C   0  0  0  0  0  0  0  0  0  0  0  0
    6.7930   -1.4810   25.4670 C   0  0  0  0  0  0  0  0  0  0  0  0
   10.6830   -0.9590   23.6680 C   0  0  0  0  0  0  0  0  0  0  0  0
    5.9470   -2.6510   25.4680 O   0  0  0  0  0  0  0  0  0  0  0  0
   10.2700    0.2590   24.2210 C   0  0  0  0  0  0  0  0  0  0  0  0
   11.9320   -1.0030   22.9850 C   0  0  0  0  0  0  0  0  0  0  0  0
   12.4960   -2.2390   22.3380 C   0  0  0  0  0  0  0  0  0  0  0  0
    4.5710   -2.5920   25.6370 C   0  0  0  0  0  0  0  0  0  0  0  0
   11.0470    1.4000   24.1050 C   0  0  0  0  0  0  0  0  0  0  0  0
   12.7040    0.1650   22.8900 C   0  0  0  0  0  0  0  0  0  0  0  0
    3.9150   -3.8280   25.7710 C   0  0  0  0  0  0  0  0  0  0  0  0
    3.7750   -1.4520   25.6850 C   0  0  0  0  0  0  0  0  0  0  0  0
   12.2610    1.3530   23.4440 C   0  0  0  0  0  0  0  0  0  0  0  0
    4.8460   -5.2670   25.7350 S   0  0  0  0  0  0  0  0  0  0  0  0
    2.5310   -3.9250   25.9350 C   0  0  0  0  0  0  0  0  0  0  0  0
    2.3900   -1.5200   25.8520 C   0  0  0  0  0  0  0  0  0  0  0  0
    5.8440   -5.1660   26.7720 O   0  0  0  0  0  0  0  0  0  0  0  0
    3.9330   -6.3900   25.6760 O   0  0  0  0  0  0  0  0  0  0  0  0
    1.7630   -2.7570   25.9750 C   0  0  0  0  0  0  0  0  0  0  0  0
  1  2  1  0
  1  3  2  0
  1  4  1  0
  4  5  1  0
  4  6  1  0
  5  7  1  0
  6  8  1  0
  7  9  1  0
  8  9  1  0
  9 10  1  0
  9 11  1  0
 10 12  1  0
 11 13  1  0
 12 14  1  0
 13 15  2  0
 13 16  1  0
 16 17  1  0
 14 18  1  0
 15 19  1  0
 16 20  2  0
 18 21  2  0
 18 22  1  0
 19 23  2  0
 20 23  1  0
 21 24  1  0
 21 25  1  0
 22 26  2  0
 24 27  2  0
 24 28  2  0
 25 29  2  0
 26 29  1  0
M  END
