x0831_1-x0981_1-x0387_0-x1384_2-x1412_0
     RDKit          3D

 38 41  0  0  0  0  0  0  0  0999 V2000
    2.2790   -6.1950   23.8770 C   0  0  1  0  0  0  0  0  0  0  0  0
    2.5140   -7.1100   22.8430 N   0  0  0  0  0  0  0  0  0  0  0  0
    1.3330   -7.4970   22.0610 C   0  0  0  0  0  0  0  0  0  0  0  0
    2.0970   -6.8190   25.2040 C   0  0  0  0  0  0  0  0  0  0  0  0
    3.2060   -5.0120   24.0670 C   0  0  0  0  0  0  0  0  0  0  0  0
    2.8970   -8.0700   25.3100 C   0  0  0  0  0  0  0  0  0  0  0  0
    4.1190   -3.9580   24.1780 C   0  0  0  0  0  0  0  0  0  0  0  0
    3.9070   -5.7820   23.0780 C   0  0  0  0  0  0  0  0  0  0  0  0
    1.2810   -8.7800   21.2680 C   0  0  0  0  0  0  0  0  0  0  0  0
    0.1350   -6.7300   21.9290 O   0  0  0  0  0  0  0  0  0  0  0  0
    2.3440   -8.9920   26.1250 N   0  0  0  0  0  0  0  0  0  0  0  0
    3.9450   -8.2210   24.7040 O   0  0  0  0  0  0  0  0  0  0  0  0
    5.1120   -5.5660   22.4060 C   0  0  0  0  0  0  0  0  0  0  0  0
    5.3200   -3.6460   23.5700 C   0  0  0  0  0  0  0  0  0  0  0  0
    5.8410   -4.4110   22.6840 C   0  0  0  0  0  0  0  0  0  0  0  0
    7.1360   -4.0240   22.0240 C   0  0  1  0  0  0  0  0  0  0  0  0
    6.7910   -2.9540   21.1050 N   0  0  0  0  0  0  0  0  0  0  0  0
    8.0770   -3.6620   22.9690 C   0  0  0  0  0  0  0  0  0  0  0  0
    6.4020   -3.3700   19.8610 C   0  0  0  0  0  0  0  0  0  0  0  0
    8.3130   -2.2790   23.3620 N   0  0  0  0  0  0  0  0  0  0  0  0
    6.5560   -1.6120   21.6380 C   0  0  0  0  0  0  0  0  0  0  0  0
    5.3790   -4.0270   19.6510 O   0  0  0  0  0  0  0  0  0  0  0  0
    7.3690   -3.0220   18.7590 C   0  0  0  0  0  0  0  0  0  0  0  0
    8.8370   -2.1120   24.7240 C   0  0  2  0  0  0  0  0  0  0  0  0
    8.8870   -1.4740   22.2340 C   0  0  0  0  0  0  0  0  0  0  0  0
    7.8060   -0.7900   21.3960 C   0  0  0  0  0  0  0  0  0  0  0  0
    7.9600   -1.4760   25.3270 O   0  0  0  0  0  0  0  0  0  0  0  0
   10.0330   -1.1590   24.8090 C   0  0  0  0  0  0  0  0  0  0  0  0
    8.8580   -3.4090   25.5280 C   0  0  0  0  0  0  0  0  0  0  0  0
    9.7440   -4.4840   25.3480 C   0  0  0  0  0  0  0  0  0  0  0  0
    7.7610   -3.7770   26.8350 S   0  0  0  0  0  0  0  0  0  0  0  0
   11.1930   -1.1770   23.7960 C   0  0  0  0  0  0  0  0  0  0  0  0
    9.5680   -5.5930   26.2330 C   0  0  0  0  0  0  0  0  0  0  0  0
    8.5150   -5.2870   27.0750 C   0  0  0  0  0  0  0  0  0  0  0  0
   12.0400   -0.0890   23.8570 C   0  0  0  0  0  0  0  0  0  0  0  0
   11.6130   -2.0410   22.8080 C   0  0  0  0  0  0  0  0  0  0  0  0
   13.0790   -0.1110   22.9510 C   0  0  0  0  0  0  0  0  0  0  0  0
   13.0240   -1.5270   21.9780 S   0  0  0  0  0  0  0  0  0  0  0  0
  1  2  1  0
  2  3  1  0
  1  4  1  1
  1  5  1  0
  4  6  1  0
  5  7  2  0
  5  8  1  0
  3  9  1  0
  3 10  2  0
  6 11  1  0
  6 12  2  0
  8 13  2  0
  7 14  1  0
 13 15  1  0
 14 15  2  0
 16 15  1  1
 16 17  1  0
 16 18  1  0
 17 19  1  0
 18 20  1  0
 17 21  1  0
 19 22  2  0
 19 23  1  0
 20 24  1  0
 20 25  1  0
 21 26  1  0
 25 26  1  0
 24 27  1  1
 24 28  1  0
 24 29  1  0
 29 30  2  0
 29 31  1  0
 28 32  1  0
 30 33  1  0
 31 34  1  0
 33 34  2  0
 32 35  1  0
 32 36  2  0
 35 37  2  0
 36 38  1  0
 37 38  1  0
M  END
