x0831_0-x0831_1-x0770_1-x0692_1-x1334_0-x1334_1-x0397_0-x1418_1-x1375_1-x0540_3
     RDKit          3D

 38 41  0  0  0  0  0  0  0  0999 V2000
    2.8890   -8.3080   24.0430 O   0  0  0  0  0  0  0  0  0  0  0  0
    2.8320   -6.9630   24.4580 C   0  0  0  0  0  0  0  0  0  0  0  0
    3.7670   -6.2140   23.7230 O   0  0  0  0  0  0  0  0  0  0  0  0
    5.0580   -6.6470   23.9950 C   0  0  0  0  0  0  0  0  0  0  0  0
    6.1150   -5.9450   23.2050 C   0  0  2  0  0  0  0  0  0  0  0  0
    5.9200   -4.6370   22.5810 C   0  0  2  0  0  0  0  0  0  0  0  0
    6.0850   -6.1890   21.9100 C   0  0  0  0  0  0  0  0  0  0  0  0
    7.0070   -3.6660   22.2420 C   0  0  1  0  0  0  0  0  0  0  0  0
    6.5900   -2.8790   21.1260 N   0  0  0  0  0  0  0  0  0  0  0  0
    7.4760   -2.8350   23.4150 C   0  0  0  0  0  0  0  0  0  0  0  0
    6.3540   -3.3870   19.8970 C   0  0  0  0  0  0  0  0  0  0  0  0
    8.5530   -1.8600   23.0840 N   0  0  0  0  0  0  0  0  0  0  0  0
    6.1410   -1.6450   21.4080 C   0  0  0  0  0  0  0  0  0  0  0  0
    5.3850   -4.1270   19.7000 O   0  0  0  0  0  0  0  0  0  0  0  0
    7.3500   -3.0470   18.8090 C   0  0  0  0  0  0  0  0  0  0  0  0
    9.9330   -2.2950   23.2410 C   0  0  2  0  0  0  0  0  0  0  0  0
    8.5730   -1.3820   21.6860 C   0  0  0  0  0  0  0  0  0  0  0  0
    7.3130   -0.6710   21.1660 C   0  0  2  0  0  0  0  0  0  0  0  0
    7.0490    0.7580   21.8270 C   0  0  0  0  0  0  0  0  0  0  0  0
   10.3720   -3.2430   24.3330 C   0  0  0  0  0  0  0  0  0  0  0  0
   10.7900   -0.9840   23.2890 C   0  0  0  0  0  0  0  0  0  0  0  0
    5.5340    0.9920   21.9760 C   0  0  0  0  0  0  0  0  0  0  0  0
   10.1750    0.2700   23.8860 C   0  0  0  0  0  0  0  0  0  0  0  0
   12.1050   -0.9250   22.7870 C   0  0  0  0  0  0  0  0  0  0  0  0
    9.5220   -4.0730   25.3220 C   0  0  0  0  0  0  0  0  0  0  0  0
    5.2430    2.1740   22.8830 C   0  0  0  0  0  0  0  0  0  0  0  0
   12.8680   -2.0350   22.1510 C   0  0  0  0  0  0  0  0  0  0  0  0
   10.8230    1.5070   23.9820 C   0  0  0  0  0  0  0  0  0  0  0  0
   12.8320    0.4210   22.8870 C   0  0  0  0  0  0  0  0  0  0  0  0
    9.9270   -5.3560   25.5600 C   0  0  0  0  0  0  0  0  0  0  0  0
    8.1090   -3.6950   26.2660 S   0  0  0  0  0  0  0  0  0  0  0  0
    3.8900    2.6920   22.6590 N   0  0  0  0  0  0  0  0  0  0  0  0
   12.1420    1.6180   23.4940 C   0  0  0  0  0  0  0  0  0  0  0  0
    9.1510   -5.9920   26.4780 C   0  0  0  0  0  0  0  0  0  0  0  0
    8.1740   -5.2510   26.9390 C   0  0  0  0  0  0  0  0  0  0  0  0
    2.7760    2.2260   23.4710 C   0  0  0  0  0  0  0  0  0  0  0  0
    7.0230   -5.7220   28.1160 Cl  0  0  0  0  0  0  0  0  0  0  0  0
    2.8760    1.4900   24.4490 O   0  0  0  0  0  0  0  0  0  0  0  0
  1  2  1  0
  2  3  1  0
  3  4  1  0
  5  4  1  1
  5  6  1  0
  5  7  1  0
  6  7  1  6
  6  8  1  0
  8  9  1  0
  8 10  1  1
  9 11  1  0
 10 12  1  0
  9 13  1  0
 11 14  2  0
 11 15  1  0
 12 16  1  0
 12 17  1  0
 13 18  1  0
 17 18  1  0
 18 19  1  1
 16 20  1  1
 16 21  1  0
 19 22  1  0
 21 23  2  0
 21 24  1  0
 20 25  1  0
 22 26  1  0
 24 27  1  0
 23 28  1  0
 24 29  2  0
 25 30  2  0
 25 31  1  0
 26 32  1  0
 28 33  2  0
 29 33  1  0
 30 34  1  0
 31 35  1  0
 34 35  2  0
 32 36  1  0
 35 37  1  0
 36 38  2  0
M  END
