x0831_0-x0770_1-x0831_1-x1334_0-x1374_1-x0434_2-x1385_1-x0397_0-x0426_1-x1418_1-x1334_1-x1412_1-x0692_1
     RDKit          3D

 44 49  0  0  0  0  0  0  0  0999 V2000
    2.0190   -7.0440   23.9100 O   0  0  0  0  0  0  0  0  0  0  0  0
    2.4090   -7.9520   24.9200 C   0  0  0  0  0  0  0  0  0  0  0  0
    3.8210   -7.9940   24.9580 O   0  0  0  0  0  0  0  0  0  0  0  0
    4.4080   -7.2810   23.8840 C   0  0  0  0  0  0  0  0  0  0  0  0
    4.8510   -6.0580   24.2820 C   0  0  0  0  0  0  0  0  0  0  0  0
    5.9990   -5.6000   23.4330 C   0  0  2  0  0  0  0  0  0  0  0  0
    5.7640   -4.8190   22.4320 C   0  0  2  0  0  0  0  0  0  0  0  0
    6.5690   -6.2250   22.2670 C   0  0  0  0  0  0  0  0  0  0  0  0
    6.4630   -3.5150   22.4920 C   0  0  2  0  0  0  0  0  0  0  0  0
    6.1080   -2.6770   21.3650 N   0  0  0  0  0  0  0  0  0  0  0  0
    7.9710   -3.6750   22.5110 C   0  0  0  0  0  0  0  0  0  0  0  0
    6.1630   -3.2760   20.0620 C   0  0  0  0  0  0  0  0  0  0  0  0
    8.8290   -2.4770   22.3860 N   0  0  0  0  0  0  0  0  0  0  0  0
    6.7090   -1.4020   21.7960 C   0  0  2  0  0  0  0  0  0  0  0  0
    7.1410   -2.9020   18.9460 C   0  0  0  0  0  0  0  0  0  0  0  0
    5.3750   -4.2100   19.8140 O   0  0  0  0  0  0  0  0  0  0  0  0
    5.9970   -0.0090   21.7280 C   0  0  1  0  0  0  0  0  0  0  0  0
    9.5220   -2.0080   23.6080 C   0  0  1  0  0  0  0  0  0  0  0  0
    8.2350   -1.4200   21.5180 C   0  0  0  0  0  0  0  0  0  0  0  0
    4.6470   -0.1170   22.4500 C   0  0  0  0  0  0  0  0  0  0  0  0
   10.2230   -3.2240   24.1960 C   0  0  0  0  0  0  0  0  0  0  0  0
    6.9540    1.0390   22.3780 C   0  0  0  0  0  0  0  0  0  0  0  0
    5.8010    0.4590   20.2940 C   0  0  0  0  0  0  0  0  0  0  0  0
   10.4900   -0.8050   23.5150 C   0  0  0  0  0  0  0  0  0  0  0  0
    3.7620    1.1760   22.4310 C   0  0  1  0  0  0  0  0  0  0  0  0
    4.6820    1.2500   19.9700 C   0  0  0  0  0  0  0  0  0  0  0  0
    6.7580    0.1210   19.2020 C   0  0  0  0  0  0  0  0  0  0  0  0
   10.0300    0.5420   23.9890 C   0  0  0  0  0  0  0  0  0  0  0  0
   11.8960   -0.8560   22.9800 C   0  0  0  0  0  0  0  0  0  0  0  0
    9.5220   -4.1060   25.2460 C   0  0  0  0  0  0  0  0  0  0  0  0
    4.2540    2.1490   23.3800 N   0  0  0  0  0  0  0  0  0  0  0  0
    3.6200    1.6650   20.9600 C   0  0  0  0  0  0  0  0  0  0  0  0
   12.5610   -2.0970   22.4440 C   0  0  0  0  0  0  0  0  0  0  0  0
    4.5910    1.6640   18.6200 C   0  0  0  0  0  0  0  0  0  0  0  0
    6.6060    0.5650   17.8500 N   0  0  0  0  0  0  0  0  0  0  0  0
   10.9080    1.7630   23.9400 C   0  0  0  0  0  0  0  0  0  0  0  0
   12.6810    0.3080   22.9550 C   0  0  0  0  0  0  0  0  0  0  0  0
    9.9900   -5.3570   25.5550 C   0  0  0  0  0  0  0  0  0  0  0  0
    8.1210   -3.7430   26.1890 S   0  0  0  0  0  0  0  0  0  0  0  0
    5.5210    1.3160   17.6870 C   0  0  0  0  0  0  0  0  0  0  0  0
   12.1840    1.5390   23.4180 C   0  0  0  0  0  0  0  0  0  0  0  0
    9.2680   -6.0350   26.5430 C   0  0  0  0  0  0  0  0  0  0  0  0
    8.2190   -5.3230   27.0250 C   0  0  0  0  0  0  0  0  0  0  0  0
    7.1010   -5.7680   28.2420 Cl  0  0  0  0  0  0  0  0  0  0  0  0
  1  2  1  0
  2  3  1  0
  3  4  1  0
  4  5  1  0
  6  5  1  6
  6  7  1  0
  6  8  1  0
  7  8  1  6
  7  9  1  0
  9 10  1  0
  9 11  1  6
 10 12  1  0
 11 13  1  0
 10 14  1  0
 12 15  1  0
 12 16  2  0
 14 17  1  0
 13 18  1  0
 13 19  1  0
 14 19  1  6
 17 20  1  0
 18 21  1  6
 17 22  1  1
 17 23  1  0
 18 24  1  0
 20 25  1  0
 23 26  2  0
 23 27  1  0
 24 28  2  0
 24 29  1  0
 21 30  1  0
 25 31  1  1
 25 32  1  0
 26 32  1  0
 29 33  1  0
 26 34  1  0
 27 35  2  0
 28 36  1  0
 29 37  2  0
 30 38  2  0
 30 39  1  0
 34 40  2  0
 35 40  1  0
 36 41  2  0
 37 41  1  0
 38 42  1  0
 39 43  1  0
 42 43  2  0
 43 44  1  0
M  END
