x0831_0-x0692_1-x1374_1-x0397_0-x0770_1-x1386_1-x1385_1-x1418_1-x1334_1-x0831_1
     RDKit          3D

 25 27  0  0  0  0  0  0  0  0999 V2000
    2.2450   -7.7230   23.2310 O   0  0  0  0  0  0  0  0  0  0  0  0
    2.5160   -7.9970   24.5910 C   0  0  0  0  0  0  0  0  0  0  0  0
    3.9080   -8.0000   24.8110 O   0  0  0  0  0  0  0  0  0  0  0  0
    4.5690   -7.2140   23.8200 C   0  0  0  0  0  0  0  0  0  0  0  0
    5.0720   -5.9220   24.4070 C   0  0  0  0  0  0  0  0  0  0  0  0
    6.0460   -5.3210   23.4490 C   0  0  2  0  0  0  0  0  0  0  0  0
    5.5900   -4.3250   22.3970 C   0  0  2  0  0  0  0  0  0  0  0  0
    6.1110   -5.6980   21.9910 C   0  0  0  0  0  0  0  0  0  0  0  0
    6.3300   -3.0100   22.3720 C   0  0  2  0  0  0  0  0  0  0  0  0
    6.4260   -2.4340   21.0100 N   0  0  0  0  0  0  0  0  0  0  0  0
    7.7230   -3.1390   23.0580 C   0  0  0  0  0  0  0  0  0  0  0  0
    6.2740   -3.2440   19.8850 C   0  0  0  0  0  0  0  0  0  0  0  0
    8.5730   -1.9360   23.0120 N   0  0  0  0  0  0  0  0  0  0  0  0
    7.2780   -1.2300   20.9790 C   0  0  0  0  0  0  0  0  0  0  0  0
    5.4360   -4.1560   19.7660 O   0  0  0  0  0  0  0  0  0  0  0  0
    7.2300   -2.9930   18.7410 C   0  0  0  0  0  0  0  0  0  0  0  0
    9.9380   -2.2250   23.4790 C   0  0  0  0  0  0  0  0  0  0  0  0
    8.6550   -1.4780   21.6250 C   0  0  0  0  0  0  0  0  0  0  0  0
   10.7920   -0.9820   23.4780 C   0  0  0  0  0  0  0  0  0  0  0  0
   10.2750    0.1680   24.0970 C   0  0  0  0  0  0  0  0  0  0  0  0
   12.0690   -0.9280   22.8750 C   0  0  0  0  0  0  0  0  0  0  0  0
   12.6950   -2.1090   22.1850 C   0  0  0  0  0  0  0  0  0  0  0  0
   11.0020    1.3480   24.1100 C   0  0  0  0  0  0  0  0  0  0  0  0
   12.7850    0.2710   22.9100 C   0  0  0  0  0  0  0  0  0  0  0  0
   12.2550    1.3960   23.5160 C   0  0  0  0  0  0  0  0  0  0  0  0
  1  2  1  0
  2  3  1  0
  3  4  1  0
  4  5  1  0
  6  5  1  1
  6  7  1  0
  6  8  1  0
  7  8  1  6
  7  9  1  0
  9 10  1  0
  9 11  1  6
 10 12  1  0
 11 13  1  0
 10 14  1  0
 12 15  2  0
 12 16  1  0
 13 17  1  0
 13 18  1  0
 14 18  1  0
 17 19  1  0
 19 20  2  0
 19 21  1  0
 21 22  1  0
 20 23  1  0
 21 24  2  0
 23 25  2  0
 24 25  1  0
M  END
