x0831_0-x0692_1-x0770_1-x1418_1-x1386_1-x0426_1-x1334_0-x0397_0-x1334_1-x1374_1
     RDKit          3D

 44 49  0  0  0  0  0  0  0  0999 V2000
    2.2170   -7.7960   23.3360 O   0  0  0  0  0  0  0  0  0  0  0  0
    2.4810   -8.0380   24.7010 C   0  0  0  0  0  0  0  0  0  0  0  0
    3.8760   -7.9570   24.8800 O   0  0  0  0  0  0  0  0  0  0  0  0
    4.4490   -7.2230   23.8070 C   0  0  0  0  0  0  0  0  0  0  0  0
    4.9450   -6.0190   24.2630 C   0  0  0  0  0  0  0  0  0  0  0  0
    5.9600   -5.4790   23.3140 C   0  0  2  0  0  0  0  0  0  0  0  0
    5.5970   -4.4140   22.3690 C   0  0  2  0  0  0  0  0  0  0  0  0
    6.2280   -5.9670   21.9920 C   0  0  0  0  0  0  0  0  0  0  0  0
    6.3990   -3.1600   22.4020 C   0  0  2  0  0  0  0  0  0  0  0  0
    6.5690   -2.5800   21.0810 N   0  0  0  0  0  0  0  0  0  0  0  0
    7.7530   -3.4250   23.1590 C   0  0  0  0  0  0  0  0  0  0  0  0
    6.2880   -3.2850   19.8850 C   0  0  0  0  0  0  0  0  0  0  0  0
    8.7060   -2.3110   23.0920 N   0  0  0  0  0  0  0  0  0  0  0  0
    7.4980   -1.4590   21.1510 C   0  0  2  0  0  0  0  0  0  0  0  0
    5.3880   -4.1330   19.7400 O   0  0  0  0  0  0  0  0  0  0  0  0
    7.2170   -2.9780   18.7390 C   0  0  0  0  0  0  0  0  0  0  0  0
   10.1170   -2.3990   23.3890 C   0  0  2  0  0  0  0  0  0  0  0  0
    8.8070   -1.9180   21.6980 C   0  0  0  0  0  0  0  0  0  0  0  0
    6.9920   -0.3510   22.0660 C   0  0  0  0  0  0  0  0  0  0  0  0
   10.5790   -3.2200   24.5890 C   0  0  0  0  0  0  0  0  0  0  0  0
   10.7940   -1.0300   23.4110 C   0  0  0  0  0  0  0  0  0  0  0  0
    5.5830    0.0440   21.7090 C   0  0  1  0  0  0  0  0  0  0  0  0
   10.0580    0.1930   23.9340 C   0  0  0  0  0  0  0  0  0  0  0  0
   12.2340   -0.8400   22.8960 C   0  0  0  0  0  0  0  0  0  0  0  0
    9.6620   -4.0480   25.4640 C   0  0  0  0  0  0  0  0  0  0  0  0
    5.1630    1.0260   22.6030 C   0  0  0  0  0  0  0  0  0  0  0  0
    5.5610    0.4980   20.2810 C   0  0  0  0  0  0  0  0  0  0  0  0
   13.0020   -1.9920   22.3470 C   0  0  0  0  0  0  0  0  0  0  0  0
   10.7560    1.5590   23.9470 C   0  0  0  0  0  0  0  0  0  0  0  0
   12.8920    0.5480   22.9320 C   0  0  0  0  0  0  0  0  0  0  0  0
   10.1030   -5.3100   25.7010 C   0  0  0  0  0  0  0  0  0  0  0  0
    8.1740   -3.7200   26.2580 S   0  0  0  0  0  0  0  0  0  0  0  0
    3.6970    1.4010   22.2910 C   0  0  1  0  0  0  0  0  0  0  0  0
    4.5610    1.5020   19.9090 C   0  0  0  0  0  0  0  0  0  0  0  0
    6.4410    0.0220   19.3160 C   0  0  0  0  0  0  0  0  0  0  0  0
   12.0480    1.7070   23.4850 C   0  0  0  0  0  0  0  0  0  0  0  0
    9.2530   -6.0260   26.5440 C   0  0  0  0  0  0  0  0  0  0  0  0
    8.1700   -5.2920   26.9410 C   0  0  0  0  0  0  0  0  0  0  0  0
    3.2840    2.3890   23.2840 N   0  0  0  0  0  0  0  0  0  0  0  0
    3.5700    2.0550   20.9300 C   0  0  0  0  0  0  0  0  0  0  0  0
    4.5660    1.9560   18.4970 C   0  0  0  0  0  0  0  0  0  0  0  0
    6.4230    0.4480   18.0420 N   0  0  0  0  0  0  0  0  0  0  0  0
    6.9170   -5.7940   27.9940 Cl  0  0  0  0  0  0  0  0  0  0  0  0
    5.5220    1.3760   17.6690 C   0  0  0  0  0  0  0  0  0  0  0  0
  1  2  1  0
  2  3  1  0
  3  4  1  0
  4  5  1  0
  6  5  1  6
  6  7  1  0
  6  8  1  0
  7  8  1  6
  7  9  1  0
  9 10  1  0
  9 11  1  6
 10 12  1  0
 11 13  1  0
 10 14  1  0
 12 15  2  0
 12 16  1  0
 13 17  1  0
 13 18  1  0
 14 18  1  0
 14 19  1  1
 17 20  1  1
 17 21  1  0
 22 19  1  1
 21 23  2  0
 21 24  1  0
 20 25  1  0
 22 26  1  0
 22 27  1  0
 24 28  1  0
 23 29  1  0
 24 30  2  0
 25 31  2  0
 25 32  1  0
 26 33  1  0
 27 34  2  0
 27 35  1  0
 29 36  2  0
 30 36  1  0
 31 37  1  0
 32 38  1  0
 37 38  2  0
 33 39  1  1
 33 40  1  0
 34 40  1  0
 34 41  1  0
 35 42  2  0
 38 43  1  0
 41 44  2  0
 42 44  1  0
M  END
