x0831_0-x1385_1-x0770_1-x0397_0-x1386_1
     RDKit          3D

 20 22  0  0  0  0  0  0  0  0999 V2000
    6.4150   -3.2820   19.9030 C   0  0  0  0  0  0  0  0  0  0  0  0
    7.3710   -2.9800   18.7570 C   0  0  0  0  0  0  0  0  0  0  0  0
    5.4200   -4.0050   19.6950 O   0  0  0  0  0  0  0  0  0  0  0  0
    6.7400   -2.7740   21.1600 N   0  0  0  0  0  0  0  0  0  0  0  0
    7.1060   -3.6890   22.2410 C   0  0  1  0  0  0  0  0  0  0  0  0
    7.4060   -1.4650   21.2390 C   0  0  0  0  0  0  0  0  0  0  0  0
    7.5530   -2.9830   23.4200 C   0  0  0  0  0  0  0  0  0  0  0  0
    8.7250   -1.6050   21.7460 C   0  0  0  0  0  0  0  0  0  0  0  0
    6.0160   -4.6650   22.5750 C   0  0  0  0  0  0  0  0  0  0  0  0
    8.7310   -2.1850   23.0610 N   0  0  0  0  0  0  0  0  0  0  0  0
    6.2130   -5.7720   23.2090 C   0  0  0  0  0  0  0  0  0  0  0  0
    5.9280   -6.2170   22.0240 C   0  0  0  0  0  0  0  0  0  0  0  0
   10.0640   -2.4760   23.5610 C   0  0  0  0  0  0  0  0  0  0  0  0
   10.8170   -1.1510   23.5450 C   0  0  0  0  0  0  0  0  0  0  0  0
   10.2440   -0.0590   24.1770 C   0  0  0  0  0  0  0  0  0  0  0  0
   12.0750   -0.9970   22.8960 C   0  0  0  0  0  0  0  0  0  0  0  0
   12.7780   -2.1010   22.1780 C   0  0  0  0  0  0  0  0  0  0  0  0
   10.7940    1.2210   24.2300 C   0  0  0  0  0  0  0  0  0  0  0  0
   12.7460    0.3810   22.9210 C   0  0  0  0  0  0  0  0  0  0  0  0
   12.1660    1.4520   23.5370 C   0  0  0  0  0  0  0  0  0  0  0  0
  1  2  1  0
  1  3  2  0
  1  4  1  0
  4  5  1  0
  4  6  1  0
  5  7  1  0
  6  8  1  0
  5  9  1  1
  7 10  1  0
  8 10  1  0
  9 11  1  0
  9 12  1  0
 11 12  1  0
 10 13  1  0
 13 14  1  0
 14 15  2  0
 14 16  1  0
 16 17  1  0
 15 18  1  0
 16 19  2  0
 18 20  2  0
 19 20  1  0
M  END
