x0831_0-x0769_0-x0434_2-x0731_0-x0769_1
     RDKit          3D

 38 41  0  0  0  0  0  0  0  0999 V2000
    6.3920   -4.5960   20.6700 C   0  0  0  0  0  0  0  0  0  0  0  0
    7.4300   -3.5560   20.2410 C   0  0  0  0  0  0  0  0  0  0  0  0
    5.3990   -4.8540   19.9890 O   0  0  0  0  0  0  0  0  0  0  0  0
    6.5930   -5.2660   21.8770 N   0  0  0  0  0  0  0  0  0  0  0  0
    5.8040   -6.3230   22.1250 C   0  0  0  0  0  0  0  0  0  0  0  0
    7.2460   -4.6340   23.0570 C   0  0  1  0  0  0  0  0  0  0  0  0
    7.9950   -3.3390   22.6680 C   0  0  0  0  0  0  0  0  0  0  0  0
    4.8410   -6.0430   23.2800 C   0  0  0  0  0  0  0  0  0  0  0  0
    6.3430   -4.2690   24.0230 C   0  0  0  0  0  0  0  0  0  0  0  0
    8.6280   -2.4140   23.6900 C   0  0  1  0  0  0  0  0  0  0  0  0
    5.4850   -5.3800   24.4180 N   0  0  0  0  0  0  0  0  0  0  0  0
    4.7360   -5.3390   25.9320 S   0  0  0  0  0  0  0  0  0  0  0  0
   10.1630   -2.4710   23.6790 C   0  0  0  0  0  0  0  0  0  0  0  0
    8.1650   -1.0300   23.2430 C   0  0  0  0  0  0  0  0  0  0  0  0
    5.7690   -5.1510   26.9300 O   0  0  0  0  0  0  0  0  0  0  0  0
    3.8560   -6.4880   25.9710 O   0  0  0  0  0  0  0  0  0  0  0  0
    7.8870   -1.0260   21.7190 C   0  0  0  0  0  0  0  0  0  0  0  0
    3.7340   -3.9530   25.9220 C   0  0  0  0  0  0  0  0  0  0  0  0
   10.8710   -1.1410   23.6250 C   0  0  0  0  0  0  0  0  0  0  0  0
    7.5800    0.2930   21.2010 N   0  0  0  0  0  0  0  0  0  0  0  0
    2.3670   -4.0770   25.7840 C   0  0  0  0  0  0  0  0  0  0  0  0
    4.2780   -2.6370   26.0620 C   0  0  0  0  0  0  0  0  0  0  0  0
   10.2690   -0.0230   24.2840 C   0  0  0  0  0  0  0  0  0  0  0  0
   12.1770   -0.9860   22.8890 C   0  0  0  0  0  0  0  0  0  0  0  0
    5.6080   -2.4510   26.2010 F   0  0  0  0  0  0  0  0  0  0  0  0
   12.8720   -2.0990   22.1660 C   0  0  0  0  0  0  0  0  0  0  0  0
    1.4820   -2.8590   25.7870 C   0  0  0  0  0  0  0  0  0  0  0  0
    3.4570   -1.4640   26.0670 C   0  0  0  0  0  0  0  0  0  0  0  0
   10.8980    1.2180   24.2260 C   0  0  0  0  0  0  0  0  0  0  0  0
   12.8220    0.4110   22.8820 C   0  0  0  0  0  0  0  0  0  0  0  0
    6.7890    0.5160   20.0870 C   0  0  0  0  0  0  0  0  0  0  0  0
    2.0660   -1.5760   25.9330 C   0  0  0  0  0  0  0  0  0  0  0  0
   12.0750    1.3640   23.5670 C   0  0  0  0  0  0  0  0  0  0  0  0
    7.0190    0.0230   18.8140 C   0  0  0  0  0  0  0  0  0  0  0  0
    5.6570    1.3170   20.2600 C   0  0  0  0  0  0  0  0  0  0  0  0
    6.2110    0.3040   17.7720 N   0  0  0  0  0  0  0  0  0  0  0  0
    4.8510    1.5970   19.2380 C   0  0  0  0  0  0  0  0  0  0  0  0
    5.1560    1.0790   18.0000 C   0  0  0  0  0  0  0  0  0  0  0  0
  1  2  1  0
  1  3  2  0
  1  4  1  0
  4  5  1  0
  4  6  1  0
  6  7  1  6
  5  8  1  0
  6  9  1  0
 10  7  1  6
  8 11  1  0
  9 11  1  0
 11 12  1  0
 10 13  1  0
 10 14  1  0
 12 15  2  0
 12 16  2  0
 14 17  1  0
 12 18  1  0
 13 19  1  0
 17 20  1  0
 18 21  2  0
 18 22  1  0
 19 23  2  0
 19 24  1  0
 22 25  1  0
 24 26  1  0
 21 27  1  0
 22 28  2  0
 23 29  1  0
 24 30  2  0
 20 31  1  0
 27 32  2  0
 28 32  1  0
 29 33  2  0
 30 33  1  0
 31 34  2  0
 31 35  1  0
 34 36  1  0
 35 37  2  0
 36 38  2  0
 37 38  1  0
M  END
