x0831_0-x1412_1-x1386_1-x0689_0
     RDKit          3D

 27 29  0  0  0  0  0  0  0  0999 V2000
    6.3440   -3.4370   19.9920 C   0  0  0  0  0  0  0  0  0  0  0  0
    7.2900   -3.0300   18.8660 C   0  0  0  0  0  0  0  0  0  0  0  0
    5.3940   -4.1990   19.7770 O   0  0  0  0  0  0  0  0  0  0  0  0
    6.6170   -2.9280   21.2670 N   0  0  0  0  0  0  0  0  0  0  0  0
    7.2700   -1.6280   21.4460 C   0  0  0  0  0  0  0  0  0  0  0  0
    6.7260   -3.8910   22.4130 C   0  0  2  0  0  0  0  0  0  0  0  0
    5.3520   -3.9190   23.1200 C   0  0  0  0  0  0  0  0  0  0  0  0
    8.7100   -1.8060   21.9130 C   0  0  0  0  0  0  0  0  0  0  0  0
    8.0830   -3.7700   23.1700 C   0  0  0  0  0  0  0  0  0  0  0  0
    5.1240   -5.2420   23.8550 C   0  0  0  0  0  0  0  0  0  0  0  0
    8.7700   -2.4490   23.2180 N   0  0  0  0  0  0  0  0  0  0  0  0
    4.5960   -5.0920   25.5550 S   0  0  0  0  0  0  0  0  0  0  0  0
   10.1050   -2.5510   23.5510 C   0  0  0  0  0  0  0  0  0  0  0  0
    3.8800   -6.2950   25.9300 O   0  0  0  0  0  0  0  0  0  0  0  0
    5.6770   -4.5810   26.3760 O   0  0  0  0  0  0  0  0  0  0  0  0
    3.3880   -3.8840   25.5610 C   0  0  0  0  0  0  0  0  0  0  0  0
   10.8040   -1.1900   23.5660 C   0  0  0  0  0  0  0  0  0  0  0  0
    3.9250   -2.2640   25.9410 S   0  0  0  0  0  0  0  0  0  0  0  0
    2.0090   -3.9870   25.3090 C   0  0  0  0  0  0  0  0  0  0  0  0
   10.1660   -0.1060   24.2560 C   0  0  0  0  0  0  0  0  0  0  0  0
   12.0460   -0.9760   22.9160 C   0  0  0  0  0  0  0  0  0  0  0  0
   12.7540   -2.0670   22.1750 C   0  0  0  0  0  0  0  0  0  0  0  0
    2.3500   -1.6400   25.7880 C   0  0  0  0  0  0  0  0  0  0  0  0
    1.3880   -2.7570   25.4260 C   0  0  0  0  0  0  0  0  0  0  0  0
   10.8270    1.1310   24.2360 C   0  0  0  0  0  0  0  0  0  0  0  0
   12.6570    0.2740   22.9400 C   0  0  0  0  0  0  0  0  0  0  0  0
   12.0520    1.3210   23.5910 C   0  0  0  0  0  0  0  0  0  0  0  0
  1  2  1  0
  1  3  2  0
  1  4  1  0
  4  5  1  0
  4  6  1  0
  6  7  1  1
  5  8  1  0
  6  9  1  0
  7 10  1  0
  8 11  1  0
  9 11  1  0
 12 10  1  0
 11 13  1  0
 12 14  2  0
 12 15  2  0
 12 16  1  0
 13 17  1  0
 16 18  1  0
 16 19  2  0
 17 20  2  0
 17 21  1  0
 21 22  1  0
 18 23  1  0
 19 24  1  0
 23 24  2  0
 20 25  1  0
 21 26  2  0
 25 27  2  0
 26 27  1  0
M  END
