x0831_0-x0831_1-x0540_3
     RDKit          3D

 24 25  0  0  0  0  0  0  0  0999 V2000
    6.1500   -3.5720   20.0550 C   0  0  0  0  0  0  0  0  0  0  0  0
    7.1390   -3.0960   18.9810 C   0  0  0  0  0  0  0  0  0  0  0  0
    5.2950   -4.4150   19.8220 O   0  0  0  0  0  0  0  0  0  0  0  0
    6.2390   -3.0390   21.3230 N   0  0  0  0  0  0  0  0  0  0  0  0
    6.0980   -1.5950   21.3680 C   0  0  0  0  0  0  0  0  0  0  0  0
    7.1830   -3.6880   22.2390 C   0  0  0  0  0  0  0  0  0  0  0  0
    7.2600   -0.8190   21.2530 C   0  0  1  0  0  0  0  0  0  0  0  0
    7.6180   -2.8790   23.4800 C   0  0  0  0  0  0  0  0  0  0  0  0
    6.9530    0.5060   21.9620 C   0  0  0  0  0  0  0  0  0  0  0  0
    8.6040   -1.8510   23.1630 N   0  0  0  0  0  0  0  0  0  0  0  0
    8.5700   -1.4140   21.7570 C   0  0  0  0  0  0  0  0  0  0  0  0
    5.4450    0.7860   22.1110 C   0  0  0  0  0  0  0  0  0  0  0  0
    9.9690   -2.2300   23.5270 C   0  0  0  0  0  0  0  0  0  0  0  0
    5.0910    2.2470   21.8870 C   0  0  0  0  0  0  0  0  0  0  0  0
   10.8380   -1.0000   23.4940 C   0  0  0  0  0  0  0  0  0  0  0  0
    4.1560    2.8100   22.8860 N   0  0  0  0  0  0  0  0  0  0  0  0
   10.3300    0.1490   24.0920 C   0  0  0  0  0  0  0  0  0  0  0  0
   12.1170   -0.9350   22.8850 C   0  0  0  0  0  0  0  0  0  0  0  0
    3.0870    2.1030   23.3610 C   0  0  0  0  0  0  0  0  0  0  0  0
   12.7410   -2.1210   22.2090 C   0  0  0  0  0  0  0  0  0  0  0  0
   11.0170    1.3490   24.1080 C   0  0  0  0  0  0  0  0  0  0  0  0
   12.8440    0.2550   22.8890 C   0  0  0  0  0  0  0  0  0  0  0  0
    3.0640    1.4280   24.3900 O   0  0  0  0  0  0  0  0  0  0  0  0
   12.2710    1.3680   23.4970 C   0  0  0  0  0  0  0  0  0  0  0  0
  1  2  1  0
  1  3  2  0
  1  4  1  0
  4  5  1  0
  4  6  1  0
  5  7  1  0
  6  8  1  0
  7  9  1  1
  8 10  1  0
  7 11  1  0
 10 11  1  0
  9 12  1  0
 10 13  1  0
 12 14  1  0
 13 15  1  0
 14 16  1  0
 15 17  2  0
 15 18  1  0
 16 19  1  0
 18 20  1  0
 17 21  1  0
 18 22  2  0
 19 23  2  0
 21 24  2  0
 22 24  1  0
M  END
