x0831_0-x1418_1-x1386_0-x0397_0
     RDKit          3D

 21 23  0  0  0  0  0  0  0  0999 V2000
    6.3850   -3.3040   19.8710 C   0  0  0  0  0  0  0  0  0  0  0  0
    7.3690   -3.0200   18.7560 C   0  0  0  0  0  0  0  0  0  0  0  0
    5.4280   -4.0790   19.7340 O   0  0  0  0  0  0  0  0  0  0  0  0
    6.6570   -2.6500   21.0720 N   0  0  0  0  0  0  0  0  0  0  0  0
    6.5530   -3.3000   22.4130 C   0  0  2  0  0  0  0  0  0  0  0  0
    7.4650   -1.3800   21.0910 C   0  0  0  0  0  0  0  0  0  0  0  0
    7.9660   -3.3210   23.0340 C   0  0  0  0  0  0  0  0  0  0  0  0
    8.7420   -1.5500   21.6600 C   0  0  0  0  0  0  0  0  0  0  0  0
    5.7660   -4.4470   22.4010 C   0  0  0  0  0  0  0  0  0  0  0  0
    8.6110   -1.9980   23.0360 N   0  0  0  0  0  0  0  0  0  0  0  0
    6.1490   -5.6850   23.0400 C   0  0  0  0  0  0  0  0  0  0  0  0
    6.2310   -5.8240   21.7940 C   0  0  0  0  0  0  0  0  0  0  0  0
    9.7560   -2.0040   23.8570 C   0  0  1  0  0  0  0  0  0  0  0  0
   10.4800   -3.2930   23.7870 C   0  0  0  0  0  0  0  0  0  0  0  0
   10.6700   -0.8100   23.6560 C   0  0  0  0  0  0  0  0  0  0  0  0
   10.1490    0.4950   24.1890 C   0  0  0  0  0  0  0  0  0  0  0  0
   11.9420   -0.8430   23.0180 C   0  0  0  0  0  0  0  0  0  0  0  0
   12.5270   -2.0970   22.4480 C   0  0  0  0  0  0  0  0  0  0  0  0
   10.9890    1.7910   24.0370 C   0  0  0  0  0  0  0  0  0  0  0  0
   12.7370    0.2860   22.8660 C   0  0  0  0  0  0  0  0  0  0  0  0
   12.2080    1.6410   23.4060 C   0  0  0  0  0  0  0  0  0  0  0  0
  1  2  1  0
  1  3  2  0
  1  4  1  0
  4  5  1  0
  4  6  1  0
  5  7  1  0
  6  8  1  0
  5  9  1  6
  7 10  1  0
  8 10  1  0
  9 11  1  0
  9 12  1  0
 11 12  1  0
 10 13  1  0
 13 14  1  6
 13 15  1  0
 15 16  2  0
 15 17  1  0
 17 18  1  0
 16 19  1  0
 17 20  2  0
 19 21  2  0
 20 21  1  0
M  END
