x0831_0-x1385_1-x0770_1-x0831_1-x1418_1-x0397_0-x1334_1-x0434_2-x0692_1
     RDKit          3D

 28 31  0  0  0  0  0  0  0  0999 V2000
    6.3820   -3.3150   20.0150 C   0  0  0  0  0  0  0  0  0  0  0  0
    7.3010   -3.0110   18.8340 C   0  0  0  0  0  0  0  0  0  0  0  0
    5.4430   -4.1050   19.7590 O   0  0  0  0  0  0  0  0  0  0  0  0
    6.6570   -2.7310   21.2770 N   0  0  0  0  0  0  0  0  0  0  0  0
    6.6980   -3.6890   22.4340 C   0  0  2  0  0  0  0  0  0  0  0  0
    7.3100   -1.5640   21.6240 C   0  0  1  0  0  0  0  0  0  0  0  0
    7.8550   -3.5000   23.5000 C   0  0  0  0  0  0  0  0  0  0  0  0
    8.7410   -1.8740   21.9540 C   0  0  0  0  0  0  0  0  0  0  0  0
    6.5870   -5.1080   22.0190 C   0  0  0  0  0  0  0  0  0  0  0  0
    7.1980   -0.5080   20.5610 C   0  0  0  0  0  0  0  0  0  0  0  0
    8.7590   -2.3330   23.3240 N   0  0  0  0  0  0  0  0  0  0  0  0
    6.4330   -6.1260   23.0010 C   0  0  0  0  0  0  0  0  0  0  0  0
    5.2130   -6.0500   22.2820 C   0  0  0  0  0  0  0  0  0  0  0  0
    7.1730   -0.9300   19.2900 C   0  0  0  0  0  0  0  0  0  0  0  0
   10.0550   -2.5550   23.6420 C   0  0  0  0  0  0  0  0  0  0  0  0
    6.7350    0.0890   18.3640 C   0  0  0  0  0  0  0  0  0  0  0  0
   10.7920   -1.2440   23.5790 C   0  0  0  0  0  0  0  0  0  0  0  0
    5.7580   -0.0020   19.5890 C   0  0  0  0  0  0  0  0  0  0  0  0
    6.1230    1.0800   17.6650 N   0  0  0  0  0  0  0  0  0  0  0  0
   10.1390   -0.0130   24.2410 C   0  0  0  0  0  0  0  0  0  0  0  0
   12.1750   -1.0160   22.8750 C   0  0  0  0  0  0  0  0  0  0  0  0
    5.0090    1.7780   17.9280 C   0  0  0  0  0  0  0  0  0  0  0  0
    4.6040    0.6710   19.9460 C   0  0  0  0  0  0  0  0  0  0  0  0
   12.9170   -2.1130   22.1820 C   0  0  0  0  0  0  0  0  0  0  0  0
   10.8350    1.3630   24.1860 C   0  0  0  0  0  0  0  0  0  0  0  0
   12.8050    0.4500   22.8910 C   0  0  0  0  0  0  0  0  0  0  0  0
    4.2070    1.5720   19.1210 C   0  0  0  0  0  0  0  0  0  0  0  0
   12.2080    1.5540   23.4790 C   0  0  0  0  0  0  0  0  0  0  0  0
  1  2  1  0
  1  3  2  0
  1  4  1  0
  4  5  1  0
  4  6  1  0
  5  7  1  0
  6  8  1  0
  5  9  1  6
  6 10  1  6
  7 11  1  0
  8 11  1  0
  9 12  1  0
  9 13  1  0
 12 13  1  0
 10 14  1  0
 11 15  1  0
 14 16  1  0
 15 17  1  0
 16 18  2  0
 16 19  1  0
 17 20  2  0
 17 21  1  0
 19 22  2  0
 18 23  1  0
 21 24  1  0
 20 25  1  0
 21 26  2  0
 22 27  1  0
 23 27  2  0
 25 28  2  0
 26 28  1  0
M  END
