x0831_0-x1334_1-x0831_1-x1386_1-x0397_0-x1418_1-x1385_1-x0770_1-x0540_3-x0692_1
     RDKit          3D

 26 28  0  0  0  0  0  0  0  0999 V2000
    6.3710   -3.2970   19.8630 C   0  0  0  0  0  0  0  0  0  0  0  0
    7.3540   -2.9740   18.7540 C   0  0  0  0  0  0  0  0  0  0  0  0
    5.3650   -3.9760   19.6300 O   0  0  0  0  0  0  0  0  0  0  0  0
    6.6960   -2.8700   21.1460 N   0  0  0  0  0  0  0  0  0  0  0  0
    7.0630   -1.5510   21.3300 C   0  0  1  0  0  0  0  0  0  0  0  0
    7.2490   -3.8000   21.9650 C   0  0  1  0  0  0  0  0  0  0  0  0
    6.1040   -0.8770   22.3300 C   0  0  0  0  0  0  0  0  0  0  0  0
    8.5200   -1.5890   21.8380 C   0  0  0  0  0  0  0  0  0  0  0  0
    7.5920   -3.4080   23.2630 C   0  0  0  0  0  0  0  0  0  0  0  0
    6.2940   -4.4990   22.8930 C   0  0  0  0  0  0  0  0  0  0  0  0
    5.1580    0.1490   21.7010 C   0  0  0  0  0  0  0  0  0  0  0  0
    8.5100   -2.1920   23.1810 N   0  0  0  0  0  0  0  0  0  0  0  0
    6.8680   -5.8040   23.2360 C   0  0  0  0  0  0  0  0  0  0  0  0
    5.5760   -5.9830   22.5960 C   0  0  0  0  0  0  0  0  0  0  0  0
    5.3170    1.5500   22.3950 C   0  0  0  0  0  0  0  0  0  0  0  0
    9.9070   -2.4620   23.5390 C   0  0  0  0  0  0  0  0  0  0  0  0
    4.1020    2.3400   22.3530 N   0  0  0  0  0  0  0  0  0  0  0  0
   10.7470   -1.1800   23.5070 C   0  0  0  0  0  0  0  0  0  0  0  0
    3.0320    2.1770   23.3260 C   0  0  0  0  0  0  0  0  0  0  0  0
   10.1300   -0.0890   24.1960 C   0  0  0  0  0  0  0  0  0  0  0  0
   11.9990   -1.0270   22.8690 C   0  0  0  0  0  0  0  0  0  0  0  0
    2.9410    1.3170   24.1890 O   0  0  0  0  0  0  0  0  0  0  0  0
   12.7340   -2.1400   22.0980 C   0  0  0  0  0  0  0  0  0  0  0  0
   10.7300    1.1380   24.2490 C   0  0  0  0  0  0  0  0  0  0  0  0
   12.6420    0.3220   22.9460 C   0  0  0  0  0  0  0  0  0  0  0  0
   12.0750    1.4020   23.5920 C   0  0  0  0  0  0  0  0  0  0  0  0
  1  2  1  0
  1  3  2  0
  1  4  1  0
  4  5  1  0
  4  6  1  0
  5  7  1  1
  5  8  1  0
  6  9  1  0
  6 10  1  1
  7 11  1  0
  8 12  1  0
  9 12  1  0
 10 13  1  0
 10 14  1  0
 13 14  1  0
 11 15  1  0
 12 16  1  0
 15 17  1  0
 16 18  1  0
 17 19  1  0
 18 20  2  0
 18 21  1  0
 19 22  2  0
 21 23  1  0
 20 24  1  0
 21 25  2  0
 24 26  2  0
 25 26  1  0
M  END
