x0831_0-x1374_1-x1412_1-x0692_1-x1386_1-x0831_1-x0397_0-x1334_0
     RDKit          3D

 32 35  0  0  0  0  0  0  0  0999 V2000
    2.0760   -7.1430   23.6080 O   0  0  0  0  0  0  0  0  0  0  0  0
    2.5840   -7.4530   24.8930 C   0  0  0  0  0  0  0  0  0  0  0  0
    3.9510   -7.8260   24.8420 O   0  0  0  0  0  0  0  0  0  0  0  0
    4.5850   -7.1440   23.7710 C   0  0  0  0  0  0  0  0  0  0  0  0
    5.1770   -6.0010   24.2470 C   0  0  0  0  0  0  0  0  0  0  0  0
    6.1210   -5.5490   23.1820 C   0  0  2  0  0  0  0  0  0  0  0  0
    5.7070   -4.5130   22.2900 C   0  0  2  0  0  0  0  0  0  0  0  0
    6.2140   -6.0770   21.9970 C   0  0  0  0  0  0  0  0  0  0  0  0
    6.4680   -3.1920   22.3780 C   0  0  2  0  0  0  0  0  0  0  0  0
    6.4840   -2.5320   21.0710 N   0  0  0  0  0  0  0  0  0  0  0  0
    7.7180   -3.2950   23.0030 C   0  0  0  0  0  0  0  0  0  0  0  0
    6.3490   -3.2880   19.9100 C   0  0  0  0  0  0  0  0  0  0  0  0
    8.4380   -2.0280   23.0940 N   0  0  0  0  0  0  0  0  0  0  0  0
    7.4370   -1.3910   20.9660 C   0  0  0  0  0  0  0  0  0  0  0  0
    7.3410   -3.0160   18.7950 C   0  0  0  0  0  0  0  0  0  0  0  0
    5.4810   -4.1680   19.7590 O   0  0  0  0  0  0  0  0  0  0  0  0
    9.6010   -2.0770   23.9470 C   0  0  1  0  0  0  0  0  0  0  0  0
    8.7350   -1.5850   21.7410 C   0  0  0  0  0  0  0  0  0  0  0  0
   10.2040   -3.4250   23.9190 C   0  0  0  0  0  0  0  0  0  0  0  0
   10.5730   -0.9060   23.7230 C   0  0  0  0  0  0  0  0  0  0  0  0
   10.1950    0.4440   24.0970 C   0  0  0  0  0  0  0  0  0  0  0  0
   11.8980   -0.9900   23.1430 C   0  0  0  0  0  0  0  0  0  0  0  0
    9.5640   -4.2130   25.0180 C   0  0  0  0  0  0  0  0  0  0  0  0
   12.4840   -2.2790   22.6680 C   0  0  0  0  0  0  0  0  0  0  0  0
   10.9570    1.5660   23.9580 C   0  0  0  0  0  0  0  0  0  0  0  0
   12.7480    0.1120   22.9670 C   0  0  0  0  0  0  0  0  0  0  0  0
    9.9050   -5.5050   25.2830 C   0  0  0  0  0  0  0  0  0  0  0  0
    8.3430   -3.6950   26.1170 S   0  0  0  0  0  0  0  0  0  0  0  0
   12.3140    1.3480   23.3530 C   0  0  0  0  0  0  0  0  0  0  0  0
    9.2210   -6.0780   26.3580 C   0  0  0  0  0  0  0  0  0  0  0  0
    8.3150   -5.2030   26.9410 C   0  0  0  0  0  0  0  0  0  0  0  0
    7.2850   -5.4990   28.2810 Cl  0  0  0  0  0  0  0  0  0  0  0  0
  1  2  1  0
  2  3  1  0
  3  4  1  0
  4  5  1  0
  6  5  1  1
  6  7  1  0
  6  8  1  0
  7  8  1  6
  7  9  1  0
  9 10  1  0
  9 11  1  6
 10 12  1  0
 11 13  1  0
 10 14  1  0
 12 15  1  0
 12 16  2  0
 13 17  1  0
 13 18  1  0
 14 18  1  0
 17 19  1  6
 17 20  1  0
 20 21  2  0
 20 22  1  0
 19 23  1  0
 22 24  1  0
 21 25  1  0
 22 26  2  0
 23 27  2  0
 23 28  1  0
 25 29  2  0
 26 29  1  0
 27 30  1  0
 28 31  1  0
 30 31  2  0
 31 32  1  0
M  END
