x0831_0-x1334_1-x1374_1-x0434_2-x0692_1
     RDKit          3D

 32 35  0  0  0  0  0  0  0  0999 V2000
    6.4410   -3.3440   19.9590 C   0  0  0  0  0  0  0  0  0  0  0  0
    7.3580   -2.9840   18.7910 C   0  0  0  0  0  0  0  0  0  0  0  0
    5.4490   -4.0710   19.7390 O   0  0  0  0  0  0  0  0  0  0  0  0
    6.7820   -2.9050   21.2680 N   0  0  0  0  0  0  0  0  0  0  0  0
    7.5890   -1.7200   21.5510 C   0  0  2  0  0  0  0  0  0  0  0  0
    6.9270   -3.7850   22.4420 C   0  0  2  0  0  0  0  0  0  0  0  0
    5.6700   -3.6040   23.2700 C   0  0  0  0  0  0  0  0  0  0  0  0
    7.7490   -0.7360   20.5120 N   0  0  0  0  0  0  0  0  0  0  0  0
    9.0480   -2.1060   21.8200 C   0  0  0  0  0  0  0  0  0  0  0  0
    7.9770   -3.6300   23.3450 C   0  0  0  0  0  0  0  0  0  0  0  0
    9.1280   -2.7910   22.9650 N   0  0  0  0  0  0  0  0  0  0  0  0
    4.5930   -4.6410   23.0360 C   0  0  2  0  0  0  0  0  0  0  0  0
    6.7450   -0.0340   19.8660 C   0  0  0  0  0  0  0  0  0  0  0  0
   10.0210   -2.3440   23.9340 C   0  0  0  0  0  0  0  0  0  0  0  0
    3.6940   -4.4590   24.0850 C   0  0  0  0  0  0  0  0  0  0  0  0
    5.0190   -6.1410   23.0600 C   0  0  0  0  0  0  0  0  0  0  0  0
    6.9780    0.2130   18.4930 C   0  0  0  0  0  0  0  0  0  0  0  0
    5.5430    0.4670   20.3850 C   0  0  0  0  0  0  0  0  0  0  0  0
   10.7700   -1.0560   23.7670 C   0  0  0  0  0  0  0  0  0  0  0  0
    3.1100   -5.5220   24.7230 C   0  0  0  0  0  0  0  0  0  0  0  0
    3.6920   -6.8790   23.9790 S   0  0  0  0  0  0  0  0  0  0  0  0
    6.1910    0.8770   17.6240 N   0  0  0  0  0  0  0  0  0  0  0  0
    4.7870    1.1170   19.5130 C   0  0  0  0  0  0  0  0  0  0  0  0
    2.7790   -7.4710   23.0400 O   0  0  0  0  0  0  0  0  0  0  0  0
    4.2560   -7.9440   24.9970 O   0  0  0  0  0  0  0  0  0  0  0  0
   10.2880    0.1260   24.2800 C   0  0  0  0  0  0  0  0  0  0  0  0
   12.0430   -0.9990   23.0460 C   0  0  0  0  0  0  0  0  0  0  0  0
    5.0630    1.3470   18.1540 C   0  0  0  0  0  0  0  0  0  0  0  0
   12.6910   -2.1980   22.4200 C   0  0  0  0  0  0  0  0  0  0  0  0
   10.9050    1.3100   24.1590 C   0  0  0  0  0  0  0  0  0  0  0  0
   12.7710    0.3500   22.9060 C   0  0  0  0  0  0  0  0  0  0  0  0
   12.2420    1.4510   23.4250 C   0  0  0  0  0  0  0  0  0  0  0  0
  1  2  1  0
  1  3  2  0
  1  4  1  0
  4  5  1  0
  4  6  1  0
  6  7  1  1
  5  8  1  6
  5  9  1  0
  6 10  1  0
  9 11  1  0
 10 11  1  0
 12  7  1  1
  8 13  1  0
 11 14  1  0
 12 15  1  0
 12 16  1  0
 13 17  2  0
 13 18  1  0
 14 19  1  0
 15 20  2  0
 16 21  1  0
 20 21  1  0
 17 22  1  0
 18 23  2  0
 21 24  1  0
 21 25  1  0
 19 26  2  0
 19 27  1  0
 22 28  2  0
 23 28  1  0
 27 29  1  0
 26 30  1  0
 27 31  2  0
 30 32  2  0
 31 32  1  0
M  END
