x0831_0-x0397_0-x1334_0-x0692_1-x0426_1-x1418_1-x1334_1-x0770_1-x1375_1-x0434_2
     RDKit          3D

 43 48  0  0  0  0  0  0  0  0999 V2000
    3.4270   -7.7970   24.2500 O   0  0  0  0  0  0  0  0  0  0  0  0
    4.0440   -6.7160   23.5750 C   0  0  0  0  0  0  0  0  0  0  0  0
    5.3370   -6.5120   24.1230 O   0  0  0  0  0  0  0  0  0  0  0  0
    6.4360   -6.6060   23.1820 C   0  0  0  0  0  0  0  0  0  0  0  0
    6.4520   -5.5220   22.2270 C   0  0  2  0  0  0  0  0  0  0  0  0
    5.6260   -4.3490   22.4660 C   0  0  2  0  0  0  0  0  0  0  0  0
    5.5780   -5.5860   21.2850 C   0  0  0  0  0  0  0  0  0  0  0  0
    6.3530   -3.0380   22.3440 C   0  0  2  0  0  0  0  0  0  0  0  0
    6.5490   -2.5320   20.9970 N   0  0  0  0  0  0  0  0  0  0  0  0
    7.6780   -3.1620   23.0750 C   0  0  0  0  0  0  0  0  0  0  0  0
    6.3300   -3.2190   19.8210 C   0  0  0  0  0  0  0  0  0  0  0  0
    8.5170   -1.9510   22.9470 N   0  0  0  0  0  0  0  0  0  0  0  0
    7.4000   -1.4480   20.9640 C   0  0  1  0  0  0  0  0  0  0  0  0
    5.3950   -4.0210   19.6740 O   0  0  0  0  0  0  0  0  0  0  0  0
    7.2950   -2.9910   18.6890 C   0  0  0  0  0  0  0  0  0  0  0  0
    9.6000   -1.8640   23.8840 C   0  0  1  0  0  0  0  0  0  0  0  0
    6.7920   -0.3380   21.8490 C   0  0  0  0  0  0  0  0  0  0  0  0
    8.7920   -1.7110   21.5750 C   0  0  0  0  0  0  0  0  0  0  0  0
    5.3140   -0.2520   21.6650 C   0  0  1  0  0  0  0  0  0  0  0  0
   10.1970   -3.2110   24.0320 C   0  0  0  0  0  0  0  0  0  0  0  0
   10.5840   -0.7950   23.6580 C   0  0  0  0  0  0  0  0  0  0  0  0
    4.5260    0.5090   22.7420 C   0  0  0  0  0  0  0  0  0  0  0  0
    5.3060    0.3860   20.2670 C   0  0  0  0  0  0  0  0  0  0  0  0
   10.1220    0.5660   24.1150 C   0  0  0  0  0  0  0  0  0  0  0  0
   11.9720   -1.0170   23.0170 C   0  0  0  0  0  0  0  0  0  0  0  0
    9.5120   -4.0590   25.1250 C   0  0  0  0  0  0  0  0  0  0  0  0
    4.0990    1.9250   22.3370 C   0  0  2  0  0  0  0  0  0  0  0  0
   12.5640   -2.2790   22.5070 C   0  0  0  0  0  0  0  0  0  0  0  0
    4.4150    1.4070   19.9540 C   0  0  0  0  0  0  0  0  0  0  0  0
    6.2490   -0.0250   19.1320 C   0  0  0  0  0  0  0  0  0  0  0  0
   10.9690    1.6340   23.9610 C   0  0  0  0  0  0  0  0  0  0  0  0
   12.6430    0.1960   22.9710 C   0  0  0  0  0  0  0  0  0  0  0  0
    9.9700   -5.4380   25.4870 C   0  0  0  0  0  0  0  0  0  0  0  0
    8.0690   -3.6800   26.2210 S   0  0  0  0  0  0  0  0  0  0  0  0
    3.3150    2.5060   23.4110 N   0  0  0  0  0  0  0  0  0  0  0  0
    3.4470    1.9040   20.9670 C   0  0  0  0  0  0  0  0  0  0  0  0
    4.4840    1.9790   18.5800 C   0  0  0  0  0  0  0  0  0  0  0  0
    6.3390    0.4570   17.8980 N   0  0  0  0  0  0  0  0  0  0  0  0
   12.2160    1.4360   23.3950 C   0  0  0  0  0  0  0  0  0  0  0  0
    9.2590   -6.0270   26.4880 C   0  0  0  0  0  0  0  0  0  0  0  0
    8.2480   -5.2840   27.0020 C   0  0  0  0  0  0  0  0  0  0  0  0
    7.2450   -5.8500   28.2780 Cl  0  0  0  0  0  0  0  0  0  0  0  0
    5.3760    1.5440   17.6160 C   0  0  0  0  0  0  0  0  0  0  0  0
  1  2  1  0
  2  3  1  0
  3  4  1  0
  5  4  1  1
  5  6  1  0
  5  7  1  0
  6  7  1  6
  6  8  1  0
  8  9  1  0
  8 10  1  6
  9 11  1  0
 10 12  1  0
  9 13  1  0
 11 14  2  0
 11 15  1  0
 12 16  1  0
 13 17  1  1
 12 18  1  0
 13 18  1  0
 19 17  1  1
 16 20  1  6
 16 21  1  0
 19 22  1  0
 19 23  1  0
 21 24  2  0
 21 25  1  0
 20 26  1  0
 22 27  1  0
 25 28  1  0
 23 29  2  0
 23 30  1  0
 24 31  1  0
 25 32  2  0
 26 33  2  0
 26 34  1  0
 27 35  1  1
 27 36  1  0
 29 36  1  0
 29 37  1  0
 30 38  2  0
 31 39  2  0
 32 39  1  0
 33 40  1  0
 34 41  1  0
 40 41  2  0
 41 42  1  0
 37 43  2  0
 38 43  1  0
M  END
