x0831_0-x1412_1-x1386_1-x1375_1-x0397_0-x0831_1-x1418_1-x0770_1-x0434_2
     RDKit          3D

 31 34  0  0  0  0  0  0  0  0999 V2000
    3.1270   -8.1640   24.1590 O   0  0  0  0  0  0  0  0  0  0  0  0
    3.4550   -6.8900   24.6650 C   0  0  0  0  0  0  0  0  0  0  0  0
    4.8120   -6.8930   25.0590 O   0  0  0  0  0  0  0  0  0  0  0  0
    5.5720   -5.8040   24.5280 C   0  0  0  0  0  0  0  0  0  0  0  0
    5.3280   -5.6930   23.0670 C   0  0  1  0  0  0  0  0  0  0  0  0
    5.8320   -4.7500   22.1490 C   0  0  2  0  0  0  0  0  0  0  0  0
    5.9370   -6.4100   22.1270 C   0  0  0  0  0  0  0  0  0  0  0  0
    7.1510   -4.0050   22.1240 C   0  0  1  0  0  0  0  0  0  0  0  0
    6.7250   -2.8850   21.2580 N   0  0  0  0  0  0  0  0  0  0  0  0
    7.9500   -3.7480   23.4370 C   0  0  0  0  0  0  0  0  0  0  0  0
    6.4400   -3.2640   19.9240 C   0  0  0  0  0  0  0  0  0  0  0  0
    8.8330   -2.5510   23.3740 N   0  0  0  0  0  0  0  0  0  0  0  0
    7.4650   -1.6740   21.5750 C   0  0  2  0  0  0  0  0  0  0  0  0
    7.4090   -2.9660   18.7960 C   0  0  0  0  0  0  0  0  0  0  0  0
    5.4260   -3.9280   19.6440 O   0  0  0  0  0  0  0  0  0  0  0  0
   10.1620   -2.6450   23.7050 C   0  0  0  0  0  0  0  0  0  0  0  0
    7.6680   -0.7270   20.5220 N   0  0  0  0  0  0  0  0  0  0  0  0
    8.8610   -2.0260   22.0310 C   0  0  0  0  0  0  0  0  0  0  0  0
   10.7470   -1.2130   23.7070 C   0  0  0  0  0  0  0  0  0  0  0  0
    6.6930   -0.0130   19.8620 C   0  0  0  0  0  0  0  0  0  0  0  0
   10.1090   -0.1200   24.3080 C   0  0  0  0  0  0  0  0  0  0  0  0
   12.0050   -1.0860   23.0230 C   0  0  0  0  0  0  0  0  0  0  0  0
    7.0140    0.2500   18.4490 C   0  0  0  0  0  0  0  0  0  0  0  0
    5.4900    0.4750   20.3610 C   0  0  0  0  0  0  0  0  0  0  0  0
   12.6800   -2.2430   22.3740 C   0  0  0  0  0  0  0  0  0  0  0  0
   10.7390    1.2990   24.2510 C   0  0  0  0  0  0  0  0  0  0  0  0
   12.7970    0.3340   22.8920 C   0  0  0  0  0  0  0  0  0  0  0  0
    6.2320    0.9310   17.6200 N   0  0  0  0  0  0  0  0  0  0  0  0
    4.6430    1.1970   19.5190 C   0  0  0  0  0  0  0  0  0  0  0  0
   12.0950    1.5280   23.5370 C   0  0  0  0  0  0  0  0  0  0  0  0
    4.9840    1.4310   18.1980 C   0  0  0  0  0  0  0  0  0  0  0  0
  1  2  1  0
  2  3  1  0
  3  4  1  0
  5  4  1  1
  5  6  1  0
  5  7  1  0
  6  7  1  6
  6  8  1  0
  8  9  1  0
  8 10  1  1
  9 11  1  0
 10 12  1  0
  9 13  1  0
 11 14  1  0
 11 15  2  0
 12 16  1  0
 13 17  1  6
 12 18  1  0
 13 18  1  0
 16 19  1  0
 17 20  1  0
 19 21  2  0
 19 22  1  0
 20 23  2  0
 20 24  1  0
 22 25  1  0
 21 26  1  0
 22 27  2  0
 23 28  1  0
 24 29  2  0
 26 30  2  0
 27 30  1  0
 28 31  2  0
 29 31  1  0
M  END
