x0831_0-x0769_0-x0689_0
     RDKit          3D

 27 29  0  0  0  0  0  0  0  0999 V2000
    6.2670   -4.4780   20.5150 C   0  0  0  0  0  0  0  0  0  0  0  0
    7.0480   -3.3990   19.7690 C   0  0  0  0  0  0  0  0  0  0  0  0
    5.3200   -5.0300   19.9980 O   0  0  0  0  0  0  0  0  0  0  0  0
    6.6490   -4.8590   21.7990 N   0  0  0  0  0  0  0  0  0  0  0  0
    6.2210   -6.1750   22.3110 C   0  0  0  0  0  0  0  0  0  0  0  0
    6.8400   -3.7870   22.8180 C   0  0  2  0  0  0  0  0  0  0  0  0
    8.1790   -3.6170   23.5340 C   0  0  0  0  0  0  0  0  0  0  0  0
    5.1010   -6.1070   23.3720 C   0  0  0  0  0  0  0  0  0  0  0  0
    5.6980   -3.7920   23.8400 C   0  0  0  0  0  0  0  0  0  0  0  0
    9.1000   -2.6220   22.8180 C   0  0  0  0  0  0  0  0  0  0  0  0
    5.5130   -5.1500   24.4300 N   0  0  0  0  0  0  0  0  0  0  0  0
    4.6000   -5.1840   25.8540 S   0  0  0  0  0  0  0  0  0  0  0  0
   10.4360   -2.5390   23.5370 C   0  0  0  0  0  0  0  0  0  0  0  0
    3.8900   -6.4400   25.9230 O   0  0  0  0  0  0  0  0  0  0  0  0
    5.4770   -4.7620   26.9260 O   0  0  0  0  0  0  0  0  0  0  0  0
    3.3520   -3.9310   25.7400 C   0  0  0  0  0  0  0  0  0  0  0  0
   10.9760   -1.1410   23.5540 C   0  0  0  0  0  0  0  0  0  0  0  0
    3.8450   -2.3210   26.0520 S   0  0  0  0  0  0  0  0  0  0  0  0
    2.0110   -3.9980   25.4400 C   0  0  0  0  0  0  0  0  0  0  0  0
   10.2690   -0.1530   24.1900 C   0  0  0  0  0  0  0  0  0  0  0  0
   12.1940   -0.8620   22.9150 C   0  0  0  0  0  0  0  0  0  0  0  0
   12.9540   -1.9450   22.2110 C   0  0  0  0  0  0  0  0  0  0  0  0
    2.2690   -1.6940   25.7970 C   0  0  0  0  0  0  0  0  0  0  0  0
    1.3800   -2.6490   25.4830 C   0  0  0  0  0  0  0  0  0  0  0  0
   10.7880    1.2760   24.2120 C   0  0  0  0  0  0  0  0  0  0  0  0
   12.7360    0.4260   22.9040 C   0  0  0  0  0  0  0  0  0  0  0  0
   12.1220    1.5170   23.5020 C   0  0  0  0  0  0  0  0  0  0  0  0
  1  2  1  0
  1  3  2  0
  1  4  1  0
  4  5  1  0
  4  6  1  0
  6  7  1  1
  5  8  1  0
  6  9  1  0
  7 10  1  0
  8 11  1  0
  9 11  1  0
 11 12  1  0
 10 13  1  0
 12 14  2  0
 12 15  2  0
 12 16  1  0
 13 17  1  0
 16 18  1  0
 16 19  2  0
 17 20  2  0
 17 21  1  0
 21 22  1  0
 18 23  1  0
 19 24  1  0
 23 24  2  0
 20 25  1  0
 21 26  2  0
 25 27  2  0
 26 27  1  0
M  END
