x0831_0-x1418_1-x0831_1-x0770_1-x0397_0
     RDKit          3D

 20 22  0  0  0  0  0  0  0  0999 V2000
    6.3820   -3.2970   19.8640 C   0  0  0  0  0  0  0  0  0  0  0  0
    7.3550   -2.9840   18.7400 C   0  0  0  0  0  0  0  0  0  0  0  0
    5.4010   -4.0450   19.6990 O   0  0  0  0  0  0  0  0  0  0  0  0
    6.6820   -2.7350   21.1100 N   0  0  0  0  0  0  0  0  0  0  0  0
    7.0490   -3.7180   22.1580 C   0  0  1  0  0  0  0  0  0  0  0  0
    7.4670   -1.4910   21.0990 C   0  0  0  0  0  0  0  0  0  0  0  0
    7.6650   -3.1350   23.2830 C   0  0  0  0  0  0  0  0  0  0  0  0
    8.7360   -1.6410   21.6390 C   0  0  0  0  0  0  0  0  0  0  0  0
    5.9850   -4.5160   22.5280 C   0  0  0  0  0  0  0  0  0  0  0  0
    8.7380   -2.1650   22.9950 N   0  0  0  0  0  0  0  0  0  0  0  0
    6.5430   -5.5350   23.1150 C   0  0  0  0  0  0  0  0  0  0  0  0
    5.9230   -6.1650   22.1820 C   0  0  0  0  0  0  0  0  0  0  0  0
   10.0900   -2.4120   23.5030 C   0  0  0  0  0  0  0  0  0  0  0  0
   10.8650   -1.0850   23.4980 C   0  0  0  0  0  0  0  0  0  0  0  0
   10.3140    0.0310   24.1210 C   0  0  0  0  0  0  0  0  0  0  0  0
   12.1280   -0.9380   22.8670 C   0  0  0  0  0  0  0  0  0  0  0  0
   12.7970   -2.0690   22.1620 C   0  0  0  0  0  0  0  0  0  0  0  0
   10.9350    1.2580   24.1400 C   0  0  0  0  0  0  0  0  0  0  0  0
   12.7910    0.4300   22.9180 C   0  0  0  0  0  0  0  0  0  0  0  0
   12.1450    1.4800   23.5580 C   0  0  0  0  0  0  0  0  0  0  0  0
  1  2  1  0
  1  3  2  0
  1  4  1  0
  4  5  1  0
  4  6  1  0
  5  7  1  0
  6  8  1  0
  5  9  1  1
  7 10  1  0
  8 10  1  0
  9 11  1  0
  9 12  1  0
 11 12  1  0
 10 13  1  0
 13 14  1  0
 14 15  2  0
 14 16  1  0
 16 17  1  0
 15 18  1  0
 16 19  2  0
 18 20  2  0
 19 20  1  0
M  END
