x0831_0-x1493_0-x0434_2
     RDKit          3D

 31 33  0  0  0  0  0  0  0  0999 V2000
    5.0010   -6.0490   26.1630 C   0  0  0  0  0  0  0  0  0  0  0  0
    6.2670   -5.4740   25.5360 C   0  0  0  0  0  0  0  0  0  0  0  0
    7.2910   -5.3370   26.1840 O   0  0  0  0  0  0  0  0  0  0  0  0
    6.0970   -5.1640   24.1220 N   0  0  0  0  0  0  0  0  0  0  0  0
    6.8580   -4.0810   23.4620 C   0  0  1  0  0  0  0  0  0  0  0  0
    5.8070   -6.2320   23.1440 C   0  0  0  0  0  0  0  0  0  0  0  0
    8.0050   -3.3450   24.1840 C   0  0  0  0  0  0  0  0  0  0  0  0
    7.5990   -4.7210   22.3070 C   0  0  0  0  0  0  0  0  0  0  0  0
    5.5970   -5.8640   21.8600 C   0  0  0  0  0  0  0  0  0  0  0  0
    8.7000   -2.5600   23.2440 C   0  0  2  0  0  0  0  0  0  0  0  0
    6.6330   -5.1520   21.3380 N   0  0  0  0  0  0  0  0  0  0  0  0
    6.2930   -4.3180   20.2780 C   0  0  0  0  0  0  0  0  0  0  0  0
   10.2400   -2.5950   23.4280 C   0  0  0  0  0  0  0  0  0  0  0  0
    8.2920   -1.2430   23.0950 C   0  0  0  0  0  0  0  0  0  0  0  0
    5.1720   -4.3760   19.8120 O   0  0  0  0  0  0  0  0  0  0  0  0
    7.2900   -3.3390   19.6590 C   0  0  0  0  0  0  0  0  0  0  0  0
    8.2080   -0.8240   21.7200 C   0  0  0  0  0  0  0  0  0  0  0  0
   10.9190   -1.2000   23.4520 C   0  0  0  0  0  0  0  0  0  0  0  0
    6.8600   -0.9510   21.1370 N   0  0  0  0  0  0  0  0  0  0  0  0
   10.1890   -0.0690   24.2060 C   0  0  0  0  0  0  0  0  0  0  0  0
   12.1350   -0.9590   22.8130 C   0  0  0  0  0  0  0  0  0  0  0  0
   12.8760   -2.0130   22.0690 C   0  0  0  0  0  0  0  0  0  0  0  0
   10.7930    1.3030   24.2300 C   0  0  0  0  0  0  0  0  0  0  0  0
   12.7240    0.4040   22.8630 C   0  0  0  0  0  0  0  0  0  0  0  0
    6.3750   -0.1920   20.0710 C   0  0  0  0  0  0  0  0  0  0  0  0
   12.0360    1.5370   23.5710 C   0  0  0  0  0  0  0  0  0  0  0  0
    6.9300   -0.1210   18.8030 C   0  0  0  0  0  0  0  0  0  0  0  0
    5.2170    0.5750   20.2600 C   0  0  0  0  0  0  0  0  0  0  0  0
    6.4570    0.6130   17.7640 N   0  0  0  0  0  0  0  0  0  0  0  0
    4.7010    1.3440   19.2060 C   0  0  0  0  0  0  0  0  0  0  0  0
    5.3460    1.3350   17.9840 C   0  0  0  0  0  0  0  0  0  0  0  0
  1  2  1  0
  2  3  2  0
  2  4  1  0
  4  5  1  0
  4  6  1  0
  5  7  1  1
  5  8  1  0
  6  9  1  0
 10  7  1  1
  8 11  1  0
  9 11  1  0
 11 12  1  0
 10 13  1  0
 10 14  1  0
 12 15  2  0
 12 16  1  0
 14 17  1  0
 13 18  1  0
 17 19  1  0
 18 20  2  0
 18 21  1  0
 21 22  1  0
 20 23  1  0
 21 24  2  0
 19 25  1  0
 23 26  2  0
 24 26  1  0
 25 27  2  0
 25 28  1  0
 27 29  1  0
 28 30  2  0
 29 31  2  0
 30 31  1  0
M  END
