x0831_0-x1412_1-x0769_1
     RDKit          3D

 29 31  0  0  0  0  0  0  0  0999 V2000
    6.3210   -3.3900   19.9550 C   0  0  0  0  0  0  0  0  0  0  0  0
    7.2990   -3.0430   18.8520 C   0  0  0  0  0  0  0  0  0  0  0  0
    5.3760   -4.1620   19.7610 O   0  0  0  0  0  0  0  0  0  0  0  0
    6.5100   -2.8500   21.2330 N   0  0  0  0  0  0  0  0  0  0  0  0
    7.0900   -1.5580   21.5980 C   0  0  0  0  0  0  0  0  0  0  0  0
    6.6450   -3.8450   22.2890 C   0  0  0  0  0  0  0  0  0  0  0  0
    8.3300   -1.6570   22.1920 C   0  0  0  0  0  0  0  0  0  0  0  0
    8.0270   -3.9100   22.8620 C   0  0  0  0  0  0  0  0  0  0  0  0
    8.4560   -2.4770   23.3050 C   0  0  0  0  0  0  0  0  0  0  0  0
    7.5260   -1.9310   24.4550 C   0  0  0  0  0  0  0  0  0  0  0  0
    9.9820   -2.4910   23.6200 C   0  0  0  0  0  0  0  0  0  0  0  0
    6.2950   -2.8430   24.8160 C   0  0  0  0  0  0  0  0  0  0  0  0
   10.7330   -1.1570   23.5940 C   0  0  0  0  0  0  0  0  0  0  0  0
    5.7090   -2.5040   26.0900 O   0  0  0  0  0  0  0  0  0  0  0  0
   10.1600   -0.0660   24.2110 C   0  0  0  0  0  0  0  0  0  0  0  0
   11.9890   -1.0170   22.9440 C   0  0  0  0  0  0  0  0  0  0  0  0
   12.6780   -2.1460   22.2450 C   0  0  0  0  0  0  0  0  0  0  0  0
    4.3420   -2.6520   26.0400 C   0  0  0  0  0  0  0  0  0  0  0  0
   10.8410    1.2710   24.1930 C   0  0  0  0  0  0  0  0  0  0  0  0
   12.7210    0.3290   22.9150 C   0  0  0  0  0  0  0  0  0  0  0  0
    3.7300   -3.9400   26.1390 C   0  0  0  0  0  0  0  0  0  0  0  0
    3.5940   -1.4710   25.8860 C   0  0  0  0  0  0  0  0  0  0  0  0
   12.0190    1.4460   23.5940 C   0  0  0  0  0  0  0  0  0  0  0  0
    4.6180   -5.3830   26.3450 S   0  0  0  0  0  0  0  0  0  0  0  0
    2.2060   -4.0350   26.0640 C   0  0  0  0  0  0  0  0  0  0  0  0
    2.2410   -1.4460   25.8150 C   0  0  0  0  0  0  0  0  0  0  0  0
    6.0080   -5.0210   26.4110 O   0  0  0  0  0  0  0  0  0  0  0  0
    4.1390   -6.3070   25.3450 O   0  0  0  0  0  0  0  0  0  0  0  0
    1.4310   -2.7410   25.8950 C   0  0  0  0  0  0  0  0  0  0  0  0
  1  2  1  0
  1  3  2  0
  1  4  1  0
  4  5  1  0
  4  6  1  0
  5  7  1  0
  6  8  1  0
  7  9  1  0
  8  9  1  0
  9 10  1  0
  9 11  1  0
 10 12  1  0
 11 13  1  0
 12 14  1  0
 13 15  2  0
 13 16  1  0
 16 17  1  0
 14 18  1  0
 15 19  1  0
 16 20  2  0
 18 21  2  0
 18 22  1  0
 19 23  2  0
 20 23  1  0
 21 24  1  0
 21 25  1  0
 22 26  2  0
 24 27  2  0
 24 28  2  0
 25 29  2  0
 26 29  1  0
M  END
