x0831_0-x1418_1-x1385_1-x1386_1-x0692_1
     RDKit          3D

 17 18  0  0  0  0  0  0  0  0999 V2000
    6.4440   -3.2590   19.8760 C   0  0  0  0  0  0  0  0  0  0  0  0
    7.3750   -2.9950   18.7130 C   0  0  0  0  0  0  0  0  0  0  0  0
    5.5240   -4.0890   19.7460 O   0  0  0  0  0  0  0  0  0  0  0  0
    6.6920   -2.5560   21.0590 N   0  0  0  0  0  0  0  0  0  0  0  0
    6.5740   -3.2440   22.3420 C   0  0  0  0  0  0  0  0  0  0  0  0
    7.5710   -1.3800   21.1720 C   0  0  0  0  0  0  0  0  0  0  0  0
    7.9300   -3.5030   22.9780 C   0  0  0  0  0  0  0  0  0  0  0  0
    8.8450   -1.7310   21.6540 C   0  0  0  0  0  0  0  0  0  0  0  0
    8.7800   -2.2960   22.9950 N   0  0  0  0  0  0  0  0  0  0  0  0
   10.0240   -2.5520   23.5200 C   0  0  0  0  0  0  0  0  0  0  0  0
   10.7680   -1.1980   23.5140 C   0  0  0  0  0  0  0  0  0  0  0  0
   10.0980   -0.0160   24.2290 C   0  0  0  0  0  0  0  0  0  0  0  0
   12.1320   -0.9270   22.8440 C   0  0  0  0  0  0  0  0  0  0  0  0
   12.8770   -1.9940   22.1090 C   0  0  0  0  0  0  0  0  0  0  0  0
   10.7400    1.2450   24.2350 C   0  0  0  0  0  0  0  0  0  0  0  0
   12.7090    0.3400   22.8990 C   0  0  0  0  0  0  0  0  0  0  0  0
   12.0940    1.4320   23.5460 C   0  0  0  0  0  0  0  0  0  0  0  0
  1  2  1  0
  1  3  2  0
  1  4  1  0
  4  5  1  0
  4  6  1  0
  5  7  1  0
  6  8  1  0
  7  9  1  0
  8  9  1  0
  9 10  1  0
 10 11  1  0
 11 12  2  0
 11 13  1  0
 13 14  1  0
 12 15  1  0
 13 16  2  0
 15 17  2  0
 16 17  1  0
M  END
