x0831_0-x0831_1-x0692_0-x0981_1
     RDKit          3D

 32 33  0  0  0  0  0  0  0  0999 V2000
    4.2470   -5.2770   23.3790 C   0  0  0  0  0  0  0  0  0  0  0  0
    2.8930   -5.9960   23.5590 C   0  0  1  0  0  0  0  0  0  0  0  0
    2.6290   -7.1780   22.7310 N   0  0  0  0  0  0  0  0  0  0  0  0
    4.4730   -4.0720   23.8410 N   0  0  0  0  0  0  0  0  0  0  0  0
    2.6690   -6.2660   25.0470 C   0  0  0  0  0  0  0  0  0  0  0  0
    5.7120   -3.2610   23.7780 C   0  0  0  0  0  0  0  0  0  0  0  0
    1.3920   -7.4120   22.1500 C   0  0  0  0  0  0  0  0  0  0  0  0
    3.0890   -7.6840   25.2780 C   0  0  0  0  0  0  0  0  0  0  0  0
    6.6220   -3.4710   22.5100 C   0  0  1  0  0  0  0  0  0  0  0  0
    1.2490   -8.7070   21.3780 C   0  0  0  0  0  0  0  0  0  0  0  0
    0.4650   -6.6120   22.2310 O   0  0  0  0  0  0  0  0  0  0  0  0
    2.4720   -8.3800   26.2780 N   0  0  0  0  0  0  0  0  0  0  0  0
    3.9620   -8.1750   24.5880 O   0  0  0  0  0  0  0  0  0  0  0  0
    6.1130   -2.7870   21.2830 N   0  0  0  0  0  0  0  0  0  0  0  0
    7.9860   -3.3010   22.7000 C   0  0  0  0  0  0  0  0  0  0  0  0
    6.1270   -3.4210   20.0400 C   0  0  0  0  0  0  0  0  0  0  0  0
    8.6170   -1.9870   22.7890 N   0  0  0  0  0  0  0  0  0  0  0  0
    5.9980   -1.3290   21.1850 C   0  0  0  0  0  0  0  0  0  0  0  0
    5.3430   -4.3530   19.8240 O   0  0  0  0  0  0  0  0  0  0  0  0
    7.1070   -3.0110   18.9250 C   0  0  0  0  0  0  0  0  0  0  0  0
   10.0460   -2.1970   23.0410 C   0  0  2  0  0  0  0  0  0  0  0  0
    8.5380   -1.1860   21.5530 C   0  0  0  0  0  0  0  0  0  0  0  0
    7.1580   -0.5430   21.2100 C   0  0  0  0  0  0  0  0  0  0  0  0
   10.1800   -2.9190   24.3090 C   0  0  0  0  0  0  0  0  0  0  0  0
   10.8520   -0.9530   23.1410 C   0  0  0  0  0  0  0  0  0  0  0  0
   10.1660    0.1860   23.6360 C   0  0  0  0  0  0  0  0  0  0  0  0
   12.2020   -0.8960   22.7720 C   0  0  0  0  0  0  0  0  0  0  0  0
   12.9400   -2.0560   22.2440 C   0  0  0  0  0  0  0  0  0  0  0  0
   10.8960    1.3500   23.7240 C   0  0  0  0  0  0  0  0  0  0  0  0
   12.8800    0.3020   22.8990 C   0  0  0  0  0  0  0  0  0  0  0  0
   10.1830    2.5500   24.2100 C   0  0  0  0  0  0  0  0  0  0  0  0
   12.2390    1.4290   23.3690 C   0  0  0  0  0  0  0  0  0  0  0  0
  2  1  1  1
  2  3  1  0
  1  4  2  3
  2  5  1  0
  4  6  1  0
  3  7  1  0
  5  8  1  0
  9  6  1  1
  7 10  1  0
  7 11  2  0
  8 12  1  0
  8 13  2  0
  9 14  1  0
  9 15  1  0
 14 16  1  0
 15 17  1  0
 14 18  1  0
 16 19  2  0
 16 20  1  0
 17 21  1  0
 17 22  1  0
 18 23  1  0
 22 23  1  0
 21 24  1  1
 21 25  1  0
 25 26  2  0
 25 27  1  0
 27 28  1  0
 26 29  1  0
 27 30  2  0
 29 31  1  0
 29 32  2  0
 30 32  1  0
M  END
