x0831_0-x1385_1-x0734_0-x1386_1-x0692_1
     RDKit          3D

 28 31  0  0  0  0  0  0  0  0999 V2000
    6.3720   -3.1450   19.8300 C   0  0  0  0  0  0  0  0  0  0  0  0
    7.3150   -2.9500   18.6740 C   0  0  0  0  0  0  0  0  0  0  0  0
    5.4990   -4.0310   19.7240 O   0  0  0  0  0  0  0  0  0  0  0  0
    6.5420   -2.3370   20.9610 N   0  0  0  0  0  0  0  0  0  0  0  0
    6.2840   -2.9290   22.2660 C   0  0  0  0  0  0  0  0  0  0  0  0
    7.6400   -1.3700   20.9870 C   0  0  0  0  0  0  0  0  0  0  0  0
    7.5360   -3.5630   22.8600 C   0  0  2  0  0  0  0  0  0  0  0  0
    8.7070   -1.7290   21.7940 C   0  0  0  0  0  0  0  0  0  0  0  0
    6.9430   -4.5220   23.9350 C   0  0  2  0  0  0  0  0  0  0  0  0
    8.4040   -2.3480   23.1070 N   0  0  0  0  0  0  0  0  0  0  0  0
    5.5270   -4.1460   24.3740 C   0  0  0  0  0  0  0  0  0  0  0  0
    9.7490   -2.4690   23.7260 C   0  0  0  0  0  0  0  0  0  0  0  0
    7.5880   -4.8710   25.2100 C   0  0  0  0  0  0  0  0  0  0  0  0
    5.2640   -4.7070   25.7970 C   0  0  2  0  0  0  0  0  0  0  0  0
    8.9260   -5.0700   25.3780 C   0  0  0  0  0  0  0  0  0  0  0  0
    6.6790   -5.0120   26.2950 C   0  0  0  0  0  0  0  0  0  0  0  0
   10.5690   -1.1650   23.6570 C   0  0  0  0  0  0  0  0  0  0  0  0
    4.4180   -5.8490   25.7410 O   0  0  0  0  0  0  0  0  0  0  0  0
    4.6110   -3.8910   26.5950 O   0  0  0  0  0  0  0  0  0  0  0  0
    9.3460   -5.4320   26.6190 C   0  0  0  0  0  0  0  0  0  0  0  0
    7.1510   -5.3790   27.5730 C   0  0  0  0  0  0  0  0  0  0  0  0
   10.0860   -0.0480   24.3060 C   0  0  0  0  0  0  0  0  0  0  0  0
   11.8080   -1.0360   22.9560 C   0  0  0  0  0  0  0  0  0  0  0  0
   12.4420   -2.1610   22.2090 C   0  0  0  0  0  0  0  0  0  0  0  0
    8.5210   -5.5850   27.6770 C   0  0  0  0  0  0  0  0  0  0  0  0
   10.8000    1.1360   24.2530 C   0  0  0  0  0  0  0  0  0  0  0  0
   12.5110    0.1700   22.9270 C   0  0  0  0  0  0  0  0  0  0  0  0
   11.9890    1.2770   23.5910 C   0  0  0  0  0  0  0  0  0  0  0  0
  1  2  1  0
  1  3  2  0
  1  4  1  0
  4  5  1  0
  4  6  1  0
  7  5  1  1
  6  8  1  0
  7  9  1  0
  7 10  1  0
  8 10  1  0
  9 11  1  1
 10 12  1  0
  9 13  1  0
 11 14  1  0
 13 15  2  0
 13 16  1  0
 14 16  1  0
 12 17  1  0
 14 18  1  6
 14 19  1  0
 15 20  1  0
 16 21  2  0
 17 22  2  0
 17 23  1  0
 23 24  1  0
 20 25  2  0
 21 25  1  0
 22 26  1  0
 23 27  2  0
 26 28  2  0
 27 28  1  0
M  CHG  1  19  -1
M  END
