x0831_0-x0692_1-x0434_2-x1412_1-x0831_1-x1334_1-x1334_0-x0397_0-x0770_1
     RDKit          3D

 34 38  0  0  0  0  0  0  0  0999 V2000
    6.3200   -3.2540   19.7650 C   0  0  0  0  0  0  0  0  0  0  0  0
    7.3250   -3.0340   18.6470 C   0  0  0  0  0  0  0  0  0  0  0  0
    5.3950   -4.0740   19.6930 O   0  0  0  0  0  0  0  0  0  0  0  0
    6.5670   -2.4700   20.8890 N   0  0  0  0  0  0  0  0  0  0  0  0
    7.7290   -1.5630   20.7670 C   0  0  2  0  0  0  0  0  0  0  0  0
    6.3580   -3.1760   22.1840 C   0  0  2  0  0  0  0  0  0  0  0  0
    8.8960   -1.9050   21.6480 C   0  0  0  0  0  0  0  0  0  0  0  0
    7.3720   -2.8140   23.3140 C   0  0  0  0  0  0  0  0  0  0  0  0
    6.5770   -4.6700   21.9640 C   0  0  0  0  0  0  0  0  0  0  0  0
    7.3940   -0.0890   20.6850 C   0  0  0  0  0  0  0  0  0  0  0  0
    8.4440   -1.8710   22.9990 N   0  0  0  0  0  0  0  0  0  0  0  0
    6.4000   -5.6410   22.9720 C   0  0  0  0  0  0  0  0  0  0  0  0
    5.4910   -5.9190   22.1310 C   0  0  0  0  0  0  0  0  0  0  0  0
    7.0430    0.3160   19.2810 C   0  0  0  0  0  0  0  0  0  0  0  0
    9.5280   -1.9040   23.9190 C   0  0  1  0  0  0  0  0  0  0  0  0
    6.0420    0.4940   20.2860 C   0  0  0  0  0  0  0  0  0  0  0  0
    6.4460    0.7750   18.0980 N   0  0  0  0  0  0  0  0  0  0  0  0
   10.1560   -3.2330   24.0210 C   0  0  0  0  0  0  0  0  0  0  0  0
   10.5500   -0.7820   23.6830 C   0  0  0  0  0  0  0  0  0  0  0  0
    5.2100    1.3090   17.8600 C   0  0  0  0  0  0  0  0  0  0  0  0
    4.7680    1.0020   20.1780 C   0  0  0  0  0  0  0  0  0  0  0  0
   10.2260    0.6460   24.1080 C   0  0  0  0  0  0  0  0  0  0  0  0
   11.7780   -0.9640   23.0940 C   0  0  0  0  0  0  0  0  0  0  0  0
    9.5260   -4.1110   25.1140 C   0  0  0  0  0  0  0  0  0  0  0  0
    4.2830    1.4690   18.8280 C   0  0  0  0  0  0  0  0  0  0  0  0
   12.2860   -2.2850   22.5910 C   0  0  0  0  0  0  0  0  0  0  0  0
   11.0540    1.7510   23.9540 C   0  0  0  0  0  0  0  0  0  0  0  0
   12.6720    0.1050   22.9090 C   0  0  0  0  0  0  0  0  0  0  0  0
   10.0100   -5.4990   25.4780 C   0  0  0  0  0  0  0  0  0  0  0  0
    8.1700   -3.7110   26.1310 S   0  0  0  0  0  0  0  0  0  0  0  0
   12.2710    1.5040   23.3630 C   0  0  0  0  0  0  0  0  0  0  0  0
    9.2070   -5.9790   26.5180 C   0  0  0  0  0  0  0  0  0  0  0  0
    8.2100   -5.1810   26.9830 C   0  0  0  0  0  0  0  0  0  0  0  0
    7.1070   -5.5440   28.2480 Cl  0  0  0  0  0  0  0  0  0  0  0  0
  1  2  1  0
  1  3  2  0
  1  4  1  0
  4  5  1  0
  4  6  1  0
  5  7  1  0
  6  8  1  0
  6  9  1  6
  5 10  1  1
  7 11  1  0
  8 11  1  0
  9 12  1  0
  9 13  1  0
 12 13  1  0
 10 14  1  0
 11 15  1  0
 14 16  2  0
 14 17  1  0
 15 18  1  6
 15 19  1  0
 17 20  2  0
 16 21  1  0
 19 22  2  0
 19 23  1  0
 18 24  1  0
 20 25  1  0
 21 25  2  0
 23 26  1  0
 22 27  1  0
 23 28  2  0
 24 29  2  0
 24 30  1  0
 27 31  2  0
 28 31  1  0
 29 32  1  0
 30 33  1  0
 32 33  2  0
 33 34  1  0
M  END
