x0831_0-x1418_1-x0831_1-x0769_1
     RDKit          3D

 29 31  0  0  0  0  0  0  0  0999 V2000
    6.3770   -3.2160   19.8240 C   0  0  0  0  0  0  0  0  0  0  0  0
    7.3630   -2.9860   18.7160 C   0  0  0  0  0  0  0  0  0  0  0  0
    5.3860   -3.9340   19.6280 O   0  0  0  0  0  0  0  0  0  0  0  0
    6.6640   -2.6600   21.0580 N   0  0  0  0  0  0  0  0  0  0  0  0
    6.7420   -3.5170   22.2310 C   0  0  0  0  0  0  0  0  0  0  0  0
    7.3640   -1.3360   21.0850 C   0  0  0  0  0  0  0  0  0  0  0  0
    7.8550   -3.1900   23.2580 C   0  0  2  0  0  0  0  0  0  0  0  0
    8.6950   -1.2770   21.8900 C   0  0  0  0  0  0  0  0  0  0  0  0
    7.2940   -2.3200   24.3420 C   0  0  0  0  0  0  0  0  0  0  0  0
    9.0300   -2.5360   22.6160 N   0  0  0  0  0  0  0  0  0  0  0  0
    6.1990   -3.1080   25.1000 C   0  0  0  0  0  0  0  0  0  0  0  0
   10.1340   -2.4020   23.5720 C   0  0  0  0  0  0  0  0  0  0  0  0
    5.5740   -2.2980   26.0910 O   0  0  0  0  0  0  0  0  0  0  0  0
   10.8540   -1.0740   23.5420 C   0  0  0  0  0  0  0  0  0  0  0  0
    4.2330   -2.5290   26.0290 C   0  0  0  0  0  0  0  0  0  0  0  0
   10.2860   -0.0230   24.1550 C   0  0  0  0  0  0  0  0  0  0  0  0
   12.0980   -0.9180   22.8900 C   0  0  0  0  0  0  0  0  0  0  0  0
   12.7870   -2.0500   22.1780 C   0  0  0  0  0  0  0  0  0  0  0  0
    3.6860   -3.8300   25.9280 C   0  0  0  0  0  0  0  0  0  0  0  0
    3.3760   -1.4250   26.0660 C   0  0  0  0  0  0  0  0  0  0  0  0
   10.8910    1.2120   24.1550 C   0  0  0  0  0  0  0  0  0  0  0  0
   12.7200    0.3290   22.8950 C   0  0  0  0  0  0  0  0  0  0  0  0
    4.7180   -5.2030   25.8880 S   0  0  0  0  0  0  0  0  0  0  0  0
    2.2700   -4.0370   25.8580 C   0  0  0  0  0  0  0  0  0  0  0  0
    2.0070   -1.6100   26.0010 C   0  0  0  0  0  0  0  0  0  0  0  0
   12.1150    1.3960   23.5250 C   0  0  0  0  0  0  0  0  0  0  0  0
    5.7220   -5.0460   26.9160 O   0  0  0  0  0  0  0  0  0  0  0  0
    3.8940   -6.3890   25.7910 O   0  0  0  0  0  0  0  0  0  0  0  0
    1.4600   -2.9170   25.8960 C   0  0  0  0  0  0  0  0  0  0  0  0
  1  2  1  0
  1  3  2  0
  1  4  1  0
  4  5  1  0
  4  6  1  0
  5  7  1  0
  6  8  1  0
  7  9  1  1
  7 10  1  0
  8 10  1  0
  9 11  1  0
 10 12  1  0
 11 13  1  0
 12 14  1  0
 13 15  1  0
 14 16  2  0
 14 17  1  0
 17 18  1  0
 15 19  2  0
 15 20  1  0
 16 21  1  0
 17 22  2  0
 19 23  1  0
 19 24  1  0
 20 25  2  0
 21 26  2  0
 22 26  1  0
 23 27  2  0
 23 28  2  0
 24 29  2  0
 25 29  1  0
M  END
