x0831_0-x1386_1-x0692_1-x0397_0
     RDKit          3D

 21 23  0  0  0  0  0  0  0  0999 V2000
    6.4210   -3.1660   19.8310 C   0  0  0  0  0  0  0  0  0  0  0  0
    7.3750   -2.9670   18.6760 C   0  0  0  0  0  0  0  0  0  0  0  0
    5.5270   -4.0430   19.7570 O   0  0  0  0  0  0  0  0  0  0  0  0
    6.6520   -2.2920   20.9280 N   0  0  0  0  0  0  0  0  0  0  0  0
    7.7140   -1.2620   20.7940 C   0  0  0  0  0  0  0  0  0  0  0  0
    6.4040   -2.6370   22.3350 C   0  0  2  0  0  0  0  0  0  0  0  0
    8.8740   -1.6190   21.5110 C   0  0  0  0  0  0  0  0  0  0  0  0
    7.5630   -3.0820   22.9850 C   0  0  0  0  0  0  0  0  0  0  0  0
    5.1460   -3.4190   22.6220 C   0  0  0  0  0  0  0  0  0  0  0  0
    8.6300   -2.0840   22.8760 N   0  0  0  0  0  0  0  0  0  0  0  0
    5.2010   -4.9160   22.5610 C   0  0  0  0  0  0  0  0  0  0  0  0
    9.8020   -2.1660   23.7510 C   0  0  0  0  0  0  0  0  0  0  0  0
    6.2900   -5.6600   23.1760 C   0  0  0  0  0  0  0  0  0  0  0  0
    6.3990   -5.7880   21.8570 C   0  0  0  0  0  0  0  0  0  0  0  0
   10.6170   -0.9750   23.6690 C   0  0  0  0  0  0  0  0  0  0  0  0
   10.2340    0.2350   24.1990 C   0  0  0  0  0  0  0  0  0  0  0  0
   11.9920   -0.9830   22.9510 C   0  0  0  0  0  0  0  0  0  0  0  0
   12.5670   -2.2150   22.3090 C   0  0  0  0  0  0  0  0  0  0  0  0
   10.9550    1.3790   24.1250 C   0  0  0  0  0  0  0  0  0  0  0  0
   12.8050    0.1850   22.8450 C   0  0  0  0  0  0  0  0  0  0  0  0
   12.3350    1.5260   23.4420 C   0  0  0  0  0  0  0  0  0  0  0  0
  1  2  1  0
  1  3  2  0
  1  4  1  0
  4  5  1  0
  4  6  1  0
  5  7  1  0
  6  8  1  0
  6  9  1  6
  7 10  1  0
  8 10  1  0
  9 11  1  0
 10 12  1  0
 11 13  1  0
 11 14  1  0
 13 14  1  0
 12 15  1  0
 15 16  2  0
 15 17  1  0
 17 18  1  0
 16 19  1  0
 17 20  2  0
 19 21  2  0
 20 21  1  0
M  END
