x0831_0-x1334_1-x0981_1-x0691_1-x1418_0
     RDKit          3D

 39 42  0  0  0  0  0  0  0  0999 V2000
    4.2010   -5.5340   23.1600 C   0  0  0  0  0  0  0  0  0  0  0  0
    2.7580   -6.1060   23.2810 C   0  0  1  0  0  0  0  0  0  0  0  0
    2.5540   -7.3770   22.6150 N   0  0  0  0  0  0  0  0  0  0  0  0
    4.3410   -4.2490   23.4000 N   0  0  0  0  0  0  0  0  0  0  0  0
    2.4280   -6.2230   24.7680 C   0  0  1  0  0  0  0  0  0  0  0  0
    5.6030   -3.4520   23.4230 C   0  0  0  0  0  0  0  0  0  0  0  0
    1.3490   -7.6310   22.0240 C   0  0  0  0  0  0  0  0  0  0  0  0
    3.5680   -7.0240   25.4380 C   0  0  1  0  0  0  0  0  0  0  0  0
    2.4260   -4.7940   25.2610 C   0  0  0  0  0  0  0  0  0  0  0  0
    6.6850   -3.7510   22.3160 C   0  0  1  0  0  0  0  0  0  0  0  0
    1.2910   -8.8520   21.1550 C   0  0  0  0  0  0  0  0  0  0  0  0
    0.3740   -6.8980   22.1740 O   0  0  0  0  0  0  0  0  0  0  0  0
    3.1080   -7.5450   26.6280 N   0  0  0  0  0  0  0  0  0  0  0  0
    4.1360   -7.8480   24.7120 O   0  0  0  0  0  0  0  0  0  0  0  0
    4.8500   -5.7400   25.7610 S   0  0  0  0  0  0  0  0  0  0  0  0
    3.7290   -4.3570   25.8130 C   0  0  0  0  0  0  0  0  0  0  0  0
    1.3410   -3.7960   25.2430 C   0  0  0  0  0  0  0  0  0  0  0  0
    6.6280   -2.8240   21.1670 N   0  0  0  0  0  0  0  0  0  0  0  0
    7.9130   -3.6600   23.0070 C   0  0  0  0  0  0  0  0  0  0  0  0
    5.3630   -5.8450   27.1110 O   0  0  0  0  0  0  0  0  0  0  0  0
    6.3730   -3.3570   19.9130 C   0  0  0  0  0  0  0  0  0  0  0  0
    3.9610   -3.0590   26.2740 C   0  0  0  0  0  0  0  0  0  0  0  0
    1.6510   -2.4050   25.7640 C   0  0  0  0  0  0  0  0  0  0  0  0
    8.5260   -2.3040   23.0760 N   0  0  0  0  0  0  0  0  0  0  0  0
    7.3500   -1.5270   21.2050 C   0  0  0  0  0  0  0  0  0  0  0  0
    7.3230   -3.0160   18.7770 C   0  0  0  0  0  0  0  0  0  0  0  0
    5.4100   -4.1230   19.7350 O   0  0  0  0  0  0  0  0  0  0  0  0
    9.6700   -2.1590   23.8940 C   0  0  1  0  0  0  0  0  0  0  0  0
    2.9490   -2.0740   26.2520 C   0  0  0  0  0  0  0  0  0  0  0  0
    8.6140   -1.7560   21.7350 C   0  0  0  0  0  0  0  0  0  0  0  0
    3.1970   -0.8290   26.6900 F   0  0  0  0  0  0  0  0  0  0  0  0
   10.5200   -3.3650   23.9070 C   0  0  0  0  0  0  0  0  0  0  0  0
   10.6610   -0.9580   23.6450 C   0  0  0  0  0  0  0  0  0  0  0  0
   10.1440    0.1850   24.2350 C   0  0  0  0  0  0  0  0  0  0  0  0
   11.9080   -0.9120   22.9580 C   0  0  0  0  0  0  0  0  0  0  0  0
   12.5680   -2.0720   22.2760 C   0  0  0  0  0  0  0  0  0  0  0  0
   10.8630    1.3720   24.1420 C   0  0  0  0  0  0  0  0  0  0  0  0
   12.5660    0.2550   22.9030 C   0  0  0  0  0  0  0  0  0  0  0  0
   12.0390    1.4030   23.4970 C   0  0  0  0  0  0  0  0  0  0  0  0
  2  1  1  1
  2  3  1  0
  1  4  2  3
  2  5  1  0
  4  6  1  0
  3  7  1  0
  5  8  1  0
  5  9  1  1
 10  6  1  1
  7 11  1  0
  7 12  2  0
  8 13  1  1
  8 14  1  0
  8 15  1  0
  9 16  2  0
 15 16  1  1
  9 17  1  0
 10 18  1  0
 10 19  1  0
 15 20  2  0
 18 21  1  0
 16 22  1  0
 17 23  2  0
 19 24  1  0
 18 25  1  0
 21 26  1  0
 21 27  2  0
 24 28  1  0
 22 29  2  0
 23 29  1  0
 24 30  1  0
 25 30  1  0
 29 31  1  0
 28 32  1  6
 28 33  1  0
 33 34  2  0
 33 35  1  0
 35 36  1  0
 34 37  1  0
 35 38  2  0
 37 39  2  0
 38 39  1  0
M  END
