x0831_0-x1418_1-x0770_1-x0397_0-x0692_1
     RDKit          3D

 20 22  0  0  0  0  0  0  0  0999 V2000
    6.4080   -3.2460   19.9240 C   0  0  0  0  0  0  0  0  0  0  0  0
    7.3790   -3.0200   18.7830 C   0  0  0  0  0  0  0  0  0  0  0  0
    5.4990   -4.0780   19.7410 O   0  0  0  0  0  0  0  0  0  0  0  0
    6.6220   -2.5260   21.1000 N   0  0  0  0  0  0  0  0  0  0  0  0
    6.5470   -3.2190   22.3950 C   0  0  2  0  0  0  0  0  0  0  0  0
    7.4880   -1.3320   21.1510 C   0  0  0  0  0  0  0  0  0  0  0  0
    7.9490   -3.4340   22.9990 C   0  0  0  0  0  0  0  0  0  0  0  0
    8.7630   -1.6230   21.6480 C   0  0  0  0  0  0  0  0  0  0  0  0
    5.7490   -4.5460   22.3940 C   0  0  0  0  0  0  0  0  0  0  0  0
    8.7630   -2.2060   22.9970 N   0  0  0  0  0  0  0  0  0  0  0  0
    6.1570   -5.6530   23.0790 C   0  0  0  0  0  0  0  0  0  0  0  0
    6.1630   -5.9770   21.6620 C   0  0  0  0  0  0  0  0  0  0  0  0
   10.0740   -2.4020   23.4460 C   0  0  0  0  0  0  0  0  0  0  0  0
   10.7960   -1.0820   23.5010 C   0  0  0  0  0  0  0  0  0  0  0  0
   10.2530    0.0430   24.1460 C   0  0  0  0  0  0  0  0  0  0  0  0
   12.0580   -0.9560   22.8750 C   0  0  0  0  0  0  0  0  0  0  0  0
   12.7560   -2.0590   22.1460 C   0  0  0  0  0  0  0  0  0  0  0  0
   10.9300    1.2680   24.1680 C   0  0  0  0  0  0  0  0  0  0  0  0
   12.7010    0.2580   22.9230 C   0  0  0  0  0  0  0  0  0  0  0  0
   12.1650    1.3520   23.5430 C   0  0  0  0  0  0  0  0  0  0  0  0
  1  2  1  0
  1  3  2  0
  1  4  1  0
  4  5  1  0
  4  6  1  0
  5  7  1  0
  6  8  1  0
  5  9  1  6
  7 10  1  0
  8 10  1  0
  9 11  1  0
  9 12  1  0
 11 12  1  0
 10 13  1  0
 13 14  1  0
 14 15  2  0
 14 16  1  0
 16 17  1  0
 15 18  1  0
 16 19  2  0
 18 20  2  0
 19 20  1  0
M  END
