x0831_0-x1412_1-x1334_1-x0434_2-x1385_1-x1334_0-x0692_1-x0770_1-x0831_1-x0397_0-x1386_1-x1418_1
     RDKit          3D

 34 38  0  0  0  0  0  0  0  0999 V2000
    6.4630   -3.3660   19.8700 C   0  0  0  0  0  0  0  0  0  0  0  0
    7.4030   -3.0420   18.7120 C   0  0  0  0  0  0  0  0  0  0  0  0
    5.4660   -4.0900   19.7280 O   0  0  0  0  0  0  0  0  0  0  0  0
    6.8330   -2.8390   21.0990 N   0  0  0  0  0  0  0  0  0  0  0  0
    7.7260   -1.6510   21.0320 C   0  0  1  0  0  0  0  0  0  0  0  0
    7.1730   -3.8100   22.1540 C   0  0  1  0  0  0  0  0  0  0  0  0
    6.8970   -0.4540   21.2000 N   0  0  0  0  0  0  0  0  0  0  0  0
    8.9060   -1.7440   22.0000 C   0  0  0  0  0  0  0  0  0  0  0  0
    7.7410   -3.2960   23.3780 C   0  0  0  0  0  0  0  0  0  0  0  0
    5.9620   -4.6580   22.4250 C   0  0  0  0  0  0  0  0  0  0  0  0
    8.4280   -1.9980   23.3660 N   0  0  0  0  0  0  0  0  0  0  0  0
    5.9810   -5.6850   23.2440 C   0  0  0  0  0  0  0  0  0  0  0  0
    5.8430   -6.2570   21.9480 C   0  0  0  0  0  0  0  0  0  0  0  0
    6.2800    0.1730   20.1340 C   0  0  0  0  0  0  0  0  0  0  0  0
    9.6570   -1.9900   24.2110 C   0  0  1  0  0  0  0  0  0  0  0  0
    6.8710    0.0910   18.8710 C   0  0  0  0  0  0  0  0  0  0  0  0
    5.0950    0.8880   20.2440 C   0  0  0  0  0  0  0  0  0  0  0  0
   10.2890   -3.3300   24.1930 C   0  0  0  0  0  0  0  0  0  0  0  0
   10.6060   -0.8160   23.8960 C   0  0  0  0  0  0  0  0  0  0  0  0
    6.3910    0.6600   17.7420 N   0  0  0  0  0  0  0  0  0  0  0  0
    4.6200    1.4610   19.0730 C   0  0  0  0  0  0  0  0  0  0  0  0
   10.2650    0.4460   24.3330 C   0  0  0  0  0  0  0  0  0  0  0  0
   11.8410   -0.9450   23.1620 C   0  0  0  0  0  0  0  0  0  0  0  0
    9.6550   -4.2220   25.2190 C   0  0  0  0  0  0  0  0  0  0  0  0
    5.2500    1.3530   17.8590 C   0  0  0  0  0  0  0  0  0  0  0  0
   12.3550   -2.2440   22.6070 C   0  0  0  0  0  0  0  0  0  0  0  0
   11.1020    1.4960   24.0510 C   0  0  0  0  0  0  0  0  0  0  0  0
   12.6660    0.1620   22.9060 C   0  0  0  0  0  0  0  0  0  0  0  0
    9.9410   -5.5140   25.5010 C   0  0  0  0  0  0  0  0  0  0  0  0
    8.3750   -3.7790   26.3080 S   0  0  0  0  0  0  0  0  0  0  0  0
   12.2870    1.4200   23.3610 C   0  0  0  0  0  0  0  0  0  0  0  0
    9.2580   -6.1250   26.4780 C   0  0  0  0  0  0  0  0  0  0  0  0
    8.3290   -5.3200   27.0640 C   0  0  0  0  0  0  0  0  0  0  0  0
    7.2480   -5.6830   28.3390 Cl  0  0  0  0  0  0  0  0  0  0  0  0
  1  2  1  0
  1  3  2  0
  1  4  1  0
  4  5  1  0
  4  6  1  0
  5  7  1  1
  5  8  1  0
  6  9  1  0
  6 10  1  1
  8 11  1  0
  9 11  1  0
 10 12  1  0
 10 13  1  0
 12 13  1  0
  7 14  1  0
 11 15  1  0
 14 16  2  0
 14 17  1  0
 15 18  1  6
 15 19  1  0
 16 20  1  0
 17 21  2  0
 19 22  2  0
 19 23  1  0
 18 24  1  0
 20 25  2  0
 21 25  1  0
 23 26  1  0
 22 27  1  0
 23 28  2  0
 24 29  2  0
 24 30  1  0
 27 31  2  0
 28 31  1  0
 29 32  1  0
 30 33  1  0
 32 33  2  0
 33 34  1  0
M  END
