x0831_0-x1386_1-x1418_0-x0981_1
     RDKit          3D

 30 31  0  0  0  0  0  0  0  0999 V2000
    3.7750   -4.8190   23.5920 C   0  0  0  0  0  0  0  0  0  0  0  0
    2.6430   -5.8890   23.7270 C   0  0  1  0  0  0  0  0  0  0  0  0
    2.6540   -6.9540   22.6940 N   0  0  0  0  0  0  0  0  0  0  0  0
    4.4950   -4.1230   22.5170 N   0  0  0  0  0  0  0  0  0  0  0  0
    2.6220   -6.3600   25.1810 C   0  0  0  0  0  0  0  0  0  0  0  0
    5.4440   -3.1400   22.8890 C   0  0  0  0  0  0  0  0  0  0  0  0
    1.4520   -7.5100   22.0940 C   0  0  0  0  0  0  0  0  0  0  0  0
    3.0980   -7.7610   25.2840 C   0  0  0  0  0  0  0  0  0  0  0  0
    6.7600   -3.2850   22.1800 C   0  0  1  0  0  0  0  0  0  0  0  0
    1.2580   -8.8120   21.3160 C   0  0  0  0  0  0  0  0  0  0  0  0
    0.3170   -6.6580   22.1980 O   0  0  0  0  0  0  0  0  0  0  0  0
    2.4820   -8.5220   26.2300 N   0  0  0  0  0  0  0  0  0  0  0  0
    3.9790   -8.1990   24.5810 O   0  0  0  0  0  0  0  0  0  0  0  0
    6.7000   -2.4490   20.9720 N   0  0  0  0  0  0  0  0  0  0  0  0
    7.9700   -3.3550   22.9620 C   0  0  0  0  0  0  0  0  0  0  0  0
    6.4250   -3.1400   19.7850 C   0  0  0  0  0  0  0  0  0  0  0  0
    8.7380   -2.0780   22.9870 N   0  0  0  0  0  0  0  0  0  0  0  0
    7.6860   -1.2830   20.9010 C   0  0  0  0  0  0  0  0  0  0  0  0
    7.4260   -2.9740   18.6720 C   0  0  0  0  0  0  0  0  0  0  0  0
    5.4510   -3.8990   19.6290 O   0  0  0  0  0  0  0  0  0  0  0  0
    9.9030   -1.9790   23.8810 C   0  0  1  0  0  0  0  0  0  0  0  0
    8.9840   -1.6020   21.6390 C   0  0  0  0  0  0  0  0  0  0  0  0
   10.6700   -3.2770   23.9240 C   0  0  0  0  0  0  0  0  0  0  0  0
   10.7530   -0.8860   23.6520 C   0  0  0  0  0  0  0  0  0  0  0  0
   10.2330    0.2730   24.2000 C   0  0  0  0  0  0  0  0  0  0  0  0
   11.9970   -0.8480   22.9730 C   0  0  0  0  0  0  0  0  0  0  0  0
   12.6590   -2.0300   22.3310 C   0  0  0  0  0  0  0  0  0  0  0  0
   10.8540    1.5110   24.1310 C   0  0  0  0  0  0  0  0  0  0  0  0
   12.6530    0.3920   22.8990 C   0  0  0  0  0  0  0  0  0  0  0  0
   12.1010    1.5420   23.4590 C   0  0  0  0  0  0  0  0  0  0  0  0
  2  1  1  1
  2  3  1  0
  1  4  2  3
  2  5  1  0
  4  6  1  0
  3  7  1  0
  5  8  1  0
  9  6  1  1
  7 10  1  0
  7 11  2  0
  8 12  1  0
  8 13  2  0
  9 14  1  0
  9 15  1  0
 14 16  1  0
 15 17  1  0
 14 18  1  0
 16 19  1  0
 16 20  2  0
 17 21  1  0
 17 22  1  0
 18 22  1  0
 21 23  1  6
 21 24  1  0
 24 25  2  0
 24 26  1  0
 26 27  1  0
 25 28  1  0
 26 29  2  0
 28 30  2  0
 29 30  1  0
M  END
