x0831_0-x1386_0-x1412_1-x0978_1-x1412_0-x0434_2
     RDKit          3D

 44 47  0  0  0  0  0  0  0  0999 V2000
    4.0820   -5.2580   23.4310 C   0  0  0  0  0  0  0  0  0  0  0  0
    3.0640   -6.3820   23.3010 C   0  0  2  0  0  0  0  0  0  0  0  0
    1.7910   -5.6740   23.1920 N   0  0  0  0  0  0  0  0  0  0  0  0
    4.4100   -4.3070   22.6280 N   0  0  0  0  0  0  0  0  0  0  0  0
    3.1260   -7.2350   24.5840 C   0  0  1  0  0  0  0  0  0  0  0  0
    5.4210   -3.3530   23.0930 C   0  0  0  0  0  0  0  0  0  0  0  0
    0.7220   -6.2240   22.5240 C   0  0  0  0  0  0  0  0  0  0  0  0
    2.0890   -8.3470   24.6050 C   0  0  0  0  0  0  0  0  0  0  0  0
    4.3810   -7.8750   24.7450 O   0  0  0  0  0  0  0  0  0  0  0  0
    6.7290   -3.6680   22.3410 C   0  0  1  0  0  0  0  0  0  0  0  0
    0.7690   -7.2930   21.9300 O   0  0  0  0  0  0  0  0  0  0  0  0
   -0.5370   -5.4010   22.5710 C   0  0  0  0  0  0  0  0  0  0  0  0
    6.7800   -2.7980   21.1800 N   0  0  0  0  0  0  0  0  0  0  0  0
    7.8320   -3.5260   23.2180 C   0  0  0  0  0  0  0  0  0  0  0  0
    6.5020   -3.2730   19.8630 C   0  0  0  0  0  0  0  0  0  0  0  0
    8.5460   -2.3460   23.1420 N   0  0  0  0  0  0  0  0  0  0  0  0
    7.5400   -1.5640   21.4340 C   0  0  2  0  0  0  0  0  0  0  0  0
    7.4270   -2.9880   18.6940 C   0  0  0  0  0  0  0  0  0  0  0  0
    5.5020   -3.9920   19.6720 O   0  0  0  0  0  0  0  0  0  0  0  0
    9.7400   -2.0860   23.9690 C   0  0  1  0  0  0  0  0  0  0  0  0
    7.6280   -0.7570   20.2630 N   0  0  0  0  0  0  0  0  0  0  0  0
    8.7460   -1.9800   21.7990 C   0  0  0  0  0  0  0  0  0  0  0  0
    9.1600   -1.6140   25.2890 C   0  0  0  0  0  0  0  0  0  0  0  0
   10.3420   -3.4840   24.0910 C   0  0  0  0  0  0  0  0  0  0  0  0
   10.6990   -0.9170   23.6290 C   0  0  0  0  0  0  0  0  0  0  0  0
    6.6780   -0.0350   19.6960 C   0  0  0  0  0  0  0  0  0  0  0  0
    7.9730   -2.4750   25.7060 C   0  0  0  0  0  0  0  0  0  0  0  0
   10.2770    0.2790   24.1950 C   0  0  0  0  0  0  0  0  0  0  0  0
   12.0460   -0.8810   22.8030 C   0  0  0  0  0  0  0  0  0  0  0  0
    6.9480    0.3320   18.4030 C   0  0  0  0  0  0  0  0  0  0  0  0
    5.4670    0.3870   20.2460 C   0  0  0  0  0  0  0  0  0  0  0  0
   12.5840   -2.1120   22.1460 C   0  0  0  0  0  0  0  0  0  0  0  0
    6.8230   -2.0540   25.6150 O   0  0  0  0  0  0  0  0  0  0  0  0
   10.9790    1.4240   24.0520 C   0  0  0  0  0  0  0  0  0  0  0  0
   12.7440    0.2670   22.6780 C   0  0  0  0  0  0  0  0  0  0  0  0
    8.3440   -3.8240   26.2240 C   0  0  0  0  0  0  0  0  0  0  0  0
    6.2200    1.0510   17.5570 N   0  0  0  0  0  0  0  0  0  0  0  0
    4.6080    1.1530   19.4690 C   0  0  0  0  0  0  0  0  0  0  0  0
   12.1510    1.5310   23.3650 C   0  0  0  0  0  0  0  0  0  0  0  0
    9.0630   -4.7950   25.6090 C   0  0  0  0  0  0  0  0  0  0  0  0
    7.8160   -4.1720   27.7830 S   0  0  0  0  0  0  0  0  0  0  0  0
    5.0580    1.4870   18.0310 C   0  0  0  0  0  0  0  0  0  0  0  0
    9.2670   -6.0170   26.4560 C   0  0  0  0  0  0  0  0  0  0  0  0
    8.5460   -5.6980   27.7470 C   0  0  0  0  0  0  0  0  0  0  0  0
  2  1  1  1
  2  3  1  0
  1  4  2  3
  2  5  1  0
  4  6  1  0
  3  7  1  0
  5  8  1  6
  5  9  1  0
 10  6  1  1
  7 11  2  0
  7 12  1  0
 10 13  1  0
 10 14  1  0
 13 15  1  0
 14 16  1  0
 13 17  1  0
 15 18  1  0
 15 19  2  0
 16 20  1  0
 17 21  1  6
 16 22  1  0
 17 22  1  0
 20 23  1  0
 20 24  1  1
 20 25  1  0
 21 26  1  0
 23 27  1  0
 25 28  2  0
 25 29  1  0
 26 30  2  0
 26 31  1  0
 29 32  1  0
 27 33  2  0
 28 34  1  0
 29 35  2  0
 27 36  1  0
 30 37  1  0
 31 38  2  0
 34 39  2  0
 35 39  1  0
 36 40  2  0
 36 41  1  0
 37 42  2  0
 38 42  1  0
 40 43  1  0
 41 44  1  0
 43 44  2  0
M  END
