x0831_1-x0397_0-x0831_0-x0434_2-x1412_1-x1334_1-x1334_0-x1385_1
     RDKit          3D

 35 39  0  0  0  0  0  0  0  0999 V2000
    6.3930   -3.3220   19.8830 C   0  0  0  0  0  0  0  0  0  0  0  0
    7.3700   -3.0150   18.7640 C   0  0  0  0  0  0  0  0  0  0  0  0
    5.4070   -4.0480   19.6750 O   0  0  0  0  0  0  0  0  0  0  0  0
    6.6690   -2.8280   21.1260 N   0  0  0  0  0  0  0  0  0  0  0  0
    6.3180   -1.4740   21.5620 C   0  0  1  0  0  0  0  0  0  0  0  0
    7.3600   -3.6710   22.0410 C   0  0  1  0  0  0  0  0  0  0  0  0
    7.5030   -0.5350   21.4360 C   0  0  0  0  0  0  0  0  0  0  0  0
    7.6600   -3.1400   23.3030 C   0  0  0  0  0  0  0  0  0  0  0  0
    6.4190   -4.3860   22.9650 C   0  0  0  0  0  0  0  0  0  0  0  0
    4.9720   -1.0620   21.0140 C   0  0  0  0  0  0  0  0  0  0  0  0
    8.6390   -2.0370   23.1580 N   0  0  0  0  0  0  0  0  0  0  0  0
    8.7420   -1.3840   21.8050 C   0  0  0  0  0  0  0  0  0  0  0  0
    6.7100   -5.6870   23.4780 C   0  0  0  0  0  0  0  0  0  0  0  0
    5.8320   -5.7870   22.4050 C   0  0  0  0  0  0  0  0  0  0  0  0
    4.6820    0.1300   20.3400 C   0  0  0  0  0  0  0  0  0  0  0  0
   10.0230   -2.3200   23.4120 C   0  0  2  0  0  0  0  0  0  0  0  0
    5.8280   -0.6150   19.6080 C   0  0  0  0  0  0  0  0  0  0  0  0
    4.5970    1.2510   19.4640 C   0  0  0  0  0  0  0  0  0  0  0  0
   10.4880   -3.2760   24.4810 C   0  0  0  0  0  0  0  0  0  0  0  0
   10.7620   -0.9810   23.4470 C   0  0  0  0  0  0  0  0  0  0  0  0
    6.5200   -0.3230   18.5080 C   0  0  0  0  0  0  0  0  0  0  0  0
    5.3830    1.5520   18.2030 C   0  0  0  0  0  0  0  0  0  0  0  0
   10.2890    0.2140   23.9340 C   0  0  0  0  0  0  0  0  0  0  0  0
   12.2000   -0.8310   22.8880 C   0  0  0  0  0  0  0  0  0  0  0  0
    9.6110   -4.0870   25.3770 C   0  0  0  0  0  0  0  0  0  0  0  0
    6.4070    0.7050   17.7040 N   0  0  0  0  0  0  0  0  0  0  0  0
   12.8970   -2.0080   22.2950 C   0  0  0  0  0  0  0  0  0  0  0  0
   10.9500    1.4380   23.9590 C   0  0  0  0  0  0  0  0  0  0  0  0
   12.9310    0.3390   22.8750 C   0  0  0  0  0  0  0  0  0  0  0  0
    9.9830   -5.4090   25.6420 C   0  0  0  0  0  0  0  0  0  0  0  0
    8.1560   -3.6990   26.2300 S   0  0  0  0  0  0  0  0  0  0  0  0
   12.2360    1.5880   23.4620 C   0  0  0  0  0  0  0  0  0  0  0  0
    9.1450   -6.0380   26.5050 C   0  0  0  0  0  0  0  0  0  0  0  0
    8.1250   -5.2410   26.9140 C   0  0  0  0  0  0  0  0  0  0  0  0
    6.8920   -5.6820   28.0150 Cl  0  0  0  0  0  0  0  0  0  0  0  0
  1  2  1  0
  1  3  2  0
  1  4  1  0
  4  5  1  0
  4  6  1  0
  5  7  1  0
  6  8  1  0
  6  9  1  1
  5 10  1  6
  8 11  1  0
  7 12  1  0
 11 12  1  0
  9 13  1  0
  9 14  1  0
 13 14  1  0
 10 15  1  0
 11 16  1  0
 15 17  2  0
 15 18  1  0
 16 19  1  1
 16 20  1  0
 17 21  1  0
 18 22  2  0
 20 23  2  0
 20 24  1  0
 19 25  1  0
 21 26  2  0
 22 26  1  0
 24 27  1  0
 23 28  1  0
 24 29  2  0
 25 30  2  0
 25 31  1  0
 28 32  2  0
 29 32  1  0
 30 33  1  0
 31 34  1  0
 33 34  2  0
 34 35  1  0
M  END
