x0831_0-x1380_1
     RDKit          3D

 20 21  0  0  0  0  0  0  0  0999 V2000
    5.7890   -3.3170   25.3280 C   0  0  0  0  0  0  0  0  0  0  0  0
    6.4440   -4.0710   24.1840 C   0  0  2  0  0  0  0  0  0  0  0  0
    7.0260   -3.1090   23.3660 C   0  0  0  0  0  0  0  0  0  0  0  0
    4.6230   -2.9590   25.3910 O   0  0  0  0  0  0  0  0  0  0  0  0
    5.6200   -4.8680   23.3860 C   0  0  0  0  0  0  0  0  0  0  0  0
    6.3310   -5.4560   22.3340 C   0  0  0  0  0  0  0  0  0  0  0  0
    7.8930   -3.6470   22.4390 C   0  0  2  0  0  0  0  0  0  0  0  0
    8.9860   -2.6560   22.0570 C   0  0  0  0  0  0  0  0  0  0  0  0
    7.0380   -4.4490   21.5100 N   0  0  0  0  0  0  0  0  0  0  0  0
    6.4850   -4.0960   20.2890 C   0  0  0  0  0  0  0  0  0  0  0  0
    9.9530   -2.4990   23.2900 C   0  0  0  0  0  0  0  0  0  0  0  0
    7.3110   -3.2290   19.3630 C   0  0  0  0  0  0  0  0  0  0  0  0
    5.3860   -4.5250   19.9210 O   0  0  0  0  0  0  0  0  0  0  0  0
   10.7370   -1.1830   23.3760 C   0  0  0  0  0  0  0  0  0  0  0  0
   10.1960   -0.0850   24.0600 C   0  0  0  0  0  0  0  0  0  0  0  0
   12.0210   -1.0140   22.7800 C   0  0  0  0  0  0  0  0  0  0  0  0
   12.6520   -1.9720   22.0990 C   0  0  0  0  0  0  0  0  0  0  0  0
   10.8730    1.1410   24.1570 C   0  0  0  0  0  0  0  0  0  0  0  0
   12.6470    0.2240   22.9140 C   0  0  0  0  0  0  0  0  0  0  0  0
   12.1210    1.3050   23.5740 C   0  0  0  0  0  0  0  0  0  0  0  0
  2  1  1  1
  2  3  1  0
  1  4  2  0
  2  5  1  0
  5  6  1  0
  3  7  1  0
  7  8  1  6
  6  9  1  0
  7  9  1  0
  9 10  1  0
  8 11  1  0
 10 12  1  0
 10 13  2  0
 11 14  1  0
 14 15  2  0
 14 16  1  0
 16 17  1  0
 15 18  1  0
 16 19  2  0
 18 20  2  0
 19 20  1  0
M  END
