x0831_0-x1334_1-x1334_0-x1386_1-x0692_1
     RDKit          3D

 24 26  0  0  0  0  0  0  0  0999 V2000
    6.2810   -3.2810   19.8390 C   0  0  0  0  0  0  0  0  0  0  0  0
    7.3100   -3.0180   18.7540 C   0  0  0  0  0  0  0  0  0  0  0  0
    5.3840   -4.1160   19.7170 O   0  0  0  0  0  0  0  0  0  0  0  0
    6.4370   -2.5360   20.9970 N   0  0  0  0  0  0  0  0  0  0  0  0
    7.2960   -1.3510   20.8910 C   0  0  0  0  0  0  0  0  0  0  0  0
    6.3310   -3.1410   22.3310 C   0  0  0  0  0  0  0  0  0  0  0  0
    8.5890   -1.4780   21.6710 C   0  0  0  0  0  0  0  0  0  0  0  0
    7.5120   -3.1780   22.9690 C   0  0  0  0  0  0  0  0  0  0  0  0
    8.2640   -1.9130   23.0160 N   0  0  0  0  0  0  0  0  0  0  0  0
    9.4520   -1.9710   23.8620 C   0  0  1  0  0  0  0  0  0  0  0  0
    9.9630   -3.3640   23.9010 C   0  0  0  0  0  0  0  0  0  0  0  0
   10.4650   -0.8260   23.6530 C   0  0  0  0  0  0  0  0  0  0  0  0
   10.2050    0.4170   24.2130 C   0  0  0  0  0  0  0  0  0  0  0  0
   11.7530   -0.9610   22.8660 C   0  0  0  0  0  0  0  0  0  0  0  0
    9.4180   -4.2110   25.0100 C   0  0  0  0  0  0  0  0  0  0  0  0
   12.2100   -2.2040   22.1790 C   0  0  0  0  0  0  0  0  0  0  0  0
   11.0750    1.5540   24.0830 C   0  0  0  0  0  0  0  0  0  0  0  0
   12.5460    0.0880   22.7660 C   0  0  0  0  0  0  0  0  0  0  0  0
    9.9060   -5.5870   25.3110 C   0  0  0  0  0  0  0  0  0  0  0  0
    8.1510   -3.7500   26.1300 S   0  0  0  0  0  0  0  0  0  0  0  0
   12.2090    1.3860   23.3850 C   0  0  0  0  0  0  0  0  0  0  0  0
    9.1680   -6.1140   26.4720 C   0  0  0  0  0  0  0  0  0  0  0  0
    8.1680   -5.2060   27.0270 C   0  0  0  0  0  0  0  0  0  0  0  0
    7.1400   -5.4950   28.3620 Cl  0  0  0  0  0  0  0  0  0  0  0  0
  1  2  1  0
  1  3  2  0
  1  4  1  0
  4  5  1  0
  4  6  1  0
  5  7  1  0
  6  8  1  0
  7  9  1  0
  8  9  1  0
  9 10  1  0
 10 11  1  6
 10 12  1  0
 12 13  2  0
 12 14  1  0
 11 15  1  0
 14 16  1  0
 13 17  1  0
 14 18  2  0
 15 19  2  0
 15 20  1  0
 17 21  2  0
 18 21  1  0
 19 22  1  0
 20 23  1  0
 22 23  2  0
 23 24  1  0
M  END
