x0831_0-x1418_1-x1386_1
     RDKit          3D

 17 18  0  0  0  0  0  0  0  0999 V2000
    6.4120   -3.2450   19.8960 C   0  0  0  0  0  0  0  0  0  0  0  0
    7.3980   -3.0110   18.7690 C   0  0  0  0  0  0  0  0  0  0  0  0
    5.4730   -4.0380   19.6980 O   0  0  0  0  0  0  0  0  0  0  0  0
    6.6330   -2.5890   21.0970 N   0  0  0  0  0  0  0  0  0  0  0  0
    6.5930   -3.4190   22.3060 C   0  0  0  0  0  0  0  0  0  0  0  0
    7.4550   -1.3690   21.2060 C   0  0  0  0  0  0  0  0  0  0  0  0
    7.9610   -3.5350   23.0070 C   0  0  0  0  0  0  0  0  0  0  0  0
    8.7280   -1.6490   21.6990 C   0  0  0  0  0  0  0  0  0  0  0  0
    8.7280   -2.2770   23.0280 N   0  0  0  0  0  0  0  0  0  0  0  0
   10.0380   -2.4320   23.4870 C   0  0  0  0  0  0  0  0  0  0  0  0
   10.7740   -1.0720   23.5190 C   0  0  0  0  0  0  0  0  0  0  0  0
   10.1400    0.0280   24.1690 C   0  0  0  0  0  0  0  0  0  0  0  0
   12.1300   -0.9060   22.8610 C   0  0  0  0  0  0  0  0  0  0  0  0
   12.7910   -2.0540   22.1740 C   0  0  0  0  0  0  0  0  0  0  0  0
   10.8740    1.3840   24.1650 C   0  0  0  0  0  0  0  0  0  0  0  0
   12.8020    0.2520   22.8460 C   0  0  0  0  0  0  0  0  0  0  0  0
   12.2510    1.4900   23.4760 C   0  0  0  0  0  0  0  0  0  0  0  0
  1  2  1  0
  1  3  2  0
  1  4  1  0
  4  5  1  0
  4  6  1  0
  5  7  1  0
  6  8  1  0
  7  9  1  0
  8  9  1  0
  9 10  1  0
 10 11  1  0
 11 12  2  0
 11 13  1  0
 13 14  1  0
 12 15  1  0
 13 16  2  0
 15 17  2  0
 16 17  1  0
M  END
