x0831_0-x1385_1-x1375_1-x0397_0-x1386_1-x0434_2-x0770_1-x0692_1-x1334_0-x1412_1-x1374_1-x0426_1-x1334_1-x0831_1
     RDKit          3D

 43 48  0  0  0  0  0  0  0  0999 V2000
    2.6390   -7.7750   23.6750 O   0  0  0  0  0  0  0  0  0  0  0  0
    3.3920   -7.5330   24.8430 C   0  0  0  0  0  0  0  0  0  0  0  0
    4.6580   -7.0700   24.4140 O   0  0  0  0  0  0  0  0  0  0  0  0
    4.4930   -5.8510   23.6760 C   0  0  0  0  0  0  0  0  0  0  0  0
    5.7430   -5.4020   22.9930 C   0  0  2  0  0  0  0  0  0  0  0  0
    5.7440   -4.3150   22.2510 C   0  0  2  0  0  0  0  0  0  0  0  0
    6.0830   -5.9380   21.8360 C   0  0  0  0  0  0  0  0  0  0  0  0
    6.7690   -3.3860   22.0440 C   0  0  2  0  0  0  0  0  0  0  0  0
    7.5720   -3.0110   23.2640 C   0  0  0  0  0  0  0  0  0  0  0  0
    6.6050   -2.3270   21.0960 C   0  0  1  0  0  0  0  0  0  0  0  0
    6.3340   -3.1130   19.7750 C   0  0  0  0  0  0  0  0  0  0  0  0
    5.7650   -0.9880   21.3270 C   0  0  2  0  0  0  0  0  0  0  0  0
    8.6240   -2.0490   22.8970 N   0  0  0  0  0  0  0  0  0  0  0  0
    7.7370   -1.5750   20.8350 C   0  0  0  0  0  0  0  0  0  0  0  0
    7.3940   -2.9950   18.6780 C   0  0  0  0  0  0  0  0  0  0  0  0
    5.3650   -3.8640   19.5940 O   0  0  0  0  0  0  0  0  0  0  0  0
    4.7350   -0.9850   22.4630 C   0  0  0  0  0  0  0  0  0  0  0  0
    9.9260   -2.4710   23.1700 C   0  0  2  0  0  0  0  0  0  0  0  0
    8.8270   -1.8150   21.4860 C   0  0  0  0  0  0  0  0  0  0  0  0
    5.4830   -0.0440   20.1370 C   0  0  0  0  0  0  0  0  0  0  0  0
    4.7930    0.3010   23.2850 C   0  0  0  0  0  0  0  0  0  0  0  0
   10.2100   -3.0820   24.4400 C   0  0  0  0  0  0  0  0  0  0  0  0
    4.5030    0.9400   20.0680 C   0  0  0  0  0  0  0  0  0  0  0  0
    6.3990   -0.2460   18.9620 C   0  0  0  0  0  0  0  0  0  0  0  0
   10.8010   -1.1570   23.2670 C   0  0  0  0  0  0  0  0  0  0  0  0
    4.2940    1.5490   22.5260 C   0  0  1  0  0  0  0  0  0  0  0  0
    3.5790    1.1700   21.2270 C   0  0  0  0  0  0  0  0  0  0  0  0
    4.4360    1.6770   18.8920 C   0  0  0  0  0  0  0  0  0  0  0  0
    6.3420    0.5120   17.7400 N   0  0  0  0  0  0  0  0  0  0  0  0
   10.2310   -0.0700   23.9820 C   0  0  0  0  0  0  0  0  0  0  0  0
   12.0830   -0.9670   22.7090 C   0  0  0  0  0  0  0  0  0  0  0  0
    9.4760   -4.0740   25.2780 C   0  0  0  0  0  0  0  0  0  0  0  0
    3.4350    2.3690   23.3560 N   0  0  0  0  0  0  0  0  0  0  0  0
   12.8550   -1.9790   21.9240 C   0  0  0  0  0  0  0  0  0  0  0  0
    5.2610    1.5130   17.7950 C   0  0  0  0  0  0  0  0  0  0  0  0
   10.8970    1.1470   24.1240 C   0  0  0  0  0  0  0  0  0  0  0  0
   12.7090    0.2590   22.8830 C   0  0  0  0  0  0  0  0  0  0  0  0
    9.8200   -5.5230   25.4790 C   0  0  0  0  0  0  0  0  0  0  0  0
    8.0110   -3.6530   26.3450 S   0  0  0  0  0  0  0  0  0  0  0  0
   12.1520    1.3150   23.5660 C   0  0  0  0  0  0  0  0  0  0  0  0
    8.9670   -6.2280   26.4790 C   0  0  0  0  0  0  0  0  0  0  0  0
    7.9510   -5.3140   27.0250 C   0  0  0  0  0  0  0  0  0  0  0  0
    6.7850   -5.7110   28.2100 Cl  0  0  0  0  0  0  0  0  0  0  0  0
  1  2  1  0
  2  3  1  0
  3  4  1  0
  5  4  1  6
  5  6  1  0
  5  7  1  0
  6  7  1  6
  6  8  1  0
  8  9  1  1
  8 10  1  0
 10 11  1  6
 10 12  1  0
  9 13  1  0
 10 14  1  0
 11 15  1  0
 11 16  2  0
 12 17  1  6
 13 18  1  0
 13 19  1  0
 14 19  1  0
 12 20  1  0
 17 21  1  0
 18 22  1  1
 20 23  2  0
 20 24  1  0
 18 25  1  0
 21 26  1  0
 23 27  1  0
 26 27  1  0
 23 28  1  0
 24 29  2  0
 25 30  2  0
 25 31  1  0
 22 32  1  0
 26 33  1  1
 31 34  1  0
 28 35  2  0
 29 35  1  0
 30 36  1  0
 31 37  2  0
 32 38  2  0
 32 39  1  0
 36 40  2  0
 37 40  1  0
 38 41  1  0
 39 42  1  0
 41 42  2  0
 42 43  1  0
M  END
