x0831_1-x1418_0-x0736_1
     RDKit          3D

 16 17  0  0  0  0  0  0  0  0999 V2000
    6.2530   -3.4700   19.9940 C   0  0  0  0  0  0  0  0  0  0  0  0
    7.2440   -3.0350   18.9130 C   0  0  0  0  0  0  0  0  0  0  0  0
    5.3420   -4.2610   19.7630 O   0  0  0  0  0  0  0  0  0  0  0  0
    6.4030   -2.9730   21.2670 N   0  0  0  0  0  0  0  0  0  0  0  0
    6.1700   -1.5440   21.5950 C   0  0  0  0  0  0  0  0  0  0  0  0
    7.0480   -3.7570   22.3250 C   0  0  0  0  0  0  0  0  0  0  0  0
    7.4850   -0.7740   21.3890 C   0  0  0  0  0  0  0  0  0  0  0  0
    7.5570   -2.9290   23.4670 C   0  0  0  0  0  0  0  0  0  0  0  0
    8.6840   -2.0420   23.1470 N   0  0  0  0  0  0  0  0  0  0  0  0
    8.7090   -1.6030   21.8080 C   0  0  0  0  0  0  0  0  0  0  0  0
    9.9980   -2.6200   23.4470 C   0  0  0  0  0  0  0  0  0  0  0  0
   10.9740   -1.4850   23.4390 C   0  0  0  0  0  0  0  0  0  0  0  0
   12.2450   -1.4520   22.5510 C   0  0  0  0  0  0  0  0  0  0  0  0
   10.7770   -0.0520   24.4170 S   0  0  0  0  0  0  0  0  0  0  0  0
   12.9620   -0.1570   22.7770 C   0  0  0  0  0  0  0  0  0  0  0  0
   12.3800    0.7460   23.7050 C   0  0  0  0  0  0  0  0  0  0  0  0
  1  2  1  0
  1  3  2  0
  1  4  1  0
  4  5  1  0
  4  6  1  0
  5  7  1  0
  6  8  1  0
  8  9  1  0
  7 10  1  0
  9 10  1  0
  9 11  1  0
 11 12  1  0
 12 13  2  0
 12 14  1  0
 13 15  1  0
 14 16  1  0
 15 16  2  0
M  END
