x0831_0-x1418_1-x1334_0-x1412_1-x0770_1
     RDKit          3D

 24 26  0  0  0  0  0  0  0  0999 V2000
    6.2460   -3.2670   19.8840 C   0  0  0  0  0  0  0  0  0  0  0  0
    7.1890   -2.9570   18.7380 C   0  0  0  0  0  0  0  0  0  0  0  0
    5.3830   -4.1390   19.7350 O   0  0  0  0  0  0  0  0  0  0  0  0
    6.4020   -2.5810   21.0830 N   0  0  0  0  0  0  0  0  0  0  0  0
    6.5280   -3.3980   22.2840 C   0  0  0  0  0  0  0  0  0  0  0  0
    7.0960   -1.2930   21.1630 C   0  0  0  0  0  0  0  0  0  0  0  0
    7.9750   -3.4180   22.8570 C   0  0  0  0  0  0  0  0  0  0  0  0
    8.5340   -1.4030   21.6960 C   0  0  0  0  0  0  0  0  0  0  0  0
    8.6540   -2.1090   22.9780 N   0  0  0  0  0  0  0  0  0  0  0  0
   10.0920   -2.2700   23.2310 C   0  0  2  0  0  0  0  0  0  0  0  0
   10.6110   -3.1830   24.4100 C   0  0  0  0  0  0  0  0  0  0  0  0
   10.7550   -0.9240   23.3490 C   0  0  0  0  0  0  0  0  0  0  0  0
   10.1300    0.2120   23.8910 C   0  0  0  0  0  0  0  0  0  0  0  0
   12.0780   -0.8210   22.8780 C   0  0  0  0  0  0  0  0  0  0  0  0
    9.6540   -3.9640   25.3370 C   0  0  0  0  0  0  0  0  0  0  0  0
   12.8300   -1.9540   22.2700 C   0  0  0  0  0  0  0  0  0  0  0  0
   10.8280    1.4800   23.9780 C   0  0  0  0  0  0  0  0  0  0  0  0
   12.6930    0.3790   22.9790 C   0  0  0  0  0  0  0  0  0  0  0  0
   10.0450   -5.3230   25.7180 C   0  0  0  0  0  0  0  0  0  0  0  0
    8.1530   -3.6830   26.1390 S   0  0  0  0  0  0  0  0  0  0  0  0
   12.1160    1.5190   23.5060 C   0  0  0  0  0  0  0  0  0  0  0  0
    9.2900   -5.9910   26.5140 C   0  0  0  0  0  0  0  0  0  0  0  0
    8.1810   -5.3100   26.9150 C   0  0  0  0  0  0  0  0  0  0  0  0
    6.9470   -5.8220   27.9850 Cl  0  0  0  0  0  0  0  0  0  0  0  0
  1  2  1  0
  1  3  2  0
  1  4  1  0
  4  5  1  0
  4  6  1  0
  5  7  1  0
  6  8  1  0
  7  9  1  0
  8  9  1  0
  9 10  1  0
 10 11  1  1
 10 12  1  0
 12 13  2  0
 12 14  1  0
 11 15  1  0
 14 16  1  0
 13 17  1  0
 14 18  2  0
 15 19  2  0
 15 20  1  0
 17 21  2  0
 18 21  1  0
 19 22  1  0
 20 23  1  0
 22 23  2  0
 23 24  1  0
M  END
