x0831_0-x1385_1-x1418_1-x0734_0-x0692_1
     RDKit          3D

 28 31  0  0  0  0  0  0  0  0999 V2000
    6.3320   -3.1230   19.8110 C   0  0  0  0  0  0  0  0  0  0  0  0
    7.3450   -2.9460   18.7130 C   0  0  0  0  0  0  0  0  0  0  0  0
    5.4290   -3.9650   19.6550 O   0  0  0  0  0  0  0  0  0  0  0  0
    6.4540   -2.3750   20.9710 N   0  0  0  0  0  0  0  0  0  0  0  0
    6.2380   -3.0790   22.2040 C   0  0  0  0  0  0  0  0  0  0  0  0
    7.4060   -1.2430   21.0750 C   0  0  0  0  0  0  0  0  0  0  0  0
    7.5360   -3.5300   22.8320 C   0  0  2  0  0  0  0  0  0  0  0  0
    8.6270   -1.6340   21.7370 C   0  0  0  0  0  0  0  0  0  0  0  0
    6.8530   -4.3340   23.9750 C   0  0  2  0  0  0  0  0  0  0  0  0
    8.3480   -2.2910   23.0560 N   0  0  0  0  0  0  0  0  0  0  0  0
    5.5930   -3.7450   24.6440 C   0  0  0  0  0  0  0  0  0  0  0  0
    9.6680   -2.4650   23.6920 C   0  0  0  0  0  0  0  0  0  0  0  0
    7.4860   -4.7810   25.2900 C   0  0  0  0  0  0  0  0  0  0  0  0
    5.2550   -4.5560   25.9300 C   0  0  2  0  0  0  0  0  0  0  0  0
    8.8300   -5.0120   25.2930 C   0  0  0  0  0  0  0  0  0  0  0  0
    6.6870   -4.9420   26.3850 C   0  0  0  0  0  0  0  0  0  0  0  0
   10.5540   -1.1930   23.5680 C   0  0  0  0  0  0  0  0  0  0  0  0
    4.4260   -5.7290   25.8300 O   0  0  0  0  0  0  0  0  0  0  0  0
    4.5950   -3.8350   26.7920 O   0  0  0  0  0  0  0  0  0  0  0  0
    9.3830   -5.4510   26.4740 C   0  0  0  0  0  0  0  0  0  0  0  0
    7.2380   -5.3740   27.5830 C   0  0  0  0  0  0  0  0  0  0  0  0
   10.0890   -0.0660   24.2380 C   0  0  0  0  0  0  0  0  0  0  0  0
   11.7970   -1.0410   22.8490 C   0  0  0  0  0  0  0  0  0  0  0  0
   12.5010   -2.0970   22.0510 C   0  0  0  0  0  0  0  0  0  0  0  0
    8.6220   -5.6340   27.6120 C   0  0  0  0  0  0  0  0  0  0  0  0
   10.7840    1.1550   24.2160 C   0  0  0  0  0  0  0  0  0  0  0  0
   12.4270    0.1960   22.8850 C   0  0  0  0  0  0  0  0  0  0  0  0
   11.9770    1.3570   23.5520 C   0  0  0  0  0  0  0  0  0  0  0  0
  1  2  1  0
  1  3  2  0
  1  4  1  0
  4  5  1  0
  4  6  1  0
  7  5  1  6
  6  8  1  0
  7  9  1  0
  7 10  1  0
  8 10  1  0
  9 11  1  1
 10 12  1  0
  9 13  1  0
 11 14  1  0
 13 15  2  0
 13 16  1  0
 14 16  1  0
 12 17  1  0
 14 18  1  6
 14 19  1  0
 15 20  1  0
 16 21  2  0
 17 22  2  0
 17 23  1  0
 23 24  1  0
 20 25  2  0
 21 25  1  0
 22 26  1  0
 23 27  2  0
 26 28  2  0
 27 28  1  0
M  CHG  1  19  -1
M  END
