x0831_0-x1334_1-x0397_0-x1386_1-x1375_1
     RDKit          3D

 24 26  0  0  0  0  0  0  0  0999 V2000
    2.5200   -7.6140   23.4370 O   0  0  0  0  0  0  0  0  0  0  0  0
    3.1060   -7.4490   24.6970 C   0  0  0  0  0  0  0  0  0  0  0  0
    4.4910   -7.5180   24.4860 O   0  0  0  0  0  0  0  0  0  0  0  0
    5.0130   -6.1770   24.5340 C   0  0  0  0  0  0  0  0  0  0  0  0
    6.0600   -5.9240   23.4350 C   0  0  2  0  0  0  0  0  0  0  0  0
    5.9220   -4.7950   22.5350 C   0  0  2  0  0  0  0  0  0  0  0  0
    5.7270   -6.1890   22.2760 C   0  0  0  0  0  0  0  0  0  0  0  0
    7.1160   -3.9220   22.1130 C   0  0  1  0  0  0  0  0  0  0  0  0
    6.5810   -2.8820   21.1770 N   0  0  0  0  0  0  0  0  0  0  0  0
    7.8360   -3.5210   23.2610 C   0  0  0  0  0  0  0  0  0  0  0  0
    6.3070   -3.3970   19.9160 C   0  0  0  0  0  0  0  0  0  0  0  0
    8.6550   -2.3190   23.1320 N   0  0  0  0  0  0  0  0  0  0  0  0
    7.2570   -1.6020   21.3370 C   0  0  0  0  0  0  0  0  0  0  0  0
    7.3180   -3.0360   18.8280 C   0  0  0  0  0  0  0  0  0  0  0  0
    5.3400   -4.1260   19.7220 O   0  0  0  0  0  0  0  0  0  0  0  0
   10.0390   -2.3900   23.5760 C   0  0  0  0  0  0  0  0  0  0  0  0
    8.7010   -1.8560   21.7650 C   0  0  0  0  0  0  0  0  0  0  0  0
   10.7880   -1.1510   23.5580 C   0  0  0  0  0  0  0  0  0  0  0  0
   10.2770    0.0120   24.2030 C   0  0  0  0  0  0  0  0  0  0  0  0
   12.1250   -0.9590   22.8680 C   0  0  0  0  0  0  0  0  0  0  0  0
   12.8520   -2.0260   22.1180 C   0  0  0  0  0  0  0  0  0  0  0  0
   10.9710    1.2230   24.1780 C   0  0  0  0  0  0  0  0  0  0  0  0
   12.7280    0.2510   22.9030 C   0  0  0  0  0  0  0  0  0  0  0  0
   12.2160    1.3580   23.5230 C   0  0  0  0  0  0  0  0  0  0  0  0
  1  2  1  0
  2  3  1  0
  3  4  1  0
  5  4  1  1
  5  6  1  0
  5  7  1  0
  6  7  1  6
  6  8  1  0
  8  9  1  0
  8 10  1  1
  9 11  1  0
 10 12  1  0
  9 13  1  0
 11 14  1  0
 11 15  2  0
 12 16  1  0
 12 17  1  0
 13 17  1  0
 16 18  1  0
 18 19  2  0
 18 20  1  0
 20 21  1  0
 19 22  1  0
 20 23  2  0
 22 24  2  0
 23 24  1  0
M  END
