x0831_1-x1418_0-x1334_1
     RDKit          3D

 16 17  0  0  0  0  0  0  0  0999 V2000
    6.2220   -3.4830   19.9810 C   0  0  0  0  0  0  0  0  0  0  0  0
    7.2210   -3.0360   18.9060 C   0  0  0  0  0  0  0  0  0  0  0  0
    5.3010   -4.2620   19.7640 O   0  0  0  0  0  0  0  0  0  0  0  0
    6.3930   -3.0010   21.2700 N   0  0  0  0  0  0  0  0  0  0  0  0
    6.2210   -1.5520   21.4530 C   0  0  0  0  0  0  0  0  0  0  0  0
    7.0420   -3.7720   22.3570 C   0  0  0  0  0  0  0  0  0  0  0  0
    7.5100   -0.7240   21.3920 C   0  0  0  0  0  0  0  0  0  0  0  0
    7.5660   -2.8580   23.4840 C   0  0  0  0  0  0  0  0  0  0  0  0
    8.7760   -2.1140   23.1240 N   0  0  0  0  0  0  0  0  0  0  0  0
    8.7570   -1.5210   21.7700 C   0  0  0  0  0  0  0  0  0  0  0  0
   10.0690   -2.5940   23.4000 C   0  0  0  0  0  0  0  0  0  0  0  0
   11.0620   -1.5530   23.3680 C   0  0  0  0  0  0  0  0  0  0  0  0
   12.2220   -1.3670   22.6310 C   0  0  0  0  0  0  0  0  0  0  0  0
   10.8660   -0.1870   24.4100 S   0  0  0  0  0  0  0  0  0  0  0  0
   12.9050   -0.2090   22.8700 C   0  0  0  0  0  0  0  0  0  0  0  0
   12.2950    0.5690   23.8200 C   0  0  0  0  0  0  0  0  0  0  0  0
  1  2  1  0
  1  3  2  0
  1  4  1  0
  4  5  1  0
  4  6  1  0
  5  7  1  0
  6  8  1  0
  8  9  1  0
  7 10  1  0
  9 10  1  0
  9 11  1  0
 11 12  1  0
 12 13  2  0
 12 14  1  0
 13 15  1  0
 14 16  1  0
 15 16  2  0
M  END
