x0831_0-x0434_2-x1334_1-x1374_1-x0692_1-x1412_1-x1386_1-x0397_0-x0770_1-x1334_0-x0426_1-x0831_1-x1418_1-x1385_1
     RDKit          3D

 45 51  0  0  0  0  0  0  0  0999 V2000
    2.0610   -7.1070   23.6630 O   0  0  0  0  0  0  0  0  0  0  0  0
    2.5580   -7.3670   24.9670 C   0  0  0  0  0  0  0  0  0  0  0  0
    3.9280   -7.7280   24.9390 O   0  0  0  0  0  0  0  0  0  0  0  0
    4.5520   -7.1700   23.8030 C   0  0  0  0  0  0  0  0  0  0  0  0
    5.0930   -5.8190   24.1540 C   0  0  0  0  0  0  0  0  0  0  0  0
    6.1170   -5.3870   23.1500 C   0  0  2  0  0  0  0  0  0  0  0  0
    5.9180   -4.4860   22.2140 C   0  0  2  0  0  0  0  0  0  0  0  0
    6.1660   -6.0880   21.9300 C   0  0  0  0  0  0  0  0  0  0  0  0
    7.0090   -3.4450   22.0510 C   0  0  1  0  0  0  0  0  0  0  0  0
    6.7050   -2.5520   20.9240 N   0  0  0  0  0  0  0  0  0  0  0  0
    7.3400   -2.8000   23.2330 C   0  0  0  0  0  0  0  0  0  0  0  0
    6.3460   -3.2890   19.7980 C   0  0  0  0  0  0  0  0  0  0  0  0
    8.4770   -1.9120   23.0320 N   0  0  0  0  0  0  0  0  0  0  0  0
    7.8340   -1.6170   20.7660 C   0  0  1  0  0  0  0  0  0  0  0  0
    7.3280   -3.0740   18.6680 C   0  0  0  0  0  0  0  0  0  0  0  0
    5.3930   -4.0750   19.6820 O   0  0  0  0  0  0  0  0  0  0  0  0
    9.5110   -1.9570   23.9260 C   0  0  1  0  0  0  0  0  0  0  0  0
    7.4540   -0.2850   20.9430 N   0  0  0  0  0  0  0  0  0  0  0  0
    8.9370   -1.9570   21.7580 C   0  0  0  0  0  0  0  0  0  0  0  0
    9.9760   -3.3710   23.9020 C   0  0  0  0  0  0  0  0  0  0  0  0
    7.0540    0.2610   22.2910 C   0  0  0  0  0  0  0  0  0  0  0  0
    6.6210    0.2930   19.9300 C   0  0  0  0  0  0  0  0  0  0  0  0
   10.5590   -0.8380   23.6740 C   0  0  0  0  0  0  0  0  0  0  0  0
    5.6240    0.7520   22.1120 C   0  0  2  0  0  0  0  0  0  0  0  0
    6.6520    0.3770   18.5590 N   0  0  0  0  0  0  0  0  0  0  0  0
    5.4940    0.9330   20.6460 C   0  0  0  0  0  0  0  0  0  0  0  0
   10.2900    0.3910   24.2300 C   0  0  0  0  0  0  0  0  0  0  0  0
   11.7940   -0.9390   22.9090 C   0  0  0  0  0  0  0  0  0  0  0  0
    9.4400   -4.2190   25.0180 C   0  0  0  0  0  0  0  0  0  0  0  0
    5.3270    2.1430   22.7000 C   0  0  0  0  0  0  0  0  0  0  0  0
   12.2670   -2.1740   22.2150 C   0  0  0  0  0  0  0  0  0  0  0  0
    4.4280    1.6460   20.0240 C   0  0  0  0  0  0  0  0  0  0  0  0
    5.6370    1.0770   17.9360 C   0  0  0  0  0  0  0  0  0  0  0  0
   11.1040    1.4840   24.0990 C   0  0  0  0  0  0  0  0  0  0  0  0
   12.6320    0.1930   22.7910 C   0  0  0  0  0  0  0  0  0  0  0  0
    9.8510   -5.4740   25.3690 C   0  0  0  0  0  0  0  0  0  0  0  0
    8.1720   -3.7770   26.1210 S   0  0  0  0  0  0  0  0  0  0  0  0
    3.9060    2.6560   22.3160 C   0  0  1  0  0  0  0  0  0  0  0  0
    3.3900    2.2090   20.9340 C   0  0  0  0  0  0  0  0  0  0  0  0
    4.5390    1.7200   18.5230 C   0  0  0  0  0  0  0  0  0  0  0  0
   12.3030    1.3950   23.3700 C   0  0  0  0  0  0  0  0  0  0  0  0
    9.2560   -6.0770   26.4230 C   0  0  0  0  0  0  0  0  0  0  0  0
    8.2890   -5.2650   26.9680 C   0  0  0  0  0  0  0  0  0  0  0  0
    2.9520    2.2710   23.3550 N   0  0  0  0  0  0  0  0  0  0  0  0
    7.2880   -5.6100   28.3100 Cl  0  0  0  0  0  0  0  0  0  0  0  0
  1  2  1  0
  2  3  1  0
  3  4  1  0
  4  5  1  0
  6  5  1  1
  6  7  1  0
  6  8  1  0
  7  8  1  6
  7  9  1  0
  9 10  1  0
  9 11  1  1
 10 12  1  0
 11 13  1  0
 10 14  1  0
 12 15  1  0
 12 16  2  0
 13 17  1  0
 14 18  1  1
 13 19  1  0
 14 19  1  0
 17 20  1  6
 18 21  1  0
 18 22  1  0
 17 23  1  0
 24 21  1  6
 22 25  2  0
 22 26  1  0
 24 26  1  0
 23 27  2  0
 23 28  1  0
 20 29  1  0
 24 30  1  0
 28 31  1  0
 26 32  2  0
 25 33  1  0
 27 34  1  0
 28 35  2  0
 29 36  2  0
 29 37  1  0
 30 38  1  0
 32 39  1  0
 38 39  1  0
 32 40  1  0
 33 40  2  0
 34 41  2  0
 35 41  1  0
 36 42  1  0
 37 43  1  0
 42 43  2  0
 38 44  1  1
 43 45  1  0
M  END
