x0831_0-x1418_1-x1385_1-x0397_0
     RDKit          3D

 20 22  0  0  0  0  0  0  0  0999 V2000
    6.3340   -3.2820   19.8570 C   0  0  0  0  0  0  0  0  0  0  0  0
    7.3210   -2.9720   18.7360 C   0  0  0  0  0  0  0  0  0  0  0  0
    5.3850   -4.0550   19.7070 O   0  0  0  0  0  0  0  0  0  0  0  0
    6.6430   -2.6260   21.0720 N   0  0  0  0  0  0  0  0  0  0  0  0
    7.0210   -3.6590   22.0580 C   0  0  1  0  0  0  0  0  0  0  0  0
    7.4340   -1.3920   21.1320 C   0  0  0  0  0  0  0  0  0  0  0  0
    7.8260   -3.1500   23.3050 C   0  0  0  0  0  0  0  0  0  0  0  0
    8.7010   -1.6370   21.6550 C   0  0  0  0  0  0  0  0  0  0  0  0
    5.9000   -4.6000   22.3650 C   0  0  0  0  0  0  0  0  0  0  0  0
    8.7370   -2.0150   23.0740 N   0  0  0  0  0  0  0  0  0  0  0  0
    6.1360   -5.7190   23.3000 C   0  0  0  0  0  0  0  0  0  0  0  0
    5.9750   -6.1710   21.9950 C   0  0  0  0  0  0  0  0  0  0  0  0
   10.0600   -2.2190   23.4670 C   0  0  0  0  0  0  0  0  0  0  0  0
   10.8280   -0.9980   23.4850 C   0  0  0  0  0  0  0  0  0  0  0  0
   10.3460    0.1640   24.0830 C   0  0  0  0  0  0  0  0  0  0  0  0
   12.1000   -0.9470   22.8710 C   0  0  0  0  0  0  0  0  0  0  0  0
   12.7500   -2.1130   22.1790 C   0  0  0  0  0  0  0  0  0  0  0  0
   11.0560    1.4030   24.1030 C   0  0  0  0  0  0  0  0  0  0  0  0
   12.7590    0.2440   22.9110 C   0  0  0  0  0  0  0  0  0  0  0  0
   12.2830    1.3890   23.4890 C   0  0  0  0  0  0  0  0  0  0  0  0
  1  2  1  0
  1  3  2  0
  1  4  1  0
  4  5  1  0
  4  6  1  0
  5  7  1  0
  6  8  1  0
  5  9  1  1
  7 10  1  0
  8 10  1  0
  9 11  1  0
  9 12  1  0
 11 12  1  0
 10 13  1  0
 13 14  1  0
 14 15  2  0
 14 16  1  0
 16 17  1  0
 15 18  1  0
 16 19  2  0
 18 20  2  0
 19 20  1  0
M  END
