x0831_0-x1334_1-x0434_2-x0692_1-x1375_1
     RDKit          3D

 32 35  0  0  0  0  0  0  0  0999 V2000
    6.4390   -3.3140   19.9880 C   0  0  0  0  0  0  0  0  0  0  0  0
    7.3520   -2.9720   18.8240 C   0  0  0  0  0  0  0  0  0  0  0  0
    5.4670   -4.0550   19.7500 O   0  0  0  0  0  0  0  0  0  0  0  0
    6.7580   -2.8340   21.3080 N   0  0  0  0  0  0  0  0  0  0  0  0
    7.3270   -1.5030   21.5850 C   0  0  2  0  0  0  0  0  0  0  0  0
    6.9050   -3.6880   22.5160 C   0  0  1  0  0  0  0  0  0  0  0  0
    6.2780   -5.0480   22.2890 C   0  0  0  0  0  0  0  0  0  0  0  0
    7.5760   -0.7780   20.3930 N   0  0  0  0  0  0  0  0  0  0  0  0
    8.7550   -1.6690   22.1520 C   0  0  0  0  0  0  0  0  0  0  0  0
    8.2300   -3.7470   22.9780 C   0  0  0  0  0  0  0  0  0  0  0  0
    8.8510   -2.4510   23.2880 N   0  0  0  0  0  0  0  0  0  0  0  0
    4.8690   -5.0640   22.8590 C   0  0  2  0  0  0  0  0  0  0  0  0
    6.6850   -0.0070   19.7120 C   0  0  0  0  0  0  0  0  0  0  0  0
   10.2140   -2.5710   23.5920 C   0  0  0  0  0  0  0  0  0  0  0  0
    4.8910   -4.4520   24.3100 C   0  0  0  0  0  0  0  0  0  0  0  0
    4.5360   -6.5180   22.9400 C   0  0  0  0  0  0  0  0  0  0  0  0
    6.9610    0.2440   18.4380 C   0  0  0  0  0  0  0  0  0  0  0  0
    5.3590    0.6390   20.2210 C   0  0  0  0  0  0  0  0  0  0  0  0
   10.9130   -1.2040   23.5750 C   0  0  0  0  0  0  0  0  0  0  0  0
    4.2080   -5.3010   25.1620 C   0  0  0  0  0  0  0  0  0  0  0  0
    3.6360   -6.6680   24.3440 S   0  0  0  0  0  0  0  0  0  0  0  0
    6.2670    0.9700   17.5560 N   0  0  0  0  0  0  0  0  0  0  0  0
    4.6450    1.3900   19.3040 C   0  0  0  0  0  0  0  0  0  0  0  0
    2.2370   -6.6010   23.9900 O   0  0  0  0  0  0  0  0  0  0  0  0
    4.2190   -8.0270   25.0270 O   0  0  0  0  0  0  0  0  0  0  0  0
   10.2830   -0.2030   24.2330 C   0  0  0  0  0  0  0  0  0  0  0  0
   12.1290   -0.9470   22.9230 C   0  0  0  0  0  0  0  0  0  0  0  0
    5.0300    1.5810   18.0340 C   0  0  0  0  0  0  0  0  0  0  0  0
   12.8600   -2.0130   22.1720 C   0  0  0  0  0  0  0  0  0  0  0  0
   10.8270    1.0620   24.2580 C   0  0  0  0  0  0  0  0  0  0  0  0
   12.7110    0.3270   22.9410 C   0  0  0  0  0  0  0  0  0  0  0  0
   12.0260    1.2930   23.6120 C   0  0  0  0  0  0  0  0  0  0  0  0
  1  2  1  0
  1  3  2  0
  1  4  1  0
  4  5  1  0
  4  6  1  0
  6  7  1  6
  5  8  1  6
  5  9  1  0
  6 10  1  0
  9 11  1  0
 10 11  1  0
 12  7  1  1
  8 13  1  0
 11 14  1  0
 12 15  1  0
 12 16  1  0
 13 17  2  0
 13 18  1  0
 14 19  1  0
 15 20  2  0
 16 21  1  0
 20 21  1  0
 17 22  1  0
 18 23  2  0
 21 24  1  0
 21 25  1  0
 19 26  2  0
 19 27  1  0
 22 28  2  0
 23 28  1  0
 27 29  1  0
 26 30  1  0
 27 31  2  0
 30 32  2  0
 31 32  1  0
M  END
