x0831_0-x1418_1-x0770_1-x1386_1-x0692_1
     RDKit          3D

 17 18  0  0  0  0  0  0  0  0999 V2000
    6.3790   -3.3040   19.8640 C   0  0  0  0  0  0  0  0  0  0  0  0
    7.3660   -2.9960   18.7490 C   0  0  0  0  0  0  0  0  0  0  0  0
    5.4310   -4.0820   19.7220 O   0  0  0  0  0  0  0  0  0  0  0  0
    6.6350   -2.6630   21.0800 N   0  0  0  0  0  0  0  0  0  0  0  0
    6.6140   -3.4110   22.3470 C   0  0  0  0  0  0  0  0  0  0  0  0
    7.4200   -1.4210   21.1460 C   0  0  0  0  0  0  0  0  0  0  0  0
    7.9750   -3.5220   23.0510 C   0  0  0  0  0  0  0  0  0  0  0  0
    8.8080   -1.6620   21.6730 C   0  0  0  0  0  0  0  0  0  0  0  0
    8.7470   -2.2490   23.0190 N   0  0  0  0  0  0  0  0  0  0  0  0
   10.0620   -2.4080   23.4780 C   0  0  0  0  0  0  0  0  0  0  0  0
   10.8250   -1.0980   23.5030 C   0  0  0  0  0  0  0  0  0  0  0  0
   10.2330    0.0150   24.1710 C   0  0  0  0  0  0  0  0  0  0  0  0
   12.0910   -0.9440   22.8760 C   0  0  0  0  0  0  0  0  0  0  0  0
   12.7640   -2.0610   22.1530 C   0  0  0  0  0  0  0  0  0  0  0  0
   10.9440    1.1800   24.1470 C   0  0  0  0  0  0  0  0  0  0  0  0
   12.8210    0.3820   22.9010 C   0  0  0  0  0  0  0  0  0  0  0  0
   12.1860    1.4130   23.5520 C   0  0  0  0  0  0  0  0  0  0  0  0
  1  2  1  0
  1  3  2  0
  1  4  1  0
  4  5  1  0
  4  6  1  0
  5  7  1  0
  6  8  1  0
  7  9  1  0
  8  9  1  0
  9 10  1  0
 10 11  1  0
 11 12  2  0
 11 13  1  0
 13 14  1  0
 12 15  1  0
 13 16  2  0
 15 17  2  0
 16 17  1  0
M  END
