x0831_0-x1374_1-x0692_1-x1375_1
     RDKit          3D

 27 29  0  0  0  0  0  0  0  0999 V2000
    6.2860   -3.3100   19.8970 C   0  0  0  0  0  0  0  0  0  0  0  0
    7.2370   -2.9940   18.7570 C   0  0  0  0  0  0  0  0  0  0  0  0
    5.3260   -4.0610   19.6900 O   0  0  0  0  0  0  0  0  0  0  0  0
    6.5720   -2.7820   21.1480 N   0  0  0  0  0  0  0  0  0  0  0  0
    7.1150   -1.4150   21.1000 C   0  0  0  0  0  0  0  0  0  0  0  0
    7.2730   -3.5960   22.1440 C   0  0  2  0  0  0  0  0  0  0  0  0
    6.7330   -5.0340   22.1700 C   0  0  0  0  0  0  0  0  0  0  0  0
    8.5030   -1.3060   21.7580 C   0  0  0  0  0  0  0  0  0  0  0  0
    7.4940   -2.7610   23.3810 C   0  0  0  0  0  0  0  0  0  0  0  0
    8.5780   -1.8120   23.1390 N   0  0  0  0  0  0  0  0  0  0  0  0
    5.3110   -5.1670   22.5960 C   0  0  2  0  0  0  0  0  0  0  0  0
    9.9350   -2.2470   23.4920 C   0  0  0  0  0  0  0  0  0  0  0  0
    4.8850   -4.4970   23.8090 C   0  0  0  0  0  0  0  0  0  0  0  0
    4.9080   -6.4830   22.7040 C   0  0  0  0  0  0  0  0  0  0  0  0
   10.8450   -1.0180   23.4520 C   0  0  0  0  0  0  0  0  0  0  0  0
    4.0230   -5.2610   24.5980 C   0  0  0  0  0  0  0  0  0  0  0  0
    3.7180   -6.7770   23.9070 S   0  0  0  0  0  0  0  0  0  0  0  0
    2.4230   -6.8500   23.2960 O   0  0  0  0  0  0  0  0  0  0  0  0
    4.1820   -7.8300   24.7660 O   0  0  0  0  0  0  0  0  0  0  0  0
   10.2380    0.1970   24.1270 C   0  0  0  0  0  0  0  0  0  0  0  0
   12.0920   -0.9550   22.8650 C   0  0  0  0  0  0  0  0  0  0  0  0
   12.7300   -2.1280   22.1770 C   0  0  0  0  0  0  0  0  0  0  0  0
   10.9960    1.3620   24.1110 C   0  0  0  0  0  0  0  0  0  0  0  0
   12.7920    0.2380   22.8940 C   0  0  0  0  0  0  0  0  0  0  0  0
    1.4750   -7.3830   24.2450 O   0  0  0  0  0  0  0  0  0  0  0  0
    4.6940   -7.2330   25.9770 O   0  0  0  0  0  0  0  0  0  0  0  0
   12.2510    1.3820   23.5040 C   0  0  0  0  0  0  0  0  0  0  0  0
  1  2  1  0
  1  3  2  0
  1  4  1  0
  4  5  1  0
  4  6  1  0
  6  7  1  1
  5  8  1  0
  6  9  1  0
  8 10  1  0
  9 10  1  0
 11  7  1  1
 10 12  1  0
 11 13  1  0
 11 14  1  0
 12 15  1  0
 13 16  2  0
 14 17  1  0
 16 17  1  0
 17 18  1  0
 17 19  1  0
 15 20  2  0
 15 21  1  0
 21 22  1  0
 20 23  1  0
 21 24  2  0
 18 25  1  0
 19 26  1  0
 23 27  2  0
 24 27  1  0
M  END
