x0831_0-x0831_1-x1412_1-x0770_1-x0692_1-x0434_2-x1334_0-x1418_1-x0397_0-x1385_1-x1334_1
     RDKit          3D

 35 39  0  0  0  0  0  0  0  0999 V2000
    6.1840   -3.4400   19.8370 C   0  0  0  0  0  0  0  0  0  0  0  0
    7.2830   -3.0920   18.8140 C   0  0  0  0  0  0  0  0  0  0  0  0
    5.2450   -4.1980   19.6740 O   0  0  0  0  0  0  0  0  0  0  0  0
    6.3430   -2.8370   21.0420 N   0  0  0  0  0  0  0  0  0  0  0  0
    6.4370   -1.3740   20.8690 C   0  0  2  0  0  0  0  0  0  0  0  0
    7.1620   -3.5940   21.9590 C   0  0  1  0  0  0  0  0  0  0  0  0
    7.8860   -0.8990   21.0030 C   0  0  0  0  0  0  0  0  0  0  0  0
    7.4440   -2.9230   23.2990 C   0  0  0  0  0  0  0  0  0  0  0  0
    6.3830   -4.4460   22.9790 C   0  0  0  0  0  0  0  0  0  0  0  0
    5.3880   -0.3980   21.3850 C   0  0  0  0  0  0  0  0  0  0  0  0
    8.3840   -1.8140   23.1370 N   0  0  0  0  0  0  0  0  0  0  0  0
    8.8270   -1.7240   21.8500 C   0  0  0  0  0  0  0  0  0  0  0  0
    6.9500   -5.4590   23.3140 C   0  0  0  0  0  0  0  0  0  0  0  0
    5.6840   -5.7980   22.4940 C   0  0  0  0  0  0  0  0  0  0  0  0
    4.8210    0.4590   20.4280 C   0  0  0  0  0  0  0  0  0  0  0  0
    9.4870   -1.8910   24.0230 C   0  0  1  0  0  0  0  0  0  0  0  0
    6.1340   -0.1380   19.8800 C   0  0  0  0  0  0  0  0  0  0  0  0
    4.4260    1.2750   19.3220 C   0  0  0  0  0  0  0  0  0  0  0  0
   10.1100   -3.2410   24.1410 C   0  0  0  0  0  0  0  0  0  0  0  0
   10.5910   -0.8680   23.7430 C   0  0  0  0  0  0  0  0  0  0  0  0
    6.7980    0.0230   18.6690 C   0  0  0  0  0  0  0  0  0  0  0  0
    5.2520    1.3880   17.9880 C   0  0  0  0  0  0  0  0  0  0  0  0
   10.2440    0.4500   24.1270 C   0  0  0  0  0  0  0  0  0  0  0  0
   11.8920   -1.0340   23.1500 C   0  0  0  0  0  0  0  0  0  0  0  0
    9.5130   -4.1140   25.1650 C   0  0  0  0  0  0  0  0  0  0  0  0
    6.3750    0.7780   17.7070 N   0  0  0  0  0  0  0  0  0  0  0  0
   12.4550   -2.3210   22.6580 C   0  0  0  0  0  0  0  0  0  0  0  0
   11.0780    1.5310   23.9640 C   0  0  0  0  0  0  0  0  0  0  0  0
   12.6860    0.1290   23.0210 C   0  0  0  0  0  0  0  0  0  0  0  0
    9.9610   -5.4220   25.4050 C   0  0  0  0  0  0  0  0  0  0  0  0
    8.2090   -3.7780   26.2520 S   0  0  0  0  0  0  0  0  0  0  0  0
   12.3170    1.3980   23.4090 C   0  0  0  0  0  0  0  0  0  0  0  0
    9.3220   -6.0920   26.3990 C   0  0  0  0  0  0  0  0  0  0  0  0
    8.3100   -5.3030   26.9830 C   0  0  0  0  0  0  0  0  0  0  0  0
    7.2560   -5.7190   28.2620 Cl  0  0  0  0  0  0  0  0  0  0  0  0
  1  2  1  0
  1  3  2  0
  1  4  1  0
  4  5  1  0
  4  6  1  0
  5  7  1  0
  6  8  1  0
  6  9  1  1
  5 10  1  1
  8 11  1  0
  7 12  1  0
 11 12  1  0
  9 13  1  0
  9 14  1  0
 13 14  1  0
 10 15  1  0
 11 16  1  0
 15 17  2  0
 15 18  1  0
 16 19  1  6
 16 20  1  0
 17 21  1  0
 18 22  2  0
 20 23  2  0
 20 24  1  0
 19 25  1  0
 21 26  2  0
 22 26  1  0
 24 27  1  0
 23 28  1  0
 24 29  2  0
 25 30  2  0
 25 31  1  0
 28 32  2  0
 29 32  1  0
 30 33  1  0
 31 34  1  0
 33 34  2  0
 34 35  1  0
M  END
