x0831_0-x1418_1-x0540_3-x0397_0-x0692_1
     RDKit          3D

 26 28  0  0  0  0  0  0  0  0999 V2000
    6.2940   -3.2750   19.9570 C   0  0  0  0  0  0  0  0  0  0  0  0
    7.3110   -2.9480   18.8600 C   0  0  0  0  0  0  0  0  0  0  0  0
    5.3970   -4.0940   19.7330 O   0  0  0  0  0  0  0  0  0  0  0  0
    6.3970   -2.6700   21.2320 N   0  0  0  0  0  0  0  0  0  0  0  0
    6.4900   -3.4030   22.4940 C   0  0  2  0  0  0  0  0  0  0  0  0
    7.1230   -1.3990   21.4610 C   0  0  2  0  0  0  0  0  0  0  0  0
    6.5980   -0.2900   20.5130 C   0  0  0  0  0  0  0  0  0  0  0  0
    7.9000   -3.5540   22.8220 C   0  0  0  0  0  0  0  0  0  0  0  0
    8.5200   -1.6030   21.7030 C   0  0  0  0  0  0  0  0  0  0  0  0
    5.7690   -4.5890   22.4570 C   0  0  0  0  0  0  0  0  0  0  0  0
    5.2670    0.2570   21.0850 C   0  0  0  0  0  0  0  0  0  0  0  0
    8.6220   -2.2730   22.8810 N   0  0  0  0  0  0  0  0  0  0  0  0
    6.4910   -5.5280   23.0800 C   0  0  0  0  0  0  0  0  0  0  0  0
    6.2800   -6.1110   21.9140 C   0  0  0  0  0  0  0  0  0  0  0  0
    5.3250    1.2150   22.3240 C   0  0  0  0  0  0  0  0  0  0  0  0
   10.0210   -2.4070   23.2870 C   0  0  0  0  0  0  0  0  0  0  0  0
    4.2410    2.2130   22.3010 N   0  0  0  0  0  0  0  0  0  0  0  0
   10.7850   -1.1000   23.3700 C   0  0  0  0  0  0  0  0  0  0  0  0
    3.1350    2.2100   23.2630 C   0  0  0  0  0  0  0  0  0  0  0  0
   10.0780    0.0450   24.0990 C   0  0  0  0  0  0  0  0  0  0  0  0
   12.0710   -0.9080   22.8100 C   0  0  0  0  0  0  0  0  0  0  0  0
    3.1340    1.2560   24.0330 O   0  0  0  0  0  0  0  0  0  0  0  0
   12.7960   -1.9900   22.0850 C   0  0  0  0  0  0  0  0  0  0  0  0
   10.8150    1.3710   24.1720 C   0  0  0  0  0  0  0  0  0  0  0  0
   12.7320    0.3130   22.8980 C   0  0  0  0  0  0  0  0  0  0  0  0
   12.1630    1.4100   23.5310 C   0  0  0  0  0  0  0  0  0  0  0  0
  1  2  1  0
  1  3  2  0
  1  4  1  0
  4  5  1  0
  4  6  1  0
  6  7  1  6
  5  8  1  0
  6  9  1  0
  5 10  1  6
  7 11  1  0
  8 12  1  0
  9 12  1  0
 10 13  1  0
 10 14  1  0
 13 14  1  0
 11 15  1  0
 12 16  1  0
 15 17  1  0
 16 18  1  0
 17 19  1  0
 18 20  2  0
 18 21  1  0
 19 22  2  0
 21 23  1  0
 20 24  1  0
 21 25  2  0
 24 26  2  0
 25 26  1  0
M  END
