x0831_1-x0770_1-x0397_0-x0692_1-x1418_1-x0831_0-x1334_0-x1374_1-x0426_1-x1334_1
     RDKit          3D

 44 49  0  0  0  0  0  0  0  0999 V2000
    2.0510   -7.2960   23.6460 O   0  0  0  0  0  0  0  0  0  0  0  0
    2.4690   -7.9650   24.8200 C   0  0  0  0  0  0  0  0  0  0  0  0
    3.8800   -7.9770   24.8630 O   0  0  0  0  0  0  0  0  0  0  0  0
    4.4450   -7.1470   23.8630 C   0  0  0  0  0  0  0  0  0  0  0  0
    5.0220   -6.0620   24.4410 C   0  0  0  0  0  0  0  0  0  0  0  0
    6.2830   -5.6900   23.7150 C   0  0  2  0  0  0  0  0  0  0  0  0
    6.2060   -4.9090   22.4680 C   0  0  2  0  0  0  0  0  0  0  0  0
    6.7360   -6.4520   22.5630 C   0  0  0  0  0  0  0  0  0  0  0  0
    7.1380   -3.7060   22.2270 C   0  0  1  0  0  0  0  0  0  0  0  0
    6.4140   -2.8700   21.3070 N   0  0  0  0  0  0  0  0  0  0  0  0
    7.5550   -3.0280   23.3590 C   0  0  0  0  0  0  0  0  0  0  0  0
    6.2960   -3.3990   20.0150 C   0  0  0  0  0  0  0  0  0  0  0  0
    8.5160   -1.9390   23.1400 N   0  0  0  0  0  0  0  0  0  0  0  0
    6.2280   -1.4770   21.7240 C   0  0  0  0  0  0  0  0  0  0  0  0
    5.3900   -4.2060   19.7700 O   0  0  0  0  0  0  0  0  0  0  0  0
    7.2950   -3.0150   18.9190 C   0  0  0  0  0  0  0  0  0  0  0  0
    9.9240   -2.2580   23.3100 C   0  0  2  0  0  0  0  0  0  0  0  0
    8.4900   -1.2270   21.8330 C   0  0  0  0  0  0  0  0  0  0  0  0
    7.3020   -0.7360   21.3210 C   0  0  2  0  0  0  0  0  0  0  0  0
    6.9990    0.7510   21.4930 C   0  0  2  0  0  0  0  0  0  0  0  0
   10.4910   -3.1950   24.3460 C   0  0  0  0  0  0  0  0  0  0  0  0
   10.7210   -1.0360   23.3580 C   0  0  0  0  0  0  0  0  0  0  0  0
    6.2770    1.2220   22.8110 C   0  0  0  0  0  0  0  0  0  0  0  0
    6.2200    1.0420   20.2350 C   0  0  0  0  0  0  0  0  0  0  0  0
   10.1570    0.0650   23.8930 C   0  0  0  0  0  0  0  0  0  0  0  0
   12.0580   -0.9220   22.8690 C   0  0  0  0  0  0  0  0  0  0  0  0
    9.6800   -4.0940   25.2640 C   0  0  0  0  0  0  0  0  0  0  0  0
    4.7710    1.6250   22.6380 C   0  0  1  0  0  0  0  0  0  0  0  0
   12.7930   -2.0550   22.2400 C   0  0  0  0  0  0  0  0  0  0  0  0
    5.0210    1.7640   20.1120 C   0  0  0  0  0  0  0  0  0  0  0  0
    6.8160    0.4690   18.9480 C   0  0  0  0  0  0  0  0  0  0  0  0
   10.8050    1.2820   23.9950 C   0  0  0  0  0  0  0  0  0  0  0  0
   12.7300    0.2830   22.9600 C   0  0  0  0  0  0  0  0  0  0  0  0
    9.9620   -5.3960   25.5150 C   0  0  0  0  0  0  0  0  0  0  0  0
    8.2720   -3.6950   26.2160 S   0  0  0  0  0  0  0  0  0  0  0  0
    4.2230    2.3490   23.7620 N   0  0  0  0  0  0  0  0  0  0  0  0
    4.3720    2.3260   21.3330 C   0  0  0  0  0  0  0  0  0  0  0  0
    4.4960    1.9240   18.8500 C   0  0  0  0  0  0  0  0  0  0  0  0
    6.3470    0.5980   17.7370 N   0  0  0  0  0  0  0  0  0  0  0  0
   12.1190    1.3850   23.5160 C   0  0  0  0  0  0  0  0  0  0  0  0
    9.0710   -6.0750   26.4980 C   0  0  0  0  0  0  0  0  0  0  0  0
    8.1100   -5.2350   26.9580 C   0  0  0  0  0  0  0  0  0  0  0  0
    6.8910   -5.5820   28.1040 Cl  0  0  0  0  0  0  0  0  0  0  0  0
    5.1550    1.3620   17.7350 C   0  0  0  0  0  0  0  0  0  0  0  0
  1  2  1  0
  2  3  1  0
  3  4  1  0
  4  5  1  0
  6  5  1  6
  6  7  1  0
  6  8  1  0
  7  8  1  6
  7  9  1  0
  9 10  1  0
  9 11  1  1
 10 12  1  0
 11 13  1  0
 10 14  1  0
 12 15  2  0
 12 16  1  0
 13 17  1  0
 13 18  1  0
 19 14  1  1
 18 19  1  0
 19 20  1  0
 17 21  1  1
 17 22  1  0
 20 23  1  1
 20 24  1  0
 22 25  2  0
 22 26  1  0
 21 27  1  0
 23 28  1  0
 26 29  1  0
 24 30  2  0
 24 31  1  0
 25 32  1  0
 26 33  2  0
 27 34  2  0
 27 35  1  0
 28 36  1  1
 28 37  1  0
 30 37  1  0
 30 38  1  0
 31 39  2  0
 32 40  2  0
 33 40  1  0
 34 41  1  0
 35 42  1  0
 41 42  2  0
 42 43  1  0
 38 44  2  0
 39 44  1  0
M  END
