x0831_0-x0831_1-x1334_1-x0426_1-x0397_0
     RDKit          3D

 32 36  0  0  0  0  0  0  0  0999 V2000
    6.1980   -3.4870   20.0790 C   0  0  0  0  0  0  0  0  0  0  0  0
    7.1270   -3.0270   18.9680 C   0  0  0  0  0  0  0  0  0  0  0  0
    5.3090   -4.2960   19.8060 O   0  0  0  0  0  0  0  0  0  0  0  0
    6.3970   -3.0070   21.3700 N   0  0  0  0  0  0  0  0  0  0  0  0
    6.0940   -1.7990   21.6580 C   0  0  0  0  0  0  0  0  0  0  0  0
    6.9760   -3.8290   22.4160 C   0  0  1  0  0  0  0  0  0  0  0  0
    7.1600   -0.9860   21.3670 C   0  0  1  0  0  0  0  0  0  0  0  0
    7.6260   -3.1410   23.4620 C   0  0  0  0  0  0  0  0  0  0  0  0
    5.9020   -4.8350   22.8500 C   0  0  0  0  0  0  0  0  0  0  0  0
    6.6730    0.4440   21.4860 C   0  0  2  0  0  0  0  0  0  0  0  0
    8.5840   -2.0630   23.1520 N   0  0  0  0  0  0  0  0  0  0  0  0
    8.5710   -1.3850   21.8580 C   0  0  0  0  0  0  0  0  0  0  0  0
    6.2200   -6.1250   23.0280 C   0  0  0  0  0  0  0  0  0  0  0  0
    5.4940   -6.1660   21.9500 C   0  0  0  0  0  0  0  0  0  0  0  0
    5.5530    0.7230   22.5240 C   0  0  0  0  0  0  0  0  0  0  0  0
    9.9830   -2.3040   23.5050 C   0  0  0  0  0  0  0  0  0  0  0  0
    6.1220    0.8280   20.1550 C   0  0  0  0  0  0  0  0  0  0  0  0
    4.1520    1.3930   22.4860 C   0  0  1  0  0  0  0  0  0  0  0  0
    4.8130    1.6460   20.0230 C   0  0  0  0  0  0  0  0  0  0  0  0
    6.8000    0.4350   19.0200 C   0  0  0  0  0  0  0  0  0  0  0  0
   10.8000   -1.0200   23.5010 C   0  0  0  0  0  0  0  0  0  0  0  0
    3.9540    2.1730   23.4990 N   0  0  0  0  0  0  0  0  0  0  0  0
    3.9610    2.1170   21.1730 C   0  0  0  0  0  0  0  0  0  0  0  0
    4.4460    1.9460   18.7250 C   0  0  0  0  0  0  0  0  0  0  0  0
    6.4240    0.7280   17.7770 N   0  0  0  0  0  0  0  0  0  0  0  0
   10.3060    0.1090   24.1170 C   0  0  0  0  0  0  0  0  0  0  0  0
   12.0560   -0.9480   22.8660 C   0  0  0  0  0  0  0  0  0  0  0  0
   12.7060   -2.0960   22.1560 C   0  0  0  0  0  0  0  0  0  0  0  0
    5.2070    1.5220   17.6510 C   0  0  0  0  0  0  0  0  0  0  0  0
   11.0290    1.2890   24.1000 C   0  0  0  0  0  0  0  0  0  0  0  0
   12.7030    0.2610   22.9050 C   0  0  0  0  0  0  0  0  0  0  0  0
   12.2770    1.4300   23.4860 C   0  0  0  0  0  0  0  0  0  0  0  0
  1  2  1  0
  1  3  2  0
  1  4  1  0
  4  5  1  0
  4  6  1  0
  7  5  1  1
  6  8  1  0
  6  9  1  1
  7 10  1  0
  8 11  1  0
  7 12  1  0
 11 12  1  0
  9 13  1  0
  9 14  1  0
 13 14  1  0
 10 15  1  1
 11 16  1  0
 10 17  1  0
 15 18  1  0
 17 19  2  0
 17 20  1  0
 16 21  1  0
 18 22  1  1
 18 23  1  0
 19 23  1  0
 19 24  1  0
 20 25  2  0
 21 26  2  0
 21 27  1  0
 27 28  1  0
 24 29  2  0
 25 29  1  0
 26 30  1  0
 27 31  2  0
 30 32  2  0
 31 32  1  0
M  END
