x0831_0-x1385_1-x0770_1-x1386_1-x0692_1
     RDKit          3D

 17 18  0  0  0  0  0  0  0  0999 V2000
    6.3990   -3.3340   19.9140 C   0  0  0  0  0  0  0  0  0  0  0  0
    7.3720   -2.9950   18.7910 C   0  0  0  0  0  0  0  0  0  0  0  0
    5.4370   -4.0940   19.7380 O   0  0  0  0  0  0  0  0  0  0  0  0
    6.6610   -2.7590   21.1640 N   0  0  0  0  0  0  0  0  0  0  0  0
    6.5290   -3.4510   22.4550 C   0  0  0  0  0  0  0  0  0  0  0  0
    7.4300   -1.4920   21.2920 C   0  0  0  0  0  0  0  0  0  0  0  0
    7.9300   -3.5870   23.1180 C   0  0  0  0  0  0  0  0  0  0  0  0
    8.6870   -1.7030   21.7830 C   0  0  0  0  0  0  0  0  0  0  0  0
    8.7320   -2.3550   23.0910 N   0  0  0  0  0  0  0  0  0  0  0  0
   10.1160   -2.5680   23.5340 C   0  0  0  0  0  0  0  0  0  0  0  0
   10.8390   -1.1970   23.5330 C   0  0  0  0  0  0  0  0  0  0  0  0
   10.1990   -0.1310   24.2050 C   0  0  0  0  0  0  0  0  0  0  0  0
   12.0790   -0.9540   22.9000 C   0  0  0  0  0  0  0  0  0  0  0  0
   12.7990   -2.0380   22.1660 C   0  0  0  0  0  0  0  0  0  0  0  0
   10.8620    1.2130   24.2050 C   0  0  0  0  0  0  0  0  0  0  0  0
   12.6880    0.2870   22.9160 C   0  0  0  0  0  0  0  0  0  0  0  0
   12.0720    1.3880   23.5710 C   0  0  0  0  0  0  0  0  0  0  0  0
  1  2  1  0
  1  3  2  0
  1  4  1  0
  4  5  1  0
  4  6  1  0
  5  7  1  0
  6  8  1  0
  7  9  1  0
  8  9  1  0
  9 10  1  0
 10 11  1  0
 11 12  2  0
 11 13  1  0
 13 14  1  0
 12 15  1  0
 13 16  2  0
 15 17  2  0
 16 17  1  0
M  END
