x0831_1-x0692_0-x0397_0
     RDKit          3D

 21 23  0  0  0  0  0  0  0  0999 V2000
    6.1140   -3.4140   19.9540 C   0  0  0  0  0  0  0  0  0  0  0  0
    7.1390   -3.0460   18.8820 C   0  0  0  0  0  0  0  0  0  0  0  0
    5.2230   -4.2280   19.7390 O   0  0  0  0  0  0  0  0  0  0  0  0
    6.2280   -2.8400   21.1990 N   0  0  0  0  0  0  0  0  0  0  0  0
    6.1150   -1.3810   21.3140 C   0  0  0  0  0  0  0  0  0  0  0  0
    6.9160   -3.5140   22.3040 C   0  0  1  0  0  0  0  0  0  0  0  0
    7.4850   -0.6720   21.1230 C   0  0  0  0  0  0  0  0  0  0  0  0
    7.1820   -2.6760   23.3570 C   0  0  0  0  0  0  0  0  0  0  0  0
    6.0090   -4.6640   22.6540 C   0  0  0  0  0  0  0  0  0  0  0  0
    8.3700   -1.8670   23.1260 N   0  0  0  0  0  0  0  0  0  0  0  0
    8.6110   -1.4880   21.8270 C   0  0  0  0  0  0  0  0  0  0  0  0
    6.3970   -5.7590   23.2380 C   0  0  0  0  0  0  0  0  0  0  0  0
    6.0620   -6.1480   21.9380 C   0  0  0  0  0  0  0  0  0  0  0  0
    9.5940   -2.4350   23.6750 C   0  0  0  0  0  0  0  0  0  0  0  0
   10.6880   -1.4480   23.5060 C   0  0  0  0  0  0  0  0  0  0  0  0
   10.3700    0.0410   23.6930 C   0  0  0  0  0  0  0  0  0  0  0  0
   11.9920   -1.8030   23.1700 C   0  0  0  0  0  0  0  0  0  0  0  0
   11.3890    0.9520   23.5060 C   0  0  0  0  0  0  0  0  0  0  0  0
   12.9750   -0.8380   23.0010 C   0  0  0  0  0  0  0  0  0  0  0  0
   11.0890    2.4000   23.6610 C   0  0  0  0  0  0  0  0  0  0  0  0
   12.6710    0.5060   23.1660 C   0  0  0  0  0  0  0  0  0  0  0  0
  1  2  1  0
  1  3  2  0
  1  4  1  0
  4  5  1  0
  4  6  1  0
  5  7  1  0
  6  8  1  0
  6  9  1  1
  8 10  1  0
  7 11  1  0
 10 11  1  0
  9 12  1  0
  9 13  1  0
 12 13  1  0
 10 14  1  0
 14 15  1  0
 15 16  2  0
 15 17  1  0
 16 18  1  0
 17 19  2  0
 18 20  1  0
 18 21  2  0
 19 21  1  0
M  END
