x0831_0-x1418_1-x0072_0
     RDKit          3D

 23 25  0  0  0  0  0  0  0  0999 V2000
    6.4190   -3.3130   19.9000 C   0  0  0  0  0  0  0  0  0  0  0  0
    7.3550   -2.9890   18.7530 C   0  0  0  0  0  0  0  0  0  0  0  0
    5.4550   -4.0800   19.7460 O   0  0  0  0  0  0  0  0  0  0  0  0
    6.7440   -2.7230   21.1280 N   0  0  0  0  0  0  0  0  0  0  0  0
    6.6110   -3.3440   22.4440 C   0  0  0  0  0  0  0  0  0  0  0  0
    7.5100   -1.4750   21.1110 C   0  0  0  0  0  0  0  0  0  0  0  0
    7.9700   -3.3900   23.2150 C   0  0  2  0  0  0  0  0  0  0  0  0
    8.7160   -1.4700   21.8860 C   0  0  0  0  0  0  0  0  0  0  0  0
    7.8870   -3.0720   24.6770 N   0  0  0  0  0  0  0  0  0  0  0  0
    9.0350   -2.5570   22.5870 N   0  0  0  0  0  0  0  0  0  0  0  0
    7.9550   -4.3140   25.9500 S   0  0  0  0  0  0  0  0  0  0  0  0
    9.7620   -2.1970   23.6710 C   0  0  2  0  0  0  0  0  0  0  0  0
    8.8520   -1.9860   24.8350 C   0  0  0  0  0  0  0  0  0  0  0  0
    6.3800   -5.1440   25.9500 C   0  0  0  0  0  0  0  0  0  0  0  0
    9.1270   -5.3400   25.6530 O   0  0  0  0  0  0  0  0  0  0  0  0
    8.1490   -3.5720   27.3490 O   0  0  0  0  0  0  0  0  0  0  0  0
   10.6210   -0.9470   23.5550 C   0  0  0  0  0  0  0  0  0  0  0  0
   10.2220    0.2270   24.1720 C   0  0  0  0  0  0  0  0  0  0  0  0
   11.8400   -0.9600   22.8330 C   0  0  0  0  0  0  0  0  0  0  0  0
   12.3790   -2.1710   22.1160 C   0  0  0  0  0  0  0  0  0  0  0  0
   11.0520    1.4150   24.0690 C   0  0  0  0  0  0  0  0  0  0  0  0
   12.6090    0.1830   22.7640 C   0  0  0  0  0  0  0  0  0  0  0  0
   12.2440    1.3810   23.3660 C   0  0  0  0  0  0  0  0  0  0  0  0
  1  2  1  0
  1  3  2  0
  1  4  1  0
  4  5  1  0
  4  6  1  0
  7  5  1  6
  6  8  1  0
  7  9  1  0
  7 10  1  0
  8 10  1  0
  9 11  1  0
 10 12  1  0
  9 13  1  0
 12 13  1  0
 11 14  1  0
 11 15  2  0
 11 16  2  0
 12 17  1  6
 17 18  2  0
 17 19  1  0
 19 20  1  0
 18 21  1  0
 19 22  2  0
 21 23  2  0
 22 23  1  0
M  END
