x0831_0-x1334_1-x1386_1-x0769_1-x0692_1
     RDKit          3D

 29 31  0  0  0  0  0  0  0  0999 V2000
    6.2680   -3.3640   19.9090 C   0  0  0  0  0  0  0  0  0  0  0  0
    7.2720   -2.9940   18.8220 C   0  0  0  0  0  0  0  0  0  0  0  0
    5.3270   -4.1300   19.7170 O   0  0  0  0  0  0  0  0  0  0  0  0
    6.4870   -2.8040   21.1670 N   0  0  0  0  0  0  0  0  0  0  0  0
    7.0370   -1.4580   21.3170 C   0  0  0  0  0  0  0  0  0  0  0  0
    6.7100   -3.7100   22.2130 C   0  0  0  0  0  0  0  0  0  0  0  0
    8.4220   -1.5000   21.9460 C   0  0  0  0  0  0  0  0  0  0  0  0
    7.9570   -3.7750   22.7950 C   0  0  0  0  0  0  0  0  0  0  0  0
    8.5050   -2.3990   23.2210 C   0  0  0  0  0  0  0  0  0  0  0  0
    7.5920   -1.8660   24.3760 C   0  0  0  0  0  0  0  0  0  0  0  0
   10.0060   -2.4330   23.5970 C   0  0  0  0  0  0  0  0  0  0  0  0
    6.3800   -2.7890   24.7500 C   0  0  0  0  0  0  0  0  0  0  0  0
   10.7120   -1.1430   23.6000 C   0  0  0  0  0  0  0  0  0  0  0  0
    5.7070   -2.4710   25.9780 O   0  0  0  0  0  0  0  0  0  0  0  0
   10.1680   -0.0140   24.2320 C   0  0  0  0  0  0  0  0  0  0  0  0
   11.9790   -0.9930   22.9480 C   0  0  0  0  0  0  0  0  0  0  0  0
   12.6990   -2.0840   22.2220 C   0  0  0  0  0  0  0  0  0  0  0  0
    4.3300   -2.5460   25.9710 C   0  0  0  0  0  0  0  0  0  0  0  0
   10.8770    1.2230   24.1940 C   0  0  0  0  0  0  0  0  0  0  0  0
   12.6450    0.2390   22.9440 C   0  0  0  0  0  0  0  0  0  0  0  0
    3.7510   -3.7880   26.1190 C   0  0  0  0  0  0  0  0  0  0  0  0
    3.5200   -1.4180   25.8190 C   0  0  0  0  0  0  0  0  0  0  0  0
   12.0780    1.3250   23.5640 C   0  0  0  0  0  0  0  0  0  0  0  0
    4.6000   -5.3480   26.3450 S   0  0  0  0  0  0  0  0  0  0  0  0
    2.3200   -3.7080   26.0790 C   0  0  0  0  0  0  0  0  0  0  0  0
    2.1260   -1.5320   25.8100 C   0  0  0  0  0  0  0  0  0  0  0  0
    6.1570   -5.1250   26.5090 O   0  0  0  0  0  0  0  0  0  0  0  0
    4.1650   -6.4240   25.2570 O   0  0  0  0  0  0  0  0  0  0  0  0
    1.4420   -2.7230   25.9400 C   0  0  0  0  0  0  0  0  0  0  0  0
  1  2  1  0
  1  3  2  0
  1  4  1  0
  4  5  1  0
  4  6  1  0
  5  7  1  0
  6  8  1  0
  7  9  1  0
  8  9  1  0
  9 10  1  0
  9 11  1  0
 10 12  1  0
 11 13  1  0
 12 14  1  0
 13 15  2  0
 13 16  1  0
 16 17  1  0
 14 18  1  0
 15 19  1  0
 16 20  2  0
 18 21  2  0
 18 22  1  0
 19 23  2  0
 20 23  1  0
 21 24  1  0
 21 25  1  0
 22 26  2  0
 24 27  2  0
 24 28  2  0
 25 29  2  0
 26 29  1  0
M  END
