x0831_0-x1385_1-x0540_3-x1334_1
     RDKit          3D

 23 24  0  0  0  0  0  0  0  0999 V2000
    6.3170   -3.3330   19.9800 C   0  0  0  0  0  0  0  0  0  0  0  0
    7.3160   -2.9580   18.8860 C   0  0  0  0  0  0  0  0  0  0  0  0
    5.3690   -4.0910   19.7370 O   0  0  0  0  0  0  0  0  0  0  0  0
    6.5150   -2.8270   21.2910 N   0  0  0  0  0  0  0  0  0  0  0  0
    6.6330   -3.6700   22.4900 C   0  0  0  0  0  0  0  0  0  0  0  0
    7.0320   -1.4870   21.5520 C   0  0  2  0  0  0  0  0  0  0  0  0
    6.4240   -0.4060   20.6530 C   0  0  0  0  0  0  0  0  0  0  0  0
    7.9460   -3.7350   23.0020 C   0  0  0  0  0  0  0  0  0  0  0  0
    8.3730   -1.5970   21.8490 C   0  0  0  0  0  0  0  0  0  0  0  0
    5.1710    0.3290   21.2260 C   0  0  0  0  0  0  0  0  0  0  0  0
    8.6080   -2.4060   23.0810 N   0  0  0  0  0  0  0  0  0  0  0  0
    5.3260    1.1590   22.3870 C   0  0  0  0  0  0  0  0  0  0  0  0
   10.0530   -2.5380   23.4240 C   0  0  0  0  0  0  0  0  0  0  0  0
    4.2830    2.2040   22.4790 N   0  0  0  0  0  0  0  0  0  0  0  0
   10.7880   -1.2010   23.4540 C   0  0  0  0  0  0  0  0  0  0  0  0
    3.1480    2.0670   23.2490 C   0  0  0  0  0  0  0  0  0  0  0  0
   10.0420   -0.1100   24.1810 C   0  0  0  0  0  0  0  0  0  0  0  0
   12.0470   -0.9600   22.8610 C   0  0  0  0  0  0  0  0  0  0  0  0
    3.0770    1.4490   24.3110 O   0  0  0  0  0  0  0  0  0  0  0  0
   12.7870   -2.0740   22.1180 C   0  0  0  0  0  0  0  0  0  0  0  0
   10.7120    1.2960   24.2410 C   0  0  0  0  0  0  0  0  0  0  0  0
   12.6930    0.2640   22.8940 C   0  0  0  0  0  0  0  0  0  0  0  0
   11.9520    1.4150   23.6230 C   0  0  0  0  0  0  0  0  0  0  0  0
  1  2  1  0
  1  3  2  0
  1  4  1  0
  4  5  1  0
  4  6  1  0
  6  7  1  6
  5  8  1  0
  6  9  1  0
  7 10  1  0
  8 11  1  0
  9 11  1  0
 10 12  1  0
 11 13  1  0
 12 14  1  0
 13 15  1  0
 14 16  1  0
 15 17  2  0
 15 18  1  0
 16 19  2  0
 18 20  1  0
 17 21  1  0
 18 22  2  0
 21 23  2  0
 22 23  1  0
M  END
