x0831_0-x1374_1-x0770_1-x1334_1
     RDKit          3D

 25 27  0  0  0  0  0  0  0  0999 V2000
    6.3810   -3.2840   19.8730 C   0  0  0  0  0  0  0  0  0  0  0  0
    7.3590   -2.9790   18.7540 C   0  0  0  0  0  0  0  0  0  0  0  0
    5.3930   -4.0210   19.6900 O   0  0  0  0  0  0  0  0  0  0  0  0
    6.6800   -2.7160   21.1210 N   0  0  0  0  0  0  0  0  0  0  0  0
    7.3530   -1.4130   21.1560 C   0  0  0  0  0  0  0  0  0  0  0  0
    6.7120   -3.4970   22.3550 C   0  0  1  0  0  0  0  0  0  0  0  0
    6.0680   -4.8400   22.1010 C   0  0  0  0  0  0  0  0  0  0  0  0
    8.7410   -1.4570   21.8320 C   0  0  0  0  0  0  0  0  0  0  0  0
    7.9700   -3.5610   22.9280 C   0  0  0  0  0  0  0  0  0  0  0  0
    8.6980   -2.2890   23.0750 N   0  0  0  0  0  0  0  0  0  0  0  0
    4.8080   -5.1290   22.8820 C   0  0  2  0  0  0  0  0  0  0  0  0
   10.0730   -2.3760   23.5820 C   0  0  0  0  0  0  0  0  0  0  0  0
    4.5610   -4.6840   24.1650 C   0  0  0  0  0  0  0  0  0  0  0  0
    4.6610   -6.5110   22.8670 C   0  0  0  0  0  0  0  0  0  0  0  0
   10.8660   -1.0690   23.5090 C   0  0  0  0  0  0  0  0  0  0  0  0
    3.9070   -5.4500   25.0740 C   0  0  0  0  0  0  0  0  0  0  0  0
    3.6050   -6.8620   24.1900 S   0  0  0  0  0  0  0  0  0  0  0  0
    2.2640   -6.9000   23.6440 O   0  0  0  0  0  0  0  0  0  0  0  0
    4.1380   -8.0160   24.8610 O   0  0  0  0  0  0  0  0  0  0  0  0
   10.2860    0.0210   24.0860 C   0  0  0  0  0  0  0  0  0  0  0  0
   12.1460   -0.9190   22.8820 C   0  0  0  0  0  0  0  0  0  0  0  0
   12.8740   -2.0340   22.2100 C   0  0  0  0  0  0  0  0  0  0  0  0
   10.8600    1.4610   24.1420 C   0  0  0  0  0  0  0  0  0  0  0  0
   12.7780    0.4710   22.9070 C   0  0  0  0  0  0  0  0  0  0  0  0
   12.1170    1.5720   23.5190 C   0  0  0  0  0  0  0  0  0  0  0  0
  1  2  1  0
  1  3  2  0
  1  4  1  0
  4  5  1  0
  4  6  1  0
  6  7  1  6
  5  8  1  0
  6  9  1  0
  8 10  1  0
  9 10  1  0
 11  7  1  1
 10 12  1  0
 11 13  1  0
 11 14  1  0
 12 15  1  0
 13 16  2  0
 14 17  1  0
 16 17  1  0
 17 18  1  0
 17 19  1  0
 15 20  2  0
 15 21  1  0
 21 22  1  0
 20 23  1  0
 21 24  2  0
 23 25  2  0
 24 25  1  0
M  END
