x0831_0-x1385_1-x1334_1-x0691_1
     RDKit          3D

 30 32  0  0  0  0  0  0  0  0999 V2000
    6.3700   -3.2760   19.8900 C   0  0  0  0  0  0  0  0  0  0  0  0
    7.3610   -3.0060   18.7830 C   0  0  0  0  0  0  0  0  0  0  0  0
    5.3800   -3.9750   19.6580 O   0  0  0  0  0  0  0  0  0  0  0  0
    6.6540   -2.7720   21.1490 N   0  0  0  0  0  0  0  0  0  0  0  0
    6.8450   -3.6760   22.2890 C   0  0  0  0  0  0  0  0  0  0  0  0
    7.4930   -1.5530   21.1960 C   0  0  0  0  0  0  0  0  0  0  0  0
    7.6700   -3.0590   23.4470 C   0  0  2  0  0  0  0  0  0  0  0  0
    8.7360   -1.7930   21.6520 C   0  0  0  0  0  0  0  0  0  0  0  0
    6.7080   -2.3880   24.3780 C   0  0  0  0  0  0  0  0  0  0  0  0
    8.7220   -2.0990   23.0710 N   0  0  0  0  0  0  0  0  0  0  0  0
    6.1680   -3.2830   25.4830 C   0  0  0  0  0  0  0  0  0  0  0  0
   10.0870   -2.3490   23.5270 C   0  0  0  0  0  0  0  0  0  0  0  0
    5.8060   -4.6630   24.9060 C   0  0  0  0  0  0  0  0  0  0  0  0
   10.8820   -1.0640   23.5140 C   0  0  0  0  0  0  0  0  0  0  0  0
    4.6720   -5.4210   25.9010 S   0  0  0  0  0  0  0  0  0  0  0  0
   10.3390    0.0380   24.1340 C   0  0  0  0  0  0  0  0  0  0  0  0
   12.1290   -0.9420   22.8920 C   0  0  0  0  0  0  0  0  0  0  0  0
    4.2270   -6.6630   25.2960 O   0  0  0  0  0  0  0  0  0  0  0  0
    5.3250   -5.3910   27.4170 O   0  0  0  0  0  0  0  0  0  0  0  0
   12.7880   -2.0920   22.1880 C   0  0  0  0  0  0  0  0  0  0  0  0
    3.4000   -4.2820   25.8620 C   0  0  0  0  0  0  0  0  0  0  0  0
   11.0050    1.2410   24.1360 C   0  0  0  0  0  0  0  0  0  0  0  0
   12.7760    0.2500   22.9110 C   0  0  0  0  0  0  0  0  0  0  0  0
    3.6960   -2.9230   25.9530 C   0  0  0  0  0  0  0  0  0  0  0  0
    2.0390   -4.6780   25.7360 C   0  0  0  0  0  0  0  0  0  0  0  0
   12.2190    1.3630   23.5300 C   0  0  0  0  0  0  0  0  0  0  0  0
    2.7610   -1.9190   25.9360 C   0  0  0  0  0  0  0  0  0  0  0  0
    0.9960   -3.7180   25.7080 C   0  0  0  0  0  0  0  0  0  0  0  0
    3.1040   -0.6280   26.0270 F   0  0  0  0  0  0  0  0  0  0  0  0
    1.3200   -2.3650   25.8060 C   0  0  0  0  0  0  0  0  0  0  0  0
  1  2  1  0
  1  3  2  0
  1  4  1  0
  4  5  1  0
  4  6  1  0
  5  7  1  0
  6  8  1  0
  7  9  1  1
  7 10  1  0
  8 10  1  0
  9 11  1  0
 10 12  1  0
 11 13  1  0
 12 14  1  0
 15 13  1  0
 14 16  2  0
 14 17  1  0
 15 18  2  0
 15 19  2  0
 17 20  1  0
 15 21  1  0
 16 22  1  0
 17 23  2  0
 21 24  2  0
 21 25  1  0
 22 26  2  0
 23 26  1  0
 24 27  1  0
 25 28  2  0
 27 29  1  0
 27 30  2  0
 28 30  1  0
M  END
