x0831_0-x1374_1-x0770_1-x1386_0
     RDKit          3D

 26 28  0  0  0  0  0  0  0  0999 V2000
    6.4490   -3.2820   19.9310 C   0  0  0  0  0  0  0  0  0  0  0  0
    7.4060   -3.0230   18.7960 C   0  0  0  0  0  0  0  0  0  0  0  0
    5.4920   -4.0530   19.7400 O   0  0  0  0  0  0  0  0  0  0  0  0
    6.7270   -2.6590   21.1580 N   0  0  0  0  0  0  0  0  0  0  0  0
    7.4610   -1.3810   21.1140 C   0  0  0  0  0  0  0  0  0  0  0  0
    6.8360   -3.3770   22.4320 C   0  0  1  0  0  0  0  0  0  0  0  0
    6.3370   -4.8160   22.3620 C   0  0  0  0  0  0  0  0  0  0  0  0
    8.6780   -1.4210   21.7100 C   0  0  0  0  0  0  0  0  0  0  0  0
    8.0950   -3.3330   23.0230 C   0  0  0  0  0  0  0  0  0  0  0  0
    8.6690   -1.9990   23.0470 N   0  0  0  0  0  0  0  0  0  0  0  0
    4.9400   -5.0330   22.8310 C   0  0  2  0  0  0  0  0  0  0  0  0
    9.7240   -1.9570   23.9160 C   0  0  1  0  0  0  0  0  0  0  0  0
    4.5980   -4.5490   24.0570 C   0  0  0  0  0  0  0  0  0  0  0  0
    4.7220   -6.5450   22.7800 C   0  0  0  0  0  0  0  0  0  0  0  0
   10.5020   -3.2590   23.8660 C   0  0  0  0  0  0  0  0  0  0  0  0
   10.6340   -0.7790   23.7120 C   0  0  0  0  0  0  0  0  0  0  0  0
    3.8610   -5.3490   24.8670 C   0  0  0  0  0  0  0  0  0  0  0  0
    3.5810   -6.8160   24.0500 S   0  0  0  0  0  0  0  0  0  0  0  0
    2.2470   -6.8260   23.4850 O   0  0  0  0  0  0  0  0  0  0  0  0
    4.0910   -8.0400   25.0190 O   0  0  0  0  0  0  0  0  0  0  0  0
   10.2370    0.4410   24.2090 C   0  0  0  0  0  0  0  0  0  0  0  0
   12.0320   -0.8020   22.9700 C   0  0  0  0  0  0  0  0  0  0  0  0
   12.6420   -2.0220   22.3490 C   0  0  0  0  0  0  0  0  0  0  0  0
   11.0180    1.5730   24.0590 C   0  0  0  0  0  0  0  0  0  0  0  0
   12.7460    0.3840   22.8800 C   0  0  0  0  0  0  0  0  0  0  0  0
   12.2510    1.5670   23.4130 C   0  0  0  0  0  0  0  0  0  0  0  0
  1  2  1  0
  1  3  2  0
  1  4  1  0
  4  5  1  0
  4  6  1  0
  6  7  1  6
  5  8  1  0
  6  9  1  0
  8 10  1  0
  9 10  1  0
 11  7  1  1
 10 12  1  0
 11 13  1  0
 11 14  1  0
 12 15  1  6
 12 16  1  0
 13 17  2  0
 14 18  1  0
 17 18  1  0
 18 19  1  0
 18 20  1  0
 16 21  2  0
 16 22  1  0
 22 23  1  0
 21 24  1  0
 22 25  2  0
 24 26  2  0
 25 26  1  0
M  END
