x0831_0-x0831_1-x0981_1-x0820_1-x0540_3
     RDKit          3D

 47 51  0  0  0  0  0  0  0  0999 V2000
    4.5100   -5.5080   23.1820 C   0  0  0  0  0  0  0  0  0  0  0  0
    3.0940   -6.0780   23.3390 C   0  0  1  0  0  0  0  0  0  0  0  0
    2.7840   -7.2380   22.5050 N   0  0  0  0  0  0  0  0  0  0  0  0
    4.1540   -4.5400   24.7490 C   0  0  0  0  0  0  0  0  0  0  0  0
    2.7930   -6.3500   24.8150 C   0  0  0  0  0  0  0  0  0  0  0  0
    4.5530   -4.5590   26.0430 C   0  0  0  0  0  0  0  0  0  0  0  0
    5.0990   -4.3650   23.7200 C   0  0  0  0  0  0  0  0  0  0  0  0
    1.5900   -7.3850   21.9160 C   0  0  0  0  0  0  0  0  0  0  0  0
    3.0600   -7.7920   25.1920 C   0  0  0  0  0  0  0  0  0  0  0  0
    6.4390   -4.2050   23.9830 C   0  0  0  0  0  0  0  0  0  0  0  0
    5.9160   -4.3990   26.3890 C   0  0  0  0  0  0  0  0  0  0  0  0
    1.3430   -8.6730   21.1970 C   0  0  0  0  0  0  0  0  0  0  0  0
    0.7360   -6.5000   21.9450 O   0  0  0  0  0  0  0  0  0  0  0  0
    2.4110   -8.2650   26.2450 N   0  0  0  0  0  0  0  0  0  0  0  0
    3.8600   -8.4710   24.5530 O   0  0  0  0  0  0  0  0  0  0  0  0
    5.7190   -3.7180   23.2220 C   0  0  0  0  0  0  0  0  0  0  0  0
    6.8860   -4.2170   25.3580 C   0  0  0  0  0  0  0  0  0  0  0  0
    6.3270   -4.4200   27.7430 C   0  0  0  0  0  0  0  0  0  0  0  0
    7.0660   -3.6990   22.1660 C   0  0  1  0  0  0  0  0  0  0  0  0
    8.2410   -4.0590   25.7640 C   0  0  0  0  0  0  0  0  0  0  0  0
    7.6330   -4.2720   28.0760 C   0  0  0  0  0  0  0  0  0  0  0  0
    6.5860   -2.8550   21.0640 N   0  0  0  0  0  0  0  0  0  0  0  0
    7.6320   -2.9530   23.3730 C   0  0  0  0  0  0  0  0  0  0  0  0
    8.6000   -4.0860   27.0800 C   0  0  0  0  0  0  0  0  0  0  0  0
    6.4550   -3.3550   19.8220 C   0  0  0  0  0  0  0  0  0  0  0  0
    8.6600   -1.9270   23.1090 N   0  0  0  0  0  0  0  0  0  0  0  0
    6.3330   -1.4340   21.3300 C   0  0  1  0  0  0  0  0  0  0  0  0
    5.8370   -4.3960   19.6120 O   0  0  0  0  0  0  0  0  0  0  0  0
    7.1470   -2.6790   18.6480 C   0  0  0  0  0  0  0  0  0  0  0  0
    7.5420   -2.5260   22.4730 C   0  0  1  0  0  0  0  0  0  0  0  0
    9.9690   -2.2590   23.6840 C   0  0  0  0  0  0  0  0  0  0  0  0
    7.6000   -0.6190   21.2900 C   0  0  1  0  0  0  0  0  0  0  0  0
    5.8070   -0.5320   21.8180 C   0  0  0  0  0  0  0  0  0  0  0  0
    8.7760   -1.4500   21.7230 C   0  0  0  0  0  0  0  0  0  0  0  0
   10.8280   -1.0220   23.8020 C   0  0  0  0  0  0  0  0  0  0  0  0
    8.1880   -1.0340   21.5060 C   0  0  0  0  0  0  0  0  0  0  0  0
    4.9500    0.2690   21.7230 C   0  0  0  0  0  0  0  0  0  0  0  0
   10.3810    0.0410   24.5840 C   0  0  0  0  0  0  0  0  0  0  0  0
   12.0340   -0.8780   23.0930 C   0  0  0  0  0  0  0  0  0  0  0  0
    5.2800    1.5020   22.5600 C   0  0  0  0  0  0  0  0  0  0  0  0
   12.5900   -1.9690   22.2140 C   0  0  0  0  0  0  0  0  0  0  0  0
   11.1140    1.2040   24.7010 C   0  0  0  0  0  0  0  0  0  0  0  0
   12.7560    0.2960   23.2310 C   0  0  0  0  0  0  0  0  0  0  0  0
    4.1480    2.3990   22.4820 N   0  0  0  0  0  0  0  0  0  0  0  0
   12.3050    1.3300   24.0260 C   0  0  0  0  0  0  0  0  0  0  0  0
    3.0060    2.2640   23.3710 C   0  0  0  0  0  0  0  0  0  0  0  0
    2.9690    1.4200   24.2170 O   0  0  0  0  0  0  0  0  0  0  0  0
  2  1  1  1
  2  3  1  0
  1  4  1  0
  2  5  1  0
  4  6  2  0
  4  7  1  0
  3  8  1  0
  5  9  1  0
  7 10  2  0
  6 11  1  0
  8 12  1  0
  8 13  2  0
  9 14  1  0
  9 15  2  0
 10 16  1  0
 10 17  1  0
 11 17  2  0
 11 18  1  0
 19 16  1  1
 17 20  1  0
 18 21  2  0
 19 22  1  0
 19 23  1  0
 20 24  2  0
 21 24  1  0
 22 25  1  0
 23 26  1  0
 27 22  1  6
 25 28  2  0
 25 29  1  0
 26 30  1  0
 27 30  1  0
 26 31  1  0
 27 32  1  0
 32 33  1  1
 30 34  1  6
 31 35  1  0
 32 36  1  0
 34 36  2  0
 33 37  1  0
 35 38  2  0
 35 39  1  0
 37 40  1  0
 39 41  1  0
 38 42  1  0
 39 43  2  0
 40 44  1  0
 42 45  2  0
 43 45  1  0
 44 46  1  0
 46 47  2  0
M  END
