x0831_0-x1418_1-x1385_1-x0540_3-x0397_0
     RDKit          3D

 26 28  0  0  0  0  0  0  0  0999 V2000
    6.3280   -3.3020   19.9030 C   0  0  0  0  0  0  0  0  0  0  0  0
    7.3300   -3.0080   18.8030 C   0  0  0  0  0  0  0  0  0  0  0  0
    5.3460   -4.0100   19.6690 O   0  0  0  0  0  0  0  0  0  0  0  0
    6.5790   -2.8200   21.1830 N   0  0  0  0  0  0  0  0  0  0  0  0
    7.0800   -3.7430   22.1970 C   0  0  1  0  0  0  0  0  0  0  0  0
    7.1770   -1.4960   21.2590 C   0  0  1  0  0  0  0  0  0  0  0  0
    6.4270   -0.6880   22.3290 C   0  0  0  0  0  0  0  0  0  0  0  0
    7.7120   -3.1190   23.4370 C   0  0  0  0  0  0  0  0  0  0  0  0
    8.5450   -1.6170   21.6610 C   0  0  0  0  0  0  0  0  0  0  0  0
    6.0560   -4.6040   22.5260 C   0  0  0  0  0  0  0  0  0  0  0  0
    5.3450    0.2610   21.7760 C   0  0  0  0  0  0  0  0  0  0  0  0
    8.6660   -2.0690   23.0590 N   0  0  0  0  0  0  0  0  0  0  0  0
    6.2880   -5.6610   23.4120 C   0  0  0  0  0  0  0  0  0  0  0  0
    5.8890   -6.0730   21.8950 C   0  0  0  0  0  0  0  0  0  0  0  0
    5.2760    1.6660   22.4620 C   0  0  0  0  0  0  0  0  0  0  0  0
   10.0530   -2.3590   23.4270 C   0  0  0  0  0  0  0  0  0  0  0  0
    3.9460    2.3110   22.3260 N   0  0  0  0  0  0  0  0  0  0  0  0
   10.8660   -1.0400   23.4560 C   0  0  0  0  0  0  0  0  0  0  0  0
    2.9890    2.2550   23.3140 C   0  0  0  0  0  0  0  0  0  0  0  0
   10.2510    0.0480   24.1450 C   0  0  0  0  0  0  0  0  0  0  0  0
   12.1220   -0.8890   22.8440 C   0  0  0  0  0  0  0  0  0  0  0  0
    3.0730    1.2670   24.0330 O   0  0  0  0  0  0  0  0  0  0  0  0
   12.8190   -2.0250   22.0860 C   0  0  0  0  0  0  0  0  0  0  0  0
   10.9390    1.2400   24.1670 C   0  0  0  0  0  0  0  0  0  0  0  0
   12.7550    0.3200   22.9120 C   0  0  0  0  0  0  0  0  0  0  0  0
   12.1660    1.3810   23.5640 C   0  0  0  0  0  0  0  0  0  0  0  0
  1  2  1  0
  1  3  2  0
  1  4  1  0
  4  5  1  0
  4  6  1  0
  6  7  1  1
  5  8  1  0
  6  9  1  0
  5 10  1  1
  7 11  1  0
  8 12  1  0
  9 12  1  0
 10 13  1  0
 10 14  1  0
 13 14  1  0
 11 15  1  0
 12 16  1  0
 15 17  1  0
 16 18  1  0
 17 19  1  0
 18 20  2  0
 18 21  1  0
 19 22  2  0
 21 23  1  0
 20 24  1  0
 21 25  2  0
 24 26  2  0
 25 26  1  0
M  END
