x0831_0-x1418_1-x0831_1-x0397_0-x0692_1
     RDKit          3D

 20 22  0  0  0  0  0  0  0  0999 V2000
    6.3140   -3.2570   19.8660 C   0  0  0  0  0  0  0  0  0  0  0  0
    7.2850   -2.9770   18.7320 C   0  0  0  0  0  0  0  0  0  0  0  0
    5.3560   -4.0140   19.6650 O   0  0  0  0  0  0  0  0  0  0  0  0
    6.6010   -2.6700   21.0980 N   0  0  0  0  0  0  0  0  0  0  0  0
    7.0780   -3.6620   22.0750 C   0  0  1  0  0  0  0  0  0  0  0  0
    7.2920   -1.3790   21.1560 C   0  0  0  0  0  0  0  0  0  0  0  0
    7.7640   -3.1160   23.3360 C   0  0  0  0  0  0  0  0  0  0  0  0
    8.7050   -1.5430   21.7130 C   0  0  0  0  0  0  0  0  0  0  0  0
    5.9490   -4.5750   22.4670 C   0  0  0  0  0  0  0  0  0  0  0  0
    8.7120   -2.0160   23.0930 N   0  0  0  0  0  0  0  0  0  0  0  0
    6.1510   -5.7020   23.2540 C   0  0  0  0  0  0  0  0  0  0  0  0
    5.9530   -6.1900   22.0610 C   0  0  0  0  0  0  0  0  0  0  0  0
   10.0840   -2.2750   23.5200 C   0  0  0  0  0  0  0  0  0  0  0  0
   10.8590   -0.9970   23.5110 C   0  0  0  0  0  0  0  0  0  0  0  0
   10.2980    0.1050   24.1100 C   0  0  0  0  0  0  0  0  0  0  0  0
   12.1280   -0.9100   22.8870 C   0  0  0  0  0  0  0  0  0  0  0  0
   12.7520   -2.1010   22.2210 C   0  0  0  0  0  0  0  0  0  0  0  0
   11.0170    1.4320   24.1060 C   0  0  0  0  0  0  0  0  0  0  0  0
   12.8570    0.2850   22.8510 C   0  0  0  0  0  0  0  0  0  0  0  0
   12.3620    1.4560   23.4240 C   0  0  0  0  0  0  0  0  0  0  0  0
  1  2  1  0
  1  3  2  0
  1  4  1  0
  4  5  1  0
  4  6  1  0
  5  7  1  0
  6  8  1  0
  5  9  1  1
  7 10  1  0
  8 10  1  0
  9 11  1  0
  9 12  1  0
 11 12  1  0
 10 13  1  0
 13 14  1  0
 14 15  2  0
 14 16  1  0
 16 17  1  0
 15 18  1  0
 16 19  2  0
 18 20  2  0
 19 20  1  0
M  END
