x0831_0-x1386_1-x1334_1
     RDKit          3D

 17 18  0  0  0  0  0  0  0  0999 V2000
    6.3660   -3.1790   19.8210 C   0  0  0  0  0  0  0  0  0  0  0  0
    7.3070   -2.9700   18.6610 C   0  0  0  0  0  0  0  0  0  0  0  0
    5.4440   -4.0050   19.7050 O   0  0  0  0  0  0  0  0  0  0  0  0
    6.6080   -2.4430   20.9770 N   0  0  0  0  0  0  0  0  0  0  0  0
    7.4770   -1.2340   20.9690 C   0  0  0  0  0  0  0  0  0  0  0  0
    6.4310   -2.9920   22.3270 C   0  0  0  0  0  0  0  0  0  0  0  0
    8.8030   -1.5490   21.6720 C   0  0  0  0  0  0  0  0  0  0  0  0
    7.7320   -3.2120   23.0720 C   0  0  0  0  0  0  0  0  0  0  0  0
    8.6570   -2.0690   23.0410 N   0  0  0  0  0  0  0  0  0  0  0  0
   10.0070   -2.3480   23.5490 C   0  0  0  0  0  0  0  0  0  0  0  0
   10.8020   -1.0670   23.5310 C   0  0  0  0  0  0  0  0  0  0  0  0
   10.1350    0.1370   24.2160 C   0  0  0  0  0  0  0  0  0  0  0  0
   12.1690   -0.9720   22.8590 C   0  0  0  0  0  0  0  0  0  0  0  0
   12.8220   -2.1380   22.1810 C   0  0  0  0  0  0  0  0  0  0  0  0
   10.9470    1.3980   24.1440 C   0  0  0  0  0  0  0  0  0  0  0  0
   12.8270    0.2170   22.8630 C   0  0  0  0  0  0  0  0  0  0  0  0
   12.2410    1.4760   23.5060 C   0  0  0  0  0  0  0  0  0  0  0  0
  1  2  1  0
  1  3  2  0
  1  4  1  0
  4  5  1  0
  4  6  1  0
  5  7  1  0
  6  8  1  0
  7  9  1  0
  8  9  1  0
  9 10  1  0
 10 11  1  0
 11 12  2  0
 11 13  1  0
 13 14  1  0
 12 15  1  0
 13 16  2  0
 15 17  2  0
 16 17  1  0
M  END
