x0831_1-x1412_1-x1384_2-x1386_0-x1412_0
     RDKit          3D

 29 32  0  0  0  0  0  0  0  0999 V2000
    6.1080   -3.4260   19.9220 C   0  0  0  0  0  0  0  0  0  0  0  0
    7.1300   -3.0340   18.8630 C   0  0  0  0  0  0  0  0  0  0  0  0
    5.2230   -4.2460   19.7290 O   0  0  0  0  0  0  0  0  0  0  0  0
    6.2420   -2.8300   21.1530 N   0  0  0  0  0  0  0  0  0  0  0  0
    6.3970   -1.3650   21.2820 C   0  0  0  0  0  0  0  0  0  0  0  0
    6.6700   -3.6940   22.2570 C   0  0  1  0  0  0  0  0  0  0  0  0
    7.8060   -0.8100   21.5640 C   0  0  0  0  0  0  0  0  0  0  0  0
    7.1010   -2.8350   23.4160 C   0  0  0  0  0  0  0  0  0  0  0  0
    5.4920   -4.3720   22.8980 C   0  0  0  0  0  0  0  0  0  0  0  0
    8.5100   -2.6740   23.2780 N   0  0  0  0  0  0  0  0  0  0  0  0
    8.8940   -1.7560   22.1790 C   0  0  0  0  0  0  0  0  0  0  0  0
    5.3630   -5.7430   22.6840 C   0  0  0  0  0  0  0  0  0  0  0  0
    4.6000   -3.6340   23.6740 C   0  0  0  0  0  0  0  0  0  0  0  0
    9.1290   -2.4660   24.5850 C   0  0  2  0  0  0  0  0  0  0  0  0
    3.5350   -4.2880   24.2700 C   0  0  0  0  0  0  0  0  0  0  0  0
    4.2900   -6.3770   23.2920 C   0  0  0  0  0  0  0  0  0  0  0  0
    8.8620   -1.4330   25.1930 O   0  0  0  0  0  0  0  0  0  0  0  0
   10.6230   -2.5680   24.3620 C   0  0  0  0  0  0  0  0  0  0  0  0
    8.8390   -3.5670   25.6040 C   0  0  0  0  0  0  0  0  0  0  0  0
    3.3740   -5.6610   24.0840 C   0  0  0  0  0  0  0  0  0  0  0  0
    9.6900   -4.7810   25.7220 C   0  0  0  0  0  0  0  0  0  0  0  0
    7.5980   -3.7420   26.8070 S   0  0  0  0  0  0  0  0  0  0  0  0
   11.3770   -1.3770   23.9140 C   0  0  0  0  0  0  0  0  0  0  0  0
    9.3780   -5.7120   26.6400 C   0  0  0  0  0  0  0  0  0  0  0  0
    8.2150   -5.3280   27.3860 C   0  0  0  0  0  0  0  0  0  0  0  0
   12.4450   -1.4190   22.9660 C   0  0  0  0  0  0  0  0  0  0  0  0
   11.1370   -0.0990   24.3600 C   0  0  0  0  0  0  0  0  0  0  0  0
   12.9790   -0.1820   22.7210 C   0  0  0  0  0  0  0  0  0  0  0  0
   12.1930    1.0220   23.6280 S   0  0  0  0  0  0  0  0  0  0  0  0
  1  2  1  0
  1  3  2  0
  1  4  1  0
  4  5  1  0
  4  6  1  0
  5  7  1  0
  6  8  1  0
  6  9  1  1
  8 10  1  0
  7 11  1  0
 10 11  1  0
  9 12  2  0
  9 13  1  0
 10 14  1  0
 13 15  2  0
 12 16  1  0
 14 17  1  1
 14 18  1  0
 14 19  1  0
 15 20  1  0
 16 20  2  0
 19 21  2  0
 19 22  1  0
 18 23  1  0
 21 24  1  0
 22 25  1  0
 24 25  2  0
 23 26  1  0
 23 27  2  0
 26 28  2  0
 27 29  1  0
 28 29  1  0
M  END
