x0831_0-x1334_1-x0692_1-x0691_1
     RDKit          3D

 30 32  0  0  0  0  0  0  0  0999 V2000
    6.3720   -3.2980   19.9010 C   0  0  0  0  0  0  0  0  0  0  0  0
    7.3420   -2.9980   18.7760 C   0  0  0  0  0  0  0  0  0  0  0  0
    5.4130   -4.0540   19.6800 O   0  0  0  0  0  0  0  0  0  0  0  0
    6.6140   -2.7430   21.1400 N   0  0  0  0  0  0  0  0  0  0  0  0
    7.3270   -1.4700   21.2870 C   0  0  0  0  0  0  0  0  0  0  0  0
    6.5650   -3.6170   22.3420 C   0  0  2  0  0  0  0  0  0  0  0  0
    5.2050   -3.4500   23.0360 C   0  0  0  0  0  0  0  0  0  0  0  0
    8.7540   -1.7060   21.8110 C   0  0  0  0  0  0  0  0  0  0  0  0
    7.9680   -3.6130   23.0620 C   0  0  0  0  0  0  0  0  0  0  0  0
    4.4490   -4.7720   23.0580 C   0  0  0  0  0  0  0  0  0  0  0  0
    8.7150   -2.3090   23.1380 N   0  0  0  0  0  0  0  0  0  0  0  0
    5.1060   -5.8310   23.9860 C   0  0  0  0  0  0  0  0  0  0  0  0
   10.1110   -2.4730   23.5600 C   0  0  0  0  0  0  0  0  0  0  0  0
    4.5460   -5.6670   25.7940 S   0  0  0  0  0  0  0  0  0  0  0  0
   10.8530   -1.1480   23.5490 C   0  0  0  0  0  0  0  0  0  0  0  0
    3.8800   -6.8870   26.1810 O   0  0  0  0  0  0  0  0  0  0  0  0
    5.6480   -5.1040   26.5500 O   0  0  0  0  0  0  0  0  0  0  0  0
    3.4670   -4.3590   25.7820 C   0  0  0  0  0  0  0  0  0  0  0  0
   10.2640   -0.0530   24.2030 C   0  0  0  0  0  0  0  0  0  0  0  0
   12.1000   -0.9600   22.9030 C   0  0  0  0  0  0  0  0  0  0  0  0
   12.7940   -2.0650   22.1740 C   0  0  0  0  0  0  0  0  0  0  0  0
    3.9060   -3.0290   25.8790 C   0  0  0  0  0  0  0  0  0  0  0  0
    2.0980   -4.6490   25.6710 C   0  0  0  0  0  0  0  0  0  0  0  0
   10.8860    1.1880   24.2090 C   0  0  0  0  0  0  0  0  0  0  0  0
   12.7130    0.2940   22.9310 C   0  0  0  0  0  0  0  0  0  0  0  0
    2.9500   -1.9880   25.8650 C   0  0  0  0  0  0  0  0  0  0  0  0
    1.1850   -3.6210   25.6590 C   0  0  0  0  0  0  0  0  0  0  0  0
   12.1100    1.3610   23.5740 C   0  0  0  0  0  0  0  0  0  0  0  0
    3.3350   -0.7080   25.9570 F   0  0  0  0  0  0  0  0  0  0  0  0
    1.5890   -2.3050   25.7560 C   0  0  0  0  0  0  0  0  0  0  0  0
  1  2  1  0
  1  3  2  0
  1  4  1  0
  4  5  1  0
  4  6  1  0
  6  7  1  1
  5  8  1  0
  6  9  1  0
  7 10  1  0
  8 11  1  0
  9 11  1  0
 10 12  1  0
 11 13  1  0
 14 12  1  0
 13 15  1  0
 14 16  2  0
 14 17  2  0
 14 18  1  0
 15 19  2  0
 15 20  1  0
 20 21  1  0
 18 22  2  0
 18 23  1  0
 19 24  1  0
 20 25  2  0
 22 26  1  0
 23 27  2  0
 24 28  2  0
 25 28  1  0
 26 29  1  0
 26 30  2  0
 27 30  1  0
M  END
