x0831_0-x0769_0-x1336_1
     RDKit          3D

 30 32  0  0  0  0  0  0  0  0999 V2000
    7.2260   -1.9630   25.2320 S   0  0  0  0  0  0  0  0  0  0  0  0
    6.6380   -2.7930   23.7600 C   0  0  0  0  0  0  0  0  0  0  0  0
    6.8790   -4.3210   23.8070 C   0  0  1  0  0  0  0  0  0  0  0  0
    8.4490   -1.2450   24.9550 O   0  0  0  0  0  0  0  0  0  0  0  0
    6.0980   -1.2690   25.8190 O   0  0  0  0  0  0  0  0  0  0  0  0
    7.6840   -3.3330   26.2710 C   0  0  0  0  0  0  0  0  0  0  0  0
    6.7320   -3.9660   27.1070 C   0  0  0  0  0  0  0  0  0  0  0  0
    9.0400   -3.7840   26.2550 C   0  0  0  0  0  0  0  0  0  0  0  0
   10.1840   -3.1790   25.4440 C   0  0  0  0  0  0  0  0  0  0  0  0
    7.0750   -5.1270   28.0000 C   0  0  0  0  0  0  0  0  0  0  0  0
    9.3990   -4.8750   27.0700 C   0  0  0  0  0  0  0  0  0  0  0  0
    5.5940   -5.0470   24.1290 N   0  0  0  0  0  0  0  0  0  0  0  0
    7.5240   -4.8250   22.6800 C   0  0  0  0  0  0  0  0  0  0  0  0
    6.0320   -5.7620   28.8700 C   0  0  0  0  0  0  0  0  0  0  0  0
   10.2240   -3.4920   23.9620 C   0  0  0  0  0  0  0  0  0  0  0  0
    8.3720   -5.5780   27.9800 C   0  0  0  0  0  0  0  0  0  0  0  0
    4.9860   -5.7380   23.0810 C   0  0  0  0  0  0  0  0  0  0  0  0
    6.6500   -5.2410   21.5800 N   0  0  0  0  0  0  0  0  0  0  0  0
    6.3600   -4.4390   20.4740 C   0  0  0  0  0  0  0  0  0  0  0  0
    9.8260   -2.3000   23.0910 C   0  0  0  0  0  0  0  0  0  0  0  0
    5.7040   -6.2570   22.0190 C   0  0  0  0  0  0  0  0  0  0  0  0
    5.2860   -4.5680   19.9150 O   0  0  0  0  0  0  0  0  0  0  0  0
    7.4010   -3.4260   19.9730 C   0  0  0  0  0  0  0  0  0  0  0  0
   10.6400   -1.0280   23.3000 C   0  0  0  0  0  0  0  0  0  0  0  0
   10.1660    0.1120   23.9880 C   0  0  0  0  0  0  0  0  0  0  0  0
   11.9570   -0.9370   22.7690 C   0  0  0  0  0  0  0  0  0  0  0  0
   12.6040   -2.0500   22.0120 C   0  0  0  0  0  0  0  0  0  0  0  0
   10.9360    1.2620   24.1260 C   0  0  0  0  0  0  0  0  0  0  0  0
   12.7110    0.2260   22.9250 C   0  0  0  0  0  0  0  0  0  0  0  0
   12.2040    1.3160   23.5910 C   0  0  0  0  0  0  0  0  0  0  0  0
  1  2  1  0
  3  2  1  6
  1  4  2  0
  1  5  2  0
  1  6  1  0
  6  7  2  0
  6  8  1  0
  8  9  1  0
  7 10  1  0
  8 11  2  0
  3 12  1  0
  3 13  1  0
 10 14  1  0
  9 15  1  0
 10 16  2  0
 11 16  1  0
 12 17  1  0
 13 18  1  0
 18 19  1  0
 15 20  1  0
 17 21  1  0
 18 21  1  0
 19 22  2  0
 19 23  1  0
 20 24  1  0
 24 25  2  0
 24 26  1  0
 26 27  1  0
 25 28  1  0
 26 29  2  0
 28 30  2  0
 29 30  1  0
M  END
