x0831_0-x0770_1-x1386_1-x0692_1-x1375_1
     RDKit          3D

 25 27  0  0  0  0  0  0  0  0999 V2000
    6.3180   -3.1990   19.7730 C   0  0  0  0  0  0  0  0  0  0  0  0
    7.3530   -2.9770   18.7010 C   0  0  0  0  0  0  0  0  0  0  0  0
    5.3230   -3.9100   19.6020 O   0  0  0  0  0  0  0  0  0  0  0  0
    6.6170   -2.6050   20.9940 N   0  0  0  0  0  0  0  0  0  0  0  0
    7.3450   -1.3400   21.0730 C   0  0  0  0  0  0  0  0  0  0  0  0
    6.7860   -3.4960   22.1230 C   0  0  1  0  0  0  0  0  0  0  0  0
    8.7110   -1.5080   21.6980 C   0  0  0  0  0  0  0  0  0  0  0  0
    7.7160   -3.1510   23.2810 C   0  0  0  0  0  0  0  0  0  0  0  0
    5.3980   -3.8010   22.6400 C   0  0  0  0  0  0  0  0  0  0  0  0
    8.6190   -2.0020   23.0870 N   0  0  0  0  0  0  0  0  0  0  0  0
    5.4270   -5.0430   23.4810 C   0  0  1  0  0  0  0  0  0  0  0  0
    9.9200   -2.2620   23.5360 C   0  0  0  0  0  0  0  0  0  0  0  0
    4.9560   -4.6600   24.8290 C   0  0  0  0  0  0  0  0  0  0  0  0
    4.6180   -6.0580   23.0060 C   0  0  0  0  0  0  0  0  0  0  0  0
   10.7780   -1.0190   23.5160 C   0  0  0  0  0  0  0  0  0  0  0  0
    4.0530   -5.4380   25.3700 C   0  0  0  0  0  0  0  0  0  0  0  0
    3.7060   -6.7170   24.2980 S   0  0  0  0  0  0  0  0  0  0  0  0
   10.2490    0.1400   24.1480 C   0  0  0  0  0  0  0  0  0  0  0  0
   12.0500   -0.9720   22.8940 C   0  0  0  0  0  0  0  0  0  0  0  0
    2.1600   -6.8480   23.9580 O   0  0  0  0  0  0  0  0  0  0  0  0
    4.3260   -8.0520   24.8350 O   0  0  0  0  0  0  0  0  0  0  0  0
   12.6580   -2.1600   22.2080 C   0  0  0  0  0  0  0  0  0  0  0  0
   11.0000    1.2800   24.1180 C   0  0  0  0  0  0  0  0  0  0  0  0
   12.8660    0.3060   22.8860 C   0  0  0  0  0  0  0  0  0  0  0  0
   12.2590    1.3800   23.5140 C   0  0  0  0  0  0  0  0  0  0  0  0
  1  2  1  0
  1  3  2  0
  1  4  1  0
  4  5  1  0
  4  6  1  0
  5  7  1  0
  6  8  1  0
  6  9  1  1
  7 10  1  0
  8 10  1  0
 11  9  1  6
 10 12  1  0
 11 13  1  0
 11 14  1  0
 12 15  1  0
 13 16  2  0
 14 17  1  0
 16 17  1  0
 15 18  2  0
 15 19  1  0
 17 20  1  0
 17 21  1  0
 19 22  1  0
 18 23  1  0
 19 24  2  0
 23 25  2  0
 24 25  1  0
M  END
