x0831_0-x0831_1-x0770_1-x1386_1-x0769_1
     RDKit          3D

 30 32  0  0  0  0  0  0  0  0999 V2000
    6.1940   -3.4600   20.0150 C   0  0  0  0  0  0  0  0  0  0  0  0
    7.1460   -3.0410   18.8950 C   0  0  0  0  0  0  0  0  0  0  0  0
    5.3620   -4.3370   19.8080 O   0  0  0  0  0  0  0  0  0  0  0  0
    6.3000   -2.8440   21.2540 N   0  0  0  0  0  0  0  0  0  0  0  0
    6.1700   -1.3920   21.4010 C   0  0  0  0  0  0  0  0  0  0  0  0
    7.1850   -3.5270   22.2370 C   0  0  0  0  0  0  0  0  0  0  0  0
    7.5460   -0.7090   21.2950 C   0  0  0  0  0  0  0  0  0  0  0  0
    7.5330   -2.8440   23.3550 C   0  0  2  0  0  0  0  0  0  0  0  0
    6.2430   -2.2750   24.0040 C   0  0  0  0  0  0  0  0  0  0  0  0
    8.6070   -1.8560   23.1060 N   0  0  0  0  0  0  0  0  0  0  0  0
    8.6420   -1.3770   21.6950 C   0  0  0  0  0  0  0  0  0  0  0  0
    6.4520   -1.7330   25.4260 C   0  0  0  0  0  0  0  0  0  0  0  0
    9.9560   -2.2090   23.5330 C   0  0  0  0  0  0  0  0  0  0  0  0
    5.6520   -2.4890   26.3410 O   0  0  0  0  0  0  0  0  0  0  0  0
   10.8220   -0.9580   23.5100 C   0  0  0  0  0  0  0  0  0  0  0  0
    4.3050   -2.5610   26.1430 C   0  0  0  0  0  0  0  0  0  0  0  0
   10.3120    0.1780   24.1200 C   0  0  0  0  0  0  0  0  0  0  0  0
   12.0800   -0.9230   22.8890 C   0  0  0  0  0  0  0  0  0  0  0  0
   12.6840   -2.1170   22.2050 C   0  0  0  0  0  0  0  0  0  0  0  0
    3.7680   -3.8290   25.8960 C   0  0  0  0  0  0  0  0  0  0  0  0
    3.4310   -1.4560   26.1730 C   0  0  0  0  0  0  0  0  0  0  0  0
   11.0590    1.3320   24.0940 C   0  0  0  0  0  0  0  0  0  0  0  0
   12.7920    0.2240   22.8870 C   0  0  0  0  0  0  0  0  0  0  0  0
    4.8520   -5.3000   25.8510 S   0  0  0  0  0  0  0  0  0  0  0  0
    2.4010   -3.9760   25.6870 C   0  0  0  0  0  0  0  0  0  0  0  0
    2.0620   -1.6280   25.9630 C   0  0  0  0  0  0  0  0  0  0  0  0
   12.2730    1.3550   23.4890 C   0  0  0  0  0  0  0  0  0  0  0  0
    5.8580   -5.1530   26.8820 O   0  0  0  0  0  0  0  0  0  0  0  0
    3.8950   -6.6490   25.8060 O   0  0  0  0  0  0  0  0  0  0  0  0
    1.5300   -2.8920   25.7160 C   0  0  0  0  0  0  0  0  0  0  0  0
  1  2  1  0
  1  3  2  0
  1  4  1  0
  4  5  1  0
  4  6  1  0
  5  7  1  0
  6  8  1  0
  8  9  1  6
  8 10  1  0
  7 11  1  0
 10 11  1  0
  9 12  1  0
 10 13  1  0
 12 14  1  0
 13 15  1  0
 14 16  1  0
 15 17  2  0
 15 18  1  0
 18 19  1  0
 16 20  2  0
 16 21  1  0
 17 22  1  0
 18 23  2  0
 20 24  1  0
 20 25  1  0
 21 26  2  0
 22 27  2  0
 23 27  1  0
 24 28  2  0
 24 29  2  0
 25 30  2  0
 26 30  1  0
M  END
