x0831_0-x0434_2-x1412_1-x0770_1-x0692_1
     RDKit          3D

 24 26  0  0  0  0  0  0  0  0999 V2000
    6.4120   -3.4580   20.0310 C   0  0  0  0  0  0  0  0  0  0  0  0
    7.3420   -3.0200   18.8980 C   0  0  0  0  0  0  0  0  0  0  0  0
    5.4280   -4.1660   19.7790 O   0  0  0  0  0  0  0  0  0  0  0  0
    6.7200   -3.1010   21.3580 N   0  0  0  0  0  0  0  0  0  0  0  0
    7.2910   -1.7860   21.6360 C   0  0  2  0  0  0  0  0  0  0  0  0
    6.8130   -3.9330   22.3540 C   0  0  0  0  0  0  0  0  0  0  0  0
    7.4330   -0.9890   20.4500 N   0  0  0  0  0  0  0  0  0  0  0  0
    8.6500   -1.8300   22.2720 C   0  0  0  0  0  0  0  0  0  0  0  0
    8.1090   -3.8980   23.2200 C   0  0  0  0  0  0  0  0  0  0  0  0
    8.7480   -2.6560   23.4600 N   0  0  0  0  0  0  0  0  0  0  0  0
    6.5080   -0.1200   19.7490 C   0  0  0  0  0  0  0  0  0  0  0  0
   10.1200   -2.7480   23.6800 C   0  0  0  0  0  0  0  0  0  0  0  0
    7.0130    0.1050   18.5170 C   0  0  0  0  0  0  0  0  0  0  0  0
    5.3010    0.4250   20.2010 C   0  0  0  0  0  0  0  0  0  0  0  0
   10.7900   -1.3700   23.6290 C   0  0  0  0  0  0  0  0  0  0  0  0
    6.3110    0.9500   17.5950 N   0  0  0  0  0  0  0  0  0  0  0  0
    4.6170    1.2370   19.3100 C   0  0  0  0  0  0  0  0  0  0  0  0
   10.1550   -0.1820   24.3240 C   0  0  0  0  0  0  0  0  0  0  0  0
   12.1010   -1.0640   22.8900 C   0  0  0  0  0  0  0  0  0  0  0  0
    5.0580    1.5310   18.0300 C   0  0  0  0  0  0  0  0  0  0  0  0
   12.8760   -2.0840   22.1330 C   0  0  0  0  0  0  0  0  0  0  0  0
   10.6510    1.1030   24.3320 C   0  0  0  0  0  0  0  0  0  0  0  0
   12.6550    0.3310   22.9060 C   0  0  0  0  0  0  0  0  0  0  0  0
   11.8820    1.4460   23.6580 C   0  0  0  0  0  0  0  0  0  0  0  0
  1  2  1  0
  1  3  2  0
  1  4  1  0
  4  5  1  0
  4  6  1  0
  5  7  1  6
  5  8  1  0
  6  9  1  0
  8 10  1  0
  9 10  1  0
  7 11  1  0
 10 12  1  0
 11 13  2  0
 11 14  1  0
 12 15  1  0
 13 16  1  0
 14 17  2  0
 15 18  2  0
 15 19  1  0
 16 20  2  0
 17 20  1  0
 19 21  1  0
 18 22  1  0
 19 23  2  0
 22 24  2  0
 23 24  1  0
M  END
