x0831_0-x1418_1-x1334_1
     RDKit          3D

 17 18  0  0  0  0  0  0  0  0999 V2000
    6.3840   -3.2580   19.8580 C   0  0  0  0  0  0  0  0  0  0  0  0
    7.3500   -2.9860   18.7080 C   0  0  0  0  0  0  0  0  0  0  0  0
    5.4510   -4.0700   19.7110 O   0  0  0  0  0  0  0  0  0  0  0  0
    6.6100   -2.6000   21.0580 N   0  0  0  0  0  0  0  0  0  0  0  0
    6.5850   -3.3030   22.3460 C   0  0  0  0  0  0  0  0  0  0  0  0
    7.4250   -1.3820   21.1000 C   0  0  0  0  0  0  0  0  0  0  0  0
    7.9890   -3.4940   22.9540 C   0  0  0  0  0  0  0  0  0  0  0  0
    8.8130   -1.6320   21.7150 C   0  0  0  0  0  0  0  0  0  0  0  0
    8.7260   -2.2160   23.0660 N   0  0  0  0  0  0  0  0  0  0  0  0
   10.0270   -2.3980   23.5370 C   0  0  0  0  0  0  0  0  0  0  0  0
   10.8170   -1.0710   23.5190 C   0  0  0  0  0  0  0  0  0  0  0  0
   10.2610    0.0850   24.1520 C   0  0  0  0  0  0  0  0  0  0  0  0
   12.1920   -0.9250   22.8250 C   0  0  0  0  0  0  0  0  0  0  0  0
   12.8840   -2.0410   22.1180 C   0  0  0  0  0  0  0  0  0  0  0  0
   10.8870    1.3170   24.1630 C   0  0  0  0  0  0  0  0  0  0  0  0
   12.7560    0.2660   22.8680 C   0  0  0  0  0  0  0  0  0  0  0  0
   12.0860    1.4430   23.5560 C   0  0  0  0  0  0  0  0  0  0  0  0
  1  2  1  0
  1  3  2  0
  1  4  1  0
  4  5  1  0
  4  6  1  0
  5  7  1  0
  6  8  1  0
  7  9  1  0
  8  9  1  0
  9 10  1  0
 10 11  1  0
 11 12  2  0
 11 13  1  0
 13 14  1  0
 12 15  1  0
 13 16  2  0
 15 17  2  0
 16 17  1  0
M  END
