x0831_0-x1385_1-x1385_0
     RDKit          3D

 24 26  0  0  0  0  0  0  0  0999 V2000
    6.3320   -3.3030   19.9060 C   0  0  0  0  0  0  0  0  0  0  0  0
    7.3620   -2.9860   18.8250 C   0  0  0  0  0  0  0  0  0  0  0  0
    5.4110   -4.1020   19.7300 O   0  0  0  0  0  0  0  0  0  0  0  0
    6.4910   -2.6480   21.1290 N   0  0  0  0  0  0  0  0  0  0  0  0
    6.4960   -3.4730   22.3250 C   0  0  0  0  0  0  0  0  0  0  0  0
    7.1820   -1.3660   21.2630 C   0  0  0  0  0  0  0  0  0  0  0  0
    7.8670   -3.5440   23.0020 C   0  0  0  0  0  0  0  0  0  0  0  0
    8.4040   -1.4990   21.7910 C   0  0  0  0  0  0  0  0  0  0  0  0
    8.5350   -2.2260   23.0480 N   0  0  0  0  0  0  0  0  0  0  0  0
    9.9760   -2.3170   23.3250 C   0  0  2  0  0  0  0  0  0  0  0  0
   10.4870   -3.2160   24.4160 C   0  0  0  0  0  0  0  0  0  0  0  0
   10.6950   -0.9570   23.3920 C   0  0  0  0  0  0  0  0  0  0  0  0
   10.1270    0.2120   23.8960 C   0  0  0  0  0  0  0  0  0  0  0  0
   12.0980   -0.8730   22.8850 C   0  0  0  0  0  0  0  0  0  0  0  0
    9.6510   -4.0890   25.3230 C   0  0  0  0  0  0  0  0  0  0  0  0
   12.8270   -2.0400   22.3030 C   0  0  0  0  0  0  0  0  0  0  0  0
   10.8190    1.4750   23.9580 C   0  0  0  0  0  0  0  0  0  0  0  0
   12.7280    0.2790   22.9430 C   0  0  0  0  0  0  0  0  0  0  0  0
    9.9800   -5.5270   25.5530 C   0  0  0  0  0  0  0  0  0  0  0  0
    8.2510   -3.6510   26.2580 S   0  0  0  0  0  0  0  0  0  0  0  0
   12.0840    1.4960   23.4930 C   0  0  0  0  0  0  0  0  0  0  0  0
    9.0290   -6.1000   26.5270 C   0  0  0  0  0  0  0  0  0  0  0  0
    8.0210   -5.1650   27.0080 C   0  0  0  0  0  0  0  0  0  0  0  0
    6.6740   -5.5980   28.2810 Br  0  0  0  0  0  0  0  0  0  0  0  0
  1  2  1  0
  1  3  2  0
  1  4  1  0
  4  5  1  0
  4  6  1  0
  5  7  1  0
  6  8  1  0
  7  9  1  0
  8  9  1  0
  9 10  1  0
 10 11  1  1
 10 12  1  0
 12 13  2  0
 12 14  1  0
 11 15  1  0
 14 16  1  0
 13 17  1  0
 14 18  2  0
 15 19  2  0
 15 20  1  0
 17 21  2  0
 18 21  1  0
 19 22  1  0
 20 23  1  0
 22 23  2  0
 23 24  1  0
M  END
