x0831_0-x0770_1-x1385_1-x0397_0-x1334_0-x1374_1-x1418_1-x0692_1-x0831_1-x0540_3-x1334_1
     RDKit          3D

 38 41  0  0  0  0  0  0  0  0999 V2000
    2.0020   -6.7590   24.2990 O   0  0  0  0  0  0  0  0  0  0  0  0
    2.9790   -7.4910   23.5970 C   0  0  0  0  0  0  0  0  0  0  0  0
    3.9380   -7.9590   24.5390 O   0  0  0  0  0  0  0  0  0  0  0  0
    5.2390   -7.4250   24.2990 C   0  0  0  0  0  0  0  0  0  0  0  0
    5.1280   -6.1180   24.2680 C   0  0  0  0  0  0  0  0  0  0  0  0
    6.0170   -5.5020   23.2480 C   0  0  2  0  0  0  0  0  0  0  0  0
    5.5670   -4.4580   22.3840 C   0  0  2  0  0  0  0  0  0  0  0  0
    6.1380   -5.8820   21.7590 C   0  0  0  0  0  0  0  0  0  0  0  0
    6.3010   -3.1350   22.3860 C   0  0  2  0  0  0  0  0  0  0  0  0
    6.2860   -2.5340   21.1950 N   0  0  0  0  0  0  0  0  0  0  0  0
    7.6680   -3.2480   22.8570 C   0  0  0  0  0  0  0  0  0  0  0  0
    6.1990   -3.2630   19.9650 C   0  0  0  0  0  0  0  0  0  0  0  0
    8.3490   -1.9560   23.0440 N   0  0  0  0  0  0  0  0  0  0  0  0
    6.8250   -1.1690   21.3900 C   0  0  2  0  0  0  0  0  0  0  0  0
    7.1920   -2.9620   18.8690 C   0  0  0  0  0  0  0  0  0  0  0  0
    5.3620   -4.1580   19.7690 O   0  0  0  0  0  0  0  0  0  0  0  0
    6.4830   -0.1220   20.3140 C   0  0  0  0  0  0  0  0  0  0  0  0
    9.5810   -1.9260   23.8660 C   0  0  1  0  0  0  0  0  0  0  0  0
    8.3090   -1.2280   21.7770 C   0  0  0  0  0  0  0  0  0  0  0  0
    5.2170    0.7050   20.6860 C   0  0  0  0  0  0  0  0  0  0  0  0
   10.1650   -3.2890   23.8790 C   0  0  0  0  0  0  0  0  0  0  0  0
   10.5970   -0.7860   23.6410 C   0  0  0  0  0  0  0  0  0  0  0  0
    5.2090    1.2490   22.1960 C   0  0  0  0  0  0  0  0  0  0  0  0
   10.2310    0.4110   24.0820 C   0  0  0  0  0  0  0  0  0  0  0  0
   11.9490   -0.9330   22.9670 C   0  0  0  0  0  0  0  0  0  0  0  0
    9.6320   -4.0910   25.0330 C   0  0  0  0  0  0  0  0  0  0  0  0
    4.2520    2.3280   22.3620 N   0  0  0  0  0  0  0  0  0  0  0  0
   12.5180   -2.1890   22.4040 C   0  0  0  0  0  0  0  0  0  0  0  0
   10.8470    1.8140   24.0970 C   0  0  0  0  0  0  0  0  0  0  0  0
   12.6620    0.1460   22.8760 C   0  0  0  0  0  0  0  0  0  0  0  0
   10.0430   -5.2940   25.5000 C   0  0  0  0  0  0  0  0  0  0  0  0
    8.2690   -3.6080   26.1090 S   0  0  0  0  0  0  0  0  0  0  0  0
    3.1630    2.2230   23.1950 C   0  0  0  0  0  0  0  0  0  0  0  0
   12.1680    1.5120   23.4110 C   0  0  0  0  0  0  0  0  0  0  0  0
    9.4800   -5.8450   26.5340 C   0  0  0  0  0  0  0  0  0  0  0  0
    8.4010   -5.0000   27.0480 C   0  0  0  0  0  0  0  0  0  0  0  0
    2.9590    1.2320   24.1870 O   0  0  0  0  0  0  0  0  0  0  0  0
    7.3670   -5.2780   28.3820 Cl  0  0  0  0  0  0  0  0  0  0  0  0
  1  2  1  0
  2  3  1  0
  3  4  1  0
  4  5  1  0
  6  5  1  1
  6  7  1  0
  6  8  1  0
  7  8  1  6
  7  9  1  0
  9 10  1  0
  9 11  1  6
 10 12  1  0
 11 13  1  0
 10 14  1  0
 12 15  1  0
 12 16  2  0
 14 17  1  6
 13 18  1  0
 13 19  1  0
 14 19  1  0
 17 20  1  0
 18 21  1  6
 18 22  1  0
 20 23  1  0
 22 24  2  0
 22 25  1  0
 21 26  1  0
 23 27  1  0
 25 28  1  0
 24 29  1  0
 25 30  2  0
 26 31  2  0
 26 32  1  0
 27 33  1  0
 29 34  2  0
 30 34  1  0
 31 35  1  0
 32 36  1  0
 35 36  2  0
 33 37  2  0
 36 38  1  0
M  END
