x0831_0-x1418_1-x1385_1-x0692_1
     RDKit          3D

 17 18  0  0  0  0  0  0  0  0999 V2000
    6.3890   -3.2740   19.8480 C   0  0  0  0  0  0  0  0  0  0  0  0
    7.4110   -3.0060   18.7530 C   0  0  0  0  0  0  0  0  0  0  0  0
    5.4230   -4.0270   19.6890 O   0  0  0  0  0  0  0  0  0  0  0  0
    6.6380   -2.6330   21.0660 N   0  0  0  0  0  0  0  0  0  0  0  0
    6.6160   -3.3960   22.3230 C   0  0  0  0  0  0  0  0  0  0  0  0
    7.4250   -1.3930   21.1480 C   0  0  0  0  0  0  0  0  0  0  0  0
    7.9770   -3.5170   23.0240 C   0  0  0  0  0  0  0  0  0  0  0  0
    8.8130   -1.6460   21.6690 C   0  0  0  0  0  0  0  0  0  0  0  0
    8.7430   -2.2410   23.0100 N   0  0  0  0  0  0  0  0  0  0  0  0
   10.0530   -2.4010   23.4820 C   0  0  0  0  0  0  0  0  0  0  0  0
   10.8220   -1.0930   23.5020 C   0  0  0  0  0  0  0  0  0  0  0  0
   10.2340    0.0210   24.1740 C   0  0  0  0  0  0  0  0  0  0  0  0
   12.0870   -0.9460   22.8690 C   0  0  0  0  0  0  0  0  0  0  0  0
   12.7540   -2.0650   22.1450 C   0  0  0  0  0  0  0  0  0  0  0  0
   10.9480    1.1830   24.1460 C   0  0  0  0  0  0  0  0  0  0  0  0
   12.8210    0.3800   22.8940 C   0  0  0  0  0  0  0  0  0  0  0  0
   12.1890    1.4140   23.5480 C   0  0  0  0  0  0  0  0  0  0  0  0
  1  2  1  0
  1  3  2  0
  1  4  1  0
  4  5  1  0
  4  6  1  0
  5  7  1  0
  6  8  1  0
  7  9  1  0
  8  9  1  0
  9 10  1  0
 10 11  1  0
 11 12  2  0
 11 13  1  0
 13 14  1  0
 12 15  1  0
 13 16  2  0
 15 17  2  0
 16 17  1  0
M  END
