x0831_0-x0770_1-x1334_1-x0397_0
     RDKit          3D

 20 22  0  0  0  0  0  0  0  0999 V2000
    6.2200   -3.3480   19.9460 C   0  0  0  0  0  0  0  0  0  0  0  0
    7.2370   -3.0130   18.8670 C   0  0  0  0  0  0  0  0  0  0  0  0
    5.2960   -4.1390   19.7390 O   0  0  0  0  0  0  0  0  0  0  0  0
    6.4320   -2.7380   21.1890 N   0  0  0  0  0  0  0  0  0  0  0  0
    7.0270   -1.4060   21.2780 C   0  0  0  0  0  0  0  0  0  0  0  0
    6.9260   -3.6600   22.2070 C   0  0  1  0  0  0  0  0  0  0  0  0
    8.4670   -1.4560   21.7920 C   0  0  0  0  0  0  0  0  0  0  0  0
    7.5670   -2.9930   23.4390 C   0  0  0  0  0  0  0  0  0  0  0  0
    5.9220   -4.5830   22.4610 C   0  0  0  0  0  0  0  0  0  0  0  0
    8.6180   -2.0400   23.1150 N   0  0  0  0  0  0  0  0  0  0  0  0
    6.1960   -5.7730   23.1980 C   0  0  0  0  0  0  0  0  0  0  0  0
    5.9670   -6.1810   21.9810 C   0  0  0  0  0  0  0  0  0  0  0  0
   10.0190   -2.3070   23.5210 C   0  0  0  0  0  0  0  0  0  0  0  0
   10.8350   -1.0380   23.5090 C   0  0  0  0  0  0  0  0  0  0  0  0
   10.2830    0.0310   24.1160 C   0  0  0  0  0  0  0  0  0  0  0  0
   12.1060   -0.9580   22.8840 C   0  0  0  0  0  0  0  0  0  0  0  0
   12.7180   -2.1460   22.2020 C   0  0  0  0  0  0  0  0  0  0  0  0
   10.9880    1.2840   24.1240 C   0  0  0  0  0  0  0  0  0  0  0  0
   12.7850    0.2530   22.9020 C   0  0  0  0  0  0  0  0  0  0  0  0
   12.2640    1.3920   23.5010 C   0  0  0  0  0  0  0  0  0  0  0  0
  1  2  1  0
  1  3  2  0
  1  4  1  0
  4  5  1  0
  4  6  1  0
  5  7  1  0
  6  8  1  0
  6  9  1  1
  7 10  1  0
  8 10  1  0
  9 11  1  0
  9 12  1  0
 11 12  1  0
 10 13  1  0
 13 14  1  0
 14 15  2  0
 14 16  1  0
 16 17  1  0
 15 18  1  0
 16 19  2  0
 18 20  2  0
 19 20  1  0
M  END
