x0831_1-x1334_0
     RDKit          3D

 17 18  0  0  0  0  0  0  0  0999 V2000
    6.2770   -3.4580   20.0120 C   0  0  0  0  0  0  0  0  0  0  0  0
    7.2900   -3.0690   18.9290 C   0  0  0  0  0  0  0  0  0  0  0  0
    5.3550   -4.2270   19.7640 O   0  0  0  0  0  0  0  0  0  0  0  0
    6.4550   -2.9170   21.2800 N   0  0  0  0  0  0  0  0  0  0  0  0
    6.4390   -1.4350   21.4710 C   0  0  0  0  0  0  0  0  0  0  0  0
    7.0380   -3.6480   22.2400 C   0  0  0  0  0  0  0  0  0  0  0  0
    7.8780   -0.8630   21.4450 C   0  0  0  0  0  0  0  0  0  0  0  0
    7.3400   -2.9910   23.4310 C   0  0  0  0  0  0  0  0  0  0  0  0
    8.5970   -2.2490   23.3660 N   0  0  0  0  0  0  0  0  0  0  0  0
    8.9260   -1.8050   22.0850 C   0  0  0  0  0  0  0  0  0  0  0  0
    9.6310   -2.9460   23.9540 C   0  0  0  0  0  0  0  0  0  0  0  0
    9.2240   -3.9090   25.0760 C   0  0  0  0  0  0  0  0  0  0  0  0
    9.8340   -5.2550   25.3040 C   0  0  0  0  0  0  0  0  0  0  0  0
    8.0170   -3.6670   26.2820 S   0  0  0  0  0  0  0  0  0  0  0  0
    9.3100   -5.9360   26.3730 C   0  0  0  0  0  0  0  0  0  0  0  0
    8.3290   -5.1930   26.9800 C   0  0  0  0  0  0  0  0  0  0  0  0
    7.4590   -5.7460   28.3520 Cl  0  0  0  0  0  0  0  0  0  0  0  0
  1  2  1  0
  1  3  2  0
  1  4  1  0
  4  5  1  0
  4  6  1  0
  5  7  1  0
  6  8  1  0
  8  9  1  0
  7 10  1  0
  9 10  1  0
  9 11  1  0
 11 12  1  0
 12 13  2  0
 12 14  1  0
 13 15  1  0
 14 16  1  0
 15 16  2  0
 16 17  1  0
M  END
