x0831_1-x0770_0
     RDKit          3D

 18 19  0  0  0  0  0  0  0  0999 V2000
    6.1240   -3.4450   19.9810 C   0  0  0  0  0  0  0  0  0  0  0  0
    7.1180   -3.0340   18.8800 C   0  0  0  0  0  0  0  0  0  0  0  0
    5.2590   -4.2790   19.7550 O   0  0  0  0  0  0  0  0  0  0  0  0
    6.2170   -2.8960   21.2360 N   0  0  0  0  0  0  0  0  0  0  0  0
    6.2530   -1.4320   21.3070 C   0  0  0  0  0  0  0  0  0  0  0  0
    6.8750   -3.5980   22.2910 C   0  0  0  0  0  0  0  0  0  0  0  0
    7.6670   -0.8660   21.1220 C   0  0  0  0  0  0  0  0  0  0  0  0
    7.2190   -2.9440   23.3880 C   0  0  0  0  0  0  0  0  0  0  0  0
    8.2400   -1.8940   23.2480 N   0  0  0  0  0  0  0  0  0  0  0  0
    8.7210   -1.6510   21.9220 C   0  0  0  0  0  0  0  0  0  0  0  0
    9.2480   -2.1490   24.2490 C   0  0  0  0  0  0  0  0  0  0  0  0
   10.4800   -1.3610   23.8260 C   0  0  0  0  0  0  0  0  0  0  0  0
   11.2500   -1.8760   22.8320 C   0  0  0  0  0  0  0  0  0  0  0  0
   10.8500   -0.1480   24.3910 C   0  0  0  0  0  0  0  0  0  0  0  0
   12.4590   -1.1530   22.3610 C   0  0  0  0  0  0  0  0  0  0  0  0
   11.9630    0.5830   24.0030 C   0  0  0  0  0  0  0  0  0  0  0  0
   13.3640   -1.8340   21.1150 Cl  0  0  0  0  0  0  0  0  0  0  0  0
   12.8060    0.1780   23.0300 C   0  0  0  0  0  0  0  0  0  0  0  0
  1  2  1  0
  1  3  2  0
  1  4  1  0
  4  5  1  0
  4  6  1  0
  5  7  1  0
  6  8  1  0
  8  9  1  0
  7 10  1  0
  9 10  1  0
  9 11  1  0
 11 12  1  0
 12 13  2  0
 12 14  1  0
 13 15  1  0
 14 16  2  0
 15 17  1  0
 15 18  2  0
 16 18  1  0
M  END
