x0831_0-x1385_1-x1334_0-x1334_1-x0692_1-x1374_1-x1386_1-x0770_1-x1418_1-x1412_1-x0434_2-x0397_0
     RDKit          3D

 40 44  0  0  0  0  0  0  0  0999 V2000
    6.4310   -3.3750   19.9750 C   0  0  0  0  0  0  0  0  0  0  0  0
    7.4020   -3.0570   18.8280 C   0  0  0  0  0  0  0  0  0  0  0  0
    5.5100   -4.1840   19.7860 O   0  0  0  0  0  0  0  0  0  0  0  0
    6.6280   -2.7300   21.1950 N   0  0  0  0  0  0  0  0  0  0  0  0
    6.5690   -3.3110   22.4220 C   0  0  2  0  0  0  0  0  0  0  0  0
    7.4220   -1.4950   21.2250 C   0  0  1  0  0  0  0  0  0  0  0  0
    7.9830   -3.6030   22.9880 C   0  0  0  0  0  0  0  0  0  0  0  0
    8.8570   -1.7720   21.7290 C   0  0  0  0  0  0  0  0  0  0  0  0
    5.6960   -4.5140   22.4200 C   0  0  2  0  0  0  0  0  0  0  0  0
    7.3700   -0.8640   19.9290 C   0  0  0  0  0  0  0  0  0  0  0  0
    8.8030   -2.3880   23.0270 N   0  0  0  0  0  0  0  0  0  0  0  0
    5.9570   -5.4500   23.4910 C   0  0  2  0  0  0  0  0  0  0  0  0
    6.1080   -6.0990   22.2810 C   0  0  0  0  0  0  0  0  0  0  0  0
    6.3150   -1.3630   19.2190 C   0  0  0  0  0  0  0  0  0  0  0  0
   10.0050   -2.4280   23.7150 C   0  0  2  0  0  0  0  0  0  0  0  0
    6.0860   -0.2930   18.2510 C   0  0  0  0  0  0  0  0  0  0  0  0
    4.9300   -5.9280   24.3690 C   0  0  0  0  0  0  0  0  0  0  0  0
    9.7360   -2.6030   25.1810 C   0  0  0  0  0  0  0  0  0  0  0  0
   10.8000   -1.1030   23.6050 C   0  0  0  0  0  0  0  0  0  0  0  0
    5.4700   -0.0960   19.7010 C   0  0  0  0  0  0  0  0  0  0  0  0
    5.7410    0.8080   17.5550 N   0  0  0  0  0  0  0  0  0  0  0  0
    4.4780   -7.2180   23.8070 C   0  0  0  0  0  0  0  0  0  0  0  0
   10.2040    0.0230   24.2300 C   0  0  0  0  0  0  0  0  0  0  0  0
   12.0620   -0.9830   22.9170 C   0  0  0  0  0  0  0  0  0  0  0  0
    9.3350   -3.9400   25.7560 C   0  0  0  0  0  0  0  0  0  0  0  0
    5.0480    1.8610   17.8830 C   0  0  0  0  0  0  0  0  0  0  0  0
    4.6680    1.0880   20.1640 C   0  0  0  0  0  0  0  0  0  0  0  0
    3.9190   -8.0390   24.8170 O   0  0  0  0  0  0  0  0  0  0  0  0
   12.7290   -2.1170   22.2320 C   0  0  0  0  0  0  0  0  0  0  0  0
   10.7680    1.2990   24.2250 C   0  0  0  0  0  0  0  0  0  0  0  0
   12.7400    0.2210   22.8430 C   0  0  0  0  0  0  0  0  0  0  0  0
   10.0010   -5.3370   25.4430 C   0  0  0  0  0  0  0  0  0  0  0  0
    8.0240   -3.8350   26.8780 S   0  0  0  0  0  0  0  0  0  0  0  0
    4.4810    2.1390   19.0650 C   0  0  0  0  0  0  0  0  0  0  0  0
    2.5070   -8.0500   24.7750 C   0  0  0  0  0  0  0  0  0  0  0  0
   12.0720    1.4710   23.5310 C   0  0  0  0  0  0  0  0  0  0  0  0
    9.1430   -6.0360   26.4110 C   0  0  0  0  0  0  0  0  0  0  0  0
    8.0760   -5.4190   27.2350 C   0  0  0  0  0  0  0  0  0  0  0  0
    2.0900   -7.0630   23.8490 O   0  0  0  0  0  0  0  0  0  0  0  0
    7.0120   -6.0820   28.3920 Cl  0  0  0  0  0  0  0  0  0  0  0  0
  1  2  1  0
  1  3  2  0
  1  4  1  0
  4  5  1  0
  4  6  1  0
  5  7  1  6
  6  8  1  0
  5  9  1  0
  6 10  1  6
  7 11  1  0
  8 11  1  0
  9 12  1  0
  9 13  1  6
 12 13  1  0
 10 14  1  0
 11 15  1  0
 14 16  1  0
 12 17  1  1
 15 18  1  1
 15 19  1  0
 16 20  2  0
 16 21  1  0
 17 22  1  0
 19 23  2  0
 19 24  1  0
 18 25  1  0
 21 26  2  0
 20 27  1  0
 22 28  1  0
 24 29  1  0
 23 30  1  0
 24 31  2  0
 25 32  2  0
 25 33  1  0
 26 34  1  0
 27 34  2  0
 28 35  1  0
 30 36  2  0
 31 36  1  0
 32 37  1  0
 33 38  1  0
 37 38  2  0
 35 39  1  0
 38 40  1  0
M  END
