x0831_0-x1418_1-x1418_0-x0397_0
     RDKit          3D

 21 23  0  0  0  0  0  0  0  0999 V2000
    6.2940   -3.2990   19.8460 C   0  0  0  0  0  0  0  0  0  0  0  0
    7.2770   -2.9660   18.7410 C   0  0  0  0  0  0  0  0  0  0  0  0
    5.3230   -4.0370   19.6710 O   0  0  0  0  0  0  0  0  0  0  0  0
    6.5810   -2.7840   21.1050 N   0  0  0  0  0  0  0  0  0  0  0  0
    7.0320   -3.7270   22.1580 C   0  0  1  0  0  0  0  0  0  0  0  0
    7.1040   -1.4040   21.2850 C   0  0  0  0  0  0  0  0  0  0  0  0
    7.8840   -3.0630   23.2650 C   0  0  0  0  0  0  0  0  0  0  0  0
    8.4690   -1.4200   21.5590 C   0  0  0  0  0  0  0  0  0  0  0  0
    6.0200   -4.6020   22.4840 C   0  0  0  0  0  0  0  0  0  0  0  0
    8.7560   -1.9280   22.8880 N   0  0  0  0  0  0  0  0  0  0  0  0
    6.2190   -5.8150   23.2330 C   0  0  0  0  0  0  0  0  0  0  0  0
    6.1160   -6.0990   22.0170 C   0  0  0  0  0  0  0  0  0  0  0  0
   10.1180   -2.2180   23.0570 C   0  0  2  0  0  0  0  0  0  0  0  0
   10.4330   -3.0720   24.2070 C   0  0  0  0  0  0  0  0  0  0  0  0
   10.8870   -0.9410   23.1860 C   0  0  0  0  0  0  0  0  0  0  0  0
   10.2100    0.2210   23.8690 C   0  0  0  0  0  0  0  0  0  0  0  0
   12.1880   -0.8120   22.6930 C   0  0  0  0  0  0  0  0  0  0  0  0
   12.8600   -1.9650   22.0140 C   0  0  0  0  0  0  0  0  0  0  0  0
   10.9590    1.5690   24.0080 C   0  0  0  0  0  0  0  0  0  0  0  0
   12.9070    0.3580   22.7960 C   0  0  0  0  0  0  0  0  0  0  0  0
   12.2380    1.5830   23.4780 C   0  0  0  0  0  0  0  0  0  0  0  0
  1  2  1  0
  1  3  2  0
  1  4  1  0
  4  5  1  0
  4  6  1  0
  5  7  1  0
  6  8  1  0
  5  9  1  1
  7 10  1  0
  8 10  1  0
  9 11  1  0
  9 12  1  0
 11 12  1  0
 10 13  1  0
 13 14  1  1
 13 15  1  0
 15 16  2  0
 15 17  1  0
 17 18  1  0
 16 19  1  0
 17 20  2  0
 19 21  2  0
 20 21  1  0
M  END
