x0831_0-x1374_1-x0397_0-x1386_1-x0692_1
     RDKit          3D

 26 28  0  0  0  0  0  0  0  0999 V2000
    2.7410   -7.3420   23.3350 O   0  0  0  0  0  0  0  0  0  0  0  0
    3.0550   -7.4340   24.7300 C   0  0  0  0  0  0  0  0  0  0  0  0
    4.3710   -7.9260   24.8340 O   0  0  0  0  0  0  0  0  0  0  0  0
    5.2920   -7.3580   23.8920 C   0  0  0  0  0  0  0  0  0  0  0  0
    5.9740   -6.3260   24.4580 C   0  0  0  0  0  0  0  0  0  0  0  0
    6.2440   -5.3810   23.3420 C   0  0  2  0  0  0  0  0  0  0  0  0
    5.3460   -4.9260   22.6060 C   0  0  2  0  0  0  0  0  0  0  0  0
    6.2630   -5.8760   21.9600 C   0  0  0  0  0  0  0  0  0  0  0  0
    5.4730   -3.5710   22.4560 C   0  0  0  0  0  0  0  0  0  0  0  0
    6.9030   -3.1710   22.0440 C   0  0  1  0  0  0  0  0  0  0  0  0
    6.7330   -2.3410   20.9190 N   0  0  0  0  0  0  0  0  0  0  0  0
    7.6280   -2.8180   23.1960 C   0  0  0  0  0  0  0  0  0  0  0  0
    6.4250   -3.0860   19.7600 C   0  0  0  0  0  0  0  0  0  0  0  0
    8.6760   -1.8170   23.0000 N   0  0  0  0  0  0  0  0  0  0  0  0
    7.5030   -1.2750   20.9130 C   0  0  0  0  0  0  0  0  0  0  0  0
    7.4030   -2.9530   18.6360 C   0  0  0  0  0  0  0  0  0  0  0  0
    5.4510   -3.8570   19.6310 O   0  0  0  0  0  0  0  0  0  0  0  0
    9.9670   -2.2140   23.5380 C   0  0  0  0  0  0  0  0  0  0  0  0
    8.7780   -1.5190   21.6220 C   0  0  0  0  0  0  0  0  0  0  0  0
   10.8600   -1.0150   23.4710 C   0  0  0  0  0  0  0  0  0  0  0  0
   10.2640    0.2350   24.1070 C   0  0  0  0  0  0  0  0  0  0  0  0
   12.1380   -0.9660   22.8750 C   0  0  0  0  0  0  0  0  0  0  0  0
   12.7800   -2.1510   22.2260 C   0  0  0  0  0  0  0  0  0  0  0  0
   10.9370    1.4340   24.1110 C   0  0  0  0  0  0  0  0  0  0  0  0
   12.9070    0.3830   22.8840 C   0  0  0  0  0  0  0  0  0  0  0  0
   12.3300    1.5050   23.4620 C   0  0  0  0  0  0  0  0  0  0  0  0
  1  2  1  0
  2  3  1  0
  3  4  1  0
  4  5  1  0
  6  5  1  1
  6  7  1  0
  6  8  1  0
  7  8  1  0
  7  9  1  6
 10  9  1  1
 10 11  1  0
 10 12  1  0
 11 13  1  0
 12 14  1  0
 11 15  1  0
 13 16  1  0
 13 17  2  0
 14 18  1  0
 14 19  1  0
 15 19  1  0
 18 20  1  0
 20 21  2  0
 20 22  1  0
 22 23  1  0
 21 24  1  0
 22 25  2  0
 24 26  2  0
 25 26  1  0
M  END
