x0831_0-x0770_1-x0434_2
     RDKit          3D

 24 26  0  0  0  0  0  0  0  0999 V2000
    6.3840   -3.2480   19.9320 C   0  0  0  0  0  0  0  0  0  0  0  0
    7.3270   -2.9540   18.7870 C   0  0  0  0  0  0  0  0  0  0  0  0
    5.4170   -4.0080   19.7080 O   0  0  0  0  0  0  0  0  0  0  0  0
    6.6530   -2.7220   21.2080 N   0  0  0  0  0  0  0  0  0  0  0  0
    7.5040   -1.5470   21.5220 C   0  0  1  0  0  0  0  0  0  0  0  0
    6.6300   -3.5250   22.2610 C   0  0  0  0  0  0  0  0  0  0  0  0
    8.9490   -1.8800   21.8060 C   0  0  0  0  0  0  0  0  0  0  0  0
    7.6240   -3.1300   23.3660 C   0  0  0  0  0  0  0  0  0  0  0  0
    7.4290   -0.2400   20.7570 C   0  0  0  0  0  0  0  0  0  0  0  0
    9.0030   -2.8120   22.9150 N   0  0  0  0  0  0  0  0  0  0  0  0
    7.0360   -0.1030   19.3130 C   0  0  0  0  0  0  0  0  0  0  0  0
    9.8000   -2.3420   23.9430 C   0  0  0  0  0  0  0  0  0  0  0  0
    6.1440    0.5100   20.2580 C   0  0  0  0  0  0  0  0  0  0  0  0
    6.3920    0.2150   18.1140 N   0  0  0  0  0  0  0  0  0  0  0  0
   10.6580   -1.0940   23.7310 C   0  0  0  0  0  0  0  0  0  0  0  0
    5.2640    0.9090   17.9200 C   0  0  0  0  0  0  0  0  0  0  0  0
    4.9640    1.2280   20.1080 C   0  0  0  0  0  0  0  0  0  0  0  0
   10.1270    0.0990   24.3130 C   0  0  0  0  0  0  0  0  0  0  0  0
   11.8920   -1.0640   23.0270 C   0  0  0  0  0  0  0  0  0  0  0  0
    4.5160    1.4330   18.8790 C   0  0  0  0  0  0  0  0  0  0  0  0
   12.5000   -2.2800   22.3870 C   0  0  0  0  0  0  0  0  0  0  0  0
   10.9630    1.3680   24.1210 C   0  0  0  0  0  0  0  0  0  0  0  0
   12.6080    0.1230   22.8970 C   0  0  0  0  0  0  0  0  0  0  0  0
   12.1590    1.3310   23.4300 C   0  0  0  0  0  0  0  0  0  0  0  0
  1  2  1  0
  1  3  2  0
  1  4  1  0
  4  5  1  0
  4  6  1  0
  5  7  1  0
  6  8  1  0
  5  9  1  6
  7 10  1  0
  8 10  1  0
  9 11  1  0
 10 12  1  0
 11 13  2  0
 11 14  1  0
 12 15  1  0
 14 16  2  0
 13 17  1  0
 15 18  2  0
 15 19  1  0
 16 20  1  0
 17 20  2  0
 19 21  1  0
 18 22  1  0
 19 23  2  0
 22 24  2  0
 23 24  1  0
M  END
