x0831_0-x1334_1-x0770_1-x1334_0-x1385_1-x0692_1-x0397_0-x1375_1-x1418_1-x0434_2
     RDKit          3D

 38 42  0  0  0  0  0  0  0  0999 V2000
    3.1260   -8.0740   24.4630 O   0  0  0  0  0  0  0  0  0  0  0  0
    3.5600   -7.1830   25.4600 C   0  0  0  0  0  0  0  0  0  0  0  0
    4.7580   -6.5960   25.0020 O   0  0  0  0  0  0  0  0  0  0  0  0
    4.9110   -6.8000   23.6040 C   0  0  0  0  0  0  0  0  0  0  0  0
    5.8870   -5.8200   23.0210 C   0  0  2  0  0  0  0  0  0  0  0  0
    5.5240   -4.5760   22.3350 C   0  0  2  0  0  0  0  0  0  0  0  0
    6.2130   -5.9590   21.6430 C   0  0  0  0  0  0  0  0  0  0  0  0
    6.3320   -3.3210   22.4200 C   0  0  2  0  0  0  0  0  0  0  0  0
    6.3620   -2.6410   21.1120 N   0  0  0  0  0  0  0  0  0  0  0  0
    7.7290   -3.5340   22.9240 C   0  0  0  0  0  0  0  0  0  0  0  0
    6.2460   -3.3420   19.9260 C   0  0  0  0  0  0  0  0  0  0  0  0
    8.4370   -2.2530   23.0840 N   0  0  0  0  0  0  0  0  0  0  0  0
    7.2330   -1.4850   21.0560 C   0  0  1  0  0  0  0  0  0  0  0  0
    7.2310   -3.0220   18.8070 C   0  0  0  0  0  0  0  0  0  0  0  0
    5.3850   -4.2170   19.7830 O   0  0  0  0  0  0  0  0  0  0  0  0
    9.7360   -2.4770   23.1940 C   0  0  2  0  0  0  0  0  0  0  0  0
    6.3710   -0.3490   21.2220 N   0  0  0  0  0  0  0  0  0  0  0  0
    8.4810   -1.4130   21.9160 C   0  0  0  0  0  0  0  0  0  0  0  0
   10.0990   -3.6800   23.9250 C   0  0  0  0  0  0  0  0  0  0  0  0
   10.5810   -1.1910   23.3210 C   0  0  0  0  0  0  0  0  0  0  0  0
    6.0060    0.2740   20.0800 C   0  0  0  0  0  0  0  0  0  0  0  0
   10.0060   -0.0180   24.0620 C   0  0  0  0  0  0  0  0  0  0  0  0
   12.0030   -0.9470   22.7210 C   0  0  0  0  0  0  0  0  0  0  0  0
    9.4070   -4.2850   25.0950 C   0  0  0  0  0  0  0  0  0  0  0  0
    6.6920    0.2370   18.7190 C   0  0  0  0  0  0  0  0  0  0  0  0
    4.7890    1.1430   19.9970 C   0  0  0  0  0  0  0  0  0  0  0  0
   12.7760   -1.9550   21.9420 C   0  0  0  0  0  0  0  0  0  0  0  0
   10.7640    1.3130   24.1940 C   0  0  0  0  0  0  0  0  0  0  0  0
   12.7670    0.3670   22.8560 C   0  0  0  0  0  0  0  0  0  0  0  0
    9.7340   -5.5130   25.5490 C   0  0  0  0  0  0  0  0  0  0  0  0
    8.1570   -3.6940   26.0820 S   0  0  0  0  0  0  0  0  0  0  0  0
    6.3610    0.8370   17.5770 N   0  0  0  0  0  0  0  0  0  0  0  0
    4.4720    1.7540   18.8040 C   0  0  0  0  0  0  0  0  0  0  0  0
   12.1610    1.5080   23.5780 C   0  0  0  0  0  0  0  0  0  0  0  0
    9.0690   -6.0050   26.6220 C   0  0  0  0  0  0  0  0  0  0  0  0
    8.1430   -5.1220   27.0660 C   0  0  0  0  0  0  0  0  0  0  0  0
    5.1740    1.6290   17.6950 C   0  0  0  0  0  0  0  0  0  0  0  0
    7.0890   -5.3390   28.3970 Cl  0  0  0  0  0  0  0  0  0  0  0  0
  1  2  1  0
  2  3  1  0
  3  4  1  0
  5  4  1  6
  5  6  1  0
  5  7  1  0
  6  7  1  6
  6  8  1  0
  8  9  1  0
  8 10  1  6
  9 11  1  0
 10 12  1  0
  9 13  1  0
 11 14  1  0
 11 15  2  0
 12 16  1  0
 13 17  1  1
 12 18  1  0
 13 18  1  0
 16 19  1  1
 16 20  1  0
 17 21  1  0
 20 22  2  0
 20 23  1  0
 19 24  1  0
 21 25  2  0
 21 26  1  0
 23 27  1  0
 22 28  1  0
 23 29  2  0
 24 30  2  0
 24 31  1  0
 25 32  1  0
 26 33  2  0
 28 34  2  0
 29 34  1  0
 30 35  1  0
 31 36  1  0
 35 36  2  0
 32 37  2  0
 33 37  1  0
 36 38  1  0
M  END
