x0831_0-x0770_1-x1334_1-x0434_2
     RDKit          3D

 24 26  0  0  0  0  0  0  0  0999 V2000
    6.4390   -3.3400   19.9100 C   0  0  0  0  0  0  0  0  0  0  0  0
    7.3530   -3.0620   18.7240 C   0  0  0  0  0  0  0  0  0  0  0  0
    5.5290   -4.1860   19.7980 O   0  0  0  0  0  0  0  0  0  0  0  0
    6.7150   -2.6070   21.0700 N   0  0  0  0  0  0  0  0  0  0  0  0
    7.7990   -1.6400   20.8970 C   0  0  2  0  0  0  0  0  0  0  0  0
    6.6600   -3.2760   22.3830 C   0  0  0  0  0  0  0  0  0  0  0  0
    9.0060   -1.8370   21.7990 C   0  0  0  0  0  0  0  0  0  0  0  0
    7.9290   -3.5810   22.9760 C   0  0  0  0  0  0  0  0  0  0  0  0
    7.3630   -0.2000   20.7330 C   0  0  0  0  0  0  0  0  0  0  0  0
    8.7670   -2.3650   23.1160 N   0  0  0  0  0  0  0  0  0  0  0  0
    7.0510    0.2280   19.3080 C   0  0  0  0  0  0  0  0  0  0  0  0
   10.1070   -2.5760   23.6950 C   0  0  0  0  0  0  0  0  0  0  0  0
    6.0140    0.4750   20.2790 C   0  0  0  0  0  0  0  0  0  0  0  0
    6.3990    0.7730   18.0500 N   0  0  0  0  0  0  0  0  0  0  0  0
   10.8040   -1.1880   23.6440 C   0  0  0  0  0  0  0  0  0  0  0  0
    5.1890    1.3550   17.8570 C   0  0  0  0  0  0  0  0  0  0  0  0
    4.6490    1.1180   20.0580 C   0  0  0  0  0  0  0  0  0  0  0  0
   10.2480    0.0990   24.2780 C   0  0  0  0  0  0  0  0  0  0  0  0
   12.0460   -0.9930   22.9700 C   0  0  0  0  0  0  0  0  0  0  0  0
    4.2900    1.5610   18.7460 C   0  0  0  0  0  0  0  0  0  0  0  0
   12.7590   -2.1020   22.2720 C   0  0  0  0  0  0  0  0  0  0  0  0
   10.8960    1.3010   24.1860 C   0  0  0  0  0  0  0  0  0  0  0  0
   12.6650    0.2900   22.9260 C   0  0  0  0  0  0  0  0  0  0  0  0
   12.1340    1.4330   23.5040 C   0  0  0  0  0  0  0  0  0  0  0  0
  1  2  1  0
  1  3  2  0
  1  4  1  0
  4  5  1  0
  4  6  1  0
  5  7  1  0
  6  8  1  0
  5  9  1  1
  7 10  1  0
  8 10  1  0
  9 11  1  0
 10 12  1  0
 11 13  2  0
 11 14  1  0
 12 15  1  0
 14 16  2  0
 13 17  1  0
 15 18  2  0
 15 19  1  0
 16 20  1  0
 17 20  2  0
 19 21  1  0
 18 22  1  0
 19 23  2  0
 22 24  2  0
 23 24  1  0
M  END
