x0831_1-x0749_0
     RDKit          3D

 19 21  0  0  0  0  0  0  0  0999 V2000
    6.2290   -3.4270   20.0070 C   0  0  0  0  0  0  0  0  0  0  0  0
    7.2630   -3.0560   18.9420 C   0  0  0  0  0  0  0  0  0  0  0  0
    5.3800   -4.2930   19.7960 O   0  0  0  0  0  0  0  0  0  0  0  0
    6.3060   -2.7620   21.2240 N   0  0  0  0  0  0  0  0  0  0  0  0
    6.3070   -1.3010   21.1770 C   0  0  0  0  0  0  0  0  0  0  0  0
    6.9310   -3.3500   22.4480 C   0  0  0  0  0  0  0  0  0  0  0  0
    7.7130   -0.7000   21.2100 C   0  0  0  0  0  0  0  0  0  0  0  0
    7.2940   -2.2260   23.4870 C   0  0  0  0  0  0  0  0  0  0  0  0
    8.6260   -1.6830   23.2490 N   0  0  0  0  0  0  0  0  0  0  0  0
    8.8380   -1.5170   21.8980 C   0  0  0  0  0  0  0  0  0  0  0  0
    9.5580   -2.5370   23.8450 N   0  0  0  0  0  0  0  0  0  0  0  0
    9.1170   -3.7090   24.4670 C   0  0  0  0  0  0  0  0  0  0  0  0
   10.8280   -2.1260   24.5550 C   0  0  1  0  0  0  0  0  0  0  0  0
   11.5880   -3.3070   24.7280 C   0  0  2  0  0  0  0  0  0  0  0  0
   10.4650   -4.4480   25.2410 S   0  0  0  0  0  0  0  0  0  0  0  0
   11.5370   -1.0360   24.0420 C   0  0  0  0  0  0  0  0  0  0  0  0
   12.8730   -0.9440   24.4390 C   0  0  0  0  0  0  0  0  0  0  0  0
   12.6820   -3.1220   25.4400 C   0  0  0  0  0  0  0  0  0  0  0  0
   13.3440   -1.9410   25.3020 C   0  0  0  0  0  0  0  0  0  0  0  0
  1  2  1  0
  1  3  2  0
  1  4  1  0
  4  5  1  0
  4  6  1  0
  5  7  1  0
  6  8  1  0
  8  9  1  0
  7 10  1  0
  9 10  1  0
  9 11  1  0
 11 12  1  0
 11 13  1  0
 13 14  1  0
 12 15  2  0
 14 15  1  0
 13 16  1  6
 16 17  2  0
 14 18  1  1
 17 19  1  0
 18 19  2  0
M  END
