x0831_0-x1386_1-x1334_1-x0770_1-x0831_1-x1374_1-x1334_0-x1412_1-x0397_0-x0434_2-x0692_1-x1375_1-x0426_1-x1418_1
     RDKit          3D

 45 50  0  0  0  0  0  0  0  0999 V2000
    2.5100   -7.4830   23.0060 O   0  0  0  0  0  0  0  0  0  0  0  0
    2.6770   -7.8660   24.3460 C   0  0  0  0  0  0  0  0  0  0  0  0
    4.0620   -7.8600   24.6240 O   0  0  0  0  0  0  0  0  0  0  0  0
    4.4820   -6.6710   25.2920 C   0  0  0  0  0  0  0  0  0  0  0  0
    5.3210   -5.7680   24.5270 C   0  0  0  0  0  0  0  0  0  0  0  0
    5.7080   -6.2710   23.1540 C   0  0  2  0  0  0  0  0  0  0  0  0
    6.0530   -5.4370   22.2860 C   0  0  1  0  0  0  0  0  0  0  0  0
    4.7780   -6.3930   22.2610 C   0  0  0  0  0  0  0  0  0  0  0  0
    5.9380   -3.9680   22.3990 C   0  0  0  0  0  0  0  0  0  0  0  0
    7.1540   -3.2520   22.1150 C   0  0  1  0  0  0  0  0  0  0  0  0
    6.8800   -2.4500   20.9450 N   0  0  0  0  0  0  0  0  0  0  0  0
    7.4650   -2.4320   23.3120 C   0  0  0  0  0  0  0  0  0  0  0  0
    6.5520   -3.1110   19.7580 C   0  0  0  0  0  0  0  0  0  0  0  0
    8.5760   -1.5080   23.1570 N   0  0  0  0  0  0  0  0  0  0  0  0
    7.5770   -1.1650   21.0070 C   0  0  2  0  0  0  0  0  0  0  0  0
    7.5220   -2.9660   18.6310 C   0  0  0  0  0  0  0  0  0  0  0  0
    5.5470   -3.8450   19.6360 O   0  0  0  0  0  0  0  0  0  0  0  0
    9.6010   -1.8470   23.9340 C   0  0  1  0  0  0  0  0  0  0  0  0
    8.8970   -1.4150   21.7440 C   0  0  0  0  0  0  0  0  0  0  0  0
    6.7250   -0.1320   21.7440 C   0  0  0  0  0  0  0  0  0  0  0  0
    9.9620   -3.2890   23.8330 C   0  0  0  0  0  0  0  0  0  0  0  0
   10.6280   -0.7570   23.6740 C   0  0  0  0  0  0  0  0  0  0  0  0
    5.2380   -0.3080   21.3980 C   0  0  1  0  0  0  0  0  0  0  0  0
   10.3700    0.4790   24.1940 C   0  0  0  0  0  0  0  0  0  0  0  0
   11.8140   -0.9180   22.9240 C   0  0  0  0  0  0  0  0  0  0  0  0
    9.3730   -4.1300   25.0060 C   0  0  0  0  0  0  0  0  0  0  0  0
    4.3240    0.1610   22.2890 C   0  0  0  0  0  0  0  0  0  0  0  0
    5.2420    0.3650   20.0650 C   0  0  0  0  0  0  0  0  0  0  0  0
   12.2860   -2.2560   22.2210 C   0  0  0  0  0  0  0  0  0  0  0  0
   11.2290    1.6790   24.0350 C   0  0  0  0  0  0  0  0  0  0  0  0
   12.8430    0.2510   22.6780 C   0  0  0  0  0  0  0  0  0  0  0  0
    9.8690   -5.5150   25.2910 C   0  0  0  0  0  0  0  0  0  0  0  0
    8.1430   -3.7120   26.1490 S   0  0  0  0  0  0  0  0  0  0  0  0
    4.2450    1.6950   22.1800 C   0  0  2  0  0  0  0  0  0  0  0  0
    4.4350    1.4420   19.8070 C   0  0  0  0  0  0  0  0  0  0  0  0
    6.0810   -0.0810   19.0590 C   0  0  0  0  0  0  0  0  0  0  0  0
   12.4980    1.6290   23.2800 C   0  0  0  0  0  0  0  0  0  0  0  0
    9.2470   -6.0690   26.3670 C   0  0  0  0  0  0  0  0  0  0  0  0
    8.2770   -5.2240   26.9600 C   0  0  0  0  0  0  0  0  0  0  0  0
    3.6130    2.1860   23.4370 N   0  0  0  0  0  0  0  0  0  0  0  0
    3.5200    1.9550   20.8610 C   0  0  0  0  0  0  0  0  0  0  0  0
    4.5040    2.0700   18.4870 C   0  0  0  0  0  0  0  0  0  0  0  0
    6.1790    0.4600   17.8360 N   0  0  0  0  0  0  0  0  0  0  0  0
    7.2990   -5.5770   28.3230 Cl  0  0  0  0  0  0  0  0  0  0  0  0
    5.3930    1.5150   17.5930 C   0  0  0  0  0  0  0  0  0  0  0  0
  1  2  1  0
  2  3  1  0
  3  4  1  0
  4  5  1  0
  6  5  1  1
  6  7  1  0
  6  8  1  0
  7  8  1  0
  7  9  1  1
 10  9  1  1
 10 11  1  0
 10 12  1  0
 11 13  1  0
 12 14  1  0
 11 15  1  0
 13 16  1  0
 13 17  2  0
 14 18  1  0
 14 19  1  0
 15 19  1  0
 15 20  1  1
 18 21  1  6
 18 22  1  0
 23 20  1  1
 22 24  2  0
 22 25  1  0
 21 26  1  0
 23 27  1  0
 23 28  1  0
 25 29  1  0
 24 30  1  0
 25 31  2  0
 26 32  2  0
 26 33  1  0
 27 34  1  0
 28 35  2  0
 28 36  1  0
 30 37  2  0
 31 37  1  0
 32 38  1  0
 33 39  1  0
 38 39  2  0
 34 40  1  1
 34 41  1  0
 35 41  1  0
 35 42  1  0
 36 43  2  0
 39 44  1  0
 42 45  2  0
 43 45  1  0
M  END
