x0831_0-x1334_0-x1334_1-x0397_0-x1385_1-x0831_1-x0770_1-x1418_1
     RDKit          3D

 27 30  0  0  0  0  0  0  0  0999 V2000
    6.3040   -3.3350   19.8760 C   0  0  0  0  0  0  0  0  0  0  0  0
    7.3130   -3.0280   18.7710 C   0  0  0  0  0  0  0  0  0  0  0  0
    5.4000   -4.1640   19.7480 O   0  0  0  0  0  0  0  0  0  0  0  0
    6.4940   -2.6120   21.0460 N   0  0  0  0  0  0  0  0  0  0  0  0
    7.3750   -1.4340   20.9860 C   0  0  0  0  0  0  0  0  0  0  0  0
    6.3870   -3.2160   22.2840 C   0  0  2  0  0  0  0  0  0  0  0  0
    8.7930   -1.6450   21.5580 C   0  0  0  0  0  0  0  0  0  0  0  0
    7.7600   -3.3430   22.9050 C   0  0  0  0  0  0  0  0  0  0  0  0
    5.6490   -4.5330   22.2430 C   0  0  0  0  0  0  0  0  0  0  0  0
    8.5110   -2.0810   22.8990 N   0  0  0  0  0  0  0  0  0  0  0  0
    6.1210   -5.7130   22.9880 C   0  0  0  0  0  0  0  0  0  0  0  0
    6.2460   -5.9170   21.7520 C   0  0  0  0  0  0  0  0  0  0  0  0
    9.5990   -1.9960   23.8190 C   0  0  1  0  0  0  0  0  0  0  0  0
   10.2050   -3.3080   24.0580 C   0  0  0  0  0  0  0  0  0  0  0  0
   10.5330   -0.7760   23.6610 C   0  0  0  0  0  0  0  0  0  0  0  0
   10.1820    0.5440   24.0880 C   0  0  0  0  0  0  0  0  0  0  0  0
   11.8100   -0.9190   23.0740 C   0  0  0  0  0  0  0  0  0  0  0  0
    9.6010   -4.2150   25.1060 C   0  0  0  0  0  0  0  0  0  0  0  0
   12.3320   -2.2270   22.5610 C   0  0  0  0  0  0  0  0  0  0  0  0
   11.0400    1.5810   23.9360 C   0  0  0  0  0  0  0  0  0  0  0  0
   12.6910    0.1610   22.9240 C   0  0  0  0  0  0  0  0  0  0  0  0
    9.9380   -5.4910   25.3730 C   0  0  0  0  0  0  0  0  0  0  0  0
    8.3190   -3.7660   26.1960 S   0  0  0  0  0  0  0  0  0  0  0  0
   12.2960    1.4260   23.3630 C   0  0  0  0  0  0  0  0  0  0  0  0
    9.1780   -6.1170   26.4790 C   0  0  0  0  0  0  0  0  0  0  0  0
    8.2500   -5.2660   27.0290 C   0  0  0  0  0  0  0  0  0  0  0  0
    7.1680   -5.5650   28.3190 Cl  0  0  0  0  0  0  0  0  0  0  0  0
  1  2  1  0
  1  3  2  0
  1  4  1  0
  4  5  1  0
  4  6  1  0
  5  7  1  0
  6  8  1  0
  6  9  1  6
  7 10  1  0
  8 10  1  0
  9 11  1  0
  9 12  1  0
 11 12  1  0
 10 13  1  0
 13 14  1  6
 13 15  1  0
 15 16  2  0
 15 17  1  0
 14 18  1  0
 17 19  1  0
 16 20  1  0
 17 21  2  0
 18 22  2  0
 18 23  1  0
 20 24  2  0
 21 24  1  0
 22 25  1  0
 23 26  1  0
 25 26  2  0
 26 27  1  0
M  END
