x0831_0-x1385_1-x1334_1-x0734_0-x0397_0
     RDKit          3D

 30 33  0  0  0  0  0  0  0  0999 V2000
    6.3600   -3.2730   19.9050 C   0  0  0  0  0  0  0  0  0  0  0  0
    7.3400   -2.9950   18.7860 C   0  0  0  0  0  0  0  0  0  0  0  0
    5.3890   -4.0310   19.7120 O   0  0  0  0  0  0  0  0  0  0  0  0
    6.6210   -2.6740   21.1530 N   0  0  0  0  0  0  0  0  0  0  0  0
    6.5240   -3.3670   22.4650 C   0  0  2  0  0  0  0  0  0  0  0  0
    7.5220   -1.5870   21.1290 C   0  0  0  0  0  0  0  0  0  0  0  0
    7.7450   -3.1620   23.4010 C   0  0  0  0  0  0  0  0  0  0  0  0
    8.7520   -1.7980   21.7290 C   0  0  0  0  0  0  0  0  0  0  0  0
    6.5670   -4.8820   22.3230 C   0  0  1  0  0  0  0  0  0  0  0  0
    8.6650   -2.0520   23.1610 N   0  0  0  0  0  0  0  0  0  0  0  0
    5.8220   -5.5110   23.1180 C   0  0  2  0  0  0  0  0  0  0  0  0
    5.5840   -5.8560   21.6070 C   0  0  0  0  0  0  0  0  0  0  0  0
    4.7080   -4.8980   23.9950 C   0  0  0  0  0  0  0  0  0  0  0  0
    9.9890   -2.2470   23.7660 C   0  0  0  0  0  0  0  0  0  0  0  0
    4.6120   -5.5730   25.2700 N   0  0  0  0  0  0  0  0  0  0  0  0
   10.8200   -0.9870   23.6460 C   0  0  0  0  0  0  0  0  0  0  0  0
    5.1960   -5.0400   26.2660 N   0  0  0  0  0  0  0  0  0  0  0  0
   10.3100    0.1500   24.2240 C   0  0  0  0  0  0  0  0  0  0  0  0
   12.0680   -0.9270   22.9690 C   0  0  0  0  0  0  0  0  0  0  0  0
    4.6480   -4.0390   26.8340 O   0  0  0  0  0  0  0  0  0  0  0  0
   12.6910   -2.1180   22.3020 C   0  0  0  0  0  0  0  0  0  0  0  0
    6.6830   -5.0800   26.3750 C   0  0  0  0  0  0  0  0  0  0  0  0
   11.0320    1.3210   24.1180 C   0  0  0  0  0  0  0  0  0  0  0  0
   12.7690    0.2930   22.8980 C   0  0  0  0  0  0  0  0  0  0  0  0
    7.5770   -4.6270   25.2600 C   0  0  0  0  0  0  0  0  0  0  0  0
    7.2510   -5.5900   27.6400 C   0  0  0  0  0  0  0  0  0  0  0  0
   12.2400    1.4300   23.4770 C   0  0  0  0  0  0  0  0  0  0  0  0
    8.9400   -4.6850   25.4240 C   0  0  0  0  0  0  0  0  0  0  0  0
    8.7840   -5.6080   27.6970 C   0  0  0  0  0  0  0  0  0  0  0  0
    9.5380   -5.1500   26.5780 C   0  0  0  0  0  0  0  0  0  0  0  0
  1  2  1  0
  1  3  2  0
  1  4  1  0
  4  5  1  0
  4  6  1  0
  5  7  1  1
  6  8  1  0
  5  9  1  0
  7 10  1  0
  8 10  1  0
  9 11  1  0
  9 12  1  6
 11 12  1  0
 11 13  1  6
 10 14  1  0
 13 15  1  0
 14 16  1  0
 15 17  2  3
 16 18  2  0
 16 19  1  0
 17 20  1  0
 19 21  1  0
 17 22  1  0
 18 23  1  0
 19 24  2  0
 22 25  2  0
 22 26  1  0
 23 27  2  0
 24 27  1  0
 25 28  1  0
 26 29  2  0
 28 30  2  0
 29 30  1  0
M  CHG  2  17   1  20  -1
M  END
