x0831_0-x0708_0-x0434_2
     RDKit          3D

 24 25  0  0  0  0  0  0  0  0999 V2000
    7.8720   -2.6790   22.9720 C   0  0  0  0  0  0  0  0  0  0  0  0
    7.9520   -3.6350   21.8680 N   0  0  0  0  0  0  0  0  0  0  0  0
    6.7390   -4.1280   21.3820 N   0  0  0  0  0  0  0  0  0  0  0  0
    6.9850   -1.7360   22.9860 N   0  0  0  0  0  0  0  0  0  0  0  0
    8.8950   -2.8760   24.0690 C   0  0  0  0  0  0  0  0  0  0  0  0
   10.3380   -2.6500   23.5970 C   0  0  0  0  0  0  0  0  0  0  0  0
    6.1280   -1.5190   22.0270 C   0  0  0  0  0  0  0  0  0  0  0  0
    6.3470   -3.8220   20.1000 C   0  0  0  0  0  0  0  0  0  0  0  0
    6.8830   -0.9750   20.9160 N   0  0  0  0  0  0  0  0  0  0  0  0
   10.8870   -1.2350   23.6240 C   0  0  0  0  0  0  0  0  0  0  0  0
    7.3170   -3.1250   19.1440 C   0  0  0  0  0  0  0  0  0  0  0  0
    5.2310   -4.1360   19.7040 O   0  0  0  0  0  0  0  0  0  0  0  0
   10.1780   -0.2510   24.2940 C   0  0  0  0  0  0  0  0  0  0  0  0
   12.1130   -0.9530   22.9600 C   0  0  0  0  0  0  0  0  0  0  0  0
    6.3060   -0.1660   19.9450 C   0  0  0  0  0  0  0  0  0  0  0  0
   12.8630   -2.0280   22.2330 C   0  0  0  0  0  0  0  0  0  0  0  0
   10.7110    1.0660   24.2940 C   0  0  0  0  0  0  0  0  0  0  0  0
   12.6800    0.3290   22.9420 C   0  0  0  0  0  0  0  0  0  0  0  0
    6.8620   -0.0210   18.6930 C   0  0  0  0  0  0  0  0  0  0  0  0
    5.1170    0.5320   20.2360 C   0  0  0  0  0  0  0  0  0  0  0  0
   12.0310    1.3660   23.5810 C   0  0  0  0  0  0  0  0  0  0  0  0
    6.3870    0.7310   17.6940 N   0  0  0  0  0  0  0  0  0  0  0  0
    4.6060    1.3240   19.1980 C   0  0  0  0  0  0  0  0  0  0  0  0
    5.2620    1.3940   17.9640 C   0  0  0  0  0  0  0  0  0  0  0  0
  1  2  1  0
  2  3  1  0
  1  4  2  3
  1  5  1  0
  5  6  1  0
  4  7  1  0
  3  8  1  0
  7  9  1  0
  6 10  1  0
  8 11  1  0
  8 12  2  0
 10 13  2  0
 10 14  1  0
  9 15  1  0
 14 16  1  0
 13 17  1  0
 14 18  2  0
 15 19  2  0
 15 20  1  0
 17 21  2  0
 18 21  1  0
 19 22  1  0
 20 23  2  0
 22 24  2  0
 23 24  1  0
M  END
