x0831_0-x0692_1-x1418_1-x1374_1-x0831_1-x1334_0-x0434_2-x0770_1-x1412_1-x1334_1-x1385_1-x0426_1-x0397_0-x1386_1
     RDKit          3D

 44 49  0  0  0  0  0  0  0  0999 V2000
    1.9710   -7.2060   23.5820 O   0  0  0  0  0  0  0  0  0  0  0  0
    2.4370   -7.6080   24.8600 C   0  0  0  0  0  0  0  0  0  0  0  0
    3.8230   -7.8910   24.8200 O   0  0  0  0  0  0  0  0  0  0  0  0
    4.4780   -7.1560   23.8010 C   0  0  0  0  0  0  0  0  0  0  0  0
    5.0780   -5.8530   24.2940 C   0  0  0  0  0  0  0  0  0  0  0  0
    6.0620   -5.3650   23.2940 C   0  0  2  0  0  0  0  0  0  0  0  0
    5.5400   -4.3540   22.2890 C   0  0  2  0  0  0  0  0  0  0  0  0
    6.1510   -5.8700   21.8830 C   0  0  0  0  0  0  0  0  0  0  0  0
    6.2850   -3.0270   22.2620 C   0  0  2  0  0  0  0  0  0  0  0  0
    6.3720   -2.4320   20.9080 N   0  0  0  0  0  0  0  0  0  0  0  0
    7.6550   -3.2590   22.9140 C   0  0  0  0  0  0  0  0  0  0  0  0
    6.2410   -3.2730   19.8260 C   0  0  0  0  0  0  0  0  0  0  0  0
    8.5020   -2.0630   22.8930 N   0  0  0  0  0  0  0  0  0  0  0  0
    7.3600   -1.4850   20.7690 C   0  0  1  0  0  0  0  0  0  0  0  0
    5.3910   -4.1780   19.7430 O   0  0  0  0  0  0  0  0  0  0  0  0
    7.2410   -3.0620   18.7160 C   0  0  0  0  0  0  0  0  0  0  0  0
    9.5670   -1.9770   23.8340 C   0  0  1  0  0  0  0  0  0  0  0  0
    7.3700   -0.3100   21.8320 C   0  0  0  0  0  0  0  0  0  0  0  0
    8.6920   -1.5130   21.5930 C   0  0  0  0  0  0  0  0  0  0  0  0
    5.9630    0.2880   21.9300 C   0  0  1  0  0  0  0  0  0  0  0  0
   10.1320   -3.3490   24.0150 C   0  0  0  0  0  0  0  0  0  0  0  0
   10.5620   -0.7760   23.6350 C   0  0  0  0  0  0  0  0  0  0  0  0
    5.6930    1.5360   22.8080 C   0  0  0  0  0  0  0  0  0  0  0  0
    5.7520    0.6550   20.4610 C   0  0  0  0  0  0  0  0  0  0  0  0
   10.0730    0.6050   24.1020 C   0  0  0  0  0  0  0  0  0  0  0  0
   11.8690   -0.8640   23.0620 C   0  0  0  0  0  0  0  0  0  0  0  0
    9.5620   -4.2270   25.1000 C   0  0  0  0  0  0  0  0  0  0  0  0
    4.3940    2.2920   22.5110 C   0  0  2  0  0  0  0  0  0  0  0  0
   12.4730   -2.1410   22.5530 C   0  0  0  0  0  0  0  0  0  0  0  0
    4.5250    1.4280   20.1690 C   0  0  0  0  0  0  0  0  0  0  0  0
    6.6680    0.3140   19.3120 C   0  0  0  0  0  0  0  0  0  0  0  0
   11.0220    1.7330   23.9140 C   0  0  0  0  0  0  0  0  0  0  0  0
   12.7380    0.1570   22.8890 C   0  0  0  0  0  0  0  0  0  0  0  0
    9.9420   -5.4970   25.4570 C   0  0  0  0  0  0  0  0  0  0  0  0
    8.2530   -3.7750   26.1520 S   0  0  0  0  0  0  0  0  0  0  0  0
    3.5180    2.3380   23.6580 N   0  0  0  0  0  0  0  0  0  0  0  0
    3.6240    1.7420   21.3070 C   0  0  0  0  0  0  0  0  0  0  0  0
    4.3660    1.8060   18.7040 C   0  0  0  0  0  0  0  0  0  0  0  0
    6.4850    0.6610   18.0120 N   0  0  0  0  0  0  0  0  0  0  0  0
   12.3680    1.5690   23.3130 C   0  0  0  0  0  0  0  0  0  0  0  0
    9.2350   -6.0750   26.5240 C   0  0  0  0  0  0  0  0  0  0  0  0
    8.2830   -5.2440   27.0090 C   0  0  0  0  0  0  0  0  0  0  0  0
    7.2050   -5.5520   28.3090 Cl  0  0  0  0  0  0  0  0  0  0  0  0
    5.3610    1.4110   17.6810 C   0  0  0  0  0  0  0  0  0  0  0  0
  1  2  1  0
  2  3  1  0
  3  4  1  0
  4  5  1  0
  6  5  1  1
  6  7  1  0
  6  8  1  0
  7  8  1  6
  7  9  1  0
  9 10  1  0
  9 11  1  6
 10 12  1  0
 11 13  1  0
 10 14  1  0
 12 15  2  0
 12 16  1  0
 13 17  1  0
 14 18  1  1
 13 19  1  0
 14 19  1  0
 20 18  1  6
 17 21  1  6
 17 22  1  0
 20 23  1  0
 20 24  1  0
 22 25  2  0
 22 26  1  0
 21 27  1  0
 23 28  1  0
 26 29  1  0
 24 30  2  0
 24 31  1  0
 25 32  1  0
 26 33  2  0
 27 34  2  0
 27 35  1  0
 28 36  1  1
 28 37  1  0
 30 37  1  0
 30 38  1  0
 31 39  2  0
 32 40  2  0
 33 40  1  0
 34 41  1  0
 35 42  1  0
 41 42  2  0
 42 43  1  0
 38 44  2  0
 39 44  1  0
M  END
