x0831_0-x1334_0-x1412_1-x1386_1-x0692_1
     RDKit          3D

 24 26  0  0  0  0  0  0  0  0999 V2000
    6.3660   -3.3400   19.8770 C   0  0  0  0  0  0  0  0  0  0  0  0
    7.3710   -3.0290   18.7760 C   0  0  0  0  0  0  0  0  0  0  0  0
    5.4330   -4.1340   19.7300 O   0  0  0  0  0  0  0  0  0  0  0  0
    6.5780   -2.6870   21.0760 N   0  0  0  0  0  0  0  0  0  0  0  0
    7.3400   -1.4240   21.0020 C   0  0  0  0  0  0  0  0  0  0  0  0
    6.5970   -3.4400   22.3460 C   0  0  0  0  0  0  0  0  0  0  0  0
    8.6560   -1.5060   21.7420 C   0  0  0  0  0  0  0  0  0  0  0  0
    7.8850   -3.4840   22.8540 C   0  0  0  0  0  0  0  0  0  0  0  0
    8.4490   -2.1270   23.0200 N   0  0  0  0  0  0  0  0  0  0  0  0
    9.5980   -2.0640   23.9020 C   0  0  1  0  0  0  0  0  0  0  0  0
   10.2180   -3.3940   24.0030 C   0  0  0  0  0  0  0  0  0  0  0  0
   10.4620   -0.8760   23.7100 C   0  0  0  0  0  0  0  0  0  0  0  0
   10.0500    0.5530   24.1260 C   0  0  0  0  0  0  0  0  0  0  0  0
   11.8470   -0.9920   23.0860 C   0  0  0  0  0  0  0  0  0  0  0  0
    9.5790   -4.2320   25.1160 C   0  0  0  0  0  0  0  0  0  0  0  0
   12.4440   -2.2670   22.5990 C   0  0  0  0  0  0  0  0  0  0  0  0
   10.8710    1.6450   23.9560 C   0  0  0  0  0  0  0  0  0  0  0  0
   12.6820    0.2660   22.9410 C   0  0  0  0  0  0  0  0  0  0  0  0
    9.9160   -5.4880   25.4710 C   0  0  0  0  0  0  0  0  0  0  0  0
    8.2810   -3.7890   26.1850 S   0  0  0  0  0  0  0  0  0  0  0  0
   12.2780    1.5240   23.3310 C   0  0  0  0  0  0  0  0  0  0  0  0
    9.2790   -6.1170   26.4860 C   0  0  0  0  0  0  0  0  0  0  0  0
    8.3070   -5.2940   27.0270 C   0  0  0  0  0  0  0  0  0  0  0  0
    7.2440   -5.6260   28.3260 Cl  0  0  0  0  0  0  0  0  0  0  0  0
  1  2  1  0
  1  3  2  0
  1  4  1  0
  4  5  1  0
  4  6  1  0
  5  7  1  0
  6  8  1  0
  7  9  1  0
  8  9  1  0
  9 10  1  0
 10 11  1  6
 10 12  1  0
 12 13  2  0
 12 14  1  0
 11 15  1  0
 14 16  1  0
 13 17  1  0
 14 18  2  0
 15 19  2  0
 15 20  1  0
 17 21  2  0
 18 21  1  0
 19 22  1  0
 20 23  1  0
 22 23  2  0
 23 24  1  0
M  END
