x0831_0-x1336_0-x0434_2-x1412_1-x1412_0
     RDKit          3D

 32 35  0  0  0  0  0  0  0  0999 V2000
    6.3440   -3.4190   19.8850 C   0  0  0  0  0  0  0  0  0  0  0  0
    7.3550   -3.0270   18.8040 C   0  0  0  0  0  0  0  0  0  0  0  0
    5.3630   -4.1270   19.6880 O   0  0  0  0  0  0  0  0  0  0  0  0
    6.5830   -2.9840   21.1750 N   0  0  0  0  0  0  0  0  0  0  0  0
    6.3230   -3.9850   22.2130 C   0  0  0  0  0  0  0  0  0  0  0  0
    7.5330   -2.0340   21.4150 C   0  0  1  0  0  0  0  0  0  0  0  0
    6.7850   -0.7820   21.5100 N   0  0  0  0  0  0  0  0  0  0  0  0
    6.5820   -3.4220   23.5150 C   0  0  0  0  0  0  0  0  0  0  0  0
    8.3970   -2.1050   22.5430 C   0  0  0  0  0  0  0  0  0  0  0  0
    7.9490   -2.9590   23.6720 N   0  0  0  0  0  0  0  0  0  0  0  0
    6.2920   -0.1150   20.3050 C   0  0  0  0  0  0  0  0  0  0  0  0
    8.3300   -2.6240   25.0940 C   0  0  2  0  0  0  0  0  0  0  0  0
    6.9530   -0.1900   19.0850 C   0  0  0  0  0  0  0  0  0  0  0  0
    5.1190    0.6380   20.3600 C   0  0  0  0  0  0  0  0  0  0  0  0
    7.6230   -1.7650   25.6020 O   0  0  0  0  0  0  0  0  0  0  0  0
    9.5720   -1.9830   25.0870 C   0  0  0  0  0  0  0  0  0  0  0  0
    8.5530   -3.8540   25.8300 C   0  0  0  0  0  0  0  0  0  0  0  0
    6.4640    0.5030   17.8530 N   0  0  0  0  0  0  0  0  0  0  0  0
    4.6100    1.3470   19.1090 C   0  0  0  0  0  0  0  0  0  0  0  0
   10.3930   -2.1330   23.8340 C   0  0  0  0  0  0  0  0  0  0  0  0
    9.4090   -4.9160   25.5560 C   0  0  0  0  0  0  0  0  0  0  0  0
    7.6960   -4.1620   27.3060 S   0  0  0  0  0  0  0  0  0  0  0  0
    5.3320    1.2290   17.9250 C   0  0  0  0  0  0  0  0  0  0  0  0
   11.1240   -0.8320   23.6100 C   0  0  0  0  0  0  0  0  0  0  0  0
    9.3690   -5.9120   26.4870 C   0  0  0  0  0  0  0  0  0  0  0  0
    8.4810   -5.6650   27.5280 C   0  0  0  0  0  0  0  0  0  0  0  0
   10.5670    0.3450   24.1140 C   0  0  0  0  0  0  0  0  0  0  0  0
   12.3390   -0.7960   22.9180 C   0  0  0  0  0  0  0  0  0  0  0  0
   12.9900   -2.0130   22.3410 C   0  0  0  0  0  0  0  0  0  0  0  0
   11.1500    1.5870   23.9710 C   0  0  0  0  0  0  0  0  0  0  0  0
   12.9390    0.4210   22.7740 C   0  0  0  0  0  0  0  0  0  0  0  0
   12.3850    1.7470   23.2950 C   0  0  0  0  0  0  0  0  0  0  0  0
  1  2  1  0
  1  3  2  0
  1  4  1  0
  4  5  1  0
  4  6  1  0
  6  7  1  1
  5  8  1  0
  6  9  1  0
  8 10  1  0
  9 10  1  0
  7 11  1  0
 10 12  1  0
 11 13  2  0
 11 14  1  0
 12 15  1  1
 12 16  1  0
 12 17  1  0
 13 18  1  0
 14 19  2  0
 16 20  1  0
 17 21  2  0
 17 22  1  0
 18 23  2  0
 19 23  1  0
 20 24  1  0
 21 25  1  0
 22 26  1  0
 25 26  2  0
 24 27  2  0
 24 28  1  0
 28 29  1  0
 27 30  1  0
 28 31  2  0
 30 32  2  0
 31 32  1  0
M  END
