x0831_0-x1334_1-x1334_0-x0981_1-x0434_2
     RDKit          3D

 43 46  0  0  0  0  0  0  0  0999 V2000
    4.1480   -5.3070   23.2030 C   0  0  0  0  0  0  0  0  0  0  0  0
    2.7990   -5.9780   23.5180 C   0  0  1  0  0  0  0  0  0  0  0  0
    2.5760   -7.1900   22.7200 N   0  0  0  0  0  0  0  0  0  0  0  0
    4.2630   -4.0830   23.6300 N   0  0  0  0  0  0  0  0  0  0  0  0
    2.7180   -6.2710   25.0230 C   0  0  0  0  0  0  0  0  0  0  0  0
    5.4290   -3.1840   23.4750 C   0  0  0  0  0  0  0  0  0  0  0  0
    1.3590   -7.4260   22.1230 C   0  0  0  0  0  0  0  0  0  0  0  0
    3.1390   -7.6960   25.2750 C   0  0  0  0  0  0  0  0  0  0  0  0
    6.5260   -3.6190   22.4520 C   0  0  1  0  0  0  0  0  0  0  0  0
    1.2300   -8.7190   21.3560 C   0  0  0  0  0  0  0  0  0  0  0  0
    0.4320   -6.6250   22.1820 O   0  0  0  0  0  0  0  0  0  0  0  0
    2.5130   -8.3490   26.2940 N   0  0  0  0  0  0  0  0  0  0  0  0
    3.9920   -8.2110   24.5950 O   0  0  0  0  0  0  0  0  0  0  0  0
    6.5510   -2.7350   21.2510 N   0  0  0  0  0  0  0  0  0  0  0  0
    7.8980   -3.6530   23.2350 C   0  0  0  0  0  0  0  0  0  0  0  0
    6.3110   -3.3470   19.9760 C   0  0  0  0  0  0  0  0  0  0  0  0
    8.4820   -2.3110   23.3250 N   0  0  0  0  0  0  0  0  0  0  0  0
    7.4460   -1.5640   21.4720 C   0  0  2  0  0  0  0  0  0  0  0  0
    7.2670   -2.9800   18.8440 C   0  0  0  0  0  0  0  0  0  0  0  0
    5.3930   -4.1650   19.7760 O   0  0  0  0  0  0  0  0  0  0  0  0
    9.5910   -2.1200   24.1770 C   0  0  1  0  0  0  0  0  0  0  0  0
    7.6380   -0.7540   20.3330 N   0  0  0  0  0  0  0  0  0  0  0  0
    8.7200   -1.8350   22.0080 C   0  0  0  0  0  0  0  0  0  0  0  0
   10.3510   -3.3520   24.3750 C   0  0  0  0  0  0  0  0  0  0  0  0
   10.4730   -0.9160   23.8880 C   0  0  0  0  0  0  0  0  0  0  0  0
    6.6970   -0.0200   19.6820 C   0  0  0  0  0  0  0  0  0  0  0  0
   10.1380    0.3540   24.3410 C   0  0  0  0  0  0  0  0  0  0  0  0
   11.6880   -0.9830   23.1570 C   0  0  0  0  0  0  0  0  0  0  0  0
    9.7040   -4.2200   25.3210 C   0  0  0  0  0  0  0  0  0  0  0  0
    6.9680    0.2800   18.4190 C   0  0  0  0  0  0  0  0  0  0  0  0
    5.5700    0.3770   20.2720 C   0  0  0  0  0  0  0  0  0  0  0  0
   12.3910   -2.1830   22.4930 C   0  0  0  0  0  0  0  0  0  0  0  0
   10.9370    1.5160   24.1030 C   0  0  0  0  0  0  0  0  0  0  0  0
   12.4910    0.1210   22.9130 C   0  0  0  0  0  0  0  0  0  0  0  0
    9.9830   -5.5090   25.5740 C   0  0  0  0  0  0  0  0  0  0  0  0
    8.4120   -3.7530   26.3530 S   0  0  0  0  0  0  0  0  0  0  0  0
    6.1830    0.9880   17.6110 N   0  0  0  0  0  0  0  0  0  0  0  0
    4.6070    1.1950   19.4410 C   0  0  0  0  0  0  0  0  0  0  0  0
   12.1010    1.3650   23.3920 C   0  0  0  0  0  0  0  0  0  0  0  0
    9.2290   -6.0880   26.5390 C   0  0  0  0  0  0  0  0  0  0  0  0
    8.3180   -5.3080   27.1010 C   0  0  0  0  0  0  0  0  0  0  0  0
    5.0220    1.4400   18.1250 C   0  0  0  0  0  0  0  0  0  0  0  0
    7.1970   -5.6720   28.3400 Cl  0  0  0  0  0  0  0  0  0  0  0  0
  2  1  1  1
  2  3  1  0
  1  4  2  3
  2  5  1  0
  4  6  1  0
  3  7  1  0
  5  8  1  0
  9  6  1  1
  7 10  1  0
  7 11  2  0
  8 12  1  0
  8 13  2  0
  9 14  1  0
  9 15  1  0
 14 16  1  0
 15 17  1  0
 14 18  1  0
 16 19  1  0
 16 20  2  0
 17 21  1  0
 18 22  1  6
 17 23  1  0
 18 23  1  0
 21 24  1  6
 21 25  1  0
 22 26  1  0
 25 27  2  0
 25 28  1  0
 24 29  1  0
 26 30  2  0
 26 31  1  0
 28 32  1  0
 27 33  1  0
 28 34  2  0
 29 35  2  0
 29 36  1  0
 30 37  1  0
 31 38  2  0
 33 39  2  0
 34 39  1  0
 35 40  1  0
 36 41  1  0
 40 41  2  0
 37 42  2  0
 38 42  1  0
 41 43  1  0
M  END
