x0831_1-x1418_0-x0770_1
     RDKit          3D

 16 17  0  0  0  0  0  0  0  0999 V2000
    6.2300   -3.4910   20.0240 C   0  0  0  0  0  0  0  0  0  0  0  0
    7.2020   -3.0520   18.9230 C   0  0  0  0  0  0  0  0  0  0  0  0
    5.3480   -4.3010   19.7820 O   0  0  0  0  0  0  0  0  0  0  0  0
    6.3480   -2.9890   21.3070 N   0  0  0  0  0  0  0  0  0  0  0  0
    6.1770   -1.5530   21.5790 C   0  0  0  0  0  0  0  0  0  0  0  0
    7.1090   -3.7430   22.3280 C   0  0  0  0  0  0  0  0  0  0  0  0
    7.4850   -0.7650   21.3380 C   0  0  0  0  0  0  0  0  0  0  0  0
    7.6400   -2.8580   23.4330 C   0  0  0  0  0  0  0  0  0  0  0  0
    8.8270   -2.0720   23.0580 N   0  0  0  0  0  0  0  0  0  0  0  0
    8.7940   -1.5210   21.6910 C   0  0  0  0  0  0  0  0  0  0  0  0
   10.0410   -2.5700   23.4330 C   0  0  0  0  0  0  0  0  0  0  0  0
   11.0250   -1.4400   23.4660 C   0  0  0  0  0  0  0  0  0  0  0  0
   12.1730   -1.3600   22.6770 C   0  0  0  0  0  0  0  0  0  0  0  0
   10.8720   -0.0450   24.4760 S   0  0  0  0  0  0  0  0  0  0  0  0
   12.8770   -0.2540   22.8610 C   0  0  0  0  0  0  0  0  0  0  0  0
   12.3170    0.5820   23.7990 C   0  0  0  0  0  0  0  0  0  0  0  0
  1  2  1  0
  1  3  2  0
  1  4  1  0
  4  5  1  0
  4  6  1  0
  5  7  1  0
  6  8  1  0
  8  9  1  0
  7 10  1  0
  9 10  1  0
  9 11  1  0
 11 12  1  0
 12 13  2  0
 12 14  1  0
 13 15  1  0
 14 16  1  0
 15 16  2  0
M  END
