x0831_0-x1375_1-x1385_1-x0426_1-x1418_1-x1374_1-x1334_0-x0770_1-x1386_1-x1334_1-x0831_1-x0434_2-x0397_0-x0692_1-x1412_1
     RDKit          3D

 43 48  0  0  0  0  0  0  0  0999 V2000
    2.6920   -6.8540   24.0490 O   0  0  0  0  0  0  0  0  0  0  0  0
    3.5660   -6.3560   25.0480 C   0  0  0  0  0  0  0  0  0  0  0  0
    4.8980   -6.7550   24.7570 O   0  0  0  0  0  0  0  0  0  0  0  0
    5.7410   -5.6720   24.2990 C   0  0  0  0  0  0  0  0  0  0  0  0
    5.2580   -5.2490   22.9590 C   0  0  1  0  0  0  0  0  0  0  0  0
    5.5900   -4.2230   22.1370 C   0  0  2  0  0  0  0  0  0  0  0  0
    5.7220   -5.8350   21.8090 C   0  0  0  0  0  0  0  0  0  0  0  0
    6.8730   -3.3440   22.0360 C   0  0  2  0  0  0  0  0  0  0  0  0
    7.7610   -3.2720   23.3750 C   0  0  0  0  0  0  0  0  0  0  0  0
    6.8390   -2.2770   21.0720 C   0  0  1  0  0  0  0  0  0  0  0  0
    6.5010   -3.0480   19.7510 C   0  0  0  0  0  0  0  0  0  0  0  0
    5.9020   -1.0880   21.3750 C   0  0  2  0  0  0  0  0  0  0  0  0
    8.8860   -2.3890   23.0230 N   0  0  0  0  0  0  0  0  0  0  0  0
    8.1450   -1.4960   20.8510 C   0  0  0  0  0  0  0  0  0  0  0  0
    7.4680   -2.9530   18.6010 C   0  0  0  0  0  0  0  0  0  0  0  0
    5.5180   -3.8190   19.6270 O   0  0  0  0  0  0  0  0  0  0  0  0
    4.8330   -1.2060   22.4810 C   0  0  0  0  0  0  0  0  0  0  0  0
   10.0740   -2.2750   23.8500 C   0  0  2  0  0  0  0  0  0  0  0  0
    9.2930   -2.2380   21.6400 C   0  0  0  0  0  0  0  0  0  0  0  0
    5.6110   -0.1710   20.1790 C   0  0  0  0  0  0  0  0  0  0  0  0
    4.7430    0.0290   23.3900 C   0  0  0  0  0  0  0  0  0  0  0  0
    9.6650   -2.5250   25.2290 C   0  0  0  0  0  0  0  0  0  0  0  0
    4.6030    0.7990   20.1230 C   0  0  0  0  0  0  0  0  0  0  0  0
    6.4040   -0.3070   19.0990 C   0  0  0  0  0  0  0  0  0  0  0  0
   10.8740   -1.0030   23.6720 C   0  0  0  0  0  0  0  0  0  0  0  0
    4.4260    1.3400   22.6150 C   0  0  1  0  0  0  0  0  0  0  0  0
    3.6510    1.0680   21.2490 C   0  0  0  0  0  0  0  0  0  0  0  0
    4.4650    1.6130   18.8920 C   0  0  0  0  0  0  0  0  0  0  0  0
    6.3560    0.3870   17.9320 N   0  0  0  0  0  0  0  0  0  0  0  0
   10.2610    0.0670   24.2340 C   0  0  0  0  0  0  0  0  0  0  0  0
   12.1290   -0.9920   22.9760 C   0  0  0  0  0  0  0  0  0  0  0  0
    9.3690   -3.9050   25.8190 C   0  0  0  0  0  0  0  0  0  0  0  0
    3.5300    2.2480   23.4570 N   0  0  0  0  0  0  0  0  0  0  0  0
   12.7920   -2.1680   22.3500 C   0  0  0  0  0  0  0  0  0  0  0  0
    5.4390    1.3540   17.7280 C   0  0  0  0  0  0  0  0  0  0  0  0
   10.9090    1.3870   24.1390 C   0  0  0  0  0  0  0  0  0  0  0  0
   12.8640    0.3760   22.8580 C   0  0  0  0  0  0  0  0  0  0  0  0
    9.8900   -5.1860   25.6970 C   0  0  0  0  0  0  0  0  0  0  0  0
    8.0750   -3.9010   26.9360 S   0  0  0  0  0  0  0  0  0  0  0  0
   12.2410    1.5710   23.4420 C   0  0  0  0  0  0  0  0  0  0  0  0
    9.3030   -6.1280   26.4820 C   0  0  0  0  0  0  0  0  0  0  0  0
    8.2110   -5.5210   27.2850 C   0  0  0  0  0  0  0  0  0  0  0  0
    7.1330   -6.1610   28.4430 Cl  0  0  0  0  0  0  0  0  0  0  0  0
  1  2  1  0
  2  3  1  0
  3  4  1  0
  5  4  1  1
  5  6  1  0
  5  7  1  0
  6  7  1  6
  6  8  1  0
  8  9  1  1
  8 10  1  0
 10 11  1  6
 10 12  1  0
  9 13  1  0
 10 14  1  0
 11 15  1  0
 11 16  2  0
 12 17  1  6
 13 18  1  0
 13 19  1  0
 14 19  1  0
 12 20  1  0
 17 21  1  0
 18 22  1  1
 20 23  2  0
 20 24  1  0
 18 25  1  0
 21 26  1  0
 23 27  1  0
 26 27  1  0
 23 28  1  0
 24 29  2  0
 25 30  2  0
 25 31  1  0
 22 32  1  0
 26 33  1  1
 31 34  1  0
 28 35  2  0
 29 35  1  0
 30 36  1  0
 31 37  2  0
 32 38  2  0
 32 39  1  0
 36 40  2  0
 37 40  1  0
 38 41  1  0
 39 42  1  0
 41 42  2  0
 42 43  1  0
M  END
