x0831_0-x0831_1-x1334_1-x0397_0-x0692_1
     RDKit          3D

 21 23  0  0  0  0  0  0  0  0999 V2000
    6.1160   -3.4230   19.8880 C   0  0  0  0  0  0  0  0  0  0  0  0
    7.1370   -3.0160   18.8220 C   0  0  0  0  0  0  0  0  0  0  0  0
    5.1920   -4.2060   19.6900 O   0  0  0  0  0  0  0  0  0  0  0  0
    6.2930   -2.8960   21.1460 N   0  0  0  0  0  0  0  0  0  0  0  0
    6.1340   -1.4510   21.3180 C   0  0  0  0  0  0  0  0  0  0  0  0
    7.1800   -3.5930   22.0580 C   0  0  1  0  0  0  0  0  0  0  0  0
    7.4750   -0.7090   21.4630 C   0  0  0  0  0  0  0  0  0  0  0  0
    7.4980   -3.0610   23.3000 C   0  0  0  0  0  0  0  0  0  0  0  0
    6.4290   -4.4640   23.0350 C   0  0  0  0  0  0  0  0  0  0  0  0
    8.6210   -2.0850   23.1090 N   0  0  0  0  0  0  0  0  0  0  0  0
    8.6180   -1.4510   21.7780 C   0  0  0  0  0  0  0  0  0  0  0  0
    6.8610   -5.5400   23.5210 C   0  0  0  0  0  0  0  0  0  0  0  0
    5.7260   -5.7830   22.4710 C   0  0  0  0  0  0  0  0  0  0  0  0
    9.9800   -2.2930   23.6160 C   0  0  0  0  0  0  0  0  0  0  0  0
   10.7660   -1.0290   23.5800 C   0  0  0  0  0  0  0  0  0  0  0  0
   10.2710    0.1350   24.1580 C   0  0  0  0  0  0  0  0  0  0  0  0
   12.0280   -0.9620   22.9450 C   0  0  0  0  0  0  0  0  0  0  0  0
   12.6330   -2.1680   22.2880 C   0  0  0  0  0  0  0  0  0  0  0  0
   10.8980    1.3530   24.1570 C   0  0  0  0  0  0  0  0  0  0  0  0
   12.8600    0.2650   22.8530 C   0  0  0  0  0  0  0  0  0  0  0  0
   12.2900    1.5120   23.4770 C   0  0  0  0  0  0  0  0  0  0  0  0
  1  2  1  0
  1  3  2  0
  1  4  1  0
  4  5  1  0
  4  6  1  0
  5  7  1  0
  6  8  1  0
  6  9  1  1
  8 10  1  0
  7 11  1  0
 10 11  1  0
  9 12  1  0
  9 13  1  0
 12 13  1  0
 10 14  1  0
 14 15  1  0
 15 16  2  0
 15 17  1  0
 17 18  1  0
 16 19  1  0
 17 20  2  0
 19 21  2  0
 20 21  1  0
M  END
