x0831_0-x1412_1-x0770_1-x0689_0
     RDKit          3D

 27 29  0  0  0  0  0  0  0  0999 V2000
    6.3350   -3.4250   20.0140 C   0  0  0  0  0  0  0  0  0  0  0  0
    7.3040   -3.0530   18.9000 C   0  0  0  0  0  0  0  0  0  0  0  0
    5.3890   -4.1870   19.7700 O   0  0  0  0  0  0  0  0  0  0  0  0
    6.5600   -2.9150   21.2840 N   0  0  0  0  0  0  0  0  0  0  0  0
    7.1220   -1.5930   21.5230 C   0  0  0  0  0  0  0  0  0  0  0  0
    6.6860   -3.8820   22.3930 C   0  0  2  0  0  0  0  0  0  0  0  0
    5.3380   -3.9340   23.1290 C   0  0  0  0  0  0  0  0  0  0  0  0
    8.6100   -1.6820   21.8560 C   0  0  0  0  0  0  0  0  0  0  0  0
    8.0370   -3.7890   23.1540 C   0  0  0  0  0  0  0  0  0  0  0  0
    5.0920   -5.2970   23.8900 C   0  0  0  0  0  0  0  0  0  0  0  0
    8.8060   -2.4840   23.1050 N   0  0  0  0  0  0  0  0  0  0  0  0
    4.6090   -5.1400   25.5710 S   0  0  0  0  0  0  0  0  0  0  0  0
   10.1340   -2.5430   23.5760 C   0  0  0  0  0  0  0  0  0  0  0  0
    3.9230   -6.3570   25.9360 O   0  0  0  0  0  0  0  0  0  0  0  0
    5.7350   -4.6670   26.3450 O   0  0  0  0  0  0  0  0  0  0  0  0
    3.3740   -3.8710   25.5730 C   0  0  0  0  0  0  0  0  0  0  0  0
   10.8710   -1.1920   23.5490 C   0  0  0  0  0  0  0  0  0  0  0  0
    3.8780   -2.2620   25.9410 S   0  0  0  0  0  0  0  0  0  0  0  0
    2.0100   -3.9470   25.3230 C   0  0  0  0  0  0  0  0  0  0  0  0
   10.2200   -0.1580   24.2160 C   0  0  0  0  0  0  0  0  0  0  0  0
   12.0970   -0.9630   22.9090 C   0  0  0  0  0  0  0  0  0  0  0  0
   12.8300   -2.0360   22.1680 C   0  0  0  0  0  0  0  0  0  0  0  0
    2.2870   -1.6700   25.7750 C   0  0  0  0  0  0  0  0  0  0  0  0
    1.4300   -2.6890   25.4480 C   0  0  0  0  0  0  0  0  0  0  0  0
   10.7870    1.1580   24.2540 C   0  0  0  0  0  0  0  0  0  0  0  0
   12.6730    0.3010   22.9400 C   0  0  0  0  0  0  0  0  0  0  0  0
   12.0210    1.3440   23.6020 C   0  0  0  0  0  0  0  0  0  0  0  0
  1  2  1  0
  1  3  2  0
  1  4  1  0
  4  5  1  0
  4  6  1  0
  6  7  1  1
  5  8  1  0
  6  9  1  0
  7 10  1  0
  8 11  1  0
  9 11  1  0
 12 10  1  0
 11 13  1  0
 12 14  2  0
 12 15  2  0
 12 16  1  0
 13 17  1  0
 16 18  1  0
 16 19  2  0
 17 20  2  0
 17 21  1  0
 21 22  1  0
 18 23  1  0
 19 24  1  0
 23 24  2  0
 20 25  1  0
 21 26  2  0
 25 27  2  0
 26 27  1  0
M  END
