x0831_0-x0831_1-x0981_1-x1412_0-x0769_1
     RDKit          3D

 47 52  0  0  0  0  0  0  0  0999 V2000
    3.5270   -4.7070   23.4540 C   0  0  0  0  0  0  0  0  0  0  0  0
    2.7510   -5.8780   24.0530 C   0  0  1  0  0  0  0  0  0  0  0  0
    2.5150   -6.9990   23.0840 N   0  0  0  0  0  0  0  0  0  0  0  0
    4.7050   -4.3250   23.8210 N   0  0  0  0  0  0  0  0  0  0  0  0
    3.6780   -6.2020   25.2200 C   0  0  0  0  0  0  0  0  0  0  0  0
    5.3470   -3.1400   23.2760 C   0  0  0  0  0  0  0  0  0  0  0  0
    1.3550   -7.1750   22.3390 C   0  0  0  0  0  0  0  0  0  0  0  0
    3.8090   -7.6430   25.1100 C   0  0  0  0  0  0  0  0  0  0  0  0
    4.8830   -4.9940   25.7910 S   0  0  0  0  0  0  0  0  0  0  0  0
    6.5860   -3.4550   22.4180 C   0  0  1  0  0  0  0  0  0  0  0  0
    1.2230   -8.5150   21.6370 C   0  0  0  0  0  0  0  0  0  0  0  0
    0.4870   -6.3160   22.2330 O   0  0  0  0  0  0  0  0  0  0  0  0
    3.0020   -8.3550   25.9590 N   0  0  0  0  0  0  0  0  0  0  0  0
    4.5240   -8.1520   24.3160 O   0  0  0  0  0  0  0  0  0  0  0  0
    5.9140   -5.3140   26.9320 N   0  0  0  0  0  0  0  0  0  0  0  0
    3.9250   -3.5820   25.8500 C   0  0  0  0  0  0  0  0  0  0  0  0
    6.4820   -2.7180   21.1460 N   0  0  0  0  0  0  0  0  0  0  0  0
    7.8640   -3.2020   23.0880 C   0  0  2  0  0  0  0  0  0  0  0  0
    6.3290   -3.3880   19.9440 C   0  0  0  0  0  0  0  0  0  0  0  0
    8.0650   -3.0520   24.6550 C   0  0  2  0  0  0  0  0  0  0  0  0
    2.3590   -3.7260   25.6760 C   0  0  0  0  0  0  0  0  0  0  0  0
    4.4760   -2.3170   26.0710 C   0  0  0  0  0  0  0  0  0  0  0  0
    8.5390   -1.9610   22.8130 N   0  0  0  0  0  0  0  0  0  0  0  0
    6.2880   -1.2830   21.2860 C   0  0  0  0  0  0  0  0  0  0  0  0
    7.2860   -4.6250   26.9880 C   0  0  2  0  0  0  0  0  0  0  0  0
    5.7860   -2.1440   26.2350 F   0  0  0  0  0  0  0  0  0  0  0  0
    5.4450   -4.2390   19.7780 O   0  0  0  0  0  0  0  0  0  0  0  0
    7.3200   -3.0470   18.8320 C   0  0  0  0  0  0  0  0  0  0  0  0
    9.7320   -2.1830   23.4190 C   0  0  2  0  0  0  0  0  0  0  0  0
    7.4310   -2.0910   25.0950 O   0  0  0  0  0  0  0  0  0  0  0  0
    9.3940   -2.5690   24.7170 C   0  0  0  0  0  0  0  0  0  0  0  0
    1.5290   -2.5960   25.7450 C   0  0  0  0  0  0  0  0  0  0  0  0
    3.6180   -1.2330   26.1280 C   0  0  0  0  0  0  0  0  0  0  0  0
    8.6700   -1.4010   21.4710 C   0  0  0  0  0  0  0  0  0  0  0  0
    7.6380   -0.5590   21.1310 C   0  0  0  0  0  0  0  0  0  0  0  0
    8.1260   -4.1940   25.6960 C   0  0  0  0  0  0  0  0  0  0  0  0
    8.1110   -5.7140   27.4490 C   0  0  0  0  0  0  0  0  0  0  0  0
    2.1060   -1.3390   25.9680 C   0  0  0  0  0  0  0  0  0  0  0  0
   10.6690   -0.9720   23.4010 C   0  0  0  0  0  0  0  0  0  0  0  0
    9.1530   -5.1140   25.6700 C   0  0  0  0  0  0  0  0  0  0  0  0
    9.1900   -6.0190   26.6500 C   0  0  0  0  0  0  0  0  0  0  0  0
   10.2160    0.1400   24.0540 C   0  0  0  0  0  0  0  0  0  0  0  0
   11.9440   -0.9000   22.7740 C   0  0  0  0  0  0  0  0  0  0  0  0
   12.5760   -2.0320   22.0150 C   0  0  0  0  0  0  0  0  0  0  0  0
   10.9500    1.3180   24.1130 C   0  0  0  0  0  0  0  0  0  0  0  0
   12.6840    0.2710   22.8370 C   0  0  0  0  0  0  0  0  0  0  0  0
   12.2370    1.4060   23.4850 C   0  0  0  0  0  0  0  0  0  0  0  0
  1  2  1  0
  2  3  1  6
  1  4  2  0
  2  5  1  0
  4  6  1  0
  3  7  1  0
  5  8  1  0
  5  9  2  0
 10  6  1  1
  7 11  1  0
  7 12  2  0
  8 13  1  0
  8 14  2  0
  9 15  2  0
  9 16  1  0
 10 17  1  0
 10 18  1  0
 17 19  1  0
 18 20  1  0
 16 21  2  0
 16 22  1  0
 18 23  1  6
 17 24  1  0
 15 25  1  0
 22 26  1  0
 19 27  2  0
 19 28  1  0
 23 29  1  0
 20 30  1  1
 20 31  1  0
 29 31  1  0
 21 32  1  0
 22 33  2  0
 23 34  1  0
 24 35  1  0
 34 35  1  0
 20 36  1  0
 25 36  1  0
 25 37  1  6
 32 38  2  0
 33 38  1  0
 29 39  1  1
 36 40  2  0
 37 41  2  0
 40 41  1  0
 39 42  2  0
 39 43  1  0
 43 44  1  0
 42 45  1  0
 43 46  2  0
 45 47  2  0
 46 47  1  0
M  END
