x0831_1-x0831_0-x0397_0-x0770_1
     RDKit          3D

 21 23  0  0  0  0  0  0  0  0999 V2000
    6.2300   -3.4100   20.0050 C   0  0  0  0  0  0  0  0  0  0  0  0
    7.1810   -3.0400   18.8810 C   0  0  0  0  0  0  0  0  0  0  0  0
    5.4200   -4.3300   19.8270 O   0  0  0  0  0  0  0  0  0  0  0  0
    6.3050   -2.6940   21.1960 N   0  0  0  0  0  0  0  0  0  0  0  0
    6.2300   -1.2420   21.1200 C   0  0  0  0  0  0  0  0  0  0  0  0
    6.3030   -3.2470   22.5530 C   0  0  2  0  0  0  0  0  0  0  0  0
    7.5570   -0.5730   21.4760 C   0  0  0  0  0  0  0  0  0  0  0  0
    7.6690   -3.3150   23.2800 C   0  0  0  0  0  0  0  0  0  0  0  0
    5.6270   -4.5970   22.5520 C   0  0  0  0  0  0  0  0  0  0  0  0
    8.5660   -2.1920   23.0150 N   0  0  0  0  0  0  0  0  0  0  0  0
    8.6110   -1.6670   21.7470 C   0  0  0  0  0  0  0  0  0  0  0  0
    6.1840   -5.7680   23.1920 C   0  0  0  0  0  0  0  0  0  0  0  0
    6.2080   -5.9320   21.7500 C   0  0  0  0  0  0  0  0  0  0  0  0
    9.9260   -2.3200   23.5490 C   0  0  0  0  0  0  0  0  0  0  0  0
   10.7120   -1.0290   23.5220 C   0  0  0  0  0  0  0  0  0  0  0  0
   10.2400    0.1180   24.0650 C   0  0  0  0  0  0  0  0  0  0  0  0
   12.1070   -0.9980   22.8360 C   0  0  0  0  0  0  0  0  0  0  0  0
   12.8020   -2.1520   22.1730 C   0  0  0  0  0  0  0  0  0  0  0  0
   10.9000    1.4710   24.0850 C   0  0  0  0  0  0  0  0  0  0  0  0
   12.8390    0.3630   22.8310 C   0  0  0  0  0  0  0  0  0  0  0  0
   12.2720    1.6770   23.4490 C   0  0  0  0  0  0  0  0  0  0  0  0
  1  2  1  0
  1  3  2  0
  1  4  1  0
  4  5  1  0
  4  6  1  0
  5  7  1  0
  6  8  1  0
  6  9  1  6
  8 10  1  0
  7 11  1  0
 10 11  1  0
  9 12  1  0
  9 13  1  0
 12 13  1  0
 10 14  1  0
 14 15  1  0
 15 16  2  0
 15 17  1  0
 17 18  1  0
 16 19  1  0
 17 20  2  0
 19 21  2  0
 20 21  1  0
M  END
