x0831_0-x1334_1-x1374_1-x0540_3-x0692_1
     RDKit          3D

 31 33  0  0  0  0  0  0  0  0999 V2000
    6.4120   -3.2900   19.9390 C   0  0  0  0  0  0  0  0  0  0  0  0
    7.3650   -2.9850   18.7970 C   0  0  0  0  0  0  0  0  0  0  0  0
    5.4360   -4.0260   19.7000 O   0  0  0  0  0  0  0  0  0  0  0  0
    6.7330   -2.7480   21.2110 N   0  0  0  0  0  0  0  0  0  0  0  0
    7.3920   -1.4460   21.3380 C   0  0  1  0  0  0  0  0  0  0  0  0
    6.7560   -3.5090   22.4680 C   0  0  1  0  0  0  0  0  0  0  0  0
    6.5740   -0.4550   22.1980 C   0  0  0  0  0  0  0  0  0  0  0  0
    6.2180   -4.9060   22.1850 C   0  0  0  0  0  0  0  0  0  0  0  0
    8.7070   -1.6980   21.7190 C   0  0  0  0  0  0  0  0  0  0  0  0
    8.0430   -3.6120   22.9760 C   0  0  0  0  0  0  0  0  0  0  0  0
    5.3760    0.3610   21.6840 C   0  0  0  0  0  0  0  0  0  0  0  0
    8.7200   -2.3020   23.0570 N   0  0  0  0  0  0  0  0  0  0  0  0
    4.8850   -5.1530   22.8630 C   0  0  2  0  0  0  0  0  0  0  0  0
    5.2610    1.7440   22.3270 C   0  0  0  0  0  0  0  0  0  0  0  0
   10.1030   -2.4510   23.5160 C   0  0  0  0  0  0  0  0  0  0  0  0
    4.8660   -4.7090   24.1810 C   0  0  0  0  0  0  0  0  0  0  0  0
    4.6100   -6.6550   22.9050 C   0  0  0  0  0  0  0  0  0  0  0  0
    3.9050    2.2770   22.2410 N   0  0  0  0  0  0  0  0  0  0  0  0
   10.8880   -1.1340   23.4820 C   0  0  0  0  0  0  0  0  0  0  0  0
    4.2050   -5.4880   25.1150 C   0  0  0  0  0  0  0  0  0  0  0  0
    3.6090   -6.8270   24.3350 S   0  0  0  0  0  0  0  0  0  0  0  0
    3.0130    2.1630   23.2790 C   0  0  0  0  0  0  0  0  0  0  0  0
    2.2240   -6.7440   23.9390 O   0  0  0  0  0  0  0  0  0  0  0  0
    3.9450   -8.1770   25.0760 O   0  0  0  0  0  0  0  0  0  0  0  0
   10.1840   -0.1110   24.1350 C   0  0  0  0  0  0  0  0  0  0  0  0
   12.1470   -0.9400   22.8740 C   0  0  0  0  0  0  0  0  0  0  0  0
    2.9970    1.3210   24.1660 O   0  0  0  0  0  0  0  0  0  0  0  0
   12.8610   -2.0520   22.1770 C   0  0  0  0  0  0  0  0  0  0  0  0
   10.7710    1.2900   24.1970 C   0  0  0  0  0  0  0  0  0  0  0  0
   12.8380    0.4120   22.8820 C   0  0  0  0  0  0  0  0  0  0  0  0
   12.1020    1.5370   23.5630 C   0  0  0  0  0  0  0  0  0  0  0  0
  1  2  1  0
  1  3  2  0
  1  4  1  0
  4  5  1  0
  4  6  1  0
  5  7  1  1
  6  8  1  6
  5  9  1  0
  6 10  1  0
  7 11  1  0
  9 12  1  0
 10 12  1  0
 13  8  1  1
 11 14  1  0
 12 15  1  0
 13 16  1  0
 13 17  1  0
 14 18  1  0
 15 19  1  0
 16 20  2  0
 17 21  1  0
 20 21  1  0
 18 22  1  0
 21 23  1  0
 21 24  1  0
 19 25  2  0
 19 26  1  0
 22 27  2  0
 26 28  1  0
 25 29  1  0
 26 30  2  0
 29 31  2  0
 30 31  1  0
M  END
