x0831_0-x1334_1-x1374_1-x0770_1-x1386_0
     RDKit          3D

 26 28  0  0  0  0  0  0  0  0999 V2000
    6.2750   -3.2440   19.8830 C   0  0  0  0  0  0  0  0  0  0  0  0
    7.2780   -2.9760   18.7780 C   0  0  0  0  0  0  0  0  0  0  0  0
    5.3300   -4.0060   19.6410 O   0  0  0  0  0  0  0  0  0  0  0  0
    6.4740   -2.6480   21.1200 N   0  0  0  0  0  0  0  0  0  0  0  0
    6.9230   -1.2760   21.2760 C   0  0  0  0  0  0  0  0  0  0  0  0
    6.7070   -3.4790   22.2920 C   0  0  1  0  0  0  0  0  0  0  0  0
    6.1840   -4.8810   22.0290 C   0  0  0  0  0  0  0  0  0  0  0  0
    8.3960   -1.2610   21.6860 C   0  0  0  0  0  0  0  0  0  0  0  0
    8.0610   -3.4510   22.7350 C   0  0  0  0  0  0  0  0  0  0  0  0
    8.7190   -2.1430   22.8040 N   0  0  0  0  0  0  0  0  0  0  0  0
    4.9890   -5.2780   22.8560 C   0  0  2  0  0  0  0  0  0  0  0  0
   10.0640   -2.1330   23.1040 C   0  0  2  0  0  0  0  0  0  0  0  0
    4.8260   -4.7340   24.1810 C   0  0  0  0  0  0  0  0  0  0  0  0
    4.6480   -6.6230   22.8650 C   0  0  0  0  0  0  0  0  0  0  0  0
   10.3640   -3.0760   24.2110 C   0  0  0  0  0  0  0  0  0  0  0  0
   10.9070   -0.9150   23.2320 C   0  0  0  0  0  0  0  0  0  0  0  0
    4.0950   -5.4880   25.0670 C   0  0  0  0  0  0  0  0  0  0  0  0
    3.6210   -6.9230   24.2080 S   0  0  0  0  0  0  0  0  0  0  0  0
    2.2390   -6.8230   23.8050 O   0  0  0  0  0  0  0  0  0  0  0  0
    4.1390   -8.0440   24.9290 O   0  0  0  0  0  0  0  0  0  0  0  0
   10.2900    0.2990   23.9560 C   0  0  0  0  0  0  0  0  0  0  0  0
   12.2000   -0.8190   22.7200 C   0  0  0  0  0  0  0  0  0  0  0  0
   12.8700   -1.9500   22.0040 C   0  0  0  0  0  0  0  0  0  0  0  0
   11.0470    1.4420   24.0470 C   0  0  0  0  0  0  0  0  0  0  0  0
   12.8930    0.3700   22.8640 C   0  0  0  0  0  0  0  0  0  0  0  0
   12.3280    1.4660   23.5010 C   0  0  0  0  0  0  0  0  0  0  0  0
  1  2  1  0
  1  3  2  0
  1  4  1  0
  4  5  1  0
  4  6  1  0
  6  7  1  6
  5  8  1  0
  6  9  1  0
  8 10  1  0
  9 10  1  0
 11  7  1  1
 10 12  1  0
 11 13  1  0
 11 14  1  0
 12 15  1  1
 12 16  1  0
 13 17  2  0
 14 18  1  0
 17 18  1  0
 18 19  1  0
 18 20  1  0
 16 21  2  0
 16 22  1  0
 22 23  1  0
 21 24  1  0
 22 25  2  0
 24 26  2  0
 25 26  1  0
M  END
