x0831_0-x1418_1-x0770_1-x1412_0
     RDKit          3D

 25 27  0  0  0  0  0  0  0  0999 V2000
    6.2930   -3.2440   19.8230 C   0  0  0  0  0  0  0  0  0  0  0  0
    7.2520   -2.9450   18.6810 C   0  0  0  0  0  0  0  0  0  0  0  0
    5.4210   -4.1140   19.7270 O   0  0  0  0  0  0  0  0  0  0  0  0
    6.4600   -2.5060   20.9970 N   0  0  0  0  0  0  0  0  0  0  0  0
    6.5080   -3.1260   22.3180 C   0  0  0  0  0  0  0  0  0  0  0  0
    7.1250   -1.1770   20.9750 C   0  0  0  0  0  0  0  0  0  0  0  0
    7.9620   -3.2790   22.8210 C   0  0  0  0  0  0  0  0  0  0  0  0
    8.5900   -1.3690   21.4210 C   0  0  0  0  0  0  0  0  0  0  0  0
    8.7570   -2.0030   22.7670 N   0  0  0  0  0  0  0  0  0  0  0  0
   10.1620   -2.1180   23.2030 C   0  0  2  0  0  0  0  0  0  0  0  0
   10.2330   -2.8290   24.5100 C   0  0  0  0  0  0  0  0  0  0  0  0
   10.9000   -0.7820   23.2850 C   0  0  0  0  0  0  0  0  0  0  0  0
    8.8590   -2.7810   25.1490 C   0  0  0  0  0  0  0  0  0  0  0  0
   10.1930    0.3260   23.8800 C   0  0  0  0  0  0  0  0  0  0  0  0
   12.2170   -0.7010   22.7900 C   0  0  0  0  0  0  0  0  0  0  0  0
   12.9230   -1.8720   22.1700 C   0  0  0  0  0  0  0  0  0  0  0  0
    8.0070   -1.9140   24.9850 O   0  0  0  0  0  0  0  0  0  0  0  0
   10.9020    1.4700   23.9280 C   0  0  0  0  0  0  0  0  0  0  0  0
   12.8770    0.5130   22.8810 C   0  0  0  0  0  0  0  0  0  0  0  0
    8.7210   -3.9550   26.0020 C   0  0  0  0  0  0  0  0  0  0  0  0
   12.2310    1.5180   23.4190 C   0  0  0  0  0  0  0  0  0  0  0  0
    9.5970   -5.1430   25.8740 C   0  0  0  0  0  0  0  0  0  0  0  0
    7.5980   -4.2340   27.2890 S   0  0  0  0  0  0  0  0  0  0  0  0
    9.2740   -6.1590   26.8170 C   0  0  0  0  0  0  0  0  0  0  0  0
    8.1990   -5.8110   27.6750 C   0  0  0  0  0  0  0  0  0  0  0  0
  1  2  1  0
  1  3  2  0
  1  4  1  0
  4  5  1  0
  4  6  1  0
  5  7  1  0
  6  8  1  0
  7  9  1  0
  8  9  1  0
  9 10  1  0
 10 11  1  1
 10 12  1  0
 11 13  1  0
 12 14  2  0
 12 15  1  0
 15 16  1  0
 13 17  2  0
 14 18  1  0
 15 19  2  0
 13 20  1  0
 18 21  2  0
 19 21  1  0
 20 22  2  0
 20 23  1  0
 22 24  1  0
 23 25  1  0
 24 25  2  0
M  END
