x0831_0-x0691_0
     RDKit          3D

 19 20  0  0  0  0  0  0  0  0999 V2000
    6.3490   -4.3930   20.4860 C   0  0  0  0  0  0  0  0  0  0  0  0
    7.3500   -3.4010   19.8440 C   0  0  0  0  0  0  0  0  0  0  0  0
    5.2870   -4.5650   19.9090 O   0  0  0  0  0  0  0  0  0  0  0  0
    6.6230   -5.1120   21.6680 N   0  0  0  0  0  0  0  0  0  0  0  0
    5.8210   -6.2930   22.0160 C   0  0  0  0  0  0  0  0  0  0  0  0
    7.4140   -4.6300   22.8180 C   0  0  1  0  0  0  0  0  0  0  0  0
    8.2060   -3.3510   22.5180 C   0  0  0  0  0  0  0  0  0  0  0  0
    4.8220   -6.0740   23.1730 C   0  0  0  0  0  0  0  0  0  0  0  0
    6.4080   -4.2890   23.9050 C   0  0  0  0  0  0  0  0  0  0  0  0
    8.9180   -2.6760   23.7070 C   0  0  0  0  0  0  0  0  0  0  0  0
    5.4950   -5.4150   24.3090 N   0  0  0  0  0  0  0  0  0  0  0  0
   10.3400   -2.5960   23.6540 C   0  0  0  0  0  0  0  0  0  0  0  0
   10.9340   -1.2060   23.6200 C   0  0  0  0  0  0  0  0  0  0  0  0
   10.2680   -0.1630   24.2770 C   0  0  0  0  0  0  0  0  0  0  0  0
   12.1440   -0.9180   22.9410 C   0  0  0  0  0  0  0  0  0  0  0  0
   12.9290   -1.9520   22.2020 C   0  0  0  0  0  0  0  0  0  0  0  0
   10.7380    1.1450   24.2840 C   0  0  0  0  0  0  0  0  0  0  0  0
   12.6900    0.4710   22.9340 C   0  0  0  0  0  0  0  0  0  0  0  0
   12.0050    1.4650   23.5800 C   0  0  0  0  0  0  0  0  0  0  0  0
  1  2  1  0
  1  3  2  0
  1  4  1  0
  4  5  1  0
  4  6  1  0
  6  7  1  6
  5  8  1  0
  6  9  1  0
  7 10  1  0
  8 11  1  0
  9 11  1  0
 10 12  1  0
 12 13  1  0
 13 14  2  0
 13 15  1  0
 15 16  1  0
 14 17  1  0
 15 18  2  0
 17 19  2  0
 18 19  1  0
M  END
