x0831_0-x1493_0
     RDKit          3D

 22 23  0  0  0  0  0  0  0  0999 V2000
    4.8740   -6.0970   26.0130 C   0  0  0  0  0  0  0  0  0  0  0  0
    6.1900   -5.5030   25.4900 C   0  0  0  0  0  0  0  0  0  0  0  0
    7.2060   -5.4310   26.1740 O   0  0  0  0  0  0  0  0  0  0  0  0
    6.0700   -5.0460   24.0900 N   0  0  0  0  0  0  0  0  0  0  0  0
    6.8780   -4.0880   23.4720 C   0  0  1  0  0  0  0  0  0  0  0  0
    5.2590   -5.8510   23.1470 C   0  0  0  0  0  0  0  0  0  0  0  0
    7.8440   -3.4130   24.4280 C   0  0  0  0  0  0  0  0  0  0  0  0
    7.6890   -4.5230   22.4510 C   0  0  0  0  0  0  0  0  0  0  0  0
    5.9740   -6.1850   21.9770 C   0  0  0  0  0  0  0  0  0  0  0  0
    8.5300   -2.1610   23.8800 C   0  0  0  0  0  0  0  0  0  0  0  0
    6.8190   -5.0820   21.4470 N   0  0  0  0  0  0  0  0  0  0  0  0
    6.3660   -4.3610   20.3470 C   0  0  0  0  0  0  0  0  0  0  0  0
   10.0140   -2.3930   23.4720 C   0  0  0  0  0  0  0  0  0  0  0  0
    5.2450   -4.5390   19.8990 O   0  0  0  0  0  0  0  0  0  0  0  0
    7.2870   -3.3580   19.6620 C   0  0  0  0  0  0  0  0  0  0  0  0
   10.7930   -1.0910   23.4880 C   0  0  0  0  0  0  0  0  0  0  0  0
   10.2340    0.0080   24.1420 C   0  0  0  0  0  0  0  0  0  0  0  0
   12.0540   -0.9460   22.8630 C   0  0  0  0  0  0  0  0  0  0  0  0
   12.7240   -2.0650   22.1360 C   0  0  0  0  0  0  0  0  0  0  0  0
   10.8990    1.2270   24.1700 C   0  0  0  0  0  0  0  0  0  0  0  0
   12.7110    0.2830   22.9090 C   0  0  0  0  0  0  0  0  0  0  0  0
   12.1350    1.3700   23.5560 C   0  0  0  0  0  0  0  0  0  0  0  0
  1  2  1  0
  2  3  2  0
  2  4  1  0
  4  5  1  0
  4  6  1  0
  5  7  1  1
  5  8  1  0
  6  9  1  0
  7 10  1  0
  8 11  1  0
  9 11  1  0
 11 12  1  0
 10 13  1  0
 12 14  2  0
 12 15  1  0
 13 16  1  0
 16 17  2  0
 16 18  1  0
 18 19  1  0
 17 20  1  0
 18 21  2  0
 20 22  2  0
 21 22  1  0
M  END
