x0831_0-x1418_1-x1334_0-x0397_0-x1334_1-x0426_1-x1386_1-x1385_1-x0434_2-x1375_1-x0770_1-x1374_1-x0692_1-x1412_1
     RDKit          3D

 42 47  0  0  0  0  0  0  0  0999 V2000
    2.4210   -7.1410   24.3650 O   0  0  0  0  0  0  0  0  0  0  0  0
    3.4080   -7.1770   25.3730 C   0  0  0  0  0  0  0  0  0  0  0  0
    4.6560   -7.3700   24.7500 O   0  0  0  0  0  0  0  0  0  0  0  0
    5.2800   -6.0890   24.4500 C   0  0  0  0  0  0  0  0  0  0  0  0
    4.9930   -5.7720   23.0330 C   0  0  1  0  0  0  0  0  0  0  0  0
    5.5290   -4.6830   22.2150 C   0  0  2  0  0  0  0  0  0  0  0  0
    5.8060   -6.3120   21.8090 C   0  0  0  0  0  0  0  0  0  0  0  0
    6.8010   -3.8980   21.9810 C   0  0  2  0  0  0  0  0  0  0  0  0
    7.8740   -3.5370   23.0430 C   0  0  0  0  0  0  0  0  0  0  0  0
    6.4470   -2.7250   21.1550 N   0  0  0  0  0  0  0  0  0  0  0  0
    6.3560   -3.1390   19.8280 C   0  0  0  0  0  0  0  0  0  0  0  0
    9.0340   -2.7910   22.4220 N   0  0  0  0  0  0  0  0  0  0  0  0
    7.0810   -1.5020   21.7100 C   0  0  2  0  0  0  0  0  0  0  0  0
    7.4220   -2.8960   18.7630 C   0  0  0  0  0  0  0  0  0  0  0  0
    5.3590   -3.8210   19.5490 O   0  0  0  0  0  0  0  0  0  0  0  0
    6.4310   -0.0820   21.5530 C   0  0  2  0  0  0  0  0  0  0  0  0
   10.0280   -2.4490   23.4480 C   0  0  2  0  0  0  0  0  0  0  0  0
    8.5630   -1.6480   21.6300 C   0  0  0  0  0  0  0  0  0  0  0  0
    5.1970    0.0600   22.4660 C   0  0  0  0  0  0  0  0  0  0  0  0
    9.1800   -2.4590   24.6920 C   0  0  0  0  0  0  0  0  0  0  0  0
    6.0520    0.4290   20.1630 C   0  0  0  0  0  0  0  0  0  0  0  0
   10.7820   -1.1220   23.4390 C   0  0  0  0  0  0  0  0  0  0  0  0
    4.5870    1.5180   22.5020 C   0  0  2  0  0  0  0  0  0  0  0  0
    4.9210    1.2410   19.9870 C   0  0  0  0  0  0  0  0  0  0  0  0
    6.7960    0.1210   19.0920 C   0  0  0  0  0  0  0  0  0  0  0  0
   10.0880    0.0190   24.1650 C   0  0  0  0  0  0  0  0  0  0  0  0
   12.0500   -0.9380   22.8140 C   0  0  0  0  0  0  0  0  0  0  0  0
    9.0200   -3.7590   25.4180 C   0  0  0  0  0  0  0  0  0  0  0  0
    3.6830    1.6250   23.6200 N   0  0  0  0  0  0  0  0  0  0  0  0
    3.9170    1.7040   21.1200 C   0  0  0  0  0  0  0  0  0  0  0  0
   12.7400   -2.0480   22.0890 C   0  0  0  0  0  0  0  0  0  0  0  0
    4.5850    1.7230   18.7630 C   0  0  0  0  0  0  0  0  0  0  0  0
    6.5480    0.5470   17.8320 N   0  0  0  0  0  0  0  0  0  0  0  0
   10.8800    1.3070   24.1340 C   0  0  0  0  0  0  0  0  0  0  0  0
   12.7430    0.2810   22.8250 C   0  0  0  0  0  0  0  0  0  0  0  0
    9.6770   -5.0910   25.2980 C   0  0  0  0  0  0  0  0  0  0  0  0
    7.8720   -3.7650   26.6950 S   0  0  0  0  0  0  0  0  0  0  0  0
    5.3790    1.3990   17.6760 C   0  0  0  0  0  0  0  0  0  0  0  0
   12.2190    1.3390   23.4310 C   0  0  0  0  0  0  0  0  0  0  0  0
    9.2010   -5.9590   26.2540 C   0  0  0  0  0  0  0  0  0  0  0  0
    8.2060   -5.4020   27.1090 C   0  0  0  0  0  0  0  0  0  0  0  0
    7.3450   -6.0790   28.4150 Cl  0  0  0  0  0  0  0  0  0  0  0  0
  1  2  1  0
  2  3  1  0
  3  4  1  0
  5  4  1  1
  5  6  1  0
  5  7  1  0
  6  7  1  6
  6  8  1  0
  8  9  1  1
  8 10  1  0
 10 11  1  0
  9 12  1  0
 10 13  1  0
 11 14  1  0
 11 15  2  0
 13 16  1  0
 12 17  1  0
 12 18  1  0
 13 18  1  6
 16 19  1  1
 17 20  1  1
 16 21  1  0
 17 22  1  0
 19 23  1  0
 21 24  2  0
 21 25  1  0
 22 26  2  0
 22 27  1  0
 20 28  1  0
 23 29  1  1
 23 30  1  0
 24 30  1  0
 27 31  1  0
 24 32  1  0
 25 33  2  0
 26 34  1  0
 27 35  2  0
 28 36  2  0
 28 37  1  0
 32 38  2  0
 33 38  1  0
 34 39  2  0
 35 39  1  0
 36 40  1  0
 37 41  1  0
 40 41  2  0
 41 42  1  0
M  END
