x0831_1-x0831_0-x0397_0-x1334_1-x0770_1-x0692_1
     RDKit          3D

 21 23  0  0  0  0  0  0  0  0999 V2000
    6.1940   -3.3550   19.9180 C   0  0  0  0  0  0  0  0  0  0  0  0
    7.1900   -3.0010   18.8180 C   0  0  0  0  0  0  0  0  0  0  0  0
    5.2710   -4.1410   19.6980 O   0  0  0  0  0  0  0  0  0  0  0  0
    6.3730   -2.8080   21.1820 N   0  0  0  0  0  0  0  0  0  0  0  0
    6.2090   -1.3750   21.4660 C   0  0  0  0  0  0  0  0  0  0  0  0
    6.9610   -3.6220   22.2580 C   0  0  1  0  0  0  0  0  0  0  0  0
    7.5080   -0.5750   21.2330 C   0  0  0  0  0  0  0  0  0  0  0  0
    7.5250   -2.7840   23.4380 C   0  0  0  0  0  0  0  0  0  0  0  0
    5.9500   -4.6650   22.6670 C   0  0  0  0  0  0  0  0  0  0  0  0
    8.6170   -1.8710   23.0140 N   0  0  0  0  0  0  0  0  0  0  0  0
    8.6260   -1.5340   21.6880 C   0  0  0  0  0  0  0  0  0  0  0  0
    6.3510   -5.8740   23.4800 C   0  0  0  0  0  0  0  0  0  0  0  0
    6.0340   -6.0340   22.0180 C   0  0  0  0  0  0  0  0  0  0  0  0
    9.9630   -2.1710   23.5500 C   0  0  0  0  0  0  0  0  0  0  0  0
   10.8330   -0.9270   23.5110 C   0  0  0  0  0  0  0  0  0  0  0  0
   10.3300    0.2450   24.0960 C   0  0  0  0  0  0  0  0  0  0  0  0
   12.1040   -0.9070   22.9010 C   0  0  0  0  0  0  0  0  0  0  0  0
   12.7180   -2.1130   22.2430 C   0  0  0  0  0  0  0  0  0  0  0  0
   11.0650    1.4170   24.0750 C   0  0  0  0  0  0  0  0  0  0  0  0
   12.8300    0.2850   22.8970 C   0  0  0  0  0  0  0  0  0  0  0  0
   12.3160    1.4340   23.4730 C   0  0  0  0  0  0  0  0  0  0  0  0
  1  2  1  0
  1  3  2  0
  1  4  1  0
  4  5  1  0
  4  6  1  0
  5  7  1  0
  6  8  1  0
  6  9  1  1
  8 10  1  0
  7 11  1  0
 10 11  1  0
  9 12  1  0
  9 13  1  0
 12 13  1  0
 10 14  1  0
 14 15  1  0
 15 16  2  0
 15 17  1  0
 17 18  1  0
 16 19  1  0
 17 20  2  0
 19 21  2  0
 20 21  1  0
M  END
