x0831_0-x1418_1-x1334_1-x0426_1-x0770_1
     RDKit          3D

 28 31  0  0  0  0  0  0  0  0999 V2000
    6.2820   -3.3250   19.9150 C   0  0  0  0  0  0  0  0  0  0  0  0
    7.2720   -2.9880   18.8000 C   0  0  0  0  0  0  0  0  0  0  0  0
    5.3800   -4.1490   19.7500 O   0  0  0  0  0  0  0  0  0  0  0  0
    6.4670   -2.6770   21.1450 N   0  0  0  0  0  0  0  0  0  0  0  0
    6.5320   -3.4410   22.3930 C   0  0  0  0  0  0  0  0  0  0  0  0
    7.2690   -1.4150   21.1700 C   0  0  1  0  0  0  0  0  0  0  0  0
    6.3490   -0.1770   21.4540 C   0  0  2  0  0  0  0  0  0  0  0  0
    7.9640   -3.5690   22.9490 C   0  0  0  0  0  0  0  0  0  0  0  0
    8.4730   -1.4490   21.9110 C   0  0  0  0  0  0  0  0  0  0  0  0
    5.1140   -0.3660   22.3960 C   0  0  0  0  0  0  0  0  0  0  0  0
    8.6450   -2.2730   23.1050 N   0  0  0  0  0  0  0  0  0  0  0  0
    5.9560    0.4050   20.1420 C   0  0  0  0  0  0  0  0  0  0  0  0
    4.0700    0.8010   22.4460 C   0  0  1  0  0  0  0  0  0  0  0  0
   10.0580   -2.3770   23.4810 C   0  0  0  0  0  0  0  0  0  0  0  0
    4.6620    1.2540   19.9670 C   0  0  0  0  0  0  0  0  0  0  0  0
    6.8080    0.1490   19.0860 C   0  0  0  0  0  0  0  0  0  0  0  0
    4.3790    1.7990   23.4840 N   0  0  0  0  0  0  0  0  0  0  0  0
    3.7540    1.5020   21.1110 C   0  0  0  0  0  0  0  0  0  0  0  0
    4.3630    1.7680   18.7800 C   0  0  0  0  0  0  0  0  0  0  0  0
    6.5000    0.6960   17.7820 N   0  0  0  0  0  0  0  0  0  0  0  0
   10.8060   -1.0740   23.5090 C   0  0  0  0  0  0  0  0  0  0  0  0
    5.2870    1.4880   17.7030 C   0  0  0  0  0  0  0  0  0  0  0  0
   10.2470    0.0470   24.1470 C   0  0  0  0  0  0  0  0  0  0  0  0
   12.0690   -0.9450   22.8890 C   0  0  0  0  0  0  0  0  0  0  0  0
   12.7640   -2.0630   22.1730 C   0  0  0  0  0  0  0  0  0  0  0  0
   10.9520    1.2970   24.1510 C   0  0  0  0  0  0  0  0  0  0  0  0
   12.7380    0.2630   22.9120 C   0  0  0  0  0  0  0  0  0  0  0  0
   12.1800    1.3640   23.5300 C   0  0  0  0  0  0  0  0  0  0  0  0
  1  2  1  0
  1  3  2  0
  1  4  1  0
  4  5  1  0
  4  6  1  0
  6  7  1  0
  5  8  1  0
  6  9  1  1
  7 10  1  6
  8 11  1  0
  9 11  1  0
  7 12  1  0
 10 13  1  0
 11 14  1  0
 12 15  2  0
 12 16  1  0
 13 17  1  1
 13 18  1  0
 15 18  1  0
 15 19  1  0
 16 20  2  0
 14 21  1  0
 19 22  2  0
 20 22  1  0
 21 23  2  0
 21 24  1  0
 24 25  1  0
 23 26  1  0
 24 27  2  0
 26 28  2  0
 27 28  1  0
M  END
