x0831_0-x1412_1-x1334_1
     RDKit          3D

 17 18  0  0  0  0  0  0  0  0999 V2000
    6.3580   -3.4050   19.9940 C   0  0  0  0  0  0  0  0  0  0  0  0
    7.2900   -3.0330   18.8510 C   0  0  0  0  0  0  0  0  0  0  0  0
    5.4190   -4.1860   19.7820 O   0  0  0  0  0  0  0  0  0  0  0  0
    6.6320   -2.8560   21.2530 N   0  0  0  0  0  0  0  0  0  0  0  0
    7.3400   -1.5810   21.3560 C   0  0  0  0  0  0  0  0  0  0  0  0
    6.6780   -3.5890   22.5240 C   0  0  0  0  0  0  0  0  0  0  0  0
    8.7410   -1.7630   21.8910 C   0  0  0  0  0  0  0  0  0  0  0  0
    8.0010   -3.7960   22.9730 C   0  0  0  0  0  0  0  0  0  0  0  0
    8.7650   -2.5450   23.1390 N   0  0  0  0  0  0  0  0  0  0  0  0
   10.0740   -2.7370   23.5190 C   0  0  0  0  0  0  0  0  0  0  0  0
   10.7490   -1.3290   23.5440 C   0  0  0  0  0  0  0  0  0  0  0  0
   10.0390   -0.1940   24.3000 C   0  0  0  0  0  0  0  0  0  0  0  0
   12.0880   -0.9640   22.8610 C   0  0  0  0  0  0  0  0  0  0  0  0
   12.8860   -1.9590   22.0840 C   0  0  0  0  0  0  0  0  0  0  0  0
   10.6200    1.0990   24.3310 C   0  0  0  0  0  0  0  0  0  0  0  0
   12.6060    0.3310   22.9390 C   0  0  0  0  0  0  0  0  0  0  0  0
   11.9500    1.3750   23.6270 C   0  0  0  0  0  0  0  0  0  0  0  0
  1  2  1  0
  1  3  2  0
  1  4  1  0
  4  5  1  0
  4  6  1  0
  5  7  1  0
  6  8  1  0
  7  9  1  0
  8  9  1  0
  9 10  1  0
 10 11  1  0
 11 12  2  0
 11 13  1  0
 13 14  1  0
 12 15  1  0
 13 16  2  0
 15 17  2  0
 16 17  1  0
M  END
