x0831_0-x1385_1-x1418_1-x1334_1-x1412_0
     RDKit          3D

 25 27  0  0  0  0  0  0  0  0999 V2000
    6.3790   -3.2370   19.8700 C   0  0  0  0  0  0  0  0  0  0  0  0
    7.3130   -2.9820   18.7070 C   0  0  0  0  0  0  0  0  0  0  0  0
    5.4880   -4.1010   19.7540 O   0  0  0  0  0  0  0  0  0  0  0  0
    6.6100   -2.4670   21.0180 N   0  0  0  0  0  0  0  0  0  0  0  0
    6.4830   -3.0850   22.3420 C   0  0  0  0  0  0  0  0  0  0  0  0
    7.5040   -1.3110   21.0020 C   0  0  0  0  0  0  0  0  0  0  0  0
    7.8940   -3.4050   22.9520 C   0  0  0  0  0  0  0  0  0  0  0  0
    8.9160   -1.7250   21.4690 C   0  0  0  0  0  0  0  0  0  0  0  0
    8.9150   -2.3210   22.7540 N   0  0  0  0  0  0  0  0  0  0  0  0
    9.4190   -1.5880   23.7780 C   0  0  1  0  0  0  0  0  0  0  0  0
    9.8490   -2.6840   24.6860 C   0  0  0  0  0  0  0  0  0  0  0  0
   10.5270   -0.6040   23.5410 C   0  0  0  0  0  0  0  0  0  0  0  0
    8.5970   -2.8730   25.4480 C   0  0  0  0  0  0  0  0  0  0  0  0
   10.2750    0.8050   23.9860 C   0  0  0  0  0  0  0  0  0  0  0  0
   11.7870   -0.8490   22.9580 C   0  0  0  0  0  0  0  0  0  0  0  0
   12.2480   -2.1810   22.4420 C   0  0  0  0  0  0  0  0  0  0  0  0
    7.6790   -2.0670   25.3980 O   0  0  0  0  0  0  0  0  0  0  0  0
   11.2210    1.7970   23.8300 C   0  0  0  0  0  0  0  0  0  0  0  0
   12.7350    0.1990   22.8180 C   0  0  0  0  0  0  0  0  0  0  0  0
    8.6070   -4.0960   26.2450 C   0  0  0  0  0  0  0  0  0  0  0  0
   12.4340    1.6080   23.2780 C   0  0  0  0  0  0  0  0  0  0  0  0
    9.4840   -5.1140   25.9660 C   0  0  0  0  0  0  0  0  0  0  0  0
    7.5870   -4.4240   27.5840 S   0  0  0  0  0  0  0  0  0  0  0  0
    9.3040   -6.1260   26.8280 C   0  0  0  0  0  0  0  0  0  0  0  0
    8.3370   -5.9740   27.7890 C   0  0  0  0  0  0  0  0  0  0  0  0
  1  2  1  0
  1  3  2  0
  1  4  1  0
  4  5  1  0
  4  6  1  0
  5  7  1  0
  6  8  1  0
  7  9  1  0
  8  9  1  0
  9 10  1  0
 10 11  1  1
 10 12  1  0
 11 13  1  0
 12 14  2  0
 12 15  1  0
 15 16  1  0
 13 17  2  0
 14 18  1  0
 15 19  2  0
 13 20  1  0
 18 21  2  0
 19 21  1  0
 20 22  2  0
 20 23  1  0
 22 24  1  0
 23 25  1  0
 24 25  2  0
M  END
