x0831_0-x0770_1-x0540_3
     RDKit          3D

 23 24  0  0  0  0  0  0  0  0999 V2000
    6.2460   -3.3540   20.0470 C   0  0  0  0  0  0  0  0  0  0  0  0
    7.2410   -3.0110   18.9480 C   0  0  0  0  0  0  0  0  0  0  0  0
    5.3760   -4.2060   19.7990 O   0  0  0  0  0  0  0  0  0  0  0  0
    6.3370   -2.7450   21.3160 N   0  0  0  0  0  0  0  0  0  0  0  0
    6.7880   -1.3690   21.6150 C   0  0  2  0  0  0  0  0  0  0  0  0
    6.5680   -3.6440   22.4570 C   0  0  0  0  0  0  0  0  0  0  0  0
    6.3550   -0.3180   20.5770 C   0  0  0  0  0  0  0  0  0  0  0  0
    8.2750   -1.4530   21.8970 C   0  0  0  0  0  0  0  0  0  0  0  0
    7.8920   -3.6550   22.9720 C   0  0  0  0  0  0  0  0  0  0  0  0
    5.1240    0.4730   21.0650 C   0  0  0  0  0  0  0  0  0  0  0  0
    8.5500   -2.3210   23.0580 N   0  0  0  0  0  0  0  0  0  0  0  0
    5.2870    1.3120   22.3960 C   0  0  0  0  0  0  0  0  0  0  0  0
    9.9890   -2.4430   23.3760 C   0  0  0  0  0  0  0  0  0  0  0  0
    4.2680    2.3320   22.5480 N   0  0  0  0  0  0  0  0  0  0  0  0
   10.7540   -1.1250   23.4390 C   0  0  0  0  0  0  0  0  0  0  0  0
    3.1000    2.0900   23.2970 C   0  0  0  0  0  0  0  0  0  0  0  0
   10.1950   -0.0430   24.1040 C   0  0  0  0  0  0  0  0  0  0  0  0
   12.0230   -0.9460   22.8380 C   0  0  0  0  0  0  0  0  0  0  0  0
    3.0240    1.4580   24.3460 O   0  0  0  0  0  0  0  0  0  0  0  0
   12.7230   -2.0310   22.0900 C   0  0  0  0  0  0  0  0  0  0  0  0
   10.8260    1.1730   24.1850 C   0  0  0  0  0  0  0  0  0  0  0  0
   12.6650    0.2850   22.9260 C   0  0  0  0  0  0  0  0  0  0  0  0
   12.0730    1.3470   23.5900 C   0  0  0  0  0  0  0  0  0  0  0  0
  1  2  1  0
  1  3  2  0
  1  4  1  0
  4  5  1  0
  4  6  1  0
  5  7  1  6
  5  8  1  0
  6  9  1  0
  7 10  1  0
  8 11  1  0
  9 11  1  0
 10 12  1  0
 11 13  1  0
 12 14  1  0
 13 15  1  0
 14 16  1  0
 15 17  2  0
 15 18  1  0
 16 19  2  0
 18 20  1  0
 17 21  1  0
 18 22  2  0
 21 23  2  0
 22 23  1  0
M  END
