x0831_1-x1384_2-x1386_0-x0397_0-x1412_0
     RDKit          3D

 26 29  0  0  0  0  0  0  0  0999 V2000
    6.1430   -3.3680   19.9830 C   0  0  0  0  0  0  0  0  0  0  0  0
    7.1400   -3.0170   18.8980 C   0  0  0  0  0  0  0  0  0  0  0  0
    5.2840   -4.2250   19.7590 O   0  0  0  0  0  0  0  0  0  0  0  0
    6.2580   -2.7400   21.2110 N   0  0  0  0  0  0  0  0  0  0  0  0
    6.3460   -1.4410   21.4030 C   0  0  0  0  0  0  0  0  0  0  0  0
    6.7000   -3.6010   22.3060 C   0  0  1  0  0  0  0  0  0  0  0  0
    7.7770   -0.9550   21.3350 C   0  0  0  0  0  0  0  0  0  0  0  0
    6.8850   -2.9830   23.5220 C   0  0  0  0  0  0  0  0  0  0  0  0
    5.7730   -4.7890   22.4870 C   0  0  0  0  0  0  0  0  0  0  0  0
    8.1030   -2.1880   23.4910 N   0  0  0  0  0  0  0  0  0  0  0  0
    8.7120   -1.8250   22.1880 C   0  0  0  0  0  0  0  0  0  0  0  0
    6.1650   -5.9420   23.2230 C   0  0  0  0  0  0  0  0  0  0  0  0
    6.2500   -6.3130   21.9670 C   0  0  0  0  0  0  0  0  0  0  0  0
    9.0130   -2.4030   24.5180 C   0  0  2  0  0  0  0  0  0  0  0  0
    9.2510   -1.4750   25.2630 O   0  0  0  0  0  0  0  0  0  0  0  0
   10.4070   -2.6980   23.9550 C   0  0  0  0  0  0  0  0  0  0  0  0
    8.7740   -3.5430   25.5500 C   0  0  0  0  0  0  0  0  0  0  0  0
    9.7050   -4.6440   25.6250 C   0  0  0  0  0  0  0  0  0  0  0  0
    7.5150   -3.7420   26.7170 S   0  0  0  0  0  0  0  0  0  0  0  0
   11.2140   -1.4450   23.7180 C   0  0  0  0  0  0  0  0  0  0  0  0
    9.3410   -5.5510   26.5940 C   0  0  0  0  0  0  0  0  0  0  0  0
    8.1880   -5.2230   27.2850 C   0  0  0  0  0  0  0  0  0  0  0  0
   12.3080   -1.3670   22.8790 C   0  0  0  0  0  0  0  0  0  0  0  0
   11.0090   -0.1960   24.2800 C   0  0  0  0  0  0  0  0  0  0  0  0
   12.9540   -0.1720   22.7460 C   0  0  0  0  0  0  0  0  0  0  0  0
   12.1680    0.9790   23.7260 S   0  0  0  0  0  0  0  0  0  0  0  0
  1  2  1  0
  1  3  2  0
  1  4  1  0
  4  5  1  0
  4  6  1  0
  5  7  1  0
  6  8  1  0
  6  9  1  1
  8 10  1  0
  7 11  1  0
 10 11  1  0
  9 12  1  0
  9 13  1  0
 12 13  1  0
 10 14  1  0
 14 15  1  1
 14 16  1  0
 14 17  1  0
 17 18  2  0
 17 19  1  0
 16 20  1  0
 18 21  1  0
 19 22  1  0
 21 22  2  0
 20 23  1  0
 20 24  2  0
 23 25  2  0
 24 26  1  0
 25 26  1  0
M  END
