x0831_0-x1385_1-x1334_1-x0434_2
     RDKit          3D

 25 27  0  0  0  0  0  0  0  0999 V2000
    6.4080   -3.3390   20.0010 C   0  0  0  0  0  0  0  0  0  0  0  0
    7.3160   -3.0060   18.8210 C   0  0  0  0  0  0  0  0  0  0  0  0
    5.4490   -4.0920   19.7450 O   0  0  0  0  0  0  0  0  0  0  0  0
    6.6760   -2.8530   21.3050 N   0  0  0  0  0  0  0  0  0  0  0  0
    6.7430   -3.8660   22.3660 C   0  0  0  0  0  0  0  0  0  0  0  0
    7.3050   -1.5890   21.7380 C   0  0  1  0  0  0  0  0  0  0  0  0
    7.9110   -3.6920   23.3870 C   0  0  0  0  0  0  0  0  0  0  0  0
    8.6270   -1.8090   21.9990 C   0  0  0  0  0  0  0  0  0  0  0  0
    7.2950   -0.4440   20.7250 C   0  0  0  0  0  0  0  0  0  0  0  0
    8.7610   -2.4720   23.2860 N   0  0  0  0  0  0  0  0  0  0  0  0
    7.2100   -1.0320   19.5010 C   0  0  0  0  0  0  0  0  0  0  0  0
   10.1230   -2.5900   23.5590 C   0  0  0  0  0  0  0  0  0  0  0  0
    6.8030   -0.0570   18.5020 C   0  0  0  0  0  0  0  0  0  0  0  0
   10.8000   -1.1930   23.5850 C   0  0  0  0  0  0  0  0  0  0  0  0
    5.9270   -0.1070   19.6290 C   0  0  0  0  0  0  0  0  0  0  0  0
    6.1600    0.9940   17.6650 N   0  0  0  0  0  0  0  0  0  0  0  0
   10.1230   -0.1230   24.2570 C   0  0  0  0  0  0  0  0  0  0  0  0
   12.1320   -0.9780   22.8990 C   0  0  0  0  0  0  0  0  0  0  0  0
    5.0580    1.7490   17.8250 C   0  0  0  0  0  0  0  0  0  0  0  0
    4.6520    0.7030   19.9260 C   0  0  0  0  0  0  0  0  0  0  0  0
   12.8180   -2.1070   22.1920 C   0  0  0  0  0  0  0  0  0  0  0  0
   10.8410    1.2500   24.2200 C   0  0  0  0  0  0  0  0  0  0  0  0
   12.7650    0.1990   22.8680 C   0  0  0  0  0  0  0  0  0  0  0  0
    4.2130    1.6960   18.9260 C   0  0  0  0  0  0  0  0  0  0  0  0
   12.2010    1.4270   23.5100 C   0  0  0  0  0  0  0  0  0  0  0  0
  1  2  1  0
  1  3  2  0
  1  4  1  0
  4  5  1  0
  4  6  1  0
  5  7  1  0
  6  8  1  0
  6  9  1  6
  7 10  1  0
  8 10  1  0
  9 11  1  0
 10 12  1  0
 11 13  1  0
 12 14  1  0
 13 15  2  0
 13 16  1  0
 14 17  2  0
 14 18  1  0
 16 19  2  0
 15 20  1  0
 18 21  1  0
 17 22  1  0
 18 23  2  0
 19 24  1  0
 20 24  2  0
 22 25  2  0
 23 25  1  0
M  END
