x0831_0-x1418_0-x0820_1-x0540_3
     RDKit          3D

 29 31  0  0  0  0  0  0  0  0999 V2000
    5.3340    0.1360   21.7460 C   0  0  0  0  0  0  0  0  0  0  0  0
    5.4110    1.3610   22.6350 C   0  0  0  0  0  0  0  0  0  0  0  0
    4.3530    2.3400   22.4810 N   0  0  0  0  0  0  0  0  0  0  0  0
    5.3740   -1.1140   22.6060 C   0  0  0  0  0  0  0  0  0  0  0  0
    6.7950   -1.4190   23.1310 C   0  0  0  0  0  0  0  0  0  0  0  0
    3.1500    2.3470   23.3370 C   0  0  0  0  0  0  0  0  0  0  0  0
    7.5760   -2.4550   22.2780 C   0  0  2  0  0  0  0  0  0  0  0  0
    3.0440    1.7530   24.4020 O   0  0  0  0  0  0  0  0  0  0  0  0
    7.2900   -3.9270   22.6460 C   0  0  0  0  0  0  0  0  0  0  0  0
    9.0080   -2.1870   22.2110 C   0  0  0  0  0  0  0  0  0  0  0  0
    9.7450   -1.9210   23.5230 C   0  0  1  0  0  0  0  0  0  0  0  0
    6.4640   -4.1340   23.8860 C   0  0  0  0  0  0  0  0  0  0  0  0
   10.4510   -3.0290   23.8940 C   0  0  0  0  0  0  0  0  0  0  0  0
    6.9740   -4.3110   25.3260 C   0  0  0  0  0  0  0  0  0  0  0  0
    5.0700   -4.1600   23.6350 C   0  0  0  0  0  0  0  0  0  0  0  0
   10.6740   -0.7870   23.4680 C   0  0  0  0  0  0  0  0  0  0  0  0
    5.9600   -4.5070   26.4650 C   0  0  0  0  0  0  0  0  0  0  0  0
    4.2150   -4.3430   24.7090 C   0  0  0  0  0  0  0  0  0  0  0  0
    8.3170   -4.3130   25.7200 C   0  0  0  0  0  0  0  0  0  0  0  0
   10.2050    0.4020   24.0160 C   0  0  0  0  0  0  0  0  0  0  0  0
   11.9630   -0.8290   22.9050 C   0  0  0  0  0  0  0  0  0  0  0  0
   12.5710   -2.0540   22.2760 C   0  0  0  0  0  0  0  0  0  0  0  0
    4.6300   -4.5050   26.0400 C   0  0  0  0  0  0  0  0  0  0  0  0
    8.6740   -4.4840   27.0590 C   0  0  0  0  0  0  0  0  0  0  0  0
    6.4070   -4.6680   27.7810 C   0  0  0  0  0  0  0  0  0  0  0  0
   10.9930    1.5380   24.0090 C   0  0  0  0  0  0  0  0  0  0  0  0
   12.7470    0.3140   22.9080 C   0  0  0  0  0  0  0  0  0  0  0  0
    7.7650   -4.6620   28.1070 C   0  0  0  0  0  0  0  0  0  0  0  0
   12.2660    1.4930   23.4530 C   0  0  0  0  0  0  0  0  0  0  0  0
  1  2  1  0
  2  3  1  0
  1  4  1  0
  4  5  1  0
  3  6  1  0
  7  5  1  1
  6  8  2  0
  7  9  1  0
  7 10  1  0
 10 11  1  0
  9 12  1  0
 11 13  1  6
 12 14  1  0
 12 15  2  0
 11 16  1  0
 14 17  2  0
 15 18  1  0
 14 19  1  0
 16 20  2  0
 16 21  1  0
 21 22  1  0
 17 23  1  0
 18 23  2  0
 19 24  2  0
 17 25  1  0
 20 26  1  0
 21 27  2  0
 24 28  1  0
 25 28  2  0
 26 29  2  0
 27 29  1  0
M  END
