x0831_0-x1418_1-x1412_0-x0981_1
     RDKit          3D

 37 39  0  0  0  0  0  0  0  0999 V2000
    4.1440   -5.8050   22.9650 C   0  0  0  0  0  0  0  0  0  0  0  0
    2.7470   -6.1310   23.4610 C   0  0  1  0  0  0  0  0  0  0  0  0
    2.3520   -7.4160   22.8830 N   0  0  0  0  0  0  0  0  0  0  0  0
    4.7680   -4.6870   22.9550 N   0  0  0  0  0  0  0  0  0  0  0  0
    2.7720   -6.2440   24.9850 C   0  0  0  0  0  0  0  0  0  0  0  0
    6.1050   -4.6710   22.3770 C   0  0  0  0  0  0  0  0  0  0  0  0
    1.2270   -7.4960   22.1030 C   0  0  0  0  0  0  0  0  0  0  0  0
    3.1720   -7.6490   25.3070 C   0  0  0  0  0  0  0  0  0  0  0  0
    6.6410   -3.2290   22.3670 C   0  0  1  0  0  0  0  0  0  0  0  0
    1.1550   -8.7490   21.2720 C   0  0  0  0  0  0  0  0  0  0  0  0
    0.3640   -6.6250   22.0690 O   0  0  0  0  0  0  0  0  0  0  0  0
    2.5730   -8.2440   26.3800 N   0  0  0  0  0  0  0  0  0  0  0  0
    3.9950   -8.2080   24.6230 O   0  0  0  0  0  0  0  0  0  0  0  0
    8.0620   -3.3130   22.9710 C   0  0  0  0  0  0  0  0  0  0  0  0
    6.6820   -2.5620   21.0540 N   0  0  0  0  0  0  0  0  0  0  0  0
    6.3860   -3.2340   19.8440 C   0  0  0  0  0  0  0  0  0  0  0  0
    8.7270   -1.9940   22.8730 N   0  0  0  0  0  0  0  0  0  0  0  0
    7.5340   -1.3430   21.0710 C   0  0  0  0  0  0  0  0  0  0  0  0
    7.3440   -2.9510   18.7060 C   0  0  0  0  0  0  0  0  0  0  0  0
    5.4450   -4.0300   19.7160 O   0  0  0  0  0  0  0  0  0  0  0  0
   10.1140   -2.1100   23.3910 C   0  0  2  0  0  0  0  0  0  0  0  0
    8.8200   -1.6330   21.5770 C   0  0  0  0  0  0  0  0  0  0  0  0
   10.2430   -2.4550   24.7000 C   0  0  0  0  0  0  0  0  0  0  0  0
   10.8430   -0.8230   23.4110 C   0  0  0  0  0  0  0  0  0  0  0  0
    8.8470   -2.6360   25.3020 C   0  0  0  0  0  0  0  0  0  0  0  0
   10.3160    0.3220   24.0080 C   0  0  0  0  0  0  0  0  0  0  0  0
   12.1150   -0.7490   22.8160 C   0  0  0  0  0  0  0  0  0  0  0  0
   12.7740   -1.9170   22.1450 C   0  0  0  0  0  0  0  0  0  0  0  0
    7.9920   -1.7880   25.0920 O   0  0  0  0  0  0  0  0  0  0  0  0
   11.0400    1.5220   24.0030 C   0  0  0  0  0  0  0  0  0  0  0  0
   12.8110    0.4310   22.8290 C   0  0  0  0  0  0  0  0  0  0  0  0
    8.7470   -3.8850   26.1150 C   0  0  0  0  0  0  0  0  0  0  0  0
   12.2980    1.5860   23.4110 C   0  0  0  0  0  0  0  0  0  0  0  0
    9.5240   -4.9760   25.9050 C   0  0  0  0  0  0  0  0  0  0  0  0
    7.6820   -4.1780   27.4450 S   0  0  0  0  0  0  0  0  0  0  0  0
    9.3160   -6.0200   26.7370 C   0  0  0  0  0  0  0  0  0  0  0  0
    8.3280   -5.7650   27.6680 C   0  0  0  0  0  0  0  0  0  0  0  0
  2  1  1  6
  2  3  1  0
  1  4  2  3
  2  5  1  0
  4  6  1  0
  3  7  1  0
  5  8  1  0
  9  6  1  6
  7 10  1  0
  7 11  2  0
  8 12  1  0
  8 13  2  0
  9 14  1  0
  9 15  1  0
 15 16  1  0
 14 17  1  0
 15 18  1  0
 16 19  1  0
 16 20  2  0
 17 21  1  0
 17 22  1  0
 18 22  1  0
 21 23  1  1
 21 24  1  0
 23 25  1  0
 24 26  2  0
 24 27  1  0
 27 28  1  0
 25 29  2  0
 26 30  1  0
 27 31  2  0
 25 32  1  0
 30 33  2  0
 31 33  1  0
 32 34  2  0
 32 35  1  0
 34 36  1  0
 35 37  1  0
 36 37  2  0
M  END
