x0874_1-x0769_1
     RDKit          3D

 20 21  0  0  0  0  0  0  0  0999 V2000
    4.8550   -5.2100   25.7740 S   0  0  0  0  0  0  0  0  0  0  0  0
    3.7930   -3.8060   25.8750 C   0  0  0  0  0  0  0  0  0  0  0  0
    4.3230   -2.4840   25.9790 C   0  0  0  0  0  0  0  0  0  0  0  0
    5.8770   -5.0760   26.7800 O   0  0  0  0  0  0  0  0  0  0  0  0
    4.0420   -6.3970   25.6720 O   0  0  0  0  0  0  0  0  0  0  0  0
    2.4270   -4.0570   25.8530 C   0  0  0  0  0  0  0  0  0  0  0  0
    5.6810   -2.3520   25.9880 O   0  0  0  0  0  0  0  0  0  0  0  0
    1.5110   -2.9940   25.9370 C   0  0  0  0  0  0  0  0  0  0  0  0
    3.3870   -1.2860   26.0750 C   0  0  0  0  0  0  0  0  0  0  0  0
    6.2490   -1.0430   25.8040 C   0  0  0  0  0  0  0  0  0  0  0  0
    1.9100   -1.5620   26.0550 C   0  0  0  0  0  0  0  0  0  0  0  0
    7.5780   -1.0930   25.0390 C   0  0  0  0  0  0  0  0  0  0  0  0
    7.6420   -0.4750   23.7120 C   0  0  1  0  0  0  0  0  0  0  0  0
    7.9270    0.9010   23.7630 C   0  0  0  0  0  0  0  0  0  0  0  0
    8.8360   -1.0480   22.9520 C   0  0  0  0  0  0  0  0  0  0  0  0
    9.9580   -0.0520   23.2400 C   0  0  0  0  0  0  0  0  0  0  0  0
    9.2730    1.1440   23.4740 C   0  0  1  0  0  0  0  0  0  0  0  0
    9.3360    1.9970   22.2020 C   0  0  0  0  0  0  0  0  0  0  0  0
   10.0130    3.0840   22.3860 N   0  0  0  0  0  0  0  0  0  0  0  0
    8.8030    1.6620   21.1510 O   0  0  0  0  0  0  0  0  0  0  0  0
  1  2  1  0
  2  3  2  0
  1  4  2  0
  1  5  2  0
  2  6  1  0
  3  7  1  0
  6  8  2  0
  3  9  1  0
  7 10  1  0
  8 11  1  0
  9 11  2  0
 10 12  1  0
 13 12  1  1
 13 14  1  0
 13 15  1  0
 15 16  1  0
 14 17  1  0
 16 17  1  0
 17 18  1  6
 18 19  1  0
 18 20  2  0
M  END
