x0874_1-x0691_0
     RDKit          3D

 19 20  0  0  0  0  0  0  0  0999 V2000
    6.3660   -4.4920   20.6990 C   0  0  0  0  0  0  0  0  0  0  0  0
    7.5630   -3.6100   20.3420 C   0  0  0  0  0  0  0  0  0  0  0  0
    5.4050   -4.6260   19.9400 O   0  0  0  0  0  0  0  0  0  0  0  0
    6.4030   -5.1320   21.9180 N   0  0  0  0  0  0  0  0  0  0  0  0
    5.7480   -6.2150   22.1560 C   0  0  0  0  0  0  0  0  0  0  0  0
    6.8520   -4.3030   23.0750 C   0  0  1  0  0  0  0  0  0  0  0  0
    6.2180   -2.8960   23.0350 C   0  0  0  0  0  0  0  0  0  0  0  0
    4.7880   -5.9890   23.1360 C   0  0  0  0  0  0  0  0  0  0  0  0
    6.5430   -4.9000   24.2410 C   0  0  0  0  0  0  0  0  0  0  0  0
    7.0010   -1.8790   23.8390 C   0  0  0  0  0  0  0  0  0  0  0  0
    5.1590   -5.3580   24.2640 N   0  0  0  0  0  0  0  0  0  0  0  0
    7.6660   -0.7740   23.0860 C   0  0  1  0  0  0  0  0  0  0  0  0
    7.7430    0.7010   23.4590 C   0  0  0  0  0  0  0  0  0  0  0  0
    9.0340   -1.3140   22.8220 C   0  0  0  0  0  0  0  0  0  0  0  0
    9.9090   -0.0930   23.0970 C   0  0  0  0  0  0  0  0  0  0  0  0
    9.0360    1.0210   23.1960 C   0  0  1  0  0  0  0  0  0  0  0  0
    9.1940    1.9070   22.0830 C   0  0  0  0  0  0  0  0  0  0  0  0
   10.0290    3.0910   22.3970 N   0  0  0  0  0  0  0  0  0  0  0  0
    8.6820    1.6770   20.9930 O   0  0  0  0  0  0  0  0  0  0  0  0
  1  2  1  0
  1  3  2  0
  1  4  1  0
  4  5  1  0
  4  6  1  0
  6  7  1  1
  5  8  1  0
  6  9  1  0
  7 10  1  0
  8 11  1  0
  9 11  1  0
 12 10  1  1
 12 13  1  0
 12 14  1  0
 14 15  1  0
 13 16  1  0
 15 16  1  0
 16 17  1  6
 17 18  1  0
 17 19  2  0
M  END
