x0874_1-x0689_1
     RDKit          3D

 19 20  0  0  0  0  0  0  0  0999 V2000
    6.3560   -4.4140   20.6600 C   0  0  0  0  0  0  0  0  0  0  0  0
    7.5430   -3.5140   20.3060 C   0  0  0  0  0  0  0  0  0  0  0  0
    5.3920   -4.5640   19.9080 O   0  0  0  0  0  0  0  0  0  0  0  0
    6.3860   -5.0420   21.8870 N   0  0  0  0  0  0  0  0  0  0  0  0
    5.6510   -6.2870   22.1640 C   0  0  0  0  0  0  0  0  0  0  0  0
    6.7500   -4.2130   23.0530 C   0  0  1  0  0  0  0  0  0  0  0  0
    6.2470   -2.7530   22.9020 C   0  0  0  0  0  0  0  0  0  0  0  0
    4.7590   -6.0850   23.2030 C   0  0  0  0  0  0  0  0  0  0  0  0
    6.3170   -4.7220   24.2200 C   0  0  0  0  0  0  0  0  0  0  0  0
    7.0050   -1.7120   23.7460 C   0  0  0  0  0  0  0  0  0  0  0  0
    4.8880   -5.1350   24.1370 N   0  0  0  0  0  0  0  0  0  0  0  0
    7.8310   -0.7550   22.8600 C   0  0  1  0  0  0  0  0  0  0  0  0
    7.8000    0.5530   23.3570 C   0  0  0  0  0  0  0  0  0  0  0  0
    9.1310   -1.2340   22.7410 C   0  0  0  0  0  0  0  0  0  0  0  0
    9.9890   -0.0310   23.1220 C   0  0  0  0  0  0  0  0  0  0  0  0
    9.0730    0.9880   23.3340 C   0  0  1  0  0  0  0  0  0  0  0  0
    9.2160    1.9290   22.1430 C   0  0  0  0  0  0  0  0  0  0  0  0
   10.0230    3.1420   22.3920 N   0  0  0  0  0  0  0  0  0  0  0  0
    8.7250    1.7310   21.0310 O   0  0  0  0  0  0  0  0  0  0  0  0
  1  2  1  0
  1  3  2  0
  1  4  1  0
  4  5  1  0
  4  6  1  0
  6  7  1  6
  5  8  1  0
  6  9  1  0
  7 10  1  0
  8 11  1  0
  9 11  1  0
 12 10  1  1
 12 13  1  0
 12 14  1  0
 14 15  1  0
 13 16  1  0
 15 16  1  0
 16 17  1  6
 17 18  1  0
 17 19  2  0
M  END
