x0874_1-x1425_1
     RDKit          3D

 18 19  0  0  0  0  0  0  0  0999 V2000
    6.2200   -4.1180   20.2230 C   0  0  0  0  0  0  0  0  0  0  0  0
    7.0610   -3.2610   19.2990 C   0  0  0  0  0  0  0  0  0  0  0  0
    5.1560   -4.5800   19.8670 O   0  0  0  0  0  0  0  0  0  0  0  0
    6.7450   -4.4330   21.4810 N   0  0  0  0  0  0  0  0  0  0  0  0
    7.2440   -3.3150   22.2660 C   0  0  0  0  0  0  0  0  0  0  0  0
    6.2590   -5.5660   22.2550 C   0  0  0  0  0  0  0  0  0  0  0  0
    6.2860   -2.8370   23.1560 C   0  0  2  0  0  0  0  0  0  0  0  0
    5.4130   -5.0960   23.2770 C   0  0  0  0  0  0  0  0  0  0  0  0
    6.7130   -1.6080   23.9600 C   0  0  0  0  0  0  0  0  0  0  0  0
    5.8060   -3.9090   24.0380 N   0  0  0  0  0  0  0  0  0  0  0  0
    7.4940   -0.6830   23.0580 C   0  0  1  0  0  0  0  0  0  0  0  0
    7.7220    0.6520   23.4360 C   0  0  0  0  0  0  0  0  0  0  0  0
    8.8830   -1.2690   22.8420 C   0  0  0  0  0  0  0  0  0  0  0  0
    9.7600   -0.1200   23.2540 C   0  0  0  0  0  0  0  0  0  0  0  0
    9.0530    1.0530   23.3560 C   0  0  1  0  0  0  0  0  0  0  0  0
    9.4190    2.1710   22.4240 C   0  0  0  0  0  0  0  0  0  0  0  0
   10.0340    3.4690   22.1530 N   0  0  0  0  0  0  0  0  0  0  0  0
    8.9590    1.7820   21.3430 O   0  0  0  0  0  0  0  0  0  0  0  0
  1  2  1  0
  1  3  2  0
  1  4  1  0
  4  5  1  0
  4  6  1  0
  5  7  1  0
  6  8  1  0
  7  9  1  1
  7 10  1  0
  8 10  1  0
 11  9  1  1
 11 12  1  0
 11 13  1  0
 13 14  1  0
 12 15  1  0
 14 15  1  0
 15 16  1  6
 16 17  1  0
 16 18  2  0
M  END
