x0874_0-x0736_1-x0770_1-x1385_1-x1412_0-x1386_0-x0434_2-x1412_1-x1334_1
     RDKit          3D

 32 36  0  0  0  0  0  0  0  0999 V2000
    6.4000   -3.4260   19.9200 C   0  0  0  0  0  0  0  0  0  0  0  0
    7.4100   -3.0710   18.8370 C   0  0  0  0  0  0  0  0  0  0  0  0
    5.4230   -4.1470   19.7190 O   0  0  0  0  0  0  0  0  0  0  0  0
    6.6530   -2.9140   21.1750 N   0  0  0  0  0  0  0  0  0  0  0  0
    7.7180   -1.9140   21.3910 C   0  0  1  0  0  0  0  0  0  0  0  0
    6.2770   -3.8100   22.2880 C   0  0  0  0  0  0  0  0  0  0  0  0
    7.1330   -0.5340   21.4410 N   0  0  0  0  0  0  0  0  0  0  0  0
    8.6840   -2.2940   22.5370 C   0  0  0  0  0  0  0  0  0  0  0  0
    7.4140   -4.0610   23.3060 C   0  0  0  0  0  0  0  0  0  0  0  0
    8.0580   -2.7970   23.6280 N   0  0  0  0  0  0  0  0  0  0  0  0
    6.4490    0.0700   20.3610 C   0  0  0  0  0  0  0  0  0  0  0  0
    8.7520   -2.6360   24.7940 C   0  0  2  0  0  0  0  0  0  0  0  0
    6.9770   -0.0440   18.9550 C   0  0  0  0  0  0  0  0  0  0  0  0
    5.2730    0.8030   20.4880 C   0  0  0  0  0  0  0  0  0  0  0  0
    8.2150   -1.5210   25.5140 O   0  0  0  0  0  0  0  0  0  0  0  0
   10.2610   -2.5090   24.7390 C   0  0  0  0  0  0  0  0  0  0  0  0
    8.6560   -3.6790   25.6160 C   0  0  0  0  0  0  0  0  0  0  0  0
    6.4280    0.5020   17.8470 N   0  0  0  0  0  0  0  0  0  0  0  0
    4.5600    1.4660   19.2500 C   0  0  0  0  0  0  0  0  0  0  0  0
    9.4950   -4.9500   25.5050 C   0  0  0  0  0  0  0  0  0  0  0  0
    7.6260   -3.9030   27.0290 S   0  0  0  0  0  0  0  0  0  0  0  0
   10.9780   -1.3220   24.1210 C   0  0  0  0  0  0  0  0  0  0  0  0
    5.2960    1.2130   17.9640 C   0  0  0  0  0  0  0  0  0  0  0  0
    9.2020   -5.9430   26.5820 C   0  0  0  0  0  0  0  0  0  0  0  0
    8.2100   -5.4840   27.4660 C   0  0  0  0  0  0  0  0  0  0  0  0
   12.3690   -1.4590   23.7910 C   0  0  0  0  0  0  0  0  0  0  0  0
   10.4820   -0.0320   23.8380 C   0  0  0  0  0  0  0  0  0  0  0  0
   13.0890   -0.2740   23.0860 C   0  0  2  0  0  0  0  0  0  0  0  0
   11.7820    0.7440   23.1880 S   0  0  0  0  0  0  0  0  0  0  0  0
   11.5100   -0.9760   23.6620 C   0  0  0  0  0  0  0  0  0  0  0  0
   13.1810   -1.3000   21.6240 S   0  0  0  0  0  0  0  0  0  0  0  0
   12.1910   -2.0190   22.7900 C   0  0  0  0  0  0  0  0  0  0  0  0
  1  2  1  0
  1  3  2  0
  1  4  1  0
  4  5  1  0
  4  6  1  0
  5  7  1  1
  5  8  1  0
  6  9  1  0
  8 10  1  0
  9 10  1  0
  7 11  1  0
 10 12  1  0
 11 13  2  0
 11 14  1  0
 12 15  1  1
 12 16  1  0
 12 17  1  0
 13 18  1  0
 14 19  2  0
 17 20  2  0
 17 21  1  0
 16 22  1  0
 18 23  2  0
 19 23  1  0
 20 24  1  0
 21 25  1  0
 24 25  2  0
 22 26  2  0
 22 27  1  0
 28 26  1  1
 27 29  2  0
 28 29  1  0
 29 30  1  0
 28 31  1  0
 30 32  2  0
 31 32  1  0
M  END
