x0874_0-x0820_1-x0540_3-x0434_2
     RDKit          3D

 33 37  0  0  0  0  0  0  0  0999 V2000
    5.0320    0.2480   21.8630 C   0  0  2  0  0  0  0  0  0  0  0  0
    5.3120    1.5450   22.5900 C   0  0  0  0  0  0  0  0  0  0  0  0
    4.2130    2.4810   22.6960 N   0  0  0  0  0  0  0  0  0  0  0  0
    5.8080   -0.8770   22.5900 C   0  0  0  0  0  0  0  0  0  0  0  0
    5.4350    0.4300   20.3970 C   0  0  0  0  0  0  0  0  0  0  0  0
    6.7650   -1.7350   21.7230 C   0  0  2  0  0  0  0  0  0  0  0  0
    6.6180   -0.1130   19.9330 C   0  0  0  0  0  0  0  0  0  0  0  0
    4.6610    1.1370   19.4700 C   0  0  0  0  0  0  0  0  0  0  0  0
    2.9810    2.1400   23.4260 C   0  0  0  0  0  0  0  0  0  0  0  0
    7.8780   -2.5540   22.4360 C   0  0  2  0  0  0  0  0  0  0  0  0
    7.4990   -0.8610   20.8290 N   0  0  0  0  0  0  0  0  0  0  0  0
    6.9780    0.0420   18.6270 C   0  0  0  0  0  0  0  0  0  0  0  0
    5.1170    1.2520   18.1460 C   0  0  0  0  0  0  0  0  0  0  0  0
    2.9170    1.4610   24.4460 O   0  0  0  0  0  0  0  0  0  0  0  0
    7.5070   -3.9650   22.9430 C   0  0  0  0  0  0  0  0  0  0  0  0
    8.5920   -1.8110   23.3690 C   0  0  0  0  0  0  0  0  0  0  0  0
    6.2610    0.7120   17.7130 N   0  0  0  0  0  0  0  0  0  0  0  0
    9.9610   -1.9630   23.1860 C   0  0  0  0  0  0  0  0  0  0  0  0
    6.4650   -4.1300   24.0210 C   0  0  0  0  0  0  0  0  0  0  0  0
    6.9240   -4.2380   25.3190 C   0  0  0  0  0  0  0  0  0  0  0  0
    5.0880   -4.1780   23.6890 C   0  0  0  0  0  0  0  0  0  0  0  0
   10.7160   -0.8580   23.3930 C   0  0  0  0  0  0  0  0  0  0  0  0
    5.9200   -4.4110   26.4100 C   0  0  0  0  0  0  0  0  0  0  0  0
    3.9600   -4.3560   24.7540 C   0  0  0  0  0  0  0  0  0  0  0  0
    8.2920   -4.1910   25.6190 C   0  0  0  0  0  0  0  0  0  0  0  0
   11.7230    0.1570   23.4300 C   0  0  0  0  0  0  0  0  0  0  0  0
   11.6640   -1.7250   22.4700 C   0  0  0  0  0  0  0  0  0  0  0  0
    4.4010   -4.4770   26.1780 C   0  0  0  0  0  0  0  0  0  0  0  0
    8.7420   -4.3050   26.9430 C   0  0  0  0  0  0  0  0  0  0  0  0
    6.4750   -4.5240   27.7980 C   0  0  0  0  0  0  0  0  0  0  0  0
   12.8930    0.1080   22.8320 C   0  0  0  0  0  0  0  0  0  0  0  0
   13.2390   -1.3220   21.9120 S   0  0  0  0  0  0  0  0  0  0  0  0
    7.8540   -4.4690   28.0170 C   0  0  0  0  0  0  0  0  0  0  0  0
  1  2  1  1
  2  3  1  0
  1  4  1  0
  1  5  1  0
  6  4  1  1
  5  7  2  0
  5  8  1  0
  3  9  1  0
  6 10  1  0
  6 11  1  0
  7 11  1  0
  7 12  1  0
  8 13  2  0
  9 14  2  0
 10 15  1  1
 10 16  1  0
 12 17  2  0
 13 17  1  0
 16 18  1  0
 15 19  1  0
 19 20  1  0
 19 21  2  0
 18 22  1  0
 20 23  2  0
 21 24  1  0
 20 25  1  0
 22 26  1  0
 22 27  2  0
 23 28  1  0
 24 28  2  0
 25 29  2  0
 23 30  1  0
 26 31  2  0
 27 32  1  0
 31 32  1  0
 29 33  1  0
 30 33  2  0
M  END
