x0874_0-x1348_1-x0072_0
     RDKit          3D

 21 24  0  0  0  0  0  0  0  0999 V2000
    7.8540   -3.6420   24.6390 N   0  0  0  0  0  0  0  0  0  0  0  0
    7.9030   -4.6690   26.1580 S   0  0  0  0  0  0  0  0  0  0  0  0
    8.7670   -5.8100   25.9210 O   0  0  0  0  0  0  0  0  0  0  0  0
    9.1760   -3.2610   24.1090 C   0  0  0  0  0  0  0  0  0  0  0  0
    6.8850   -4.3020   23.7130 N   0  0  0  0  0  0  0  0  0  0  0  0
    8.1250   -3.7970   27.2910 O   0  0  0  0  0  0  0  0  0  0  0  0
    9.1590   -1.7640   24.0670 C   0  0  0  0  0  0  0  0  0  0  0  0
    6.9810   -4.6130   22.4000 C   0  0  0  0  0  0  0  0  0  0  0  0
    6.1570   -5.3220   24.4230 C   0  0  1  0  0  0  0  0  0  0  0  0
    6.1560   -5.0030   25.8990 C   0  0  1  0  0  0  0  0  0  0  0  0
    9.6530   -1.2130   22.7230 C   0  0  0  0  0  0  0  0  0  0  0  0
    4.8530   -5.5420   23.8340 C   0  0  1  0  0  0  0  0  0  0  0  0
    5.4940   -5.6110   22.1230 S   0  0  0  0  0  0  0  0  0  0  0  0
    5.4300   -6.1080   26.6180 C   0  0  0  0  0  0  0  0  0  0  0  0
    4.5610   -6.9070   25.9530 C   0  0  0  0  0  0  0  0  0  0  0  0
    4.2480   -6.7980   24.4510 C   0  0  0  0  0  0  0  0  0  0  0  0
   10.7560   -0.2390   22.9250 C   0  0  0  0  0  0  0  0  0  0  0  0
   11.9570    0.5620   23.0370 C   0  0  0  0  0  0  0  0  0  0  0  0
   11.4620   -1.3510   22.3300 C   0  0  0  0  0  0  0  0  0  0  0  0
   13.3000    0.1090   22.6000 C   0  0  0  0  0  0  0  0  0  0  0  0
   13.1440   -1.4150   21.9930 S   0  0  0  0  0  0  0  0  0  0  0  0
  2  1  1  0
  2  3  2  0
  1  4  1  0
  1  5  1  0
  2  6  2  0
  4  7  1  0
  5  8  1  0
  9  5  1  6
  2 10  1  0
  9 10  1  0
  7 11  1  0
  9 12  1  0
  8 13  2  0
 12 13  1  0
 10 14  1  1
 14 15  2  0
 12 16  1  1
 15 16  1  0
 11 17  1  0
 17 18  1  0
 17 19  2  0
 18 20  2  0
 19 21  1  0
 20 21  1  0
M  END
