x0874_0-x0736_1-x0770_1-x1412_0
     RDKit          3D

 23 25  0  0  0  0  0  0  0  0999 V2000
    6.3670   -3.3360   19.8770 C   0  0  0  0  0  0  0  0  0  0  0  0
    7.3870   -3.0260   18.7890 C   0  0  0  0  0  0  0  0  0  0  0  0
    5.3970   -4.0640   19.6700 O   0  0  0  0  0  0  0  0  0  0  0  0
    6.5730   -2.7940   21.1240 N   0  0  0  0  0  0  0  0  0  0  0  0
    7.6150   -1.7990   21.4130 C   0  0  0  0  0  0  0  0  0  0  0  0
    6.0470   -3.5800   22.2480 C   0  0  0  0  0  0  0  0  0  0  0  0
    8.6650   -2.3610   22.3230 C   0  0  0  0  0  0  0  0  0  0  0  0
    7.0270   -3.9850   23.1210 C   0  0  0  0  0  0  0  0  0  0  0  0
    8.0090   -2.9760   23.4640 N   0  0  0  0  0  0  0  0  0  0  0  0
    8.4290   -2.8400   24.8170 C   0  0  0  0  0  0  0  0  0  0  0  0
    8.7490   -1.4570   25.2480 N   0  0  0  0  0  0  0  0  0  0  0  0
    8.5700   -3.9760   25.7880 C   0  0  0  0  0  0  0  0  0  0  0  0
    8.5570   -0.5860   24.0860 C   0  0  0  0  0  0  0  0  0  0  0  0
    9.4250   -5.2150   25.5370 C   0  0  0  0  0  0  0  0  0  0  0  0
    7.7890   -4.0510   27.3480 S   0  0  0  0  0  0  0  0  0  0  0  0
    9.7530    0.3510   23.9200 C   0  0  0  0  0  0  0  0  0  0  0  0
    9.3550   -6.0590   26.5970 C   0  0  0  0  0  0  0  0  0  0  0  0
    8.4670   -5.5580   27.7270 C   0  0  0  0  0  0  0  0  0  0  0  0
   11.0190   -0.1670   23.2330 C   0  0  0  0  0  0  0  0  0  0  0  0
   12.1500    0.6160   23.3150 C   0  0  0  0  0  0  0  0  0  0  0  0
   11.2900   -1.3310   22.4960 C   0  0  0  0  0  0  0  0  0  0  0  0
   13.2610    0.1100   22.6830 C   0  0  0  0  0  0  0  0  0  0  0  0
   12.9280   -1.4010   21.9550 S   0  0  0  0  0  0  0  0  0  0  0  0
  1  2  1  0
  1  3  2  0
  1  4  1  0
  4  5  1  0
  4  6  1  0
  5  7  1  0
  6  8  1  0
  7  9  1  0
  8  9  1  0
  9 10  1  0
 10 11  2  3
 10 12  1  0
 11 13  1  0
 12 14  2  0
 12 15  1  0
 13 16  1  0
 14 17  1  0
 15 18  1  0
 17 18  2  0
 16 19  1  0
 19 20  1  0
 19 21  2  0
 20 22  2  0
 21 23  1  0
 22 23  1  0
M  END
