x0874_0-x1336_1-x0107_0-x1308_0
     RDKit          3D

 39 42  0  0  0  0  0  0  0  0999 V2000
    6.9300   -2.1060   25.4900 S   0  0  1  0  0  0  0  0  0  0  0  0
    7.8190   -0.9150   25.8380 N   0  0  0  0  0  0  0  0  0  0  0  0
    9.0830   -0.8930   25.1640 C   0  0  0  0  0  0  0  0  0  0  0  0
    5.5030   -2.0850   25.6940 O   0  0  0  0  0  0  0  0  0  0  0  0
    7.0930   -2.5720   23.8020 C   0  0  0  0  0  0  0  0  0  0  0  0
    7.5260   -3.4400   26.3650 C   0  0  0  0  0  0  0  0  0  0  0  0
    6.7110   -3.9380   27.3710 C   0  0  0  0  0  0  0  0  0  0  0  0
    8.7820   -4.0890   26.1450 C   0  0  0  0  0  0  0  0  0  0  0  0
    6.6570   -3.9260   23.2940 C   0  0  2  0  0  0  0  0  0  0  0  0
    9.8450   -3.7590   25.1270 C   0  0  0  0  0  0  0  0  0  0  0  0
    9.0310   -1.0510   23.6610 C   0  0  0  0  0  0  0  0  0  0  0  0
    7.0590   -5.0120   28.1490 C   0  0  0  0  0  0  0  0  0  0  0  0
    9.1310   -5.1920   26.9540 C   0  0  0  0  0  0  0  0  0  0  0  0
    5.8900   -4.7870   24.1800 N   0  0  0  0  0  0  0  0  0  0  0  0
    7.6350   -4.5970   22.6130 C   0  0  0  0  0  0  0  0  0  0  0  0
    6.1930   -5.5710   29.2290 C   0  0  0  0  0  0  0  0  0  0  0  0
    9.5970    0.0210   22.8630 C   0  0  2  0  0  0  0  0  0  0  0  0
    8.2680   -5.6470   27.9510 C   0  0  0  0  0  0  0  0  0  0  0  0
    6.8460   -5.3400   21.6580 N   0  0  0  0  0  0  0  0  0  0  0  0
    5.2100   -5.8410   23.3900 C   0  0  0  0  0  0  0  0  0  0  0  0
    8.8370    0.5090   21.6490 C   0  0  0  0  0  0  0  0  0  0  0  0
    6.4520   -4.6060   20.5290 C   0  0  0  0  0  0  0  0  0  0  0  0
    5.9760   -6.3400   22.3030 C   0  0  0  0  0  0  0  0  0  0  0  0
   11.0170   -0.2690   22.6490 C   0  0  0  0  0  0  0  0  0  0  0  0
    9.0730    1.6080   21.1390 O   0  0  0  0  0  0  0  0  0  0  0  0
    7.7880   -0.4150   21.1530 N   0  0  0  0  0  0  0  0  0  0  0  0
    7.3660   -3.5130   19.9520 C   0  0  0  0  0  0  0  0  0  0  0  0
    5.3770   -4.8260   19.9850 O   0  0  0  0  0  0  0  0  0  0  0  0
   12.0900    0.5840   22.9670 C   0  0  0  0  0  0  0  0  0  0  0  0
   11.5170   -1.5640   22.0380 C   0  0  0  0  0  0  0  0  0  0  0  0
    6.8830   -0.0220   20.0970 C   0  0  0  0  0  0  0  0  0  0  0  0
   13.3050    0.0740   22.6540 C   0  0  0  0  0  0  0  0  0  0  0  0
   13.3070   -1.4930   21.9530 S   0  0  0  0  0  0  0  0  0  0  0  0
    5.7250    0.6420   20.5310 C   0  0  0  0  0  0  0  0  0  0  0  0
    7.0880   -0.2380   18.7630 C   0  0  0  0  0  0  0  0  0  0  0  0
    5.5760    0.8250   22.0100 C   0  0  0  0  0  0  0  0  0  0  0  0
    4.7760    1.1020   19.5980 C   0  0  0  0  0  0  0  0  0  0  0  0
    6.2440    0.1650   17.8150 N   0  0  0  0  0  0  0  0  0  0  0  0
    5.0470    0.8620   18.2340 C   0  0  0  0  0  0  0  0  0  0  0  0
  1  2  2  0
  2  3  1  0
  1  4  2  0
  1  5  1  6
  1  6  1  0
  6  7  2  0
  6  8  1  0
  9  5  1  1
  8 10  1  0
  3 11  1  0
  7 12  1  0
  8 13  2  0
  9 14  1  0
  9 15  1  0
 12 16  1  0
 17 11  1  6
 12 18  2  0
 13 18  1  0
 15 19  1  0
 14 20  1  0
 17 21  1  0
 19 22  1  0
 19 23  1  0
 20 23  1  0
 17 24  1  0
 21 25  2  0
 21 26  1  0
 22 27  1  0
 22 28  2  0
 24 29  1  0
 24 30  2  0
 26 31  1  0
 29 32  2  0
 30 33  1  0
 32 33  1  0
 31 34  2  0
 31 35  1  0
 34 36  1  0
 34 37  1  0
 35 38  2  0
 37 39  2  0
 38 39  1  0
M  END
