x0874_0-x1386_1-x1412_0
     RDKit          3D

 22 24  0  0  0  0  0  0  0  0999 V2000
    6.3340   -3.1700   19.7880 C   0  0  0  0  0  0  0  0  0  0  0  0
    7.3620   -2.9450   18.6940 C   0  0  0  0  0  0  0  0  0  0  0  0
    5.3850   -3.9460   19.6380 O   0  0  0  0  0  0  0  0  0  0  0  0
    6.5120   -2.4870   21.0010 N   0  0  0  0  0  0  0  0  0  0  0  0
    7.4420   -1.3660   21.0080 C   0  0  0  0  0  0  0  0  0  0  0  0
    6.5480   -3.2640   22.2180 C   0  0  0  0  0  0  0  0  0  0  0  0
    7.9500   -1.0700   22.4220 C   0  0  0  0  0  0  0  0  0  0  0  0
    7.8430   -3.5410   22.5920 C   0  0  0  0  0  0  0  0  0  0  0  0
    8.5780   -2.3010   23.1300 C   0  0  0  0  0  0  0  0  0  0  0  0
    8.3990   -2.4060   24.6880 C   0  0  0  0  0  0  0  0  0  0  0  0
   10.0520   -2.3320   22.7590 C   0  0  0  0  0  0  0  0  0  0  0  0
    7.9510   -1.1850   25.2670 O   0  0  0  0  0  0  0  0  0  0  0  0
    8.6220   -3.6310   25.4750 C   0  0  0  0  0  0  0  0  0  0  0  0
   10.7970   -1.0430   22.9960 C   0  0  0  0  0  0  0  0  0  0  0  0
    9.4970   -4.8600   25.2100 C   0  0  0  0  0  0  0  0  0  0  0  0
    7.7790   -3.7870   26.9930 S   0  0  0  0  0  0  0  0  0  0  0  0
   11.8010    0.1520   23.0970 C   0  0  0  0  0  0  0  0  0  0  0  0
   11.7420   -1.8370   22.2940 C   0  0  0  0  0  0  0  0  0  0  0  0
    9.3910   -5.7550   26.2340 C   0  0  0  0  0  0  0  0  0  0  0  0
    8.4440   -5.3210   27.3680 C   0  0  0  0  0  0  0  0  0  0  0  0
   13.0990    0.1100   22.5900 C   0  0  0  0  0  0  0  0  0  0  0  0
   13.3180   -1.3640   21.8830 S   0  0  0  0  0  0  0  0  0  0  0  0
  1  2  1  0
  1  3  2  0
  1  4  1  0
  4  5  1  0
  4  6  1  0
  5  7  1  0
  6  8  1  0
  7  9  1  0
  8  9  1  0
  9 10  1  0
  9 11  1  0
 10 12  2  0
 10 13  1  0
 11 14  1  0
 13 15  2  0
 13 16  1  0
 14 17  1  0
 14 18  2  0
 15 19  1  0
 16 20  1  0
 19 20  2  0
 17 21  2  0
 18 22  1  0
 21 22  1  0
M  END
