x0874_0-x0820_1-x0107_0-x0540_3-x1412_0
     RDKit          3D

 39 43  0  0  0  0  0  0  0  0999 V2000
    9.4530   -0.1390   22.9940 C   0  0  0  0  0  0  0  0  0  0  0  0
    8.7460    0.3740   21.7330 C   0  0  0  0  0  0  0  0  0  0  0  0
    9.0610    1.4490   21.1990 O   0  0  0  0  0  0  0  0  0  0  0  0
   10.9100   -0.3590   22.7520 C   0  0  0  0  0  0  0  0  0  0  0  0
    7.6950   -0.5880   21.3370 N   0  0  0  0  0  0  0  0  0  0  0  0
   11.8920    0.5310   23.0720 C   0  0  0  0  0  0  0  0  0  0  0  0
   11.4730   -1.4920   22.1630 C   0  0  0  0  0  0  0  0  0  0  0  0
    7.7890   -2.0550   21.4730 C   0  0  0  0  0  0  0  0  0  0  0  0
    6.8220   -0.1150   20.2560 C   0  0  0  0  0  0  0  0  0  0  0  0
   13.2070    0.1540   22.7570 C   0  0  0  0  0  0  0  0  0  0  0  0
   13.1820   -1.4080   22.0290 S   0  0  0  0  0  0  0  0  0  0  0  0
    7.7780   -2.6310   22.9040 C   0  0  1  0  0  0  0  0  0  0  0  0
    5.5900    0.4850   20.6730 C   0  0  0  0  0  0  0  0  0  0  0  0
    7.1150   -0.2080   18.8070 C   0  0  0  0  0  0  0  0  0  0  0  0
    5.1970    0.6030   22.1090 C   0  0  0  0  0  0  0  0  0  0  0  0
    7.3880   -4.1270   22.9570 C   0  0  0  0  0  0  0  0  0  0  0  0
    9.2030   -2.5320   23.4540 C   0  0  0  0  0  0  0  0  0  0  0  0
    4.7530    0.9620   19.6820 C   0  0  0  0  0  0  0  0  0  0  0  0
    6.3200    0.2500   17.8350 N   0  0  0  0  0  0  0  0  0  0  0  0
    5.3300    1.9860   22.7200 C   0  0  0  0  0  0  0  0  0  0  0  0
    9.0340   -2.0280   24.8740 C   0  0  0  0  0  0  0  0  0  0  0  0
    5.1810    0.8200   18.2190 C   0  0  0  0  0  0  0  0  0  0  0  0
    6.3350   -4.5320   24.0180 C   0  0  1  0  0  0  0  0  0  0  0  0
    4.0600    2.7310   22.7160 N   0  0  0  0  0  0  0  0  0  0  0  0
    8.1110   -1.2930   25.2220 O   0  0  0  0  0  0  0  0  0  0  0  0
    6.8870   -4.8340   25.4620 C   0  0  2  0  0  0  0  0  0  0  0  0
    5.1970   -3.7470   23.8370 C   0  0  0  0  0  0  0  0  0  0  0  0
    2.8900    2.2460   23.4660 C   0  0  0  0  0  0  0  0  0  0  0  0
    5.7280   -5.2150   26.4570 C   0  0  2  0  0  0  0  0  0  0  0  0
    4.1400   -4.0980   24.8260 C   0  0  0  0  0  0  0  0  0  0  0  0
    8.0230   -4.0630   25.8810 C   0  0  1  0  0  0  0  0  0  0  0  0
    2.9790    1.4970   24.4360 O   0  0  0  0  0  0  0  0  0  0  0  0
    4.4240   -4.8280   26.1300 C   0  0  0  0  0  0  0  0  0  0  0  0
    8.3230   -4.1640   27.2790 C   0  0  1  0  0  0  0  0  0  0  0  0
    5.9750   -4.4700   27.7120 C   0  0  0  0  0  0  0  0  0  0  0  0
    9.1120   -4.6430   25.2450 C   0  0  0  0  0  0  0  0  0  0  0  0
    7.1870   -3.9860   28.0870 C   0  0  0  0  0  0  0  0  0  0  0  0
    9.6110   -5.5580   26.1320 C   0  0  0  0  0  0  0  0  0  0  0  0
    8.8440   -5.4840   27.2990 C   0  0  0  0  0  0  0  0  0  0  0  0
  1  2  1  0
  2  3  2  0
  1  4  1  0
  2  5  1  0
  4  6  1  0
  4  7  2  0
  5  8  1  0
  5  9  1  0
  6 10  2  0
  7 11  1  0
 10 11  1  0
 12  8  1  6
  9 13  2  0
  9 14  1  0
 13 15  1  0
 12 16  1  0
 12 17  1  0
 13 18  1  0
 14 19  2  0
 15 20  1  0
 17 21  1  0
 18 22  2  0
 19 22  1  0
 23 16  1  6
 20 24  1  0
 21 25  2  0
 26 23  1  6
 23 27  1  0
 24 28  1  0
 26 29  1  0
 27 30  1  0
 26 31  1  0
 28 32  2  0
 29 33  1  6
 30 33  2  0
 31 34  1  0
 29 35  1  0
 31 36  1  6
 34 37  1  1
 35 37  2  0
 36 38  2  0
 34 39  1  0
 38 39  1  0
M  END
