x0874_0-x1412_0-x0692_1
     RDKit          3D

 23 25  0  0  0  0  0  0  0  0999 V2000
    6.2360   -3.2490   19.8320 C   0  0  0  0  0  0  0  0  0  0  0  0
    7.2590   -2.9810   18.7390 C   0  0  0  0  0  0  0  0  0  0  0  0
    5.3610   -4.1060   19.7150 O   0  0  0  0  0  0  0  0  0  0  0  0
    6.3710   -2.4930   20.9910 N   0  0  0  0  0  0  0  0  0  0  0  0
    7.4640   -1.5140   21.1810 C   0  0  0  0  0  0  0  0  0  0  0  0
    5.9930   -3.1850   22.2190 C   0  0  0  0  0  0  0  0  0  0  0  0
    8.6560   -2.0690   22.0680 C   0  0  0  0  0  0  0  0  0  0  0  0
    7.1480   -3.9270   22.8090 C   0  0  0  0  0  0  0  0  0  0  0  0
    8.1880   -2.9570   23.1610 N   0  0  0  0  0  0  0  0  0  0  0  0
    8.4240   -2.7240   24.5080 C   0  0  0  0  0  0  0  0  0  0  0  0
    8.5730   -1.3870   25.0760 N   0  0  0  0  0  0  0  0  0  0  0  0
    8.5490   -3.8600   25.5490 C   0  0  0  0  0  0  0  0  0  0  0  0
    8.4750   -0.4280   23.9990 C   0  0  0  0  0  0  0  0  0  0  0  0
    9.3600   -4.9490   25.3460 C   0  0  0  0  0  0  0  0  0  0  0  0
    7.7410   -3.9820   27.1030 S   0  0  0  0  0  0  0  0  0  0  0  0
    9.6900    0.4860   23.9320 C   0  0  0  0  0  0  0  0  0  0  0  0
    9.3370   -5.8490   26.3950 C   0  0  0  0  0  0  0  0  0  0  0  0
    8.4940   -5.4860   27.4690 C   0  0  0  0  0  0  0  0  0  0  0  0
   10.9780   -0.0070   23.2820 C   0  0  0  0  0  0  0  0  0  0  0  0
   12.1890    0.7680   23.2910 C   0  0  0  0  0  0  0  0  0  0  0  0
   11.2370   -1.2150   22.5970 C   0  0  0  0  0  0  0  0  0  0  0  0
   13.3250    0.1380   22.6180 C   0  0  0  0  0  0  0  0  0  0  0  0
   12.8630   -1.3840   22.0090 S   0  0  0  0  0  0  0  0  0  0  0  0
  1  2  1  0
  1  3  2  0
  1  4  1  0
  4  5  1  0
  4  6  1  0
  5  7  1  0
  6  8  1  0
  7  9  1  0
  8  9  1  0
  9 10  1  0
 10 11  2  3
 10 12  1  0
 11 13  1  0
 12 14  2  0
 12 15  1  0
 13 16  1  0
 14 17  1  0
 15 18  1  0
 17 18  2  0
 16 19  1  0
 19 20  1  0
 19 21  2  0
 20 22  2  0
 21 23  1  0
 22 23  1  0
M  END
