x0874_0-x1412_0-x1334_1
     RDKit          3D

 23 25  0  0  0  0  0  0  0  0999 V2000
    6.2740   -3.2740   19.8460 C   0  0  0  0  0  0  0  0  0  0  0  0
    7.2170   -2.9630   18.7060 C   0  0  0  0  0  0  0  0  0  0  0  0
    5.3460   -4.0700   19.6690 O   0  0  0  0  0  0  0  0  0  0  0  0
    6.4720   -2.6990   21.0850 N   0  0  0  0  0  0  0  0  0  0  0  0
    7.5870   -1.7360   21.2660 C   0  0  0  0  0  0  0  0  0  0  0  0
    6.0170   -3.3720   22.3100 C   0  0  0  0  0  0  0  0  0  0  0  0
    8.6970   -2.2220   22.2420 C   0  0  0  0  0  0  0  0  0  0  0  0
    7.1920   -3.9590   23.0800 C   0  0  0  0  0  0  0  0  0  0  0  0
    8.1140   -2.8910   23.4210 N   0  0  0  0  0  0  0  0  0  0  0  0
    8.5480   -2.7260   24.7300 C   0  0  0  0  0  0  0  0  0  0  0  0
    8.9900   -1.4360   25.3440 N   0  0  0  0  0  0  0  0  0  0  0  0
    8.6270   -3.8810   25.6750 C   0  0  0  0  0  0  0  0  0  0  0  0
    9.0890   -0.0690   24.7530 C   0  0  0  0  0  0  0  0  0  0  0  0
    9.4660   -5.0140   25.4770 C   0  0  0  0  0  0  0  0  0  0  0  0
    7.7200   -3.9800   27.1380 S   0  0  0  0  0  0  0  0  0  0  0  0
    9.4290    0.0480   23.2570 C   0  0  0  0  0  0  0  0  0  0  0  0
    9.3180   -5.9060   26.5380 C   0  0  0  0  0  0  0  0  0  0  0  0
    8.4220   -5.5010   27.5130 C   0  0  0  0  0  0  0  0  0  0  0  0
   10.8770   -0.2590   22.9040 C   0  0  0  0  0  0  0  0  0  0  0  0
   11.8660    0.6200   23.2220 C   0  0  0  0  0  0  0  0  0  0  0  0
   11.4140   -1.3900   22.2420 C   0  0  0  0  0  0  0  0  0  0  0  0
   13.2100    0.1540   22.7810 C   0  0  0  0  0  0  0  0  0  0  0  0
   13.1340   -1.3560   22.0110 S   0  0  0  0  0  0  0  0  0  0  0  0
  1  2  1  0
  1  3  2  0
  1  4  1  0
  4  5  1  0
  4  6  1  0
  5  7  1  0
  6  8  1  0
  7  9  1  0
  8  9  1  0
  9 10  1  0
 10 11  2  3
 10 12  1  0
 11 13  1  0
 12 14  2  0
 12 15  1  0
 13 16  1  0
 14 17  1  0
 15 18  1  0
 17 18  2  0
 16 19  1  0
 19 20  1  0
 19 21  2  0
 20 22  2  0
 21 23  1  0
 22 23  1  0
M  END
