x0874_0-x0831_1-x1412_0
     RDKit          3D

 24 27  0  0  0  0  0  0  0  0999 V2000
    6.1580   -3.4500   19.9760 C   0  0  0  0  0  0  0  0  0  0  0  0
    7.1880   -3.0540   18.9100 C   0  0  0  0  0  0  0  0  0  0  0  0
    5.2890   -4.2790   19.7460 O   0  0  0  0  0  0  0  0  0  0  0  0
    6.1990   -2.9030   21.2270 N   0  0  0  0  0  0  0  0  0  0  0  0
    6.0080   -1.4580   21.4010 C   0  0  0  0  0  0  0  0  0  0  0  0
    6.8270   -3.6980   22.2720 C   0  0  0  0  0  0  0  0  0  0  0  0
    7.3100   -0.7390   21.7240 C   0  0  0  0  0  0  0  0  0  0  0  0
    7.4290   -2.8240   23.3500 C   0  0  0  0  0  0  0  0  0  0  0  0
    8.9030   -2.4050   23.1650 C   0  0  2  0  0  0  0  0  0  0  0  0
    8.5050   -1.7150   21.8210 C   0  0  0  0  0  0  0  0  0  0  0  0
    8.7840   -2.3650   24.7340 C   0  0  0  0  0  0  0  0  0  0  0  0
    9.4480   -0.9220   23.3300 C   0  0  1  0  0  0  0  0  0  0  0  0
    8.7300   -1.2920   25.4500 N   0  0  0  0  0  0  0  0  0  0  0  0
    8.8480   -0.2240   24.5280 C   0  0  0  0  0  0  0  0  0  0  0  0
    8.7570   -3.6060   25.5010 C   0  0  0  0  0  0  0  0  0  0  0  0
   10.9060   -0.7300   22.9990 C   0  0  0  0  0  0  0  0  0  0  0  0
    9.4420   -4.7940   25.3140 C   0  0  0  0  0  0  0  0  0  0  0  0
    7.7780   -3.7580   26.9220 S   0  0  0  0  0  0  0  0  0  0  0  0
   11.7900    0.3460   23.3680 C   0  0  0  0  0  0  0  0  0  0  0  0
   11.5790   -1.6650   22.2300 C   0  0  0  0  0  0  0  0  0  0  0  0
    9.1980   -5.7600   26.2640 C   0  0  0  0  0  0  0  0  0  0  0  0
    8.3110   -5.3660   27.2290 C   0  0  0  0  0  0  0  0  0  0  0  0
   13.0800    0.1650   22.8530 C   0  0  0  0  0  0  0  0  0  0  0  0
   13.2100   -1.2800   21.9570 S   0  0  0  0  0  0  0  0  0  0  0  0
  1  2  1  0
  1  3  2  0
  1  4  1  0
  4  5  1  0
  4  6  1  0
  5  7  1  0
  6  8  1  0
  9  8  1  6
  7 10  1  0
  9 10  1  0
  9 11  1  0
  9 12  1  0
 11 13  2  0
 12 14  1  0
 13 14  1  0
 11 15  1  0
 12 16  1  1
 15 17  2  0
 15 18  1  0
 16 19  1  0
 16 20  2  0
 17 21  1  0
 18 22  1  0
 21 22  2  0
 19 23  2  0
 20 24  1  0
 23 24  1  0
M  END
