x0874_0-x0736_1-x1412_0-x0434_2
     RDKit          3D

 30 33  0  0  0  0  0  0  0  0999 V2000
    6.3200   -3.3640   19.9780 C   0  0  0  0  0  0  0  0  0  0  0  0
    7.3810   -3.0260   18.9270 C   0  0  0  0  0  0  0  0  0  0  0  0
    5.3550   -4.0750   19.6870 O   0  0  0  0  0  0  0  0  0  0  0  0
    6.4270   -2.9240   21.3020 N   0  0  0  0  0  0  0  0  0  0  0  0
    7.2750   -1.7770   21.6730 C   0  0  2  0  0  0  0  0  0  0  0  0
    6.1110   -3.8120   22.4270 C   0  0  0  0  0  0  0  0  0  0  0  0
    7.5980   -1.0020   20.5060 N   0  0  0  0  0  0  0  0  0  0  0  0
    8.5470   -2.3470   22.3040 C   0  0  0  0  0  0  0  0  0  0  0  0
    7.3410   -4.3520   23.1430 C   0  0  0  0  0  0  0  0  0  0  0  0
    8.2760   -3.2530   23.4230 N   0  0  0  0  0  0  0  0  0  0  0  0
    6.6170   -0.1480   19.8380 C   0  0  0  0  0  0  0  0  0  0  0  0
    8.4370   -2.8550   24.7370 C   0  0  0  0  0  0  0  0  0  0  0  0
    7.0150    0.0690   18.5680 C   0  0  0  0  0  0  0  0  0  0  0  0
    5.3000    0.4750   20.3740 C   0  0  0  0  0  0  0  0  0  0  0  0
    8.5590   -1.6130   25.1190 N   0  0  0  0  0  0  0  0  0  0  0  0
    8.4990   -3.9130   25.8210 C   0  0  0  0  0  0  0  0  0  0  0  0
    6.2720    0.8380   17.7550 N   0  0  0  0  0  0  0  0  0  0  0  0
    4.5790    1.2620   19.4690 C   0  0  0  0  0  0  0  0  0  0  0  0
    8.5210   -0.7750   23.9120 C   0  0  0  0  0  0  0  0  0  0  0  0
    9.3350   -5.1280   25.5930 C   0  0  0  0  0  0  0  0  0  0  0  0
    7.7800   -4.0440   27.3670 S   0  0  0  0  0  0  0  0  0  0  0  0
    5.0210    1.4730   18.1640 C   0  0  0  0  0  0  0  0  0  0  0  0
    9.6980    0.2000   23.9160 C   0  0  0  0  0  0  0  0  0  0  0  0
    9.3370   -6.0180   26.6120 C   0  0  0  0  0  0  0  0  0  0  0  0
    8.5300   -5.5660   27.6590 C   0  0  0  0  0  0  0  0  0  0  0  0
   10.9890   -0.2230   23.2490 C   0  0  0  0  0  0  0  0  0  0  0  0
   12.1200    0.5340   23.3000 C   0  0  0  0  0  0  0  0  0  0  0  0
   11.3120   -1.3690   22.4970 C   0  0  0  0  0  0  0  0  0  0  0  0
   13.2620    0.1320   22.6970 C   0  0  0  0  0  0  0  0  0  0  0  0
   12.9630   -1.3790   21.9580 S   0  0  0  0  0  0  0  0  0  0  0  0
  1  2  1  0
  1  3  2  0
  1  4  1  0
  4  5  1  0
  4  6  1  0
  5  7  1  6
  5  8  1  0
  6  9  1  0
  8 10  1  0
  9 10  1  0
  7 11  1  0
 10 12  1  0
 11 13  2  0
 11 14  1  0
 12 15  2  3
 12 16  1  0
 13 17  1  0
 14 18  2  0
 15 19  1  0
 16 20  2  0
 16 21  1  0
 17 22  2  0
 18 22  1  0
 19 23  1  0
 20 24  1  0
 21 25  1  0
 24 25  2  0
 23 26  1  0
 26 27  1  0
 26 28  2  0
 27 29  2  0
 28 30  1  0
 29 30  1  0
M  END
