x0874_0-x1374_1-x1336_1
     RDKit          3D

 27 29  0  0  0  0  0  0  0  0999 V2000
    7.3910   -1.6980   25.6630 S   0  0  1  0  0  0  0  0  0  0  0  0
    8.4250   -1.3970   24.3940 N   0  0  0  0  0  0  0  0  0  0  0  0
    8.9810   -0.1180   24.4340 C   0  0  0  0  0  0  0  0  0  0  0  0
    5.9130   -1.3080   25.2940 N   0  0  0  0  0  0  0  0  0  0  0  0
    7.7110   -3.2420   26.4500 C   0  0  0  0  0  0  0  0  0  0  0  0
    5.3390   -2.0890   24.3150 C   0  0  0  0  0  0  0  0  0  0  0  0
    6.7730   -3.6710   27.4040 C   0  0  0  0  0  0  0  0  0  0  0  0
    8.8780   -3.9860   26.1210 C   0  0  0  0  0  0  0  0  0  0  0  0
    9.8790   -3.5270   25.1080 C   0  0  0  0  0  0  0  0  0  0  0  0
    6.1210   -3.3720   24.2300 C   0  0  0  0  0  0  0  0  0  0  0  0
    9.4890    0.2880   23.0330 C   0  0  0  0  0  0  0  0  0  0  0  0
    6.9680   -4.9850   28.1570 C   0  0  0  0  0  0  0  0  0  0  0  0
    9.1160   -5.3120   26.8500 C   0  0  0  0  0  0  0  0  0  0  0  0
    5.9890   -5.4570   29.1750 C   0  0  0  0  0  0  0  0  0  0  0  0
    8.2360   -5.7860   27.8000 C   0  0  0  0  0  0  0  0  0  0  0  0
    5.2880   -4.5610   23.8540 C   0  0  0  0  0  0  0  0  0  0  0  0
   10.9130   -0.1200   22.7890 C   0  0  0  0  0  0  0  0  0  0  0  0
    5.1060   -5.0360   22.5420 C   0  0  0  0  0  0  0  0  0  0  0  0
    4.5290   -5.4160   24.7310 C   0  0  0  0  0  0  0  0  0  0  0  0
   11.9890    0.7090   23.0710 C   0  0  0  0  0  0  0  0  0  0  0  0
   11.3480   -1.3330   22.2600 C   0  0  0  0  0  0  0  0  0  0  0  0
    3.8080   -6.6190   23.8190 S   0  0  0  0  0  0  0  0  0  0  0  0
    5.0130   -6.4050   22.5650 C   0  0  0  0  0  0  0  0  0  0  0  0
   13.2130    0.1610   22.7620 C   0  0  0  0  0  0  0  0  0  0  0  0
   13.0520   -1.4150   22.1180 S   0  0  0  0  0  0  0  0  0  0  0  0
    2.3380   -6.3360   23.2720 O   0  0  0  0  0  0  0  0  0  0  0  0
    3.9930   -8.0740   24.4080 O   0  0  0  0  0  0  0  0  0  0  0  0
  1  2  2  0
  2  3  1  0
  1  4  2  0
  1  5  1  6
  4  6  1  0
  5  7  2  0
  5  8  1  0
  8  9  1  0
  6 10  1  0
  3 11  1  0
  7 12  1  0
  8 13  2  0
 12 14  1  0
 12 15  2  0
 13 15  1  0
 10 16  1  0
 11 17  1  0
 16 18  1  0
 16 19  2  0
 17 20  1  0
 17 21  2  0
 19 22  1  0
 18 23  1  0
 22 23  1  0
 20 24  2  0
 21 25  1  0
 24 25  1  0
 22 26  1  0
 22 27  1  0
M  END
