x0874_0-x0831_1-x0820_1-x0434_2
     RDKit          3D

 36 41  0  0  0  0  0  0  0  0999 V2000
    6.4550   -3.3550   19.8220 C   0  0  0  0  0  0  0  0  0  0  0  0
    7.1470   -2.6790   18.6480 C   0  0  0  0  0  0  0  0  0  0  0  0
    5.8370   -4.3960   19.6120 O   0  0  0  0  0  0  0  0  0  0  0  0
    6.5860   -2.8550   21.0640 N   0  0  0  0  0  0  0  0  0  0  0  0
    6.3330   -1.4340   21.3300 C   0  0  1  0  0  0  0  0  0  0  0  0
    7.0660   -3.6990   22.1660 C   0  0  1  0  0  0  0  0  0  0  0  0
    7.5420   -2.5260   22.4730 C   0  0  0  0  0  0  0  0  0  0  0  0
    7.6320   -2.9530   23.3730 C   0  0  0  0  0  0  0  0  0  0  0  0
    5.8890   -0.4000   20.7340 C   0  0  0  0  0  0  0  0  0  0  0  0
    6.0820   -4.0320   22.9430 C   0  0  0  0  0  0  0  0  0  0  0  0
    8.6600   -1.9270   23.1090 C   0  0  2  0  0  0  0  0  0  0  0  0
    7.6000   -0.6190   21.2900 C   0  0  0  0  0  0  0  0  0  0  0  0
    5.4460    0.6340   20.1390 C   0  0  0  0  0  0  0  0  0  0  0  0
    5.0990   -4.3650   23.7200 C   0  0  0  0  0  0  0  0  0  0  0  0
    9.8710   -1.2980   22.3400 C   0  0  0  0  0  0  0  0  0  0  0  0
    8.7760   -1.4500   21.7230 C   0  0  0  0  0  0  0  0  0  0  0  0
    6.6490    0.0080   19.8530 C   0  0  0  0  0  0  0  0  0  0  0  0
    4.8170    1.2970   19.0970 C   0  0  0  0  0  0  0  0  0  0  0  0
    6.4390   -4.2050   23.9830 C   0  0  0  0  0  0  0  0  0  0  0  0
    4.1540   -4.5400   24.7490 C   0  0  0  0  0  0  0  0  0  0  0  0
    8.1880   -1.0340   21.5060 C   0  0  0  0  0  0  0  0  0  0  0  0
   11.0770   -0.4550   23.0860 C   0  0  0  0  0  0  0  0  0  0  0  0
    7.1890    0.0390   18.5790 C   0  0  0  0  0  0  0  0  0  0  0  0
    5.4080    1.2680   17.8390 C   0  0  0  0  0  0  0  0  0  0  0  0
    6.8860   -4.2170   25.3580 C   0  0  0  0  0  0  0  0  0  0  0  0
    4.5530   -4.5590   26.0430 C   0  0  0  0  0  0  0  0  0  0  0  0
   12.0820    0.4690   23.4640 C   0  0  0  0  0  0  0  0  0  0  0  0
   11.4570   -1.4510   22.1640 C   0  0  0  0  0  0  0  0  0  0  0  0
    6.5560    0.6700   17.6270 N   0  0  0  0  0  0  0  0  0  0  0  0
    5.9160   -4.3990   26.3890 C   0  0  0  0  0  0  0  0  0  0  0  0
    8.2410   -4.0590   25.7640 C   0  0  0  0  0  0  0  0  0  0  0  0
   13.3380    0.2600   22.8420 C   0  0  0  0  0  0  0  0  0  0  0  0
   13.1460   -1.1360   21.8020 S   0  0  0  0  0  0  0  0  0  0  0  0
    8.6000   -4.0860   27.0800 C   0  0  0  0  0  0  0  0  0  0  0  0
    6.3270   -4.4200   27.7430 C   0  0  0  0  0  0  0  0  0  0  0  0
    7.6330   -4.2720   28.0760 C   0  0  0  0  0  0  0  0  0  0  0  0
  1  2  1  0
  1  3  2  0
  1  4  1  0
  4  5  1  0
  4  6  1  0
  5  7  1  0
  6  8  1  0
  5  9  1  6
  6 10  1  1
  7 11  1  0
  8 11  1  0
  7 12  2  0
  9 13  1  0
 10 14  1  0
 11 15  1  6
 11 16  1  0
 13 17  2  0
 13 18  1  0
 14 19  2  0
 14 20  1  0
 12 21  1  0
 16 21  2  0
 15 22  1  0
 17 23  1  0
 18 24  2  0
 19 25  1  0
 20 26  2  0
 22 27  1  0
 22 28  2  0
 23 29  2  0
 24 29  1  0
 25 30  2  0
 26 30  1  0
 25 31  1  0
 27 32  2  0
 28 33  1  0
 32 33  1  0
 31 34  2  0
 30 35  1  0
 34 36  1  0
 35 36  2  0
M  END
