x0874_0-x0981_1-x1336_1-x0731_0-x0395_1-x0434_2-x1348_0
     RDKit          3D

 53 56  0  0  0  0  0  0  0  0999 V2000
    3.2740   -6.0060   23.3430 C   0  0  1  0  0  0  0  0  0  0  0  0
    2.8820   -7.1200   22.7770 N   0  0  0  0  0  0  0  0  0  0  0  0
    1.5040   -7.3260   22.2450 C   0  0  0  0  0  0  0  0  0  0  0  0
    2.9950   -6.2080   24.8380 C   0  0  0  0  0  0  0  0  0  0  0  0
    4.7980   -5.5360   23.0830 C   0  0  1  0  0  0  0  0  0  0  0  0
    3.1920   -7.6400   25.2490 C   0  0  0  0  0  0  0  0  0  0  0  0
    5.5370   -5.0990   24.2790 N   0  0  0  0  0  0  0  0  0  0  0  0
    5.6320   -6.3140   22.2980 C   0  0  0  0  0  0  0  0  0  0  0  0
    4.7360   -3.9990   24.8040 O   0  0  0  0  0  0  0  0  0  0  0  0
    1.2730   -8.6290   21.4950 C   0  0  0  0  0  0  0  0  0  0  0  0
    0.5930   -6.5040   22.3620 O   0  0  0  0  0  0  0  0  0  0  0  0
    2.5400   -8.1540   26.3380 N   0  0  0  0  0  0  0  0  0  0  0  0
    3.9510   -8.2910   24.5700 O   0  0  0  0  0  0  0  0  0  0  0  0
    6.8640   -4.5800   23.9320 C   0  0  0  0  0  0  0  0  0  0  0  0
    6.7850   -5.5590   21.7090 N   0  0  0  0  0  0  0  0  0  0  0  0
    5.0030   -2.7340   24.1580 C   0  0  0  0  0  0  0  0  0  0  0  0
    6.3640   -5.0500   20.4770 C   0  0  0  0  0  0  0  0  0  0  0  0
    7.2430   -4.4960   22.5810 C   0  0  1  0  0  0  0  0  0  0  0  0
    4.9350   -1.5940   25.2280 C   0  0  0  0  0  0  0  0  0  0  0  0
    5.4090   -5.5660   19.9440 O   0  0  0  0  0  0  0  0  0  0  0  0
    7.0680   -3.8260   19.8240 C   0  0  0  0  0  0  0  0  0  0  0  0
    6.9860   -3.1940   21.9280 N   0  0  0  0  0  0  0  0  0  0  0  0
    6.2600   -1.1040   25.6600 N   0  0  0  0  0  0  0  0  0  0  0  0
    6.0220   -3.0150   20.8780 C   0  0  0  0  0  0  0  0  0  0  0  0
    8.1680   -2.2870   22.0040 C   0  0  0  0  0  0  0  0  0  0  0  0
    7.5240   -1.9160   25.2100 S   0  0  1  0  0  0  0  0  0  0  0  0
    5.0110   -3.7350   20.9260 O   0  0  0  0  0  0  0  0  0  0  0  0
    6.1300   -2.1340   19.8250 C   0  0  0  0  0  0  0  0  0  0  0  0
    8.2190   -1.2440   21.1080 C   0  0  0  0  0  0  0  0  0  0  0  0
    8.6820   -0.8480   25.0870 N   0  0  0  0  0  0  0  0  0  0  0  0
    7.0680   -0.3720   21.2220 N   0  0  0  0  0  0  0  0  0  0  0  0
    7.8440   -3.3380   26.2180 C   0  0  0  0  0  0  0  0  0  0  0  0
    9.9270   -1.3530   24.4820 C   0  0  0  0  0  0  0  0  0  0  0  0
    6.8940   -3.6300   27.1970 C   0  0  0  0  0  0  0  0  0  0  0  0
    8.9880   -4.1460   26.0550 C   0  0  0  0  0  0  0  0  0  0  0  0
    6.4670    0.1910   20.1140 C   0  0  0  0  0  0  0  0  0  0  0  0
   10.0510   -3.9010   25.0300 C   0  0  0  0  0  0  0  0  0  0  0  0
    7.0670   -4.8150   28.1030 C   0  0  0  0  0  0  0  0  0  0  0  0
    9.1830   -5.3630   26.9720 C   0  0  0  0  0  0  0  0  0  0  0  0
   10.3080   -0.6600   23.2270 N   0  0  0  0  0  0  0  0  0  0  0  0
    6.9200    0.0860   18.8060 C   0  0  0  0  0  0  0  0  0  0  0  0
    5.3010    0.9370   20.2840 C   0  0  0  0  0  0  0  0  0  0  0  0
    6.0190   -5.0830   29.1290 C   0  0  0  0  0  0  0  0  0  0  0  0
    8.1220   -5.6130   27.9970 C   0  0  0  0  0  0  0  0  0  0  0  0
   10.6250    0.6730   23.2730 C   0  0  0  0  0  0  0  0  0  0  0  0
    6.3320    0.6500   17.7320 N   0  0  0  0  0  0  0  0  0  0  0  0
    4.6630    1.5300   19.1980 C   0  0  0  0  0  0  0  0  0  0  0  0
   11.1340   -1.5260   22.3590 C   0  0  0  0  0  0  0  0  0  0  0  0
   12.6310   -1.2700   22.5450 C   0  0  1  0  0  0  0  0  0  0  0  0
   11.8780    1.1080   23.2150 C   0  0  0  0  0  0  0  0  0  0  0  0
    5.2180    1.3590   17.9500 C   0  0  0  0  0  0  0  0  0  0  0  0
   13.3210   -1.4700   21.3790 F   0  0  0  0  0  0  0  0  0  0  0  0
   12.9910    0.1180   23.1030 C   0  0  0  0  0  0  0  0  0  0  0  0
  1  2  1  0
  2  3  1  0
  1  4  1  1
  1  5  1  0
  4  6  1  0
  5  7  1  0
  5  8  1  1
  7  9  1  0
  3 10  1  0
  3 11  2  0
  6 12  1  0
  6 13  2  0
  7 14  1  0
  8 15  1  0
  9 16  1  0
 15 17  1  0
 14 18  1  0
 15 18  1  0
 16 19  1  0
 17 20  2  0
 17 21  1  0
 18 22  1  6
 19 23  1  0
 22 24  1  0
 22 25  1  0
 23 26  2  0
 24 27  2  0
 24 28  1  0
 25 29  1  0
 26 30  2  0
 29 31  1  0
 26 32  1  1
 30 33  1  0
 32 34  2  0
 32 35  1  0
 31 36  1  0
 35 37  1  0
 34 38  1  0
 35 39  2  0
 33 40  1  0
 36 41  2  0
 36 42  1  0
 38 43  1  0
 38 44  2  0
 39 44  1  0
 40 45  1  0
 41 46  1  0
 42 47  2  0
 40 48  1  0
 48 49  1  0
 45 50  2  0
 46 51  2  0
 47 51  1  0
 49 52  1  6
 49 53  1  0
 50 53  1  0
M  END
