x0874_0-x1358_0-x0107_0
     RDKit          3D

 26 28  0  0  0  0  0  0  0  0999 V2000
    9.5230   -0.4260   23.0430 C   0  0  0  0  0  0  0  0  0  0  0  0
    8.8140    0.1220   21.7720 C   0  0  0  0  0  0  0  0  0  0  0  0
    9.0790    1.2390   21.2700 O   0  0  0  0  0  0  0  0  0  0  0  0
   10.9700   -0.5260   22.7740 C   0  0  0  0  0  0  0  0  0  0  0  0
    7.8560   -0.7120   21.2240 N   0  0  0  0  0  0  0  0  0  0  0  0
   11.9150    0.4240   23.1410 C   0  0  0  0  0  0  0  0  0  0  0  0
   11.5570   -1.5870   22.1100 C   0  0  0  0  0  0  0  0  0  0  0  0
    6.9360   -0.1100   20.2820 C   0  0  0  0  0  0  0  0  0  0  0  0
   13.2000    0.1100   22.7650 C   0  0  0  0  0  0  0  0  0  0  0  0
   13.2380   -1.3970   21.9470 S   0  0  0  0  0  0  0  0  0  0  0  0
    5.7150    0.7260   20.6980 C   0  0  0  0  0  0  0  0  0  0  0  0
    7.1240   -0.2660   18.7530 C   0  0  0  0  0  0  0  0  0  0  0  0
    5.3490    0.9930   22.1230 C   0  0  0  0  0  0  0  0  0  0  0  0
    4.8390    1.3170   19.5820 C   0  0  0  0  0  0  0  0  0  0  0  0
    6.2700    0.3130   17.7140 N   0  0  0  0  0  0  0  0  0  0  0  0
    5.5680   -0.1710   23.0990 C   0  0  0  0  0  0  0  0  0  0  0  0
    5.1340    1.1040   18.1290 C   0  0  0  0  0  0  0  0  0  0  0  0
    6.1020    0.2330   24.4760 C   0  0  0  0  0  0  0  0  0  0  0  0
    5.4780   -0.2920   25.3880 O   0  0  0  0  0  0  0  0  0  0  0  0
    6.0860   -0.3060   26.6160 C   0  0  0  0  0  0  0  0  0  0  0  0
    6.9230   -1.4260   26.9000 C   0  0  0  0  0  0  0  0  0  0  0  0
    5.9580    0.6720   27.6020 C   0  0  0  0  0  0  0  0  0  0  0  0
    7.1280   -2.5250   25.9170 N   0  0  0  0  0  0  0  0  0  0  0  0
    7.6230   -1.5770   28.1360 C   0  0  0  0  0  0  0  0  0  0  0  0
    6.6040    0.5840   28.8090 C   0  0  0  0  0  0  0  0  0  0  0  0
    7.4970   -0.5960   29.1290 C   0  0  0  0  0  0  0  0  0  0  0  0
  1  2  1  0
  2  3  2  0
  1  4  1  0
  2  5  1  0
  4  6  1  0
  4  7  2  0
  5  8  1  0
  6  9  2  0
  7 10  1  0
  9 10  1  0
  8 11  1  0
  8 12  2  0
 11 13  1  0
 11 14  2  0
 12 15  1  0
 13 16  1  0
 14 17  1  0
 15 17  2  0
 16 18  1  0
 18 19  1  0
 19 20  1  0
 20 21  2  0
 20 22  1  0
 21 23  1  0
 21 24  1  0
 22 25  2  0
 24 26  2  0
 25 26  1  0
M  END
