x0874_0-x0395_0-x1402_0
     RDKit          3D

 24 26  0  0  0  0  0  0  0  0999 V2000
    5.0640   -5.4890   25.9090 S   0  0  1  0  0  0  0  0  0  0  0  0
    5.8170   -5.5270   27.2620 N   0  0  0  0  0  0  0  0  0  0  0  0
    6.9770   -4.6560   27.4820 C   0  0  0  0  0  0  0  0  0  0  0  0
    4.0700   -6.4420   25.4770 O   0  0  0  0  0  0  0  0  0  0  0  0
    4.2210   -3.9250   25.9930 C   0  0  0  0  0  0  0  0  0  0  0  0
    2.5060   -3.9880   25.9950 S   0  0  0  0  0  0  0  0  0  0  0  0
    4.6760   -2.6190   26.0580 C   0  0  0  0  0  0  0  0  0  0  0  0
    8.2750   -5.4560   27.3080 C   0  0  0  0  0  0  0  0  0  0  0  0
    2.3940   -2.3050   26.0920 C   0  0  0  0  0  0  0  0  0  0  0  0
    3.6070   -1.6710   26.1140 C   0  0  0  0  0  0  0  0  0  0  0  0
    0.8490   -1.5550   26.1560 Cl  0  0  0  0  0  0  0  0  0  0  0  0
    8.9220   -5.3170   25.9210 C   0  0  0  0  0  0  0  0  0  0  0  0
    8.8620   -3.9200   25.3710 C   0  0  0  0  0  0  0  0  0  0  0  0
    8.3260   -2.8760   25.9730 N   0  0  0  0  0  0  0  0  0  0  0  0
    9.5220   -3.5380   23.8460 S   0  0  0  0  0  0  0  0  0  0  0  0
    9.0540   -1.9070   24.0880 C   0  0  0  0  0  0  0  0  0  0  0  0
    8.4360   -1.7220   25.2360 N   0  0  0  0  0  0  0  0  0  0  0  0
    9.3450   -0.8260   23.0720 C   0  0  2  0  0  0  0  0  0  0  0  0
    8.4960   -0.9800   21.8060 C   0  0  0  0  0  0  0  0  0  0  0  0
   10.8400   -0.7260   22.7800 C   0  0  0  0  0  0  0  0  0  0  0  0
   11.7330    0.3750   23.0600 C   0  0  0  0  0  0  0  0  0  0  0  0
   11.5330   -1.7540   22.1740 C   0  0  0  0  0  0  0  0  0  0  0  0
   13.0280    0.1330   22.6750 C   0  0  0  0  0  0  0  0  0  0  0  0
   13.1860   -1.4090   21.9640 S   0  0  0  0  0  0  0  0  0  0  0  0
  1  2  2  0
  2  3  1  0
  1  4  2  0
  1  5  1  1
  5  6  1  0
  5  7  2  0
  3  8  1  0
  6  9  1  0
  7 10  1  0
  9 10  2  0
  9 11  1  0
  8 12  1  0
 12 13  1  0
 13 14  2  0
 13 15  1  0
 15 16  1  0
 14 17  1  0
 16 17  2  0
 16 18  1  0
 18 19  1  6
 18 20  1  0
 20 21  1  0
 20 22  2  0
 21 23  2  0
 22 24  1  0
 23 24  1  0
M  END
