x0874_0-x0736_1-x0434_2-x1412_0-x0771_0-x1334_1
     RDKit          3D

 35 39  0  0  0  0  0  0  0  0999 V2000
    6.3630   -3.3570   19.8670 C   0  0  0  0  0  0  0  0  0  0  0  0
    7.3890   -3.0450   18.7690 C   0  0  0  0  0  0  0  0  0  0  0  0
    5.4640   -4.1880   19.7340 O   0  0  0  0  0  0  0  0  0  0  0  0
    6.4850   -2.6440   21.0530 N   0  0  0  0  0  0  0  0  0  0  0  0
    7.6970   -1.8380   21.1890 C   0  0  1  0  0  0  0  0  0  0  0  0
    5.8290   -3.1150   22.2980 C   0  0  0  0  0  0  0  0  0  0  0  0
    7.2120   -0.4720   21.2950 N   0  0  0  0  0  0  0  0  0  0  0  0
    8.6570   -2.3880   22.3050 C   0  0  0  0  0  0  0  0  0  0  0  0
    6.8360   -3.9670   23.1370 C   0  0  2  0  0  0  0  0  0  0  0  0
    7.9540   -3.0330   23.4660 N   0  0  0  0  0  0  0  0  0  0  0  0
    7.2180   -5.1070   22.2260 N   0  0  0  0  0  0  0  0  0  0  0  0
    6.1530   -4.5010   24.4710 C   0  0  0  0  0  0  0  0  0  0  0  0
    6.5650    0.1100   20.1910 C   0  0  0  0  0  0  0  0  0  0  0  0
    8.4360   -2.7730   24.7450 C   0  0  0  0  0  0  0  0  0  0  0  0
    5.2640   -5.6640   24.3020 N   0  0  0  0  0  0  0  0  0  0  0  0
    6.1180   -6.0570   21.9670 C   0  0  0  0  0  0  0  0  0  0  0  0
    6.9660    0.0090   18.8620 C   0  0  0  0  0  0  0  0  0  0  0  0
    5.4030    0.8660   20.3960 C   0  0  0  0  0  0  0  0  0  0  0  0
    8.7070   -1.5440   25.0470 N   0  0  0  0  0  0  0  0  0  0  0  0
    4.9080   -5.8680   22.8990 C   0  0  0  0  0  0  0  0  0  0  0  0
    8.6110   -3.8980   25.6480 C   0  0  0  0  0  0  0  0  0  0  0  0
    6.3410    0.5780   17.8060 N   0  0  0  0  0  0  0  0  0  0  0  0
    4.7280    1.4650   19.3310 C   0  0  0  0  0  0  0  0  0  0  0  0
    8.5160   -0.5090   24.0320 C   0  0  0  0  0  0  0  0  0  0  0  0
    9.3900   -5.0170   25.4190 C   0  0  0  0  0  0  0  0  0  0  0  0
    7.8360   -3.9650   27.1780 S   0  0  0  0  0  0  0  0  0  0  0  0
    5.2370    1.2940   18.0620 C   0  0  0  0  0  0  0  0  0  0  0  0
    9.7630    0.3790   23.9560 C   0  0  0  0  0  0  0  0  0  0  0  0
    9.3500   -5.9270   26.5060 C   0  0  0  0  0  0  0  0  0  0  0  0
    8.5460   -5.4820   27.5310 C   0  0  0  0  0  0  0  0  0  0  0  0
   11.0270   -0.1180   23.2720 C   0  0  0  0  0  0  0  0  0  0  0  0
   12.2060    0.6740   23.3290 C   0  0  0  0  0  0  0  0  0  0  0  0
   11.2700   -1.2870   22.5460 C   0  0  0  0  0  0  0  0  0  0  0  0
   13.2600    0.1110   22.6780 C   0  0  0  0  0  0  0  0  0  0  0  0
   12.8850   -1.3970   21.9770 S   0  0  0  0  0  0  0  0  0  0  0  0
  1  2  1  0
  1  3  2  0
  1  4  1  0
  4  5  1  0
  4  6  1  0
  5  7  1  1
  5  8  1  0
  9  6  1  6
  8 10  1  0
  9 10  1  0
  9 11  1  0
  9 12  1  0
  7 13  1  0
 10 14  1  0
 12 15  1  0
 11 16  1  0
 13 17  2  0
 13 18  1  0
 14 19  2  3
 15 20  1  0
 16 20  1  0
 14 21  1  0
 17 22  1  0
 18 23  2  0
 19 24  1  0
 21 25  2  0
 21 26  1  0
 22 27  2  0
 23 27  1  0
 24 28  1  0
 25 29  1  0
 26 30  1  0
 29 30  2  0
 28 31  1  0
 31 32  1  0
 31 33  2  0
 32 34  2  0
 33 35  1  0
 34 35  1  0
M  END
