x0874_0-x1412_0-x0736_1-x0434_2-x1412_1-x0397_0-x1336_0-x1386_0
     RDKit          3D

 35 40  0  0  0  0  0  0  0  0999 V2000
    6.2920   -3.4430   19.9710 C   0  0  0  0  0  0  0  0  0  0  0  0
    7.2630   -3.0700   18.8630 C   0  0  0  0  0  0  0  0  0  0  0  0
    5.3400   -4.1890   19.7400 O   0  0  0  0  0  0  0  0  0  0  0  0
    6.5490   -2.9400   21.2410 N   0  0  0  0  0  0  0  0  0  0  0  0
    7.6340   -1.9540   21.3480 C   0  0  1  0  0  0  0  0  0  0  0  0
    6.0660   -3.5280   22.4930 C   0  0  2  0  0  0  0  0  0  0  0  0
    6.9540   -0.6610   21.4640 N   0  0  0  0  0  0  0  0  0  0  0  0
    8.5840   -2.2050   22.5340 C   0  0  0  0  0  0  0  0  0  0  0  0
    7.2320   -3.8180   23.4570 C   0  0  0  0  0  0  0  0  0  0  0  0
    5.3860   -4.8530   22.2850 C   0  0  0  0  0  0  0  0  0  0  0  0
    7.9550   -2.5880   23.6860 N   0  0  0  0  0  0  0  0  0  0  0  0
    5.8700   -6.0860   23.0130 C   0  0  0  0  0  0  0  0  0  0  0  0
    6.0420   -6.0240   21.6210 C   0  0  0  0  0  0  0  0  0  0  0  0
    6.4430   -0.0330   20.3120 C   0  0  0  0  0  0  0  0  0  0  0  0
    8.7690   -2.5460   24.8920 C   0  0  2  0  0  0  0  0  0  0  0  0
    7.0090   -0.0830   18.8650 C   0  0  0  0  0  0  0  0  0  0  0  0
    5.1400    0.8520   20.3870 C   0  0  0  0  0  0  0  0  0  0  0  0
    8.4910   -1.5040   25.4590 O   0  0  0  0  0  0  0  0  0  0  0  0
   10.2940   -2.6000   24.6490 C   0  0  0  0  0  0  0  0  0  0  0  0
    8.5660   -3.6720   25.8840 C   0  0  0  0  0  0  0  0  0  0  0  0
    6.4200    0.6090   17.7280 N   0  0  0  0  0  0  0  0  0  0  0  0
    4.6290    1.4810   19.2590 C   0  0  0  0  0  0  0  0  0  0  0  0
    9.4270   -4.7540   25.7420 C   0  0  0  0  0  0  0  0  0  0  0  0
    7.5360   -4.0050   27.2190 S   0  0  0  0  0  0  0  0  0  0  0  0
    5.2340    1.3670   18.0180 C   0  0  0  0  0  0  0  0  0  0  0  0
   11.0090   -1.4020   24.0940 C   0  0  0  0  0  0  0  0  0  0  0  0
    9.2890   -5.7930   26.6270 C   0  0  0  0  0  0  0  0  0  0  0  0
    8.2810   -5.5320   27.5180 C   0  0  0  0  0  0  0  0  0  0  0  0
   12.4040   -1.5370   23.7310 C   0  0  0  0  0  0  0  0  0  0  0  0
   10.4440    0.0460   23.8850 C   0  0  0  0  0  0  0  0  0  0  0  0
   13.1150   -0.4500   23.1390 C   0  0  2  0  0  0  0  0  0  0  0  0
   11.8820    0.8460   23.2490 S   0  0  0  0  0  0  0  0  0  0  0  0
   11.4540   -0.8890   23.5710 C   0  0  0  0  0  0  0  0  0  0  0  0
   13.1800   -1.3250   21.6030 S   0  0  0  0  0  0  0  0  0  0  0  0
   12.0350   -1.9050   22.7180 C   0  0  0  0  0  0  0  0  0  0  0  0
  1  2  1  0
  1  3  2  0
  1  4  1  0
  4  5  1  0
  4  6  1  0
  5  7  1  1
  5  8  1  0
  6  9  1  0
  6 10  1  6
  8 11  1  0
  9 11  1  0
 10 12  1  0
 10 13  1  0
 12 13  1  0
  7 14  1  0
 11 15  1  0
 14 16  2  0
 14 17  1  0
 15 18  1  1
 15 19  1  0
 15 20  1  0
 16 21  1  0
 17 22  2  0
 20 23  2  0
 20 24  1  0
 21 25  2  0
 22 25  1  0
 19 26  1  0
 23 27  1  0
 24 28  1  0
 27 28  2  0
 26 29  2  0
 26 30  1  0
 31 29  1  1
 30 32  2  0
 31 32  1  0
 32 33  1  0
 31 34  1  0
 33 35  2  0
 34 35  1  0
M  END
