x0874_0-x0820_1-x0540_3
     RDKit          3D

 26 28  0  0  0  0  0  0  0  0999 V2000
    4.9530    0.0180   21.4940 C   0  0  0  0  0  0  0  0  0  0  0  0
    5.1610    1.0710   22.5770 C   0  0  0  0  0  0  0  0  0  0  0  0
    4.1870    2.1610   22.4730 N   0  0  0  0  0  0  0  0  0  0  0  0
    5.4970   -1.3640   21.8340 C   0  0  0  0  0  0  0  0  0  0  0  0
    6.6500   -1.3390   22.8640 C   0  0  0  0  0  0  0  0  0  0  0  0
    3.1890    2.4240   23.5220 C   0  0  0  0  0  0  0  0  0  0  0  0
    7.8010   -2.3570   22.6790 C   0  0  2  0  0  0  0  0  0  0  0  0
    2.7450    1.5060   24.5310 O   0  0  0  0  0  0  0  0  0  0  0  0
    7.3790   -3.8320   22.8360 C   0  0  0  0  0  0  0  0  0  0  0  0
    9.0340   -1.9620   23.5300 C   0  0  0  0  0  0  0  0  0  0  0  0
    9.5040   -0.6690   23.3550 C   0  0  0  0  0  0  0  0  0  0  0  0
    6.3640   -4.1280   23.9330 C   0  0  0  0  0  0  0  0  0  0  0  0
    6.8760   -4.2800   25.3780 C   0  0  0  0  0  0  0  0  0  0  0  0
    4.8980   -4.2680   23.6480 C   0  0  0  0  0  0  0  0  0  0  0  0
   10.9530   -0.6430   22.9660 C   0  0  0  0  0  0  0  0  0  0  0  0
    5.9860   -4.5360   26.4040 C   0  0  0  0  0  0  0  0  0  0  0  0
    3.9950   -4.5520   24.8400 C   0  0  0  0  0  0  0  0  0  0  0  0
    8.3300   -4.1500   25.6740 C   0  0  0  0  0  0  0  0  0  0  0  0
   11.8450    0.3620   23.2910 C   0  0  0  0  0  0  0  0  0  0  0  0
   11.5470   -1.6430   22.2280 C   0  0  0  0  0  0  0  0  0  0  0  0
    4.4560   -4.6840   26.1500 C   0  0  0  0  0  0  0  0  0  0  0  0
    8.7740   -4.2900   26.9860 C   0  0  0  0  0  0  0  0  0  0  0  0
    6.4820   -4.6650   27.7180 C   0  0  0  0  0  0  0  0  0  0  0  0
   13.0790    0.1320   22.8120 C   0  0  0  0  0  0  0  0  0  0  0  0
   13.1890   -1.3370   21.9470 S   0  0  0  0  0  0  0  0  0  0  0  0
    7.8440   -4.5470   28.0090 C   0  0  0  0  0  0  0  0  0  0  0  0
  1  2  1  0
  2  3  1  0
  1  4  1  0
  4  5  1  0
  3  6  1  0
  7  5  1  1
  6  8  2  0
  7  9  1  0
  7 10  1  0
 10 11  1  0
  9 12  1  0
 12 13  1  0
 12 14  2  0
 11 15  1  0
 13 16  2  0
 14 17  1  0
 13 18  1  0
 15 19  1  0
 15 20  2  0
 16 21  1  0
 17 21  2  0
 18 22  2  0
 16 23  1  0
 19 24  2  0
 20 25  1  0
 24 25  1  0
 22 26  1  0
 23 26  2  0
M  END
