x0874
     RDKit          3D

 13 14  0  0  0  0  0  0  0  0999 V2000
   10.2470    3.0890   22.2350 N   0  0  0  0  0  0  0  0  0  0  0  0
    9.4580    1.8490   22.2320 C   0  0  0  0  0  0  0  0  0  0  0  0
    9.1260    1.3470   21.1780 O   0  0  0  0  0  0  0  0  0  0  0  0
    9.0740    1.1910   23.5990 C   0  0  1  0  0  0  0  0  0  0  0  0
    7.7490    1.0960   23.7500 C   0  0  0  0  0  0  0  0  0  0  0  0
    7.3600   -0.4140   23.3380 C   0  0  0  0  0  0  0  0  0  0  0  0
    8.7300   -1.1060   23.0020 C   0  0  0  0  0  0  0  0  0  0  0  0
    9.6500   -0.3700   23.6820 C   0  0  1  0  0  0  0  0  0  0  0  0
   11.0770   -0.4550   23.0860 C   0  0  0  0  0  0  0  0  0  0  0  0
   12.0820    0.4690   23.4640 C   0  0  0  0  0  0  0  0  0  0  0  0
   13.3380    0.2600   22.8420 C   0  0  0  0  0  0  0  0  0  0  0  0
   13.1460   -1.1360   21.8020 S   0  0  0  0  0  0  0  0  0  0  0  0
   11.4570   -1.4510   22.1640 C   0  0  0  0  0  0  0  0  0  0  0  0
  1  2  1  0
  2  3  2  0
  4  2  1  6
  4  5  1  0
  5  6  1  0
  6  7  1  0
  4  8  1  0
  7  8  1  0
  8  9  1  6
  9 10  1  0
 10 11  2  0
 11 12  1  0
  9 13  2  0
 12 13  1  0
M  END
