x0874_0-x1412_0-x0770_1
     RDKit          3D

 23 25  0  0  0  0  0  0  0  0999 V2000
    6.2200   -3.2820   19.9430 C   0  0  0  0  0  0  0  0  0  0  0  0
    7.2080   -2.9980   18.8250 C   0  0  0  0  0  0  0  0  0  0  0  0
    5.3610   -4.1540   19.7530 O   0  0  0  0  0  0  0  0  0  0  0  0
    6.3580   -2.5700   21.1450 N   0  0  0  0  0  0  0  0  0  0  0  0
    7.4530   -1.5830   21.3490 C   0  0  0  0  0  0  0  0  0  0  0  0
    6.0500   -3.3630   22.3480 C   0  0  0  0  0  0  0  0  0  0  0  0
    8.6510   -2.1230   22.1750 C   0  0  0  0  0  0  0  0  0  0  0  0
    7.2810   -4.0460   22.8750 C   0  0  0  0  0  0  0  0  0  0  0  0
    8.1530   -2.9460   23.3050 N   0  0  0  0  0  0  0  0  0  0  0  0
    8.4360   -2.7570   24.6700 C   0  0  0  0  0  0  0  0  0  0  0  0
    8.7430   -1.6430   25.1720 N   0  0  0  0  0  0  0  0  0  0  0  0
    8.4690   -3.8500   25.7020 C   0  0  0  0  0  0  0  0  0  0  0  0
    8.9140   -0.5320   24.4490 C   0  0  0  0  0  0  0  0  0  0  0  0
    9.3800   -4.8560   25.6830 C   0  0  0  0  0  0  0  0  0  0  0  0
    7.4510   -4.0770   27.0720 S   0  0  0  0  0  0  0  0  0  0  0  0
   10.3760   -0.2280   24.6980 C   0  0  0  0  0  0  0  0  0  0  0  0
    9.3370   -5.8360   26.6880 C   0  0  0  0  0  0  0  0  0  0  0  0
    8.2980   -5.5160   27.5410 C   0  0  0  0  0  0  0  0  0  0  0  0
   11.3960   -0.5520   23.6730 C   0  0  0  0  0  0  0  0  0  0  0  0
   12.5220    0.3660   23.3970 C   0  0  0  0  0  0  0  0  0  0  0  0
   11.5650   -1.6540   22.8200 C   0  0  0  0  0  0  0  0  0  0  0  0
   13.3950   -0.0120   22.4850 C   0  0  0  0  0  0  0  0  0  0  0  0
   12.9860   -1.5300   21.8170 S   0  0  0  0  0  0  0  0  0  0  0  0
  1  2  1  0
  1  3  2  0
  1  4  1  0
  4  5  1  0
  4  6  1  0
  5  7  1  0
  6  8  1  0
  7  9  1  0
  8  9  1  0
  9 10  1  0
 10 11  2  3
 10 12  1  0
 11 13  1  0
 12 14  2  0
 12 15  1  0
 13 16  1  0
 14 17  1  0
 15 18  1  0
 17 18  2  0
 16 19  1  0
 19 20  1  0
 19 21  2  0
 20 22  2  0
 21 23  1  0
 22 23  1  0
M  END
