x0874_0-x0769_0-x1412_0
     RDKit          3D

 24 26  0  0  0  0  0  0  0  0999 V2000
    6.3160   -4.2660   20.4970 C   0  0  0  0  0  0  0  0  0  0  0  0
    7.3150   -3.3520   19.7550 C   0  0  0  0  0  0  0  0  0  0  0  0
    5.2870   -4.6000   19.9190 O   0  0  0  0  0  0  0  0  0  0  0  0
    6.5460   -4.7520   21.7880 N   0  0  0  0  0  0  0  0  0  0  0  0
    6.1140   -6.1310   22.1440 C   0  0  0  0  0  0  0  0  0  0  0  0
    6.9280   -3.8590   22.9430 C   0  0  2  0  0  0  0  0  0  0  0  0
    8.4500   -3.7980   23.2070 C   0  0  0  0  0  0  0  0  0  0  0  0
    5.0640   -6.0960   23.2480 C   0  0  0  0  0  0  0  0  0  0  0  0
    5.9900   -3.8800   23.9890 C   0  0  0  0  0  0  0  0  0  0  0  0
    8.8880   -3.0230   24.3850 C   0  0  0  0  0  0  0  0  0  0  0  0
    5.4970   -5.2200   24.3370 N   0  0  0  0  0  0  0  0  0  0  0  0
    8.3430   -1.8990   24.7060 N   0  0  0  0  0  0  0  0  0  0  0  0
    8.8900   -3.9940   25.4720 C   0  0  0  0  0  0  0  0  0  0  0  0
    9.0560   -0.6370   24.7260 C   0  0  0  0  0  0  0  0  0  0  0  0
    9.6480   -5.1790   25.5600 C   0  0  0  0  0  0  0  0  0  0  0  0
    7.9090   -3.8570   26.9080 S   0  0  0  0  0  0  0  0  0  0  0  0
    9.3780   -0.2350   23.2520 C   0  0  0  0  0  0  0  0  0  0  0  0
    9.4110   -5.8610   26.6940 C   0  0  0  0  0  0  0  0  0  0  0  0
    8.5020   -5.3200   27.5760 C   0  0  0  0  0  0  0  0  0  0  0  0
   10.8340   -0.4300   22.9110 C   0  0  0  0  0  0  0  0  0  0  0  0
   11.8620    0.4650   23.2020 C   0  0  0  0  0  0  0  0  0  0  0  0
   11.3880   -1.5360   22.2460 C   0  0  0  0  0  0  0  0  0  0  0  0
   13.1270    0.0920   22.7910 C   0  0  0  0  0  0  0  0  0  0  0  0
   13.1200   -1.4200   22.0140 S   0  0  0  0  0  0  0  0  0  0  0  0
  1  2  1  0
  1  3  2  0
  1  4  1  0
  4  5  1  0
  4  6  1  0
  6  7  1  1
  5  8  1  0
  6  9  1  0
  7 10  1  0
  8 11  1  0
  9 11  1  0
 10 12  2  3
 10 13  1  0
 12 14  1  0
 13 15  2  0
 13 16  1  0
 14 17  1  0
 15 18  1  0
 16 19  1  0
 18 19  2  0
 17 20  1  0
 20 21  1  0
 20 22  2  0
 21 23  2  0
 22 24  1  0
 23 24  1  0
M  END
