x0874_0-x0831_1-x1412_0-x0107_0
     RDKit          3D

 32 36  0  0  0  0  0  0  0  0999 V2000
   10.0850   -0.7010   22.5440 C   0  0  0  0  0  0  0  0  0  0  0  0
    8.6600   -1.9270   23.1090 C   0  0  1  0  0  0  0  0  0  0  0  0
    7.6320   -2.9530   23.3730 C   0  0  0  0  0  0  0  0  0  0  0  0
   11.0770   -0.4550   23.0860 C   0  0  0  0  0  0  0  0  0  0  0  0
    9.6370   -0.3890   22.0100 C   0  0  0  0  0  0  0  0  0  0  0  0
    9.1880   -0.0770   21.4760 C   0  0  0  0  0  0  0  0  0  0  0  0
    8.4350   -2.5230   24.8290 C   0  0  0  0  0  0  0  0  0  0  0  0
    7.6000   -0.6190   21.2900 C   0  0  2  0  0  0  0  0  0  0  0  0
   12.0820    0.4690   23.4640 C   0  0  0  0  0  0  0  0  0  0  0  0
   11.4570   -1.4510   22.1640 C   0  0  0  0  0  0  0  0  0  0  0  0
    9.5150    0.9360   20.9620 O   0  0  0  0  0  0  0  0  0  0  0  0
    8.3330   -1.3830   25.2750 O   0  0  0  0  0  0  0  0  0  0  0  0
    7.0860   -0.1310   20.0810 C   0  0  0  0  0  0  0  0  0  0  0  0
    6.3330   -1.4340   21.3300 C   0  0  0  0  0  0  0  0  0  0  0  0
    7.0660   -3.6990   22.1660 C   0  0  0  0  0  0  0  0  0  0  0  0
    8.7250   -3.6160   25.6980 C   0  0  0  0  0  0  0  0  0  0  0  0
   13.3380    0.2600   22.8420 C   0  0  0  0  0  0  0  0  0  0  0  0
   13.1460   -1.1360   21.8020 S   0  0  0  0  0  0  0  0  0  0  0  0
    5.8930    0.5030   20.4190 C   0  0  0  0  0  0  0  0  0  0  0  0
    7.4580   -0.1950   18.7440 C   0  0  0  0  0  0  0  0  0  0  0  0
    6.5860   -2.8550   21.0640 N   0  0  0  0  0  0  0  0  0  0  0  0
    9.6190   -4.6380   25.4440 C   0  0  0  0  0  0  0  0  0  0  0  0
    7.9560   -3.8280   27.2250 S   0  0  0  0  0  0  0  0  0  0  0  0
    5.4530    0.6060   21.8770 C   0  0  0  0  0  0  0  0  0  0  0  0
    6.4550   -3.3550   19.8220 C   0  0  0  0  0  0  0  0  0  0  0  0
    5.1220    1.0500   19.3930 C   0  0  0  0  0  0  0  0  0  0  0  0
    6.7050    0.3260   17.7940 N   0  0  0  0  0  0  0  0  0  0  0  0
    9.4890   -5.6710   26.3930 C   0  0  0  0  0  0  0  0  0  0  0  0
    8.7150   -5.3290   27.4460 C   0  0  0  0  0  0  0  0  0  0  0  0
    5.8370   -4.3960   19.6120 O   0  0  0  0  0  0  0  0  0  0  0  0
    7.1470   -2.6790   18.6480 C   0  0  0  0  0  0  0  0  0  0  0  0
    5.5750    0.9300   18.0850 C   0  0  0  0  0  0  0  0  0  0  0  0
  1  2  1  0
  2  3  1  0
  1  4  1  0
  1  5  2  0
  5  6  1  0
  2  7  1  1
  2  8  1  0
  6  8  1  0
  4  9  1  0
  4 10  2  0
  6 11  2  0
  7 12  2  0
  8 13  1  6
  8 14  1  0
  3 15  1  0
  7 16  1  0
  9 17  2  0
 10 18  1  0
 17 18  1  0
 13 19  2  0
 13 20  1  0
 14 21  1  0
 15 21  1  0
 16 22  2  0
 16 23  1  0
 19 24  1  0
 21 25  1  0
 19 26  1  0
 20 27  2  0
 22 28  1  0
 23 29  1  0
 28 29  2  0
 25 30  2  0
 25 31  1  0
 26 32  2  0
 27 32  1  0
M  END
