x0874_0-x1458_0-x1412_0-x0691_0
     RDKit          3D

 26 28  0  0  0  0  0  0  0  0999 V2000
    7.2600   -3.1950   25.7300 N   0  0  0  0  0  0  0  0  0  0  0  0
    7.6110   -1.8020   25.8790 C   0  0  0  0  0  0  0  0  0  0  0  0
    8.5860   -1.5310   25.0030 C   0  0  0  0  0  0  0  0  0  0  0  0
    6.0320   -3.5500   25.1940 C   0  0  0  0  0  0  0  0  0  0  0  0
    8.4030   -4.0130   25.3110 C   0  0  0  0  0  0  0  0  0  0  0  0
    9.3300   -5.0400   25.4010 C   0  0  0  0  0  0  0  0  0  0  0  0
    7.7610   -4.6200   26.8040 S   0  0  0  0  0  0  0  0  0  0  0  0
    5.9250   -4.2370   23.8910 C   0  0  2  0  0  0  0  0  0  0  0  0
    9.2150   -0.3830   24.7650 C   0  0  0  0  0  0  0  0  0  0  0  0
    9.3580   -5.9380   26.4190 C   0  0  0  0  0  0  0  0  0  0  0  0
    8.5190   -5.9940   27.4790 C   0  0  0  0  0  0  0  0  0  0  0  0
    5.2150   -5.4870   24.2130 N   0  0  0  0  0  0  0  0  0  0  0  0
    7.0460   -4.5960   23.1190 C   0  0  0  0  0  0  0  0  0  0  0  0
    7.4070   -5.6760   28.4250 C   0  0  0  0  0  0  0  0  0  0  0  0
    9.5060    0.0600   23.3180 C   0  0  0  0  0  0  0  0  0  0  0  0
    4.6170   -6.0600   23.0180 C   0  0  0  0  0  0  0  0  0  0  0  0
    6.5720   -5.2220   21.8550 N   0  0  0  0  0  0  0  0  0  0  0  0
    6.5360   -4.4720   20.6570 C   0  0  0  0  0  0  0  0  0  0  0  0
    5.6960   -6.3840   21.9870 C   0  0  0  0  0  0  0  0  0  0  0  0
   10.9180   -0.2310   22.9300 C   0  0  0  0  0  0  0  0  0  0  0  0
    5.5300   -4.5170   19.9380 O   0  0  0  0  0  0  0  0  0  0  0  0
    7.7870   -3.6260   20.3430 C   0  0  0  0  0  0  0  0  0  0  0  0
   12.0190    0.6110   23.2000 C   0  0  0  0  0  0  0  0  0  0  0  0
   11.4560   -1.4700   22.1750 C   0  0  0  0  0  0  0  0  0  0  0  0
   13.1930    0.0970   22.7230 C   0  0  0  0  0  0  0  0  0  0  0  0
   13.1400   -1.4190   21.9220 S   0  0  0  0  0  0  0  0  0  0  0  0
  1  2  1  0
  2  3  2  3
  1  4  1  0
  1  5  1  0
  5  6  2  0
  5  7  1  0
  8  4  1  1
  3  9  1  0
  6 10  1  0
  7 11  1  0
 10 11  2  0
  8 12  1  0
  8 13  1  0
 11 14  1  0
  9 15  1  0
 12 16  1  0
 13 17  1  0
 17 18  1  0
 16 19  1  0
 17 19  1  0
 15 20  1  0
 18 21  2  0
 18 22  1  0
 20 23  1  0
 20 24  2  0
 23 25  2  0
 24 26  1  0
 25 26  1  0
M  END
