x0874_0-x1358_0-x0692_1
     RDKit          3D

 24 26  0  0  0  0  0  0  0  0999 V2000
    6.2090   -3.2070   19.8540 C   0  0  0  0  0  0  0  0  0  0  0  0
    7.2130   -2.9590   18.7440 C   0  0  0  0  0  0  0  0  0  0  0  0
    5.3830   -4.1240   19.7330 O   0  0  0  0  0  0  0  0  0  0  0  0
    6.2790   -2.3870   20.9670 N   0  0  0  0  0  0  0  0  0  0  0  0
    6.7240   -1.1390   20.9630 C   0  0  0  0  0  0  0  0  0  0  0  0
    6.1890   -3.0360   22.2750 C   0  0  0  0  0  0  0  0  0  0  0  0
    7.9650   -0.8740   21.7820 C   0  0  0  0  0  0  0  0  0  0  0  0
    7.4450   -3.2800   22.7910 C   0  0  0  0  0  0  0  0  0  0  0  0
    8.2220   -1.9490   22.8210 C   0  0  0  0  0  0  0  0  0  0  0  0
    8.5420   -1.5700   24.2990 C   0  0  0  0  0  0  0  0  0  0  0  0
    9.7450   -2.1150   23.0550 C   0  0  0  0  0  0  0  0  0  0  0  0
    7.5020   -2.0990   25.2740 N   0  0  0  0  0  0  0  0  0  0  0  0
   10.6140   -0.8630   23.2450 C   0  0  0  0  0  0  0  0  0  0  0  0
    7.1830   -1.3000   26.4260 C   0  0  0  0  0  0  0  0  0  0  0  0
   11.6360    0.1650   23.2710 C   0  0  0  0  0  0  0  0  0  0  0  0
   11.4870   -1.7220   22.4690 C   0  0  0  0  0  0  0  0  0  0  0  0
    7.8640   -1.5000   27.7920 C   0  0  0  0  0  0  0  0  0  0  0  0
    6.2000   -0.2870   26.2960 C   0  0  0  0  0  0  0  0  0  0  0  0
   12.8840    0.1070   22.7160 C   0  0  0  0  0  0  0  0  0  0  0  0
   13.0860   -1.3440   21.9650 S   0  0  0  0  0  0  0  0  0  0  0  0
    5.5990   -0.1350   25.0710 O   0  0  0  0  0  0  0  0  0  0  0  0
    7.5180   -0.6880   28.8730 C   0  0  0  0  0  0  0  0  0  0  0  0
    5.7860    0.6450   27.4830 C   0  0  0  0  0  0  0  0  0  0  0  0
    6.4500    0.4060   28.6870 C   0  0  0  0  0  0  0  0  0  0  0  0
  1  2  1  0
  1  3  2  0
  1  4  1  0
  4  5  1  0
  4  6  1  0
  5  7  1  0
  6  8  1  0
  7  9  1  0
  8  9  1  0
  9 10  1  0
  9 11  1  0
 10 12  1  0
 11 13  1  0
 12 14  1  0
 13 15  1  0
 13 16  2  0
 14 17  2  0
 14 18  1  0
 15 19  2  0
 16 20  1  0
 19 20  1  0
 18 21  1  0
 17 22  1  0
 18 23  2  0
 22 24  2  0
 23 24  1  0
M  END
