x0874_0-x1412_0-x1425_1
     RDKit          3D

 24 26  0  0  0  0  0  0  0  0999 V2000
    6.0410   -3.8850   20.0350 C   0  0  0  0  0  0  0  0  0  0  0  0
    6.9830   -3.1750   19.0720 C   0  0  0  0  0  0  0  0  0  0  0  0
    5.0380   -4.4660   19.7390 O   0  0  0  0  0  0  0  0  0  0  0  0
    6.3880   -3.8680   21.3310 N   0  0  0  0  0  0  0  0  0  0  0  0
    6.2830   -2.6410   22.0730 C   0  0  0  0  0  0  0  0  0  0  0  0
    6.3300   -5.1330   22.0720 C   0  0  0  0  0  0  0  0  0  0  0  0
    6.6080   -2.9680   23.5100 C   0  0  2  0  0  0  0  0  0  0  0  0
    5.4280   -4.9790   23.1670 C   0  0  0  0  0  0  0  0  0  0  0  0
    8.0740   -3.3670   23.5470 C   0  0  0  0  0  0  0  0  0  0  0  0
    5.7210   -4.0130   24.0260 N   0  0  0  0  0  0  0  0  0  0  0  0
    8.7040   -2.7760   24.8000 C   0  0  0  0  0  0  0  0  0  0  0  0
    8.2880   -1.6560   25.2880 N   0  0  0  0  0  0  0  0  0  0  0  0
    8.6340   -3.8570   25.8320 C   0  0  0  0  0  0  0  0  0  0  0  0
    9.1690   -0.4870   25.3550 C   0  0  0  0  0  0  0  0  0  0  0  0
    9.4010   -4.9630   25.6070 C   0  0  0  0  0  0  0  0  0  0  0  0
    7.7420   -3.9260   27.2660 S   0  0  0  0  0  0  0  0  0  0  0  0
    9.7570   -0.1990   23.9690 C   0  0  0  0  0  0  0  0  0  0  0  0
    9.2630   -5.9160   26.6400 C   0  0  0  0  0  0  0  0  0  0  0  0
    8.3970   -5.4790   27.5980 C   0  0  0  0  0  0  0  0  0  0  0  0
   11.0790   -0.3960   23.2830 C   0  0  0  0  0  0  0  0  0  0  0  0
   12.1090    0.5050   23.4110 C   0  0  0  0  0  0  0  0  0  0  0  0
   11.4280   -1.4700   22.4700 C   0  0  0  0  0  0  0  0  0  0  0  0
   13.2260    0.1290   22.7180 C   0  0  0  0  0  0  0  0  0  0  0  0
   13.0310   -1.3570   21.8970 S   0  0  0  0  0  0  0  0  0  0  0  0
  1  2  1  0
  1  3  2  0
  1  4  1  0
  4  5  1  0
  4  6  1  0
  5  7  1  0
  6  8  1  0
  7  9  1  6
  7 10  1  0
  8 10  1  0
  9 11  1  0
 11 12  2  3
 11 13  1  0
 12 14  1  0
 13 15  2  0
 13 16  1  0
 14 17  1  0
 15 18  1  0
 16 19  1  0
 18 19  2  0
 17 20  1  0
 20 21  1  0
 20 22  2  0
 21 23  2  0
 22 24  1  0
 23 24  1  0
M  END
