x0874_0-x0820_1-x0771_0-x0434_2-x1412_0
     RDKit          3D

 40 45  0  0  0  0  0  0  0  0999 V2000
    6.4890   -4.1730   20.4190 C   0  0  0  0  0  0  0  0  0  0  0  0
    7.7370   -3.4090   19.9420 C   0  0  0  0  0  0  0  0  0  0  0  0
    5.4400   -4.2000   19.7810 O   0  0  0  0  0  0  0  0  0  0  0  0
    6.5570   -4.8790   21.6280 N   0  0  0  0  0  0  0  0  0  0  0  0
    5.9670   -6.2150   21.7710 C   0  0  0  0  0  0  0  0  0  0  0  0
    7.0070   -4.2610   22.9330 C   0  0  1  0  0  0  0  0  0  0  0  0
    7.3350   -2.7880   22.7550 C   0  0  1  0  0  0  0  0  0  0  0  0
    5.0840   -6.2140   22.8160 C   0  0  0  0  0  0  0  0  0  0  0  0
    6.0790   -4.4990   23.9880 C   0  0  1  0  0  0  0  0  0  0  0  0
    8.4790   -2.4570   23.6390 C   0  0  0  0  0  0  0  0  0  0  0  0
    7.5220   -2.1650   21.3470 C   0  0  0  0  0  0  0  0  0  0  0  0
    5.7670   -5.7320   23.9720 N   0  0  0  0  0  0  0  0  0  0  0  0
    6.4870   -4.4390   25.3240 C   0  0  0  0  0  0  0  0  0  0  0  0
    4.7730   -4.0410   23.7550 C   0  0  0  0  0  0  0  0  0  0  0  0
    7.7380   -1.7680   24.8050 C   0  0  0  0  0  0  0  0  0  0  0  0
    7.1660   -0.7380   21.3040 N   0  0  0  0  0  0  0  0  0  0  0  0
    5.5240   -4.3250   26.3640 C   0  0  0  0  0  0  0  0  0  0  0  0
    3.8820   -3.8430   24.7830 C   0  0  0  0  0  0  0  0  0  0  0  0
    7.9200   -4.5490   25.8610 C   0  0  0  0  0  0  0  0  0  0  0  0
    8.2820   -0.6120   25.4890 N   0  0  0  0  0  0  0  0  0  0  0  0
    4.2000   -4.0410   26.1240 C   0  0  0  0  0  0  0  0  0  0  0  0
    8.2030   -4.6380   27.2220 C   0  0  0  0  0  0  0  0  0  0  0  0
    5.9190   -4.4700   27.8160 C   0  0  0  0  0  0  0  0  0  0  0  0
    9.1870   -4.6420   25.1090 C   0  0  0  0  0  0  0  0  0  0  0  0
    6.5370   -0.0980   20.2210 C   0  0  0  0  0  0  0  0  0  0  0  0
    9.6090   -0.2360   25.0210 C   0  0  0  0  0  0  0  0  0  0  0  0
    7.2490   -4.6080   28.2270 C   0  0  0  0  0  0  0  0  0  0  0  0
   10.2320   -4.8480   26.1880 C   0  0  0  0  0  0  0  0  0  0  0  0
    9.5850   -4.8460   27.4010 C   0  0  0  0  0  0  0  0  0  0  0  0
    6.9840   -0.1100   18.8930 C   0  0  0  0  0  0  0  0  0  0  0  0
    5.3630    0.6240   20.4650 C   0  0  0  0  0  0  0  0  0  0  0  0
    9.6570    0.0180   23.6460 C   0  0  0  0  0  0  0  0  0  0  0  0
    6.4160    0.5070   17.8220 N   0  0  0  0  0  0  0  0  0  0  0  0
    4.6270    1.3600   19.3300 C   0  0  0  0  0  0  0  0  0  0  0  0
    5.2910    1.2160   18.0050 C   0  0  0  0  0  0  0  0  0  0  0  0
   11.0160   -0.2890   23.1060 C   0  0  0  0  0  0  0  0  0  0  0  0
   12.0830    0.5700   23.2270 C   0  0  0  0  0  0  0  0  0  0  0  0
   11.4020   -1.4430   22.4260 C   0  0  0  0  0  0  0  0  0  0  0  0
   13.2520    0.1290   22.6760 C   0  0  0  0  0  0  0  0  0  0  0  0
   13.0530   -1.4180   21.9730 S   0  0  0  0  0  0  0  0  0  0  0  0
  1  2  1  0
  1  3  2  0
  1  4  1  0
  4  5  1  0
  6  4  1  6
  6  7  1  0
  5  8  1  0
  6  9  1  0
  7 10  1  1
  7 11  1  0
  8 12  1  0
  9 12  1  0
  9 13  1  0
  9 14  1  1
 10 15  1  0
 11 16  1  0
 13 17  1  0
 14 18  2  0
 13 19  2  0
 15 20  2  3
 17 21  2  0
 18 21  1  0
 19 22  1  0
 17 23  1  0
 19 24  1  0
 16 25  1  0
 20 26  1  0
 22 27  1  0
 23 27  2  0
 24 28  2  0
 22 29  2  0
 28 29  1  0
 25 30  2  0
 25 31  1  0
 26 32  1  0
 30 33  1  0
 31 34  2  0
 33 35  2  0
 34 35  1  0
 32 36  1  0
 36 37  1  0
 36 38  2  0
 37 39  2  0
 38 40  1  0
 39 40  1  0
M  END
