x0874_0-x0831_1-x0072_0
     RDKit          3D

 21 22  0  0  0  0  0  0  0  0999 V2000
    6.1560   -3.4660   20.0480 C   0  0  0  0  0  0  0  0  0  0  0  0
    7.1150   -3.0360   18.9360 C   0  0  0  0  0  0  0  0  0  0  0  0
    5.3230   -4.3450   19.8250 O   0  0  0  0  0  0  0  0  0  0  0  0
    6.2430   -2.8710   21.3080 N   0  0  0  0  0  0  0  0  0  0  0  0
    5.9160   -1.4640   21.5000 C   0  0  0  0  0  0  0  0  0  0  0  0
    7.1000   -3.5650   22.3120 C   0  0  0  0  0  0  0  0  0  0  0  0
    7.0510   -0.4450   21.4020 C   0  0  0  0  0  0  0  0  0  0  0  0
    7.6790   -2.8550   23.3320 C   0  0  1  0  0  0  0  0  0  0  0  0
    8.5100   -3.7550   24.1860 N   0  0  0  0  0  0  0  0  0  0  0  0
    8.6010   -1.7740   22.8650 N   0  0  0  0  0  0  0  0  0  0  0  0
    8.3810   -1.1590   21.6140 C   0  0  0  0  0  0  0  0  0  0  0  0
    8.1440   -4.3390   25.9140 S   0  0  0  0  0  0  0  0  0  0  0  0
    9.8970   -2.1330   22.8640 C   0  0  0  0  0  0  0  0  0  0  0  0
    6.4830   -4.9880   25.8290 C   0  0  0  0  0  0  0  0  0  0  0  0
    9.0240   -5.4570   26.1820 O   0  0  0  0  0  0  0  0  0  0  0  0
    8.1200   -3.1990   26.8020 O   0  0  0  0  0  0  0  0  0  0  0  0
   10.7440   -0.8740   23.0690 C   0  0  0  0  0  0  0  0  0  0  0  0
   11.8290    0.1790   23.1020 C   0  0  0  0  0  0  0  0  0  0  0  0
   11.6540   -1.7260   22.3630 C   0  0  0  0  0  0  0  0  0  0  0  0
   13.1070    0.0450   22.5740 C   0  0  0  0  0  0  0  0  0  0  0  0
   13.2720   -1.4360   21.8800 S   0  0  0  0  0  0  0  0  0  0  0  0
  1  2  1  0
  1  3  2  0
  1  4  1  0
  4  5  1  0
  4  6  1  0
  5  7  1  0
  6  8  1  0
  8  9  1  1
  8 10  1  0
  7 11  1  0
 10 11  1  0
 12  9  1  0
 10 13  1  0
 12 14  1  0
 12 15  2  0
 12 16  2  0
 13 17  1  0
 17 18  1  0
 17 19  2  0
 18 20  2  0
 19 21  1  0
 20 21  1  0
M  END
