x0874_1-x1308_0
     RDKit          3D

 19 20  0  0  0  0  0  0  0  0999 V2000
    6.5010   -4.4720   20.5670 C   0  0  0  0  0  0  0  0  0  0  0  0
    7.4610   -3.4510   19.9440 C   0  0  0  0  0  0  0  0  0  0  0  0
    5.4530   -4.7510   19.9910 O   0  0  0  0  0  0  0  0  0  0  0  0
    6.8090   -5.1310   21.7620 N   0  0  0  0  0  0  0  0  0  0  0  0
    7.6560   -4.7440   22.7910 C   0  0  0  0  0  0  0  0  0  0  0  0
    5.9390   -6.2050   22.1960 C   0  0  0  0  0  0  0  0  0  0  0  0
    6.8700   -4.1050   23.7570 C   0  0  1  0  0  0  0  0  0  0  0  0
    5.3320   -5.7320   23.3630 C   0  0  0  0  0  0  0  0  0  0  0  0
    6.1520   -2.8190   23.4140 C   0  0  0  0  0  0  0  0  0  0  0  0
    6.0620   -5.0550   24.2940 N   0  0  0  0  0  0  0  0  0  0  0  0
    6.7260   -1.5640   24.0990 C   0  0  0  0  0  0  0  0  0  0  0  0
    7.5560   -0.6860   23.1320 C   0  0  1  0  0  0  0  0  0  0  0  0
    7.6140    0.6080   23.5170 C   0  0  0  0  0  0  0  0  0  0  0  0
    8.8070   -1.2710   22.9600 C   0  0  0  0  0  0  0  0  0  0  0  0
    9.7520   -0.1160   23.2750 C   0  0  0  0  0  0  0  0  0  0  0  0
    8.9650    0.9900   23.3440 C   0  0  1  0  0  0  0  0  0  0  0  0
    9.1820    1.8960   22.1380 C   0  0  0  0  0  0  0  0  0  0  0  0
   10.0140    3.0980   22.3370 N   0  0  0  0  0  0  0  0  0  0  0  0
    8.7210    1.6940   21.0170 O   0  0  0  0  0  0  0  0  0  0  0  0
  1  2  1  0
  1  3  2  0
  1  4  1  0
  4  5  1  0
  4  6  1  0
  5  7  1  0
  6  8  1  0
  7  9  1  6
  7 10  1  0
  8 10  1  0
  9 11  1  0
 12 11  1  1
 12 13  1  0
 12 14  1  0
 14 15  1  0
 13 16  1  0
 15 16  1  0
 16 17  1  6
 17 18  1  0
 17 19  2  0
M  END
