x0874_0-x1412_0-x1386_1
     RDKit          3D

 22 24  0  0  0  0  0  0  0  0999 V2000
    6.3950   -3.1640   19.8550 C   0  0  0  0  0  0  0  0  0  0  0  0
    7.3820   -2.9900   18.7340 C   0  0  0  0  0  0  0  0  0  0  0  0
    5.4490   -3.9550   19.6710 O   0  0  0  0  0  0  0  0  0  0  0  0
    6.6020   -2.4720   21.0270 N   0  0  0  0  0  0  0  0  0  0  0  0
    7.6190   -1.4230   21.0170 C   0  0  0  0  0  0  0  0  0  0  0  0
    6.5530   -3.2570   22.2550 C   0  0  0  0  0  0  0  0  0  0  0  0
    7.8250   -1.0200   22.4730 C   0  0  0  0  0  0  0  0  0  0  0  0
    7.8310   -3.5630   22.6810 C   0  0  0  0  0  0  0  0  0  0  0  0
    8.4460   -2.2430   23.1600 C   0  0  0  0  0  0  0  0  0  0  0  0
    8.2870   -2.2880   24.7100 C   0  0  0  0  0  0  0  0  0  0  0  0
    9.9110   -2.2710   22.7500 C   0  0  0  0  0  0  0  0  0  0  0  0
    7.8470   -1.1200   25.3300 O   0  0  0  0  0  0  0  0  0  0  0  0
    8.5700   -3.5770   25.4750 C   0  0  0  0  0  0  0  0  0  0  0  0
   10.6740   -0.9950   22.9910 C   0  0  0  0  0  0  0  0  0  0  0  0
    9.4900   -4.7740   25.1390 C   0  0  0  0  0  0  0  0  0  0  0  0
    7.7910   -3.8610   27.0060 S   0  0  0  0  0  0  0  0  0  0  0  0
   11.6020    0.0910   23.0970 C   0  0  0  0  0  0  0  0  0  0  0  0
   11.7630   -1.8630   22.2300 C   0  0  0  0  0  0  0  0  0  0  0  0
    9.3880   -5.7940   26.2880 C   0  0  0  0  0  0  0  0  0  0  0  0
    8.5250   -5.3760   27.2830 C   0  0  0  0  0  0  0  0  0  0  0  0
   13.0020    0.0710   22.5900 C   0  0  0  0  0  0  0  0  0  0  0  0
   13.3460   -1.3580   21.8660 S   0  0  0  0  0  0  0  0  0  0  0  0
  1  2  1  0
  1  3  2  0
  1  4  1  0
  4  5  1  0
  4  6  1  0
  5  7  1  0
  6  8  1  0
  7  9  1  0
  8  9  1  0
  9 10  1  0
  9 11  1  0
 10 12  2  0
 10 13  1  0
 11 14  1  0
 13 15  2  0
 13 16  1  0
 14 17  1  0
 14 18  2  0
 15 19  1  0
 16 20  1  0
 19 20  2  0
 17 21  2  0
 18 22  1  0
 21 22  1  0
M  END
