x0874_0-x0107_0-x1336_1
     RDKit          3D

 29 31  0  0  0  0  0  0  0  0999 V2000
    9.5650   -1.3220   22.1710 C   0  0  2  0  0  0  0  0  0  0  0  0
    8.7420   -0.2230   21.5920 C   0  0  0  0  0  0  0  0  0  0  0  0
    9.1620    0.9330   21.5140 O   0  0  0  0  0  0  0  0  0  0  0  0
    8.9550   -1.7790   23.4450 C   0  0  0  0  0  0  0  0  0  0  0  0
   10.9870   -0.9340   22.3640 C   0  0  0  0  0  0  0  0  0  0  0  0
    7.5020   -0.6300   21.1690 N   0  0  0  0  0  0  0  0  0  0  0  0
    9.2030   -0.7290   24.5280 C   0  0  0  0  0  0  0  0  0  0  0  0
   11.4830    0.2690   22.9790 C   0  0  0  0  0  0  0  0  0  0  0  0
   11.9720   -1.7390   21.9390 C   0  0  0  0  0  0  0  0  0  0  0  0
    8.1190   -0.8100   25.4850 N   0  0  0  0  0  0  0  0  0  0  0  0
    6.7170   -0.0140   20.1430 C   0  0  0  0  0  0  0  0  0  0  0  0
   12.8490    0.2980   22.9710 C   0  0  0  0  0  0  0  0  0  0  0  0
   13.4760   -1.0980   22.2470 S   0  0  0  0  0  0  0  0  0  0  0  0
    7.1260   -1.9810   25.3480 S   0  0  2  0  0  0  0  0  0  0  0  0
    5.6520    0.7170   20.5160 C   0  0  0  0  0  0  0  0  0  0  0  0
    7.0240   -0.1490   18.7860 C   0  0  0  0  0  0  0  0  0  0  0  0
    5.2670    0.8920   21.9570 C   0  0  0  0  0  0  0  0  0  0  0  0
    5.7200   -1.8470   25.6320 O   0  0  0  0  0  0  0  0  0  0  0  0
    4.8110    1.3920   19.4310 C   0  0  0  0  0  0  0  0  0  0  0  0
    6.3400    0.4100   17.7560 N   0  0  0  0  0  0  0  0  0  0  0  0
    7.6750   -3.3170   26.2510 C   0  0  0  0  0  0  0  0  0  0  0  0
    5.1880    1.2120   18.1350 C   0  0  0  0  0  0  0  0  0  0  0  0
    6.8000   -3.8150   27.2660 C   0  0  0  0  0  0  0  0  0  0  0  0
    8.9130   -4.0010   26.1020 C   0  0  0  0  0  0  0  0  0  0  0  0
    9.9780   -3.6510   25.1100 C   0  0  0  0  0  0  0  0  0  0  0  0
    7.0480   -4.9190   28.1280 C   0  0  0  0  0  0  0  0  0  0  0  0
    9.1740   -5.0960   26.9480 C   0  0  0  0  0  0  0  0  0  0  0  0
    6.0740   -5.3840   29.1670 C   0  0  0  0  0  0  0  0  0  0  0  0
    8.2610   -5.5350   27.9270 C   0  0  0  0  0  0  0  0  0  0  0  0
  1  2  1  0
  2  3  2  0
  1  4  1  1
  1  5  1  0
  2  6  1  0
  4  7  1  0
  5  8  1  0
  5  9  2  0
  7 10  1  0
  6 11  1  0
  8 12  2  0
  9 13  1  0
 12 13  1  0
 10 14  2  0
 11 15  2  0
 11 16  1  0
 15 17  1  0
 14 18  2  0
 15 19  1  0
 16 20  2  0
 14 21  1  1
 19 22  2  0
 20 22  1  0
 21 23  2  0
 21 24  1  0
 24 25  1  0
 23 26  1  0
 24 27  2  0
 26 28  1  0
 26 29  2  0
 27 29  1  0
M  END
