x0874_0-x1336_1-x0769_0-x0981_1
     RDKit          3D

 39 42  0  0  0  0  0  0  0  0999 V2000
    2.9940   -6.1560   23.2900 C   0  0  1  0  0  0  0  0  0  0  0  0
    2.8080   -7.2910   22.7180 N   0  0  0  0  0  0  0  0  0  0  0  0
    1.5030   -7.5890   22.0790 C   0  0  0  0  0  0  0  0  0  0  0  0
    2.6090   -6.3490   24.7660 C   0  0  0  0  0  0  0  0  0  0  0  0
    4.4200   -5.4870   23.0820 C   0  0  1  0  0  0  0  0  0  0  0  0
    3.0740   -7.7090   25.1680 C   0  0  0  0  0  0  0  0  0  0  0  0
    4.8290   -5.0850   24.3860 N   0  0  0  0  0  0  0  0  0  0  0  0
    5.4140   -6.0640   22.3290 C   0  0  0  0  0  0  0  0  0  0  0  0
    3.7730   -4.0970   24.6270 O   0  0  0  0  0  0  0  0  0  0  0  0
    1.2250   -8.8370   21.2500 C   0  0  0  0  0  0  0  0  0  0  0  0
    0.4440   -6.6290   22.1950 O   0  0  0  0  0  0  0  0  0  0  0  0
    2.4310   -8.3310   26.2030 N   0  0  0  0  0  0  0  0  0  0  0  0
    3.9950   -8.2380   24.6010 O   0  0  0  0  0  0  0  0  0  0  0  0
    6.4110   -5.2260   21.8890 N   0  0  0  0  0  0  0  0  0  0  0  0
    6.1260   -4.3140   24.3400 C   0  0  2  0  0  0  0  0  0  0  0  0
    4.2970   -2.8540   24.2120 C   0  0  0  0  0  0  0  0  0  0  0  0
    5.6740   -2.9590   24.8730 C   0  0  2  0  0  0  0  0  0  0  0  0
    6.3370   -4.5660   20.6520 C   0  0  0  0  0  0  0  0  0  0  0  0
    6.9480   -4.3690   22.9890 C   0  0  0  0  0  0  0  0  0  0  0  0
    6.4750   -1.7960   24.5620 N   0  0  0  0  0  0  0  0  0  0  0  0
    5.3480   -4.7300   19.9500 O   0  0  0  0  0  0  0  0  0  0  0  0
    7.4740   -3.6010   20.2230 C   0  0  0  0  0  0  0  0  0  0  0  0
    7.6930   -1.8580   25.4850 S   0  0  2  0  0  0  0  0  0  0  0  0
    9.0040   -1.4450   24.7750 N   0  0  0  0  0  0  0  0  0  0  0  0
    7.8580   -3.3450   26.3990 C   0  0  0  0  0  0  0  0  0  0  0  0
    9.2180   -0.0170   24.5960 C   0  0  0  0  0  0  0  0  0  0  0  0
    6.8970   -3.5820   27.3550 C   0  0  0  0  0  0  0  0  0  0  0  0
    9.0190   -4.3600   26.1650 C   0  0  0  0  0  0  0  0  0  0  0  0
   10.0510   -4.0840   25.1210 C   0  0  0  0  0  0  0  0  0  0  0  0
    9.4770    0.2550   23.1540 C   0  0  0  0  0  0  0  0  0  0  0  0
    6.9910   -4.8660   28.1850 C   0  0  0  0  0  0  0  0  0  0  0  0
    9.1980   -5.5160   26.8370 C   0  0  0  0  0  0  0  0  0  0  0  0
    5.9470   -5.1300   29.2200 C   0  0  0  0  0  0  0  0  0  0  0  0
    8.1580   -5.7610   27.8630 C   0  0  0  0  0  0  0  0  0  0  0  0
   10.8810   -0.1910   22.8130 C   0  0  0  0  0  0  0  0  0  0  0  0
   12.1110    0.5700   23.0400 C   0  0  0  0  0  0  0  0  0  0  0  0
   11.2990   -1.3990   22.2160 C   0  0  0  0  0  0  0  0  0  0  0  0
   13.2670    0.0920   22.6990 C   0  0  0  0  0  0  0  0  0  0  0  0
   13.1400   -1.4710   21.9960 S   0  0  0  0  0  0  0  0  0  0  0  0
  1  2  1  0
  2  3  1  0
  1  4  1  1
  1  5  1  0
  4  6  1  0
  5  7  1  0
  5  8  1  1
  7  9  1  0
  3 10  1  0
  3 11  2  0
  6 12  1  0
  6 13  2  0
  8 14  1  0
  7 15  1  0
  9 16  1  0
 15 17  1  0
 16 17  1  0
 14 18  1  0
 14 19  1  0
 15 19  1  6
 17 20  1  6
 18 21  2  0
 18 22  1  0
 20 23  2  0
 23 24  2  0
 23 25  1  6
 24 26  1  0
 25 27  2  0
 25 28  1  0
 28 29  1  0
 26 30  1  0
 27 31  1  0
 28 32  2  0
 31 33  1  0
 31 34  2  0
 32 34  1  0
 30 35  1  0
 35 36  1  0
 35 37  2  0
 36 38  2  0
 37 39  1  0
 38 39  1  0
M  END
