x0874_0-x0831_1-x1412_0-x1385_1
     RDKit          3D

 24 27  0  0  0  0  0  0  0  0999 V2000
    6.2400   -3.4460   19.9630 C   0  0  0  0  0  0  0  0  0  0  0  0
    7.2510   -3.0400   18.9010 C   0  0  0  0  0  0  0  0  0  0  0  0
    5.2820   -4.1750   19.7280 O   0  0  0  0  0  0  0  0  0  0  0  0
    6.4800   -2.9960   21.2490 N   0  0  0  0  0  0  0  0  0  0  0  0
    6.2480   -1.5880   21.6430 C   0  0  0  0  0  0  0  0  0  0  0  0
    7.1480   -3.7450   22.3140 C   0  0  0  0  0  0  0  0  0  0  0  0
    7.6150   -0.9270   21.4770 C   0  0  0  0  0  0  0  0  0  0  0  0
    7.5110   -2.8720   23.3160 C   0  0  0  0  0  0  0  0  0  0  0  0
    9.0210   -2.5310   23.3150 C   0  0  2  0  0  0  0  0  0  0  0  0
    8.8180   -1.8210   21.9290 C   0  0  0  0  0  0  0  0  0  0  0  0
    8.5670   -2.4110   24.8030 C   0  0  0  0  0  0  0  0  0  0  0  0
    9.6820   -1.2740   23.8400 C   0  0  2  0  0  0  0  0  0  0  0  0
    8.1720   -1.0610   25.3460 N   0  0  0  0  0  0  0  0  0  0  0  0
    8.5570   -0.3080   24.1930 C   0  0  0  0  0  0  0  0  0  0  0  0
    8.5490   -3.5980   25.7590 C   0  0  0  0  0  0  0  0  0  0  0  0
   11.0170   -0.9110   23.2630 C   0  0  0  0  0  0  0  0  0  0  0  0
    9.4480   -4.5680   25.6540 C   0  0  0  0  0  0  0  0  0  0  0  0
    7.4820   -3.9260   27.0790 S   0  0  0  0  0  0  0  0  0  0  0  0
   11.8720    0.3100   23.4640 C   0  0  0  0  0  0  0  0  0  0  0  0
   11.7040   -1.7570   22.4060 C   0  0  0  0  0  0  0  0  0  0  0  0
    9.3440   -5.6110   26.5900 C   0  0  0  0  0  0  0  0  0  0  0  0
    8.2720   -5.4120   27.4960 C   0  0  0  0  0  0  0  0  0  0  0  0
   13.1840    0.3130   22.7410 C   0  0  0  0  0  0  0  0  0  0  0  0
   13.2390   -1.1840   21.8850 S   0  0  0  0  0  0  0  0  0  0  0  0
  1  2  1  0
  1  3  2  0
  1  4  1  0
  4  5  1  0
  4  6  1  0
  5  7  1  0
  6  8  1  0
  9  8  1  6
  7 10  1  0
  9 10  1  0
  9 11  1  0
  9 12  1  0
 11 13  2  0
 12 14  1  0
 13 14  1  0
 11 15  1  0
 12 16  1  6
 15 17  2  0
 15 18  1  0
 16 19  1  0
 16 20  2  0
 17 21  1  0
 18 22  1  0
 21 22  2  0
 19 23  2  0
 20 24  1  0
 23 24  1  0
M  END
