x0946_0-x1375_0
     RDKit          3D

 22 23  0  0  0  0  0  0  0  0999 V2000
    9.3060    5.2260   22.7030 N   0  0  0  0  0  0  0  0  0  0  0  0
   10.6170    5.1910   23.7520 S   0  0  0  0  0  0  0  0  0  0  0  0
   10.0400    5.4390   25.0360 O   0  0  0  0  0  0  0  0  0  0  0  0
   11.5800    6.1070   23.1880 O   0  0  0  0  0  0  0  0  0  0  0  0
   11.2480    3.5420   23.5570 C   0  0  0  0  0  0  0  0  0  0  0  0
   12.5190    3.3650   23.0190 C   0  0  0  0  0  0  0  0  0  0  0  0
   10.5800    2.3570   23.9010 C   0  0  0  0  0  0  0  0  0  0  0  0
   13.0640    2.1110   22.8340 C   0  0  0  0  0  0  0  0  0  0  0  0
   11.1540    1.0780   23.7070 C   0  0  0  0  0  0  0  0  0  0  0  0
   12.4460    0.9210   23.1420 C   0  0  0  0  0  0  0  0  0  0  0  0
   13.0690   -0.1310   22.9010 O   0  0  0  0  0  0  0  0  0  0  0  0
   12.2660   -1.2630   22.5660 C   0  0  0  0  0  0  0  0  0  0  0  0
   11.6390   -1.7020   23.7070 C   0  0  0  0  0  0  0  0  0  0  0  0
   11.8030   -3.0330   24.0520 C   0  0  0  0  0  0  0  0  0  0  0  0
   11.6210   -3.4020   25.5110 C   0  0  0  0  0  0  0  0  0  0  0  0
   10.8190   -4.5730   25.7360 O   0  0  0  0  0  0  0  0  0  0  0  0
    9.6600   -4.5400   24.9300 C   0  0  0  0  0  0  0  0  0  0  0  0
    9.1290   -5.7460   24.5680 C   0  0  0  0  0  0  0  0  0  0  0  0
    9.0760   -3.3380   24.5010 C   0  0  0  0  0  0  0  0  0  0  0  0
    7.9150   -5.8300   23.6870 C   0  0  0  0  0  0  0  0  0  0  0  0
    7.9380   -3.3230   23.6760 C   0  0  0  0  0  0  0  0  0  0  0  0
    7.3480   -4.5060   23.2570 C   0  0  0  0  0  0  0  0  0  0  0  0
  2  1  1  0
  2  3  2  0
  2  4  2  0
  2  5  1  0
  5  6  2  0
  5  7  1  0
  6  8  1  0
  7  9  2  0
  8 10  2  0
  9 10  1  0
 10 11  1  0
 11 12  1  0
 12 13  1  0
 13 14  1  0
 14 15  1  0
 15 16  1  0
 16 17  1  0
 17 18  2  0
 17 19  1  0
 18 20  1  0
 19 21  2  0
 20 22  2  0
 21 22  1  0
M  END
