x0946_0-x0691_0
     RDKit          3D

 25 26  0  0  0  0  0  0  0  0999 V2000
    9.1500    5.1710   22.6860 N   0  0  0  0  0  0  0  0  0  0  0  0
   10.5140    5.3020   23.6530 S   0  0  0  0  0  0  0  0  0  0  0  0
   10.3300    5.5980   25.0590 O   0  0  0  0  0  0  0  0  0  0  0  0
   11.5070    6.2500   22.8310 O   0  0  0  0  0  0  0  0  0  0  0  0
   11.1500    3.6430   23.4920 C   0  0  0  0  0  0  0  0  0  0  0  0
   12.4220    3.4210   22.9920 C   0  0  0  0  0  0  0  0  0  0  0  0
   10.3940    2.5130   23.8670 C   0  0  0  0  0  0  0  0  0  0  0  0
   12.9380    2.0290   22.8850 C   0  0  0  0  0  0  0  0  0  0  0  0
   10.8970    1.1920   23.7530 C   0  0  0  0  0  0  0  0  0  0  0  0
   12.1790    0.9380   23.2610 C   0  0  0  0  0  0  0  0  0  0  0  0
   12.7960   -0.2830   23.1030 O   0  0  0  0  0  0  0  0  0  0  0  0
   12.4580   -1.3330   24.0070 C   0  0  0  0  0  0  0  0  0  0  0  0
   11.7200   -2.4700   23.2670 C   0  0  0  0  0  0  0  0  0  0  0  0
   10.2190   -2.6450   23.5700 C   0  0  0  0  0  0  0  0  0  0  0  0
    9.2910   -2.5900   22.3400 C   0  0  0  0  0  0  0  0  0  0  0  0
    7.7690   -2.9410   22.6000 C   0  0  0  0  0  0  0  0  0  0  0  0
    7.3860   -4.3900   22.8100 C   0  0  2  0  0  0  0  0  0  0  0  0
    6.6750   -5.0450   21.6790 N   0  0  0  0  0  0  0  0  0  0  0  0
    6.7960   -4.8600   23.9960 C   0  0  0  0  0  0  0  0  0  0  0  0
    6.3750   -4.3800   20.4730 C   0  0  0  0  0  0  0  0  0  0  0  0
    5.3350   -5.0450   24.0190 N   0  0  0  0  0  0  0  0  0  0  0  0
    5.8730   -6.2350   22.0050 C   0  0  0  0  0  0  0  0  0  0  0  0
    5.3000   -4.6140   19.9340 O   0  0  0  0  0  0  0  0  0  0  0  0
    7.3410   -3.3930   19.7860 C   0  0  0  0  0  0  0  0  0  0  0  0
    4.9170   -6.0280   23.0040 C   0  0  0  0  0  0  0  0  0  0  0  0
  2  1  1  0
  2  3  2  0
  2  4  2  0
  2  5  1  0
  5  6  2  0
  5  7  1  0
  6  8  1  0
  7  9  2  0
  8 10  2  0
  9 10  1  0
 10 11  1  0
 11 12  1  0
 12 13  1  0
 13 14  1  0
 14 15  1  0
 15 16  1  0
 17 16  1  6
 17 18  1  0
 17 19  1  0
 18 20  1  0
 19 21  1  0
 18 22  1  0
 20 23  2  0
 20 24  1  0
 21 25  1  0
 22 25  1  0
M  END
