x0946_0-x1374_0
     RDKit          3D

 22 23  0  0  0  0  0  0  0  0999 V2000
    9.2150    4.9990   22.7160 N   0  0  0  0  0  0  0  0  0  0  0  0
   10.5880    5.2970   23.7110 S   0  0  0  0  0  0  0  0  0  0  0  0
   10.1060    5.5680   25.0470 O   0  0  0  0  0  0  0  0  0  0  0  0
   11.4740    6.2180   23.0270 O   0  0  0  0  0  0  0  0  0  0  0  0
   11.1760    3.5920   23.5330 C   0  0  0  0  0  0  0  0  0  0  0  0
   12.5490    3.3560   22.9540 C   0  0  0  0  0  0  0  0  0  0  0  0
   10.4320    2.3050   23.9250 C   0  0  0  0  0  0  0  0  0  0  0  0
   12.9770    2.0430   22.8580 C   0  0  0  0  0  0  0  0  0  0  0  0
   10.9930    1.0230   23.7630 C   0  0  0  0  0  0  0  0  0  0  0  0
   12.2850    0.8910   23.2220 C   0  0  0  0  0  0  0  0  0  0  0  0
   12.9380   -0.1500   23.0130 O   0  0  0  0  0  0  0  0  0  0  0  0
   12.2960   -1.3820   22.6760 C   0  0  0  0  0  0  0  0  0  0  0  0
   11.3130   -1.7000   23.2740 C   0  0  0  0  0  0  0  0  0  0  0  0
   11.4040   -1.9170   24.6570 C   0  0  0  0  0  0  0  0  0  0  0  0
   11.7580   -3.2050   25.0300 C   0  0  0  0  0  0  0  0  0  0  0  0
   10.6060   -3.9860   25.6880 C   0  0  0  0  0  0  0  0  0  0  0  0
    9.4390   -4.1960   24.6930 C   0  0  0  0  0  0  0  0  0  0  0  0
    9.0020   -3.1270   23.9310 C   0  0  0  0  0  0  0  0  0  0  0  0
    8.8380   -5.4370   24.5600 C   0  0  0  0  0  0  0  0  0  0  0  0
    7.8680   -3.3470   22.9530 C   0  0  0  0  0  0  0  0  0  0  0  0
    7.7840   -5.6450   23.6490 C   0  0  0  0  0  0  0  0  0  0  0  0
    7.3190   -4.6010   22.8640 C   0  0  0  0  0  0  0  0  0  0  0  0
  2  1  1  0
  2  3  2  0
  2  4  2  0
  2  5  1  0
  5  6  2  0
  5  7  1  0
  6  8  1  0
  7  9  2  0
  8 10  2  0
  9 10  1  0
 10 11  1  0
 11 12  1  0
 12 13  1  0
 13 14  1  0
 14 15  1  0
 15 16  1  0
 16 17  1  0
 17 18  2  0
 17 19  1  0
 18 20  1  0
 19 21  2  0
 20 22  2  0
 21 22  1  0
M  END
