x0946_0-x0755_0
     RDKit          3D

 25 26  0  0  0  0  0  0  0  0999 V2000
    9.0810    5.2040   22.6860 N   0  0  0  0  0  0  0  0  0  0  0  0
   10.4370    5.2440   23.6770 S   0  0  0  0  0  0  0  0  0  0  0  0
    9.9600    5.5110   25.0150 O   0  0  0  0  0  0  0  0  0  0  0  0
   11.4760    6.3280   23.1430 O   0  0  0  0  0  0  0  0  0  0  0  0
   11.0970    3.6690   23.5090 C   0  0  0  0  0  0  0  0  0  0  0  0
   12.4560    3.5180   22.9360 C   0  0  0  0  0  0  0  0  0  0  0  0
   10.3800    2.5430   23.9010 C   0  0  0  0  0  0  0  0  0  0  0  0
   13.0340    2.2840   22.7910 C   0  0  0  0  0  0  0  0  0  0  0  0
   10.9440    1.2380   23.7600 C   0  0  0  0  0  0  0  0  0  0  0  0
   12.2340    1.0450   23.2270 C   0  0  0  0  0  0  0  0  0  0  0  0
   12.9240   -0.1980   23.0350 O   0  0  0  0  0  0  0  0  0  0  0  0
   12.5840   -1.2640   23.9120 C   0  0  0  0  0  0  0  0  0  0  0  0
   11.7530   -2.3040   23.1710 C   0  0  0  0  0  0  0  0  0  0  0  0
   10.4950   -2.7110   23.8940 C   0  0  0  0  0  0  0  0  0  0  0  0
    9.1890   -2.7780   23.0560 C   0  0  0  0  0  0  0  0  0  0  0  0
    7.8040   -3.0470   23.8000 C   0  0  0  0  0  0  0  0  0  0  0  0
    7.2200   -4.4810   23.6880 C   0  0  1  0  0  0  0  0  0  0  0  0
    5.8770   -4.4710   23.9750 N   0  0  0  0  0  0  0  0  0  0  0  0
    7.7020   -4.9840   22.5500 C   0  0  0  0  0  0  0  0  0  0  0  0
    6.6590   -5.3280   21.5940 N   0  0  0  0  0  0  0  0  0  0  0  0
    5.0940   -5.6020   23.4310 C   0  0  0  0  0  0  0  0  0  0  0  0
    6.3060   -4.5580   20.4820 C   0  0  0  0  0  0  0  0  0  0  0  0
    5.6650   -6.2180   22.1510 C   0  0  0  0  0  0  0  0  0  0  0  0
    5.2330   -4.7480   19.9450 O   0  0  0  0  0  0  0  0  0  0  0  0
    7.2370   -3.4800   19.8980 C   0  0  0  0  0  0  0  0  0  0  0  0
  2  1  1  0
  2  3  2  0
  2  4  2  0
  2  5  1  0
  5  6  2  0
  5  7  1  0
  6  8  1  0
  7  9  2  0
  8 10  2  0
  9 10  1  0
 10 11  1  0
 11 12  1  0
 12 13  1  0
 13 14  1  0
 14 15  1  0
 15 16  1  0
 17 16  1  6
 17 18  1  0
 17 19  1  0
 19 20  1  0
 18 21  1  0
 20 22  1  0
 20 23  1  0
 21 23  1  0
 22 24  2  0
 22 25  1  0
M  END
