x0967_1-x0874_0
     RDKit          3D

 16 17  0  0  0  0  0  0  0  0999 V2000
    5.7740    0.4120   17.2320 O   0  0  0  0  0  0  0  0  0  0  0  0
    5.7540    0.6980   18.5530 C   0  0  0  0  0  0  0  0  0  0  0  0
    6.6140   -0.0400   19.4130 C   0  0  0  0  0  0  0  0  0  0  0  0
    4.9430    1.6520   19.0480 C   0  0  0  0  0  0  0  0  0  0  0  0
    6.7800    0.0680   20.8570 C   0  0  0  0  0  0  0  0  0  0  0  0
    4.9790    1.8720   20.3670 C   0  0  0  0  0  0  0  0  0  0  0  0
    7.6710   -0.9350   20.5310 C   0  0  0  0  0  0  0  0  0  0  0  0
    5.8410    1.1080   21.1100 C   0  0  0  0  0  0  0  0  0  0  0  0
    8.8830   -0.9610   21.4740 C   0  0  0  0  0  0  0  0  0  0  0  0
    9.1250   -2.3350   22.0720 C   0  0  0  0  0  0  0  0  0  0  0  0
   10.1830   -2.2580   23.1660 C   0  0  0  0  0  0  0  0  0  0  0  0
   11.5360   -1.9110   22.6150 C   0  0  0  0  0  0  0  0  0  0  0  0
   11.2330   -0.7130   23.3520 C   0  0  0  0  0  0  0  0  0  0  0  0
   13.0990   -1.2750   22.0940 S   0  0  0  0  0  0  0  0  0  0  0  0
   12.0470    0.3930   23.4530 C   0  0  0  0  0  0  0  0  0  0  0  0
   13.1680    0.2480   22.7920 C   0  0  0  0  0  0  0  0  0  0  0  0
  1  2  1  0
  2  3  2  0
  2  4  1  0
  3  5  1  0
  4  6  2  0
  5  7  1  0
  5  8  2  0
  6  8  1  0
  7  9  1  0
  9 10  1  0
 10 11  1  0
 11 12  1  0
 12 13  2  0
 12 14  1  0
 13 15  1  0
 14 16  1  0
 15 16  2  0
M  END
