x0967_1-x0831_0
     RDKit          3D

 18 19  0  0  0  0  0  0  0  0999 V2000
    9.9670   -2.3860   23.4510 C   0  0  0  0  0  0  0  0  0  0  0  0
    8.4890   -2.0450   23.4750 C   0  0  0  0  0  0  0  0  0  0  0  0
    7.6570   -2.0660   22.1900 C   0  0  0  0  0  0  0  0  0  0  0  0
   10.8280   -1.1320   23.4190 C   0  0  0  0  0  0  0  0  0  0  0  0
   10.2480    0.1480   24.1080 C   0  0  0  0  0  0  0  0  0  0  0  0
   12.0880   -1.0370   22.8180 C   0  0  0  0  0  0  0  0  0  0  0  0
   12.7520   -2.1100   22.1450 C   0  0  0  0  0  0  0  0  0  0  0  0
    8.0320   -1.0620   21.1140 C   0  0  0  0  0  0  0  0  0  0  0  0
   10.9660    1.3390   24.1040 C   0  0  0  0  0  0  0  0  0  0  0  0
   12.7440    0.3150   22.9050 C   0  0  0  0  0  0  0  0  0  0  0  0
   12.1810    1.4330   23.5230 C   0  0  0  0  0  0  0  0  0  0  0  0
    6.9910   -0.0990   20.6670 C   0  0  0  0  0  0  0  0  0  0  0  0
    6.2020    0.8870   21.5030 C   0  0  0  0  0  0  0  0  0  0  0  0
    6.7270   -0.1550   19.1870 C   0  0  0  0  0  0  0  0  0  0  0  0
    5.8380    0.6020   18.5260 C   0  0  0  0  0  0  0  0  0  0  0  0
    5.1840    1.7510   20.7190 C   0  0  0  0  0  0  0  0  0  0  0  0
    5.6150    0.5290   17.2030 O   0  0  0  0  0  0  0  0  0  0  0  0
    5.0660    1.5380   19.1990 C   0  0  0  0  0  0  0  0  0  0  0  0
  1  2  1  0
  2  3  1  0
  1  4  1  0
  4  5  2  0
  4  6  1  0
  6  7  1  0
  3  8  1  0
  5  9  1  0
  6 10  2  0
  9 11  2  0
 10 11  1  0
  8 12  1  0
 12 13  2  0
 12 14  1  0
 14 15  2  0
 13 16  1  0
 15 17  1  0
 15 18  1  0
 16 18  2  0
M  END
