x0967_2-x1493_0
     RDKit          3D

 23 23  0  0  0  0  0  0  0  0999 V2000
    6.4090    0.5380   22.5270 C   0  0  0  0  0  0  0  0  0  0  0  0
    7.8540    0.7320   22.6880 C   0  0  1  0  0  0  0  0  0  0  0  0
    9.0300    0.5020   22.6080 C   0  0  0  0  0  0  0  0  0  0  0  0
    6.0340   -0.9330   22.2520 C   0  0  0  0  0  0  0  0  0  0  0  0
    7.9890    2.1280   22.2400 N   0  0  0  0  0  0  0  0  0  0  0  0
    6.7340   -1.8310   23.0790 C   0  0  0  0  0  0  0  0  0  0  0  0
    9.8220    1.1950   21.9920 O   0  0  0  0  0  0  0  0  0  0  0  0
    7.2590    3.2530   22.8610 C   0  0  0  0  0  0  0  0  0  0  0  0
    5.9170   -3.1100   23.3150 C   0  0  0  0  0  0  0  0  0  0  0  0
    7.7880    4.4920   22.4720 C   0  0  0  0  0  0  0  0  0  0  0  0
    6.3060    3.1360   23.6230 O   0  0  0  0  0  0  0  0  0  0  0  0
    6.7920   -4.0830   23.8040 C   0  0  1  0  0  0  0  0  0  0  0  0
    6.2190   -5.2210   24.2570 N   0  0  0  0  0  0  0  0  0  0  0  0
    7.6930   -4.6280   22.6840 C   0  0  0  0  0  0  0  0  0  0  0  0
    6.1510   -5.5070   25.7000 C   0  0  0  0  0  0  0  0  0  0  0  0
    6.9000   -5.1140   21.6920 N   0  0  0  0  0  0  0  0  0  0  0  0
    5.2050   -5.7390   23.3280 C   0  0  0  0  0  0  0  0  0  0  0  0
    4.9170   -6.0070   26.1260 C   0  0  0  0  0  0  0  0  0  0  0  0
    7.0480   -5.3740   26.5280 O   0  0  0  0  0  0  0  0  0  0  0  0
    6.6960   -4.3540   20.5490 C   0  0  0  0  0  0  0  0  0  0  0  0
    5.9170   -6.1450   22.0410 C   0  0  0  0  0  0  0  0  0  0  0  0
    5.6310   -4.3690   19.9020 O   0  0  0  0  0  0  0  0  0  0  0  0
    7.8730   -3.5210   20.0700 C   0  0  0  0  0  0  0  0  0  0  0  0
  2  1  1  6
  2  3  1  0
  1  4  1  0
  2  5  1  0
  4  6  1  0
  3  7  2  0
  5  8  1  0
  6  9  1  0
  8 10  1  0
  8 11  2  0
 12  9  1  6
 12 13  1  0
 12 14  1  0
 13 15  1  0
 14 16  1  0
 13 17  1  0
 15 18  1  0
 15 19  2  0
 16 20  1  0
 16 21  1  0
 17 21  1  0
 20 22  2  0
 20 23  1  0
M  END
