x0967_1-x0692_1
     RDKit          3D

 16 17  0  0  0  0  0  0  0  0999 V2000
    6.3320   -3.2850   19.8690 C   0  0  0  0  0  0  0  0  0  0  0  0
    7.3260   -3.0460   18.7580 C   0  0  0  0  0  0  0  0  0  0  0  0
    5.4190   -4.1130   19.7330 O   0  0  0  0  0  0  0  0  0  0  0  0
    6.5320   -2.5480   21.0310 N   0  0  0  0  0  0  0  0  0  0  0  0
    7.4300   -1.4930   20.9570 C   0  0  2  0  0  0  0  0  0  0  0  0
    6.2330   -2.9470   22.3230 C   0  0  0  0  0  0  0  0  0  0  0  0
    7.9700   -1.1440   22.2220 C   0  0  0  0  0  0  0  0  0  0  0  0
    7.4650   -3.2860   23.1620 C   0  0  0  0  0  0  0  0  0  0  0  0
    6.7340   -0.4420   20.3590 C   0  0  0  0  0  0  0  0  0  0  0  0
    8.5330   -2.3200   22.8820 N   0  0  0  0  0  0  0  0  0  0  0  0
    6.0450    0.5170   21.0770 C   0  0  0  0  0  0  0  0  0  0  0  0
    6.6520   -0.2610   19.0610 C   0  0  0  0  0  0  0  0  0  0  0  0
    5.9200    0.8100   18.4650 C   0  0  0  0  0  0  0  0  0  0  0  0
    5.3140    1.5880   20.5420 C   0  0  0  0  0  0  0  0  0  0  0  0
    5.7790    1.0720   17.0830 O   0  0  0  0  0  0  0  0  0  0  0  0
    5.2000    1.8060   19.1960 C   0  0  0  0  0  0  0  0  0  0  0  0
  1  2  1  0
  1  3  2  0
  1  4  1  0
  4  5  1  0
  4  6  1  0
  5  7  1  0
  6  8  1  0
  5  9  1  1
  7 10  1  0
  8 10  1  0
  9 11  2  0
  9 12  1  0
 12 13  2  0
 11 14  1  0
 13 15  1  0
 13 16  1  0
 14 16  2  0
M  END
