x0967_2-x1380_1
     RDKit          3D

 21 21  0  0  0  0  0  0  0  0999 V2000
    6.5060    0.4660   22.2660 C   0  0  0  0  0  0  0  0  0  0  0  0
    7.7920    1.0770   22.8380 C   0  0  1  0  0  0  0  0  0  0  0  0
    9.0320    0.2430   22.4830 C   0  0  0  0  0  0  0  0  0  0  0  0
    6.7210   -0.7450   21.3530 C   0  0  0  0  0  0  0  0  0  0  0  0
    8.0360    2.3650   22.3640 N   0  0  0  0  0  0  0  0  0  0  0  0
    6.2500   -2.0070   22.0300 C   0  0  0  0  0  0  0  0  0  0  0  0
   10.0310    0.7480   21.9980 O   0  0  0  0  0  0  0  0  0  0  0  0
    7.2270    3.4790   22.8590 C   0  0  0  0  0  0  0  0  0  0  0  0
    7.2480   -2.9870   22.1520 C   0  0  2  0  0  0  0  0  0  0  0  0
    7.7170    4.9120   22.4300 C   0  0  0  0  0  0  0  0  0  0  0  0
    6.1060    3.4260   23.6440 O   0  0  0  0  0  0  0  0  0  0  0  0
    6.7380   -4.2330   21.5210 N   0  0  0  0  0  0  0  0  0  0  0  0
    7.5960   -3.1600   23.4420 C   0  0  0  0  0  0  0  0  0  0  0  0
    6.2360   -4.0840   20.2520 C   0  0  0  0  0  0  0  0  0  0  0  0
    6.7200   -4.1270   24.2440 C   0  0  1  0  0  0  0  0  0  0  0  0
    6.3170   -5.2760   22.3420 C   0  0  0  0  0  0  0  0  0  0  0  0
    5.9780   -3.3380   25.3020 C   0  0  0  0  0  0  0  0  0  0  0  0
    7.0760   -3.2500   19.2970 C   0  0  0  0  0  0  0  0  0  0  0  0
    5.2050   -4.6120   19.8910 O   0  0  0  0  0  0  0  0  0  0  0  0
    5.7240   -4.6740   23.4460 C   0  0  0  0  0  0  0  0  0  0  0  0
    4.7720   -3.1010   25.3390 O   0  0  0  0  0  0  0  0  0  0  0  0
  2  1  1  6
  2  3  1  0
  1  4  1  0
  2  5  1  0
  4  6  1  0
  3  7  2  0
  5  8  1  0
  9  6  1  1
  8 10  1  0
  8 11  2  0
  9 12  1  0
  9 13  1  0
 12 14  1  0
 13 15  1  0
 12 16  1  0
 15 17  1  1
 14 18  1  0
 14 19  2  0
 15 20  1  0
 16 20  1  0
 17 21  2  0
M  END
