x0978_1-x1348_0
     RDKit          3D

 16 15  0  0  0  0  0  0  0  0999 V2000
    4.3330   -5.6500   23.1220 C   0  0  0  0  0  0  0  0  0  0  0  0
    3.0800   -6.5210   23.2820 C   0  0  2  0  0  0  0  0  0  0  0  0
    1.8920   -5.6780   23.1970 N   0  0  0  0  0  0  0  0  0  0  0  0
    4.3710   -4.3650   23.5870 N   0  0  0  0  0  0  0  0  0  0  0  0
    3.1030   -7.2600   24.6190 C   0  0  1  0  0  0  0  0  0  0  0  0
    5.5100   -3.6680   23.4270 C   0  0  0  0  0  0  0  0  0  0  0  0
    0.6970   -6.1920   22.5270 C   0  0  0  0  0  0  0  0  0  0  0  0
    2.0490   -8.3530   24.7020 C   0  0  0  0  0  0  0  0  0  0  0  0
    4.3670   -7.8730   24.8010 O   0  0  0  0  0  0  0  0  0  0  0  0
    6.4930   -4.4010   22.5100 C   0  0  0  0  0  0  0  0  0  0  0  0
    0.6780   -7.2400   21.8950 O   0  0  0  0  0  0  0  0  0  0  0  0
   -0.5290   -5.3320   22.6670 C   0  0  0  0  0  0  0  0  0  0  0  0
    6.8290   -3.4930   21.4150 N   0  0  0  0  0  0  0  0  0  0  0  0
    6.4010   -3.6560   20.0910 C   0  0  0  0  0  0  0  0  0  0  0  0
    5.3740   -4.2750   19.8030 O   0  0  0  0  0  0  0  0  0  0  0  0
    7.2700   -3.0700   18.9880 C   0  0  0  0  0  0  0  0  0  0  0  0
  2  1  1  1
  2  3  1  0
  1  4  2  3
  2  5  1  0
  4  6  1  0
  3  7  1  0
  5  8  1  6
  5  9  1  0
  6 10  1  0
  7 11  2  0
  7 12  1  0
 10 13  1  0
 13 14  1  0
 14 15  2  0
 14 16  1  0
M  END
