x0978_1-x0831_0
     RDKit          3D

 22 22  0  0  0  0  0  0  0  0999 V2000
    4.3280   -5.7600   22.7660 C   0  0  0  0  0  0  0  0  0  0  0  0
    3.0780   -6.5370   23.2370 C   0  0  2  0  0  0  0  0  0  0  0  0
    1.9070   -5.6780   23.1980 N   0  0  0  0  0  0  0  0  0  0  0  0
    4.5660   -4.4400   23.0480 N   0  0  0  0  0  0  0  0  0  0  0  0
    3.2180   -7.1640   24.6260 C   0  0  1  0  0  0  0  0  0  0  0  0
    5.7100   -3.9770   22.5010 C   0  0  0  0  0  0  0  0  0  0  0  0
    0.6910   -6.1660   22.5380 C   0  0  0  0  0  0  0  0  0  0  0  0
    2.1440   -8.2100   24.8830 C   0  0  0  0  0  0  0  0  0  0  0  0
    4.4600   -7.8220   24.7390 O   0  0  0  0  0  0  0  0  0  0  0  0
    6.5990   -3.3340   23.5770 C   0  0  0  0  0  0  0  0  0  0  0  0
    0.6560   -7.2000   21.8820 O   0  0  0  0  0  0  0  0  0  0  0  0
   -0.5300   -5.3070   22.7180 C   0  0  0  0  0  0  0  0  0  0  0  0
    7.9710   -3.4970   23.3300 C   0  0  0  0  0  0  0  0  0  0  0  0
    8.7000   -2.3220   23.1200 C   0  0  0  0  0  0  0  0  0  0  0  0
   10.0630   -2.4390   23.4440 C   0  0  0  0  0  0  0  0  0  0  0  0
   10.8060   -1.1190   23.4770 C   0  0  0  0  0  0  0  0  0  0  0  0
   10.2180   -0.0230   24.1390 C   0  0  0  0  0  0  0  0  0  0  0  0
   12.0650   -0.9510   22.8600 C   0  0  0  0  0  0  0  0  0  0  0  0
   12.7620   -2.0570   22.1300 C   0  0  0  0  0  0  0  0  0  0  0  0
   10.8650    1.2080   24.1750 C   0  0  0  0  0  0  0  0  0  0  0  0
   12.6960    0.2950   22.9170 C   0  0  0  0  0  0  0  0  0  0  0  0
   12.1010    1.3670   23.5640 C   0  0  0  0  0  0  0  0  0  0  0  0
  2  1  1  1
  2  3  1  0
  1  4  2  3
  2  5  1  0
  4  6  1  0
  3  7  1  0
  5  8  1  6
  5  9  1  0
  6 10  1  0
  7 11  2  0
  7 12  1  0
 10 13  1  0
 13 14  1  0
 14 15  1  0
 15 16  1  0
 16 17  2  0
 16 18  1  0
 18 19  1  0
 17 20  1  0
 18 21  2  0
 20 22  2  0
 21 22  1  0
M  END
