x0978_1-x1418_0-x0692_1
     RDKit          3D

 26 27  0  0  0  0  0  0  0  0999 V2000
    4.1240   -5.1330   23.5250 C   0  0  0  0  0  0  0  0  0  0  0  0
    3.1520   -6.2870   23.3480 C   0  0  2  0  0  0  0  0  0  0  0  0
    1.8440   -5.6450   23.3150 N   0  0  0  0  0  0  0  0  0  0  0  0
    4.1100   -4.0880   22.7690 N   0  0  0  0  0  0  0  0  0  0  0  0
    3.2190   -7.2750   24.5170 C   0  0  1  0  0  0  0  0  0  0  0  0
    5.1090   -3.0740   23.1620 C   0  0  0  0  0  0  0  0  0  0  0  0
    0.6980   -6.2140   22.5320 C   0  0  0  0  0  0  0  0  0  0  0  0
    2.0720   -8.2680   24.5560 C   0  0  0  0  0  0  0  0  0  0  0  0
    4.4370   -7.9910   24.4260 O   0  0  0  0  0  0  0  0  0  0  0  0
    6.3750   -3.2920   22.3360 C   0  0  1  0  0  0  0  0  0  0  0  0
    0.7830   -7.2620   21.9030 O   0  0  0  0  0  0  0  0  0  0  0  0
   -0.5620   -5.4000   22.5740 C   0  0  0  0  0  0  0  0  0  0  0  0
    6.4750   -2.6340   21.0180 N   0  0  0  0  0  0  0  0  0  0  0  0
    7.6070   -3.3320   23.1080 C   0  0  0  0  0  0  0  0  0  0  0  0
    6.2960   -3.2200   19.7890 C   0  0  0  0  0  0  0  0  0  0  0  0
    8.5630   -2.1820   23.0580 N   0  0  0  0  0  0  0  0  0  0  0  0
    7.2770   -1.3980   21.0230 C   0  0  0  0  0  0  0  0  0  0  0  0
    5.3450   -3.9870   19.6270 O   0  0  0  0  0  0  0  0  0  0  0  0
    7.3030   -2.9680   18.6870 C   0  0  0  0  0  0  0  0  0  0  0  0
    9.9180   -2.6380   23.4160 C   0  0  0  0  0  0  0  0  0  0  0  0
    8.6350   -1.5920   21.7130 C   0  0  0  0  0  0  0  0  0  0  0  0
   10.9310   -1.5390   23.3850 C   0  0  0  0  0  0  0  0  0  0  0  0
   12.0640   -1.4560   22.6030 C   0  0  0  0  0  0  0  0  0  0  0  0
   10.7490   -0.1610   24.4090 S   0  0  0  0  0  0  0  0  0  0  0  0
   12.8710   -0.1980   22.8050 C   0  0  0  0  0  0  0  0  0  0  0  0
   12.1630    0.6340   23.8500 C   0  0  0  0  0  0  0  0  0  0  0  0
  2  1  1  1
  2  3  1  0
  1  4  2  3
  2  5  1  0
  4  6  1  0
  3  7  1  0
  5  8  1  6
  5  9  1  0
 10  6  1  1
  7 11  2  0
  7 12  1  0
 10 13  1  0
 10 14  1  0
 13 15  1  0
 14 16  1  0
 13 17  1  0
 15 18  2  0
 15 19  1  0
 16 20  1  0
 16 21  1  0
 17 21  1  0
 20 22  1  0
 22 23  2  0
 22 24  1  0
 23 25  1  0
 24 26  1  0
 25 26  2  0
M  END
