x0978_1-x0831_0-x1386_1-x0769_1
     RDKit          3D

 37 39  0  0  0  0  0  0  0  0999 V2000
    4.1630   -4.9950   23.3190 C   0  0  0  0  0  0  0  0  0  0  0  0
    3.2590   -6.2290   23.4050 C   0  0  2  0  0  0  0  0  0  0  0  0
    1.9200   -5.6410   23.2790 N   0  0  0  0  0  0  0  0  0  0  0  0
    4.3350   -4.1160   22.4100 N   0  0  0  0  0  0  0  0  0  0  0  0
    3.6150   -6.7950   24.6540 C   0  0  1  0  0  0  0  0  0  0  0  0
    5.2590   -3.0050   22.6610 C   0  0  0  0  0  0  0  0  0  0  0  0
    0.8780   -6.2350   22.5930 C   0  0  0  0  0  0  0  0  0  0  0  0
    2.3710   -7.5620   25.1040 C   0  0  0  0  0  0  0  0  0  0  0  0
    4.5660   -7.5230   24.3690 O   0  0  0  0  0  0  0  0  0  0  0  0
    4.2050   -5.8840   26.0790 S   0  0  0  0  0  0  0  0  0  0  0  0
    6.6340   -3.2620   22.0970 C   0  0  1  0  0  0  0  0  0  0  0  0
    0.9950   -7.3120   22.0170 O   0  0  0  0  0  0  0  0  0  0  0  0
   -0.4060   -5.4550   22.6100 C   0  0  0  0  0  0  0  0  0  0  0  0
    5.7680   -5.6450   25.8570 O   0  0  0  0  0  0  0  0  0  0  0  0
    3.4770   -4.3030   25.9850 C   0  0  0  0  0  0  0  0  0  0  0  0
    6.7640   -2.4760   20.9880 N   0  0  0  0  0  0  0  0  0  0  0  0
    7.6890   -3.1750   23.0340 C   0  0  0  0  0  0  0  0  0  0  0  0
    6.4680   -3.1220   19.7750 C   0  0  0  0  0  0  0  0  0  0  0  0
    2.1010   -4.1440   25.7920 C   0  0  0  0  0  0  0  0  0  0  0  0
    4.2360   -3.1150   26.1060 C   0  0  0  0  0  0  0  0  0  0  0  0
    8.6320   -2.0430   22.9020 N   0  0  0  0  0  0  0  0  0  0  0  0
    7.5900   -1.2590   21.0380 C   0  0  0  0  0  0  0  0  0  0  0  0
    5.5760   -3.0860   26.2940 F   0  0  0  0  0  0  0  0  0  0  0  0
    7.4460   -2.9810   18.6550 C   0  0  0  0  0  0  0  0  0  0  0  0
    5.4670   -3.8500   19.6050 O   0  0  0  0  0  0  0  0  0  0  0  0
    9.9270   -2.2060   23.5830 C   0  0  0  0  0  0  0  0  0  0  0  0
    1.3600   -3.0030   25.7040 C   0  0  0  0  0  0  0  0  0  0  0  0
    3.5650   -1.9130   26.0290 C   0  0  0  0  0  0  0  0  0  0  0  0
    8.7970   -1.6510   21.5540 C   0  0  0  0  0  0  0  0  0  0  0  0
    2.1570   -1.7920   25.8350 C   0  0  0  0  0  0  0  0  0  0  0  0
   10.7880   -0.9730   23.5340 C   0  0  0  0  0  0  0  0  0  0  0  0
   10.3140    0.1680   24.1230 C   0  0  0  0  0  0  0  0  0  0  0  0
   12.0470   -0.9270   22.9050 C   0  0  0  0  0  0  0  0  0  0  0  0
   12.6700   -2.1190   22.2200 C   0  0  0  0  0  0  0  0  0  0  0  0
   11.0410    1.3250   24.0900 C   0  0  0  0  0  0  0  0  0  0  0  0
   12.7570    0.2580   22.8980 C   0  0  0  0  0  0  0  0  0  0  0  0
   12.2910    1.4330   23.4800 C   0  0  0  0  0  0  0  0  0  0  0  0
  2  1  1  1
  2  3  1  0
  1  4  2  3
  2  5  1  0
  4  6  1  0
  3  7  1  0
  5  8  1  1
  5  9  1  0
  5 10  1  0
 11  6  1  1
  7 12  2  0
  7 13  1  0
 10 14  2  0
 10 15  1  6
 11 16  1  0
 11 17  1  0
 16 18  1  0
 15 19  2  0
 15 20  1  0
 17 21  1  0
 16 22  1  0
 20 23  1  0
 18 24  1  0
 18 25  2  0
 21 26  1  0
 19 27  1  0
 20 28  2  0
 21 29  1  0
 22 29  1  0
 27 30  2  0
 28 30  1  0
 26 31  1  0
 31 32  2  0
 31 33  1  0
 33 34  1  0
 32 35  1  0
 33 36  2  0
 35 37  2  0
 36 37  1  0
M  END
