x0978_1-x0072_0-x1386_0-x0831_0
     RDKit          3D

 27 27  0  0  0  0  0  0  0  0999 V2000
    4.3440   -5.8410   23.0900 C   0  0  0  0  0  0  0  0  0  0  0  0
    3.0430   -6.6310   23.2330 C   0  0  2  0  0  0  0  0  0  0  0  0
    1.8950   -5.7330   23.1500 N   0  0  0  0  0  0  0  0  0  0  0  0
    4.4600   -4.6370   23.5390 N   0  0  0  0  0  0  0  0  0  0  0  0
    3.1350   -7.3290   24.5810 C   0  0  1  0  0  0  0  0  0  0  0  0
    5.8380   -4.1670   23.3320 C   0  0  0  0  0  0  0  0  0  0  0  0
    0.7360   -6.1740   22.5540 C   0  0  0  0  0  0  0  0  0  0  0  0
    2.0690   -8.3820   24.6570 C   0  0  0  0  0  0  0  0  0  0  0  0
    4.1850   -7.8910   24.8870 O   0  0  0  0  0  0  0  0  0  0  0  0
    6.7930   -5.1170   24.0360 C   0  0  0  0  0  0  0  0  0  0  0  0
    0.6780   -7.2030   21.8920 O   0  0  0  0  0  0  0  0  0  0  0  0
   -0.4700   -5.3060   22.7680 C   0  0  0  0  0  0  0  0  0  0  0  0
    6.6870   -5.0510   25.5680 C   0  0  0  0  0  0  0  0  0  0  0  0
    8.1870   -4.4690   26.2340 S   0  0  0  0  0  0  0  0  0  0  0  0
    8.4400   -3.1990   25.0870 N   0  0  0  0  0  0  0  0  0  0  0  0
    9.2320   -5.7080   25.9590 O   0  0  0  0  0  0  0  0  0  0  0  0
    7.9670   -3.9160   27.5420 O   0  0  0  0  0  0  0  0  0  0  0  0
    9.6880   -2.4500   25.1560 C   0  0  0  0  0  0  0  0  0  0  0  0
   10.3180   -2.3190   23.7700 C   0  0  1  0  0  0  0  0  0  0  0  0
    9.3080   -2.5690   22.6800 C   0  0  0  0  0  0  0  0  0  0  0  0
   10.9540   -1.1530   23.6260 C   0  0  0  0  0  0  0  0  0  0  0  0
   10.3090    0.0950   24.2550 C   0  0  0  0  0  0  0  0  0  0  0  0
   12.3060   -0.9780   22.8560 C   0  0  0  0  0  0  0  0  0  0  0  0
   13.0690   -2.0540   22.1720 C   0  0  0  0  0  0  0  0  0  0  0  0
   10.8270    1.3560   24.1920 C   0  0  0  0  0  0  0  0  0  0  0  0
   12.7610    0.4480   22.8770 C   0  0  0  0  0  0  0  0  0  0  0  0
   12.1260    1.6150   23.4780 C   0  0  0  0  0  0  0  0  0  0  0  0
  2  1  1  1
  2  3  1  0
  1  4  2  3
  2  5  1  0
  4  6  1  0
  3  7  1  0
  5  8  1  6
  5  9  1  0
  6 10  1  0
  7 11  2  0
  7 12  1  0
 10 13  1  0
 13 14  1  0
 14 15  1  0
 14 16  2  0
 14 17  2  0
 15 18  1  0
 18 19  1  0
 19 20  1  6
 19 21  1  0
 21 22  2  0
 21 23  1  0
 23 24  1  0
 22 25  1  0
 23 26  2  0
 25 27  2  0
 26 27  1  0
M  END
