x0978_1-x1386_0-x1412_0-x1418_0-x0692_1
     RDKit          3D

 34 36  0  0  0  0  0  0  0  0999 V2000
    4.0700   -5.3740   23.1070 C   0  0  0  0  0  0  0  0  0  0  0  0
    3.0270   -6.4390   23.3910 C   0  0  2  0  0  0  0  0  0  0  0  0
    1.7260   -5.7860   23.3780 N   0  0  0  0  0  0  0  0  0  0  0  0
    4.0520   -4.0330   23.4550 N   0  0  0  0  0  0  0  0  0  0  0  0
    3.2570   -7.2690   24.6420 C   0  0  1  0  0  0  0  0  0  0  0  0
    5.0260   -2.9980   23.1690 C   0  0  0  0  0  0  0  0  0  0  0  0
    0.6520   -6.2680   22.5190 C   0  0  0  0  0  0  0  0  0  0  0  0
    2.2300   -8.3490   24.9030 C   0  0  0  0  0  0  0  0  0  0  0  0
    4.3490   -7.8000   24.5990 O   0  0  0  0  0  0  0  0  0  0  0  0
    6.0870   -3.5250   22.2350 C   0  0  1  0  0  0  0  0  0  0  0  0
    0.7370   -7.2780   21.8380 O   0  0  0  0  0  0  0  0  0  0  0  0
   -0.5890   -5.4190   22.5380 C   0  0  0  0  0  0  0  0  0  0  0  0
    6.3850   -2.6420   21.1010 N   0  0  0  0  0  0  0  0  0  0  0  0
    7.3030   -3.6800   23.1290 C   0  0  0  0  0  0  0  0  0  0  0  0
    6.2590   -3.2330   19.8560 C   0  0  0  0  0  0  0  0  0  0  0  0
    7.9370   -2.3910   23.4510 N   0  0  0  0  0  0  0  0  0  0  0  0
    7.2100   -1.4460   21.4380 C   0  0  0  0  0  0  0  0  0  0  0  0
    5.3250   -4.0130   19.6400 O   0  0  0  0  0  0  0  0  0  0  0  0
    7.2860   -2.9720   18.7750 C   0  0  0  0  0  0  0  0  0  0  0  0
    8.8630   -2.3730   24.6110 C   0  0  2  0  0  0  0  0  0  0  0  0
    8.3150   -1.7500   22.1640 C   0  0  0  0  0  0  0  0  0  0  0  0
    8.6620   -1.3530   25.2840 O   0  0  0  0  0  0  0  0  0  0  0  0
   10.3300   -2.4090   24.1340 C   0  0  1  0  0  0  0  0  0  0  0  0
    8.7350   -3.5650   25.6240 C   0  0  0  0  0  0  0  0  0  0  0  0
   10.3010   -3.0310   22.7570 C   0  0  0  0  0  0  0  0  0  0  0  0
    9.5980   -4.6860   25.4660 C   0  0  0  0  0  0  0  0  0  0  0  0
    7.6840   -3.8640   27.0420 S   0  0  0  0  0  0  0  0  0  0  0  0
   11.1590   -1.1910   23.8360 C   0  0  0  0  0  0  0  0  0  0  0  0
    9.3920   -5.6570   26.4210 C   0  0  0  0  0  0  0  0  0  0  0  0
    8.4090   -5.3960   27.3580 C   0  0  0  0  0  0  0  0  0  0  0  0
   12.2970   -1.2420   23.0470 C   0  0  0  0  0  0  0  0  0  0  0  0
   10.9470    0.1180   24.2560 C   0  0  0  0  0  0  0  0  0  0  0  0
   12.9050   -0.0480   22.8770 C   0  0  0  0  0  0  0  0  0  0  0  0
   12.1350    1.2280   23.6620 S   0  0  0  0  0  0  0  0  0  0  0  0
  2  1  1  1
  2  3  1  0
  1  4  2  3
  2  5  1  0
  4  6  1  0
  3  7  1  0
  5  8  1  6
  5  9  1  0
 10  6  1  1
  7 11  2  0
  7 12  1  0
 10 13  1  0
 10 14  1  0
 13 15  1  0
 14 16  1  0
 13 17  1  0
 15 18  2  0
 15 19  1  0
 16 20  1  0
 16 21  1  0
 17 21  1  0
 20 22  1  1
 20 23  1  0
 20 24  1  0
 23 25  1  6
 24 26  2  0
 24 27  1  0
 23 28  1  0
 26 29  1  0
 27 30  1  0
 29 30  2  0
 28 31  1  0
 28 32  2  0
 31 33  2  0
 32 34  1  0
 33 34  1  0
M  END
