x0978_1-x1392_0-x0678_0
     RDKit          3D

 38 42  0  0  0  0  0  0  0  0999 V2000
    4.1040   -5.2410   23.4440 C   0  0  0  0  0  0  0  0  0  0  0  0
    3.0800   -6.3570   23.3070 C   0  0  2  0  0  0  0  0  0  0  0  0
    1.7780   -5.7030   23.2510 N   0  0  0  0  0  0  0  0  0  0  0  0
    4.0990   -4.2240   22.6580 N   0  0  0  0  0  0  0  0  0  0  0  0
    3.2100   -7.2620   24.5320 C   0  0  1  0  0  0  0  0  0  0  0  0
    5.1280   -3.2270   22.9460 C   0  0  0  0  0  0  0  0  0  0  0  0
    0.7200   -6.2140   22.5490 C   0  0  0  0  0  0  0  0  0  0  0  0
    2.0950   -8.2850   24.6520 C   0  0  0  0  0  0  0  0  0  0  0  0
    4.4290   -7.9810   24.4300 O   0  0  0  0  0  0  0  0  0  0  0  0
    6.4670   -3.7280   22.3520 C   0  0  1  0  0  0  0  0  0  0  0  0
    0.7730   -7.2550   21.9070 O   0  0  0  0  0  0  0  0  0  0  0  0
   -0.5370   -5.3930   22.6190 C   0  0  0  0  0  0  0  0  0  0  0  0
    6.9110   -2.8260   21.2860 N   0  0  0  0  0  0  0  0  0  0  0  0
    7.5690   -3.9800   23.4090 C   0  0  0  0  0  0  0  0  0  0  0  0
    6.6310   -3.3080   19.9930 C   0  0  0  0  0  0  0  0  0  0  0  0
    7.8250   -1.8050   21.8370 C   0  0  2  0  0  0  0  0  0  0  0  0
    8.8680   -3.3780   23.3570 C   0  0  0  0  0  0  0  0  0  0  0  0
    7.2650   -4.8500   24.4740 C   0  0  0  0  0  0  0  0  0  0  0  0
    5.6580   -4.0760   19.7730 O   0  0  0  0  0  0  0  0  0  0  0  0
    7.5030   -2.9870   18.8030 C   0  0  0  0  0  0  0  0  0  0  0  0
    7.9090   -0.4710   21.2460 N   0  0  0  0  0  0  0  0  0  0  0  0
    9.2160   -2.4090   22.2060 C   0  0  2  0  0  0  0  0  0  0  0  0
    8.1980   -5.1350   25.4650 C   0  0  0  0  0  0  0  0  0  0  0  0
    9.7880   -3.6910   24.3750 C   0  0  0  0  0  0  0  0  0  0  0  0
    8.4870    0.4840   22.2460 C   0  0  0  0  0  0  0  0  0  0  0  0
    9.4570   -4.5590   25.4150 C   0  0  0  0  0  0  0  0  0  0  0  0
   10.2510   -1.3400   22.5540 C   0  0  0  0  0  0  0  0  0  0  0  0
    7.0470    0.0750   20.2450 C   0  0  0  0  0  0  0  0  0  0  0  0
   11.5840   -1.6930   22.8510 C   0  0  0  0  0  0  0  0  0  0  0  0
    9.8970    0.0230   22.5960 C   0  0  0  0  0  0  0  0  0  0  0  0
    7.1680   -0.1790   18.8850 C   0  0  0  0  0  0  0  0  0  0  0  0
    5.9880    0.9320   20.5830 C   0  0  0  0  0  0  0  0  0  0  0  0
   12.5390   -0.7300   23.1930 C   0  0  0  0  0  0  0  0  0  0  0  0
   10.8720    0.9790   22.9560 C   0  0  0  0  0  0  0  0  0  0  0  0
    6.3800    0.3240   17.9060 N   0  0  0  0  0  0  0  0  0  0  0  0
    5.1480    1.4700   19.5980 C   0  0  0  0  0  0  0  0  0  0  0  0
   12.1800    0.6070   23.2520 C   0  0  0  0  0  0  0  0  0  0  0  0
    5.3860    1.1380   18.2820 C   0  0  0  0  0  0  0  0  0  0  0  0
  2  1  1  1
  2  3  1  0
  1  4  2  3
  2  5  1  0
  4  6  1  0
  3  7  1  0
  5  8  1  6
  5  9  1  0
 10  6  1  1
  7 11  2  0
  7 12  1  0
 10 13  1  0
 10 14  1  0
 13 15  1  0
 16 13  1  6
 14 17  2  0
 14 18  1  0
 15 19  2  0
 15 20  1  0
 16 21  1  0
 16 22  1  0
 22 17  1  1
 18 23  2  0
 17 24  1  0
 21 25  1  0
 23 26  1  0
 24 26  2  0
 22 27  1  0
 21 28  1  0
 27 29  1  0
 25 30  1  0
 27 30  2  0
 28 31  2  0
 28 32  1  0
 29 33  2  0
 30 34  1  0
 31 35  1  0
 32 36  2  0
 33 37  1  0
 34 37  2  0
 35 38  2  0
 36 38  1  0
M  END
