x0978_1-x1412_1-x1412_0-x1386_0
     RDKit          3D

 33 35  0  0  0  0  0  0  0  0999 V2000
    3.7370   -4.9670   23.4720 C   0  0  0  0  0  0  0  0  0  0  0  0
    2.9840   -6.2660   23.4060 C   0  0  2  0  0  0  0  0  0  0  0  0
    1.5650   -5.9120   23.3220 N   0  0  0  0  0  0  0  0  0  0  0  0
    4.2680   -4.3780   22.4640 N   0  0  0  0  0  0  0  0  0  0  0  0
    3.3260   -7.2230   24.5590 C   0  0  1  0  0  0  0  0  0  0  0  0
    4.8330   -3.1070   22.8940 C   0  0  0  0  0  0  0  0  0  0  0  0
    0.5660   -6.2530   22.4820 C   0  0  0  0  0  0  0  0  0  0  0  0
    2.2280   -8.2580   24.7780 C   0  0  0  0  0  0  0  0  0  0  0  0
    4.5020   -7.9610   24.3040 O   0  0  0  0  0  0  0  0  0  0  0  0
    6.2950   -2.8120   22.5160 C   0  0  2  0  0  0  0  0  0  0  0  0
    0.6910   -7.2620   21.7930 O   0  0  0  0  0  0  0  0  0  0  0  0
   -0.6840   -5.4040   22.4100 C   0  0  0  0  0  0  0  0  0  0  0  0
    6.6380   -2.5310   21.1320 N   0  0  0  0  0  0  0  0  0  0  0  0
    7.3090   -3.8500   23.0850 C   0  0  0  0  0  0  0  0  0  0  0  0
    6.3870   -3.2990   19.9610 C   0  0  0  0  0  0  0  0  0  0  0  0
    8.5820   -3.1230   23.2560 N   0  0  0  0  0  0  0  0  0  0  0  0
    7.8390   -1.6890   21.2360 C   0  0  0  0  0  0  0  0  0  0  0  0
    7.2830   -2.9960   18.7740 C   0  0  0  0  0  0  0  0  0  0  0  0
    5.5190   -4.1910   19.8250 O   0  0  0  0  0  0  0  0  0  0  0  0
    9.0550   -2.6480   24.5690 C   0  0  2  0  0  0  0  0  0  0  0  0
    8.9910   -2.2720   22.1070 C   0  0  0  0  0  0  0  0  0  0  0  0
    8.4950   -1.6510   25.0300 O   0  0  0  0  0  0  0  0  0  0  0  0
   10.5410   -2.6990   24.4850 C   0  0  0  0  0  0  0  0  0  0  0  0
    8.8380   -3.7440   25.6100 C   0  0  0  0  0  0  0  0  0  0  0  0
    9.7260   -4.8590   25.6700 C   0  0  0  0  0  0  0  0  0  0  0  0
    7.5620   -3.8740   26.8920 S   0  0  0  0  0  0  0  0  0  0  0  0
   11.2750   -1.4750   23.9990 C   0  0  0  0  0  0  0  0  0  0  0  0
    9.3490   -5.6960   26.6710 C   0  0  0  0  0  0  0  0  0  0  0  0
    8.2660   -5.3460   27.3990 C   0  0  0  0  0  0  0  0  0  0  0  0
   12.2460   -1.4900   23.0790 C   0  0  0  0  0  0  0  0  0  0  0  0
   11.0660   -0.1650   24.4330 C   0  0  0  0  0  0  0  0  0  0  0  0
   12.8000   -0.2770   22.7750 C   0  0  0  0  0  0  0  0  0  0  0  0
   12.1000    0.9830   23.6610 S   0  0  0  0  0  0  0  0  0  0  0  0
  2  1  1  1
  2  3  1  0
  1  4  2  3
  2  5  1  0
  4  6  1  0
  3  7  1  0
  5  8  1  6
  5  9  1  0
 10  6  1  6
  7 11  2  0
  7 12  1  0
 10 13  1  0
 10 14  1  0
 13 15  1  0
 14 16  1  0
 13 17  1  0
 15 18  1  0
 15 19  2  0
 16 20  1  0
 16 21  1  0
 17 21  1  0
 20 22  1  1
 20 23  1  0
 20 24  1  0
 24 25  2  0
 24 26  1  0
 23 27  1  0
 25 28  1  0
 26 29  1  0
 28 29  2  0
 27 30  1  0
 27 31  2  0
 30 32  2  0
 31 33  1  0
 32 33  1  0
M  END
