x0978_1-x1412_1-x1412_0-x0831_0
     RDKit          3D

 36 39  0  0  0  0  0  0  0  0999 V2000
    4.0780   -5.3820   23.0910 C   0  0  0  0  0  0  0  0  0  0  0  0
    3.0240   -6.4320   23.3930 C   0  0  2  0  0  0  0  0  0  0  0  0
    1.7280   -5.7750   23.3850 N   0  0  0  0  0  0  0  0  0  0  0  0
    4.0910   -4.0310   23.4210 N   0  0  0  0  0  0  0  0  0  0  0  0
    3.2590   -7.2650   24.6420 C   0  0  1  0  0  0  0  0  0  0  0  0
    5.1030   -3.0440   23.0930 C   0  0  0  0  0  0  0  0  0  0  0  0
    0.6480   -6.2490   22.5310 C   0  0  0  0  0  0  0  0  0  0  0  0
    2.2370   -8.3490   24.9060 C   0  0  0  0  0  0  0  0  0  0  0  0
    4.3520   -7.7930   24.5990 O   0  0  0  0  0  0  0  0  0  0  0  0
    6.2640   -3.7070   22.4270 C   0  0  1  0  0  0  0  0  0  0  0  0
    0.7210   -7.2700   21.8610 O   0  0  0  0  0  0  0  0  0  0  0  0
   -0.5780   -5.3850   22.5330 C   0  0  0  0  0  0  0  0  0  0  0  0
    6.8230   -2.9150   21.2700 N   0  0  0  0  0  0  0  0  0  0  0  0
    7.4130   -4.2750   23.2210 C   0  0  0  0  0  0  0  0  0  0  0  0
    6.5250   -3.3160   19.9580 C   0  0  0  0  0  0  0  0  0  0  0  0
    8.0990   -3.0380   23.5740 N   0  0  0  0  0  0  0  0  0  0  0  0
    7.9780   -1.9640   21.5790 C   0  0  0  0  0  0  0  0  0  0  0  0
    7.4380   -3.0050   18.8020 C   0  0  0  0  0  0  0  0  0  0  0  0
    5.5150   -4.0050   19.7010 O   0  0  0  0  0  0  0  0  0  0  0  0
    8.8840   -2.8870   24.8090 C   0  0  2  0  0  0  0  0  0  0  0  0
    8.7570   -2.6640   22.4850 C   0  0  1  0  0  0  0  0  0  0  0  0
    8.6200   -1.8110   25.3680 O   0  0  0  0  0  0  0  0  0  0  0  0
   10.1830   -2.2940   23.0060 C   0  0  2  0  0  0  0  0  0  0  0  0
   10.1870   -2.8620   24.4040 C   0  0  0  0  0  0  0  0  0  0  0  0
    8.7740   -3.9670   25.8060 C   0  0  0  0  0  0  0  0  0  0  0  0
    9.4990   -5.1450   25.7470 C   0  0  0  0  0  0  0  0  0  0  0  0
    7.7860   -4.0350   27.2230 S   0  0  0  0  0  0  0  0  0  0  0  0
   10.8370   -0.9460   23.1670 C   0  0  0  0  0  0  0  0  0  0  0  0
    9.3010   -6.0380   26.7350 C   0  0  0  0  0  0  0  0  0  0  0  0
    8.3810   -5.5930   27.6580 C   0  0  0  0  0  0  0  0  0  0  0  0
   10.1500    0.0570   23.8170 C   0  0  0  0  0  0  0  0  0  0  0  0
   12.1350   -0.6970   22.6910 C   0  0  0  0  0  0  0  0  0  0  0  0
   12.9230   -1.7620   21.9820 C   0  0  0  0  0  0  0  0  0  0  0  0
   10.6830    1.3120   24.0130 C   0  0  0  0  0  0  0  0  0  0  0  0
   12.7040    0.5570   22.8760 C   0  0  0  0  0  0  0  0  0  0  0  0
   11.9730    1.5640   23.5330 C   0  0  0  0  0  0  0  0  0  0  0  0
  2  1  1  1
  2  3  1  0
  1  4  2  3
  2  5  1  0
  4  6  1  0
  3  7  1  0
  5  8  1  6
  5  9  1  0
 10  6  1  1
  7 11  2  0
  7 12  1  0
 10 13  1  0
 10 14  1  0
 13 15  1  0
 14 16  1  0
 13 17  1  0
 15 18  1  0
 15 19  2  0
 16 20  1  0
 16 21  1  0
 21 17  1  1
 20 22  1  1
 21 23  1  0
 20 24  1  0
 23 24  1  0
 20 25  1  0
 25 26  2  0
 25 27  1  0
 23 28  1  1
 26 29  1  0
 27 30  1  0
 29 30  2  0
 28 31  2  0
 28 32  1  0
 32 33  1  0
 31 34  1  0
 32 35  2  0
 34 36  2  0
 35 36  1  0
M  END
