x0978_1-x0831_0-x0820_1
     RDKit          3D

 30 32  0  0  0  0  0  0  0  0999 V2000
    3.7020   -4.9850   23.4360 C   0  0  0  0  0  0  0  0  0  0  0  0
    2.7650   -6.1700   23.3700 C   0  0  2  0  0  0  0  0  0  0  0  0
    1.4380   -5.8010   23.3990 N   0  0  0  0  0  0  0  0  0  0  0  0
    4.2210   -4.9670   24.8320 C   0  0  0  0  0  0  0  0  0  0  0  0
    3.0300   -7.1790   24.5200 C   0  0  1  0  0  0  0  0  0  0  0  0
    4.9360   -4.9070   26.0740 C   0  0  0  0  0  0  0  0  0  0  0  0
    5.3800   -4.6690   23.8440 C   0  0  0  0  0  0  0  0  0  0  0  0
    0.4600   -6.2540   22.4360 C   0  0  0  0  0  0  0  0  0  0  0  0
    2.0270   -8.3170   24.5440 C   0  0  0  0  0  0  0  0  0  0  0  0
    4.3350   -7.7580   24.4510 O   0  0  0  0  0  0  0  0  0  0  0  0
    6.7180   -4.4310   24.0890 C   0  0  0  0  0  0  0  0  0  0  0  0
    6.2200   -4.7020   26.3870 C   0  0  0  0  0  0  0  0  0  0  0  0
    0.5870   -7.2710   21.7650 O   0  0  0  0  0  0  0  0  0  0  0  0
   -0.7390   -5.3580   22.3360 C   0  0  0  0  0  0  0  0  0  0  0  0
    7.5950   -4.1620   22.8960 C   0  0  0  0  0  0  0  0  0  0  0  0
    7.1680   -4.4520   25.2950 C   0  0  0  0  0  0  0  0  0  0  0  0
    6.6500   -4.7350   27.7230 C   0  0  0  0  0  0  0  0  0  0  0  0
    7.7730   -2.6900   22.4970 C   0  0  0  0  0  0  0  0  0  0  0  0
    8.5200   -4.2500   25.5900 C   0  0  0  0  0  0  0  0  0  0  0  0
    7.9960   -4.5460   28.0270 C   0  0  0  0  0  0  0  0  0  0  0  0
    9.0800   -2.3340   22.2100 C   0  0  0  0  0  0  0  0  0  0  0  0
    8.9260   -4.3110   27.0120 C   0  0  0  0  0  0  0  0  0  0  0  0
   10.0170   -2.2030   23.4220 C   0  0  0  0  0  0  0  0  0  0  0  0
   10.8310   -0.9330   23.4200 C   0  0  0  0  0  0  0  0  0  0  0  0
   10.2600    0.2350   23.9380 C   0  0  0  0  0  0  0  0  0  0  0  0
   12.1320   -0.8750   22.9140 C   0  0  0  0  0  0  0  0  0  0  0  0
   12.8300   -2.0620   22.3240 C   0  0  0  0  0  0  0  0  0  0  0  0
   10.9210    1.4450   23.9770 C   0  0  0  0  0  0  0  0  0  0  0  0
   12.8140    0.3390   22.9470 C   0  0  0  0  0  0  0  0  0  0  0  0
   12.2530    1.5010   23.4590 C   0  0  0  0  0  0  0  0  0  0  0  0
  2  1  1  1
  2  3  1  0
  1  4  1  0
  2  5  1  0
  4  6  2  0
  4  7  1  0
  3  8  1  0
  5  9  1  6
  5 10  1  0
  7 11  2  0
  6 12  1  0
  8 13  2  0
  8 14  1  0
 11 15  1  0
 11 16  1  0
 12 16  2  0
 12 17  1  0
 15 18  1  0
 16 19  1  0
 17 20  2  0
 18 21  1  0
 19 22  2  0
 20 22  1  0
 21 23  1  0
 23 24  1  0
 24 25  2  0
 24 26  1  0
 26 27  1  0
 25 28  1  0
 26 29  2  0
 28 30  2  0
 29 30  1  0
M  END
