x0978_1-x0874_0
     RDKit          3D

 20 20  0  0  0  0  0  0  0  0999 V2000
    4.4050   -5.6070   22.8240 C   0  0  0  0  0  0  0  0  0  0  0  0
    3.2060   -6.4860   23.2280 C   0  0  2  0  0  0  0  0  0  0  0  0
    2.0070   -5.6420   23.2180 N   0  0  0  0  0  0  0  0  0  0  0  0
    4.6960   -4.3980   23.2390 N   0  0  0  0  0  0  0  0  0  0  0  0
    3.3620   -7.1750   24.5740 C   0  0  1  0  0  0  0  0  0  0  0  0
    5.8900   -3.7130   22.7160 C   0  0  0  0  0  0  0  0  0  0  0  0
    0.7920   -6.1680   22.5870 C   0  0  0  0  0  0  0  0  0  0  0  0
    2.2480   -8.1740   24.7490 C   0  0  0  0  0  0  0  0  0  0  0  0
    4.3900   -7.7870   24.7890 O   0  0  0  0  0  0  0  0  0  0  0  0
    6.9390   -3.5080   23.6780 C   0  0  0  0  0  0  0  0  0  0  0  0
    0.7520   -7.2200   21.9600 O   0  0  0  0  0  0  0  0  0  0  0  0
   -0.4370   -5.3330   22.7470 C   0  0  0  0  0  0  0  0  0  0  0  0
    7.8260   -2.4170   23.5130 C   0  0  0  0  0  0  0  0  0  0  0  0
    9.1620   -2.6690   23.1430 C   0  0  0  0  0  0  0  0  0  0  0  0
    9.5000   -1.3530   23.2210 C   0  0  0  0  0  0  0  0  0  0  0  0
   10.8350   -1.0730   22.8920 C   0  0  0  0  0  0  0  0  0  0  0  0
   11.5070    0.1120   23.1270 C   0  0  0  0  0  0  0  0  0  0  0  0
   11.7170   -1.9380   22.2690 C   0  0  0  0  0  0  0  0  0  0  0  0
   12.8170    0.2060   22.7440 C   0  0  0  0  0  0  0  0  0  0  0  0
   13.2830   -1.2650   22.0220 S   0  0  0  0  0  0  0  0  0  0  0  0
  2  1  1  1
  2  3  1  0
  1  4  2  3
  2  5  1  0
  4  6  1  0
  3  7  1  0
  5  8  1  6
  5  9  1  0
  6 10  1  0
  7 11  2  0
  7 12  1  0
 10 13  1  0
 13 14  1  0
 14 15  1  0
 15 16  1  0
 16 17  1  0
 16 18  2  0
 17 19  2  0
 18 20  1  0
 19 20  1  0
M  END
