x0978_1-x1385_1-x0831_0-x0540_3-x0072_0
     RDKit          3D

 40 42  0  0  0  0  0  0  0  0999 V2000
    4.1520   -5.4180   23.1660 C   0  0  0  0  0  0  0  0  0  0  0  0
    3.0260   -6.4390   23.2540 C   0  0  2  0  0  0  0  0  0  0  0  0
    1.7340   -5.7500   23.2980 N   0  0  0  0  0  0  0  0  0  0  0  0
    4.1200   -4.2150   23.6330 N   0  0  0  0  0  0  0  0  0  0  0  0
    3.2430   -7.2420   24.5310 C   0  0  1  0  0  0  0  0  0  0  0  0
    5.2120   -3.2510   23.5360 C   0  0  0  0  0  0  0  0  0  0  0  0
    0.6800   -6.2290   22.5530 C   0  0  0  0  0  0  0  0  0  0  0  0
    2.1510   -8.2480   24.7810 C   0  0  0  0  0  0  0  0  0  0  0  0
    4.4590   -7.9600   24.3720 O   0  0  0  0  0  0  0  0  0  0  0  0
    6.5920   -3.9210   23.2910 C   0  0  2  0  0  0  0  0  0  0  0  0
    0.7230   -7.2600   21.8980 O   0  0  0  0  0  0  0  0  0  0  0  0
   -0.5530   -5.3710   22.6080 C   0  0  0  0  0  0  0  0  0  0  0  0
    7.6840   -3.0860   23.7540 N   0  0  0  0  0  0  0  0  0  0  0  0
    6.7770   -4.0640   21.9430 C   0  0  0  0  0  0  0  0  0  0  0  0
    8.6830   -3.7640   24.4770 N   0  0  0  0  0  0  0  0  0  0  0  0
    6.7060   -2.8210   21.1710 N   0  0  0  0  0  0  0  0  0  0  0  0
    8.4970   -2.5070   22.6570 C   0  0  2  0  0  0  0  0  0  0  0  0
    6.3920   -3.1950   19.8370 C   0  0  0  0  0  0  0  0  0  0  0  0
    8.3180   -4.5520   25.8070 S   0  0  0  0  0  0  0  0  0  0  0  0
    9.4390   -1.8500   23.7060 C   0  0  1  0  0  0  0  0  0  0  0  0
    9.8140   -3.0030   24.4650 C   0  0  0  0  0  0  0  0  0  0  0  0
    7.7590   -1.8530   21.6210 C   0  0  2  0  0  0  0  0  0  0  0  0
    7.3950   -2.9150   18.7370 C   0  0  0  0  0  0  0  0  0  0  0  0
    5.3570   -3.8180   19.5780 O   0  0  0  0  0  0  0  0  0  0  0  0
    7.2820   -0.4010   21.8910 C   0  0  0  0  0  0  0  0  0  0  0  0
    6.6370   -4.8570   25.8390 C   0  0  0  0  0  0  0  0  0  0  0  0
    8.9720   -5.8350   25.8060 O   0  0  0  0  0  0  0  0  0  0  0  0
    8.5560   -3.6800   26.9050 O   0  0  0  0  0  0  0  0  0  0  0  0
   10.5400   -0.8270   23.4800 C   0  0  0  0  0  0  0  0  0  0  0  0
    5.7780    0.0650   21.8500 C   0  0  0  0  0  0  0  0  0  0  0  0
   10.2070    0.6010   23.9790 C   0  0  0  0  0  0  0  0  0  0  0  0
   11.9390   -0.9150   22.8630 C   0  0  0  0  0  0  0  0  0  0  0  0
    5.5080    1.2790   22.7480 C   0  0  0  0  0  0  0  0  0  0  0  0
   12.5410   -2.1610   22.2850 C   0  0  0  0  0  0  0  0  0  0  0  0
   11.0820    1.6690   23.8780 C   0  0  0  0  0  0  0  0  0  0  0  0
   12.7610    0.1780   22.7950 C   0  0  0  0  0  0  0  0  0  0  0  0
    4.3550    2.0950   22.3490 N   0  0  0  0  0  0  0  0  0  0  0  0
   12.3310    1.5310   23.3180 C   0  0  0  0  0  0  0  0  0  0  0  0
    3.2080    2.3090   23.2650 C   0  0  0  0  0  0  0  0  0  0  0  0
    2.9340    1.8080   24.3490 O   0  0  0  0  0  0  0  0  0  0  0  0
  2  1  1  1
  2  3  1  0
  1  4  2  3
  2  5  1  0
  4  6  1  0
  3  7  1  0
  5  8  1  6
  5  9  1  0
 10  6  1  6
  7 11  2  0
  7 12  1  0
 10 13  1  0
 10 14  1  0
 13 15  1  0
 14 16  1  0
 17 13  1  1
 16 18  1  0
 15 19  1  0
 17 20  1  0
 15 21  1  0
 20 21  1  0
 16 22  1  0
 17 22  1  0
 18 23  1  0
 18 24  2  0
 22 25  1  1
 19 26  1  0
 19 27  2  0
 19 28  2  0
 20 29  1  6
 25 30  1  0
 29 31  2  0
 29 32  1  0
 30 33  1  0
 32 34  1  0
 31 35  1  0
 32 36  2  0
 33 37  1  0
 35 38  2  0
 36 38  1  0
 37 39  1  0
 39 40  2  0
M  END
