x0978_1-x1493_0-x0831_0
     RDKit          3D

 31 32  0  0  0  0  0  0  0  0999 V2000
    3.5980   -6.5380   23.3450 C   0  0  2  0  0  0  0  0  0  0  0  0
    2.4920   -5.5710   23.1680 N   0  0  0  0  0  0  0  0  0  0  0  0
    1.2440   -6.0850   22.7590 C   0  0  0  0  0  0  0  0  0  0  0  0
    3.3740   -7.3440   24.6180 C   0  0  1  0  0  0  0  0  0  0  0  0
    5.1290   -6.0630   23.1170 C   0  0  2  0  0  0  0  0  0  0  0  0
    2.1830   -8.2660   24.5290 C   0  0  0  0  0  0  0  0  0  0  0  0
    4.3530   -8.0560   24.6570 O   0  0  0  0  0  0  0  0  0  0  0  0
    5.7310   -4.9020   24.0350 C   0  0  1  0  0  0  0  0  0  0  0  0
    5.3850   -5.8420   21.7650 C   0  0  0  0  0  0  0  0  0  0  0  0
    4.7070   -3.8960   24.1070 O   0  0  0  0  0  0  0  0  0  0  0  0
    1.2050   -7.1400   22.1220 O   0  0  0  0  0  0  0  0  0  0  0  0
   -0.0080   -5.3350   23.1290 C   0  0  0  0  0  0  0  0  0  0  0  0
    6.0780   -5.4130   25.4680 C   0  0  0  0  0  0  0  0  0  0  0  0
    6.8530   -4.2770   23.4250 C   0  0  1  0  0  0  0  0  0  0  0  0
    6.6330   -5.2290   21.3720 N   0  0  0  0  0  0  0  0  0  0  0  0
    4.9570   -5.8330   26.3790 C   0  0  0  0  0  0  0  0  0  0  0  0
    7.2320   -5.4980   25.8790 O   0  0  0  0  0  0  0  0  0  0  0  0
    6.4770   -4.2880   20.3390 C   0  0  0  0  0  0  0  0  0  0  0  0
    7.9760   -3.7370   24.3510 C   0  0  0  0  0  0  0  0  0  0  0  0
    7.5230   -4.9870   22.4660 C   0  0  0  0  0  0  0  0  0  0  0  0
    5.3950   -4.1930   19.7690 O   0  0  0  0  0  0  0  0  0  0  0  0
    7.6660   -3.4210   19.9620 C   0  0  0  0  0  0  0  0  0  0  0  0
    9.3290   -3.4110   23.6330 C   0  0  0  0  0  0  0  0  0  0  0  0
    9.4410   -2.0930   22.8600 C   0  0  0  0  0  0  0  0  0  0  0  0
   10.4480   -0.9850   23.1650 C   0  0  0  0  0  0  0  0  0  0  0  0
    9.9790    0.1330   23.9220 C   0  0  0  0  0  0  0  0  0  0  0  0
   11.7960   -1.0090   22.7100 C   0  0  0  0  0  0  0  0  0  0  0  0
   12.3900   -2.1220   21.9170 C   0  0  0  0  0  0  0  0  0  0  0  0
   10.8630    1.1600   24.1610 C   0  0  0  0  0  0  0  0  0  0  0  0
   12.6370    0.0590   22.9920 C   0  0  0  0  0  0  0  0  0  0  0  0
   12.1690    1.1300   23.7020 C   0  0  0  0  0  0  0  0  0  0  0  0
  1  2  1  1
  2  3  1  0
  1  4  1  0
  1  5  1  0
  4  6  1  6
  4  7  1  0
  5  8  1  0
  5  9  1  6
  8 10  1  1
  3 11  2  0
  3 12  1  0
  8 13  1  0
  8 14  1  0
  9 15  1  0
 13 16  1  0
 13 17  2  0
 15 18  1  0
 14 19  1  1
 14 20  1  0
 15 20  1  0
 18 21  2  0
 18 22  1  0
 19 23  1  0
 23 24  1  0
 24 25  1  0
 25 26  2  0
 25 27  1  0
 27 28  1  0
 26 29  1  0
 27 30  2  0
 29 31  2  0
 30 31  1  0
M  END
