x0978_1-x1336_0-x1418_0
     RDKit          3D

 27 28  0  0  0  0  0  0  0  0999 V2000
    4.1250   -6.0320   22.8640 C   0  0  0  0  0  0  0  0  0  0  0  0
    2.9000   -6.6960   23.4150 C   0  0  2  0  0  0  0  0  0  0  0  0
    1.7150   -5.8290   23.4950 N   0  0  0  0  0  0  0  0  0  0  0  0
    4.8560   -4.7040   23.0480 C   0  0  0  0  0  0  0  0  0  0  0  0
    3.1730   -7.4510   24.6850 C   0  0  1  0  0  0  0  0  0  0  0  0
    5.7360   -5.4190   21.9960 C   0  0  0  0  0  0  0  0  0  0  0  0
    5.9370   -3.6910   22.7870 C   0  0  1  0  0  0  0  0  0  0  0  0
    0.5780   -6.1470   22.6250 C   0  0  0  0  0  0  0  0  0  0  0  0
    2.0160   -8.3510   24.9930 C   0  0  0  0  0  0  0  0  0  0  0  0
    4.2850   -7.9440   24.5620 O   0  0  0  0  0  0  0  0  0  0  0  0
    6.4330   -2.6790   23.7290 N   0  0  0  0  0  0  0  0  0  0  0  0
    7.1900   -4.2890   22.1950 C   0  0  0  0  0  0  0  0  0  0  0  0
    0.5700   -7.0790   21.8350 O   0  0  0  0  0  0  0  0  0  0  0  0
   -0.6080   -5.2380   22.7740 C   0  0  0  0  0  0  0  0  0  0  0  0
    7.3970   -3.3730   21.1330 N   0  0  0  0  0  0  0  0  0  0  0  0
    7.6050   -1.9760   23.1140 C   0  0  2  0  0  0  0  0  0  0  0  0
    6.7340   -3.4900   19.9130 C   0  0  0  0  0  0  0  0  0  0  0  0
    7.7840   -2.0470   21.6640 C   0  0  0  0  0  0  0  0  0  0  0  0
    8.8150   -2.4770   23.9330 C   0  0  0  0  0  0  0  0  0  0  0  0
    5.6050   -4.0030   19.7300 O   0  0  0  0  0  0  0  0  0  0  0  0
    7.5130   -3.0500   18.7280 C   0  0  0  0  0  0  0  0  0  0  0  0
   10.1470   -2.6970   23.2210 C   0  0  0  0  0  0  0  0  0  0  0  0
   11.0340   -1.4260   23.1570 C   0  0  0  0  0  0  0  0  0  0  0  0
   12.3930   -1.5120   22.9160 C   0  0  0  0  0  0  0  0  0  0  0  0
   10.4930    0.1770   23.3580 S   0  0  0  0  0  0  0  0  0  0  0  0
   12.9810   -0.2670   22.9030 C   0  0  0  0  0  0  0  0  0  0  0  0
   12.0810    0.7930   23.1350 C   0  0  0  0  0  0  0  0  0  0  0  0
  2  1  1  1
  2  3  1  0
  1  4  2  3
  2  5  1  0
  4  6  1  0
  7  4  1  1
  3  8  1  0
  5  9  1  6
  5 10  1  0
  7 11  1  0
  7 12  1  0
  8 13  2  0
  8 14  1  0
 12 15  1  0
 11 16  1  0
 15 17  1  0
 15 18  1  0
 16 18  1  0
 16 19  1  1
 17 20  2  0
 17 21  1  0
 19 22  1  0
 22 23  1  0
 23 24  2  0
 23 25  1  0
 24 26  1  0
 25 27  1  0
 26 27  2  0
M  END
