x0978_1-x0831_0-x0831_1
     RDKit          3D

 29 30  0  0  0  0  0  0  0  0999 V2000
    4.3600   -5.3730   23.1270 C   0  0  0  0  0  0  0  0  0  0  0  0
    3.1840   -6.3710   23.2740 C   0  0  2  0  0  0  0  0  0  0  0  0
    1.9340   -5.6440   23.1260 N   0  0  0  0  0  0  0  0  0  0  0  0
    4.2500   -4.0080   23.6600 N   0  0  0  0  0  0  0  0  0  0  0  0
    3.1920   -7.1910   24.6050 C   0  0  1  0  0  0  0  0  0  0  0  0
    5.3610   -3.0190   23.5500 C   0  0  0  0  0  0  0  0  0  0  0  0
    0.8270   -6.2150   22.5380 C   0  0  0  0  0  0  0  0  0  0  0  0
    2.0570   -8.2890   24.5770 C   0  0  0  0  0  0  0  0  0  0  0  0
    4.4320   -7.8540   24.7500 O   0  0  0  0  0  0  0  0  0  0  0  0
    6.4730   -3.4020   22.5240 C   0  0  1  0  0  0  0  0  0  0  0  0
    0.8490   -7.2870   21.9520 O   0  0  0  0  0  0  0  0  0  0  0  0
   -0.4380   -5.4110   22.6600 C   0  0  0  0  0  0  0  0  0  0  0  0
    6.3460   -2.6880   21.2260 N   0  0  0  0  0  0  0  0  0  0  0  0
    7.7060   -3.2500   23.2220 C   0  0  0  0  0  0  0  0  0  0  0  0
    6.2610   -3.4180   20.0250 C   0  0  0  0  0  0  0  0  0  0  0  0
    8.5010   -1.9950   23.0080 N   0  0  0  0  0  0  0  0  0  0  0  0
    6.2990   -1.2270   21.2710 C   0  0  0  0  0  0  0  0  0  0  0  0
    5.4400   -4.3280   19.8380 O   0  0  0  0  0  0  0  0  0  0  0  0
    7.2480   -3.0580   18.9220 C   0  0  0  0  0  0  0  0  0  0  0  0
    9.9030   -2.2100   23.4480 C   0  0  0  0  0  0  0  0  0  0  0  0
    8.5360   -1.5620   21.6060 C   0  0  0  0  0  0  0  0  0  0  0  0
    7.5850   -0.6050   21.3290 C   0  0  0  0  0  0  0  0  0  0  0  0
   10.6960   -1.0480   23.4770 C   0  0  0  0  0  0  0  0  0  0  0  0
   10.2040    0.0340   24.0990 C   0  0  0  0  0  0  0  0  0  0  0  0
   11.9790   -0.9770   22.8680 C   0  0  0  0  0  0  0  0  0  0  0  0
   12.6150   -2.1290   22.1460 C   0  0  0  0  0  0  0  0  0  0  0  0
   10.9020    1.2150   24.1600 C   0  0  0  0  0  0  0  0  0  0  0  0
   12.6920    0.2240   22.9340 C   0  0  0  0  0  0  0  0  0  0  0  0
   12.1560    1.3190   23.5740 C   0  0  0  0  0  0  0  0  0  0  0  0
  2  1  1  1
  2  3  1  0
  1  4  2  3
  2  5  1  0
  4  6  1  0
  3  7  1  0
  5  8  1  6
  5  9  1  0
 10  6  1  1
  7 11  2  0
  7 12  1  0
 10 13  1  0
 10 14  1  0
 13 15  1  0
 14 16  1  0
 13 17  1  0
 15 18  2  0
 15 19  1  0
 16 20  1  0
 16 21  1  0
 17 22  1  0
 21 22  1  0
 20 23  1  0
 23 24  2  0
 23 25  1  0
 25 26  1  0
 24 27  1  0
 25 28  2  0
 27 29  2  0
 28 29  1  0
M  END
