x0978_1-x0387_0-x1386_1
     RDKit          3D

 26 27  0  0  0  0  0  0  0  0999 V2000
    4.1410   -5.1480   23.5130 C   0  0  0  0  0  0  0  0  0  0  0  0
    3.1350   -6.2870   23.3620 C   0  0  2  0  0  0  0  0  0  0  0  0
    1.8460   -5.6250   23.2170 N   0  0  0  0  0  0  0  0  0  0  0  0
    4.3830   -4.1670   22.5540 N   0  0  0  0  0  0  0  0  0  0  0  0
    3.1760   -7.1630   24.6090 C   0  0  1  0  0  0  0  0  0  0  0  0
    5.3520   -3.1270   22.9430 C   0  0  0  0  0  0  0  0  0  0  0  0
    0.7350   -6.2410   22.4970 C   0  0  0  0  0  0  0  0  0  0  0  0
    2.0730   -8.2610   24.5290 C   0  0  0  0  0  0  0  0  0  0  0  0
    4.4270   -7.8290   24.6910 O   0  0  0  0  0  0  0  0  0  0  0  0
    6.7360   -3.2690   22.2710 C   0  0  1  0  0  0  0  0  0  0  0  0
    0.8130   -7.3080   21.8990 O   0  0  0  0  0  0  0  0  0  0  0  0
   -0.5380   -5.4420   22.5410 C   0  0  0  0  0  0  0  0  0  0  0  0
    6.7100   -2.4940   21.0010 N   0  0  0  0  0  0  0  0  0  0  0  0
    7.7550   -3.0040   23.1440 C   0  0  0  0  0  0  0  0  0  0  0  0
    6.4400   -3.1520   19.7920 C   0  0  0  0  0  0  0  0  0  0  0  0
    8.6760   -1.8180   23.0170 N   0  0  0  0  0  0  0  0  0  0  0  0
    7.5950   -1.3190   20.8830 C   0  0  0  0  0  0  0  0  0  0  0  0
    7.4500   -2.9790   18.6890 C   0  0  0  0  0  0  0  0  0  0  0  0
    5.4560   -3.8940   19.6350 O   0  0  0  0  0  0  0  0  0  0  0  0
    9.8790   -1.9010   23.8600 C   0  0  0  0  0  0  0  0  0  0  0  0
    8.9320   -1.5410   21.6030 C   0  0  0  0  0  0  0  0  0  0  0  0
   11.0450   -1.5050   23.2790 C   0  0  0  0  0  0  0  0  0  0  0  0
   11.7140   -0.1920   23.4210 C   0  0  0  0  0  0  0  0  0  0  0  0
   11.8450   -2.2420   22.4410 C   0  0  0  0  0  0  0  0  0  0  0  0
   12.8540   -0.0050   22.7900 C   0  0  0  0  0  0  0  0  0  0  0  0
   13.2470   -1.4100   21.9210 S   0  0  0  0  0  0  0  0  0  0  0  0
  2  1  1  1
  2  3  1  0
  1  4  2  3
  2  5  1  0
  4  6  1  0
  3  7  1  0
  5  8  1  6
  5  9  1  0
 10  6  1  1
  7 11  2  0
  7 12  1  0
 10 13  1  0
 10 14  1  0
 13 15  1  0
 14 16  1  0
 13 17  1  0
 15 18  1  0
 15 19  2  0
 16 20  1  0
 16 21  1  0
 17 21  1  0
 20 22  1  0
 22 23  1  0
 22 24  2  0
 23 25  2  0
 24 26  1  0
 25 26  1  0
M  END
