x0978_1-x1374_2
     RDKit          3D

 15 14  0  0  0  0  0  0  0  0999 V2000
    4.3060   -5.5710   23.0620 C   0  0  0  0  0  0  0  0  0  0  0  0
    3.1040   -6.5190   23.3580 C   0  0  2  0  0  0  0  0  0  0  0  0
    1.9040   -5.6780   23.2870 N   0  0  0  0  0  0  0  0  0  0  0  0
    4.3030   -4.4020   23.4360 O   0  0  0  0  0  0  0  0  0  0  0  0
    5.4820   -6.1520   22.2910 C   0  0  0  0  0  0  0  0  0  0  0  0
    3.2130   -7.3220   24.6670 C   0  0  1  0  0  0  0  0  0  0  0  0
    6.4340   -5.0650   22.0430 N   0  0  0  0  0  0  0  0  0  0  0  0
    0.7500   -6.1570   22.6010 C   0  0  0  0  0  0  0  0  0  0  0  0
    2.1060   -8.3620   24.7460 C   0  0  0  0  0  0  0  0  0  0  0  0
    4.3480   -7.8030   24.6640 O   0  0  0  0  0  0  0  0  0  0  0  0
    6.4440   -4.5070   20.7560 C   0  0  0  0  0  0  0  0  0  0  0  0
    0.7860   -7.3810   21.8680 O   0  0  0  0  0  0  0  0  0  0  0  0
   -0.5160   -5.3500   22.6470 C   0  0  0  0  0  0  0  0  0  0  0  0
    5.4970   -4.6930   19.9780 O   0  0  0  0  0  0  0  0  0  0  0  0
    7.6970   -3.6620   20.4550 C   0  0  0  0  0  0  0  0  0  0  0  0
  1  2  1  0
  2  3  1  1
  1  4  2  0
  1  5  1  0
  2  6  1  0
  5  7  1  0
  3  8  1  0
  6  9  1  6
  6 10  1  0
  7 11  1  0
  8 12  2  0
  8 13  1  0
 11 14  2  0
 11 15  1  0
M  END
