x0978_1-x1418_1-x1386_0-x0397_0-x1412_0
     RDKit          3D

 36 39  0  0  0  0  0  0  0  0999 V2000
    4.2010   -4.8820   23.3010 C   0  0  0  0  0  0  0  0  0  0  0  0
    3.3400   -6.1550   23.2360 C   0  0  2  0  0  0  0  0  0  0  0  0
    2.0040   -5.5990   23.0560 N   0  0  0  0  0  0  0  0  0  0  0  0
    3.8620   -3.8620   23.8650 O   0  0  0  0  0  0  0  0  0  0  0  0
    5.5520   -4.9530   22.5960 C   0  0  0  0  0  0  0  0  0  0  0  0
    3.3310   -7.0540   24.5010 C   0  0  1  0  0  0  0  0  0  0  0  0
    6.2850   -3.5590   22.5260 C   0  0  1  0  0  0  0  0  0  0  0  0
    6.2670   -6.1050   22.9330 C   0  0  0  0  0  0  0  0  0  0  0  0
    5.8090   -5.9090   21.6250 C   0  0  0  0  0  0  0  0  0  0  0  0
    0.8930   -6.2760   22.5140 C   0  0  0  0  0  0  0  0  0  0  0  0
    2.1970   -8.0730   24.4660 C   0  0  0  0  0  0  0  0  0  0  0  0
    4.5090   -7.7780   24.6060 O   0  0  0  0  0  0  0  0  0  0  0  0
    7.7230   -3.7930   22.9590 C   0  0  0  0  0  0  0  0  0  0  0  0
    6.3780   -2.6820   21.2370 C   0  0  1  0  0  0  0  0  0  0  0  0
    0.9310   -7.3850   21.9980 O   0  0  0  0  0  0  0  0  0  0  0  0
   -0.4030   -5.4910   22.6080 C   0  0  0  0  0  0  0  0  0  0  0  0
    6.3180   -3.4780   19.9450 C   0  0  0  0  0  0  0  0  0  0  0  0
    5.1210   -2.0090   21.1970 O   0  0  0  0  0  0  0  0  0  0  0  0
    8.3140   -2.5190   23.3230 N   0  0  0  0  0  0  0  0  0  0  0  0
    7.4840   -1.5730   21.1730 C   0  0  0  0  0  0  0  0  0  0  0  0
    7.2250   -3.0640   18.7940 C   0  0  0  0  0  0  0  0  0  0  0  0
    5.5430   -4.4170   19.8350 O   0  0  0  0  0  0  0  0  0  0  0  0
    9.1390   -2.5130   24.5260 C   0  0  2  0  0  0  0  0  0  0  0  0
    8.7380   -1.8170   22.1000 C   0  0  0  0  0  0  0  0  0  0  0  0
    8.9630   -1.2630   25.1920 O   0  0  0  0  0  0  0  0  0  0  0  0
   10.6080   -2.6580   24.1100 C   0  0  0  0  0  0  0  0  0  0  0  0
    8.8890   -3.6380   25.5910 C   0  0  0  0  0  0  0  0  0  0  0  0
    9.7240   -4.8510   25.7070 C   0  0  0  0  0  0  0  0  0  0  0  0
    7.6470   -3.7780   26.8650 S   0  0  0  0  0  0  0  0  0  0  0  0
   11.2500   -1.5190   23.8550 C   0  0  0  0  0  0  0  0  0  0  0  0
    9.4170   -5.7170   26.6350 C   0  0  0  0  0  0  0  0  0  0  0  0
    8.3160   -5.3040   27.3730 C   0  0  0  0  0  0  0  0  0  0  0  0
   12.2730   -1.4780   22.9400 C   0  0  0  0  0  0  0  0  0  0  0  0
   11.0470   -0.2680   24.4050 C   0  0  0  0  0  0  0  0  0  0  0  0
   12.8650   -0.2570   22.7580 C   0  0  0  0  0  0  0  0  0  0  0  0
   12.1300    0.9030   23.7560 S   0  0  0  0  0  0  0  0  0  0  0  0
  1  2  1  0
  2  3  1  1
  1  4  2  0
  5  1  1  0
  2  6  1  0
  7  5  1  6
  5  8  1  0
  5  9  1  0
  8  9  1  0
  3 10  1  0
  6 11  1  6
  6 12  1  0
  7 13  1  0
  7 14  1  0
 10 15  2  0
 10 16  1  0
 14 17  1  0
 14 18  1  6
 13 19  1  0
 14 20  1  0
 17 21  1  0
 17 22  2  0
 19 23  1  0
 19 24  1  0
 20 24  1  0
 23 25  1  1
 23 26  1  0
 23 27  1  0
 27 28  2  0
 27 29  1  0
 26 30  1  0
 28 31  1  0
 29 32  1  0
 31 32  2  0
 30 33  1  0
 30 34  2  0
 33 35  2  0
 34 36  1  0
 35 36  1  0
M  END
