x0978_1-x0708_0-x0831_0
     RDKit          3D

 27 27  0  0  0  0  0  0  0  0999 V2000
    3.8700   -4.8800   23.3810 C   0  0  0  0  0  0  0  0  0  0  0  0
    3.0580   -6.2040   23.3700 C   0  0  2  0  0  0  0  0  0  0  0  0
    1.6750   -5.7570   23.4710 N   0  0  0  0  0  0  0  0  0  0  0  0
    5.2400   -4.4140   23.1330 N   0  0  0  0  0  0  0  0  0  0  0  0
    3.3860   -7.1170   24.5430 C   0  0  1  0  0  0  0  0  0  0  0  0
    5.3220   -3.0030   23.3150 C   0  0  0  0  0  0  0  0  0  0  0  0
    0.6530   -6.2450   22.5430 C   0  0  0  0  0  0  0  0  0  0  0  0
    2.2410   -8.0670   24.7750 C   0  0  0  0  0  0  0  0  0  0  0  0
    4.5420   -7.8810   24.2400 O   0  0  0  0  0  0  0  0  0  0  0  0
    6.6650   -2.4250   23.0660 N   0  0  0  0  0  0  0  0  0  0  0  0
    0.8370   -7.2730   21.9020 O   0  0  0  0  0  0  0  0  0  0  0  0
   -0.5980   -5.4250   22.4420 C   0  0  0  0  0  0  0  0  0  0  0  0
    7.6940   -2.9850   22.5030 C   0  0  0  0  0  0  0  0  0  0  0  0
    7.6210   -4.3480   22.0260 N   0  0  0  0  0  0  0  0  0  0  0  0
    9.0440   -2.3150   22.2630 C   0  0  0  0  0  0  0  0  0  0  0  0
    6.5360   -4.6360   21.1880 N   0  0  0  0  0  0  0  0  0  0  0  0
    9.9250   -2.2580   23.5200 C   0  0  0  0  0  0  0  0  0  0  0  0
    6.2750   -3.8910   20.0200 C   0  0  0  0  0  0  0  0  0  0  0  0
   10.7940   -0.9830   23.5030 C   0  0  0  0  0  0  0  0  0  0  0  0
    7.3560   -3.1130   19.2730 C   0  0  0  0  0  0  0  0  0  0  0  0
    5.1460   -3.9050   19.5510 O   0  0  0  0  0  0  0  0  0  0  0  0
   10.2850    0.1630   24.1030 C   0  0  0  0  0  0  0  0  0  0  0  0
   12.0640   -0.9240   22.9010 C   0  0  0  0  0  0  0  0  0  0  0  0
   12.6700   -2.1210   22.2310 C   0  0  0  0  0  0  0  0  0  0  0  0
   10.9800    1.3600   24.1180 C   0  0  0  0  0  0  0  0  0  0  0  0
   12.7750    0.2670   22.9140 C   0  0  0  0  0  0  0  0  0  0  0  0
   12.2420    1.3980   23.5100 C   0  0  0  0  0  0  0  0  0  0  0  0
  2  1  1  1
  2  3  1  0
  1  4  2  3
  2  5  1  0
  4  6  1  0
  3  7  1  0
  5  8  1  6
  5  9  1  0
  6 10  1  0
  7 11  2  0
  7 12  1  0
 10 13  2  3
 13 14  1  0
 13 15  1  0
 14 16  1  0
 15 17  1  0
 16 18  1  0
 17 19  1  0
 18 20  1  0
 18 21  2  0
 19 22  2  0
 19 23  1  0
 23 24  1  0
 22 25  1  0
 23 26  2  0
 25 27  2  0
 26 27  1  0
M  END
