x0978_1-x0736_1-x1418_0
     RDKit          3D

 26 27  0  0  0  0  0  0  0  0999 V2000
    4.1970   -5.3400   22.9820 C   0  0  0  0  0  0  0  0  0  0  0  0
    3.1120   -6.3590   23.2560 C   0  0  2  0  0  0  0  0  0  0  0  0
    1.7810   -5.7470   23.1690 N   0  0  0  0  0  0  0  0  0  0  0  0
    4.0710   -4.1280   23.4170 N   0  0  0  0  0  0  0  0  0  0  0  0
    3.3530   -7.1880   24.5230 C   0  0  1  0  0  0  0  0  0  0  0  0
    5.1140   -3.1180   23.1410 C   0  0  0  0  0  0  0  0  0  0  0  0
    0.6530   -6.1500   22.5380 C   0  0  0  0  0  0  0  0  0  0  0  0
    2.2220   -8.1760   24.7770 C   0  0  0  0  0  0  0  0  0  0  0  0
    4.5140   -7.9730   24.3910 O   0  0  0  0  0  0  0  0  0  0  0  0
    6.3790   -3.6860   22.4350 C   0  0  1  0  0  0  0  0  0  0  0  0
    0.6770   -7.2090   21.9120 O   0  0  0  0  0  0  0  0  0  0  0  0
   -0.6120   -5.3180   22.5970 C   0  0  0  0  0  0  0  0  0  0  0  0
    6.7080   -2.8880   21.2280 N   0  0  0  0  0  0  0  0  0  0  0  0
    7.5800   -3.7780   23.4330 C   0  0  0  0  0  0  0  0  0  0  0  0
    6.4020   -3.4000   19.9690 C   0  0  0  0  0  0  0  0  0  0  0  0
    8.4400   -2.5840   23.6060 N   0  0  0  0  0  0  0  0  0  0  0  0
    7.6820   -1.8060   21.4120 C   0  0  0  0  0  0  0  0  0  0  0  0
    7.3350   -3.0290   18.8330 C   0  0  0  0  0  0  0  0  0  0  0  0
    5.4430   -4.1510   19.7610 O   0  0  0  0  0  0  0  0  0  0  0  0
    9.8780   -2.8200   23.3950 C   0  0  0  0  0  0  0  0  0  0  0  0
    7.9340   -1.4440   22.8770 C   0  0  0  0  0  0  0  0  0  0  0  0
   10.8550   -1.6730   23.2490 C   0  0  0  0  0  0  0  0  0  0  0  0
   12.3670   -1.7260   22.9960 C   0  0  0  0  0  0  0  0  0  0  0  0
   10.3910   -0.0310   23.3390 S   0  0  0  0  0  0  0  0  0  0  0  0
   12.9220   -0.4270   22.9140 C   0  0  0  0  0  0  0  0  0  0  0  0
   11.9830    0.5470   23.0790 C   0  0  0  0  0  0  0  0  0  0  0  0
  2  1  1  1
  2  3  1  0
  1  4  2  3
  2  5  1  0
  4  6  1  0
  3  7  1  0
  5  8  1  6
  5  9  1  0
 10  6  1  1
  7 11  2  0
  7 12  1  0
 10 13  1  0
 10 14  1  0
 13 15  1  0
 14 16  1  0
 13 17  1  0
 15 18  1  0
 15 19  2  0
 16 20  1  0
 16 21  1  0
 17 21  1  0
 20 22  1  0
 22 23  2  0
 22 24  1  0
 23 25  1  0
 24 26  1  0
 25 26  2  0
M  END
