x0978_1-x1418_1-x0692_0
     RDKit          3D

 28 29  0  0  0  0  0  0  0  0999 V2000
    4.0790   -5.2320   23.3880 C   0  0  0  0  0  0  0  0  0  0  0  0
    3.0430   -6.3660   23.3520 C   0  0  2  0  0  0  0  0  0  0  0  0
    1.7410   -5.7120   23.3830 N   0  0  0  0  0  0  0  0  0  0  0  0
    4.3180   -4.0390   22.5820 N   0  0  0  0  0  0  0  0  0  0  0  0
    3.2270   -7.2680   24.5550 C   0  0  1  0  0  0  0  0  0  0  0  0
    5.4230   -3.1630   22.9910 C   0  0  0  0  0  0  0  0  0  0  0  0
    0.6470   -6.2050   22.5480 C   0  0  0  0  0  0  0  0  0  0  0  0
    2.1020   -8.2560   24.6390 C   0  0  0  0  0  0  0  0  0  0  0  0
    4.4510   -7.9630   24.3910 O   0  0  0  0  0  0  0  0  0  0  0  0
    6.5370   -3.4210   22.1870 C   0  0  2  0  0  0  0  0  0  0  0  0
    0.7740   -7.2490   21.9130 O   0  0  0  0  0  0  0  0  0  0  0  0
   -0.6030   -5.3780   22.5200 C   0  0  0  0  0  0  0  0  0  0  0  0
    7.7730   -3.5900   22.8420 C   0  0  0  0  0  0  0  0  0  0  0  0
    6.6290   -2.6990   21.0510 N   0  0  0  0  0  0  0  0  0  0  0  0
    6.3970   -3.2270   19.8070 C   0  0  0  0  0  0  0  0  0  0  0  0
    8.5100   -2.3360   23.0910 N   0  0  0  0  0  0  0  0  0  0  0  0
    7.5000   -1.5950   21.0810 C   0  0  0  0  0  0  0  0  0  0  0  0
    7.4170   -3.0010   18.7200 C   0  0  0  0  0  0  0  0  0  0  0  0
    5.4000   -3.9250   19.5950 O   0  0  0  0  0  0  0  0  0  0  0  0
    9.8070   -2.6360   23.6540 C   0  0  0  0  0  0  0  0  0  0  0  0
    8.6770   -1.5990   21.8250 C   0  0  0  0  0  0  0  0  0  0  0  0
   10.7710   -1.5060   23.4970 C   0  0  0  0  0  0  0  0  0  0  0  0
   10.3700   -0.1880   23.7640 C   0  0  0  0  0  0  0  0  0  0  0  0
   12.0860   -1.7430   23.0700 C   0  0  0  0  0  0  0  0  0  0  0  0
   11.2490    0.8710   23.6060 C   0  0  0  0  0  0  0  0  0  0  0  0
   12.9620   -0.6680   22.9200 C   0  0  0  0  0  0  0  0  0  0  0  0
   10.7510    2.2930   23.8920 C   0  0  0  0  0  0  0  0  0  0  0  0
   12.5480    0.6360   23.1860 C   0  0  0  0  0  0  0  0  0  0  0  0
  2  1  1  1
  2  3  1  0
  1  4  2  3
  2  5  1  0
  4  6  1  0
  3  7  1  0
  5  8  1  6
  5  9  1  0
 10  6  1  1
  7 11  2  0
  7 12  1  0
 10 13  1  0
 10 14  1  0
 14 15  1  0
 13 16  1  0
 14 17  1  0
 15 18  1  0
 15 19  2  0
 16 20  1  0
 16 21  1  0
 17 21  1  0
 20 22  1  0
 22 23  2  0
 22 24  1  0
 23 25  1  0
 24 26  2  0
 25 27  1  0
 25 28  2  0
 26 28  1  0
M  END
