x0978_1-x0874_0-x0831_1-x1458_0
     RDKit          3D

 34 35  0  0  0  0  0  0  0  0999 V2000
    4.5200   -5.4750   23.4180 C   0  0  0  0  0  0  0  0  0  0  0  0
    3.3020   -6.4040   23.2960 C   0  0  2  0  0  0  0  0  0  0  0  0
    2.0760   -5.6140   23.1620 N   0  0  0  0  0  0  0  0  0  0  0  0
    4.4420   -4.1730   23.3620 N   0  0  0  0  0  0  0  0  0  0  0  0
    3.2240   -7.2630   24.5530 C   0  0  1  0  0  0  0  0  0  0  0  0
    5.7490   -3.4910   23.5820 C   0  0  1  0  0  0  0  0  0  0  0  0
    0.9320   -6.1610   22.6160 C   0  0  0  0  0  0  0  0  0  0  0  0
    2.1350   -8.2950   24.4670 C   0  0  0  0  0  0  0  0  0  0  0  0
    4.3090   -7.8510   24.7590 O   0  0  0  0  0  0  0  0  0  0  0  0
    6.3370   -4.1190   24.6440 C   0  0  0  0  0  0  0  0  0  0  0  0
    6.6770   -3.4700   22.3480 C   0  0  1  0  0  0  0  0  0  0  0  0
    0.9260   -7.2200   22.0050 O   0  0  0  0  0  0  0  0  0  0  0  0
   -0.3320   -5.3660   22.8100 C   0  0  0  0  0  0  0  0  0  0  0  0
    7.3290   -3.2050   25.3520 C   0  0  0  0  0  0  0  0  0  0  0  0
    6.0880   -2.7710   21.1880 N   0  0  0  0  0  0  0  0  0  0  0  0
    7.9690   -3.0930   22.6330 C   0  0  0  0  0  0  0  0  0  0  0  0
    6.0610   -3.4020   19.9550 C   0  0  0  0  0  0  0  0  0  0  0  0
    7.2870   -3.4180   26.8030 N   0  0  0  0  0  0  0  0  0  0  0  0
    8.4980   -1.8280   22.6180 N   0  0  0  0  0  0  0  0  0  0  0  0
    5.7850   -1.3290   21.2610 C   0  0  0  0  0  0  0  0  0  0  0  0
    5.2630   -4.3030   19.7610 O   0  0  0  0  0  0  0  0  0  0  0  0
    7.0580   -3.0120   18.8720 C   0  0  0  0  0  0  0  0  0  0  0  0
    7.6360   -4.8210   27.1310 C   0  0  0  0  0  0  0  0  0  0  0  0
    7.9390   -2.3960   27.6170 C   0  0  0  0  0  0  0  0  0  0  0  0
    9.9360   -1.9860   22.4240 C   0  0  0  0  0  0  0  0  0  0  0  0
    8.1270   -1.0330   21.4490 C   0  0  0  0  0  0  0  0  0  0  0  0
    6.8870   -0.4760   21.3580 C   0  0  0  0  0  0  0  0  0  0  0  0
    9.1000   -4.8930   27.4800 C   0  0  0  0  0  0  0  0  0  0  0  0
    6.9320   -5.5920   28.0340 C   0  0  0  0  0  0  0  0  0  0  0  0
   10.7340   -0.8060   22.9090 C   0  0  0  0  0  0  0  0  0  0  0  0
   11.6980    0.2030   23.2460 C   0  0  0  0  0  0  0  0  0  0  0  0
   11.6520   -1.6230   22.1700 C   0  0  0  0  0  0  0  0  0  0  0  0
   13.0100    0.1980   22.8790 C   0  0  0  0  0  0  0  0  0  0  0  0
   13.2970   -1.2930   21.9180 S   0  0  0  0  0  0  0  0  0  0  0  0
  2  1  1  1
  2  3  1  0
  1  4  2  3
  2  5  1  0
  4  6  1  0
  3  7  1  0
  5  8  1  6
  5  9  1  0
  6 10  1  1
  6 11  1  0
  7 12  2  0
  7 13  1  0
 10 14  1  0
 11 15  1  0
 11 16  1  1
 15 17  1  0
 14 18  1  0
 16 19  1  0
 15 20  1  0
 17 21  2  0
 17 22  1  0
 18 23  1  0
 18 24  1  0
 19 25  1  0
 19 26  1  0
 20 27  1  0
 26 27  1  0
 23 28  1  0
 23 29  1  0
 25 30  1  0
 30 31  1  0
 30 32  2  0
 31 33  2  0
 32 34  1  0
 33 34  1  0
M  END
