x0978_1-x1382_1
     RDKit          3D

 22 22  0  0  0  0  0  0  0  0999 V2000
    4.3930   -5.7140   22.7920 C   0  0  0  0  0  0  0  0  0  0  0  0
    3.1270   -6.4610   23.2170 C   0  0  2  0  0  0  0  0  0  0  0  0
    1.9520   -5.7090   23.2790 N   0  0  0  0  0  0  0  0  0  0  0  0
    4.4300   -4.3600   22.5010 N   0  0  0  0  0  0  0  0  0  0  0  0
    3.3150   -7.2460   24.5230 C   0  0  1  0  0  0  0  0  0  0  0  0
    5.5350   -3.5070   22.0750 C   0  0  0  0  0  0  0  0  0  0  0  0
    0.7440   -6.1890   22.5850 C   0  0  0  0  0  0  0  0  0  0  0  0
    2.1060   -8.1390   24.6050 C   0  0  0  0  0  0  0  0  0  0  0  0
    4.3950   -7.7770   24.7380 O   0  0  0  0  0  0  0  0  0  0  0  0
    5.5710   -2.2690   22.6370 C   0  0  0  0  0  0  0  0  0  0  0  0
    0.7570   -7.2390   21.9510 O   0  0  0  0  0  0  0  0  0  0  0  0
   -0.4820   -5.3390   22.6910 C   0  0  0  0  0  0  0  0  0  0  0  0
    6.4200   -2.1700   23.7570 C   0  0  0  0  0  0  0  0  0  0  0  0
    7.5150   -1.4350   23.5290 C   0  0  0  0  0  0  0  0  0  0  0  0
    8.6580   -2.2280   23.4090 C   0  0  0  0  0  0  0  0  0  0  0  0
    9.8650   -1.5390   23.3000 C   0  0  0  0  0  0  0  0  0  0  0  0
   10.9440   -1.9870   22.3510 C   0  0  0  0  0  0  0  0  0  0  0  0
   10.2660   -0.2790   24.0880 C   0  0  0  0  0  0  0  0  0  0  0  0
   12.2860   -1.3280   22.1490 C   0  0  0  0  0  0  0  0  0  0  0  0
   11.6240    0.3790   23.8710 C   0  0  0  0  0  0  0  0  0  0  0  0
   13.3770   -1.9530   21.0420 Cl  0  0  0  0  0  0  0  0  0  0  0  0
   12.5710   -0.0830   22.9870 C   0  0  0  0  0  0  0  0  0  0  0  0
  2  1  1  1
  2  3  1  0
  1  4  2  3
  2  5  1  0
  4  6  1  0
  3  7  1  0
  5  8  1  6
  5  9  1  0
  6 10  1  0
  7 11  2  0
  7 12  1  0
 10 13  1  0
 13 14  1  0
 14 15  1  0
 15 16  1  0
 16 17  2  0
 16 18  1  0
 17 19  1  0
 18 20  2  0
 19 21  1  0
 19 22  2  0
 20 22  1  0
M  END
