x0978_1-x0770_1-x0831_0-x0397_0
     RDKit          3D

 31 33  0  0  0  0  0  0  0  0999 V2000
    4.3070   -4.8210   23.4920 C   0  0  0  0  0  0  0  0  0  0  0  0
    3.3320   -6.0480   23.2780 C   0  0  2  0  0  0  0  0  0  0  0  0
    1.9850   -5.6750   23.3260 N   0  0  0  0  0  0  0  0  0  0  0  0
    4.0320   -3.7110   24.3430 O   0  0  0  0  0  0  0  0  0  0  0  0
    5.6680   -4.7840   22.7390 C   0  0  0  0  0  0  0  0  0  0  0  0
    3.5300   -7.0870   24.4030 C   0  0  1  0  0  0  0  0  0  0  0  0
    6.4640   -3.4300   22.5870 C   0  0  2  0  0  0  0  0  0  0  0  0
    6.4890   -5.7850   22.9980 C   0  0  0  0  0  0  0  0  0  0  0  0
    6.0670   -6.0880   21.8030 C   0  0  0  0  0  0  0  0  0  0  0  0
    0.8790   -6.2760   22.5610 C   0  0  0  0  0  0  0  0  0  0  0  0
    2.3420   -7.9950   24.5770 C   0  0  0  0  0  0  0  0  0  0  0  0
    4.5120   -7.7940   24.2110 O   0  0  0  0  0  0  0  0  0  0  0  0
    6.3540   -2.6470   21.2780 C   0  0  1  0  0  0  0  0  0  0  0  0
    7.9140   -3.6230   23.0960 C   0  0  0  0  0  0  0  0  0  0  0  0
    0.9650   -7.3400   21.9640 O   0  0  0  0  0  0  0  0  0  0  0  0
   -0.4130   -5.4560   22.5640 C   0  0  0  0  0  0  0  0  0  0  0  0
    6.3470   -3.4630   19.9870 C   0  0  0  0  0  0  0  0  0  0  0  0
    5.0560   -2.0850   21.2400 O   0  0  0  0  0  0  0  0  0  0  0  0
    8.6200   -2.2980   23.0960 N   0  0  0  0  0  0  0  0  0  0  0  0
    7.3050   -1.5060   21.0970 C   0  0  0  0  0  0  0  0  0  0  0  0
    7.3050   -3.0630   18.8680 C   0  0  0  0  0  0  0  0  0  0  0  0
    5.5730   -4.4080   19.8510 O   0  0  0  0  0  0  0  0  0  0  0  0
   10.0210   -2.4720   23.5510 C   0  0  0  0  0  0  0  0  0  0  0  0
    8.6620   -1.7130   21.7670 C   0  0  0  0  0  0  0  0  0  0  0  0
   10.8200   -1.1410   23.5170 C   0  0  0  0  0  0  0  0  0  0  0  0
   10.2170   -0.0530   24.1760 C   0  0  0  0  0  0  0  0  0  0  0  0
   12.0680   -0.9590   22.8820 C   0  0  0  0  0  0  0  0  0  0  0  0
   12.7730   -2.0570   22.1530 C   0  0  0  0  0  0  0  0  0  0  0  0
   10.8500    1.1980   24.1920 C   0  0  0  0  0  0  0  0  0  0  0  0
   12.6760    0.2940   22.9230 C   0  0  0  0  0  0  0  0  0  0  0  0
   12.0770    1.3510   23.5600 C   0  0  0  0  0  0  0  0  0  0  0  0
  1  2  1  0
  2  3  1  1
  1  4  2  0
  5  1  1  0
  2  6  1  0
  7  5  1  6
  5  8  1  0
  5  9  1  0
  8  9  1  0
  3 10  1  0
  6 11  1  6
  6 12  1  0
  7 13  1  0
  7 14  1  0
 10 15  2  0
 10 16  1  0
 13 17  1  0
 13 18  1  1
 14 19  1  0
 13 20  1  0
 17 21  1  0
 17 22  2  0
 19 23  1  0
 19 24  1  0
 20 24  1  0
 23 25  1  0
 25 26  2  0
 25 27  1  0
 27 28  1  0
 26 29  1  0
 27 30  2  0
 29 31  2  0
 30 31  1  0
M  END
