x0978_1-x0831_0-x1418_1
     RDKit          3D

 28 29  0  0  0  0  0  0  0  0999 V2000
    4.1720   -5.1260   23.4280 C   0  0  0  0  0  0  0  0  0  0  0  0
    3.1920   -6.3060   23.2830 C   0  0  2  0  0  0  0  0  0  0  0  0
    1.8640   -5.6870   23.1970 N   0  0  0  0  0  0  0  0  0  0  0  0
    4.5870   -4.3820   22.4410 N   0  0  0  0  0  0  0  0  0  0  0  0
    3.3000   -7.1910   24.5240 C   0  0  1  0  0  0  0  0  0  0  0  0
    5.4790   -3.3220   22.9610 C   0  0  0  0  0  0  0  0  0  0  0  0
    0.8050   -6.2570   22.5370 C   0  0  0  0  0  0  0  0  0  0  0  0
    2.2140   -8.2310   24.4890 C   0  0  0  0  0  0  0  0  0  0  0  0
    4.3380   -7.8080   24.7460 O   0  0  0  0  0  0  0  0  0  0  0  0
    6.6480   -2.7960   22.3720 C   0  0  1  0  0  0  0  0  0  0  0  0
    0.8760   -7.3080   21.9170 O   0  0  0  0  0  0  0  0  0  0  0  0
   -0.4760   -5.4740   22.6390 C   0  0  0  0  0  0  0  0  0  0  0  0
    7.8280   -3.5000   22.6370 C   0  0  0  0  0  0  0  0  0  0  0  0
    6.5720   -2.3480   20.9610 N   0  0  0  0  0  0  0  0  0  0  0  0
    6.3860   -3.2320   19.8840 C   0  0  0  0  0  0  0  0  0  0  0  0
    9.0070   -2.6260   22.3770 N   0  0  0  0  0  0  0  0  0  0  0  0
    7.4760   -1.2080   20.8380 C   0  0  0  0  0  0  0  0  0  0  0  0
    7.3530   -3.0240   18.7300 C   0  0  0  0  0  0  0  0  0  0  0  0
    5.5360   -4.1390   19.7970 O   0  0  0  0  0  0  0  0  0  0  0  0
    9.9770   -2.5200   23.4920 C   0  0  0  0  0  0  0  0  0  0  0  0
    8.7050   -1.3070   21.7600 C   0  0  0  0  0  0  0  0  0  0  0  0
   10.6810   -1.1810   23.5240 C   0  0  0  0  0  0  0  0  0  0  0  0
   10.0450    0.0390   24.2220 C   0  0  0  0  0  0  0  0  0  0  0  0
   11.9400   -1.0370   22.8990 C   0  0  0  0  0  0  0  0  0  0  0  0
   12.6300   -2.1570   22.1980 C   0  0  0  0  0  0  0  0  0  0  0  0
   10.8220    1.3680   24.1880 C   0  0  0  0  0  0  0  0  0  0  0  0
   12.6710    0.2680   22.8970 C   0  0  0  0  0  0  0  0  0  0  0  0
   12.0610    1.4850   23.5650 C   0  0  0  0  0  0  0  0  0  0  0  0
  2  1  1  1
  2  3  1  0
  1  4  2  3
  2  5  1  0
  4  6  1  0
  3  7  1  0
  5  8  1  6
  5  9  1  0
 10  6  1  6
  7 11  2  0
  7 12  1  0
 10 13  1  0
 10 14  1  0
 14 15  1  0
 13 16  1  0
 14 17  1  0
 15 18  1  0
 15 19  2  0
 16 20  1  0
 16 21  1  0
 17 21  1  0
 20 22  1  0
 22 23  2  0
 22 24  1  0
 24 25  1  0
 23 26  1  0
 24 27  2  0
 26 28  2  0
 27 28  1  0
M  END
