x0978_1-x1418_1-x0397_0-x0387_0-x1418_0
     RDKit          3D

 33 37  0  0  0  0  0  0  0  0999 V2000
    4.4660   -5.5100   22.8720 C   0  0  0  0  0  0  0  0  0  0  0  0
    3.2380   -6.4040   23.1020 C   0  0  2  0  0  0  0  0  0  0  0  0
    2.0390   -5.5760   23.0250 N   0  0  0  0  0  0  0  0  0  0  0  0
    4.5380   -4.4190   23.4330 O   0  0  0  0  0  0  0  0  0  0  0  0
    5.7040   -4.5130   22.4250 C   0  0  0  0  0  0  0  0  0  0  0  0
    3.2790   -7.0560   24.4970 C   0  0  1  0  0  0  0  0  0  0  0  0
    6.6470   -3.2090   22.0840 C   0  0  1  0  0  0  0  0  0  0  0  0
    6.3930   -5.5250   23.3450 C   0  0  0  0  0  0  0  0  0  0  0  0
    5.9700   -5.9370   21.9290 C   0  0  0  0  0  0  0  0  0  0  0  0
    0.9100   -5.9650   22.4050 C   0  0  0  0  0  0  0  0  0  0  0  0
    2.0920   -7.9580   24.7670 C   0  0  0  0  0  0  0  0  0  0  0  0
    4.4720   -7.8230   24.6270 O   0  0  0  0  0  0  0  0  0  0  0  0
    7.9640   -3.5080   22.7600 C   0  0  0  0  0  0  0  0  0  0  0  0
    6.9090   -2.5550   20.8100 C   0  0  1  0  0  0  0  0  0  0  0  0
    0.8400   -7.0180   21.7710 O   0  0  0  0  0  0  0  0  0  0  0  0
   -0.2590   -5.0310   22.5260 C   0  0  0  0  0  0  0  0  0  0  0  0
    6.5850   -3.1130   19.6270 C   0  0  0  0  0  0  0  0  0  0  0  0
    5.7350   -3.6470   19.7200 O   0  0  0  0  0  0  0  0  0  0  0  0
    8.7490   -2.2870   22.9660 C   0  0  2  0  0  0  0  0  0  0  0  0
    7.6260   -1.3000   21.0140 C   0  0  0  0  0  0  0  0  0  0  0  0
    7.1740   -2.5200   18.3610 C   0  0  0  0  0  0  0  0  0  0  0  0
    5.8870   -4.1230   19.5740 O   0  0  0  0  0  0  0  0  0  0  0  0
    9.7170   -1.5590   24.2350 C   0  0  0  0  0  0  0  0  0  0  0  0
   10.0540   -2.6430   23.5460 C   0  0  0  0  0  0  0  0  0  0  0  0
    8.9430   -1.6010   21.6850 C   0  0  0  0  0  0  0  0  0  0  0  0
   11.7330   -1.8440   22.5480 C   0  0  1  0  0  0  0  0  0  0  0  0
   10.8900   -0.2770   24.7770 S   0  0  0  0  0  0  0  0  0  0  0  0
   11.0930   -1.2030   23.6570 C   0  0  0  0  0  0  0  0  0  0  0  0
   13.1760   -1.1740   22.2600 S   0  0  0  0  0  0  0  0  0  0  0  0
   11.4450   -0.1860   24.4810 C   0  0  0  0  0  0  0  0  0  0  0  0
   12.0010   -0.0950   24.1850 C   0  0  0  0  0  0  0  0  0  0  0  0
   13.2120   -0.0450   23.4170 C   0  0  0  0  0  0  0  0  0  0  0  0
   11.5470   -0.6490   23.9210 C   0  0  0  0  0  0  0  0  0  0  0  0
  1  2  1  0
  2  3  1  1
  1  4  2  0
  5  1  1  0
  2  6  1  0
  7  5  1  6
  5  8  1  0
  5  9  1  0
  8  9  1  0
  3 10  1  0
  6 11  1  6
  6 12  1  0
  7 13  1  0
  7 14  1  0
 10 15  2  0
 10 16  1  0
 14 17  1  0
 14 18  1  1
 19 13  1  1
 14 20  1  0
 17 21  1  0
 17 22  2  0
 19 23  1  0
 19 24  1  0
 19 25  1  0
 20 25  1  0
 26 24  1  1
 23 27  2  0
 26 28  1  0
 27 28  1  0
 26 29  1  0
 27 30  2  0
 30 31  1  0
 29 32  2  0
 31 32  1  0
 28 33  1  0
 31 33  1  0
M  END
