x0978_1-x0769_0
     RDKit          3D

 18 18  0  0  0  0  0  0  0  0999 V2000
    3.3480   -6.5180   23.1770 C   0  0  2  0  0  0  0  0  0  0  0  0
    2.2750   -5.6550   23.1250 N   0  0  0  0  0  0  0  0  0  0  0  0
    0.9490   -6.1200   22.6410 C   0  0  0  0  0  0  0  0  0  0  0  0
    3.3740   -7.3020   24.4950 C   0  0  1  0  0  0  0  0  0  0  0  0
    4.7720   -6.0480   23.2160 C   0  0  2  0  0  0  0  0  0  0  0  0
    2.1670   -8.2080   24.6250 C   0  0  0  0  0  0  0  0  0  0  0  0
    4.3890   -7.9780   24.4710 O   0  0  0  0  0  0  0  0  0  0  0  0
    4.9740   -4.9070   24.0950 N   0  0  0  0  0  0  0  0  0  0  0  0
    5.5580   -6.1350   22.0410 C   0  0  0  0  0  0  0  0  0  0  0  0
    4.4950   -3.8400   23.3670 O   0  0  0  0  0  0  0  0  0  0  0  0
    0.9450   -7.2610   22.0080 O   0  0  0  0  0  0  0  0  0  0  0  0
   -0.3470   -5.3440   22.8560 C   0  0  0  0  0  0  0  0  0  0  0  0
    6.4200   -5.0980   21.9130 N   0  0  0  0  0  0  0  0  0  0  0  0
    6.4070   -4.6300   24.2200 C   0  0  0  0  0  0  0  0  0  0  0  0
    6.5240   -4.4450   20.7010 C   0  0  0  0  0  0  0  0  0  0  0  0
    7.0850   -4.7250   23.0320 C   0  0  0  0  0  0  0  0  0  0  0  0
    5.5840   -4.4100   19.8940 O   0  0  0  0  0  0  0  0  0  0  0  0
    7.8920   -3.7590   20.4640 C   0  0  0  0  0  0  0  0  0  0  0  0
  1  2  1  1
  2  3  1  0
  1  4  1  0
  1  5  1  0
  4  6  1  6
  4  7  1  0
  5  8  1  0
  5  9  1  6
  8 10  1  0
  3 11  2  0
  3 12  1  0
  9 13  1  0
  8 14  1  0
 13 15  1  0
 13 16  1  0
 14 16  1  0
 15 17  2  0
 15 18  1  0
M  END
