x0978_1-x1386_1-x0692_0-x1386_0
     RDKit          3D

 29 30  0  0  0  0  0  0  0  0999 V2000
    4.0040   -5.1880   23.4220 C   0  0  0  0  0  0  0  0  0  0  0  0
    3.0130   -6.3660   23.3890 C   0  0  2  0  0  0  0  0  0  0  0  0
    1.7060   -5.7220   23.3600 N   0  0  0  0  0  0  0  0  0  0  0  0
    4.3470   -4.1180   22.4880 N   0  0  0  0  0  0  0  0  0  0  0  0
    3.1380   -7.2250   24.6390 C   0  0  1  0  0  0  0  0  0  0  0  0
    5.3360   -3.1260   22.9200 C   0  0  0  0  0  0  0  0  0  0  0  0
    0.6360   -6.2290   22.5030 C   0  0  0  0  0  0  0  0  0  0  0  0
    2.0850   -8.2930   24.6210 C   0  0  0  0  0  0  0  0  0  0  0  0
    4.4160   -7.8360   24.6720 O   0  0  0  0  0  0  0  0  0  0  0  0
    6.7020   -3.3170   22.2200 C   0  0  1  0  0  0  0  0  0  0  0  0
    0.7820   -7.2780   21.8810 O   0  0  0  0  0  0  0  0  0  0  0  0
   -0.6120   -5.4020   22.4410 C   0  0  0  0  0  0  0  0  0  0  0  0
    6.7070   -2.5050   20.9790 N   0  0  0  0  0  0  0  0  0  0  0  0
    7.7920   -3.0770   23.0570 C   0  0  0  0  0  0  0  0  0  0  0  0
    6.4250   -3.1230   19.7710 C   0  0  0  0  0  0  0  0  0  0  0  0
    8.4280   -1.8970   23.0670 N   0  0  0  0  0  0  0  0  0  0  0  0
    7.6040   -1.4010   20.9350 C   0  0  0  0  0  0  0  0  0  0  0  0
    7.3920   -2.9490   18.6370 C   0  0  0  0  0  0  0  0  0  0  0  0
    5.4390   -3.8650   19.6060 O   0  0  0  0  0  0  0  0  0  0  0  0
    9.5610   -1.9290   23.9730 C   0  0  1  0  0  0  0  0  0  0  0  0
    8.7640   -1.6140   21.6780 C   0  0  0  0  0  0  0  0  0  0  0  0
   10.2440   -3.2650   23.9700 C   0  0  0  0  0  0  0  0  0  0  0  0
   10.6010   -1.0850   23.6700 C   0  0  0  0  0  0  0  0  0  0  0  0
   10.3690    0.2660   23.7920 C   0  0  0  0  0  0  0  0  0  0  0  0
   11.8720   -1.5110   23.2500 C   0  0  0  0  0  0  0  0  0  0  0  0
   11.3620    1.1790   23.5020 C   0  0  0  0  0  0  0  0  0  0  0  0
   12.8870   -0.6120   22.9590 C   0  0  0  0  0  0  0  0  0  0  0  0
   11.0300    2.6290   23.6380 C   0  0  0  0  0  0  0  0  0  0  0  0
   12.6670    0.7730   23.0760 C   0  0  0  0  0  0  0  0  0  0  0  0
  2  1  1  1
  2  3  1  0
  1  4  2  3
  2  5  1  0
  4  6  1  0
  3  7  1  0
  5  8  1  6
  5  9  1  0
 10  6  1  1
  7 11  2  0
  7 12  1  0
 10 13  1  0
 10 14  1  0
 13 15  1  0
 14 16  1  0
 13 17  1  0
 15 18  1  0
 15 19  2  0
 16 20  1  0
 16 21  1  0
 17 21  1  0
 20 22  1  6
 20 23  1  0
 23 24  2  0
 23 25  1  0
 24 26  1  0
 25 27  2  0
 26 28  1  0
 26 29  2  0
 27 29  1  0
M  END
