x0978_1-x1412_0-x1386_0-x0692_1
     RDKit          3D

 33 35  0  0  0  0  0  0  0  0999 V2000
    4.0520   -6.0860   22.6440 C   0  0  0  0  0  0  0  0  0  0  0  0
    2.8490   -6.7530   23.2800 C   0  0  2  0  0  0  0  0  0  0  0  0
    1.7470   -5.7940   23.2880 N   0  0  0  0  0  0  0  0  0  0  0  0
    4.3590   -4.8550   22.7660 N   0  0  0  0  0  0  0  0  0  0  0  0
    3.1570   -7.3060   24.6470 C   0  0  1  0  0  0  0  0  0  0  0  0
    5.5610   -4.6650   21.9520 C   0  0  0  0  0  0  0  0  0  0  0  0
    0.6150   -6.1380   22.5840 C   0  0  0  0  0  0  0  0  0  0  0  0
    2.1350   -8.3250   25.0710 C   0  0  0  0  0  0  0  0  0  0  0  0
    4.3990   -7.9760   24.5270 O   0  0  0  0  0  0  0  0  0  0  0  0
    6.1800   -3.3050   22.2690 C   0  0  2  0  0  0  0  0  0  0  0  0
    0.5650   -7.1200   21.8530 O   0  0  0  0  0  0  0  0  0  0  0  0
   -0.5770   -5.2410   22.7630 C   0  0  0  0  0  0  0  0  0  0  0  0
    6.5320   -2.5440   21.0640 N   0  0  0  0  0  0  0  0  0  0  0  0
    7.4710   -3.6420   23.0830 C   0  0  0  0  0  0  0  0  0  0  0  0
    6.3010   -3.1950   19.8330 C   0  0  0  0  0  0  0  0  0  0  0  0
    8.0940   -2.3840   23.4080 N   0  0  0  0  0  0  0  0  0  0  0  0
    7.5580   -1.4870   21.2450 C   0  0  0  0  0  0  0  0  0  0  0  0
    5.3520   -3.9740   19.6590 O   0  0  0  0  0  0  0  0  0  0  0  0
    7.3010   -2.9360   18.7270 C   0  0  0  0  0  0  0  0  0  0  0  0
    9.0610   -2.4660   24.5260 C   0  0  2  0  0  0  0  0  0  0  0  0
    8.6180   -1.8110   22.1350 C   0  0  0  0  0  0  0  0  0  0  0  0
    8.8570   -1.4610   25.2150 O   0  0  0  0  0  0  0  0  0  0  0  0
   10.3380   -2.6960   24.0150 C   0  0  0  0  0  0  0  0  0  0  0  0
    8.8280   -3.5840   25.5590 C   0  0  0  0  0  0  0  0  0  0  0  0
    9.7290   -4.6550   25.6150 C   0  0  0  0  0  0  0  0  0  0  0  0
    7.5460   -3.7280   26.7490 S   0  0  0  0  0  0  0  0  0  0  0  0
   11.1830   -1.4560   23.7260 C   0  0  0  0  0  0  0  0  0  0  0  0
    9.3980   -5.6070   26.6140 C   0  0  0  0  0  0  0  0  0  0  0  0
    8.2820   -5.2560   27.2930 C   0  0  0  0  0  0  0  0  0  0  0  0
   12.2580   -1.4010   22.8690 C   0  0  0  0  0  0  0  0  0  0  0  0
   11.0100   -0.0700   24.3130 C   0  0  0  0  0  0  0  0  0  0  0  0
   12.8770   -0.2130   22.7460 C   0  0  0  0  0  0  0  0  0  0  0  0
   12.1890    0.9900   23.6850 S   0  0  0  0  0  0  0  0  0  0  0  0
  2  1  1  1
  2  3  1  0
  1  4  2  3
  2  5  1  0
  4  6  1  0
  3  7  1  0
  5  8  1  6
  5  9  1  0
 10  6  1  6
  7 11  2  0
  7 12  1  0
 10 13  1  0
 10 14  1  0
 13 15  1  0
 14 16  1  0
 13 17  1  0
 15 18  2  0
 15 19  1  0
 16 20  1  0
 16 21  1  0
 17 21  1  0
 20 22  1  1
 20 23  1  0
 20 24  1  0
 24 25  2  0
 24 26  1  0
 23 27  1  0
 25 28  1  0
 26 29  1  0
 28 29  2  0
 27 30  1  0
 27 31  2  0
 30 32  2  0
 31 33  1  0
 32 33  1  0
M  END
