x0978_1-x0874_0-x0831_1
     RDKit          3D

 27 28  0  0  0  0  0  0  0  0999 V2000
    4.4230   -5.3500   23.1130 C   0  0  0  0  0  0  0  0  0  0  0  0
    3.2580   -6.3170   23.2820 C   0  0  2  0  0  0  0  0  0  0  0  0
    1.9390   -5.6650   23.2350 N   0  0  0  0  0  0  0  0  0  0  0  0
    4.3060   -4.1390   23.5660 N   0  0  0  0  0  0  0  0  0  0  0  0
    3.4590   -7.2290   24.4910 C   0  0  1  0  0  0  0  0  0  0  0  0
    5.3230   -3.0710   23.4960 C   0  0  0  0  0  0  0  0  0  0  0  0
    0.7860   -6.2310   22.5530 C   0  0  0  0  0  0  0  0  0  0  0  0
    2.2970   -8.1700   24.6610 C   0  0  0  0  0  0  0  0  0  0  0  0
    4.4620   -7.8920   24.3190 O   0  0  0  0  0  0  0  0  0  0  0  0
    6.5200   -3.3530   22.5310 C   0  0  1  0  0  0  0  0  0  0  0  0
    0.8070   -7.2860   21.9330 O   0  0  0  0  0  0  0  0  0  0  0  0
   -0.4890   -5.3820   22.6700 C   0  0  0  0  0  0  0  0  0  0  0  0
    6.2950   -2.7120   21.2170 N   0  0  0  0  0  0  0  0  0  0  0  0
    7.7540   -3.1370   23.2010 C   0  0  0  0  0  0  0  0  0  0  0  0
    6.2410   -3.4050   20.0020 C   0  0  0  0  0  0  0  0  0  0  0  0
    8.5150   -1.8800   22.9160 N   0  0  0  0  0  0  0  0  0  0  0  0
    6.1320   -1.2620   21.1280 C   0  0  0  0  0  0  0  0  0  0  0  0
    5.4110   -4.2980   19.8170 O   0  0  0  0  0  0  0  0  0  0  0  0
    7.2520   -3.0410   18.9150 C   0  0  0  0  0  0  0  0  0  0  0  0
    9.9320   -2.0640   23.2540 C   0  0  0  0  0  0  0  0  0  0  0  0
    8.5090   -1.4240   21.5250 C   0  0  0  0  0  0  0  0  0  0  0  0
    7.3250   -0.5610   21.2220 C   0  0  0  0  0  0  0  0  0  0  0  0
   10.7810   -0.8760   23.2490 C   0  0  0  0  0  0  0  0  0  0  0  0
   11.7610    0.1820   23.1560 C   0  0  0  0  0  0  0  0  0  0  0  0
   11.6280   -1.8520   22.6150 C   0  0  0  0  0  0  0  0  0  0  0  0
   13.0370    0.1760   22.6470 C   0  0  0  0  0  0  0  0  0  0  0  0
   13.2340   -1.3580   22.1080 S   0  0  0  0  0  0  0  0  0  0  0  0
  2  1  1  1
  2  3  1  0
  1  4  2  3
  2  5  1  0
  4  6  1  0
  3  7  1  0
  5  8  1  6
  5  9  1  0
 10  6  1  1
  7 11  2  0
  7 12  1  0
 10 13  1  0
 10 14  1  0
 13 15  1  0
 14 16  1  0
 13 17  1  0
 15 18  2  0
 15 19  1  0
 16 20  1  0
 16 21  1  0
 17 22  1  0
 21 22  1  0
 20 23  1  0
 23 24  1  0
 23 25  2  0
 24 26  2  0
 25 27  1  0
 26 27  1  0
M  END
