x0978_1-x1336_0-x1412_0-x1386_0
     RDKit          3D

 33 35  0  0  0  0  0  0  0  0999 V2000
    4.5700   -6.0170   23.0040 C   0  0  0  0  0  0  0  0  0  0  0  0
    3.1720   -6.5150   23.3870 C   0  0  2  0  0  0  0  0  0  0  0  0
    2.0710   -5.5870   23.2580 N   0  0  0  0  0  0  0  0  0  0  0  0
    5.5780   -4.8960   23.3840 C   0  0  0  0  0  0  0  0  0  0  0  0
    3.1520   -7.2930   24.6680 C   0  0  1  0  0  0  0  0  0  0  0  0
    6.3460   -5.6920   22.3330 C   0  0  0  0  0  0  0  0  0  0  0  0
    6.9290   -4.1590   23.2720 C   0  0  2  0  0  0  0  0  0  0  0  0
    0.8990   -6.0480   22.6830 C   0  0  0  0  0  0  0  0  0  0  0  0
    1.9740   -8.2150   24.7550 C   0  0  0  0  0  0  0  0  0  0  0  0
    4.2710   -7.7640   24.8020 O   0  0  0  0  0  0  0  0  0  0  0  0
    7.1750   -2.7490   23.8010 N   0  0  0  0  0  0  0  0  0  0  0  0
    7.4540   -4.2680   22.0200 C   0  0  0  0  0  0  0  0  0  0  0  0
    0.8590   -7.0840   22.0340 O   0  0  0  0  0  0  0  0  0  0  0  0
   -0.3910   -5.2850   22.8370 C   0  0  0  0  0  0  0  0  0  0  0  0
    8.4780   -2.6390   24.5370 C   0  0  2  0  0  0  0  0  0  0  0  0
    6.9070   -3.2270   21.2170 N   0  0  0  0  0  0  0  0  0  0  0  0
    6.9710   -1.6280   22.8340 C   0  0  0  0  0  0  0  0  0  0  0  0
    6.4880   -3.4500   19.9250 C   0  0  0  0  0  0  0  0  0  0  0  0
    8.3620   -1.6580   25.2880 O   0  0  0  0  0  0  0  0  0  0  0  0
    9.7270   -2.8050   23.5760 C   0  0  0  0  0  0  0  0  0  0  0  0
    7.4520   -1.9410   21.5560 C   0  0  0  0  0  0  0  0  0  0  0  0
    8.6430   -3.8150   25.5360 C   0  0  0  0  0  0  0  0  0  0  0  0
    5.4180   -4.0170   19.6740 O   0  0  0  0  0  0  0  0  0  0  0  0
    7.4250   -3.0430   18.8160 C   0  0  0  0  0  0  0  0  0  0  0  0
    9.4060   -5.0090   25.3960 C   0  0  0  0  0  0  0  0  0  0  0  0
    7.8630   -3.9030   27.1490 S   0  0  0  0  0  0  0  0  0  0  0  0
   10.7720   -1.7260   23.2980 C   0  0  0  0  0  0  0  0  0  0  0  0
    9.3440   -5.8620   26.4760 C   0  0  0  0  0  0  0  0  0  0  0  0
    8.5580   -5.4330   27.5260 C   0  0  0  0  0  0  0  0  0  0  0  0
   12.0250   -1.9600   22.7420 C   0  0  0  0  0  0  0  0  0  0  0  0
   10.6750   -0.3630   23.5330 C   0  0  0  0  0  0  0  0  0  0  0  0
   12.8480   -0.8790   22.5620 C   0  0  0  0  0  0  0  0  0  0  0  0
   12.0920    0.5300   23.0810 S   0  0  0  0  0  0  0  0  0  0  0  0
  2  1  1  1
  2  3  1  0
  1  4  2  3
  2  5  1  0
  4  6  1  0
  7  4  1  6
  3  8  1  0
  5  9  1  6
  5 10  1  0
  7 11  1  0
  7 12  1  0
  8 13  2  0
  8 14  1  0
 11 15  1  0
 12 16  1  0
 11 17  1  0
 16 18  1  0
 15 19  1  1
 15 20  1  0
 16 21  1  0
 17 21  1  0
 15 22  1  0
 18 23  2  0
 18 24  1  0
 22 25  2  0
 22 26  1  0
 20 27  1  0
 25 28  1  0
 26 29  1  0
 28 29  2  0
 27 30  1  0
 27 31  2  0
 30 32  2  0
 31 33  1  0
 32 33  1  0
M  END
