x0978_1-x0072_0-x0691_0-x0831_0
     RDKit          3D

 33 35  0  0  0  0  0  0  0  0999 V2000
    3.2400   -6.3550   23.3280 C   0  0  2  0  0  0  0  0  0  0  0  0
    2.1560   -5.6330   23.3320 N   0  0  0  0  0  0  0  0  0  0  0  0
    0.9400   -6.1750   22.6740 C   0  0  0  0  0  0  0  0  0  0  0  0
    3.2650   -7.0960   24.6710 C   0  0  1  0  0  0  0  0  0  0  0  0
    4.5530   -5.4840   23.0520 C   0  0  1  0  0  0  0  0  0  0  0  0
    2.1290   -8.1010   24.8380 C   0  0  0  0  0  0  0  0  0  0  0  0
    4.4430   -7.8760   24.7690 O   0  0  0  0  0  0  0  0  0  0  0  0
    5.3000   -4.7900   24.0830 C   0  0  1  0  0  0  0  0  0  0  0  0
    5.5040   -6.2680   22.1620 C   0  0  0  0  0  0  0  0  0  0  0  0
    4.4170   -3.6930   24.2770 O   0  0  0  0  0  0  0  0  0  0  0  0
    0.9360   -7.2080   22.0170 O   0  0  0  0  0  0  0  0  0  0  0  0
   -0.3150   -5.3620   22.8630 C   0  0  0  0  0  0  0  0  0  0  0  0
    5.3650   -5.4900   25.4700 C   0  0  0  0  0  0  0  0  0  0  0  0
    6.5160   -5.5430   21.7170 N   0  0  0  0  0  0  0  0  0  0  0  0
    6.5850   -4.3050   23.6900 C   0  0  1  0  0  0  0  0  0  0  0  0
    7.5880   -3.7340   24.6800 N   0  0  0  0  0  0  0  0  0  0  0  0
    6.4660   -5.1690   26.5210 C   0  0  0  0  0  0  0  0  0  0  0  0
    6.3990   -4.6310   20.6660 C   0  0  0  0  0  0  0  0  0  0  0  0
    7.3190   -5.0810   22.8220 C   0  0  0  0  0  0  0  0  0  0  0  0
    7.9490   -4.4490   26.0160 S   0  0  0  0  0  0  0  0  0  0  0  0
    5.3940   -4.5550   19.9420 O   0  0  0  0  0  0  0  0  0  0  0  0
    7.5930   -3.7270   20.4010 C   0  0  0  0  0  0  0  0  0  0  0  0
    8.2300   -2.4190   24.3320 C   0  0  0  0  0  0  0  0  0  0  0  0
    8.9290   -5.4880   25.7940 O   0  0  0  0  0  0  0  0  0  0  0  0
    8.2110   -3.3970   26.9680 O   0  0  0  0  0  0  0  0  0  0  0  0
    9.6390   -2.4940   23.6020 C   0  0  0  0  0  0  0  0  0  0  0  0
   10.4290   -1.1740   23.5940 C   0  0  0  0  0  0  0  0  0  0  0  0
   10.0020   -0.0300   24.2720 C   0  0  0  0  0  0  0  0  0  0  0  0
   11.6790   -1.0530   22.8780 C   0  0  0  0  0  0  0  0  0  0  0  0
   12.2660   -2.1920   22.0990 C   0  0  0  0  0  0  0  0  0  0  0  0
   10.7490    1.1460   24.2450 C   0  0  0  0  0  0  0  0  0  0  0  0
   12.4450    0.1210   22.8510 C   0  0  0  0  0  0  0  0  0  0  0  0
   11.9480    1.2180   23.5510 C   0  0  0  0  0  0  0  0  0  0  0  0
  1  2  1  1
  2  3  1  0
  1  4  1  0
  1  5  1  0
  4  6  1  6
  4  7  1  0
  5  8  1  0
  5  9  1  1
  8 10  1  1
  3 11  2  0
  3 12  1  0
  8 13  1  0
  9 14  1  0
  8 15  1  0
 15 16  1  0
 13 17  1  0
 14 18  1  0
 14 19  1  0
 15 19  1  1
 20 16  1  0
 17 20  1  0
 18 21  2  0
 18 22  1  0
 16 23  1  0
 20 24  2  0
 20 25  2  0
 23 26  1  0
 26 27  1  0
 27 28  2  0
 27 29  1  0
 29 30  1  0
 28 31  1  0
 29 32  2  0
 31 33  2  0
 32 33  1  0
M  END
