x0978_1-x1412_0-x1386_0-x0691_0
     RDKit          3D

 32 34  0  0  0  0  0  0  0  0999 V2000
    3.2310   -6.4440   23.1780 C   0  0  2  0  0  0  0  0  0  0  0  0
    2.0570   -5.6900   23.1900 N   0  0  0  0  0  0  0  0  0  0  0  0
    0.8350   -6.2150   22.5540 C   0  0  0  0  0  0  0  0  0  0  0  0
    3.3250   -7.2060   24.4560 C   0  0  1  0  0  0  0  0  0  0  0  0
    4.5080   -5.5560   22.8800 C   0  0  1  0  0  0  0  0  0  0  0  0
    2.1350   -8.1290   24.6810 C   0  0  0  0  0  0  0  0  0  0  0  0
    4.4760   -8.0020   24.4780 O   0  0  0  0  0  0  0  0  0  0  0  0
    5.0640   -4.9850   24.0990 N   0  0  0  0  0  0  0  0  0  0  0  0
    5.5110   -6.1760   22.1470 C   0  0  0  0  0  0  0  0  0  0  0  0
    4.5360   -3.6430   24.2120 O   0  0  0  0  0  0  0  0  0  0  0  0
    0.8170   -7.2530   21.9050 O   0  0  0  0  0  0  0  0  0  0  0  0
   -0.4060   -5.3860   22.7500 C   0  0  0  0  0  0  0  0  0  0  0  0
    6.5180   -5.1340   21.8960 N   0  0  0  0  0  0  0  0  0  0  0  0
    6.5490   -4.8750   24.2450 C   0  0  0  0  0  0  0  0  0  0  0  0
    6.6010   -4.4300   20.7050 C   0  0  0  0  0  0  0  0  0  0  0  0
    7.3600   -4.7820   23.0730 C   0  0  2  0  0  0  0  0  0  0  0  0
    5.6620   -4.3260   19.8880 O   0  0  0  0  0  0  0  0  0  0  0  0
    7.9770   -3.7790   20.4770 C   0  0  0  0  0  0  0  0  0  0  0  0
    8.0450   -3.3580   23.0800 C   0  0  0  0  0  0  0  0  0  0  0  0
    8.5680   -2.8650   24.4550 C   0  0  2  0  0  0  0  0  0  0  0  0
    8.3410   -1.7380   24.9210 O   0  0  0  0  0  0  0  0  0  0  0  0
    9.6690   -2.8390   23.4020 C   0  0  0  0  0  0  0  0  0  0  0  0
    8.7190   -3.8810   25.5540 C   0  0  0  0  0  0  0  0  0  0  0  0
    9.5050   -5.0150   25.4560 C   0  0  0  0  0  0  0  0  0  0  0  0
    7.9410   -3.8430   27.0970 S   0  0  0  0  0  0  0  0  0  0  0  0
   10.7300   -1.7170   23.4610 C   0  0  0  0  0  0  0  0  0  0  0  0
    9.4900   -5.8540   26.5960 C   0  0  0  0  0  0  0  0  0  0  0  0
    8.6650   -5.3200   27.5820 C   0  0  0  0  0  0  0  0  0  0  0  0
   11.8370   -1.6250   22.6370 C   0  0  0  0  0  0  0  0  0  0  0  0
   10.7720   -0.6170   24.3240 C   0  0  0  0  0  0  0  0  0  0  0  0
   12.7070   -0.5790   22.7790 C   0  0  0  0  0  0  0  0  0  0  0  0
   12.1410    0.4100   24.0380 S   0  0  0  0  0  0  0  0  0  0  0  0
  1  2  1  1
  2  3  1  0
  1  4  1  0
  1  5  1  0
  4  6  1  6
  4  7  1  0
  5  8  1  0
  5  9  1  1
  8 10  1  0
  3 11  2  0
  3 12  1  0
  9 13  1  0
  8 14  1  0
 13 15  1  0
 13 16  1  0
 14 16  1  0
 15 17  2  0
 15 18  1  0
 16 19  1  6
 19 20  1  0
 20 21  1  1
 20 22  1  0
 20 23  1  0
 23 24  2  0
 23 25  1  0
 22 26  1  0
 24 27  1  0
 25 28  1  0
 27 28  2  0
 26 29  1  0
 26 30  2  0
 29 31  2  0
 30 32  1  0
 31 32  1  0
M  END
