x0978_1-x1412_0-x0770_1-x1386_0
     RDKit          3D

 33 35  0  0  0  0  0  0  0  0999 V2000
    4.1050   -5.3400   23.4170 C   0  0  0  0  0  0  0  0  0  0  0  0
    3.0750   -6.4190   23.3460 C   0  0  2  0  0  0  0  0  0  0  0  0
    1.8020   -5.7040   23.2880 N   0  0  0  0  0  0  0  0  0  0  0  0
    4.1650   -4.1550   22.7110 N   0  0  0  0  0  0  0  0  0  0  0  0
    3.1060   -7.2620   24.6240 C   0  0  1  0  0  0  0  0  0  0  0  0
    5.3040   -3.3000   23.0720 C   0  0  0  0  0  0  0  0  0  0  0  0
    0.6460   -6.2230   22.5080 C   0  0  0  0  0  0  0  0  0  0  0  0
    2.0750   -8.3520   24.6190 C   0  0  0  0  0  0  0  0  0  0  0  0
    4.3700   -7.8880   24.7590 O   0  0  0  0  0  0  0  0  0  0  0  0
    6.4110   -3.6800   22.3120 C   0  0  1  0  0  0  0  0  0  0  0  0
    0.6930   -7.2850   21.8930 O   0  0  0  0  0  0  0  0  0  0  0  0
   -0.6310   -5.3620   22.5080 C   0  0  0  0  0  0  0  0  0  0  0  0
    6.6250   -2.8110   21.1380 N   0  0  0  0  0  0  0  0  0  0  0  0
    7.5350   -3.7620   23.1110 C   0  0  0  0  0  0  0  0  0  0  0  0
    6.3150   -3.3230   19.8910 C   0  0  0  0  0  0  0  0  0  0  0  0
    7.9900   -2.4400   23.4880 N   0  0  0  0  0  0  0  0  0  0  0  0
    7.3740   -1.5880   21.3090 C   0  0  0  0  0  0  0  0  0  0  0  0
    7.2670   -2.9780   18.7740 C   0  0  0  0  0  0  0  0  0  0  0  0
    5.3530   -4.0680   19.6830 O   0  0  0  0  0  0  0  0  0  0  0  0
    8.9740   -2.4630   24.6100 C   0  0  2  0  0  0  0  0  0  0  0  0
    8.5190   -1.7680   22.2880 C   0  0  0  0  0  0  0  0  0  0  0  0
    8.7590   -1.4070   25.2170 O   0  0  0  0  0  0  0  0  0  0  0  0
   10.3660   -2.7230   24.0360 C   0  0  0  0  0  0  0  0  0  0  0  0
    8.8290   -3.6090   25.6070 C   0  0  0  0  0  0  0  0  0  0  0  0
    9.7200   -4.7240   25.6290 C   0  0  0  0  0  0  0  0  0  0  0  0
    7.5710   -3.8330   26.9500 S   0  0  0  0  0  0  0  0  0  0  0  0
   11.1890   -1.4920   23.7620 C   0  0  0  0  0  0  0  0  0  0  0  0
    9.3800   -5.6290   26.6290 C   0  0  0  0  0  0  0  0  0  0  0  0
    8.2810   -5.3280   27.4250 C   0  0  0  0  0  0  0  0  0  0  0  0
   12.2490   -1.4510   22.8700 C   0  0  0  0  0  0  0  0  0  0  0  0
   11.0140   -0.2510   24.3450 C   0  0  0  0  0  0  0  0  0  0  0  0
   12.8650   -0.2800   22.7490 C   0  0  0  0  0  0  0  0  0  0  0  0
   12.1480    0.8860   23.7610 S   0  0  0  0  0  0  0  0  0  0  0  0
  2  1  1  1
  2  3  1  0
  1  4  2  3
  2  5  1  0
  4  6  1  0
  3  7  1  0
  5  8  1  6
  5  9  1  0
 10  6  1  1
  7 11  2  0
  7 12  1  0
 10 13  1  0
 10 14  1  0
 13 15  1  0
 14 16  1  0
 13 17  1  0
 15 18  1  0
 15 19  2  0
 16 20  1  0
 16 21  1  0
 17 21  1  0
 20 22  1  1
 20 23  1  0
 20 24  1  0
 24 25  2  0
 24 26  1  0
 23 27  1  0
 25 28  1  0
 26 29  1  0
 28 29  2  0
 27 30  1  0
 27 31  2  0
 30 32  2  0
 31 33  1  0
 32 33  1  0
M  END
