x0978_1-x1412_0-x1386_1
     RDKit          3D

 27 28  0  0  0  0  0  0  0  0999 V2000
    4.1620   -6.0290   22.6630 C   0  0  0  0  0  0  0  0  0  0  0  0
    2.9370   -6.6270   23.3080 C   0  0  2  0  0  0  0  0  0  0  0  0
    1.7450   -5.7960   23.1370 N   0  0  0  0  0  0  0  0  0  0  0  0
    4.5100   -4.7980   22.7350 N   0  0  0  0  0  0  0  0  0  0  0  0
    3.1710   -7.1980   24.7110 C   0  0  1  0  0  0  0  0  0  0  0  0
    5.7290   -4.6300   21.9330 C   0  0  0  0  0  0  0  0  0  0  0  0
    0.5720   -6.1050   22.5320 C   0  0  0  0  0  0  0  0  0  0  0  0
    2.1440   -8.2780   25.0200 C   0  0  0  0  0  0  0  0  0  0  0  0
    4.4200   -7.8380   24.8300 O   0  0  0  0  0  0  0  0  0  0  0  0
    6.4720   -3.3150   22.2390 C   0  0  2  0  0  0  0  0  0  0  0  0
    0.5290   -7.1370   21.8620 O   0  0  0  0  0  0  0  0  0  0  0  0
   -0.6480   -5.2250   22.6700 C   0  0  0  0  0  0  0  0  0  0  0  0
    6.7050   -2.4940   21.0430 N   0  0  0  0  0  0  0  0  0  0  0  0
    7.8220   -3.6820   22.8380 C   0  0  0  0  0  0  0  0  0  0  0  0
    6.4300   -3.1000   19.8020 C   0  0  0  0  0  0  0  0  0  0  0  0
    8.6400   -2.5590   23.2060 N   0  0  0  0  0  0  0  0  0  0  0  0
    7.6410   -1.3460   21.2180 C   0  0  0  0  0  0  0  0  0  0  0  0
    7.3990   -2.9060   18.6670 C   0  0  0  0  0  0  0  0  0  0  0  0
    5.4380   -3.8270   19.5990 O   0  0  0  0  0  0  0  0  0  0  0  0
    8.6160   -2.2500   24.6490 C   0  0  0  0  0  0  0  0  0  0  0  0
    8.8930   -1.5640   22.1480 C   0  0  0  0  0  0  0  0  0  0  0  0
    8.4920   -1.1040   25.0600 O   0  0  0  0  0  0  0  0  0  0  0  0
    8.7270   -3.4730   25.5490 C   0  0  0  0  0  0  0  0  0  0  0  0
    9.7270   -4.6250   25.5130 C   0  0  0  0  0  0  0  0  0  0  0  0
    7.6510   -3.8100   26.8740 S   0  0  0  0  0  0  0  0  0  0  0  0
    9.5210   -5.5980   26.4970 C   0  0  0  0  0  0  0  0  0  0  0  0
    8.4560   -5.2820   27.2850 C   0  0  0  0  0  0  0  0  0  0  0  0
  2  1  1  1
  2  3  1  0
  1  4  2  3
  2  5  1  0
  4  6  1  0
  3  7  1  0
  5  8  1  6
  5  9  1  0
 10  6  1  6
  7 11  2  0
  7 12  1  0
 10 13  1  0
 10 14  1  0
 13 15  1  0
 14 16  1  0
 13 17  1  0
 15 18  1  0
 15 19  2  0
 16 20  1  0
 16 21  1  0
 17 21  1  0
 20 22  2  0
 20 23  1  0
 23 24  2  0
 23 25  1  0
 24 26  1  0
 25 27  1  0
 26 27  2  0
M  END
