x0978_1-x0434_1
     RDKit          3D

 22 22  0  0  0  0  0  0  0  0999 V2000
    4.3450   -5.9380   22.7640 C   0  0  0  0  0  0  0  0  0  0  0  0
    3.0170   -6.5660   23.2190 C   0  0  2  0  0  0  0  0  0  0  0  0
    2.1310   -5.8050   23.1980 N   0  0  0  0  0  0  0  0  0  0  0  0
    4.5020   -4.6050   22.4830 N   0  0  0  0  0  0  0  0  0  0  0  0
    3.2450   -7.2300   24.5770 C   0  0  1  0  0  0  0  0  0  0  0  0
    5.7650   -4.1750   22.0550 C   0  0  0  0  0  0  0  0  0  0  0  0
    0.8360   -6.2230   22.6130 C   0  0  0  0  0  0  0  0  0  0  0  0
    2.1030   -8.2340   24.7210 C   0  0  0  0  0  0  0  0  0  0  0  0
    4.3380   -7.7560   24.7330 O   0  0  0  0  0  0  0  0  0  0  0  0
    6.4010   -2.8190   22.4010 C   0  0  0  0  0  0  0  0  0  0  0  0
    0.7560   -7.2420   21.9310 O   0  0  0  0  0  0  0  0  0  0  0  0
   -0.3650   -5.3590   22.8790 C   0  0  0  0  0  0  0  0  0  0  0  0
    5.9770   -1.7680   21.5780 C   0  0  0  0  0  0  0  0  0  0  0  0
    6.8250   -0.6650   21.1660 N   0  0  0  0  0  0  0  0  0  0  0  0
    8.1780   -0.7260   21.3090 C   0  0  0  0  0  0  0  0  0  0  0  0
    6.2540    0.0430   20.1900 C   0  0  0  0  0  0  0  0  0  0  0  0
    9.0860    0.3700   21.4370 O   0  0  0  0  0  0  0  0  0  0  0  0
    6.9040   -0.0720   18.9770 C   0  0  0  0  0  0  0  0  0  0  0  0
    5.0980    0.8250   20.3700 C   0  0  0  0  0  0  0  0  0  0  0  0
    6.4360    0.6250   17.7720 N   0  0  0  0  0  0  0  0  0  0  0  0
    4.6800    1.4770   19.1990 C   0  0  0  0  0  0  0  0  0  0  0  0
    5.2530    1.4340   17.9480 C   0  0  0  0  0  0  0  0  0  0  0  0
  2  1  1  1
  2  3  1  0
  1  4  2  3
  2  5  1  0
  4  6  1  0
  3  7  1  0
  5  8  1  6
  5  9  1  0
  6 10  1  0
  7 11  2  0
  7 12  1  0
 10 13  1  0
 13 14  1  0
 14 15  1  0
 14 16  1  0
 15 17  2  0
 16 18  2  0
 16 19  1  0
 18 20  1  0
 19 21  2  0
 20 22  2  0
 21 22  1  0
M  END
