x0978_1-x1418_0-x0692_1-x0831_0
     RDKit          3D

 29 30  0  0  0  0  0  0  0  0999 V2000
    4.0510   -5.2370   23.4280 C   0  0  0  0  0  0  0  0  0  0  0  0
    3.0320   -6.3860   23.3780 C   0  0  2  0  0  0  0  0  0  0  0  0
    1.7370   -5.7200   23.3360 N   0  0  0  0  0  0  0  0  0  0  0  0
    4.3010   -4.0620   22.6000 N   0  0  0  0  0  0  0  0  0  0  0  0
    3.1300   -7.2430   24.6260 C   0  0  1  0  0  0  0  0  0  0  0  0
    5.3680   -3.1500   23.0320 C   0  0  0  0  0  0  0  0  0  0  0  0
    0.6500   -6.2410   22.5130 C   0  0  0  0  0  0  0  0  0  0  0  0
    2.0850   -8.3170   24.5870 C   0  0  0  0  0  0  0  0  0  0  0  0
    4.4120   -7.8470   24.6900 O   0  0  0  0  0  0  0  0  0  0  0  0
    6.6900   -3.3860   22.2710 C   0  0  1  0  0  0  0  0  0  0  0  0
    0.7780   -7.3030   21.9100 O   0  0  0  0  0  0  0  0  0  0  0  0
   -0.5980   -5.4100   22.4550 C   0  0  0  0  0  0  0  0  0  0  0  0
    6.6320   -2.6000   21.0190 N   0  0  0  0  0  0  0  0  0  0  0  0
    7.8410   -3.1300   23.0390 C   0  0  0  0  0  0  0  0  0  0  0  0
    6.3880   -3.2220   19.8080 C   0  0  0  0  0  0  0  0  0  0  0  0
    8.4850   -1.9390   23.0050 N   0  0  0  0  0  0  0  0  0  0  0  0
    7.4230   -1.4260   20.9760 C   0  0  0  0  0  0  0  0  0  0  0  0
    5.4190   -3.9850   19.6620 O   0  0  0  0  0  0  0  0  0  0  0  0
    7.3820   -2.9870   18.6980 C   0  0  0  0  0  0  0  0  0  0  0  0
    9.7200   -1.9470   23.7920 C   0  0  1  0  0  0  0  0  0  0  0  0
    8.6550   -1.5930   21.6040 C   0  0  0  0  0  0  0  0  0  0  0  0
   10.5170   -3.2340   23.6620 C   0  0  0  0  0  0  0  0  0  0  0  0
   10.6070   -0.8650   23.6260 C   0  0  0  0  0  0  0  0  0  0  0  0
   10.1720    0.3270   24.1800 C   0  0  0  0  0  0  0  0  0  0  0  0
   11.8800   -0.8730   22.9630 C   0  0  0  0  0  0  0  0  0  0  0  0
   12.5050   -2.0680   22.3010 C   0  0  0  0  0  0  0  0  0  0  0  0
   10.9440    1.4640   24.0870 C   0  0  0  0  0  0  0  0  0  0  0  0
   12.6470    0.3020   22.8910 C   0  0  0  0  0  0  0  0  0  0  0  0
   12.2090    1.5090   23.4440 C   0  0  0  0  0  0  0  0  0  0  0  0
  2  1  1  1
  2  3  1  0
  1  4  2  3
  2  5  1  0
  4  6  1  0
  3  7  1  0
  5  8  1  6
  5  9  1  0
 10  6  1  1
  7 11  2  0
  7 12  1  0
 10 13  1  0
 10 14  1  0
 13 15  1  0
 14 16  1  0
 13 17  1  0
 15 18  2  0
 15 19  1  0
 16 20  1  0
 16 21  1  0
 17 21  1  0
 20 22  1  6
 20 23  1  0
 23 24  2  0
 23 25  1  0
 25 26  1  0
 24 27  1  0
 25 28  2  0
 27 29  2  0
 28 29  1  0
M  END
