x0978_1-x1412_0-x0770_1-x0831_0
     RDKit          3D

 36 38  0  0  0  0  0  0  0  0999 V2000
    3.6150   -4.9690   23.5120 C   0  0  0  0  0  0  0  0  0  0  0  0
    2.8960   -6.3090   23.4620 C   0  0  2  0  0  0  0  0  0  0  0  0
    1.4910   -5.9530   23.4960 N   0  0  0  0  0  0  0  0  0  0  0  0
    4.2330   -4.2930   22.3870 N   0  0  0  0  0  0  0  0  0  0  0  0
    3.2830   -7.2880   24.6140 C   0  0  1  0  0  0  0  0  0  0  0  0
    4.7150   -3.0080   22.8850 C   0  0  0  0  0  0  0  0  0  0  0  0
    0.6090   -6.3200   22.5210 C   0  0  0  0  0  0  0  0  0  0  0  0
    2.1520   -8.3750   24.7990 C   0  0  0  0  0  0  0  0  0  0  0  0
    4.4850   -7.9500   24.2760 O   0  0  0  0  0  0  0  0  0  0  0  0
    6.1620   -2.7030   22.5110 C   0  0  2  0  0  0  0  0  0  0  0  0
    0.7620   -7.2950   21.8000 O   0  0  0  0  0  0  0  0  0  0  0  0
   -0.5910   -5.4230   22.4110 C   0  0  0  0  0  0  0  0  0  0  0  0
    6.5080   -2.4700   21.1170 N   0  0  0  0  0  0  0  0  0  0  0  0
    7.0800   -3.7630   22.9950 C   0  0  0  0  0  0  0  0  0  0  0  0
    6.3020   -3.2590   19.9510 C   0  0  0  0  0  0  0  0  0  0  0  0
    8.3120   -3.0550   23.2200 N   0  0  0  0  0  0  0  0  0  0  0  0
    7.7110   -1.6150   21.2510 C   0  0  0  0  0  0  0  0  0  0  0  0
    7.2630   -2.9970   18.8120 C   0  0  0  0  0  0  0  0  0  0  0  0
    5.4360   -4.1470   19.7960 O   0  0  0  0  0  0  0  0  0  0  0  0
    8.5310   -2.7310   24.6590 C   0  0  2  0  0  0  0  0  0  0  0  0
    8.5710   -2.0490   22.2950 C   0  0  0  0  0  0  0  0  0  0  0  0
    7.6500   -1.9450   25.0170 O   0  0  0  0  0  0  0  0  0  0  0  0
    9.6780   -2.0740   24.8250 C   0  0  0  0  0  0  0  0  0  0  0  0
    8.5250   -3.9180   25.6210 C   0  0  0  0  0  0  0  0  0  0  0  0
   10.6760   -2.2560   23.7710 C   0  0  0  0  0  0  0  0  0  0  0  0
    9.5630   -4.7940   25.7350 C   0  0  0  0  0  0  0  0  0  0  0  0
    7.2500   -4.3260   26.7010 S   0  0  0  0  0  0  0  0  0  0  0  0
    9.3440   -5.7750   26.6590 C   0  0  0  0  0  0  0  0  0  0  0  0
    8.1420   -5.6730   27.2840 C   0  0  0  0  0  0  0  0  0  0  0  0
   11.2660   -0.9110   23.6120 C   0  0  0  0  0  0  0  0  0  0  0  0
   10.5960    0.1790   24.1700 C   0  0  0  0  0  0  0  0  0  0  0  0
   12.4510   -0.7560   22.9280 C   0  0  0  0  0  0  0  0  0  0  0  0
   13.1480   -1.9280   22.3220 C   0  0  0  0  0  0  0  0  0  0  0  0
   11.1240    1.4390   24.0380 C   0  0  0  0  0  0  0  0  0  0  0  0
   12.9880    0.5140   22.8080 C   0  0  0  0  0  0  0  0  0  0  0  0
   12.3190    1.6050   23.3600 C   0  0  0  0  0  0  0  0  0  0  0  0
  2  1  1  1
  2  3  1  0
  1  4  2  3
  2  5  1  0
  4  6  1  0
  3  7  1  0
  5  8  1  6
  5  9  1  0
 10  6  1  6
  7 11  2  0
  7 12  1  0
 10 13  1  0
 10 14  1  0
 13 15  1  0
 14 16  1  0
 13 17  1  0
 15 18  1  0
 15 19  2  0
 16 20  1  0
 16 21  1  0
 17 21  1  0
 20 22  1  1
 20 23  1  0
 20 24  1  0
 23 25  1  0
 24 26  2  0
 24 27  1  0
 26 28  1  0
 27 29  1  0
 28 29  2  0
 25 30  1  0
 30 31  2  0
 30 32  1  0
 32 33  1  0
 31 34  1  0
 32 35  2  0
 34 36  2  0
 35 36  1  0
M  END
