x0978_1-x0874_0-x0759_1
     RDKit          3D

 26 27  0  0  0  0  0  0  0  0999 V2000
    4.0750   -5.4070   23.1790 C   0  0  0  0  0  0  0  0  0  0  0  0
    3.0030   -6.4650   23.3920 C   0  0  2  0  0  0  0  0  0  0  0  0
    1.6960   -5.8110   23.3600 N   0  0  0  0  0  0  0  0  0  0  0  0
    3.9940   -4.1680   23.5550 N   0  0  0  0  0  0  0  0  0  0  0  0
    3.2500   -7.2570   24.6770 C   0  0  1  0  0  0  0  0  0  0  0  0
    5.0630   -3.2140   23.2890 C   0  0  0  0  0  0  0  0  0  0  0  0
    0.6700   -6.2480   22.5550 C   0  0  0  0  0  0  0  0  0  0  0  0
    2.2110   -8.3410   24.7950 C   0  0  0  0  0  0  0  0  0  0  0  0
    4.3420   -7.7870   24.6150 O   0  0  0  0  0  0  0  0  0  0  0  0
    6.2310   -3.9330   22.5950 C   0  0  1  0  0  0  0  0  0  0  0  0
    0.7380   -7.4430   21.7640 O   0  0  0  0  0  0  0  0  0  0  0  0
   -0.5540   -5.3650   22.5750 C   0  0  0  0  0  0  0  0  0  0  0  0
    6.7560   -3.2080   21.4180 N   0  0  0  0  0  0  0  0  0  0  0  0
    7.3640   -4.1790   23.5880 C   0  0  0  0  0  0  0  0  0  0  0  0
    6.4210   -3.5150   20.0820 C   0  0  0  0  0  0  0  0  0  0  0  0
    7.5490   -1.9890   21.7150 C   0  0  0  0  0  0  0  0  0  0  0  0
    8.5770   -3.5360   23.2330 O   0  0  0  0  0  0  0  0  0  0  0  0
    5.4200   -4.1890   19.7850 O   0  0  0  0  0  0  0  0  0  0  0  0
    7.3480   -3.0620   18.9670 C   0  0  0  0  0  0  0  0  0  0  0  0
    8.4730   -2.1710   22.7730 C   0  0  1  0  0  0  0  0  0  0  0  0
    9.9000   -1.8500   22.2830 C   0  0  0  0  0  0  0  0  0  0  0  0
   10.6990   -0.7680   22.8280 C   0  0  0  0  0  0  0  0  0  0  0  0
   11.6510    0.2000   23.2660 C   0  0  0  0  0  0  0  0  0  0  0  0
   11.6450   -1.5750   22.1050 C   0  0  0  0  0  0  0  0  0  0  0  0
   12.9770    0.0680   22.8990 C   0  0  0  0  0  0  0  0  0  0  0  0
   13.2690   -1.2580   21.9760 S   0  0  0  0  0  0  0  0  0  0  0  0
  2  1  1  1
  2  3  1  0
  1  4  2  3
  2  5  1  0
  4  6  1  0
  3  7  1  0
  5  8  1  6
  5  9  1  0
 10  6  1  1
  7 11  2  0
  7 12  1  0
 10 13  1  0
 10 14  1  0
 13 15  1  0
 13 16  1  0
 14 17  1  0
 15 18  2  0
 15 19  1  0
 16 20  1  0
 17 20  1  0
 20 21  1  6
 21 22  1  0
 22 23  1  0
 22 24  2  0
 23 25  2  0
 24 26  1  0
 25 26  1  0
M  END
