x0978_1-x0678_0-x1458_1
     RDKit          3D

 31 33  0  0  0  0  0  0  0  0999 V2000
    4.2480   -5.0750   23.6180 C   0  0  0  0  0  0  0  0  0  0  0  0
    3.3030   -6.2600   23.3700 C   0  0  2  0  0  0  0  0  0  0  0  0
    1.9960   -5.6210   23.1350 N   0  0  0  0  0  0  0  0  0  0  0  0
    3.5880   -3.9880   23.8940 N   0  0  0  0  0  0  0  0  0  0  0  0
    5.8230   -5.2160   23.5710 C   0  0  2  0  0  0  0  0  0  0  0  0
    3.1930   -7.2170   24.5520 C   0  0  1  0  0  0  0  0  0  0  0  0
    4.0620   -2.6770   24.2270 C   0  0  0  0  0  0  0  0  0  0  0  0
    6.6960   -4.0810   24.2440 C   0  0  2  0  0  0  0  0  0  0  0  0
    6.4090   -5.6080   22.1880 C   0  0  0  0  0  0  0  0  0  0  0  0
    0.9120   -6.2520   22.5580 C   0  0  0  0  0  0  0  0  0  0  0  0
    2.1120   -8.2490   24.3820 C   0  0  0  0  0  0  0  0  0  0  0  0
    4.4140   -7.9000   24.7480 O   0  0  0  0  0  0  0  0  0  0  0  0
    6.0810   -3.4020   25.4340 C   0  0  0  0  0  0  0  0  0  0  0  0
    4.8220   -2.7130   25.4780 N   0  0  0  0  0  0  0  0  0  0  0  0
    7.2310   -2.9730   23.2970 C   0  0  2  0  0  0  0  0  0  0  0  0
    6.9120   -4.4730   21.4370 N   0  0  0  0  0  0  0  0  0  0  0  0
    0.9630   -7.3480   22.0180 O   0  0  0  0  0  0  0  0  0  0  0  0
   -0.3780   -5.4750   22.6300 C   0  0  0  0  0  0  0  0  0  0  0  0
    6.3790   -4.1010   20.1980 C   0  0  0  0  0  0  0  0  0  0  0  0
    6.2280   -1.8080   23.0610 C   0  0  0  0  0  0  0  0  0  0  0  0
    7.8970   -3.6150   22.0610 C   0  0  0  0  0  0  0  0  0  0  0  0
    5.2710   -4.5020   19.8720 O   0  0  0  0  0  0  0  0  0  0  0  0
    7.2610   -3.2570   19.2760 C   0  0  0  0  0  0  0  0  0  0  0  0
    6.9400   -0.6550   22.7490 C   0  0  0  0  0  0  0  0  0  0  0  0
    7.4040   -0.6780   21.3330 N   0  0  0  0  0  0  0  0  0  0  0  0
    6.7320   -0.0560   20.3410 C   0  0  0  0  0  0  0  0  0  0  0  0
    7.1280   -0.2370   19.0330 C   0  0  0  0  0  0  0  0  0  0  0  0
    5.6310    0.7840   20.5490 C   0  0  0  0  0  0  0  0  0  0  0  0
    6.5750    0.3150   17.9210 N   0  0  0  0  0  0  0  0  0  0  0  0
    4.9870    1.3940   19.4750 C   0  0  0  0  0  0  0  0  0  0  0  0
    5.5280    1.1150   18.0950 C   0  0  0  0  0  0  0  0  0  0  0  0
  1  2  1  0
  2  3  1  1
  1  4  2  0
  1  5  1  0
  2  6  1  0
  4  7  1  0
  5  8  1  0
  5  9  1  6
  3 10  1  0
  6 11  1  6
  6 12  1  0
  8 13  1  1
  7 14  1  0
 13 14  2  0
  8 15  1  0
  9 16  1  0
 10 17  2  0
 10 18  1  0
 16 19  1  0
 15 20  1  6
 15 21  1  0
 16 21  1  0
 19 22  2  0
 19 23  1  0
 20 24  1  0
 24 25  1  0
 25 26  1  0
 26 27  2  0
 26 28  1  0
 27 29  1  0
 28 30  2  0
 29 31  2  0
 30 31  1  0
M  END
