x0978_1-x1386_0-x0770_1-x0831_0
     RDKit          3D

 29 30  0  0  0  0  0  0  0  0999 V2000
    4.3850   -5.9910   22.8740 C   0  0  0  0  0  0  0  0  0  0  0  0
    3.0650   -6.6430   23.2270 C   0  0  2  0  0  0  0  0  0  0  0  0
    1.9210   -5.7450   23.1630 N   0  0  0  0  0  0  0  0  0  0  0  0
    4.5340   -4.8160   22.3880 N   0  0  0  0  0  0  0  0  0  0  0  0
    3.2030   -7.3850   24.5410 C   0  0  1  0  0  0  0  0  0  0  0  0
    5.9710   -4.6230   22.2060 C   0  0  0  0  0  0  0  0  0  0  0  0
    0.7180   -6.0920   22.6180 C   0  0  0  0  0  0  0  0  0  0  0  0
    2.0920   -8.4000   24.8290 C   0  0  0  0  0  0  0  0  0  0  0  0
    4.2790   -7.9580   24.5370 O   0  0  0  0  0  0  0  0  0  0  0  0
    6.3940   -3.1400   22.3310 C   0  0  2  0  0  0  0  0  0  0  0  0
    0.6080   -7.2810   21.8160 O   0  0  0  0  0  0  0  0  0  0  0  0
   -0.4860   -5.2320   22.8630 C   0  0  0  0  0  0  0  0  0  0  0  0
    6.2750   -2.4470   21.0460 N   0  0  0  0  0  0  0  0  0  0  0  0
    7.6700   -3.2090   22.8690 C   0  0  0  0  0  0  0  0  0  0  0  0
    6.1960   -3.2210   19.8840 C   0  0  0  0  0  0  0  0  0  0  0  0
    8.4780   -1.9910   22.6790 N   0  0  0  0  0  0  0  0  0  0  0  0
    6.9220   -1.1380   21.1110 C   0  0  0  0  0  0  0  0  0  0  0  0
    7.2330   -2.9680   18.8050 C   0  0  0  0  0  0  0  0  0  0  0  0
    5.3450   -4.1050   19.7310 O   0  0  0  0  0  0  0  0  0  0  0  0
    9.8870   -2.1860   23.0010 C   0  0  2  0  0  0  0  0  0  0  0  0
    8.2420   -1.2480   21.4530 C   0  0  0  0  0  0  0  0  0  0  0  0
    9.8810   -3.0130   24.2370 C   0  0  0  0  0  0  0  0  0  0  0  0
   10.7150   -0.9450   23.1920 C   0  0  0  0  0  0  0  0  0  0  0  0
   10.2280    0.1630   23.8500 C   0  0  0  0  0  0  0  0  0  0  0  0
   12.0250   -0.8790   22.6930 C   0  0  0  0  0  0  0  0  0  0  0  0
   12.7170   -1.9910   21.9500 C   0  0  0  0  0  0  0  0  0  0  0  0
   10.9410    1.3420   24.0390 C   0  0  0  0  0  0  0  0  0  0  0  0
   12.7470    0.2890   22.8780 C   0  0  0  0  0  0  0  0  0  0  0  0
   12.2440    1.3890   23.5240 C   0  0  0  0  0  0  0  0  0  0  0  0
  2  1  1  1
  2  3  1  0
  1  4  2  3
  2  5  1  0
  4  6  1  0
  3  7  1  0
  5  8  1  6
  5  9  1  0
 10  6  1  6
  7 11  2  0
  7 12  1  0
 10 13  1  0
 10 14  1  0
 13 15  1  0
 14 16  1  0
 13 17  1  0
 15 18  1  0
 15 19  2  0
 16 20  1  0
 16 21  1  0
 17 21  1  0
 20 22  1  1
 20 23  1  0
 23 24  2  0
 23 25  1  0
 25 26  1  0
 24 27  1  0
 25 28  2  0
 27 29  2  0
 28 29  1  0
M  END
