x0978_1-x1418_0-x1334_1
     RDKit          3D

 26 27  0  0  0  0  0  0  0  0999 V2000
    3.8030   -4.9590   23.4590 C   0  0  0  0  0  0  0  0  0  0  0  0
    3.0220   -6.2420   23.3760 C   0  0  2  0  0  0  0  0  0  0  0  0
    1.6110   -5.8600   23.2760 N   0  0  0  0  0  0  0  0  0  0  0  0
    4.3500   -4.3610   22.4600 N   0  0  0  0  0  0  0  0  0  0  0  0
    3.3340   -7.2080   24.5320 C   0  0  1  0  0  0  0  0  0  0  0  0
    4.9400   -3.1090   22.9260 C   0  0  0  0  0  0  0  0  0  0  0  0
    0.5890   -6.2430   22.4830 C   0  0  0  0  0  0  0  0  0  0  0  0
    2.2270   -8.2380   24.7170 C   0  0  0  0  0  0  0  0  0  0  0  0
    4.5110   -7.9500   24.3000 O   0  0  0  0  0  0  0  0  0  0  0  0
    6.3670   -2.7730   22.4330 C   0  0  2  0  0  0  0  0  0  0  0  0
    0.6980   -7.2860   21.8390 O   0  0  0  0  0  0  0  0  0  0  0  0
   -0.6650   -5.3990   22.4020 C   0  0  0  0  0  0  0  0  0  0  0  0
    6.5810   -2.4130   21.0200 N   0  0  0  0  0  0  0  0  0  0  0  0
    7.5620   -3.5710   23.0090 C   0  0  0  0  0  0  0  0  0  0  0  0
    6.3580   -3.2480   19.9020 C   0  0  0  0  0  0  0  0  0  0  0  0
    8.8320   -2.8530   22.8090 N   0  0  0  0  0  0  0  0  0  0  0  0
    7.7010   -1.4710   20.9880 C   0  0  0  0  0  0  0  0  0  0  0  0
    7.2950   -3.0000   18.7330 C   0  0  0  0  0  0  0  0  0  0  0  0
    5.4960   -4.1460   19.7940 O   0  0  0  0  0  0  0  0  0  0  0  0
    9.7940   -2.6300   23.8790 C   0  0  0  0  0  0  0  0  0  0  0  0
    8.9990   -2.0120   21.6400 C   0  0  0  0  0  0  0  0  0  0  0  0
   10.8550   -1.6060   23.5530 C   0  0  0  0  0  0  0  0  0  0  0  0
   12.3550   -1.7490   23.2670 C   0  0  0  0  0  0  0  0  0  0  0  0
   10.4390    0.0480   23.4460 S   0  0  0  0  0  0  0  0  0  0  0  0
   12.9380   -0.4790   23.0140 C   0  0  0  0  0  0  0  0  0  0  0  0
   12.0360    0.5410   23.0850 C   0  0  0  0  0  0  0  0  0  0  0  0
  2  1  1  1
  2  3  1  0
  1  4  2  3
  2  5  1  0
  4  6  1  0
  3  7  1  0
  5  8  1  6
  5  9  1  0
 10  6  1  6
  7 11  2  0
  7 12  1  0
 10 13  1  0
 10 14  1  0
 13 15  1  0
 14 16  1  0
 13 17  1  0
 15 18  1  0
 15 19  2  0
 16 20  1  0
 16 21  1  0
 17 21  1  0
 20 22  1  0
 22 23  2  0
 22 24  1  0
 23 25  1  0
 24 26  1  0
 25 26  2  0
M  END
