x0978_1-x1402_1
     RDKit          3D

 18 18  0  0  0  0  0  0  0  0999 V2000
    3.2540   -6.4660   23.2760 C   0  0  2  0  0  0  0  0  0  0  0  0
    2.0600   -5.6410   23.1070 N   0  0  0  0  0  0  0  0  0  0  0  0
    0.8720   -6.2950   22.5280 C   0  0  0  0  0  0  0  0  0  0  0  0
    3.3170   -7.0830   24.4680 C   0  0  1  0  0  0  0  0  0  0  0  0
    4.5270   -5.7150   22.9860 C   0  0  1  0  0  0  0  0  0  0  0  0
    2.2040   -8.0610   24.6650 C   0  0  0  0  0  0  0  0  0  0  0  0
    4.5120   -7.8000   24.6110 O   0  0  0  0  0  0  0  0  0  0  0  0
    5.1010   -5.1720   24.0990 N   0  0  0  0  0  0  0  0  0  0  0  0
    5.4690   -6.3450   22.1670 C   0  0  0  0  0  0  0  0  0  0  0  0
    4.5540   -3.8320   24.1730 O   0  0  0  0  0  0  0  0  0  0  0  0
    0.8060   -7.4260   21.8830 O   0  0  0  0  0  0  0  0  0  0  0  0
   -0.3360   -5.3900   22.8080 C   0  0  0  0  0  0  0  0  0  0  0  0
    6.5950   -4.9900   24.1530 C   0  0  0  0  0  0  0  0  0  0  0  0
    6.6060   -5.4670   21.8550 N   0  0  0  0  0  0  0  0  0  0  0  0
    6.5520   -4.6370   20.7070 C   0  0  0  0  0  0  0  0  0  0  0  0
    7.2940   -5.1800   22.9470 C   0  0  0  0  0  0  0  0  0  0  0  0
    7.7880   -3.7510   20.4260 C   0  0  0  0  0  0  0  0  0  0  0  0
    5.5630   -4.6030   19.9570 O   0  0  0  0  0  0  0  0  0  0  0  0
  1  2  1  1
  2  3  1  0
  1  4  1  0
  1  5  1  0
  4  6  1  6
  4  7  1  0
  5  8  1  0
  5  9  1  1
  8 10  1  0
  3 11  2  0
  3 12  1  0
  8 13  1  0
  9 14  1  0
 14 15  1  0
 13 16  1  0
 14 16  1  0
 15 17  1  0
 15 18  2  0
M  END
