x0978_1-x1386_1-x0831_0
     RDKit          3D

 28 29  0  0  0  0  0  0  0  0999 V2000
    4.2470   -5.9340   22.7650 C   0  0  0  0  0  0  0  0  0  0  0  0
    2.9570   -6.6390   23.2230 C   0  0  2  0  0  0  0  0  0  0  0  0
    1.8500   -5.7000   23.2430 N   0  0  0  0  0  0  0  0  0  0  0  0
    4.8090   -4.5930   22.8560 N   0  0  0  0  0  0  0  0  0  0  0  0
    3.1890   -7.2830   24.5720 C   0  0  1  0  0  0  0  0  0  0  0  0
    6.1260   -4.4660   22.2180 C   0  0  0  0  0  0  0  0  0  0  0  0
    0.6240   -6.1210   22.5580 C   0  0  0  0  0  0  0  0  0  0  0  0
    2.0970   -8.2730   24.8540 C   0  0  0  0  0  0  0  0  0  0  0  0
    4.4250   -7.9700   24.4830 O   0  0  0  0  0  0  0  0  0  0  0  0
    6.6280   -3.1630   22.3530 C   0  0  2  0  0  0  0  0  0  0  0  0
    0.6250   -7.1560   21.8970 O   0  0  0  0  0  0  0  0  0  0  0  0
   -0.5910   -5.2560   22.6990 C   0  0  0  0  0  0  0  0  0  0  0  0
    6.6900   -2.5190   21.0350 N   0  0  0  0  0  0  0  0  0  0  0  0
    7.7280   -3.0660   23.2150 C   0  0  0  0  0  0  0  0  0  0  0  0
    6.4100   -3.1470   19.8140 C   0  0  0  0  0  0  0  0  0  0  0  0
    8.7130   -1.9830   22.9830 N   0  0  0  0  0  0  0  0  0  0  0  0
    7.5800   -1.3440   20.9880 C   0  0  0  0  0  0  0  0  0  0  0  0
    7.3790   -2.9530   18.6790 C   0  0  0  0  0  0  0  0  0  0  0  0
    5.4250   -3.8860   19.6260 O   0  0  0  0  0  0  0  0  0  0  0  0
   10.0350   -2.2290   23.5360 C   0  0  0  0  0  0  0  0  0  0  0  0
    8.8360   -1.5990   21.5690 C   0  0  0  0  0  0  0  0  0  0  0  0
   10.8420   -0.9660   23.5220 C   0  0  0  0  0  0  0  0  0  0  0  0
   10.3280    0.1890   24.1200 C   0  0  0  0  0  0  0  0  0  0  0  0
   12.1110   -0.9160   22.9010 C   0  0  0  0  0  0  0  0  0  0  0  0
   12.7420   -2.1000   22.2270 C   0  0  0  0  0  0  0  0  0  0  0  0
   11.0420    1.3740   24.1010 C   0  0  0  0  0  0  0  0  0  0  0  0
   12.8150    0.2900   22.9010 C   0  0  0  0  0  0  0  0  0  0  0  0
   12.2860    1.4260   23.4900 C   0  0  0  0  0  0  0  0  0  0  0  0
  2  1  1  1
  2  3  1  0
  1  4  2  3
  2  5  1  0
  4  6  1  0
  3  7  1  0
  5  8  1  6
  5  9  1  0
 10  6  1  6
  7 11  2  0
  7 12  1  0
 10 13  1  0
 10 14  1  0
 13 15  1  0
 14 16  1  0
 13 17  1  0
 15 18  1  0
 15 19  2  0
 16 20  1  0
 16 21  1  0
 17 21  1  0
 20 22  1  0
 22 23  2  0
 22 24  1  0
 24 25  1  0
 23 26  1  0
 24 27  2  0
 26 28  2  0
 27 28  1  0
M  END
