x0978_1-x0691_0
     RDKit          3D

 18 18  0  0  0  0  0  0  0  0999 V2000
    3.1110   -6.4310   23.2390 C   0  0  2  0  0  0  0  0  0  0  0  0
    2.0390   -5.7040   23.2880 N   0  0  0  0  0  0  0  0  0  0  0  0
    0.8490   -6.2100   22.6210 C   0  0  0  0  0  0  0  0  0  0  0  0
    3.3280   -7.1960   24.5220 C   0  0  1  0  0  0  0  0  0  0  0  0
    4.4300   -5.6620   22.9760 C   0  0  1  0  0  0  0  0  0  0  0  0
    2.2080   -8.1640   24.7610 C   0  0  0  0  0  0  0  0  0  0  0  0
    4.5000   -7.9790   24.4370 O   0  0  0  0  0  0  0  0  0  0  0  0
    5.1070   -5.1610   24.1760 N   0  0  0  0  0  0  0  0  0  0  0  0
    5.4530   -6.4040   22.0880 C   0  0  0  0  0  0  0  0  0  0  0  0
    4.2190   -4.2250   24.6460 O   0  0  0  0  0  0  0  0  0  0  0  0
    0.8250   -7.3190   21.9190 O   0  0  0  0  0  0  0  0  0  0  0  0
   -0.4090   -5.3430   22.7970 C   0  0  0  0  0  0  0  0  0  0  0  0
    6.4880   -5.4610   21.7930 N   0  0  0  0  0  0  0  0  0  0  0  0
    6.2470   -4.3760   23.8790 C   0  0  0  0  0  0  0  0  0  0  0  0
    6.4470   -4.5930   20.7050 C   0  0  0  0  0  0  0  0  0  0  0  0
    7.1550   -5.0170   23.0270 C   0  0  0  0  0  0  0  0  0  0  0  0
    5.4600   -4.5410   19.9450 O   0  0  0  0  0  0  0  0  0  0  0  0
    7.6810   -3.7240   20.4870 C   0  0  0  0  0  0  0  0  0  0  0  0
  1  2  1  1
  2  3  1  0
  1  4  1  0
  1  5  1  0
  4  6  1  6
  4  7  1  0
  5  8  1  0
  5  9  1  1
  8 10  1  0
  3 11  2  0
  3 12  1  0
  9 13  1  0
  8 14  1  0
 13 15  1  0
 13 16  1  0
 14 16  1  0
 15 17  2  0
 15 18  1  0
M  END
