x0978_1-x1386_1-x0769_1-x0831_0
     RDKit          3D

 37 39  0  0  0  0  0  0  0  0999 V2000
    4.2160   -4.8950   23.4220 C   0  0  0  0  0  0  0  0  0  0  0  0
    3.2990   -6.1070   23.3780 C   0  0  2  0  0  0  0  0  0  0  0  0
    1.9240   -5.6040   23.3420 N   0  0  0  0  0  0  0  0  0  0  0  0
    4.3330   -4.0570   22.4650 N   0  0  0  0  0  0  0  0  0  0  0  0
    3.6010   -6.8790   24.6640 C   0  0  1  0  0  0  0  0  0  0  0  0
    5.2560   -2.9650   22.8070 C   0  0  0  0  0  0  0  0  0  0  0  0
    0.8980   -6.1890   22.6430 C   0  0  0  0  0  0  0  0  0  0  0  0
    2.4040   -7.6780   25.1640 C   0  0  0  0  0  0  0  0  0  0  0  0
    4.5810   -7.8590   24.3350 O   0  0  0  0  0  0  0  0  0  0  0  0
    4.2070   -5.8100   26.0710 S   0  0  0  0  0  0  0  0  0  0  0  0
    6.6240   -3.2640   22.1750 C   0  0  1  0  0  0  0  0  0  0  0  0
    0.9940   -7.2500   22.0370 O   0  0  0  0  0  0  0  0  0  0  0  0
   -0.3960   -5.4190   22.6670 C   0  0  0  0  0  0  0  0  0  0  0  0
    5.6460   -5.6000   26.0330 O   0  0  0  0  0  0  0  0  0  0  0  0
    3.4630   -4.2490   25.9850 C   0  0  0  0  0  0  0  0  0  0  0  0
    6.8150   -2.5150   20.9380 N   0  0  0  0  0  0  0  0  0  0  0  0
    7.6840   -3.1550   23.1160 C   0  0  0  0  0  0  0  0  0  0  0  0
    6.5050   -3.1420   19.7440 C   0  0  0  0  0  0  0  0  0  0  0  0
    2.0870   -4.1180   25.7990 C   0  0  0  0  0  0  0  0  0  0  0  0
    4.2120   -3.0280   26.1090 C   0  0  0  0  0  0  0  0  0  0  0  0
    8.6090   -1.9890   22.9400 N   0  0  0  0  0  0  0  0  0  0  0  0
    7.6490   -1.2970   20.9960 C   0  0  0  0  0  0  0  0  0  0  0  0
    5.5420   -3.0010   26.2940 F   0  0  0  0  0  0  0  0  0  0  0  0
    7.4500   -2.9660   18.5960 C   0  0  0  0  0  0  0  0  0  0  0  0
    5.5020   -3.8810   19.6300 O   0  0  0  0  0  0  0  0  0  0  0  0
    9.9240   -2.2250   23.5960 C   0  0  0  0  0  0  0  0  0  0  0  0
    1.4320   -2.9020   25.7330 C   0  0  0  0  0  0  0  0  0  0  0  0
    3.4600   -1.6940   26.0330 C   0  0  0  0  0  0  0  0  0  0  0  0
    8.8720   -1.6760   21.5120 C   0  0  0  0  0  0  0  0  0  0  0  0
    2.0730   -1.7010   25.8460 C   0  0  0  0  0  0  0  0  0  0  0  0
   10.7840   -0.9830   23.5400 C   0  0  0  0  0  0  0  0  0  0  0  0
   10.2850    0.1560   24.1310 C   0  0  0  0  0  0  0  0  0  0  0  0
   12.0480   -0.9420   22.9100 C   0  0  0  0  0  0  0  0  0  0  0  0
   12.6660   -2.1350   22.2350 C   0  0  0  0  0  0  0  0  0  0  0  0
   11.0020    1.3440   24.1100 C   0  0  0  0  0  0  0  0  0  0  0  0
   12.7690    0.2560   22.8990 C   0  0  0  0  0  0  0  0  0  0  0  0
   12.2440    1.3930   23.4940 C   0  0  0  0  0  0  0  0  0  0  0  0
  2  1  1  1
  2  3  1  0
  1  4  2  3
  2  5  1  0
  4  6  1  0
  3  7  1  0
  5  8  1  1
  5  9  1  0
  5 10  1  0
 11  6  1  1
  7 12  2  0
  7 13  1  0
 10 14  2  0
 10 15  1  6
 11 16  1  0
 11 17  1  0
 16 18  1  0
 15 19  2  0
 15 20  1  0
 17 21  1  0
 16 22  1  0
 20 23  1  0
 18 24  1  0
 18 25  2  0
 21 26  1  0
 19 27  1  0
 20 28  2  0
 21 29  1  0
 22 29  1  0
 27 30  2  0
 28 30  1  0
 26 31  1  0
 31 32  2  0
 31 33  1  0
 33 34  1  0
 32 35  1  0
 33 36  2  0
 35 37  2  0
 36 37  1  0
M  END
