x0978_1-x0759_1-x0831_0
     RDKit          3D

 28 29  0  0  0  0  0  0  0  0999 V2000
    3.8550   -5.1150   23.4550 C   0  0  0  0  0  0  0  0  0  0  0  0
    2.9730   -6.3530   23.3650 C   0  0  2  0  0  0  0  0  0  0  0  0
    1.6010   -5.8540   23.3550 N   0  0  0  0  0  0  0  0  0  0  0  0
    4.2740   -4.3410   22.5170 N   0  0  0  0  0  0  0  0  0  0  0  0
    3.1840   -7.1930   24.6280 C   0  0  1  0  0  0  0  0  0  0  0  0
    5.0330   -3.1630   22.8970 C   0  0  0  0  0  0  0  0  0  0  0  0
    0.6390   -6.3200   22.4910 C   0  0  0  0  0  0  0  0  0  0  0  0
    2.1520   -8.2830   24.7620 C   0  0  0  0  0  0  0  0  0  0  0  0
    4.4560   -7.8210   24.5740 O   0  0  0  0  0  0  0  0  0  0  0  0
    6.4000   -3.1670   22.5720 C   0  0  2  0  0  0  0  0  0  0  0  0
    0.7500   -7.3440   21.8320 O   0  0  0  0  0  0  0  0  0  0  0  0
   -0.5820   -5.4480   22.4290 C   0  0  0  0  0  0  0  0  0  0  0  0
    6.7220   -2.6260   21.2530 N   0  0  0  0  0  0  0  0  0  0  0  0
    7.0810   -4.3170   22.8190 C   0  0  0  0  0  0  0  0  0  0  0  0
    6.4280   -3.3270   20.0240 C   0  0  0  0  0  0  0  0  0  0  0  0
    7.9600   -1.8720   21.5520 C   0  0  0  0  0  0  0  0  0  0  0  0
    8.4950   -4.0600   22.7590 O   0  0  0  0  0  0  0  0  0  0  0  0
    5.5110   -4.1560   19.8350 O   0  0  0  0  0  0  0  0  0  0  0  0
    7.3720   -3.0120   18.8790 C   0  0  0  0  0  0  0  0  0  0  0  0
    8.9820   -2.7340   22.3600 C   0  0  2  0  0  0  0  0  0  0  0  0
    9.5670   -2.1370   23.6620 C   0  0  0  0  0  0  0  0  0  0  0  0
   10.5520   -0.9710   23.5450 C   0  0  0  0  0  0  0  0  0  0  0  0
   10.1420    0.2420   24.1290 C   0  0  0  0  0  0  0  0  0  0  0  0
   11.8300   -1.0040   22.9120 C   0  0  0  0  0  0  0  0  0  0  0  0
   12.3980   -2.2210   22.2470 C   0  0  0  0  0  0  0  0  0  0  0  0
   10.9410    1.3760   24.0910 C   0  0  0  0  0  0  0  0  0  0  0  0
   12.6210    0.1560   22.8950 C   0  0  0  0  0  0  0  0  0  0  0  0
   12.1790    1.3340   23.4760 C   0  0  0  0  0  0  0  0  0  0  0  0
  2  1  1  1
  2  3  1  0
  1  4  2  3
  2  5  1  0
  4  6  1  0
  3  7  1  0
  5  8  1  6
  5  9  1  0
 10  6  1  6
  7 11  2  0
  7 12  1  0
 10 13  1  0
 10 14  1  0
 13 15  1  0
 13 16  1  0
 14 17  1  0
 15 18  2  0
 15 19  1  0
 16 20  1  0
 17 20  1  0
 20 21  1  1
 21 22  1  0
 22 23  2  0
 22 24  1  0
 24 25  1  0
 23 26  1  0
 24 27  2  0
 26 28  2  0
 27 28  1  0
M  END
