x0978_1-x1418_1-x0692_0-x1418_0
     RDKit          3D

 29 30  0  0  0  0  0  0  0  0999 V2000
    3.8910   -4.9670   23.4260 C   0  0  0  0  0  0  0  0  0  0  0  0
    3.0330   -6.2420   23.3840 C   0  0  2  0  0  0  0  0  0  0  0  0
    1.6730   -5.7410   23.3060 N   0  0  0  0  0  0  0  0  0  0  0  0
    4.5320   -4.2930   22.2930 N   0  0  0  0  0  0  0  0  0  0  0  0
    3.2140   -7.1900   24.6210 C   0  0  1  0  0  0  0  0  0  0  0  0
    5.1570   -3.0710   22.8270 C   0  0  0  0  0  0  0  0  0  0  0  0
    0.7070   -6.2880   22.5040 C   0  0  0  0  0  0  0  0  0  0  0  0
    2.0970   -8.3110   24.6110 C   0  0  0  0  0  0  0  0  0  0  0  0
    4.4700   -7.8340   24.5650 O   0  0  0  0  0  0  0  0  0  0  0  0
    6.4340   -2.6770   22.3340 C   0  0  1  0  0  0  0  0  0  0  0  0
    0.8320   -7.3430   21.9010 O   0  0  0  0  0  0  0  0  0  0  0  0
   -0.5510   -5.4660   22.4270 C   0  0  0  0  0  0  0  0  0  0  0  0
    7.6400   -3.2140   22.8390 C   0  0  0  0  0  0  0  0  0  0  0  0
    6.5580   -2.3000   20.9220 N   0  0  0  0  0  0  0  0  0  0  0  0
    6.3840   -3.1930   19.8410 C   0  0  0  0  0  0  0  0  0  0  0  0
    8.4600   -2.1320   22.9240 N   0  0  0  0  0  0  0  0  0  0  0  0
    7.6580   -1.2970   20.8660 C   0  0  0  0  0  0  0  0  0  0  0  0
    7.3610   -2.9850   18.6920 C   0  0  0  0  0  0  0  0  0  0  0  0
    5.5360   -4.1040   19.7690 O   0  0  0  0  0  0  0  0  0  0  0  0
    9.6000   -2.2550   23.8360 C   0  0  1  0  0  0  0  0  0  0  0  0
    8.8310   -1.6580   21.5880 C   0  0  0  0  0  0  0  0  0  0  0  0
   10.1910   -3.4340   23.7620 C   0  0  0  0  0  0  0  0  0  0  0  0
   10.6200   -1.3310   23.6120 C   0  0  0  0  0  0  0  0  0  0  0  0
   10.3320   -0.0420   23.7970 C   0  0  0  0  0  0  0  0  0  0  0  0
   11.9140   -1.7140   23.1990 C   0  0  0  0  0  0  0  0  0  0  0  0
   11.2660    0.9420   23.5900 C   0  0  0  0  0  0  0  0  0  0  0  0
   12.8760   -0.7220   22.9880 C   0  0  0  0  0  0  0  0  0  0  0  0
   10.8680    2.3630   23.7980 C   0  0  0  0  0  0  0  0  0  0  0  0
   12.5510    0.6120   23.1840 C   0  0  0  0  0  0  0  0  0  0  0  0
  2  1  1  1
  2  3  1  0
  1  4  2  3
  2  5  1  0
  4  6  1  0
  3  7  1  0
  5  8  1  6
  5  9  1  0
 10  6  1  6
  7 11  2  0
  7 12  1  0
 10 13  1  0
 10 14  1  0
 14 15  1  0
 13 16  1  0
 14 17  1  0
 15 18  1  0
 15 19  2  0
 16 20  1  0
 16 21  1  0
 17 21  1  0
 20 22  1  6
 20 23  1  0
 23 24  2  0
 23 25  1  0
 24 26  1  0
 25 27  2  0
 26 28  1  0
 26 29  2  0
 27 29  1  0
M  END
