x0978_1-x1418_0-x1334_1-x0691_1
     RDKit          3D

 35 37  0  0  0  0  0  0  0  0999 V2000
    3.8230   -5.0730   23.2320 C   0  0  0  0  0  0  0  0  0  0  0  0
    3.0940   -6.4050   23.3560 C   0  0  2  0  0  0  0  0  0  0  0  0
    1.7180   -5.8980   23.3430 N   0  0  0  0  0  0  0  0  0  0  0  0
    4.6100   -4.5480   22.3790 N   0  0  0  0  0  0  0  0  0  0  0  0
    3.5610   -6.9810   24.5680 C   0  0  1  0  0  0  0  0  0  0  0  0
    5.0100   -3.2020   22.7350 C   0  0  0  0  0  0  0  0  0  0  0  0
    0.7290   -6.3510   22.5010 C   0  0  0  0  0  0  0  0  0  0  0  0
    2.4120   -7.8770   25.0280 C   0  0  0  0  0  0  0  0  0  0  0  0
    4.5660   -7.5970   24.2420 O   0  0  0  0  0  0  0  0  0  0  0  0
    4.0900   -6.0810   26.0050 S   0  0  0  0  0  0  0  0  0  0  0  0
    6.4450   -2.6880   22.4190 C   0  0  2  0  0  0  0  0  0  0  0  0
    0.8540   -7.3640   21.8220 O   0  0  0  0  0  0  0  0  0  0  0  0
   -0.5100   -5.5020   22.4940 C   0  0  0  0  0  0  0  0  0  0  0  0
    5.6250   -5.7030   25.7830 O   0  0  0  0  0  0  0  0  0  0  0  0
    3.1880   -4.6100   25.9280 C   0  0  0  0  0  0  0  0  0  0  0  0
    6.6740   -2.3920   21.0200 N   0  0  0  0  0  0  0  0  0  0  0  0
    7.5570   -3.3980   22.8650 C   0  0  0  0  0  0  0  0  0  0  0  0
    6.4530   -3.2060   19.8700 C   0  0  0  0  0  0  0  0  0  0  0  0
    3.7890   -3.2230   25.9970 C   0  0  0  0  0  0  0  0  0  0  0  0
    1.7990   -4.6760   25.7940 C   0  0  0  0  0  0  0  0  0  0  0  0
    8.6240   -2.3650   22.9730 N   0  0  0  0  0  0  0  0  0  0  0  0
    7.7560   -1.4300   20.9320 C   0  0  0  0  0  0  0  0  0  0  0  0
    7.3700   -2.9890   18.6840 C   0  0  0  0  0  0  0  0  0  0  0  0
    5.5720   -4.0870   19.7650 O   0  0  0  0  0  0  0  0  0  0  0  0
    9.9110   -2.8390   23.5040 C   0  0  0  0  0  0  0  0  0  0  0  0
    2.9670   -2.0890   25.9310 C   0  0  0  0  0  0  0  0  0  0  0  0
    0.9940   -3.4990   25.7290 C   0  0  0  0  0  0  0  0  0  0  0  0
    8.9150   -1.8350   21.6150 C   0  0  0  0  0  0  0  0  0  0  0  0
    3.5440   -0.8800   25.9980 F   0  0  0  0  0  0  0  0  0  0  0  0
    1.6180   -2.1110   25.8050 C   0  0  0  0  0  0  0  0  0  0  0  0
   10.9070   -1.6410   23.5520 C   0  0  0  0  0  0  0  0  0  0  0  0
   12.0000   -1.5580   22.6420 C   0  0  0  0  0  0  0  0  0  0  0  0
   10.8200   -0.3300   24.6280 S   0  0  0  0  0  0  0  0  0  0  0  0
   12.7150   -0.4060   22.8700 C   0  0  0  0  0  0  0  0  0  0  0  0
   12.2490    0.4000   23.8850 C   0  0  0  0  0  0  0  0  0  0  0  0
  2  1  1  1
  2  3  1  0
  1  4  2  3
  2  5  1  0
  4  6  1  0
  3  7  1  0
  5  8  1  1
  5  9  1  0
  5 10  1  0
 11  6  1  6
  7 12  2  0
  7 13  1  0
 10 14  2  0
 10 15  1  6
 11 16  1  0
 11 17  1  0
 16 18  1  0
 15 19  2  0
 15 20  1  0
 17 21  1  0
 16 22  1  0
 18 23  1  0
 18 24  2  0
 21 25  1  0
 19 26  1  0
 20 27  2  0
 21 28  1  0
 22 28  1  0
 26 29  1  0
 26 30  2  0
 27 30  1  0
 25 31  1  0
 31 32  2  0
 31 33  1  0
 32 34  1  0
 33 35  1  0
 34 35  2  0
M  END
