x0978_1-x0874_0-x0692_1
     RDKit          3D

 26 27  0  0  0  0  0  0  0  0999 V2000
    4.3150   -6.0350   22.8380 C   0  0  0  0  0  0  0  0  0  0  0  0
    3.0030   -6.6850   23.2560 C   0  0  2  0  0  0  0  0  0  0  0  0
    1.9380   -5.7010   23.1600 N   0  0  0  0  0  0  0  0  0  0  0  0
    4.6520   -4.8140   23.0690 N   0  0  0  0  0  0  0  0  0  0  0  0
    3.0580   -7.2830   24.6600 C   0  0  1  0  0  0  0  0  0  0  0  0
    6.0030   -4.6170   22.5140 C   0  0  0  0  0  0  0  0  0  0  0  0
    0.6480   -6.1350   22.5240 C   0  0  0  0  0  0  0  0  0  0  0  0
    2.0140   -8.3590   24.8920 C   0  0  0  0  0  0  0  0  0  0  0  0
    4.3390   -7.8600   24.8770 O   0  0  0  0  0  0  0  0  0  0  0  0
    6.4180   -3.1470   22.4200 C   0  0  2  0  0  0  0  0  0  0  0  0
    0.5660   -7.1590   21.8590 O   0  0  0  0  0  0  0  0  0  0  0  0
   -0.5400   -5.2470   22.7580 C   0  0  0  0  0  0  0  0  0  0  0  0
    6.3930   -2.5510   21.0560 N   0  0  0  0  0  0  0  0  0  0  0  0
    7.6750   -2.9920   23.1500 C   0  0  0  0  0  0  0  0  0  0  0  0
    6.2660   -3.2130   19.8420 C   0  0  0  0  0  0  0  0  0  0  0  0
    8.5370   -1.7900   22.9510 N   0  0  0  0  0  0  0  0  0  0  0  0
    7.0920   -1.2590   20.9710 C   0  0  0  0  0  0  0  0  0  0  0  0
    5.3620   -4.0380   19.6830 O   0  0  0  0  0  0  0  0  0  0  0  0
    7.2770   -2.9610   18.7390 C   0  0  0  0  0  0  0  0  0  0  0  0
    9.9420   -2.1000   23.2830 C   0  0  0  0  0  0  0  0  0  0  0  0
    8.5060   -1.3360   21.5630 C   0  0  0  0  0  0  0  0  0  0  0  0
   10.8270   -0.8850   23.4320 C   0  0  0  0  0  0  0  0  0  0  0  0
   11.7760    0.1630   23.4620 C   0  0  0  0  0  0  0  0  0  0  0  0
   11.6450   -1.7090   22.5720 C   0  0  0  0  0  0  0  0  0  0  0  0
   13.0890    0.1350   22.7560 C   0  0  0  0  0  0  0  0  0  0  0  0
   13.1930   -1.3040   21.9610 S   0  0  0  0  0  0  0  0  0  0  0  0
  2  1  1  1
  2  3  1  0
  1  4  2  3
  2  5  1  0
  4  6  1  0
  3  7  1  0
  5  8  1  6
  5  9  1  0
 10  6  1  6
  7 11  2  0
  7 12  1  0
 10 13  1  0
 10 14  1  0
 13 15  1  0
 14 16  1  0
 13 17  1  0
 15 18  2  0
 15 19  1  0
 16 20  1  0
 16 21  1  0
 17 21  1  0
 20 22  1  0
 22 23  1  0
 22 24  2  0
 23 25  2  0
 24 26  1  0
 25 26  1  0
M  END
