x0978_1-x0831_0-x0770_1-x0072_0-x1418_0
     RDKit          3D

 35 37  0  0  0  0  0  0  0  0999 V2000
    4.0690   -6.1640   22.6880 C   0  0  0  0  0  0  0  0  0  0  0  0
    2.8660   -6.7140   23.3800 C   0  0  2  0  0  0  0  0  0  0  0  0
    1.7000   -5.8350   23.3720 N   0  0  0  0  0  0  0  0  0  0  0  0
    4.4180   -4.9500   22.7180 N   0  0  0  0  0  0  0  0  0  0  0  0
    3.2510   -7.3730   24.6880 C   0  0  1  0  0  0  0  0  0  0  0  0
    5.5940   -4.7900   21.9030 C   0  0  0  0  0  0  0  0  0  0  0  0
    0.5520   -6.1670   22.5540 C   0  0  0  0  0  0  0  0  0  0  0  0
    2.2200   -8.3990   25.0720 C   0  0  0  0  0  0  0  0  0  0  0  0
    4.3210   -7.9340   24.5260 O   0  0  0  0  0  0  0  0  0  0  0  0
    6.4180   -3.5880   22.3250 C   0  0  2  0  0  0  0  0  0  0  0  0
    0.5300   -7.1150   21.7810 O   0  0  0  0  0  0  0  0  0  0  0  0
   -0.6500   -5.2370   22.7380 C   0  0  0  0  0  0  0  0  0  0  0  0
    6.5760   -2.6740   21.1920 N   0  0  0  0  0  0  0  0  0  0  0  0
    7.7050   -3.9320   22.7330 C   0  0  0  0  0  0  0  0  0  0  0  0
    6.3670   -3.2440   19.9130 C   0  0  0  0  0  0  0  0  0  0  0  0
    8.4640   -2.7680   23.3370 C   0  0  1  0  0  0  0  0  0  0  0  0
    7.5510   -1.5910   21.4140 C   0  0  0  0  0  0  0  0  0  0  0  0
    7.3720   -2.9660   18.8080 C   0  0  0  0  0  0  0  0  0  0  0  0
    5.4020   -3.9950   19.6920 O   0  0  0  0  0  0  0  0  0  0  0  0
    8.3090   -2.8820   24.8080 N   0  0  0  0  0  0  0  0  0  0  0  0
    9.9620   -2.9420   23.0640 C   0  0  0  0  0  0  0  0  0  0  0  0
    7.9290   -1.6010   22.7580 C   0  0  0  0  0  0  0  0  0  0  0  0
    8.1620   -4.3060   25.7240 S   0  0  0  0  0  0  0  0  0  0  0  0
   10.5870   -2.2740   24.1360 C   0  0  2  0  0  0  0  0  0  0  0  0
    9.5010   -2.2000   25.2560 C   0  0  0  0  0  0  0  0  0  0  0  0
    6.4390   -4.7600   25.7340 C   0  0  0  0  0  0  0  0  0  0  0  0
    8.8940   -5.3980   25.1310 O   0  0  0  0  0  0  0  0  0  0  0  0
    8.4880   -3.9400   27.0870 O   0  0  0  0  0  0  0  0  0  0  0  0
   11.1170   -0.9140   23.8710 C   0  0  0  0  0  0  0  0  0  0  0  0
   10.4970    0.2370   24.3380 C   0  0  0  0  0  0  0  0  0  0  0  0
   12.2990   -0.7920   23.1230 C   0  0  0  0  0  0  0  0  0  0  0  0
   13.0150   -1.9880   22.5750 C   0  0  0  0  0  0  0  0  0  0  0  0
   11.0440    1.4920   24.0670 C   0  0  0  0  0  0  0  0  0  0  0  0
   12.8360    0.4550   22.8720 C   0  0  0  0  0  0  0  0  0  0  0  0
   12.2200    1.6060   23.3360 C   0  0  0  0  0  0  0  0  0  0  0  0
  2  1  1  1
  2  3  1  0
  1  4  2  3
  2  5  1  0
  4  6  1  0
  3  7  1  0
  5  8  1  6
  5  9  1  0
 10  6  1  6
  7 11  2  0
  7 12  1  0
 10 13  1  0
 10 14  1  0
 13 15  1  0
 16 14  1  6
 13 17  1  0
 15 18  1  0
 15 19  2  0
 16 20  1  0
 16 21  1  0
 16 22  1  0
 17 22  1  0
 20 23  1  0
 21 24  1  0
 20 25  1  0
 24 25  1  0
 23 26  1  0
 23 27  2  0
 23 28  2  0
 24 29  1  6
 29 30  2  0
 29 31  1  0
 31 32  1  0
 30 33  1  0
 31 34  2  0
 33 35  2  0
 34 35  1  0
M  END
