x0978_1-x0755_0-x0692_0
     RDKit          3D

 27 28  0  0  0  0  0  0  0  0999 V2000
    3.3320   -6.3940   23.2770 C   0  0  2  0  0  0  0  0  0  0  0  0
    2.2330   -5.7020   23.1960 N   0  0  0  0  0  0  0  0  0  0  0  0
    0.9130   -6.1210   22.6570 C   0  0  0  0  0  0  0  0  0  0  0  0
    3.2940   -7.0580   24.6270 C   0  0  1  0  0  0  0  0  0  0  0  0
    4.6050   -5.4860   22.9710 C   0  0  1  0  0  0  0  0  0  0  0  0
    2.1190   -8.0190   24.7700 C   0  0  0  0  0  0  0  0  0  0  0  0
    4.4620   -7.8110   24.8620 O   0  0  0  0  0  0  0  0  0  0  0  0
    5.4440   -4.9470   24.1020 N   0  0  0  0  0  0  0  0  0  0  0  0
    5.5620   -6.2800   22.0240 C   0  0  0  0  0  0  0  0  0  0  0  0
    0.8720   -7.1730   22.0180 O   0  0  0  0  0  0  0  0  0  0  0  0
   -0.3430   -5.3140   22.8630 C   0  0  0  0  0  0  0  0  0  0  0  0
    6.5320   -4.1060   23.4910 C   0  0  1  0  0  0  0  0  0  0  0  0
    6.5690   -5.3930   21.4610 N   0  0  0  0  0  0  0  0  0  0  0  0
    6.2760   -4.5040   20.4240 C   0  0  0  0  0  0  0  0  0  0  0  0
    7.4680   -3.3820   24.4540 C   0  0  0  0  0  0  0  0  0  0  0  0
    7.4170   -4.9240   22.5370 C   0  0  0  0  0  0  0  0  0  0  0  0
    5.1880   -4.5790   19.8870 O   0  0  0  0  0  0  0  0  0  0  0  0
    7.3040   -3.4600   19.9590 C   0  0  0  0  0  0  0  0  0  0  0  0
    8.2060   -2.3240   23.9890 C   0  0  0  0  0  0  0  0  0  0  0  0
    9.6520   -2.7170   23.6510 C   0  0  0  0  0  0  0  0  0  0  0  0
   10.6240   -1.5730   23.5170 C   0  0  0  0  0  0  0  0  0  0  0  0
   10.2370   -0.2540   23.7820 C   0  0  0  0  0  0  0  0  0  0  0  0
   11.9410   -1.8210   23.1160 C   0  0  0  0  0  0  0  0  0  0  0  0
   11.1450    0.8020   23.6430 C   0  0  0  0  0  0  0  0  0  0  0  0
   12.8490   -0.7750   22.9810 C   0  0  0  0  0  0  0  0  0  0  0  0
   10.6980    2.2000   23.9150 C   0  0  0  0  0  0  0  0  0  0  0  0
   12.4570    0.5330   23.2420 C   0  0  0  0  0  0  0  0  0  0  0  0
  1  2  1  1
  2  3  1  0
  1  4  1  0
  1  5  1  0
  4  6  1  6
  4  7  1  0
  5  8  1  0
  5  9  1  6
  3 10  2  0
  3 11  1  0
  8 12  1  0
  9 13  1  0
 13 14  1  0
 12 15  1  1
 12 16  1  0
 13 16  1  0
 14 17  2  0
 14 18  1  0
 15 19  1  0
 19 20  1  0
 20 21  1  0
 21 22  2  0
 21 23  1  0
 22 24  1  0
 23 25  2  0
 24 26  1  0
 24 27  2  0
 25 27  1  0
M  END
