x0978_1-x0759_1-x1386_0
     RDKit          3D

 26 27  0  0  0  0  0  0  0  0999 V2000
    4.1740   -5.4620   23.1910 C   0  0  0  0  0  0  0  0  0  0  0  0
    3.0450   -6.4700   23.3780 C   0  0  2  0  0  0  0  0  0  0  0  0
    1.7640   -5.7680   23.3170 N   0  0  0  0  0  0  0  0  0  0  0  0
    4.1520   -4.2240   23.5690 N   0  0  0  0  0  0  0  0  0  0  0  0
    3.2380   -7.2700   24.6670 C   0  0  1  0  0  0  0  0  0  0  0  0
    5.2850   -3.3300   23.3360 C   0  0  0  0  0  0  0  0  0  0  0  0
    0.7040   -6.2350   22.5720 C   0  0  0  0  0  0  0  0  0  0  0  0
    2.1970   -8.3570   24.7380 C   0  0  0  0  0  0  0  0  0  0  0  0
    4.3320   -7.8000   24.6430 O   0  0  0  0  0  0  0  0  0  0  0  0
    6.3300   -4.0340   22.4550 C   0  0  1  0  0  0  0  0  0  0  0  0
    0.7500   -7.4470   21.8060 O   0  0  0  0  0  0  0  0  0  0  0  0
   -0.5270   -5.3620   22.6280 C   0  0  0  0  0  0  0  0  0  0  0  0
    6.8760   -3.1750   21.3890 N   0  0  0  0  0  0  0  0  0  0  0  0
    7.5000   -4.5050   23.2990 C   0  0  0  0  0  0  0  0  0  0  0  0
    6.5400   -3.4710   20.0430 C   0  0  0  0  0  0  0  0  0  0  0  0
    8.2270   -2.5660   21.6740 C   0  0  0  0  0  0  0  0  0  0  0  0
    8.0630   -3.3910   23.9410 O   0  0  0  0  0  0  0  0  0  0  0  0
    5.5240   -4.1350   19.7630 O   0  0  0  0  0  0  0  0  0  0  0  0
    7.4510   -3.0210   18.8990 C   0  0  0  0  0  0  0  0  0  0  0  0
    8.5860   -2.3940   23.0490 C   0  0  1  0  0  0  0  0  0  0  0  0
   10.1050   -2.6070   23.2880 C   0  0  0  0  0  0  0  0  0  0  0  0
   11.0660   -1.5410   23.1610 C   0  0  0  0  0  0  0  0  0  0  0  0
   12.3620   -1.6980   22.7250 C   0  0  0  0  0  0  0  0  0  0  0  0
   10.8110   -0.2020   23.4620 C   0  0  0  0  0  0  0  0  0  0  0  0
   13.0260   -0.4830   22.7100 C   0  0  0  0  0  0  0  0  0  0  0  0
   12.1130    0.8340   23.2110 S   0  0  0  0  0  0  0  0  0  0  0  0
  2  1  1  1
  2  3  1  0
  1  4  2  3
  2  5  1  0
  4  6  1  0
  3  7  1  0
  5  8  1  6
  5  9  1  0
 10  6  1  1
  7 11  2  0
  7 12  1  0
 10 13  1  0
 10 14  1  0
 13 15  1  0
 13 16  1  0
 14 17  1  0
 15 18  2  0
 15 19  1  0
 16 20  1  0
 17 20  1  0
 20 21  1  6
 21 22  1  0
 22 23  1  0
 22 24  2  0
 23 25  2  0
 24 26  1  0
 25 26  1  0
M  END
