x0978_1-x1386_1-x1418_0-x0831_0
     RDKit          3D

 29 30  0  0  0  0  0  0  0  0999 V2000
    4.2700   -6.0950   22.7500 C   0  0  0  0  0  0  0  0  0  0  0  0
    2.9640   -6.6810   23.2760 C   0  0  2  0  0  0  0  0  0  0  0  0
    1.8900   -5.7090   23.1730 N   0  0  0  0  0  0  0  0  0  0  0  0
    4.7130   -4.7920   22.8580 N   0  0  0  0  0  0  0  0  0  0  0  0
    3.1600   -7.2080   24.6830 C   0  0  1  0  0  0  0  0  0  0  0  0
    6.0150   -4.6560   22.1960 C   0  0  0  0  0  0  0  0  0  0  0  0
    0.6550   -6.1500   22.5200 C   0  0  0  0  0  0  0  0  0  0  0  0
    2.0960   -8.3120   24.9650 C   0  0  0  0  0  0  0  0  0  0  0  0
    4.4310   -7.8300   24.7710 O   0  0  0  0  0  0  0  0  0  0  0  0
    6.6140   -3.2250   22.2820 C   0  0  2  0  0  0  0  0  0  0  0  0
    0.5890   -7.1720   21.8460 O   0  0  0  0  0  0  0  0  0  0  0  0
   -0.5440   -5.2710   22.7310 C   0  0  0  0  0  0  0  0  0  0  0  0
    6.4800   -2.4280   21.0310 N   0  0  0  0  0  0  0  0  0  0  0  0
    7.9840   -3.2560   22.9050 C   0  0  0  0  0  0  0  0  0  0  0  0
    6.3260   -3.1700   19.8410 C   0  0  0  0  0  0  0  0  0  0  0  0
    8.7420   -2.0010   22.8640 N   0  0  0  0  0  0  0  0  0  0  0  0
    7.2660   -1.1930   21.0390 C   0  0  0  0  0  0  0  0  0  0  0  0
    7.3450   -2.9580   18.7330 C   0  0  0  0  0  0  0  0  0  0  0  0
    5.4080   -3.9830   19.6820 O   0  0  0  0  0  0  0  0  0  0  0  0
   10.1620   -2.2490   23.0580 C   0  0  2  0  0  0  0  0  0  0  0  0
    8.6810   -1.4190   21.5210 C   0  0  0  0  0  0  0  0  0  0  0  0
   10.5840   -3.1450   24.1920 C   0  0  0  0  0  0  0  0  0  0  0  0
   10.8830   -0.9570   23.2420 C   0  0  0  0  0  0  0  0  0  0  0  0
   10.2780    0.1020   23.9280 C   0  0  0  0  0  0  0  0  0  0  0  0
   12.1640   -0.7980   22.7190 C   0  0  0  0  0  0  0  0  0  0  0  0
   12.8520   -1.9090   21.9770 C   0  0  0  0  0  0  0  0  0  0  0  0
   10.9810    1.2850   24.0430 C   0  0  0  0  0  0  0  0  0  0  0  0
   12.8540    0.4000   22.8540 C   0  0  0  0  0  0  0  0  0  0  0  0
   12.2890    1.4830   23.5090 C   0  0  0  0  0  0  0  0  0  0  0  0
  2  1  1  1
  2  3  1  0
  1  4  2  3
  2  5  1  0
  4  6  1  0
  3  7  1  0
  5  8  1  6
  5  9  1  0
 10  6  1  6
  7 11  2  0
  7 12  1  0
 10 13  1  0
 10 14  1  0
 13 15  1  0
 14 16  1  0
 13 17  1  0
 15 18  1  0
 15 19  2  0
 16 20  1  0
 16 21  1  0
 17 21  1  0
 20 22  1  1
 20 23  1  0
 23 24  2  0
 23 25  1  0
 25 26  1  0
 24 27  1  0
 25 28  2  0
 27 29  2  0
 28 29  1  0
M  END
