x0981_1-x0874_0-x0831_1
     RDKit          3D

 28 29  0  0  0  0  0  0  0  0999 V2000
    4.4850   -5.8400   23.1270 C   0  0  0  0  0  0  0  0  0  0  0  0
    2.9850   -6.0330   23.4560 C   0  0  1  0  0  0  0  0  0  0  0  0
    2.5660   -7.2610   22.7590 N   0  0  0  0  0  0  0  0  0  0  0  0
    5.0980   -4.6920   23.2350 N   0  0  0  0  0  0  0  0  0  0  0  0
    2.7930   -6.2070   24.9580 C   0  0  0  0  0  0  0  0  0  0  0  0
    6.5300   -4.7820   22.8580 C   0  0  0  0  0  0  0  0  0  0  0  0
    1.3350   -7.3940   22.1660 C   0  0  0  0  0  0  0  0  0  0  0  0
    3.1780   -7.6180   25.2730 C   0  0  0  0  0  0  0  0  0  0  0  0
    7.1030   -3.5900   22.3350 C   0  0  1  0  0  0  0  0  0  0  0  0
    1.1520   -8.6850   21.4050 C   0  0  0  0  0  0  0  0  0  0  0  0
    0.4620   -6.5360   22.2270 O   0  0  0  0  0  0  0  0  0  0  0  0
    2.5530   -8.2150   26.3330 N   0  0  0  0  0  0  0  0  0  0  0  0
    4.0120   -8.1870   24.6060 O   0  0  0  0  0  0  0  0  0  0  0  0
    6.2580   -2.8420   21.3330 N   0  0  0  0  0  0  0  0  0  0  0  0
    7.7970   -2.7440   23.4250 C   0  0  0  0  0  0  0  0  0  0  0  0
    6.1560   -3.4770   20.0550 C   0  0  0  0  0  0  0  0  0  0  0  0
    8.5350   -1.5520   23.0070 N   0  0  0  0  0  0  0  0  0  0  0  0
    6.3320   -1.3540   21.2410 C   0  0  0  0  0  0  0  0  0  0  0  0
    5.3380   -4.3680   19.8320 O   0  0  0  0  0  0  0  0  0  0  0  0
    7.1150   -3.0330   18.9430 C   0  0  0  0  0  0  0  0  0  0  0  0
    9.5390   -1.0170   23.9490 C   0  0  0  0  0  0  0  0  0  0  0  0
    8.7470   -1.3390   21.5820 C   0  0  0  0  0  0  0  0  0  0  0  0
    7.5850   -0.8060   20.9300 C   0  0  0  0  0  0  0  0  0  0  0  0
   10.9090   -0.8750   23.3240 C   0  0  0  0  0  0  0  0  0  0  0  0
   11.8550    0.3060   23.5580 C   0  0  0  0  0  0  0  0  0  0  0  0
   11.5010   -1.7950   22.4600 C   0  0  0  0  0  0  0  0  0  0  0  0
   13.1390    0.0950   22.7750 C   0  0  0  0  0  0  0  0  0  0  0  0
   13.0810   -1.3800   21.9160 S   0  0  0  0  0  0  0  0  0  0  0  0
  2  1  1  1
  2  3  1  0
  1  4  2  3
  2  5  1  0
  4  6  1  0
  3  7  1  0
  5  8  1  0
  9  6  1  1
  7 10  1  0
  7 11  2  0
  8 12  1  0
  8 13  2  0
  9 14  1  0
  9 15  1  0
 14 16  1  0
 15 17  1  0
 14 18  1  0
 16 19  2  0
 16 20  1  0
 17 21  1  0
 17 22  1  0
 18 23  1  0
 22 23  1  0
 21 24  1  0
 24 25  1  0
 24 26  2  0
 25 27  2  0
 26 28  1  0
 27 28  1  0
M  END
