x0981_1-x0434_1-x1418_0-x0692_1
     RDKit          3D

 36 38  0  0  0  0  0  0  0  0999 V2000
    4.1720   -5.1120   23.1370 C   0  0  0  0  0  0  0  0  0  0  0  0
    2.9000   -5.8750   23.5700 C   0  0  1  0  0  0  0  0  0  0  0  0
    2.7060   -7.0930   22.7670 N   0  0  0  0  0  0  0  0  0  0  0  0
    4.2850   -3.8680   23.5340 N   0  0  0  0  0  0  0  0  0  0  0  0
    2.8440   -6.2150   25.0700 C   0  0  0  0  0  0  0  0  0  0  0  0
    5.4190   -2.9470   23.1960 C   0  0  0  0  0  0  0  0  0  0  0  0
    1.3560   -7.3870   22.1550 C   0  0  0  0  0  0  0  0  0  0  0  0
    3.1920   -7.6670   25.2860 C   0  0  0  0  0  0  0  0  0  0  0  0
    6.5030   -3.4650   22.2070 C   0  0  1  0  0  0  0  0  0  0  0  0
    1.2170   -8.6900   21.4110 C   0  0  0  0  0  0  0  0  0  0  0  0
    0.4210   -6.5940   22.2390 O   0  0  0  0  0  0  0  0  0  0  0  0
    2.5220   -8.3230   26.2770 N   0  0  0  0  0  0  0  0  0  0  0  0
    4.0370   -8.1770   24.5880 O   0  0  0  0  0  0  0  0  0  0  0  0
    6.5730   -2.6360   20.9650 N   0  0  0  0  0  0  0  0  0  0  0  0
    7.7640   -3.5220   22.8800 C   0  0  0  0  0  0  0  0  0  0  0  0
    6.2900   -3.3400   19.8080 C   0  0  0  0  0  0  0  0  0  0  0  0
    8.5860   -2.2970   23.0320 N   0  0  0  0  0  0  0  0  0  0  0  0
    7.6510   -1.6390   20.7620 C   0  0  2  0  0  0  0  0  0  0  0  0
    5.3690   -4.1570   19.7240 O   0  0  0  0  0  0  0  0  0  0  0  0
    7.2550   -3.0410   18.6660 C   0  0  0  0  0  0  0  0  0  0  0  0
    9.9270   -2.6540   23.5340 C   0  0  0  0  0  0  0  0  0  0  0  0
    8.8200   -1.6310   21.7360 C   0  0  1  0  0  0  0  0  0  0  0  0
    7.0710   -0.2730   20.6620 C   0  0  0  0  0  0  0  0  0  0  0  0
    9.2220   -0.1420   21.9210 C   0  0  0  0  0  0  0  0  0  0  0  0
   10.8260   -1.5800   23.5910 C   0  0  0  0  0  0  0  0  0  0  0  0
    6.8870    0.1630   19.3480 C   0  0  0  0  0  0  0  0  0  0  0  0
    8.8940    0.8190   21.2240 O   0  0  0  0  0  0  0  0  0  0  0  0
   11.9570   -1.5570   22.5700 C   0  0  0  0  0  0  0  0  0  0  0  0
   10.8210   -0.2510   24.6750 S   0  0  0  0  0  0  0  0  0  0  0  0
    5.8360    0.4150   20.2870 C   0  0  0  0  0  0  0  0  0  0  0  0
    6.4250    0.7080   18.1390 N   0  0  0  0  0  0  0  0  0  0  0  0
   12.7750   -0.3140   22.8090 C   0  0  0  0  0  0  0  0  0  0  0  0
   12.1970    0.4530   23.9520 C   0  0  0  0  0  0  0  0  0  0  0  0
    5.2890    1.3520   17.8270 C   0  0  0  0  0  0  0  0  0  0  0  0
    4.5180    1.1210   20.0270 C   0  0  0  0  0  0  0  0  0  0  0  0
    4.3490    1.5500   18.7710 C   0  0  0  0  0  0  0  0  0  0  0  0
  2  1  1  1
  2  3  1  0
  1  4  2  3
  2  5  1  0
  4  6  1  0
  3  7  1  0
  5  8  1  0
  9  6  1  1
  7 10  1  0
  7 11  2  0
  8 12  1  0
  8 13  2  0
  9 14  1  0
  9 15  1  0
 14 16  1  0
 15 17  1  0
 14 18  1  0
 16 19  2  0
 16 20  1  0
 17 21  1  0
 17 22  1  0
 18 22  1  0
 18 23  1  1
 22 24  1  1
 21 25  1  0
 23 26  1  0
 24 27  2  0
 25 28  2  0
 25 29  1  0
 26 30  2  0
 26 31  1  0
 28 32  1  0
 29 33  1  0
 32 33  2  0
 31 34  2  0
 30 35  1  0
 34 36  1  0
 35 36  2  0
M  END
