x0981_1-x1374_2
     RDKit          3D

 16 15  0  0  0  0  0  0  0  0999 V2000
    4.2510   -5.4560   23.3360 C   0  0  0  0  0  0  0  0  0  0  0  0
    2.8210   -6.0090   23.5310 C   0  0  1  0  0  0  0  0  0  0  0  0
    2.5750   -7.2650   22.7820 N   0  0  0  0  0  0  0  0  0  0  0  0
    4.6040   -4.4060   23.8730 O   0  0  0  0  0  0  0  0  0  0  0  0
    5.2860   -6.1710   22.4760 C   0  0  0  0  0  0  0  0  0  0  0  0
    2.5460   -6.2670   25.0250 C   0  0  0  0  0  0  0  0  0  0  0  0
    6.3610   -5.2840   22.0130 N   0  0  0  0  0  0  0  0  0  0  0  0
    1.3790   -7.4620   22.1160 C   0  0  0  0  0  0  0  0  0  0  0  0
    3.0130   -7.6590   25.3580 C   0  0  0  0  0  0  0  0  0  0  0  0
    6.3830   -4.6100   20.7830 C   0  0  0  0  0  0  0  0  0  0  0  0
    1.2420   -8.7530   21.3440 C   0  0  0  0  0  0  0  0  0  0  0  0
    0.3310   -6.4730   22.1370 O   0  0  0  0  0  0  0  0  0  0  0  0
    2.3570   -8.3260   26.4800 N   0  0  0  0  0  0  0  0  0  0  0  0
    3.9960   -8.2320   24.6340 O   0  0  0  0  0  0  0  0  0  0  0  0
    5.4430   -4.7120   19.9810 O   0  0  0  0  0  0  0  0  0  0  0  0
    7.6220   -3.7630   20.5020 C   0  0  0  0  0  0  0  0  0  0  0  0
  1  2  1  0
  2  3  1  0
  1  4  2  0
  1  5  1  0
  2  6  1  1
  5  7  1  0
  3  8  1  0
  6  9  1  0
  7 10  1  0
  8 11  1  0
  8 12  2  0
  9 13  1  0
  9 14  2  0
 10 15  2  0
 10 16  1  0
M  END
