x0981_1-x1348_0
     RDKit          3D

 17 16  0  0  0  0  0  0  0  0999 V2000
    4.1960   -5.6270   23.1760 C   0  0  0  0  0  0  0  0  0  0  0  0
    2.7390   -6.0430   23.5340 C   0  0  1  0  0  0  0  0  0  0  0  0
    2.4660   -7.2970   22.8160 N   0  0  0  0  0  0  0  0  0  0  0  0
    4.6470   -4.6120   23.8160 N   0  0  0  0  0  0  0  0  0  0  0  0
    2.5220   -6.2590   25.0360 C   0  0  0  0  0  0  0  0  0  0  0  0
    6.0190   -4.2500   23.4350 C   0  0  0  0  0  0  0  0  0  0  0  0
    1.3000   -7.4760   22.1050 C   0  0  0  0  0  0  0  0  0  0  0  0
    3.0280   -7.6380   25.3760 C   0  0  0  0  0  0  0  0  0  0  0  0
    5.9850   -3.1820   22.5400 C   0  0  0  0  0  0  0  0  0  0  0  0
    1.1870   -8.7490   21.3070 C   0  0  0  0  0  0  0  0  0  0  0  0
    0.3810   -6.6650   22.0770 O   0  0  0  0  0  0  0  0  0  0  0  0
    2.4030   -8.2930   26.5110 N   0  0  0  0  0  0  0  0  0  0  0  0
    4.0630   -8.2130   24.5930 O   0  0  0  0  0  0  0  0  0  0  0  0
    6.8600   -3.3870   21.3950 N   0  0  0  0  0  0  0  0  0  0  0  0
    6.4280   -3.6280   20.0770 C   0  0  0  0  0  0  0  0  0  0  0  0
    5.4050   -4.2590   19.8150 O   0  0  0  0  0  0  0  0  0  0  0  0
    7.3550   -3.0900   18.9890 C   0  0  0  0  0  0  0  0  0  0  0  0
  2  1  1  1
  2  3  1  0
  1  4  2  3
  2  5  1  0
  4  6  1  0
  3  7  1  0
  5  8  1  0
  6  9  1  0
  7 10  1  0
  7 11  2  0
  8 12  1  0
  8 13  2  0
  9 14  1  0
 14 15  1  0
 15 16  2  0
 15 17  1  0
M  END
