x0981_1-x1418_0-x1334_1-x0691_1
     RDKit          3D

 36 39  0  0  0  0  0  0  0  0999 V2000
    3.9410   -5.9790   22.8980 C   0  0  0  0  0  0  0  0  0  0  0  0
    2.5210   -6.3010   23.3340 C   0  0  1  0  0  0  0  0  0  0  0  0
    2.2600   -7.6220   22.8270 N   0  0  0  0  0  0  0  0  0  0  0  0
    4.5650   -4.7600   23.0160 N   0  0  0  0  0  0  0  0  0  0  0  0
    2.3720   -6.1700   24.8360 C   0  0  1  0  0  0  0  0  0  0  0  0
    5.9040   -4.8090   22.4530 C   0  0  0  0  0  0  0  0  0  0  0  0
    1.1320   -7.7260   21.9310 C   0  0  0  0  0  0  0  0  0  0  0  0
    3.5700   -7.0120   25.4550 C   0  0  1  0  0  0  0  0  0  0  0  0
    2.4800   -4.7200   25.3150 C   0  0  0  0  0  0  0  0  0  0  0  0
    6.6280   -3.4570   22.4690 C   0  0  2  0  0  0  0  0  0  0  0  0
    1.2150   -8.8900   20.9960 C   0  0  0  0  0  0  0  0  0  0  0  0
    0.2020   -6.9260   21.9280 O   0  0  0  0  0  0  0  0  0  0  0  0
    3.1730   -7.5430   26.6610 N   0  0  0  0  0  0  0  0  0  0  0  0
    4.1300   -7.7980   24.6750 O   0  0  0  0  0  0  0  0  0  0  0  0
    4.7720   -5.7760   25.6640 S   0  0  0  0  0  0  0  0  0  0  0  0
    3.7370   -4.4330   25.7380 C   0  0  0  0  0  0  0  0  0  0  0  0
    1.3840   -3.8070   25.2830 C   0  0  0  0  0  0  0  0  0  0  0  0
    6.6390   -2.7120   21.1840 N   0  0  0  0  0  0  0  0  0  0  0  0
    7.9760   -3.7510   22.8650 C   0  0  0  0  0  0  0  0  0  0  0  0
    5.4950   -5.9040   27.0750 O   0  0  0  0  0  0  0  0  0  0  0  0
    6.4090   -3.3150   19.9300 C   0  0  0  0  0  0  0  0  0  0  0  0
    4.0540   -3.1450   26.1700 C   0  0  0  0  0  0  0  0  0  0  0  0
    1.5130   -2.4610   25.6940 C   0  0  0  0  0  0  0  0  0  0  0  0
    8.7760   -2.5250   22.9730 N   0  0  0  0  0  0  0  0  0  0  0  0
    7.4330   -1.4610   21.2180 C   0  0  0  0  0  0  0  0  0  0  0  0
    7.3860   -3.0180   18.8070 C   0  0  0  0  0  0  0  0  0  0  0  0
    5.4570   -4.0930   19.7510 O   0  0  0  0  0  0  0  0  0  0  0  0
   10.1190   -2.8040   23.4960 C   0  0  0  0  0  0  0  0  0  0  0  0
    2.9560   -2.2460   26.1220 C   0  0  0  0  0  0  0  0  0  0  0  0
    8.8120   -1.7700   21.7210 C   0  0  0  0  0  0  0  0  0  0  0  0
    3.2380   -0.9870   26.5270 F   0  0  0  0  0  0  0  0  0  0  0  0
   11.0260   -1.6090   23.4910 C   0  0  0  0  0  0  0  0  0  0  0  0
   12.1260   -1.4040   22.6590 C   0  0  0  0  0  0  0  0  0  0  0  0
   10.8120   -0.2810   24.5560 S   0  0  0  0  0  0  0  0  0  0  0  0
   12.7700   -0.2110   22.8710 C   0  0  0  0  0  0  0  0  0  0  0  0
   12.1880    0.5360   23.8670 C   0  0  0  0  0  0  0  0  0  0  0  0
  2  1  1  1
  2  3  1  0
  1  4  2  3
  2  5  1  0
  4  6  1  0
  3  7  1  0
  5  8  1  0
  5  9  1  6
 10  6  1  6
  7 11  1  0
  7 12  2  0
  8 13  1  1
  8 14  1  0
  8 15  1  0
  9 16  2  0
 15 16  1  1
  9 17  1  0
 10 18  1  0
 10 19  1  0
 15 20  2  0
 18 21  1  0
 16 22  1  0
 17 23  2  0
 19 24  1  0
 18 25  1  0
 21 26  1  0
 21 27  2  0
 24 28  1  0
 22 29  2  0
 23 29  1  0
 24 30  1  0
 25 30  1  0
 29 31  1  0
 28 32  1  0
 32 33  2  0
 32 34  1  0
 33 35  1  0
 34 36  1  0
 35 36  2  0
M  END
