x0981_1-x1412_0-x0692_0-x1418_1
     RDKit          3D

 36 38  0  0  0  0  0  0  0  0999 V2000
    3.9230   -5.8950   22.9530 C   0  0  0  0  0  0  0  0  0  0  0  0
    2.5820   -6.2120   23.5740 C   0  0  1  0  0  0  0  0  0  0  0  0
    2.2880   -7.4550   22.8710 N   0  0  0  0  0  0  0  0  0  0  0  0
    4.5560   -4.8130   22.8370 N   0  0  0  0  0  0  0  0  0  0  0  0
    2.7260   -6.2570   24.9760 C   0  0  0  0  0  0  0  0  0  0  0  0
    5.8120   -4.8930   22.1250 C   0  0  0  0  0  0  0  0  0  0  0  0
    1.1810   -7.5180   22.0690 C   0  0  0  0  0  0  0  0  0  0  0  0
    3.1320   -7.6720   25.3220 C   0  0  0  0  0  0  0  0  0  0  0  0
    6.5860   -3.6050   22.3800 C   0  0  1  0  0  0  0  0  0  0  0  0
    1.1280   -8.7580   21.2250 C   0  0  0  0  0  0  0  0  0  0  0  0
    0.3220   -6.6450   22.0310 O   0  0  0  0  0  0  0  0  0  0  0  0
    2.5130   -8.2940   26.3610 N   0  0  0  0  0  0  0  0  0  0  0  0
    3.9890   -8.2120   24.6630 O   0  0  0  0  0  0  0  0  0  0  0  0
    7.7910   -3.7730   22.9780 C   0  0  0  0  0  0  0  0  0  0  0  0
    6.7700   -2.8030   21.1640 N   0  0  0  0  0  0  0  0  0  0  0  0
    6.4280   -3.2730   19.8860 C   0  0  0  0  0  0  0  0  0  0  0  0
    8.1870   -2.4670   23.3530 N   0  0  0  0  0  0  0  0  0  0  0  0
    7.6290   -1.5740   21.3010 C   0  0  0  0  0  0  0  0  0  0  0  0
    7.3380   -2.9630   18.7240 C   0  0  0  0  0  0  0  0  0  0  0  0
    5.4330   -3.9750   19.6600 O   0  0  0  0  0  0  0  0  0  0  0  0
    8.9320   -2.3450   24.6230 C   0  0  2  0  0  0  0  0  0  0  0  0
    8.6530   -1.8520   22.2280 C   0  0  0  0  0  0  0  0  0  0  0  0
    8.6130   -1.3830   25.3020 O   0  0  0  0  0  0  0  0  0  0  0  0
   10.2950   -2.5900   24.3260 C   0  0  0  0  0  0  0  0  0  0  0  0
    8.7100   -3.5460   25.6040 C   0  0  0  0  0  0  0  0  0  0  0  0
    9.6290   -4.6010   25.5030 C   0  0  0  0  0  0  0  0  0  0  0  0
    7.5390   -3.8320   26.8340 S   0  0  0  0  0  0  0  0  0  0  0  0
   11.0590   -1.3860   23.8680 C   0  0  0  0  0  0  0  0  0  0  0  0
    9.3660   -5.6060   26.4160 C   0  0  0  0  0  0  0  0  0  0  0  0
    8.2750   -5.3630   27.2250 C   0  0  0  0  0  0  0  0  0  0  0  0
   10.5370   -0.0840   24.1100 C   0  0  0  0  0  0  0  0  0  0  0  0
   12.2780   -1.5560   23.2080 C   0  0  0  0  0  0  0  0  0  0  0  0
   11.2900    0.9800   23.6620 C   0  0  0  0  0  0  0  0  0  0  0  0
   12.9940   -0.4630   22.7860 C   0  0  0  0  0  0  0  0  0  0  0  0
   10.7860    2.3650   23.8710 C   0  0  0  0  0  0  0  0  0  0  0  0
   12.4920    0.7960   23.0200 C   0  0  0  0  0  0  0  0  0  0  0  0
  2  1  1  6
  2  3  1  0
  1  4  2  3
  2  5  1  0
  4  6  1  0
  3  7  1  0
  5  8  1  0
  9  6  1  6
  7 10  1  0
  7 11  2  0
  8 12  1  0
  8 13  2  0
  9 14  1  0
  9 15  1  0
 15 16  1  0
 14 17  1  0
 15 18  1  0
 16 19  1  0
 16 20  2  0
 17 21  1  0
 17 22  1  0
 18 22  1  0
 21 23  1  1
 21 24  1  0
 21 25  1  0
 25 26  2  0
 25 27  1  0
 24 28  1  0
 26 29  1  0
 27 30  1  0
 29 30  2  0
 28 31  2  0
 28 32  1  0
 31 33  1  0
 32 34  2  0
 33 35  1  0
 33 36  2  0
 34 36  1  0
M  END
