x0981_1-x1418_0-x0689_1
     RDKit          3D

 27 28  0  0  0  0  0  0  0  0999 V2000
    3.2500   -6.1010   23.3440 C   0  0  1  0  0  0  0  0  0  0  0  0
    2.8490   -7.1820   22.7390 N   0  0  0  0  0  0  0  0  0  0  0  0
    1.4860   -7.3850   22.1940 C   0  0  0  0  0  0  0  0  0  0  0  0
    2.7240   -6.2820   24.7640 C   0  0  0  0  0  0  0  0  0  0  0  0
    4.8400   -6.0830   23.4100 C   0  0  2  0  0  0  0  0  0  0  0  0
    3.0490   -7.6540   25.2980 C   0  0  0  0  0  0  0  0  0  0  0  0
    5.3150   -4.9670   24.2250 N   0  0  0  0  0  0  0  0  0  0  0  0
    5.6150   -6.1600   22.0640 C   0  0  0  0  0  0  0  0  0  0  0  0
    4.6950   -3.7510   23.7310 O   0  0  0  0  0  0  0  0  0  0  0  0
    1.1970   -8.6890   21.4540 C   0  0  0  0  0  0  0  0  0  0  0  0
    0.4840   -6.3840   22.3110 O   0  0  0  0  0  0  0  0  0  0  0  0
    2.4260   -8.1530   26.4110 N   0  0  0  0  0  0  0  0  0  0  0  0
    3.8840   -8.2960   24.6980 O   0  0  0  0  0  0  0  0  0  0  0  0
    6.4040   -4.9300   21.7580 N   0  0  0  0  0  0  0  0  0  0  0  0
    6.7780   -4.7590   24.1490 C   0  0  0  0  0  0  0  0  0  0  0  0
    6.2480   -4.3590   20.4870 C   0  0  0  0  0  0  0  0  0  0  0  0
    7.3050   -4.4730   22.8450 C   0  0  2  0  0  0  0  0  0  0  0  0
    7.2330   -3.3750   19.8000 C   0  0  0  0  0  0  0  0  0  0  0  0
    5.2240   -4.6670   19.9020 O   0  0  0  0  0  0  0  0  0  0  0  0
    7.7330   -2.9930   22.7770 C   0  0  0  0  0  0  0  0  0  0  0  0
    9.0590   -2.8050   22.3860 C   0  0  0  0  0  0  0  0  0  0  0  0
   10.0160   -2.8030   23.5780 C   0  0  0  0  0  0  0  0  0  0  0  0
   10.9750   -1.6590   23.5170 C   0  0  0  0  0  0  0  0  0  0  0  0
   12.2020   -1.4140   22.6170 C   0  0  0  0  0  0  0  0  0  0  0  0
   10.8380   -0.2940   24.5460 S   0  0  0  0  0  0  0  0  0  0  0  0
   12.8340   -0.2230   22.8550 C   0  0  0  0  0  0  0  0  0  0  0  0
   12.2170    0.5030   23.8660 C   0  0  0  0  0  0  0  0  0  0  0  0
  1  2  1  0
  2  3  1  0
  1  4  1  1
  1  5  1  0
  4  6  1  0
  5  7  1  0
  5  8  1  6
  7  9  1  0
  3 10  1  0
  3 11  2  0
  6 12  1  0
  6 13  2  0
  8 14  1  0
  7 15  1  0
 14 16  1  0
 14 17  1  0
 15 17  1  0
 16 18  1  0
 16 19  2  0
 17 20  1  1
 20 21  1  0
 21 22  1  0
 22 23  1  0
 23 24  2  0
 23 25  1  0
 24 26  1  0
 25 27  1  0
 26 27  2  0
M  END
