x0981_1-x1412_1-x0434_2-x1386_0-x0831_0-x1412_0
     RDKit          3D

 45 48  0  0  0  0  0  0  0  0999 V2000
    4.2760   -5.2930   23.2060 C   0  0  0  0  0  0  0  0  0  0  0  0
    2.9040   -5.9350   23.5280 C   0  0  1  0  0  0  0  0  0  0  0  0
    2.6690   -7.1680   22.7380 N   0  0  0  0  0  0  0  0  0  0  0  0
    4.4470   -4.0510   23.5830 N   0  0  0  0  0  0  0  0  0  0  0  0
    2.7470   -6.2460   25.0180 C   0  0  0  0  0  0  0  0  0  0  0  0
    5.6890   -3.2340   23.3850 C   0  0  0  0  0  0  0  0  0  0  0  0
    1.4190   -7.4000   22.1770 C   0  0  0  0  0  0  0  0  0  0  0  0
    3.1380   -7.6760   25.2600 C   0  0  0  0  0  0  0  0  0  0  0  0
    6.7650   -3.7150   22.3700 C   0  0  1  0  0  0  0  0  0  0  0  0
    1.2510   -8.6940   21.4230 C   0  0  0  0  0  0  0  0  0  0  0  0
    0.5070   -6.5810   22.2730 O   0  0  0  0  0  0  0  0  0  0  0  0
    2.5000   -8.3370   26.2640 N   0  0  0  0  0  0  0  0  0  0  0  0
    3.9960   -8.1770   24.5710 O   0  0  0  0  0  0  0  0  0  0  0  0
    6.7490   -2.8850   21.1250 N   0  0  0  0  0  0  0  0  0  0  0  0
    8.1190   -3.6400   23.0910 C   0  0  0  0  0  0  0  0  0  0  0  0
    6.4020   -3.4210   19.8910 C   0  0  0  0  0  0  0  0  0  0  0  0
    8.7650   -2.2980   23.0310 N   0  0  0  0  0  0  0  0  0  0  0  0
    7.7130   -1.8010   20.9400 C   0  0  1  0  0  0  0  0  0  0  0  0
    7.3330   -3.0820   18.7370 C   0  0  0  0  0  0  0  0  0  0  0  0
    5.4250   -4.1570   19.7180 O   0  0  0  0  0  0  0  0  0  0  0  0
    9.9100   -2.0340   23.9210 C   0  0  1  0  0  0  0  0  0  0  0  0
    7.0420   -0.5220   21.2720 N   0  0  0  0  0  0  0  0  0  0  0  0
    9.0430   -1.9890   21.7340 C   0  0  0  0  0  0  0  0  0  0  0  0
    9.4710   -1.7960   25.3410 C   0  0  0  0  0  0  0  0  0  0  0  0
   10.7210   -3.3250   23.9720 C   0  0  0  0  0  0  0  0  0  0  0  0
   10.8240   -0.8230   23.6370 C   0  0  0  0  0  0  0  0  0  0  0  0
    6.4060    0.1220   20.2140 C   0  0  0  0  0  0  0  0  0  0  0  0
    8.3320   -2.4990   25.6050 C   0  0  0  0  0  0  0  0  0  0  0  0
   10.2590    0.3110   24.1940 C   0  0  0  0  0  0  0  0  0  0  0  0
   12.0470   -0.8270   22.9400 C   0  0  0  0  0  0  0  0  0  0  0  0
    6.9100    0.0570   18.9750 C   0  0  0  0  0  0  0  0  0  0  0  0
    5.1020    0.9530   20.3020 C   0  0  0  0  0  0  0  0  0  0  0  0
   12.7470   -2.0600   22.2700 C   0  0  0  0  0  0  0  0  0  0  0  0
    7.2180   -2.0160   25.4100 O   0  0  0  0  0  0  0  0  0  0  0  0
   10.9880    1.5090   24.0310 C   0  0  0  0  0  0  0  0  0  0  0  0
   12.7760    0.3420   22.7830 C   0  0  0  0  0  0  0  0  0  0  0  0
    8.5860   -3.8290   26.1460 C   0  0  0  0  0  0  0  0  0  0  0  0
    6.3590    0.6880   17.7650 N   0  0  0  0  0  0  0  0  0  0  0  0
    4.5480    1.5860   19.0660 C   0  0  0  0  0  0  0  0  0  0  0  0
   12.1780    1.6250   23.3870 C   0  0  0  0  0  0  0  0  0  0  0  0
    9.4450   -4.8350   25.7330 C   0  0  0  0  0  0  0  0  0  0  0  0
    7.7130   -4.3390   27.5680 S   0  0  0  0  0  0  0  0  0  0  0  0
    5.2230    1.4080   17.8800 C   0  0  0  0  0  0  0  0  0  0  0  0
    9.3560   -5.9220   26.5650 C   0  0  0  0  0  0  0  0  0  0  0  0
    8.4780   -5.8450   27.6150 C   0  0  0  0  0  0  0  0  0  0  0  0
  2  1  1  1
  2  3  1  0
  1  4  2  3
  2  5  1  0
  4  6  1  0
  3  7  1  0
  5  8  1  0
  9  6  1  1
  7 10  1  0
  7 11  2  0
  8 12  1  0
  8 13  2  0
  9 14  1  0
  9 15  1  0
 14 16  1  0
 15 17  1  0
 14 18  1  0
 16 19  1  0
 16 20  2  0
 17 21  1  0
 18 22  1  1
 17 23  1  0
 18 23  1  0
 21 24  1  0
 21 25  1  1
 21 26  1  0
 22 27  1  0
 24 28  1  0
 26 29  2  0
 26 30  1  0
 27 31  2  0
 27 32  1  0
 30 33  1  0
 28 34  2  0
 29 35  1  0
 30 36  2  0
 28 37  1  0
 31 38  1  0
 32 39  2  0
 35 40  2  0
 36 40  1  0
 37 41  2  0
 37 42  1  0
 38 43  2  0
 39 43  1  0
 41 44  1  0
 42 45  1  0
 44 45  2  0
M  END
