x0981_1-x0434_2-x1412_1-x0395_1-x1412_0
     RDKit          3D

 43 46  0  0  0  0  0  0  0  0999 V2000
    4.0170   -5.2600   23.1700 C   0  0  0  0  0  0  0  0  0  0  0  0
    2.7360   -5.9990   23.5840 C   0  0  1  0  0  0  0  0  0  0  0  0
    2.5580   -7.2280   22.7850 N   0  0  0  0  0  0  0  0  0  0  0  0
    4.1410   -4.0230   23.5580 N   0  0  0  0  0  0  0  0  0  0  0  0
    2.6810   -6.3150   25.0720 C   0  0  0  0  0  0  0  0  0  0  0  0
    5.3220   -3.1990   23.1960 C   0  0  0  0  0  0  0  0  0  0  0  0
    1.3560   -7.4450   22.1400 C   0  0  0  0  0  0  0  0  0  0  0  0
    3.1020   -7.7290   25.2890 C   0  0  0  0  0  0  0  0  0  0  0  0
    6.2840   -3.9140   22.2240 C   0  0  1  0  0  0  0  0  0  0  0  0
    1.2320   -8.7350   21.3650 C   0  0  0  0  0  0  0  0  0  0  0  0
    0.4420   -6.6280   22.1750 O   0  0  0  0  0  0  0  0  0  0  0  0
    2.4570   -8.4260   26.2670 N   0  0  0  0  0  0  0  0  0  0  0  0
    3.9860   -8.2010   24.6100 O   0  0  0  0  0  0  0  0  0  0  0  0
    6.6070   -2.9710   21.1060 N   0  0  0  0  0  0  0  0  0  0  0  0
    7.5570   -4.3040   23.0250 C   0  0  0  0  0  0  0  0  0  0  0  0
    6.3280   -3.4440   19.8460 C   0  0  0  0  0  0  0  0  0  0  0  0
    8.1650   -3.0020   23.3460 N   0  0  0  0  0  0  0  0  0  0  0  0
    7.6710   -1.9380   21.2060 C   0  0  1  0  0  0  0  0  0  0  0  0
    7.3210   -3.0610   18.7430 C   0  0  0  0  0  0  0  0  0  0  0  0
    5.3440   -4.1500   19.6780 O   0  0  0  0  0  0  0  0  0  0  0  0
    8.6150   -2.7180   24.5990 C   0  0  0  0  0  0  0  0  0  0  0  0
    7.0010   -0.6360   21.3650 N   0  0  0  0  0  0  0  0  0  0  0  0
    8.6170   -2.2300   22.2000 C   0  0  0  0  0  0  0  0  0  0  0  0
    9.0590   -1.5000   24.9820 N   0  0  0  0  0  0  0  0  0  0  0  0
    8.6420   -3.8280   25.6330 C   0  0  0  0  0  0  0  0  0  0  0  0
    6.4090    0.0300   20.1760 C   0  0  0  0  0  0  0  0  0  0  0  0
    9.0320   -0.4340   23.9570 C   0  0  0  0  0  0  0  0  0  0  0  0
    9.4160   -4.9720   25.4070 C   0  0  0  0  0  0  0  0  0  0  0  0
    7.7820   -3.8620   27.1650 S   0  0  0  0  0  0  0  0  0  0  0  0
    6.9290   -0.0060   18.8980 C   0  0  0  0  0  0  0  0  0  0  0  0
    5.1250    0.8250   20.3350 C   0  0  0  0  0  0  0  0  0  0  0  0
    9.3490   -5.9220   26.4620 C   0  0  0  0  0  0  0  0  0  0  0  0
    8.5290   -5.4510   27.4300 C   0  0  0  0  0  0  0  0  0  0  0  0
    6.4120    0.5990   17.8040 N   0  0  0  0  0  0  0  0  0  0  0  0
    4.6170    1.4320   19.1860 C   0  0  0  0  0  0  0  0  0  0  0  0
   10.2890   -0.1960   23.1990 N   0  0  0  0  0  0  0  0  0  0  0  0
    5.2800    1.3010   17.9590 C   0  0  0  0  0  0  0  0  0  0  0  0
   10.9700   -1.2960   22.4750 C   0  0  0  0  0  0  0  0  0  0  0  0
   11.2370    0.4930   24.0350 C   0  0  0  0  0  0  0  0  0  0  0  0
   12.3750   -0.9640   22.3560 C   0  0  0  0  0  0  0  0  0  0  0  0
   11.9330    1.3560   23.2180 C   0  0  0  0  0  0  0  0  0  0  0  0
   13.2420   -1.8850   21.8870 F   0  0  0  0  0  0  0  0  0  0  0  0
   12.8820    0.2950   22.7070 C   0  0  0  0  0  0  0  0  0  0  0  0
  2  1  1  1
  2  3  1  0
  1  4  2  3
  2  5  1  0
  4  6  1  0
  3  7  1  0
  5  8  1  0
  9  6  1  1
  7 10  1  0
  7 11  2  0
  8 12  1  0
  8 13  2  0
  9 14  1  0
  9 15  1  0
 14 16  1  0
 15 17  1  0
 14 18  1  0
 16 19  1  0
 16 20  2  0
 17 21  1  0
 18 22  1  1
 17 23  1  0
 18 23  1  0
 21 24  2  3
 21 25  1  0
 22 26  1  0
 24 27  1  0
 25 28  2  0
 25 29  1  0
 26 30  2  0
 26 31  1  0
 28 32  1  0
 29 33  1  0
 32 33  2  0
 30 34  1  0
 31 35  2  0
 27 36  1  0
 34 37  2  0
 35 37  1  0
 36 38  1  0
 36 39  1  0
 38 40  1  0
 39 41  1  0
 40 42  1  0
 40 43  2  0
 41 43  1  0
M  END
