x0981_1-x1418_1-x1418_0
     RDKit          3D

 27 28  0  0  0  0  0  0  0  0999 V2000
    4.1880   -5.7900   22.9490 C   0  0  0  0  0  0  0  0  0  0  0  0
    2.8120   -6.1630   23.4840 C   0  0  1  0  0  0  0  0  0  0  0  0
    2.3890   -7.4100   22.8590 N   0  0  0  0  0  0  0  0  0  0  0  0
    4.7780   -4.6470   22.9360 N   0  0  0  0  0  0  0  0  0  0  0  0
    2.7840   -6.2300   25.0100 C   0  0  0  0  0  0  0  0  0  0  0  0
    6.0960   -4.6330   22.3050 C   0  0  0  0  0  0  0  0  0  0  0  0
    1.2520   -7.4830   22.0970 C   0  0  0  0  0  0  0  0  0  0  0  0
    3.1480   -7.6470   25.3240 C   0  0  0  0  0  0  0  0  0  0  0  0
    6.6620   -3.3780   22.3850 C   0  0  1  0  0  0  0  0  0  0  0  0
    1.1440   -8.7450   21.2750 C   0  0  0  0  0  0  0  0  0  0  0  0
    0.4000   -6.6000   22.0670 O   0  0  0  0  0  0  0  0  0  0  0  0
    2.4950   -8.2690   26.3510 N   0  0  0  0  0  0  0  0  0  0  0  0
    4.0050   -8.1920   24.6610 O   0  0  0  0  0  0  0  0  0  0  0  0
    7.9400   -3.5880   22.8930 C   0  0  0  0  0  0  0  0  0  0  0  0
    6.6380   -2.5840   21.1170 N   0  0  0  0  0  0  0  0  0  0  0  0
    6.4140   -3.2440   19.8970 C   0  0  0  0  0  0  0  0  0  0  0  0
    8.7400   -2.3540   22.9800 N   0  0  0  0  0  0  0  0  0  0  0  0
    7.5650   -1.4480   21.1490 C   0  0  0  0  0  0  0  0  0  0  0  0
    7.3560   -2.9710   18.7280 C   0  0  0  0  0  0  0  0  0  0  0  0
    5.4850   -4.0620   19.7310 O   0  0  0  0  0  0  0  0  0  0  0  0
   10.0850   -2.7200   23.4260 C   0  0  0  0  0  0  0  0  0  0  0  0
    8.8430   -1.7700   21.6190 C   0  0  0  0  0  0  0  0  0  0  0  0
   11.0420   -1.5220   23.4430 C   0  0  0  0  0  0  0  0  0  0  0  0
   12.1750   -1.3600   22.6450 C   0  0  0  0  0  0  0  0  0  0  0  0
   10.8370   -0.1700   24.4820 S   0  0  0  0  0  0  0  0  0  0  0  0
   12.8490   -0.1670   22.8650 C   0  0  0  0  0  0  0  0  0  0  0  0
   12.2340    0.5960   23.8380 C   0  0  0  0  0  0  0  0  0  0  0  0
  2  1  1  1
  2  3  1  0
  1  4  2  3
  2  5  1  0
  4  6  1  0
  3  7  1  0
  5  8  1  0
  9  6  1  6
  7 10  1  0
  7 11  2  0
  8 12  1  0
  8 13  2  0
  9 14  1  0
  9 15  1  0
 15 16  1  0
 14 17  1  0
 15 18  1  0
 16 19  1  0
 16 20  2  0
 17 21  1  0
 17 22  1  0
 18 22  1  0
 21 23  1  0
 23 24  2  0
 23 25  1  0
 24 26  1  0
 25 27  1  0
 26 27  2  0
M  END
