x0981_1-x0874_0-x1386_1-x0820_1
     RDKit          3D

 36 39  0  0  0  0  0  0  0  0999 V2000
    3.7530   -4.9890   23.2860 C   0  0  0  0  0  0  0  0  0  0  0  0
    2.5630   -5.9140   23.4350 C   0  0  1  0  0  0  0  0  0  0  0  0
    2.5280   -7.1610   22.7030 N   0  0  0  0  0  0  0  0  0  0  0  0
    4.3110   -4.8190   24.7220 C   0  0  0  0  0  0  0  0  0  0  0  0
    2.4240   -6.2920   24.9140 C   0  0  0  0  0  0  0  0  0  0  0  0
    4.9490   -4.6580   26.0050 C   0  0  0  0  0  0  0  0  0  0  0  0
    5.3280   -4.8260   23.4720 C   0  0  0  0  0  0  0  0  0  0  0  0
    1.2940   -7.5230   22.0240 C   0  0  0  0  0  0  0  0  0  0  0  0
    2.9950   -7.6610   25.1820 C   0  0  0  0  0  0  0  0  0  0  0  0
    6.6180   -4.6880   24.0140 C   0  0  0  0  0  0  0  0  0  0  0  0
    6.3460   -4.5220   26.4890 C   0  0  0  0  0  0  0  0  0  0  0  0
    6.5110   -4.7950   22.5220 C   0  0  0  0  0  0  0  0  0  0  0  0
    1.2250   -8.8250   21.2200 C   0  0  0  0  0  0  0  0  0  0  0  0
    0.0830   -6.7810   21.9660 O   0  0  0  0  0  0  0  0  0  0  0  0
    2.3940   -8.3990   26.3010 N   0  0  0  0  0  0  0  0  0  0  0  0
    3.9040   -8.1310   24.5220 O   0  0  0  0  0  0  0  0  0  0  0  0
    7.2360   -4.5470   25.3460 C   0  0  0  0  0  0  0  0  0  0  0  0
    6.7990   -4.3860   27.9560 C   0  0  0  0  0  0  0  0  0  0  0  0
    7.3450   -3.4930   22.1620 C   0  0  1  0  0  0  0  0  0  0  0  0
    8.6100   -4.4430   25.5180 C   0  0  0  0  0  0  0  0  0  0  0  0
    8.1910   -4.2940   28.1090 C   0  0  0  0  0  0  0  0  0  0  0  0
    6.7150   -2.6710   21.0940 N   0  0  0  0  0  0  0  0  0  0  0  0
    7.6800   -2.6710   23.2450 C   0  0  0  0  0  0  0  0  0  0  0  0
    9.1980   -4.3130   26.9280 C   0  0  0  0  0  0  0  0  0  0  0  0
    6.4070   -3.2340   19.8490 C   0  0  0  0  0  0  0  0  0  0  0  0
    8.6330   -1.7260   22.9830 N   0  0  0  0  0  0  0  0  0  0  0  0
    7.3800   -1.3550   21.0240 C   0  0  0  0  0  0  0  0  0  0  0  0
    7.3810   -2.9660   18.7160 C   0  0  0  0  0  0  0  0  0  0  0  0
    5.4190   -3.9630   19.6750 O   0  0  0  0  0  0  0  0  0  0  0  0
    9.9510   -2.0450   23.5670 C   0  0  0  0  0  0  0  0  0  0  0  0
    8.6840   -1.5260   21.5110 C   0  0  0  0  0  0  0  0  0  0  0  0
   10.8030   -0.8940   23.5980 C   0  0  0  0  0  0  0  0  0  0  0  0
   11.8070    0.1500   23.4880 C   0  0  0  0  0  0  0  0  0  0  0  0
   11.5750   -1.8940   22.6530 C   0  0  0  0  0  0  0  0  0  0  0  0
   13.0060    0.2060   22.8000 C   0  0  0  0  0  0  0  0  0  0  0  0
   13.1270   -1.3730   21.9740 S   0  0  0  0  0  0  0  0  0  0  0  0
  2  1  1  1
  2  3  1  0
  1  4  1  0
  2  5  1  0
  4  6  2  0
  4  7  1  0
  3  8  1  0
  5  9  1  0
  7 10  2  0
  6 11  1  0
  7 12  1  0
  8 13  1  0
  8 14  2  0
  9 15  1  0
  9 16  2  0
 10 17  1  0
 11 17  2  0
 11 18  1  0
 19 12  1  1
 17 20  1  0
 18 21  2  0
 19 22  1  0
 19 23  1  0
 20 24  2  0
 21 24  1  0
 22 25  1  0
 23 26  1  0
 22 27  1  0
 25 28  1  0
 25 29  2  0
 26 30  1  0
 26 31  1  0
 27 31  1  0
 30 32  1  0
 32 33  1  0
 32 34  2  0
 33 35  2  0
 34 36  1  0
 35 36  1  0
M  END
