x0981_1-x0831_0
     RDKit          3D

 23 23  0  0  0  0  0  0  0  0999 V2000
    4.4120   -5.9260   23.0610 C   0  0  0  0  0  0  0  0  0  0  0  0
    2.9270   -6.0780   23.4080 C   0  0  1  0  0  0  0  0  0  0  0  0
    2.5240   -7.3210   22.7450 N   0  0  0  0  0  0  0  0  0  0  0  0
    5.2840   -4.8490   23.5100 N   0  0  0  0  0  0  0  0  0  0  0  0
    2.6530   -6.2720   24.9100 C   0  0  0  0  0  0  0  0  0  0  0  0
    6.6600   -4.9800   23.0250 C   0  0  0  0  0  0  0  0  0  0  0  0
    1.3100   -7.4560   22.1270 C   0  0  0  0  0  0  0  0  0  0  0  0
    3.0730   -7.6600   25.2940 C   0  0  0  0  0  0  0  0  0  0  0  0
    7.5660   -4.0340   23.6150 C   0  0  0  0  0  0  0  0  0  0  0  0
    1.1600   -8.7210   21.3140 C   0  0  0  0  0  0  0  0  0  0  0  0
    0.4150   -6.6120   22.2050 O   0  0  0  0  0  0  0  0  0  0  0  0
    2.4310   -8.3240   26.4240 N   0  0  0  0  0  0  0  0  0  0  0  0
    3.9430   -8.2060   24.6510 O   0  0  0  0  0  0  0  0  0  0  0  0
    8.0620   -2.9590   22.8500 C   0  0  0  0  0  0  0  0  0  0  0  0
    8.8460   -2.2310   23.6910 C   0  0  0  0  0  0  0  0  0  0  0  0
   10.2250   -2.3980   23.6190 C   0  0  0  0  0  0  0  0  0  0  0  0
   10.9710   -1.1100   23.5410 C   0  0  0  0  0  0  0  0  0  0  0  0
   10.3620   -0.0300   24.1880 C   0  0  0  0  0  0  0  0  0  0  0  0
   12.1790   -0.9430   22.8770 C   0  0  0  0  0  0  0  0  0  0  0  0
   12.8860   -2.0470   22.1530 C   0  0  0  0  0  0  0  0  0  0  0  0
   10.9390    1.2380   24.1790 C   0  0  0  0  0  0  0  0  0  0  0  0
   12.7320    0.3200   22.8940 C   0  0  0  0  0  0  0  0  0  0  0  0
   12.1620    1.4290   23.5170 C   0  0  0  0  0  0  0  0  0  0  0  0
  2  1  1  1
  2  3  1  0
  1  4  2  3
  2  5  1  0
  4  6  1  0
  3  7  1  0
  5  8  1  0
  6  9  1  0
  7 10  1  0
  7 11  2  0
  8 12  1  0
  8 13  2  0
  9 14  1  0
 14 15  1  0
 15 16  1  0
 16 17  1  0
 17 18  2  0
 17 19  1  0
 19 20  1  0
 18 21  1  0
 19 22  2  0
 21 23  2  0
 22 23  1  0
M  END
