x0981_1-x1385_1-x0692_0
     RDKit          3D

 29 30  0  0  0  0  0  0  0  0999 V2000
    4.6900   -5.6390   23.5360 C   0  0  0  0  0  0  0  0  0  0  0  0
    3.1650   -5.9090   23.5600 C   0  0  1  0  0  0  0  0  0  0  0  0
    2.8220   -7.0760   22.7200 N   0  0  0  0  0  0  0  0  0  0  0  0
    5.3230   -4.6420   24.1300 N   0  0  0  0  0  0  0  0  0  0  0  0
    2.7710   -6.2300   24.9920 C   0  0  0  0  0  0  0  0  0  0  0  0
    6.8160   -4.4480   24.1010 C   0  0  0  0  0  0  0  0  0  0  0  0
    1.5310   -7.2880   22.2590 C   0  0  0  0  0  0  0  0  0  0  0  0
    3.0820   -7.6560   25.3520 C   0  0  0  0  0  0  0  0  0  0  0  0
    7.3050   -3.6320   22.8660 C   0  0  2  0  0  0  0  0  0  0  0  0
    1.2690   -8.6040   21.5600 C   0  0  0  0  0  0  0  0  0  0  0  0
    0.6450   -6.4470   22.3830 O   0  0  0  0  0  0  0  0  0  0  0  0
    2.4380   -8.2770   26.3820 N   0  0  0  0  0  0  0  0  0  0  0  0
    3.9240   -8.2270   24.6850 O   0  0  0  0  0  0  0  0  0  0  0  0
    8.2340   -2.4650   23.1180 N   0  0  0  0  0  0  0  0  0  0  0  0
    6.0470   -3.1480   22.1220 C   0  0  0  0  0  0  0  0  0  0  0  0
    9.3650   -2.6180   24.0290 C   0  0  0  0  0  0  0  0  0  0  0  0
    6.3960   -2.4460   20.9080 N   0  0  0  0  0  0  0  0  0  0  0  0
    8.6550   -1.8430   21.8610 C   0  0  0  0  0  0  0  0  0  0  0  0
    6.2480   -3.1890   19.7570 C   0  0  0  0  0  0  0  0  0  0  0  0
    7.4220   -1.3960   21.0600 C   0  0  0  0  0  0  0  0  0  0  0  0
   10.4810   -1.6130   23.7550 C   0  0  0  0  0  0  0  0  0  0  0  0
    7.2860   -2.9500   18.6780 C   0  0  0  0  0  0  0  0  0  0  0  0
    5.3400   -4.0120   19.6400 O   0  0  0  0  0  0  0  0  0  0  0  0
   10.2340   -0.2420   23.9040 C   0  0  0  0  0  0  0  0  0  0  0  0
   11.7670   -2.0140   23.3480 C   0  0  0  0  0  0  0  0  0  0  0  0
   11.2250    0.7130   23.6510 C   0  0  0  0  0  0  0  0  0  0  0  0
   12.7650   -1.0650   23.0990 C   0  0  0  0  0  0  0  0  0  0  0  0
   10.9040    2.1620   23.8070 C   0  0  0  0  0  0  0  0  0  0  0  0
   12.4980    0.2950   23.2490 C   0  0  0  0  0  0  0  0  0  0  0  0
  2  1  1  1
  2  3  1  0
  1  4  2  3
  2  5  1  0
  4  6  1  0
  3  7  1  0
  5  8  1  0
  9  6  1  1
  7 10  1  0
  7 11  2  0
  8 12  1  0
  8 13  2  0
  9 14  1  0
  9 15  1  0
 14 16  1  0
 15 17  1  0
 14 18  1  0
 17 19  1  0
 17 20  1  0
 18 20  1  0
 16 21  1  0
 19 22  1  0
 19 23  2  0
 21 24  2  0
 21 25  1  0
 24 26  1  0
 25 27  2  0
 26 28  1  0
 26 29  2  0
 27 29  1  0
M  END
