x0981_1-x1412_0-x1375_2
     RDKit          3D

 25 25  0  0  0  0  0  0  0  0999 V2000
    4.3500   -5.9640   23.1230 C   0  0  0  0  0  0  0  0  0  0  0  0
    2.8850   -6.1840   23.4740 C   0  0  1  0  0  0  0  0  0  0  0  0
    2.4300   -7.4010   22.8160 N   0  0  0  0  0  0  0  0  0  0  0  0
    5.1190   -4.9650   23.3640 N   0  0  0  0  0  0  0  0  0  0  0  0
    2.6980   -6.2500   24.9880 C   0  0  0  0  0  0  0  0  0  0  0  0
    6.4900   -5.1190   22.8710 C   0  0  0  0  0  0  0  0  0  0  0  0
    1.2580   -7.4740   22.1040 C   0  0  0  0  0  0  0  0  0  0  0  0
    3.0960   -7.6530   25.3330 C   0  0  0  0  0  0  0  0  0  0  0  0
    6.7360   -4.0390   21.9110 N   0  0  0  0  0  0  0  0  0  0  0  0
    1.1210   -8.7370   21.2900 C   0  0  0  0  0  0  0  0  0  0  0  0
    0.4040   -6.5940   22.1120 O   0  0  0  0  0  0  0  0  0  0  0  0
    2.4680   -8.2640   26.3800 N   0  0  0  0  0  0  0  0  0  0  0  0
    3.9590   -8.1970   24.6740 O   0  0  0  0  0  0  0  0  0  0  0  0
    6.4670   -4.1250   20.5330 C   0  0  0  0  0  0  0  0  0  0  0  0
    7.3860   -2.8110   22.4280 C   0  0  0  0  0  0  0  0  0  0  0  0
    5.5670   -4.8440   20.0480 O   0  0  0  0  0  0  0  0  0  0  0  0
    7.3150   -3.3120   19.5420 C   0  0  0  0  0  0  0  0  0  0  0  0
    8.5400   -3.0350   23.1080 C   0  0  0  0  0  0  0  0  0  0  0  0
    8.3270   -2.7940   24.5950 C   0  0  0  0  0  0  0  0  0  0  0  0
    7.9500   -1.6950   24.9910 O   0  0  0  0  0  0  0  0  0  0  0  0
    8.5820   -3.8580   25.4350 C   0  0  0  0  0  0  0  0  0  0  0  0
    9.4400   -5.0960   25.3210 C   0  0  0  0  0  0  0  0  0  0  0  0
    7.8100   -3.9000   26.9900 S   0  0  0  0  0  0  0  0  0  0  0  0
    9.3610   -5.9660   26.5660 C   0  0  0  0  0  0  0  0  0  0  0  0
    8.5220   -5.4080   27.5000 C   0  0  0  0  0  0  0  0  0  0  0  0
  2  1  1  1
  2  3  1  0
  1  4  2  3
  2  5  1  0
  4  6  1  0
  3  7  1  0
  5  8  1  0
  6  9  1  0
  7 10  1  0
  7 11  2  0
  8 12  1  0
  8 13  2  0
  9 14  1  0
  9 15  1  0
 14 16  2  0
 14 17  1  0
 15 18  1  0
 18 19  1  0
 19 20  2  0
 19 21  1  0
 21 22  2  0
 21 23  1  0
 22 24  1  0
 23 25  1  0
 24 25  2  0
M  END
