x0981_1-x1348_0-x0434_2
     RDKit          3D

 26 26  0  0  0  0  0  0  0  0999 V2000
    4.1330   -5.4520   23.2450 C   0  0  0  0  0  0  0  0  0  0  0  0
    2.7840   -6.0890   23.5350 C   0  0  1  0  0  0  0  0  0  0  0  0
    2.5600   -7.2750   22.7260 N   0  0  0  0  0  0  0  0  0  0  0  0
    4.8890   -4.5760   24.0030 N   0  0  0  0  0  0  0  0  0  0  0  0
    2.5560   -6.3470   25.0000 C   0  0  0  0  0  0  0  0  0  0  0  0
    6.1600   -4.0200   23.6160 C   0  0  0  0  0  0  0  0  0  0  0  0
    1.2690   -7.4790   22.0820 C   0  0  0  0  0  0  0  0  0  0  0  0
    2.9810   -7.7390   25.3700 C   0  0  0  0  0  0  0  0  0  0  0  0
    5.9040   -3.1060   22.5510 C   0  0  0  0  0  0  0  0  0  0  0  0
    1.1460   -8.7560   21.3010 C   0  0  0  0  0  0  0  0  0  0  0  0
    0.3670   -6.6520   22.1610 O   0  0  0  0  0  0  0  0  0  0  0  0
    2.3560   -8.4190   26.3600 N   0  0  0  0  0  0  0  0  0  0  0  0
    3.8980   -8.2260   24.7420 O   0  0  0  0  0  0  0  0  0  0  0  0
    6.8610   -3.3250   21.4690 N   0  0  0  0  0  0  0  0  0  0  0  0
    6.5120   -3.6000   20.1370 C   0  0  0  0  0  0  0  0  0  0  0  0
    8.1130   -2.5750   21.7490 C   0  0  0  0  0  0  0  0  0  0  0  0
    5.5040   -4.2630   19.8360 O   0  0  0  0  0  0  0  0  0  0  0  0
    7.3990   -3.1100   19.0100 C   0  0  0  0  0  0  0  0  0  0  0  0
    8.1520   -1.1590   21.1330 C   0  0  0  0  0  0  0  0  0  0  0  0
    6.8240   -0.5770   21.2040 N   0  0  0  0  0  0  0  0  0  0  0  0
    6.2550    0.1000   20.1290 C   0  0  0  0  0  0  0  0  0  0  0  0
    6.8800    0.0130   18.8930 C   0  0  0  0  0  0  0  0  0  0  0  0
    5.0930    0.8540   20.2410 C   0  0  0  0  0  0  0  0  0  0  0  0
    6.4450    0.6230   17.7660 N   0  0  0  0  0  0  0  0  0  0  0  0
    4.5980    1.5000   19.1220 C   0  0  0  0  0  0  0  0  0  0  0  0
    5.2140    1.4290   17.8820 C   0  0  0  0  0  0  0  0  0  0  0  0
  2  1  1  1
  2  3  1  0
  1  4  2  3
  2  5  1  0
  4  6  1  0
  3  7  1  0
  5  8  1  0
  6  9  1  0
  7 10  1  0
  7 11  2  0
  8 12  1  0
  8 13  2  0
  9 14  1  0
 14 15  1  0
 14 16  1  0
 15 17  2  0
 15 18  1  0
 16 19  1  0
 19 20  1  0
 20 21  1  0
 21 22  2  0
 21 23  1  0
 22 24  1  0
 23 25  2  0
 24 26  2  0
 25 26  1  0
M  END
