x0981_1-x1412_0-x0771_0
     RDKit          3D

 27 28  0  0  0  0  0  0  0  0999 V2000
    3.2580   -6.1390   23.2640 C   0  0  1  0  0  0  0  0  0  0  0  0
    2.8540   -7.2320   22.6980 N   0  0  0  0  0  0  0  0  0  0  0  0
    1.4880   -7.4260   22.1770 C   0  0  0  0  0  0  0  0  0  0  0  0
    2.7450   -6.2820   24.6940 C   0  0  0  0  0  0  0  0  0  0  0  0
    4.8500   -6.1250   23.3120 C   0  0  2  0  0  0  0  0  0  0  0  0
    3.0750   -7.6360   25.2670 C   0  0  0  0  0  0  0  0  0  0  0  0
    5.2670   -5.0790   24.2740 N   0  0  0  0  0  0  0  0  0  0  0  0
    5.5360   -5.9980   22.0950 C   0  0  0  0  0  0  0  0  0  0  0  0
    4.6750   -3.8270   23.8360 O   0  0  0  0  0  0  0  0  0  0  0  0
    1.1930   -8.7210   21.4260 C   0  0  0  0  0  0  0  0  0  0  0  0
    0.4840   -6.4300   22.3230 O   0  0  0  0  0  0  0  0  0  0  0  0
    2.4420   -8.1220   26.3820 N   0  0  0  0  0  0  0  0  0  0  0  0
    3.9250   -8.2820   24.6950 O   0  0  0  0  0  0  0  0  0  0  0  0
    6.3340   -4.7380   21.9990 N   0  0  0  0  0  0  0  0  0  0  0  0
    6.7120   -4.8640   24.3440 C   0  0  0  0  0  0  0  0  0  0  0  0
    6.5790   -4.2440   20.7100 C   0  0  0  0  0  0  0  0  0  0  0  0
    7.3150   -4.6060   22.9650 C   0  0  2  0  0  0  0  0  0  0  0  0
    5.6670   -4.2800   19.8530 O   0  0  0  0  0  0  0  0  0  0  0  0
    7.9670   -3.6380   20.4000 C   0  0  0  0  0  0  0  0  0  0  0  0
    8.1360   -3.2790   23.0410 C   0  0  0  0  0  0  0  0  0  0  0  0
    8.3350   -2.8470   24.5070 C   0  0  0  0  0  0  0  0  0  0  0  0
    8.2690   -1.6580   24.8410 O   0  0  0  0  0  0  0  0  0  0  0  0
    8.5960   -3.9260   25.4570 C   0  0  0  0  0  0  0  0  0  0  0  0
    9.4070   -5.0190   25.3010 C   0  0  0  0  0  0  0  0  0  0  0  0
    7.8230   -3.9220   27.0090 S   0  0  0  0  0  0  0  0  0  0  0  0
    9.3820   -5.9230   26.5570 C   0  0  0  0  0  0  0  0  0  0  0  0
    8.5470   -5.3890   27.5210 C   0  0  0  0  0  0  0  0  0  0  0  0
  1  2  1  0
  2  3  1  0
  1  4  1  1
  1  5  1  0
  4  6  1  0
  5  7  1  0
  5  8  1  6
  7  9  1  0
  3 10  1  0
  3 11  2  0
  6 12  1  0
  6 13  2  0
  8 14  1  0
  7 15  1  0
 14 16  1  0
 14 17  1  0
 15 17  1  0
 16 18  2  0
 16 19  1  0
 17 20  1  1
 20 21  1  0
 21 22  2  0
 21 23  1  0
 23 24  2  0
 23 25  1  0
 24 26  1  0
 25 27  1  0
 26 27  2  0
M  END
