x0981_1-x0434_1-x0831_0-x1412_1-x1385_0
     RDKit          3D

 45 48  0  0  0  0  0  0  0  0999 V2000
    4.0480   -5.4090   23.3650 C   0  0  0  0  0  0  0  0  0  0  0  0
    2.6520   -6.0810   23.5420 C   0  0  1  0  0  0  0  0  0  0  0  0
    2.5140   -7.2630   22.6970 N   0  0  0  0  0  0  0  0  0  0  0  0
    4.3890   -4.0700   23.8820 N   0  0  0  0  0  0  0  0  0  0  0  0
    2.4060   -6.3920   25.0340 C   0  0  0  0  0  0  0  0  0  0  0  0
    5.6950   -3.4420   23.7520 C   0  0  0  0  0  0  0  0  0  0  0  0
    1.3110   -7.4900   22.0690 C   0  0  0  0  0  0  0  0  0  0  0  0
    2.9790   -7.7800   25.2970 C   0  0  0  0  0  0  0  0  0  0  0  0
    6.5220   -3.8320   22.5170 C   0  0  1  0  0  0  0  0  0  0  0  0
    1.2230   -8.7620   21.2680 C   0  0  0  0  0  0  0  0  0  0  0  0
    0.3800   -6.6950   22.1370 O   0  0  0  0  0  0  0  0  0  0  0  0
    2.4010   -8.4870   26.3070 N   0  0  0  0  0  0  0  0  0  0  0  0
    3.8990   -8.2170   24.6440 O   0  0  0  0  0  0  0  0  0  0  0  0
    6.2860   -3.0120   21.3080 N   0  0  0  0  0  0  0  0  0  0  0  0
    7.8720   -3.7420   22.8710 C   0  0  0  0  0  0  0  0  0  0  0  0
    6.1960   -3.5560   20.0510 C   0  0  0  0  0  0  0  0  0  0  0  0
    8.3920   -2.3580   22.9840 N   0  0  0  0  0  0  0  0  0  0  0  0
    6.8500   -1.7040   21.3880 C   0  0  0  0  0  0  0  0  0  0  0  0
    7.2400   -3.1320   18.9990 C   0  0  0  0  0  0  0  0  0  0  0  0
    5.3150   -4.3600   19.7880 O   0  0  0  0  0  0  0  0  0  0  0  0
    9.8230   -2.3760   23.2510 C   0  0  2  0  0  0  0  0  0  0  0  0
    8.1330   -1.7430   21.6940 C   0  0  1  0  0  0  0  0  0  0  0  0
    8.4850   -0.1870   21.6340 C   0  0  0  0  0  0  0  0  0  0  0  0
   10.1390   -3.6770   23.9030 C   0  0  0  0  0  0  0  0  0  0  0  0
   10.5840   -1.0530   23.4180 C   0  0  0  0  0  0  0  0  0  0  0  0
    9.6130    0.3000   21.6840 O   0  0  0  0  0  0  0  0  0  0  0  0
    7.3120    0.4990   21.4990 N   0  0  0  0  0  0  0  0  0  0  0  0
   10.0990    0.1080   24.1320 C   0  0  0  0  0  0  0  0  0  0  0  0
   12.0070   -0.8340   22.7820 C   0  0  0  0  0  0  0  0  0  0  0  0
    9.4200   -4.2580   25.0500 C   0  0  0  0  0  0  0  0  0  0  0  0
   12.7070   -1.9000   21.9930 C   0  0  0  0  0  0  0  0  0  0  0  0
    6.5460    0.7430   20.2970 C   0  0  0  0  0  0  0  0  0  0  0  0
   10.8800    1.2420   24.1730 C   0  0  0  0  0  0  0  0  0  0  0  0
   12.6930    0.3530   22.9030 C   0  0  0  0  0  0  0  0  0  0  0  0
    9.7470   -5.5380   25.4490 C   0  0  0  0  0  0  0  0  0  0  0  0
    8.1560   -3.6360   26.0790 S   0  0  0  0  0  0  0  0  0  0  0  0
    6.9460    0.2160   19.1090 C   0  0  0  0  0  0  0  0  0  0  0  0
    5.2410    1.6100   20.2810 C   0  0  0  0  0  0  0  0  0  0  0  0
   12.1220    1.3790   23.5870 C   0  0  0  0  0  0  0  0  0  0  0  0
    9.0060   -5.9360   26.5170 C   0  0  0  0  0  0  0  0  0  0  0  0
    8.0930   -5.0680   27.0130 C   0  0  0  0  0  0  0  0  0  0  0  0
    6.9560   -5.4370   28.4950 Br  0  0  0  0  0  0  0  0  0  0  0  0
    6.3370    0.3780   17.8910 N   0  0  0  0  0  0  0  0  0  0  0  0
    4.6550    1.7250   18.9360 C   0  0  0  0  0  0  0  0  0  0  0  0
    5.2240    1.1250   17.8620 C   0  0  0  0  0  0  0  0  0  0  0  0
  2  1  1  1
  2  3  1  0
  1  4  2  3
  2  5  1  0
  4  6  1  0
  3  7  1  0
  5  8  1  0
  9  6  1  1
  7 10  1  0
  7 11  2  0
  8 12  1  0
  8 13  2  0
  9 14  1  0
  9 15  1  0
 14 16  1  0
 15 17  1  0
 14 18  1  0
 16 19  1  0
 16 20  2  0
 17 21  1  0
 17 22  1  0
 18 22  1  0
 22 23  1  1
 21 24  1  1
 21 25  1  0
 23 26  2  0
 23 27  1  0
 25 28  2  0
 25 29  1  0
 24 30  1  0
 29 31  1  0
 27 32  1  0
 28 33  1  0
 29 34  2  0
 30 35  2  0
 30 36  1  0
 32 37  2  0
 32 38  1  0
 33 39  2  0
 34 39  1  0
 35 40  1  0
 36 41  1  0
 40 41  2  0
 41 42  1  0
 37 43  1  0
 38 44  2  0
 43 45  2  0
 44 45  1  0
M  END
