x0981_1-x1412_1-x1412_0-x0831_0
     RDKit          3D

 37 40  0  0  0  0  0  0  0  0999 V2000
    4.0360   -5.2410   23.2690 C   0  0  0  0  0  0  0  0  0  0  0  0
    2.7710   -6.0470   23.5930 C   0  0  1  0  0  0  0  0  0  0  0  0
    2.5370   -7.2510   22.7870 N   0  0  0  0  0  0  0  0  0  0  0  0
    4.2160   -4.0100   23.6560 N   0  0  0  0  0  0  0  0  0  0  0  0
    2.6810   -6.2900   25.0970 C   0  0  0  0  0  0  0  0  0  0  0  0
    5.3920   -3.1720   23.3730 C   0  0  0  0  0  0  0  0  0  0  0  0
    1.3420   -7.4570   22.1210 C   0  0  0  0  0  0  0  0  0  0  0  0
    3.0990   -7.7090   25.3040 C   0  0  0  0  0  0  0  0  0  0  0  0
    6.3000   -3.8370   22.4010 C   0  0  1  0  0  0  0  0  0  0  0  0
    1.2380   -8.7440   21.3320 C   0  0  0  0  0  0  0  0  0  0  0  0
    0.4240   -6.6430   22.1460 O   0  0  0  0  0  0  0  0  0  0  0  0
    2.4740   -8.4150   26.2880 N   0  0  0  0  0  0  0  0  0  0  0  0
    3.9730   -8.1840   24.6070 O   0  0  0  0  0  0  0  0  0  0  0  0
    6.7380   -2.9730   21.2690 N   0  0  0  0  0  0  0  0  0  0  0  0
    7.4750   -4.4670   22.8500 C   0  0  0  0  0  0  0  0  0  0  0  0
    6.4630   -3.3610   19.9620 C   0  0  0  0  0  0  0  0  0  0  0  0
    8.3840   -3.4650   23.3640 N   0  0  0  0  0  0  0  0  0  0  0  0
    7.7800   -1.9290   21.5250 C   0  0  0  0  0  0  0  0  0  0  0  0
    7.4260   -3.0090   18.8360 C   0  0  0  0  0  0  0  0  0  0  0  0
    5.4550   -4.0460   19.7080 O   0  0  0  0  0  0  0  0  0  0  0  0
    8.3990   -2.9650   24.7430 C   0  0  2  0  0  0  0  0  0  0  0  0
    8.9430   -2.5000   22.3860 C   0  0  1  0  0  0  0  0  0  0  0  0
    7.5900   -2.1490   25.1990 O   0  0  0  0  0  0  0  0  0  0  0  0
    9.3380   -1.4470   23.4510 C   0  0  1  0  0  0  0  0  0  0  0  0
    9.5540   -2.3020   24.6780 C   0  0  0  0  0  0  0  0  0  0  0  0
    8.5710   -4.0760   25.7140 C   0  0  0  0  0  0  0  0  0  0  0  0
    9.3370   -5.2020   25.5510 C   0  0  0  0  0  0  0  0  0  0  0  0
    7.8140   -4.1050   27.2600 S   0  0  0  0  0  0  0  0  0  0  0  0
   10.5150   -0.5230   23.3270 C   0  0  0  0  0  0  0  0  0  0  0  0
    9.3500   -6.1010   26.6100 C   0  0  0  0  0  0  0  0  0  0  0  0
    8.5580   -5.6170   27.6070 C   0  0  0  0  0  0  0  0  0  0  0  0
   10.2620    0.7310   23.8570 C   0  0  0  0  0  0  0  0  0  0  0  0
   11.7900   -0.8170   22.7550 C   0  0  0  0  0  0  0  0  0  0  0  0
   12.1560   -2.1420   22.1660 C   0  0  0  0  0  0  0  0  0  0  0  0
   11.2320    1.7690   23.8470 C   0  0  0  0  0  0  0  0  0  0  0  0
   12.7750    0.1720   22.7290 C   0  0  0  0  0  0  0  0  0  0  0  0
   12.5020    1.5300   23.2880 C   0  0  0  0  0  0  0  0  0  0  0  0
  2  1  1  1
  2  3  1  0
  1  4  2  3
  2  5  1  0
  4  6  1  0
  3  7  1  0
  5  8  1  0
  9  6  1  1
  7 10  1  0
  7 11  2  0
  8 12  1  0
  8 13  2  0
  9 14  1  0
  9 15  1  0
 14 16  1  0
 15 17  1  0
 14 18  1  0
 16 19  1  0
 16 20  2  0
 17 21  1  0
 17 22  1  0
 22 18  1  6
 21 23  1  1
 22 24  1  0
 21 25  1  0
 24 25  1  0
 21 26  1  0
 26 27  2  0
 26 28  1  0
 24 29  1  6
 27 30  1  0
 28 31  1  0
 30 31  2  0
 29 32  2  0
 29 33  1  0
 33 34  1  0
 32 35  1  0
 33 36  2  0
 35 37  2  0
 36 37  1  0
M  END
