x0981_1-x0830_1
     RDKit          3D

 26 27  0  0  0  0  0  0  0  0999 V2000
    4.3510   -5.9140   23.0800 C   0  0  0  0  0  0  0  0  0  0  0  0
    2.8740   -6.0890   23.4250 C   0  0  1  0  0  0  0  0  0  0  0  0
    2.4850   -7.3210   22.7430 N   0  0  0  0  0  0  0  0  0  0  0  0
    5.1770   -4.7890   23.4740 N   0  0  0  0  0  0  0  0  0  0  0  0
    2.6070   -6.3030   24.9240 C   0  0  0  0  0  0  0  0  0  0  0  0
    6.5350   -5.0220   22.9520 C   0  0  0  0  0  0  0  0  0  0  0  0
    1.2790   -7.4570   22.1180 C   0  0  0  0  0  0  0  0  0  0  0  0
    3.0500   -7.6820   25.3120 C   0  0  0  0  0  0  0  0  0  0  0  0
    7.4990   -4.3610   23.5910 C   0  0  0  0  0  0  0  0  0  0  0  0
    1.1270   -8.7340   21.3250 C   0  0  0  0  0  0  0  0  0  0  0  0
    0.3910   -6.6050   22.1730 O   0  0  0  0  0  0  0  0  0  0  0  0
    2.4160   -8.3440   26.4500 N   0  0  0  0  0  0  0  0  0  0  0  0
    3.9290   -8.2160   24.6670 O   0  0  0  0  0  0  0  0  0  0  0  0
    8.0730   -3.1910   22.9990 C   0  0  0  0  0  0  0  0  0  0  0  0
    8.7930   -2.2960   23.8080 C   0  0  0  0  0  0  0  0  0  0  0  0
   10.2710   -2.6750   23.7670 C   0  0  0  0  0  0  0  0  0  0  0  0
   11.1230   -1.6390   23.4570 C   0  0  0  0  0  0  0  0  0  0  0  0
   10.8100   -0.1750   23.8400 C   0  0  0  0  0  0  0  0  0  0  0  0
   12.3070   -1.9110   22.7620 C   0  0  0  0  0  0  0  0  0  0  0  0
   11.7680    0.7790   23.4290 C   0  0  0  0  0  0  0  0  0  0  0  0
   13.1670   -0.9100   22.4310 C   0  0  0  0  0  0  0  0  0  0  0  0
    9.6580    0.1980   24.5360 C   0  0  0  0  0  0  0  0  0  0  0  0
   12.9060    0.3870   22.7590 C   0  0  0  0  0  0  0  0  0  0  0  0
    9.3940    1.5120   24.8320 C   0  0  0  0  0  0  0  0  0  0  0  0
   11.5890    2.1220   23.6780 C   0  0  0  0  0  0  0  0  0  0  0  0
   10.3610    2.6070   24.4040 C   0  0  0  0  0  0  0  0  0  0  0  0
  2  1  1  1
  2  3  1  0
  1  4  2  3
  2  5  1  0
  4  6  1  0
  3  7  1  0
  5  8  1  0
  6  9  1  0
  7 10  1  0
  7 11  2  0
  8 12  1  0
  8 13  2  0
  9 14  1  0
 14 15  1  0
 15 16  1  0
 16 17  1  0
 17 18  2  0
 17 19  1  0
 18 20  1  0
 19 21  2  0
 18 22  1  0
 20 23  2  0
 21 23  1  0
 22 24  2  0
 20 25  1  0
 24 26  1  0
 25 26  2  0
M  END
