x0981_1-x1412_1-x1418_0-x1385_0
     RDKit          3D

 34 36  0  0  0  0  0  0  0  0999 V2000
    3.9780   -5.8060   23.0730 C   0  0  0  0  0  0  0  0  0  0  0  0
    2.5900   -6.1820   23.5570 C   0  0  1  0  0  0  0  0  0  0  0  0
    2.3380   -7.4480   22.8900 N   0  0  0  0  0  0  0  0  0  0  0  0
    4.5840   -4.6300   22.5120 N   0  0  0  0  0  0  0  0  0  0  0  0
    2.5630   -6.3350   25.0670 C   0  0  0  0  0  0  0  0  0  0  0  0
    5.9790   -4.8690   22.2040 C   0  0  0  0  0  0  0  0  0  0  0  0
    1.1610   -7.5400   22.0450 C   0  0  0  0  0  0  0  0  0  0  0  0
    3.0490   -7.7230   25.3130 C   0  0  0  0  0  0  0  0  0  0  0  0
    6.6850   -3.7090   22.4140 C   0  0  2  0  0  0  0  0  0  0  0  0
    1.1160   -8.7670   21.1900 C   0  0  0  0  0  0  0  0  0  0  0  0
    0.2890   -6.6730   22.0260 O   0  0  0  0  0  0  0  0  0  0  0  0
    2.4670   -8.4010   26.3400 N   0  0  0  0  0  0  0  0  0  0  0  0
    3.9200   -8.1930   24.6140 O   0  0  0  0  0  0  0  0  0  0  0  0
    6.7800   -2.8940   21.1930 N   0  0  0  0  0  0  0  0  0  0  0  0
    7.9570   -3.8800   22.9300 C   0  0  0  0  0  0  0  0  0  0  0  0
    6.4770   -3.3110   19.8980 C   0  0  0  0  0  0  0  0  0  0  0  0
    8.5710   -2.5840   23.2110 N   0  0  0  0  0  0  0  0  0  0  0  0
    7.5410   -1.6420   21.3510 C   0  0  0  0  0  0  0  0  0  0  0  0
    7.4280   -2.9960   18.7710 C   0  0  0  0  0  0  0  0  0  0  0  0
    5.4620   -3.9890   19.6770 O   0  0  0  0  0  0  0  0  0  0  0  0
    9.6410   -2.7160   23.9070 C   0  0  2  0  0  0  0  0  0  0  0  0
    8.8020   -1.8970   21.9290 C   0  0  0  0  0  0  0  0  0  0  0  0
   10.8470   -3.4300   23.5320 C   0  0  0  0  0  0  0  0  0  0  0  0
    9.1940   -3.6220   25.0740 C   0  0  0  0  0  0  0  0  0  0  0  0
   10.5370   -1.4650   23.9000 C   0  0  0  0  0  0  0  0  0  0  0  0
    9.7890   -4.8760   25.3450 C   0  0  0  0  0  0  0  0  0  0  0  0
    7.9110   -3.4130   26.2430 S   0  0  0  0  0  0  0  0  0  0  0  0
   11.6870   -1.3120   23.1140 C   0  0  0  0  0  0  0  0  0  0  0  0
   10.3470    0.0000   24.8010 S   0  0  0  0  0  0  0  0  0  0  0  0
    9.2410   -5.5610   26.3820 C   0  0  0  0  0  0  0  0  0  0  0  0
    8.2040   -4.9230   26.9870 C   0  0  0  0  0  0  0  0  0  0  0  0
   12.3610   -0.1410   23.2070 C   0  0  0  0  0  0  0  0  0  0  0  0
   11.7550    0.6990   24.0890 C   0  0  0  0  0  0  0  0  0  0  0  0
    7.2880   -5.7670   28.4750 Br  0  0  0  0  0  0  0  0  0  0  0  0
  2  1  1  6
  2  3  1  0
  1  4  2  3
  2  5  1  0
  4  6  1  0
  3  7  1  0
  5  8  1  0
  9  6  1  6
  7 10  1  0
  7 11  2  0
  8 12  1  0
  8 13  2  0
  9 14  1  0
  9 15  1  0
 14 16  1  0
 15 17  1  0
 14 18  1  0
 16 19  1  0
 16 20  2  0
 17 21  1  0
 17 22  1  0
 18 22  1  0
 21 23  1  6
 21 24  1  0
 21 25  1  0
 24 26  2  0
 24 27  1  0
 25 28  2  0
 25 29  1  0
 26 30  1  0
 27 31  1  0
 30 31  2  0
 28 32  1  0
 29 33  1  0
 32 33  2  0
 31 34  1  0
M  END
