x0981_1-x1412_0-x1334_1
     RDKit          3D

 28 29  0  0  0  0  0  0  0  0999 V2000
    4.0370   -5.2480   23.2850 C   0  0  0  0  0  0  0  0  0  0  0  0
    2.7590   -6.0460   23.5730 C   0  0  1  0  0  0  0  0  0  0  0  0
    2.5320   -7.2540   22.7770 N   0  0  0  0  0  0  0  0  0  0  0  0
    4.2060   -4.0210   23.6840 N   0  0  0  0  0  0  0  0  0  0  0  0
    2.6300   -6.2760   25.0760 C   0  0  0  0  0  0  0  0  0  0  0  0
    5.3830   -3.1730   23.4580 C   0  0  0  0  0  0  0  0  0  0  0  0
    1.3410   -7.4590   22.1060 C   0  0  0  0  0  0  0  0  0  0  0  0
    3.0550   -7.6900   25.3080 C   0  0  0  0  0  0  0  0  0  0  0  0
    6.2850   -3.7010   22.3310 C   0  0  1  0  0  0  0  0  0  0  0  0
    1.2370   -8.7450   21.3210 C   0  0  0  0  0  0  0  0  0  0  0  0
    0.4250   -6.6410   22.1260 O   0  0  0  0  0  0  0  0  0  0  0  0
    2.4270   -8.3670   26.3110 N   0  0  0  0  0  0  0  0  0  0  0  0
    3.9300   -8.1800   24.6200 O   0  0  0  0  0  0  0  0  0  0  0  0
    6.5390   -2.7960   21.1880 N   0  0  0  0  0  0  0  0  0  0  0  0
    7.6230   -4.2010   22.8680 C   0  0  0  0  0  0  0  0  0  0  0  0
    6.3490   -3.3130   19.9170 C   0  0  0  0  0  0  0  0  0  0  0  0
    8.4310   -3.0430   23.2580 N   0  0  0  0  0  0  0  0  0  0  0  0
    7.5090   -1.6880   21.4600 C   0  0  0  0  0  0  0  0  0  0  0  0
    7.3410   -3.0070   18.8010 C   0  0  0  0  0  0  0  0  0  0  0  0
    5.3920   -4.0700   19.6990 O   0  0  0  0  0  0  0  0  0  0  0  0
    8.5870   -2.6540   24.6640 C   0  0  0  0  0  0  0  0  0  0  0  0
    8.6710   -2.0720   22.1670 C   0  0  0  0  0  0  0  0  0  0  0  0
    8.5740   -1.4770   25.0320 O   0  0  0  0  0  0  0  0  0  0  0  0
    8.7410   -3.7680   25.5880 C   0  0  0  0  0  0  0  0  0  0  0  0
    9.5730   -4.8570   25.4660 C   0  0  0  0  0  0  0  0  0  0  0  0
    7.8310   -3.8950   27.0580 S   0  0  0  0  0  0  0  0  0  0  0  0
    9.4530   -5.7350   26.5340 C   0  0  0  0  0  0  0  0  0  0  0  0
    8.5560   -5.3880   27.5130 C   0  0  0  0  0  0  0  0  0  0  0  0
  2  1  1  1
  2  3  1  0
  1  4  2  3
  2  5  1  0
  4  6  1  0
  3  7  1  0
  5  8  1  0
  9  6  1  1
  7 10  1  0
  7 11  2  0
  8 12  1  0
  8 13  2  0
  9 14  1  0
  9 15  1  0
 14 16  1  0
 15 17  1  0
 14 18  1  0
 16 19  1  0
 16 20  2  0
 17 21  1  0
 17 22  1  0
 18 22  1  0
 21 23  2  0
 21 24  1  0
 24 25  2  0
 24 26  1  0
 25 27  1  0
 26 28  1  0
 27 28  2  0
M  END
