x0981_1-x1385_1-x0874_0
     RDKit          3D

 27 28  0  0  0  0  0  0  0  0999 V2000
    4.9240   -5.6380   23.5200 C   0  0  0  0  0  0  0  0  0  0  0  0
    3.3980   -5.8910   23.6200 C   0  0  1  0  0  0  0  0  0  0  0  0
    2.8750   -6.9640   22.7330 N   0  0  0  0  0  0  0  0  0  0  0  0
    5.5030   -4.5830   24.0860 N   0  0  0  0  0  0  0  0  0  0  0  0
    2.9590   -6.1360   25.0790 C   0  0  0  0  0  0  0  0  0  0  0  0
    7.0080   -4.3610   24.0230 C   0  0  0  0  0  0  0  0  0  0  0  0
    1.6060   -7.2580   22.2870 C   0  0  0  0  0  0  0  0  0  0  0  0
    3.1970   -7.6080   25.3490 C   0  0  0  0  0  0  0  0  0  0  0  0
    7.4570   -3.6000   22.7320 C   0  0  2  0  0  0  0  0  0  0  0  0
    1.3100   -8.5820   21.5980 C   0  0  0  0  0  0  0  0  0  0  0  0
    0.6950   -6.4450   22.4110 O   0  0  0  0  0  0  0  0  0  0  0  0
    2.5760   -8.1800   26.4240 N   0  0  0  0  0  0  0  0  0  0  0  0
    3.9280   -8.2220   24.6080 O   0  0  0  0  0  0  0  0  0  0  0  0
    8.3730   -2.3750   22.9880 N   0  0  0  0  0  0  0  0  0  0  0  0
    6.2130   -3.1720   22.1860 C   0  0  0  0  0  0  0  0  0  0  0  0
    9.7110   -2.6460   23.3570 C   0  0  0  0  0  0  0  0  0  0  0  0
    6.4490   -2.4380   20.9580 N   0  0  0  0  0  0  0  0  0  0  0  0
    8.5260   -1.5690   21.7650 C   0  0  0  0  0  0  0  0  0  0  0  0
    6.3190   -3.1460   19.7840 C   0  0  0  0  0  0  0  0  0  0  0  0
    7.3240   -1.2820   21.1340 C   0  0  0  0  0  0  0  0  0  0  0  0
   10.5450   -1.3320   23.3460 C   0  0  0  0  0  0  0  0  0  0  0  0
    7.3700   -2.9430   18.7110 C   0  0  0  0  0  0  0  0  0  0  0  0
    5.3890   -3.9470   19.6210 O   0  0  0  0  0  0  0  0  0  0  0  0
   11.5110   -0.0800   23.2530 C   0  0  0  0  0  0  0  0  0  0  0  0
   11.4940   -2.1450   22.6220 C   0  0  0  0  0  0  0  0  0  0  0  0
   12.7450   -0.1490   22.6320 C   0  0  0  0  0  0  0  0  0  0  0  0
   13.0400   -1.6410   22.0170 S   0  0  0  0  0  0  0  0  0  0  0  0
  2  1  1  1
  2  3  1  0
  1  4  2  3
  2  5  1  0
  4  6  1  0
  3  7  1  0
  5  8  1  0
  9  6  1  1
  7 10  1  0
  7 11  2  0
  8 12  1  0
  8 13  2  0
  9 14  1  0
  9 15  1  0
 14 16  1  0
 15 17  1  0
 14 18  1  0
 17 19  1  0
 17 20  1  0
 18 20  1  0
 16 21  1  0
 19 22  1  0
 19 23  2  0
 21 24  1  0
 21 25  2  0
 24 26  2  0
 25 27  1  0
 26 27  1  0
M  END
