x0981_1-x1418_1-x0692_0-x1418_0
     RDKit          3D

 30 31  0  0  0  0  0  0  0  0999 V2000
    4.1970   -5.2190   23.1280 C   0  0  0  0  0  0  0  0  0  0  0  0
    2.9700   -6.0100   23.5720 C   0  0  1  0  0  0  0  0  0  0  0  0
    2.6510   -7.2720   22.8740 N   0  0  0  0  0  0  0  0  0  0  0  0
    4.2440   -3.9680   23.4870 N   0  0  0  0  0  0  0  0  0  0  0  0
    2.9260   -6.1770   25.0840 C   0  0  0  0  0  0  0  0  0  0  0  0
    5.2730   -2.9510   23.1940 C   0  0  0  0  0  0  0  0  0  0  0  0
    1.4560   -7.5390   22.1010 C   0  0  0  0  0  0  0  0  0  0  0  0
    3.2160   -7.6190   25.3460 C   0  0  0  0  0  0  0  0  0  0  0  0
    6.4750   -3.4250   22.3250 C   0  0  2  0  0  0  0  0  0  0  0  0
    1.2070   -8.7910   21.2460 C   0  0  0  0  0  0  0  0  0  0  0  0
    0.4490   -6.5300   22.1290 O   0  0  0  0  0  0  0  0  0  0  0  0
    2.5600   -8.2170   26.3840 N   0  0  0  0  0  0  0  0  0  0  0  0
    4.0060   -8.1940   24.6270 O   0  0  0  0  0  0  0  0  0  0  0  0
    7.7870   -3.4760   23.0340 C   0  0  0  0  0  0  0  0  0  0  0  0
    6.6020   -2.6250   21.0630 N   0  0  0  0  0  0  0  0  0  0  0  0
    6.3840   -3.2740   19.8540 C   0  0  0  0  0  0  0  0  0  0  0  0
    8.4960   -2.1770   23.0830 N   0  0  0  0  0  0  0  0  0  0  0  0
    7.4660   -1.3710   21.1920 C   0  0  0  0  0  0  0  0  0  0  0  0
    7.3950   -3.0070   18.7550 C   0  0  0  0  0  0  0  0  0  0  0  0
    5.4400   -4.0570   19.7040 O   0  0  0  0  0  0  0  0  0  0  0  0
    9.6340   -2.1910   23.8980 C   0  0  1  0  0  0  0  0  0  0  0  0
    8.7200   -1.7050   21.7370 C   0  0  0  0  0  0  0  0  0  0  0  0
   10.3110   -3.5040   23.8910 C   0  0  0  0  0  0  0  0  0  0  0  0
   10.6210   -1.2470   23.6170 C   0  0  0  0  0  0  0  0  0  0  0  0
   10.2940    0.0900   23.8160 C   0  0  0  0  0  0  0  0  0  0  0  0
   11.9120   -1.5830   23.1560 C   0  0  0  0  0  0  0  0  0  0  0  0
   11.1760    1.1310   23.5800 C   0  0  0  0  0  0  0  0  0  0  0  0
   12.8260   -0.5520   22.9140 C   0  0  0  0  0  0  0  0  0  0  0  0
   10.7670    2.5440   23.7920 C   0  0  0  0  0  0  0  0  0  0  0  0
   12.4320    0.7580   23.1320 C   0  0  0  0  0  0  0  0  0  0  0  0
  2  1  1  1
  2  3  1  0
  1  4  2  3
  2  5  1  0
  4  6  1  0
  3  7  1  0
  5  8  1  0
  9  6  1  1
  7 10  1  0
  7 11  2  0
  8 12  1  0
  8 13  2  0
  9 14  1  0
  9 15  1  0
 15 16  1  0
 14 17  1  0
 15 18  1  0
 16 19  1  0
 16 20  2  0
 17 21  1  0
 17 22  1  0
 18 22  1  0
 21 23  1  6
 21 24  1  0
 24 25  2  0
 24 26  1  0
 25 27  1  0
 26 28  2  0
 27 29  1  0
 27 30  2  0
 28 30  1  0
M  END
