x0981_1-x0831_0-x1308_0
     RDKit          3D

 29 30  0  0  0  0  0  0  0  0999 V2000
    3.3570   -6.0370   23.4660 C   0  0  1  0  0  0  0  0  0  0  0  0
    2.8290   -7.1880   22.7020 N   0  0  0  0  0  0  0  0  0  0  0  0
    1.5160   -7.3060   22.2570 C   0  0  0  0  0  0  0  0  0  0  0  0
    2.8270   -6.2130   24.9040 C   0  0  0  0  0  0  0  0  0  0  0  0
    4.9520   -5.9270   23.4220 C   0  0  2  0  0  0  0  0  0  0  0  0
    3.1280   -7.6280   25.3110 C   0  0  0  0  0  0  0  0  0  0  0  0
    5.4310   -4.5500   23.7570 N   0  0  0  0  0  0  0  0  0  0  0  0
    5.6320   -6.4160   22.1090 C   0  0  0  0  0  0  0  0  0  0  0  0
    4.8140   -4.0390   24.9540 O   0  0  0  0  0  0  0  0  0  0  0  0
    1.2170   -8.6040   21.5430 C   0  0  0  0  0  0  0  0  0  0  0  0
    0.6590   -6.4400   22.3970 O   0  0  0  0  0  0  0  0  0  0  0  0
    2.5080   -8.1260   26.4230 N   0  0  0  0  0  0  0  0  0  0  0  0
    3.8970   -8.2860   24.6610 O   0  0  0  0  0  0  0  0  0  0  0  0
    6.9130   -4.3820   23.8620 C   0  0  2  0  0  0  0  0  0  0  0  0
    6.7050   -5.5270   21.6930 N   0  0  0  0  0  0  0  0  0  0  0  0
    6.6440   -4.6030   20.6490 C   0  0  0  0  0  0  0  0  0  0  0  0
    7.4280   -2.9250   23.7470 C   0  0  0  0  0  0  0  0  0  0  0  0
    7.6110   -5.2280   22.7900 C   0  0  0  0  0  0  0  0  0  0  0  0
    7.8910   -3.7480   20.3820 C   0  0  0  0  0  0  0  0  0  0  0  0
    5.6230   -4.4910   19.9440 O   0  0  0  0  0  0  0  0  0  0  0  0
    8.8770   -2.7100   24.2270 C   0  0  0  0  0  0  0  0  0  0  0  0
    9.9750   -2.4110   23.1940 C   0  0  0  0  0  0  0  0  0  0  0  0
   10.7340   -1.0950   23.3390 C   0  0  0  0  0  0  0  0  0  0  0  0
   10.1580   -0.0180   24.0350 C   0  0  0  0  0  0  0  0  0  0  0  0
   12.0200   -0.9180   22.7780 C   0  0  0  0  0  0  0  0  0  0  0  0
   12.7290   -1.9870   22.0160 C   0  0  0  0  0  0  0  0  0  0  0  0
   10.8340    1.1950   24.1570 C   0  0  0  0  0  0  0  0  0  0  0  0
   12.6810    0.3050   22.9180 C   0  0  0  0  0  0  0  0  0  0  0  0
   12.0920    1.3520   23.5950 C   0  0  0  0  0  0  0  0  0  0  0  0
  1  2  1  0
  2  3  1  0
  1  4  1  1
  1  5  1  0
  4  6  1  0
  5  7  1  0
  5  8  1  6
  7  9  1  0
  3 10  1  0
  3 11  2  0
  6 12  1  0
  6 13  2  0
  7 14  1  0
  8 15  1  0
 15 16  1  0
 14 17  1  6
 14 18  1  0
 15 18  1  0
 16 19  1  0
 16 20  2  0
 17 21  1  0
 21 22  1  0
 22 23  1  0
 23 24  2  0
 23 25  1  0
 25 26  1  0
 24 27  1  0
 25 28  2  0
 27 29  2  0
 28 29  1  0
M  END
