x0981_1-x1412_1-x1418_0-x0434_2
     RDKit          3D

 34 36  0  0  0  0  0  0  0  0999 V2000
    4.2860   -5.3590   23.2810 C   0  0  0  0  0  0  0  0  0  0  0  0
    2.8880   -5.9950   23.5080 C   0  0  1  0  0  0  0  0  0  0  0  0
    2.6400   -7.1890   22.7080 N   0  0  0  0  0  0  0  0  0  0  0  0
    4.5570   -4.0120   23.8210 N   0  0  0  0  0  0  0  0  0  0  0  0
    2.5810   -6.2460   25.0220 C   0  0  0  0  0  0  0  0  0  0  0  0
    5.8800   -3.3510   23.6620 C   0  0  0  0  0  0  0  0  0  0  0  0
    1.3950   -7.4090   22.1510 C   0  0  0  0  0  0  0  0  0  0  0  0
    3.0370   -7.7200   25.3240 C   0  0  0  0  0  0  0  0  0  0  0  0
    6.6980   -3.7650   22.4150 C   0  0  1  0  0  0  0  0  0  0  0  0
    1.2220   -8.7050   21.4010 C   0  0  0  0  0  0  0  0  0  0  0  0
    0.4890   -6.5850   22.2320 O   0  0  0  0  0  0  0  0  0  0  0  0
    2.4070   -8.4150   26.3140 N   0  0  0  0  0  0  0  0  0  0  0  0
    3.9400   -8.2100   24.6750 O   0  0  0  0  0  0  0  0  0  0  0  0
    6.5620   -2.8360   21.2390 N   0  0  0  0  0  0  0  0  0  0  0  0
    8.0260   -3.9000   22.8070 C   0  0  0  0  0  0  0  0  0  0  0  0
    6.3470   -3.4130   19.9910 C   0  0  0  0  0  0  0  0  0  0  0  0
    8.7010   -2.6370   23.2160 N   0  0  0  0  0  0  0  0  0  0  0  0
    7.5230   -1.7160   21.1530 C   0  0  1  0  0  0  0  0  0  0  0  0
    7.3130   -3.0770   18.8640 C   0  0  0  0  0  0  0  0  0  0  0  0
    5.4190   -4.2050   19.7780 O   0  0  0  0  0  0  0  0  0  0  0  0
   10.1190   -2.9050   23.5750 C   0  0  0  0  0  0  0  0  0  0  0  0
    6.8100   -0.4650   21.4520 N   0  0  0  0  0  0  0  0  0  0  0  0
    8.7550   -1.7770   22.0530 C   0  0  0  0  0  0  0  0  0  0  0  0
   11.0040   -1.8040   23.3750 C   0  0  0  0  0  0  0  0  0  0  0  0
    6.2300    0.1680   20.2610 C   0  0  0  0  0  0  0  0  0  0  0  0
   12.3520   -1.7750   23.0000 C   0  0  0  0  0  0  0  0  0  0  0  0
   10.5050   -0.1760   23.5860 S   0  0  0  0  0  0  0  0  0  0  0  0
    6.8510    0.0540   19.0270 C   0  0  0  0  0  0  0  0  0  0  0  0
    5.0480    0.9170   20.2690 C   0  0  0  0  0  0  0  0  0  0  0  0
   12.8910   -0.4000   22.9120 C   0  0  0  0  0  0  0  0  0  0  0  0
   12.0270    0.5490   23.1970 C   0  0  0  0  0  0  0  0  0  0  0  0
    6.3990    0.6370   17.7600 N   0  0  0  0  0  0  0  0  0  0  0  0
    4.5670    1.4980   19.0950 C   0  0  0  0  0  0  0  0  0  0  0  0
    5.2690    1.3300   17.8990 C   0  0  0  0  0  0  0  0  0  0  0  0
  2  1  1  1
  2  3  1  0
  1  4  2  3
  2  5  1  0
  4  6  1  0
  3  7  1  0
  5  8  1  0
  9  6  1  1
  7 10  1  0
  7 11  2  0
  8 12  1  0
  8 13  2  0
  9 14  1  0
  9 15  1  0
 14 16  1  0
 15 17  1  0
 14 18  1  0
 16 19  1  0
 16 20  2  0
 17 21  1  0
 18 22  1  1
 17 23  1  0
 18 23  1  0
 21 24  1  0
 22 25  1  0
 24 26  2  0
 24 27  1  0
 25 28  2  0
 25 29  1  0
 26 30  1  0
 27 31  1  0
 30 31  2  0
 28 32  1  0
 29 33  2  0
 32 34  2  0
 33 34  1  0
M  END
