x0981_1-x0434_2-x0831_0-x1412_1-x1385_0-x1412_0
     RDKit          3D

 45 48  0  0  0  0  0  0  0  0999 V2000
    4.1810   -5.3500   23.3230 C   0  0  0  0  0  0  0  0  0  0  0  0
    2.8000   -6.0140   23.5380 C   0  0  1  0  0  0  0  0  0  0  0  0
    2.5800   -7.1980   22.6910 N   0  0  0  0  0  0  0  0  0  0  0  0
    4.5690   -4.0150   23.7740 N   0  0  0  0  0  0  0  0  0  0  0  0
    2.5920   -6.3460   25.0160 C   0  0  0  0  0  0  0  0  0  0  0  0
    5.9030   -3.4260   23.5720 C   0  0  0  0  0  0  0  0  0  0  0  0
    1.3330   -7.4250   22.1120 C   0  0  0  0  0  0  0  0  0  0  0  0
    3.0450   -7.7240   25.3350 C   0  0  0  0  0  0  0  0  0  0  0  0
    6.7080   -3.9290   22.3390 C   0  0  1  0  0  0  0  0  0  0  0  0
    1.2220   -8.7160   21.3430 C   0  0  0  0  0  0  0  0  0  0  0  0
    0.4060   -6.6300   22.1970 O   0  0  0  0  0  0  0  0  0  0  0  0
    2.4630   -8.3640   26.3850 N   0  0  0  0  0  0  0  0  0  0  0  0
    3.9130   -8.2380   24.6600 O   0  0  0  0  0  0  0  0  0  0  0  0
    6.6510   -2.9610   21.2450 N   0  0  0  0  0  0  0  0  0  0  0  0
    8.1550   -4.1490   22.8050 C   0  0  0  0  0  0  0  0  0  0  0  0
    6.3960   -3.3670   19.9400 C   0  0  0  0  0  0  0  0  0  0  0  0
    9.1670   -3.0810   22.4780 N   0  0  0  0  0  0  0  0  0  0  0  0
    7.3070   -1.6940   21.5560 C   0  0  2  0  0  0  0  0  0  0  0  0
    7.3740   -3.0030   18.8290 C   0  0  0  0  0  0  0  0  0  0  0  0
    5.4050   -4.0650   19.6930 O   0  0  0  0  0  0  0  0  0  0  0  0
    9.9690   -2.6420   23.5920 C   0  0  2  0  0  0  0  0  0  0  0  0
    7.5470   -0.8820   20.3770 N   0  0  0  0  0  0  0  0  0  0  0  0
    8.6400   -1.8310   21.9170 C   0  0  0  0  0  0  0  0  0  0  0  0
    8.9740   -2.6250   24.6630 C   0  0  2  0  0  0  0  0  0  0  0  0
   10.7310   -1.3120   23.4870 C   0  0  0  0  0  0  0  0  0  0  0  0
    6.6530   -0.1000   19.7130 C   0  0  0  0  0  0  0  0  0  0  0  0
    8.9220   -1.3840   25.5800 C   0  0  0  0  0  0  0  0  0  0  0  0
   10.2060   -0.1280   24.1420 C   0  0  0  0  0  0  0  0  0  0  0  0
   12.0310   -1.0860   22.7690 C   0  0  0  0  0  0  0  0  0  0  0  0
    8.8800   -3.9100   25.4730 C   0  0  0  0  0  0  0  0  0  0  0  0
    6.8950    0.2500   18.4600 C   0  0  0  0  0  0  0  0  0  0  0  0
    5.4610    0.3670   20.3020 C   0  0  0  0  0  0  0  0  0  0  0  0
   12.7720   -2.1230   22.0120 C   0  0  0  0  0  0  0  0  0  0  0  0
    7.9480   -0.6950   25.8330 O   0  0  0  0  0  0  0  0  0  0  0  0
   10.6910    1.1320   24.2120 C   0  0  0  0  0  0  0  0  0  0  0  0
   12.7180    0.3170   22.7750 C   0  0  0  0  0  0  0  0  0  0  0  0
    9.5000   -5.1400   25.5000 C   0  0  0  0  0  0  0  0  0  0  0  0
    7.7100   -3.8860   26.7150 S   0  0  0  0  0  0  0  0  0  0  0  0
    6.2150    1.0040   17.5760 N   0  0  0  0  0  0  0  0  0  0  0  0
    4.5810    1.2260   19.4480 C   0  0  0  0  0  0  0  0  0  0  0  0
   11.9840    1.4180   23.5280 C   0  0  0  0  0  0  0  0  0  0  0  0
    9.1120   -6.0520   26.4380 C   0  0  0  0  0  0  0  0  0  0  0  0
    8.0530   -5.4680   27.2320 C   0  0  0  0  0  0  0  0  0  0  0  0
    5.0680    1.5000   18.0410 C   0  0  0  0  0  0  0  0  0  0  0  0
    7.0460   -6.1680   28.6780 Br  0  0  0  0  0  0  0  0  0  0  0  0
  2  1  1  1
  2  3  1  0
  1  4  2  3
  2  5  1  0
  4  6  1  0
  3  7  1  0
  5  8  1  0
  9  6  1  1
  7 10  1  0
  7 11  2  0
  8 12  1  0
  8 13  2  0
  9 14  1  0
  9 15  1  0
 14 16  1  0
 15 17  1  0
 14 18  1  0
 16 19  1  0
 16 20  2  0
 17 21  1  0
 18 22  1  6
 17 23  1  0
 18 23  1  0
 21 24  1  0
 21 25  1  6
 22 26  1  0
 24 27  1  1
 25 28  2  0
 25 29  1  0
 24 30  1  0
 26 31  2  0
 26 32  1  0
 29 33  1  0
 27 34  2  0
 28 35  1  0
 29 36  2  0
 30 37  2  0
 30 38  1  0
 31 39  1  0
 32 40  2  0
 35 41  2  0
 36 41  1  0
 37 42  1  0
 38 43  1  0
 42 43  2  0
 39 44  2  0
 40 44  1  0
 43 45  1  0
M  END
