x0981_1-x0691_0
     RDKit          3D

 19 19  0  0  0  0  0  0  0  0999 V2000
    3.1180   -6.1450   23.3470 C   0  0  1  0  0  0  0  0  0  0  0  0
    2.7050   -7.2280   22.7530 N   0  0  0  0  0  0  0  0  0  0  0  0
    1.4570   -7.3800   22.1860 C   0  0  0  0  0  0  0  0  0  0  0  0
    2.6150   -6.3090   24.7860 C   0  0  0  0  0  0  0  0  0  0  0  0
    4.6740   -6.0340   23.3360 C   0  0  2  0  0  0  0  0  0  0  0  0
    3.0420   -7.6640   25.2690 C   0  0  0  0  0  0  0  0  0  0  0  0
    5.1340   -4.7230   23.7730 N   0  0  0  0  0  0  0  0  0  0  0  0
    5.3740   -6.3050   22.1840 C   0  0  0  0  0  0  0  0  0  0  0  0
    4.3700   -4.3340   24.9290 O   0  0  0  0  0  0  0  0  0  0  0  0
    1.2540   -8.6860   21.3960 C   0  0  0  0  0  0  0  0  0  0  0  0
    0.5280   -6.5730   22.2450 O   0  0  0  0  0  0  0  0  0  0  0  0
    2.4100   -8.1700   26.3580 N   0  0  0  0  0  0  0  0  0  0  0  0
    3.9180   -8.2760   24.6960 O   0  0  0  0  0  0  0  0  0  0  0  0
    6.3650   -5.4230   21.9070 N   0  0  0  0  0  0  0  0  0  0  0  0
    6.5020   -4.7010   24.1960 C   0  0  0  0  0  0  0  0  0  0  0  0
    6.3660   -4.6390   20.7500 C   0  0  0  0  0  0  0  0  0  0  0  0
    7.1720   -5.1680   22.9570 C   0  0  0  0  0  0  0  0  0  0  0  0
    5.4180   -4.6260   19.9540 O   0  0  0  0  0  0  0  0  0  0  0  0
    7.5990   -3.7710   20.4900 C   0  0  0  0  0  0  0  0  0  0  0  0
  1  2  1  0
  2  3  1  0
  1  4  1  1
  1  5  1  0
  4  6  1  0
  5  7  1  0
  5  8  1  6
  7  9  1  0
  3 10  1  0
  3 11  2  0
  6 12  1  0
  6 13  2  0
  8 14  1  0
  7 15  1  0
 14 16  1  0
 14 17  1  0
 15 17  1  0
 16 18  2  0
 16 19  1  0
M  END
