x0981_1-x1412_0-x1418_0-x0770_1
     RDKit          3D

 35 37  0  0  0  0  0  0  0  0999 V2000
    3.9710   -5.2350   23.2050 C   0  0  0  0  0  0  0  0  0  0  0  0
    2.6890   -5.9900   23.5710 C   0  0  1  0  0  0  0  0  0  0  0  0
    2.5180   -7.1960   22.7570 N   0  0  0  0  0  0  0  0  0  0  0  0
    4.0220   -4.0020   23.6020 N   0  0  0  0  0  0  0  0  0  0  0  0
    2.6920   -6.2920   25.0740 C   0  0  0  0  0  0  0  0  0  0  0  0
    5.1470   -3.0880   23.3400 C   0  0  0  0  0  0  0  0  0  0  0  0
    1.3290   -7.4400   22.1110 C   0  0  0  0  0  0  0  0  0  0  0  0
    3.1290   -7.7170   25.2880 C   0  0  0  0  0  0  0  0  0  0  0  0
    6.1790   -3.6620   22.3310 C   0  0  1  0  0  0  0  0  0  0  0  0
    1.2340   -8.7300   21.3410 C   0  0  0  0  0  0  0  0  0  0  0  0
    0.3980   -6.6400   22.1370 O   0  0  0  0  0  0  0  0  0  0  0  0
    2.5070   -8.3990   26.2920 N   0  0  0  0  0  0  0  0  0  0  0  0
    3.9920   -8.2070   24.5990 O   0  0  0  0  0  0  0  0  0  0  0  0
    6.3510   -2.7520   21.2130 N   0  0  0  0  0  0  0  0  0  0  0  0
    7.5120   -4.0260   23.0520 C   0  0  0  0  0  0  0  0  0  0  0  0
    6.2100   -3.3550   19.9620 C   0  0  0  0  0  0  0  0  0  0  0  0
    8.3620   -2.8450   23.2640 N   0  0  0  0  0  0  0  0  0  0  0  0
    7.2850   -1.6360   21.4030 C   0  0  0  0  0  0  0  0  0  0  0  0
    7.1520   -2.9880   18.8260 C   0  0  0  0  0  0  0  0  0  0  0  0
    5.3360   -4.2200   19.7800 O   0  0  0  0  0  0  0  0  0  0  0  0
    8.4720   -2.4600   24.6230 C   0  0  2  0  0  0  0  0  0  0  0  0
    8.5180   -1.9520   22.0660 C   0  0  0  0  0  0  0  0  0  0  0  0
    7.5080   -1.8990   25.1370 O   0  0  0  0  0  0  0  0  0  0  0  0
    9.4450   -1.3360   24.8200 C   0  0  0  0  0  0  0  0  0  0  0  0
    8.6540   -3.6420   25.5500 C   0  0  0  0  0  0  0  0  0  0  0  0
   10.1100   -2.2500   24.0020 C   0  0  0  0  0  0  0  0  0  0  0  0
    9.6020   -4.6500   25.5330 C   0  0  0  0  0  0  0  0  0  0  0  0
    7.5950   -3.9130   26.8760 S   0  0  0  0  0  0  0  0  0  0  0  0
    9.4770   -5.6210   26.5510 C   0  0  0  0  0  0  0  0  0  0  0  0
    8.4150   -5.3360   27.3660 C   0  0  0  0  0  0  0  0  0  0  0  0
   11.2120   -1.4040   23.5250 C   0  0  0  0  0  0  0  0  0  0  0  0
   12.2000   -1.5730   22.5820 C   0  0  0  0  0  0  0  0  0  0  0  0
   11.3440    0.1440   24.2590 S   0  0  0  0  0  0  0  0  0  0  0  0
   13.0080   -0.4890   22.4690 C   0  0  0  0  0  0  0  0  0  0  0  0
   12.6900    0.5560   23.3080 C   0  0  0  0  0  0  0  0  0  0  0  0
  2  1  1  6
  2  3  1  0
  1  4  2  3
  2  5  1  0
  4  6  1  0
  3  7  1  0
  5  8  1  0
  9  6  1  1
  7 10  1  0
  7 11  2  0
  8 12  1  0
  8 13  2  0
  9 14  1  0
  9 15  1  0
 14 16  1  0
 15 17  1  0
 14 18  1  0
 16 19  1  0
 16 20  2  0
 17 21  1  0
 17 22  1  0
 18 22  1  0
 21 23  1  1
 21 24  1  0
 21 25  1  0
 24 26  1  0
 25 27  2  0
 25 28  1  0
 27 29  1  0
 28 30  1  0
 29 30  2  0
 26 31  1  0
 31 32  2  0
 31 33  1  0
 32 34  1  0
 33 35  1  0
 34 35  2  0
M  END
