x0981_1-x0874_0-x0072_0
     RDKit          3D

 26 26  0  0  0  0  0  0  0  0999 V2000
    4.0830   -5.5890   23.3350 C   0  0  0  0  0  0  0  0  0  0  0  0
    2.6720   -6.1120   23.4630 C   0  0  1  0  0  0  0  0  0  0  0  0
    2.4500   -7.2980   22.6610 N   0  0  0  0  0  0  0  0  0  0  0  0
    4.2950   -4.4400   23.8450 N   0  0  0  0  0  0  0  0  0  0  0  0
    2.3570   -6.3870   24.9200 C   0  0  0  0  0  0  0  0  0  0  0  0
    5.5790   -3.7850   23.8910 C   0  0  0  0  0  0  0  0  0  0  0  0
    1.3080   -7.5980   21.9960 C   0  0  0  0  0  0  0  0  0  0  0  0
    2.9390   -7.7410   25.3100 C   0  0  0  0  0  0  0  0  0  0  0  0
    5.8410   -3.5800   25.3890 C   0  0  0  0  0  0  0  0  0  0  0  0
    1.2400   -8.8390   21.1620 C   0  0  0  0  0  0  0  0  0  0  0  0
    0.3590   -6.8160   22.0770 O   0  0  0  0  0  0  0  0  0  0  0  0
    2.3820   -8.3430   26.4000 N   0  0  0  0  0  0  0  0  0  0  0  0
    3.8540   -8.2360   24.6840 O   0  0  0  0  0  0  0  0  0  0  0  0
    6.4930   -4.7760   26.0960 C   0  0  0  0  0  0  0  0  0  0  0  0
    8.2350   -4.4940   26.1680 S   0  0  0  0  0  0  0  0  0  0  0  0
    8.4300   -3.8800   24.6140 N   0  0  0  0  0  0  0  0  0  0  0  0
    9.0700   -5.8490   26.2600 O   0  0  0  0  0  0  0  0  0  0  0  0
    8.4120   -3.3950   27.0830 O   0  0  0  0  0  0  0  0  0  0  0  0
    9.3360   -2.8460   24.3850 C   0  0  0  0  0  0  0  0  0  0  0  0
    8.9250   -1.9350   23.2530 C   0  0  0  0  0  0  0  0  0  0  0  0
    9.8430   -1.5610   22.3040 C   0  0  0  0  0  0  0  0  0  0  0  0
   10.7020   -0.4890   22.7410 C   0  0  0  0  0  0  0  0  0  0  0  0
   11.8410    0.2970   23.0010 C   0  0  0  0  0  0  0  0  0  0  0  0
   11.5490   -1.5010   22.1380 C   0  0  0  0  0  0  0  0  0  0  0  0
   13.1570    0.0130   22.7050 C   0  0  0  0  0  0  0  0  0  0  0  0
   13.2540   -1.4390   21.9680 S   0  0  0  0  0  0  0  0  0  0  0  0
  2  1  1  1
  2  3  1  0
  1  4  2  3
  2  5  1  0
  4  6  1  0
  3  7  1  0
  5  8  1  0
  6  9  1  0
  7 10  1  0
  7 11  2  0
  8 12  1  0
  8 13  2  0
  9 14  1  0
 14 15  1  0
 15 16  1  0
 15 17  2  0
 15 18  2  0
 16 19  1  0
 19 20  1  0
 20 21  1  0
 21 22  1  0
 22 23  1  0
 22 24  2  0
 23 25  2  0
 24 26  1  0
 25 26  1  0
M  END
