x0981_1-x1418_0-x1334_1-x0434_2-x0831_0-x1334_0
     RDKit          3D

 44 47  0  0  0  0  0  0  0  0999 V2000
    4.1640   -5.3610   23.3090 C   0  0  0  0  0  0  0  0  0  0  0  0
    2.7600   -6.0320   23.5200 C   0  0  1  0  0  0  0  0  0  0  0  0
    2.5910   -7.2270   22.6910 N   0  0  0  0  0  0  0  0  0  0  0  0
    4.5240   -4.0000   23.7780 N   0  0  0  0  0  0  0  0  0  0  0  0
    2.5210   -6.3270   25.0210 C   0  0  0  0  0  0  0  0  0  0  0  0
    5.8250   -3.3300   23.6300 C   0  0  0  0  0  0  0  0  0  0  0  0
    1.3640   -7.4840   22.1050 C   0  0  0  0  0  0  0  0  0  0  0  0
    3.0320   -7.7410   25.2800 C   0  0  0  0  0  0  0  0  0  0  0  0
    6.7100   -3.7480   22.4360 C   0  0  1  0  0  0  0  0  0  0  0  0
    1.2680   -8.7610   21.3040 C   0  0  0  0  0  0  0  0  0  0  0  0
    0.4190   -6.7100   22.2100 O   0  0  0  0  0  0  0  0  0  0  0  0
    2.4260   -8.4320   26.2880 N   0  0  0  0  0  0  0  0  0  0  0  0
    3.9310   -8.2100   24.6240 O   0  0  0  0  0  0  0  0  0  0  0  0
    6.6290   -2.8210   21.2680 N   0  0  0  0  0  0  0  0  0  0  0  0
    8.0560   -3.7640   22.8920 C   0  0  0  0  0  0  0  0  0  0  0  0
    6.3650   -3.3260   19.9760 C   0  0  0  0  0  0  0  0  0  0  0  0
    8.6170   -2.4140   23.1360 N   0  0  0  0  0  0  0  0  0  0  0  0
    7.3320   -1.5440   21.5120 C   0  0  2  0  0  0  0  0  0  0  0  0
    7.3130   -2.9900   18.8290 C   0  0  0  0  0  0  0  0  0  0  0  0
    5.4100   -4.0830   19.7290 O   0  0  0  0  0  0  0  0  0  0  0  0
    9.9050   -2.2960   23.8390 C   0  0  1  0  0  0  0  0  0  0  0  0
    7.4570   -0.8620   20.2940 N   0  0  0  0  0  0  0  0  0  0  0  0
    8.5730   -1.7070   21.9100 C   0  0  0  0  0  0  0  0  0  0  0  0
    9.5840   -2.4030   25.2510 C   0  0  0  0  0  0  0  0  0  0  0  0
   10.7840   -3.5030   23.7100 C   0  0  0  0  0  0  0  0  0  0  0  0
   10.7280   -1.0070   23.6150 C   0  0  0  0  0  0  0  0  0  0  0  0
    6.5330   -0.0650   19.6650 C   0  0  0  0  0  0  0  0  0  0  0  0
   10.1600    0.0780   24.1720 C   0  0  0  0  0  0  0  0  0  0  0  0
   12.0650   -0.8980   22.8700 C   0  0  0  0  0  0  0  0  0  0  0  0
    9.2410   -3.7400   25.8920 C   0  0  0  0  0  0  0  0  0  0  0  0
    6.9510    0.2510   18.4270 C   0  0  0  0  0  0  0  0  0  0  0  0
    5.3190    0.3940   20.1630 C   0  0  0  0  0  0  0  0  0  0  0  0
   12.8140   -1.9990   22.1910 C   0  0  0  0  0  0  0  0  0  0  0  0
   10.6860    1.5060   24.1710 C   0  0  0  0  0  0  0  0  0  0  0  0
   12.6300    0.5240   22.8660 C   0  0  0  0  0  0  0  0  0  0  0  0
    9.8330   -4.9740   25.7960 C   0  0  0  0  0  0  0  0  0  0  0  0
    7.8990   -3.8850   26.9890 S   0  0  0  0  0  0  0  0  0  0  0  0
    6.2860    1.0090   17.5710 N   0  0  0  0  0  0  0  0  0  0  0  0
    4.6110    1.1880   19.2740 C   0  0  0  0  0  0  0  0  0  0  0  0
   11.9220    1.6660   23.5100 C   0  0  0  0  0  0  0  0  0  0  0  0
    9.2730   -5.9460   26.5570 C   0  0  0  0  0  0  0  0  0  0  0  0
    8.1510   -5.5250   27.3330 C   0  0  0  0  0  0  0  0  0  0  0  0
    5.1040    1.4750   18.0150 C   0  0  0  0  0  0  0  0  0  0  0  0
    7.0990   -6.2770   28.4480 Cl  0  0  0  0  0  0  0  0  0  0  0  0
  2  1  1  1
  2  3  1  0
  1  4  2  3
  2  5  1  0
  4  6  1  0
  3  7  1  0
  5  8  1  0
  9  6  1  1
  7 10  1  0
  7 11  2  0
  8 12  1  0
  8 13  2  0
  9 14  1  0
  9 15  1  0
 14 16  1  0
 15 17  1  0
 14 18  1  0
 16 19  1  0
 16 20  2  0
 17 21  1  0
 18 22  1  6
 17 23  1  0
 18 23  1  0
 21 24  1  0
 21 25  1  6
 21 26  1  0
 22 27  1  0
 26 28  2  0
 26 29  1  0
 24 30  1  0
 27 31  2  0
 27 32  1  0
 29 33  1  0
 28 34  1  0
 29 35  2  0
 30 36  2  0
 30 37  1  0
 31 38  1  0
 32 39  2  0
 34 40  2  0
 35 40  1  0
 36 41  1  0
 37 42  1  0
 41 42  2  0
 38 43  2  0
 39 43  1  0
 42 44  1  0
M  END
