x0981_1-x1386_0-x1412_1-x1412_0-x0978_1-x0434_2
     RDKit          3D

 42 45  0  0  0  0  0  0  0  0999 V2000
    4.2050   -5.8300   23.1170 C   0  0  0  0  0  0  0  0  0  0  0  0
    2.7790   -6.0190   23.6110 C   0  0  1  0  0  0  0  0  0  0  0  0
    2.2830   -7.1280   22.8120 N   0  0  0  0  0  0  0  0  0  0  0  0
    4.5090   -4.8850   22.3150 N   0  0  0  0  0  0  0  0  0  0  0  0
    2.6610   -6.2690   25.1350 C   0  0  0  0  0  0  0  0  0  0  0  0
    5.9270   -4.9550   21.9820 C   0  0  0  0  0  0  0  0  0  0  0  0
    1.0050   -7.1300   22.2920 C   0  0  0  0  0  0  0  0  0  0  0  0
    3.0840   -7.6820   25.3460 C   0  0  0  0  0  0  0  0  0  0  0  0
    6.5090   -3.7310   22.3170 C   0  0  2  0  0  0  0  0  0  0  0  0
    0.7880   -8.4690   21.6260 C   0  0  0  0  0  0  0  0  0  0  0  0
    0.6010   -6.1360   21.7240 O   0  0  0  0  0  0  0  0  0  0  0  0
    2.4520   -8.3810   26.3370 N   0  0  0  0  0  0  0  0  0  0  0  0
    3.9550   -8.1770   24.6600 O   0  0  0  0  0  0  0  0  0  0  0  0
    0.0720   -7.0190   23.4940 C   0  0  0  0  0  0  0  0  0  0  0  0
    6.7120   -2.8670   21.1300 N   0  0  0  0  0  0  0  0  0  0  0  0
    7.7960   -3.9790   23.1270 C   0  0  0  0  0  0  0  0  0  0  0  0
    6.3900   -3.3670   19.8670 C   0  0  0  0  0  0  0  0  0  0  0  0
    8.3910   -2.7010   23.4650 N   0  0  0  0  0  0  0  0  0  0  0  0
    7.7010   -1.7740   21.2070 C   0  0  1  0  0  0  0  0  0  0  0  0
    7.3650   -3.0170   18.7500 C   0  0  0  0  0  0  0  0  0  0  0  0
    5.3940   -4.0730   19.6860 O   0  0  0  0  0  0  0  0  0  0  0  0
    9.2020   -2.6100   24.6550 C   0  0  2  0  0  0  0  0  0  0  0  0
    6.9810   -0.5370   21.3930 N   0  0  0  0  0  0  0  0  0  0  0  0
    8.8210   -1.9800   22.2270 C   0  0  0  0  0  0  0  0  0  0  0  0
    9.0400   -1.4800   25.1310 O   0  0  0  0  0  0  0  0  0  0  0  0
   10.5490   -2.8100   24.3480 C   0  0  0  0  0  0  0  0  0  0  0  0
    8.9020   -3.7170   25.7170 C   0  0  0  0  0  0  0  0  0  0  0  0
    6.3550    0.1120   20.2150 C   0  0  0  0  0  0  0  0  0  0  0  0
    9.7290   -4.9750   25.5700 C   0  0  0  0  0  0  0  0  0  0  0  0
    7.8220   -3.8500   27.0700 S   0  0  0  0  0  0  0  0  0  0  0  0
   11.2180   -1.5390   23.9810 C   0  0  0  0  0  0  0  0  0  0  0  0
    6.9230    0.0440   18.8280 C   0  0  0  0  0  0  0  0  0  0  0  0
    5.1800    0.8370   20.3220 C   0  0  0  0  0  0  0  0  0  0  0  0
    9.3940   -5.8580   26.5450 C   0  0  0  0  0  0  0  0  0  0  0  0
    8.3900   -5.4350   27.4530 C   0  0  0  0  0  0  0  0  0  0  0  0
   12.2180   -1.6160   23.0380 C   0  0  0  0  0  0  0  0  0  0  0  0
   10.9730   -0.1290   24.4960 C   0  0  0  0  0  0  0  0  0  0  0  0
    6.4030    0.6200   17.7470 N   0  0  0  0  0  0  0  0  0  0  0  0
    4.6070    1.4500   19.1930 C   0  0  0  0  0  0  0  0  0  0  0  0
   12.7730   -0.3690   22.7790 C   0  0  0  0  0  0  0  0  0  0  0  0
   12.0710    0.9320   23.6930 S   0  0  0  0  0  0  0  0  0  0  0  0
    5.2600    1.3070   17.9540 C   0  0  0  0  0  0  0  0  0  0  0  0
  2  1  1  1
  2  3  1  0
  1  4  2  3
  2  5  1  0
  4  6  1  0
  3  7  1  0
  5  8  1  0
  9  6  1  6
  7 10  1  0
  7 11  1  0
  8 12  1  0
  8 13  2  0
  7 14  1  0
  9 15  1  0
  9 16  1  0
 15 17  1  0
 16 18  1  0
 15 19  1  0
 17 20  1  0
 17 21  2  0
 18 22  1  0
 19 23  1  1
 18 24  1  0
 19 24  1  0
 22 25  1  1
 22 26  1  0
 22 27  1  0
 23 28  1  0
 27 29  2  0
 27 30  1  0
 26 31  1  0
 28 32  2  0
 28 33  1  0
 29 34  1  0
 30 35  1  0
 34 35  2  0
 31 36  1  0
 31 37  2  0
 32 38  1  0
 33 39  2  0
 36 40  2  0
 37 41  1  0
 40 41  1  0
 38 42  2  0
 39 42  1  0
M  END
