x0981_1-x1418_1-x0831_0
     RDKit          3D

 29 30  0  0  0  0  0  0  0  0999 V2000
    4.1230   -5.8490   22.9440 C   0  0  0  0  0  0  0  0  0  0  0  0
    2.7300   -6.1530   23.4580 C   0  0  1  0  0  0  0  0  0  0  0  0
    2.3210   -7.4390   22.8920 N   0  0  0  0  0  0  0  0  0  0  0  0
    4.7630   -4.7440   22.9350 N   0  0  0  0  0  0  0  0  0  0  0  0
    2.7670   -6.2520   24.9810 C   0  0  0  0  0  0  0  0  0  0  0  0
    6.0850   -4.7490   22.3330 C   0  0  0  0  0  0  0  0  0  0  0  0
    1.2150   -7.5020   22.0840 C   0  0  0  0  0  0  0  0  0  0  0  0
    3.1610   -7.6540   25.3170 C   0  0  0  0  0  0  0  0  0  0  0  0
    6.6850   -3.3380   22.4140 C   0  0  1  0  0  0  0  0  0  0  0  0
    1.1520   -8.7530   21.2540 C   0  0  0  0  0  0  0  0  0  0  0  0
    0.3660   -6.6200   22.0320 O   0  0  0  0  0  0  0  0  0  0  0  0
    2.5310   -8.2490   26.3720 N   0  0  0  0  0  0  0  0  0  0  0  0
    4.0090   -8.2110   24.6560 O   0  0  0  0  0  0  0  0  0  0  0  0
    8.0950   -3.4350   23.0210 C   0  0  0  0  0  0  0  0  0  0  0  0
    6.6980   -2.6410   21.1040 N   0  0  0  0  0  0  0  0  0  0  0  0
    6.4250   -3.2740   19.8700 C   0  0  0  0  0  0  0  0  0  0  0  0
    8.7760   -2.1380   23.0260 N   0  0  0  0  0  0  0  0  0  0  0  0
    7.5710   -1.4480   21.0810 C   0  0  0  0  0  0  0  0  0  0  0  0
    7.4020   -2.9800   18.7420 C   0  0  0  0  0  0  0  0  0  0  0  0
    5.4700   -4.0480   19.7200 O   0  0  0  0  0  0  0  0  0  0  0  0
   10.1470   -2.3380   23.5160 C   0  0  0  0  0  0  0  0  0  0  0  0
    8.8210   -1.6670   21.6290 C   0  0  0  0  0  0  0  0  0  0  0  0
   10.9080   -1.0350   23.5030 C   0  0  0  0  0  0  0  0  0  0  0  0
   10.3210    0.0700   24.1380 C   0  0  0  0  0  0  0  0  0  0  0  0
   12.1570   -0.8850   22.8800 C   0  0  0  0  0  0  0  0  0  0  0  0
   12.8460   -2.0100   22.1740 C   0  0  0  0  0  0  0  0  0  0  0  0
   10.9590    1.3000   24.1450 C   0  0  0  0  0  0  0  0  0  0  0  0
   12.7880    0.3600   22.9060 C   0  0  0  0  0  0  0  0  0  0  0  0
   12.1910    1.4420   23.5290 C   0  0  0  0  0  0  0  0  0  0  0  0
  2  1  1  6
  2  3  1  0
  1  4  2  3
  2  5  1  0
  4  6  1  0
  3  7  1  0
  5  8  1  0
  9  6  1  6
  7 10  1  0
  7 11  2  0
  8 12  1  0
  8 13  2  0
  9 14  1  0
  9 15  1  0
 15 16  1  0
 14 17  1  0
 15 18  1  0
 16 19  1  0
 16 20  2  0
 17 21  1  0
 17 22  1  0
 18 22  1  0
 21 23  1  0
 23 24  2  0
 23 25  1  0
 25 26  1  0
 24 27  1  0
 25 28  2  0
 27 29  2  0
 28 29  1  0
M  END
