x0981_1-x1412_0-x0831_1-x0831_0
     RDKit          3D

 38 40  0  0  0  0  0  0  0  0999 V2000
    4.1960   -5.3840   23.3230 C   0  0  0  0  0  0  0  0  0  0  0  0
    2.8090   -6.0060   23.5240 C   0  0  1  0  0  0  0  0  0  0  0  0
    2.5970   -7.2160   22.7150 N   0  0  0  0  0  0  0  0  0  0  0  0
    4.3410   -4.1650   23.7730 N   0  0  0  0  0  0  0  0  0  0  0  0
    2.5920   -6.3150   25.0010 C   0  0  0  0  0  0  0  0  0  0  0  0
    5.6230   -3.4310   23.6880 C   0  0  0  0  0  0  0  0  0  0  0  0
    1.3740   -7.4520   22.1330 C   0  0  0  0  0  0  0  0  0  0  0  0
    3.0730   -7.7070   25.2630 C   0  0  0  0  0  0  0  0  0  0  0  0
    6.4530   -3.7750   22.4380 C   0  0  1  0  0  0  0  0  0  0  0  0
    1.2350   -8.7380   21.3600 C   0  0  0  0  0  0  0  0  0  0  0  0
    0.4440   -6.6520   22.2150 O   0  0  0  0  0  0  0  0  0  0  0  0
    2.4730   -8.3790   26.2940 N   0  0  0  0  0  0  0  0  0  0  0  0
    3.9550   -8.1950   24.5910 O   0  0  0  0  0  0  0  0  0  0  0  0
    6.2140   -3.0220   21.3610 N   0  0  0  0  0  0  0  0  0  0  0  0
    7.7730   -3.6930   22.8110 C   0  0  0  0  0  0  0  0  0  0  0  0
    6.0810   -3.5110   20.0600 C   0  0  0  0  0  0  0  0  0  0  0  0
    8.0980   -2.4020   23.3810 N   0  0  0  0  0  0  0  0  0  0  0  0
    6.2540   -1.5570   21.5040 C   0  0  0  0  0  0  0  0  0  0  0  0
    5.2360   -4.3480   19.7940 O   0  0  0  0  0  0  0  0  0  0  0  0
    7.0250   -3.0360   18.9610 C   0  0  0  0  0  0  0  0  0  0  0  0
    8.4070   -2.3310   24.8330 C   0  0  2  0  0  0  0  0  0  0  0  0
    8.6030   -1.4880   22.5000 C   0  0  0  0  0  0  0  0  0  0  0  0
    7.5580   -1.0540   21.4630 C   0  0  0  0  0  0  0  0  0  0  0  0
    7.6850   -1.6040   25.4990 O   0  0  0  0  0  0  0  0  0  0  0  0
    9.6590   -1.8630   25.0210 C   0  0  0  0  0  0  0  0  0  0  0  0
    8.5390   -3.6400   25.6640 C   0  0  0  0  0  0  0  0  0  0  0  0
   10.6170   -2.0510   23.8770 C   0  0  0  0  0  0  0  0  0  0  0  0
    9.4580   -4.6480   25.5040 C   0  0  0  0  0  0  0  0  0  0  0  0
    7.5450   -4.0810   27.0140 S   0  0  0  0  0  0  0  0  0  0  0  0
    9.4080   -5.6860   26.3490 C   0  0  0  0  0  0  0  0  0  0  0  0
    8.3780   -5.5250   27.2760 C   0  0  0  0  0  0  0  0  0  0  0  0
   11.2120   -0.8950   23.6720 C   0  0  0  0  0  0  0  0  0  0  0  0
   10.5850    0.2550   24.1700 C   0  0  0  0  0  0  0  0  0  0  0  0
   12.4060   -0.8220   22.9970 C   0  0  0  0  0  0  0  0  0  0  0  0
   13.0820   -2.0320   22.4460 C   0  0  0  0  0  0  0  0  0  0  0  0
   11.1050    1.4780   24.0190 C   0  0  0  0  0  0  0  0  0  0  0  0
   13.0510    0.5290   22.8090 C   0  0  0  0  0  0  0  0  0  0  0  0
   12.2620    1.6970   23.3930 C   0  0  0  0  0  0  0  0  0  0  0  0
  2  1  1  1
  2  3  1  0
  1  4  2  3
  2  5  1  0
  4  6  1  0
  3  7  1  0
  5  8  1  0
  9  6  1  1
  7 10  1  0
  7 11  2  0
  8 12  1  0
  8 13  2  0
  9 14  1  0
  9 15  1  0
 14 16  1  0
 15 17  1  0
 14 18  1  0
 16 19  2  0
 16 20  1  0
 17 21  1  0
 17 22  1  0
 18 23  1  0
 22 23  1  0
 21 24  1  1
 21 25  1  0
 21 26  1  0
 25 27  1  0
 26 28  2  0
 26 29  1  0
 28 30  1  0
 29 31  1  0
 30 31  2  0
 27 32  1  0
 32 33  2  0
 32 34  1  0
 34 35  1  0
 33 36  1  0
 34 37  2  0
 36 38  2  0
 37 38  1  0
M  END
