x0981_1-x1418_1-x1418_0-x1412_0
     RDKit          3D

 35 37  0  0  0  0  0  0  0  0999 V2000
    4.1140   -5.2350   23.2810 C   0  0  0  0  0  0  0  0  0  0  0  0
    2.8270   -6.0230   23.5860 C   0  0  1  0  0  0  0  0  0  0  0  0
    2.5750   -7.2180   22.7700 N   0  0  0  0  0  0  0  0  0  0  0  0
    4.3130   -4.0060   23.6770 N   0  0  0  0  0  0  0  0  0  0  0  0
    2.7120   -6.2750   25.0890 C   0  0  0  0  0  0  0  0  0  0  0  0
    5.5030   -3.1650   23.4310 C   0  0  0  0  0  0  0  0  0  0  0  0
    1.3630   -7.4360   22.1370 C   0  0  0  0  0  0  0  0  0  0  0  0
    3.1030   -7.7010   25.3020 C   0  0  0  0  0  0  0  0  0  0  0  0
    6.5160   -3.7690   22.4310 C   0  0  2  0  0  0  0  0  0  0  0  0
    1.2430   -8.7310   21.3650 C   0  0  0  0  0  0  0  0  0  0  0  0
    0.4420   -6.6260   22.1790 O   0  0  0  0  0  0  0  0  0  0  0  0
    2.4410   -8.3990   26.2740 N   0  0  0  0  0  0  0  0  0  0  0  0
    3.9850   -8.1860   24.6230 O   0  0  0  0  0  0  0  0  0  0  0  0
    7.7780   -4.1430   22.8740 C   0  0  0  0  0  0  0  0  0  0  0  0
    6.6510   -2.8940   21.2430 N   0  0  0  0  0  0  0  0  0  0  0  0
    6.4070   -3.3230   19.9400 C   0  0  0  0  0  0  0  0  0  0  0  0
    8.6460   -2.9850   23.1920 N   0  0  0  0  0  0  0  0  0  0  0  0
    7.4670   -1.6830   21.4950 C   0  0  0  0  0  0  0  0  0  0  0  0
    7.3930   -2.9980   18.8270 C   0  0  0  0  0  0  0  0  0  0  0  0
    5.4160   -4.0290   19.6900 O   0  0  0  0  0  0  0  0  0  0  0  0
    8.8260   -2.6430   24.6460 C   0  0  2  0  0  0  0  0  0  0  0  0
    8.7010   -1.9150   22.1670 C   0  0  0  0  0  0  0  0  0  0  0  0
    8.2190   -1.6830   25.1480 O   0  0  0  0  0  0  0  0  0  0  0  0
   10.2820   -2.3910   25.0160 C   0  0  0  0  0  0  0  0  0  0  0  0
    8.6080   -3.7870   25.6950 C   0  0  0  0  0  0  0  0  0  0  0  0
   10.2050   -2.3580   23.6490 C   0  0  0  0  0  0  0  0  0  0  0  0
    9.4440   -4.8910   25.5320 C   0  0  0  0  0  0  0  0  0  0  0  0
    7.5740   -3.9630   27.0370 S   0  0  0  0  0  0  0  0  0  0  0  0
    9.2970   -5.8790   26.4430 C   0  0  0  0  0  0  0  0  0  0  0  0
    8.2960   -5.4970   27.3400 C   0  0  0  0  0  0  0  0  0  0  0  0
   11.2000   -1.2960   23.3790 C   0  0  0  0  0  0  0  0  0  0  0  0
   12.3320   -1.2880   22.5860 C   0  0  0  0  0  0  0  0  0  0  0  0
   10.9810    0.2170   24.1730 S   0  0  0  0  0  0  0  0  0  0  0  0
   12.9970   -0.0950   22.6240 C   0  0  0  0  0  0  0  0  0  0  0  0
   12.3820    0.8730   23.4610 C   0  0  0  0  0  0  0  0  0  0  0  0
  2  1  1  1
  2  3  1  0
  1  4  2  3
  2  5  1  0
  4  6  1  0
  3  7  1  0
  5  8  1  0
  9  6  1  1
  7 10  1  0
  7 11  2  0
  8 12  1  0
  8 13  2  0
  9 14  1  0
  9 15  1  0
 15 16  1  0
 14 17  1  0
 15 18  1  0
 16 19  1  0
 16 20  2  0
 17 21  1  0
 17 22  1  0
 18 22  1  0
 21 23  1  1
 21 24  1  0
 21 25  1  0
 24 26  1  0
 25 27  2  0
 25 28  1  0
 27 29  1  0
 28 30  1  0
 29 30  2  0
 26 31  1  0
 31 32  2  0
 31 33  1  0
 32 34  1  0
 33 35  1  0
 34 35  2  0
M  END
