x0981_1-x1412_0-x1418_0-x1412_1
     RDKit          3D

 35 38  0  0  0  0  0  0  0  0999 V2000
    4.0120   -5.2310   23.2810 C   0  0  0  0  0  0  0  0  0  0  0  0
    2.7400   -5.9710   23.5930 C   0  0  1  0  0  0  0  0  0  0  0  0
    2.6130   -7.1970   22.7920 N   0  0  0  0  0  0  0  0  0  0  0  0
    4.2550   -3.9220   23.6890 N   0  0  0  0  0  0  0  0  0  0  0  0
    2.6660   -6.3160   25.0870 C   0  0  0  0  0  0  0  0  0  0  0  0
    5.4920   -3.1720   23.3800 C   0  0  0  0  0  0  0  0  0  0  0  0
    1.3240   -7.4850   22.0950 C   0  0  0  0  0  0  0  0  0  0  0  0
    3.1080   -7.7230   25.2870 C   0  0  0  0  0  0  0  0  0  0  0  0
    6.4380   -3.9070   22.3460 C   0  0  1  0  0  0  0  0  0  0  0  0
    1.2300   -8.7850   21.2710 C   0  0  0  0  0  0  0  0  0  0  0  0
    0.3720   -6.7150   22.1460 O   0  0  0  0  0  0  0  0  0  0  0  0
    2.4400   -8.4120   26.2600 N   0  0  0  0  0  0  0  0  0  0  0  0
    3.9960   -8.2060   24.6310 O   0  0  0  0  0  0  0  0  0  0  0  0
    6.9000   -3.1220   21.3140 N   0  0  0  0  0  0  0  0  0  0  0  0
    7.4340   -4.3660   23.2180 C   0  0  0  0  0  0  0  0  0  0  0  0
    6.5100   -3.4530   20.0030 C   0  0  0  0  0  0  0  0  0  0  0  0
    8.0730   -3.2470   23.5500 N   0  0  0  0  0  0  0  0  0  0  0  0
    7.9890   -2.1350   21.6400 C   0  0  0  0  0  0  0  0  0  0  0  0
    7.3940   -3.0200   18.8530 C   0  0  0  0  0  0  0  0  0  0  0  0
    5.4920   -4.1230   19.7610 O   0  0  0  0  0  0  0  0  0  0  0  0
    8.3820   -2.8620   24.8520 C   0  0  2  0  0  0  0  0  0  0  0  0
    8.9160   -2.6790   22.5700 C   0  0  1  0  0  0  0  0  0  0  0  0
    7.5950   -2.0620   25.3720 O   0  0  0  0  0  0  0  0  0  0  0  0
    9.6120   -1.6770   23.5090 C   0  0  1  0  0  0  0  0  0  0  0  0
    9.7930   -2.3710   24.6880 C   0  0  0  0  0  0  0  0  0  0  0  0
    8.5310   -3.8940   25.7770 C   0  0  0  0  0  0  0  0  0  0  0  0
    9.3580   -4.9610   25.4800 C   0  0  0  0  0  0  0  0  0  0  0  0
    7.8320   -4.0910   27.3340 S   0  0  0  0  0  0  0  0  0  0  0  0
   10.8550   -1.0840   23.1800 C   0  0  0  0  0  0  0  0  0  0  0  0
    9.4350   -5.9080   26.4560 C   0  0  0  0  0  0  0  0  0  0  0  0
    8.6570   -5.5930   27.5580 C   0  0  0  0  0  0  0  0  0  0  0  0
   11.8650   -1.4540   22.3910 C   0  0  0  0  0  0  0  0  0  0  0  0
   11.1400    0.4280   23.9670 S   0  0  0  0  0  0  0  0  0  0  0  0
   12.9880   -0.4540   22.3840 C   0  0  0  0  0  0  0  0  0  0  0  0
   12.6790    0.7100   23.2690 C   0  0  0  0  0  0  0  0  0  0  0  0
  2  1  1  1
  2  3  1  0
  1  4  2  3
  2  5  1  0
  4  6  1  0
  3  7  1  0
  5  8  1  0
  9  6  1  1
  7 10  1  0
  7 11  2  0
  8 12  1  0
  8 13  2  0
  9 14  1  0
  9 15  1  0
 14 16  1  0
 15 17  1  0
 14 18  1  0
 16 19  1  0
 16 20  2  0
 17 21  1  0
 17 22  1  0
 22 18  1  6
 21 23  1  1
 22 24  1  0
 21 25  1  0
 24 25  1  0
 21 26  1  0
 26 27  2  0
 26 28  1  0
 24 29  1  6
 27 30  1  0
 28 31  1  0
 30 31  2  0
 29 32  2  0
 29 33  1  0
 32 34  1  0
 33 35  1  0
 34 35  2  0
M  END
