x0981_1-x1412_0-x1348_0
     RDKit          3D

 26 26  0  0  0  0  0  0  0  0999 V2000
    4.3210   -6.0560   22.9710 C   0  0  0  0  0  0  0  0  0  0  0  0
    2.8780   -6.1200   23.4410 C   0  0  1  0  0  0  0  0  0  0  0  0
    2.4200   -7.3620   22.8190 N   0  0  0  0  0  0  0  0  0  0  0  0
    4.9590   -4.9720   22.7080 N   0  0  0  0  0  0  0  0  0  0  0  0
    2.7610   -6.2280   24.9550 C   0  0  0  0  0  0  0  0  0  0  0  0
    6.2960   -5.3690   22.2260 C   0  0  0  0  0  0  0  0  0  0  0  0
    1.2470   -7.4360   22.1340 C   0  0  0  0  0  0  0  0  0  0  0  0
    3.1590   -7.6320   25.3010 C   0  0  0  0  0  0  0  0  0  0  0  0
    7.1220   -4.2550   22.1850 C   0  0  1  0  0  0  0  0  0  0  0  0
    1.0810   -8.6970   21.3290 C   0  0  0  0  0  0  0  0  0  0  0  0
    0.3990   -6.5460   22.1490 O   0  0  0  0  0  0  0  0  0  0  0  0
    2.5540   -8.2160   26.3800 N   0  0  0  0  0  0  0  0  0  0  0  0
    3.9890   -8.2040   24.6330 O   0  0  0  0  0  0  0  0  0  0  0  0
    6.6470   -3.2920   21.3570 N   0  0  0  0  0  0  0  0  0  0  0  0
    7.1100   -3.6800   23.5430 C   0  0  0  0  0  0  0  0  0  0  0  0
    6.3310   -3.5590   20.0330 C   0  0  0  0  0  0  0  0  0  0  0  0
    7.9960   -2.6280   23.6680 C   0  0  0  0  0  0  0  0  0  0  0  0
    5.3300   -4.2010   19.7500 O   0  0  0  0  0  0  0  0  0  0  0  0
    7.2850   -3.0620   18.9560 C   0  0  0  0  0  0  0  0  0  0  0  0
    8.3200   -2.3870   25.1200 C   0  0  0  0  0  0  0  0  0  0  0  0
    8.3770   -1.2590   25.5820 O   0  0  0  0  0  0  0  0  0  0  0  0
    8.5240   -3.6760   25.8550 C   0  0  0  0  0  0  0  0  0  0  0  0
    9.3600   -4.8810   25.4370 C   0  0  0  0  0  0  0  0  0  0  0  0
    7.7800   -3.9780   27.4000 S   0  0  0  0  0  0  0  0  0  0  0  0
    9.3430   -5.8880   26.3390 C   0  0  0  0  0  0  0  0  0  0  0  0
    8.4720   -5.5400   27.5540 C   0  0  0  0  0  0  0  0  0  0  0  0
  2  1  1  1
  2  3  1  0
  1  4  2  3
  2  5  1  0
  4  6  1  0
  3  7  1  0
  5  8  1  0
  9  6  1  1
  7 10  1  0
  7 11  2  0
  8 12  1  0
  8 13  2  0
  9 14  1  0
  9 15  1  0
 14 16  1  0
 15 17  1  0
 16 18  2  0
 16 19  1  0
 17 20  1  0
 20 21  2  0
 20 22  1  0
 22 23  2  0
 22 24  1  0
 23 25  1  0
 24 26  1  0
 25 26  2  0
M  END
