x0981_1-x1412_0-x0831_1
     RDKit          3D

 29 30  0  0  0  0  0  0  0  0999 V2000
    4.3490   -5.4670   23.3100 C   0  0  0  0  0  0  0  0  0  0  0  0
    2.9680   -6.0680   23.5420 C   0  0  1  0  0  0  0  0  0  0  0  0
    2.6340   -7.3150   22.8380 N   0  0  0  0  0  0  0  0  0  0  0  0
    4.5520   -4.2610   23.7390 N   0  0  0  0  0  0  0  0  0  0  0  0
    2.7350   -6.2190   25.0380 C   0  0  0  0  0  0  0  0  0  0  0  0
    5.8170   -3.5150   23.6550 C   0  0  0  0  0  0  0  0  0  0  0  0
    1.4380   -7.5670   22.0620 C   0  0  0  0  0  0  0  0  0  0  0  0
    3.1260   -7.6270   25.3580 C   0  0  0  0  0  0  0  0  0  0  0  0
    6.6450   -3.7310   22.3570 C   0  0  1  0  0  0  0  0  0  0  0  0
    1.1990   -8.8130   21.2010 C   0  0  0  0  0  0  0  0  0  0  0  0
    0.4330   -6.5520   22.0930 O   0  0  0  0  0  0  0  0  0  0  0  0
    2.5290   -8.2180   26.4340 N   0  0  0  0  0  0  0  0  0  0  0  0
    3.9500   -8.1850   24.6570 O   0  0  0  0  0  0  0  0  0  0  0  0
    6.2210   -2.8430   21.2440 N   0  0  0  0  0  0  0  0  0  0  0  0
    7.9860   -3.7250   22.7130 C   0  0  0  0  0  0  0  0  0  0  0  0
    6.1610   -3.4420   19.9910 C   0  0  0  0  0  0  0  0  0  0  0  0
    8.3980   -2.4940   23.3810 N   0  0  0  0  0  0  0  0  0  0  0  0
    6.4620   -1.4070   21.4410 C   0  0  0  0  0  0  0  0  0  0  0  0
    5.3150   -4.3060   19.7880 O   0  0  0  0  0  0  0  0  0  0  0  0
    7.1760   -3.0160   18.9160 C   0  0  0  0  0  0  0  0  0  0  0  0
    8.4800   -2.3780   24.7740 C   0  0  0  0  0  0  0  0  0  0  0  0
    8.7500   -1.3580   22.4870 C   0  0  0  0  0  0  0  0  0  0  0  0
    7.8080   -1.0230   21.3440 C   0  0  0  0  0  0  0  0  0  0  0  0
    8.4300   -1.2720   25.3100 O   0  0  0  0  0  0  0  0  0  0  0  0
    8.6070   -3.6020   25.5650 C   0  0  0  0  0  0  0  0  0  0  0  0
    9.3640   -4.7470   25.2940 C   0  0  0  0  0  0  0  0  0  0  0  0
    7.7810   -3.8330   27.0720 S   0  0  0  0  0  0  0  0  0  0  0  0
    9.2770   -5.7360   26.2580 C   0  0  0  0  0  0  0  0  0  0  0  0
    8.4450   -5.4100   27.3200 C   0  0  0  0  0  0  0  0  0  0  0  0
  2  1  1  1
  2  3  1  0
  1  4  2  3
  2  5  1  0
  4  6  1  0
  3  7  1  0
  5  8  1  0
  9  6  1  1
  7 10  1  0
  7 11  2  0
  8 12  1  0
  8 13  2  0
  9 14  1  0
  9 15  1  0
 14 16  1  0
 15 17  1  0
 14 18  1  0
 16 19  2  0
 16 20  1  0
 17 21  1  0
 17 22  1  0
 18 23  1  0
 22 23  1  0
 21 24  2  0
 21 25  1  0
 25 26  2  0
 25 27  1  0
 26 28  1  0
 27 29  1  0
 28 29  2  0
M  END
