x0981_1-x0749_1
     RDKit          3D

 20 20  0  0  0  0  0  0  0  0999 V2000
    4.7290   -5.1630   23.2230 C   0  0  0  0  0  0  0  0  0  0  0  0
    3.3010   -5.8180   23.4230 C   0  0  1  0  0  0  0  0  0  0  0  0
    2.9440   -7.0490   22.6890 N   0  0  0  0  0  0  0  0  0  0  0  0
    5.0040   -4.2330   23.9820 O   0  0  0  0  0  0  0  0  0  0  0  0
    5.7760   -5.5870   22.1730 C   0  0  1  0  0  0  0  0  0  0  0  0
    2.9520   -6.1290   24.9050 C   0  0  0  0  0  0  0  0  0  0  0  0
    6.3890   -4.4920   21.5880 N   0  0  0  0  0  0  0  0  0  0  0  0
    6.7640   -6.3780   22.6260 C   0  0  0  0  0  0  0  0  0  0  0  0
    1.6260   -7.2870   22.2820 C   0  0  0  0  0  0  0  0  0  0  0  0
    3.2220   -7.5780   25.2190 C   0  0  0  0  0  0  0  0  0  0  0  0
    6.0960   -4.1140   20.2930 C   0  0  0  0  0  0  0  0  0  0  0  0
    7.5230   -3.7910   22.2600 C   0  0  0  0  0  0  0  0  0  0  0  0
    7.3140   -5.6460   23.8400 C   0  0  0  0  0  0  0  0  0  0  0  0
    1.3140   -8.5910   21.5730 C   0  0  0  0  0  0  0  0  0  0  0  0
    0.7340   -6.4590   22.4580 O   0  0  0  0  0  0  0  0  0  0  0  0
    2.4650   -8.2070   26.3100 N   0  0  0  0  0  0  0  0  0  0  0  0
    4.0520   -8.1690   24.5660 O   0  0  0  0  0  0  0  0  0  0  0  0
    7.0150   -3.2000   19.4600 C   0  0  0  0  0  0  0  0  0  0  0  0
    5.0730   -4.5000   19.8010 O   0  0  0  0  0  0  0  0  0  0  0  0
    7.7340   -4.2380   23.5610 C   0  0  0  0  0  0  0  0  0  0  0  0
  1  2  1  0
  2  3  1  0
  1  4  2  0
  5  1  1  1
  2  6  1  1
  5  7  1  0
  5  8  1  0
  3  9  1  0
  6 10  1  0
  7 11  1  0
  7 12  1  0
  8 13  1  0
  9 14  1  0
  9 15  2  0
 10 16  1  0
 10 17  2  0
 11 18  1  0
 11 19  2  0
 12 20  1  0
 13 20  1  0
M  END
