x0981_1-x1386_0-x1412_0-x1418_0-x0692_1
     RDKit          3D

 35 37  0  0  0  0  0  0  0  0999 V2000
    4.1730   -5.9160   22.9410 C   0  0  0  0  0  0  0  0  0  0  0  0
    2.8090   -6.2350   23.4790 C   0  0  1  0  0  0  0  0  0  0  0  0
    2.3500   -7.5160   22.9390 N   0  0  0  0  0  0  0  0  0  0  0  0
    4.4910   -4.7620   22.4840 N   0  0  0  0  0  0  0  0  0  0  0  0
    2.7870   -6.2250   24.9970 C   0  0  0  0  0  0  0  0  0  0  0  0
    5.8430   -4.7020   21.9800 C   0  0  0  0  0  0  0  0  0  0  0  0
    1.2800   -7.6790   21.9920 C   0  0  0  0  0  0  0  0  0  0  0  0
    3.1660   -7.6220   25.3750 C   0  0  0  0  0  0  0  0  0  0  0  0
    6.4320   -3.4620   22.2630 C   0  0  2  0  0  0  0  0  0  0  0  0
    1.1700   -8.8550   21.0130 C   0  0  0  0  0  0  0  0  0  0  0  0
    0.2880   -6.6560   21.9780 O   0  0  0  0  0  0  0  0  0  0  0  0
    2.5690   -8.1660   26.4750 N   0  0  0  0  0  0  0  0  0  0  0  0
    3.9780   -8.2080   24.6890 O   0  0  0  0  0  0  0  0  0  0  0  0
    6.5480   -2.6880   21.1310 N   0  0  0  0  0  0  0  0  0  0  0  0
    7.7250   -3.5290   22.7900 C   0  0  0  0  0  0  0  0  0  0  0  0
    6.2840   -3.2790   19.8850 C   0  0  0  0  0  0  0  0  0  0  0  0
    8.0100   -2.2850   23.4500 N   0  0  0  0  0  0  0  0  0  0  0  0
    7.3920   -1.5050   21.2320 C   0  0  0  0  0  0  0  0  0  0  0  0
    5.3220   -4.0350   19.6870 O   0  0  0  0  0  0  0  0  0  0  0  0
    7.2770   -2.9930   18.7810 C   0  0  0  0  0  0  0  0  0  0  0  0
    8.9550   -2.3780   24.5000 C   0  0  2  0  0  0  0  0  0  0  0  0
    8.4180   -1.4290   22.3250 C   0  0  0  0  0  0  0  0  0  0  0  0
    8.8650   -1.4310   25.2690 O   0  0  0  0  0  0  0  0  0  0  0  0
   10.1660   -2.5840   23.8740 C   0  0  2  0  0  0  0  0  0  0  0  0
    8.7070   -3.4390   25.4540 C   0  0  0  0  0  0  0  0  0  0  0  0
   11.0220   -3.3780   24.7840 C   0  0  0  0  0  0  0  0  0  0  0  0
    9.5790   -4.5340   25.4910 C   0  0  0  0  0  0  0  0  0  0  0  0
    7.4830   -3.6500   26.6620 S   0  0  0  0  0  0  0  0  0  0  0  0
   11.0570   -1.4140   23.6180 C   0  0  0  0  0  0  0  0  0  0  0  0
    9.2560   -5.4690   26.4460 C   0  0  0  0  0  0  0  0  0  0  0  0
    8.1420   -5.1590   27.1900 C   0  0  0  0  0  0  0  0  0  0  0  0
   12.1780   -1.3890   22.7780 C   0  0  0  0  0  0  0  0  0  0  0  0
   10.9080   -0.0480   24.2370 C   0  0  0  0  0  0  0  0  0  0  0  0
   12.8430   -0.1750   22.7240 C   0  0  0  0  0  0  0  0  0  0  0  0
   12.1240    1.0340   23.7090 S   0  0  0  0  0  0  0  0  0  0  0  0
  2  1  1  1
  2  3  1  0
  1  4  2  3
  2  5  1  0
  4  6  1  0
  3  7  1  0
  5  8  1  0
  9  6  1  6
  7 10  1  0
  7 11  2  0
  8 12  1  0
  8 13  2  0
  9 14  1  0
  9 15  1  0
 14 16  1  0
 15 17  1  0
 14 18  1  0
 16 19  2  0
 16 20  1  0
 17 21  1  0
 17 22  1  0
 18 22  1  0
 21 23  1  1
 21 24  1  0
 21 25  1  0
 24 26  1  1
 25 27  2  0
 25 28  1  0
 24 29  1  0
 27 30  1  0
 28 31  1  0
 30 31  2  0
 29 32  1  0
 29 33  2  0
 32 34  2  0
 33 35  1  0
 34 35  1  0
M  END
