x0981_1-x1385_1-x0692_0-x1418_0
     RDKit          3D

 30 31  0  0  0  0  0  0  0  0999 V2000
    4.7590   -5.6370   23.5360 C   0  0  0  0  0  0  0  0  0  0  0  0
    3.2230   -5.8720   23.5750 C   0  0  1  0  0  0  0  0  0  0  0  0
    2.8350   -7.0310   22.7420 N   0  0  0  0  0  0  0  0  0  0  0  0
    5.2840   -4.5600   24.1010 N   0  0  0  0  0  0  0  0  0  0  0  0
    2.8250   -6.1720   25.0260 C   0  0  0  0  0  0  0  0  0  0  0  0
    6.7700   -4.3170   24.1210 C   0  0  0  0  0  0  0  0  0  0  0  0
    1.5420   -7.2420   22.2890 C   0  0  0  0  0  0  0  0  0  0  0  0
    3.1620   -7.6220   25.3050 C   0  0  0  0  0  0  0  0  0  0  0  0
    7.2900   -3.5290   22.8720 C   0  0  2  0  0  0  0  0  0  0  0  0
    1.2770   -8.5630   21.6050 C   0  0  0  0  0  0  0  0  0  0  0  0
    0.6510   -6.4050   22.4020 O   0  0  0  0  0  0  0  0  0  0  0  0
    2.5440   -8.2210   26.3630 N   0  0  0  0  0  0  0  0  0  0  0  0
    3.9580   -8.2020   24.6010 O   0  0  0  0  0  0  0  0  0  0  0  0
    8.1780   -2.3150   23.0670 N   0  0  0  0  0  0  0  0  0  0  0  0
    6.1450   -3.1590   22.1980 C   0  0  0  0  0  0  0  0  0  0  0  0
    9.2730   -2.4010   23.9440 C   0  0  1  0  0  0  0  0  0  0  0  0
    6.4350   -2.4330   20.9610 N   0  0  0  0  0  0  0  0  0  0  0  0
    8.6140   -1.7270   21.8160 C   0  0  0  0  0  0  0  0  0  0  0  0
    6.3400   -3.1510   19.7890 C   0  0  0  0  0  0  0  0  0  0  0  0
    9.9490   -3.6900   23.8190 C   0  0  0  0  0  0  0  0  0  0  0  0
    7.4820   -1.3880   21.0600 C   0  0  0  0  0  0  0  0  0  0  0  0
   10.3330   -1.3570   23.7170 C   0  0  0  0  0  0  0  0  0  0  0  0
    7.4010   -2.9610   18.7210 C   0  0  0  0  0  0  0  0  0  0  0  0
    5.4080   -3.9600   19.6330 O   0  0  0  0  0  0  0  0  0  0  0  0
   10.1240    0.0100   23.8430 C   0  0  0  0  0  0  0  0  0  0  0  0
   11.6310   -1.7910   23.3500 C   0  0  0  0  0  0  0  0  0  0  0  0
   11.1690    0.9580   23.6090 C   0  0  0  0  0  0  0  0  0  0  0  0
   12.6540   -0.8790   23.1250 C   0  0  0  0  0  0  0  0  0  0  0  0
   10.8860    2.4130   23.7410 C   0  0  0  0  0  0  0  0  0  0  0  0
   12.4110    0.4860   23.2570 C   0  0  0  0  0  0  0  0  0  0  0  0
  2  1  1  1
  2  3  1  0
  1  4  2  3
  2  5  1  0
  4  6  1  0
  3  7  1  0
  5  8  1  0
  9  6  1  1
  7 10  1  0
  7 11  2  0
  8 12  1  0
  8 13  2  0
  9 14  1  0
  9 15  1  0
 14 16  1  0
 15 17  1  0
 14 18  1  0
 17 19  1  0
 16 20  1  6
 17 21  1  0
 18 21  1  0
 16 22  1  0
 19 23  1  0
 19 24  2  0
 22 25  2  0
 22 26  1  0
 25 27  1  0
 26 28  2  0
 27 29  1  0
 27 30  2  0
 28 30  1  0
M  END
