x0981_1-x0434_1-x0831_1
     RDKit          3D

 31 32  0  0  0  0  0  0  0  0999 V2000
    4.5130   -5.9330   23.1180 C   0  0  0  0  0  0  0  0  0  0  0  0
    3.0040   -6.0510   23.4210 C   0  0  1  0  0  0  0  0  0  0  0  0
    2.5600   -7.2870   22.7580 N   0  0  0  0  0  0  0  0  0  0  0  0
    5.1890   -4.8300   23.2580 N   0  0  0  0  0  0  0  0  0  0  0  0
    2.7830   -6.1760   24.9220 C   0  0  0  0  0  0  0  0  0  0  0  0
    6.6150   -5.0230   22.8890 C   0  0  0  0  0  0  0  0  0  0  0  0
    1.3320   -7.4030   22.1560 C   0  0  0  0  0  0  0  0  0  0  0  0
    3.1370   -7.5880   25.2670 C   0  0  0  0  0  0  0  0  0  0  0  0
    7.2490   -3.8710   22.3610 C   0  0  1  0  0  0  0  0  0  0  0  0
    1.1390   -8.6880   21.3930 C   0  0  0  0  0  0  0  0  0  0  0  0
    0.4690   -6.5320   22.2130 O   0  0  0  0  0  0  0  0  0  0  0  0
    2.4550   -8.1550   26.3080 N   0  0  0  0  0  0  0  0  0  0  0  0
    3.9890   -8.1780   24.6430 O   0  0  0  0  0  0  0  0  0  0  0  0
    6.4200   -3.0220   21.4800 N   0  0  0  0  0  0  0  0  0  0  0  0
    8.0460   -3.1050   23.4250 C   0  0  0  0  0  0  0  0  0  0  0  0
    6.2320   -3.5060   20.1270 C   0  0  0  0  0  0  0  0  0  0  0  0
    8.6280   -1.7930   23.1230 N   0  0  0  0  0  0  0  0  0  0  0  0
    6.4340   -1.5490   21.7170 C   0  0  1  0  0  0  0  0  0  0  0  0
    5.3450   -4.3170   19.8320 O   0  0  0  0  0  0  0  0  0  0  0  0
    7.1810   -3.0220   19.0250 C   0  0  0  0  0  0  0  0  0  0  0  0
    8.7420   -1.3380   21.7240 C   0  0  1  0  0  0  0  0  0  0  0  0
    7.5050   -0.8510   21.1920 C   0  0  0  0  0  0  0  0  0  0  0  0
    5.0350   -1.0680   21.2370 C   0  0  0  0  0  0  0  0  0  0  0  0
    9.5370   -0.0480   21.8490 C   0  0  0  0  0  0  0  0  0  0  0  0
    4.7350    0.1390   20.3690 C   0  0  0  0  0  0  0  0  0  0  0  0
    9.1600    1.0430   21.4180 O   0  0  0  0  0  0  0  0  0  0  0  0
    5.8110   -0.5300   19.7550 C   0  0  0  0  0  0  0  0  0  0  0  0
    4.6410    1.2820   19.3050 C   0  0  0  0  0  0  0  0  0  0  0  0
    6.6150   -0.2620   18.5010 C   0  0  0  0  0  0  0  0  0  0  0  0
    5.4330    1.5090   18.0720 C   0  0  0  0  0  0  0  0  0  0  0  0
    6.4110    0.7390   17.6810 N   0  0  0  0  0  0  0  0  0  0  0  0
  2  1  1  1
  2  3  1  0
  1  4  2  3
  2  5  1  0
  4  6  1  0
  3  7  1  0
  5  8  1  0
  9  6  1  1
  7 10  1  0
  7 11  2  0
  8 12  1  0
  8 13  2  0
  9 14  1  0
  9 15  1  0
 14 16  1  0
 15 17  1  0
 14 18  1  0
 16 19  2  0
 16 20  1  0
 17 21  1  0
 18 22  1  0
 21 22  1  0
 18 23  1  6
 21 24  1  1
 23 25  1  0
 24 26  2  0
 25 27  2  0
 25 28  1  0
 27 29  1  0
 28 30  2  0
 29 31  2  0
 30 31  1  0
M  END
