x0981_1-x1412_1-x0434_2
     RDKit          3D

 28 29  0  0  0  0  0  0  0  0999 V2000
    4.1120   -5.2620   23.2220 C   0  0  0  0  0  0  0  0  0  0  0  0
    2.7850   -5.9820   23.5380 C   0  0  1  0  0  0  0  0  0  0  0  0
    2.5620   -7.2370   22.7950 N   0  0  0  0  0  0  0  0  0  0  0  0
    4.2450   -4.0420   23.6680 N   0  0  0  0  0  0  0  0  0  0  0  0
    2.6780   -6.2310   25.0400 C   0  0  0  0  0  0  0  0  0  0  0  0
    5.4370   -3.2240   23.4380 C   0  0  0  0  0  0  0  0  0  0  0  0
    1.3610   -7.4420   22.1250 C   0  0  0  0  0  0  0  0  0  0  0  0
    3.1030   -7.6700   25.3180 C   0  0  0  0  0  0  0  0  0  0  0  0
    6.3990   -3.8520   22.4090 C   0  0  1  0  0  0  0  0  0  0  0  0
    1.2460   -8.7310   21.3520 C   0  0  0  0  0  0  0  0  0  0  0  0
    0.4530   -6.6150   22.1460 O   0  0  0  0  0  0  0  0  0  0  0  0
    2.4590   -8.3080   26.3350 N   0  0  0  0  0  0  0  0  0  0  0  0
    3.9730   -8.1940   24.6570 O   0  0  0  0  0  0  0  0  0  0  0  0
    6.6360   -2.9640   21.2180 N   0  0  0  0  0  0  0  0  0  0  0  0
    7.6140   -4.0750   23.0450 C   0  0  0  0  0  0  0  0  0  0  0  0
    6.3340   -3.4180   19.9390 C   0  0  0  0  0  0  0  0  0  0  0  0
    8.1650   -2.8510   23.6150 N   0  0  0  0  0  0  0  0  0  0  0  0
    7.6730   -1.9000   21.2800 C   0  0  1  0  0  0  0  0  0  0  0  0
    7.2850   -3.0480   18.8160 C   0  0  0  0  0  0  0  0  0  0  0  0
    5.3610   -4.1400   19.7180 O   0  0  0  0  0  0  0  0  0  0  0  0
    6.9680   -0.6260   21.3640 N   0  0  0  0  0  0  0  0  0  0  0  0
    8.6600   -2.0360   22.4880 C   0  0  0  0  0  0  0  0  0  0  0  0
    6.4210   -0.0090   20.2260 C   0  0  0  0  0  0  0  0  0  0  0  0
    6.9330   -0.0330   18.9390 C   0  0  0  0  0  0  0  0  0  0  0  0
    5.2420    0.7170   20.3580 C   0  0  0  0  0  0  0  0  0  0  0  0
    6.4210    0.5730   17.8190 N   0  0  0  0  0  0  0  0  0  0  0  0
    4.6270    1.4080   19.1380 C   0  0  0  0  0  0  0  0  0  0  0  0
    5.2800    1.2830   17.9350 C   0  0  0  0  0  0  0  0  0  0  0  0
  2  1  1  1
  2  3  1  0
  1  4  2  3
  2  5  1  0
  4  6  1  0
  3  7  1  0
  5  8  1  0
  9  6  1  1
  7 10  1  0
  7 11  2  0
  8 12  1  0
  8 13  2  0
  9 14  1  0
  9 15  1  0
 14 16  1  0
 15 17  1  0
 14 18  1  0
 16 19  1  0
 16 20  2  0
 18 21  1  1
 17 22  1  0
 18 22  1  0
 21 23  1  0
 23 24  2  0
 23 25  1  0
 24 26  1  0
 25 27  2  0
 26 28  2  0
 27 28  1  0
M  END
