x0981_1-x0874_0-x1386_0-x1412_0-x0692_1
     RDKit          3D

 37 40  0  0  0  0  0  0  0  0999 V2000
    3.9190   -5.8590   22.8770 C   0  0  0  0  0  0  0  0  0  0  0  0
    2.6140   -6.1800   23.5410 C   0  0  1  0  0  0  0  0  0  0  0  0
    2.3230   -7.4600   22.9160 N   0  0  0  0  0  0  0  0  0  0  0  0
    4.4040   -4.6950   22.8890 N   0  0  0  0  0  0  0  0  0  0  0  0
    2.6690   -6.3270   25.0620 C   0  0  0  0  0  0  0  0  0  0  0  0
    5.6350   -4.6650   22.1220 C   0  0  0  0  0  0  0  0  0  0  0  0
    1.1340   -7.5660   22.0320 C   0  0  0  0  0  0  0  0  0  0  0  0
    3.1110   -7.7300   25.3640 C   0  0  0  0  0  0  0  0  0  0  0  0
    6.2840   -3.3010   22.3110 C   0  0  2  0  0  0  0  0  0  0  0  0
    1.1370   -8.7810   21.1540 C   0  0  0  0  0  0  0  0  0  0  0  0
    0.2390   -6.7250   22.0160 O   0  0  0  0  0  0  0  0  0  0  0  0
    2.5040   -8.3570   26.4050 N   0  0  0  0  0  0  0  0  0  0  0  0
    3.9720   -8.2290   24.6750 O   0  0  0  0  0  0  0  0  0  0  0  0
    6.5660   -2.5700   21.0530 N   0  0  0  0  0  0  0  0  0  0  0  0
    7.4610   -3.5340   23.0480 C   0  0  0  0  0  0  0  0  0  0  0  0
    6.3100   -3.2230   19.8380 C   0  0  0  0  0  0  0  0  0  0  0  0
    7.9680   -2.2470   23.4240 N   0  0  0  0  0  0  0  0  0  0  0  0
    7.5190   -1.4300   21.1660 C   0  0  0  0  0  0  0  0  0  0  0  0
    5.3550   -3.9920   19.6660 O   0  0  0  0  0  0  0  0  0  0  0  0
    7.3130   -2.9740   18.7400 C   0  0  0  0  0  0  0  0  0  0  0  0
    8.7780   -2.2570   24.6580 C   0  0  2  0  0  0  0  0  0  0  0  0
    8.6320   -1.7060   22.2100 C   0  0  0  0  0  0  0  0  0  0  0  0
    8.5660   -1.3230   25.4100 O   0  0  0  0  0  0  0  0  0  0  0  0
   10.0590   -2.5880   24.3200 C   0  0  0  0  0  0  0  0  0  0  0  0
    8.6560   -3.4680   25.6020 C   0  0  0  0  0  0  0  0  0  0  0  0
    9.6640   -4.6100   25.5430 C   0  0  0  0  0  0  0  0  0  0  0  0
    7.4690   -3.7630   26.8390 S   0  0  0  0  0  0  0  0  0  0  0  0
   10.9050   -1.4210   23.9670 C   0  0  0  0  0  0  0  0  0  0  0  0
    9.3200   -5.6450   26.5700 C   0  0  0  0  0  0  0  0  0  0  0  0
    8.1130   -5.2680   27.3510 C   0  0  0  0  0  0  0  0  0  0  0  0
   12.2730   -1.5820   23.6410 C   0  0  0  0  0  0  0  0  0  0  0  0
   10.5200   -0.0700   23.9360 C   0  0  0  0  0  0  0  0  0  0  0  0
   13.1040   -0.5300   23.2480 C   0  0  2  0  0  0  0  0  0  0  0  0
   11.9990    0.6960   23.4600 S   0  0  0  0  0  0  0  0  0  0  0  0
   11.4660   -1.0310   23.5820 C   0  0  0  0  0  0  0  0  0  0  0  0
   13.2480   -1.1640   21.7070 S   0  0  0  0  0  0  0  0  0  0  0  0
   12.0630   -1.9370   22.6300 C   0  0  0  0  0  0  0  0  0  0  0  0
  2  1  1  6
  2  3  1  0
  1  4  2  3
  2  5  1  0
  4  6  1  0
  3  7  1  0
  5  8  1  0
  9  6  1  6
  7 10  1  0
  7 11  2  0
  8 12  1  0
  8 13  2  0
  9 14  1  0
  9 15  1  0
 14 16  1  0
 15 17  1  0
 14 18  1  0
 16 19  2  0
 16 20  1  0
 17 21  1  0
 17 22  1  0
 18 22  1  0
 21 23  1  1
 21 24  1  0
 21 25  1  0
 25 26  2  0
 25 27  1  0
 24 28  1  0
 26 29  1  0
 27 30  1  0
 29 30  2  0
 28 31  2  0
 28 32  1  0
 33 31  1  1
 32 34  2  0
 33 34  1  0
 34 35  1  0
 33 36  1  0
 35 37  2  0
 36 37  1  0
M  END
