x0981_1-x0874_0-x0395_1-x1418_1
     RDKit          3D

 29 30  0  0  0  0  0  0  0  0999 V2000
    3.9070   -5.0950   23.5910 C   0  0  0  0  0  0  0  0  0  0  0  0
    2.6440   -5.9780   23.6940 C   0  0  1  0  0  0  0  0  0  0  0  0
    2.6150   -7.0620   22.6980 N   0  0  0  0  0  0  0  0  0  0  0  0
    4.4000   -4.3380   22.6690 N   0  0  0  0  0  0  0  0  0  0  0  0
    2.5490   -6.3230   25.0610 C   0  0  0  0  0  0  0  0  0  0  0  0
    5.6000   -3.5520   23.0070 C   0  0  0  0  0  0  0  0  0  0  0  0
    1.3830   -7.3780   22.1360 C   0  0  0  0  0  0  0  0  0  0  0  0
    3.0490   -7.7380   25.2630 C   0  0  0  0  0  0  0  0  0  0  0  0
    6.6640   -3.7240   22.1440 C   0  0  2  0  0  0  0  0  0  0  0  0
    1.2890   -8.6950   21.4100 C   0  0  0  0  0  0  0  0  0  0  0  0
    0.4220   -6.6190   22.2020 O   0  0  0  0  0  0  0  0  0  0  0  0
    2.4670   -8.4770   26.2440 N   0  0  0  0  0  0  0  0  0  0  0  0
    3.9400   -8.1780   24.5740 O   0  0  0  0  0  0  0  0  0  0  0  0
    7.9290   -3.5380   23.0030 C   0  0  0  0  0  0  0  0  0  0  0  0
    6.5750   -2.7200   21.0660 N   0  0  0  0  0  0  0  0  0  0  0  0
    6.3350   -3.2760   19.8360 C   0  0  0  0  0  0  0  0  0  0  0  0
    8.3490   -2.1160   23.0710 N   0  0  0  0  0  0  0  0  0  0  0  0
    7.2730   -1.4240   21.2030 C   0  0  0  0  0  0  0  0  0  0  0  0
    7.3270   -2.9940   18.7270 C   0  0  0  0  0  0  0  0  0  0  0  0
    5.3710   -4.0180   19.6420 O   0  0  0  0  0  0  0  0  0  0  0  0
    9.6010   -1.8970   23.7720 C   0  0  0  0  0  0  0  0  0  0  0  0
    8.4950   -1.6660   21.6810 C   0  0  0  0  0  0  0  0  0  0  0  0
   10.5980   -1.0580   23.1230 N   0  0  0  0  0  0  0  0  0  0  0  0
   10.6310    0.3640   23.0800 C   0  0  0  0  0  0  0  0  0  0  0  0
   11.5100   -1.7000   22.2080 C   0  0  0  0  0  0  0  0  0  0  0  0
   12.8690   -1.0030   22.2140 C   0  0  2  0  0  0  0  0  0  0  0  0
   11.8820    0.9530   23.0270 C   0  0  0  0  0  0  0  0  0  0  0  0
   13.6650   -1.9500   22.7420 F   0  0  0  0  0  0  0  0  0  0  0  0
   13.0170    0.1180   23.0570 C   0  0  0  0  0  0  0  0  0  0  0  0
  2  1  1  1
  2  3  1  0
  1  4  2  3
  2  5  1  0
  4  6  1  0
  3  7  1  0
  5  8  1  0
  9  6  1  1
  7 10  1  0
  7 11  2  0
  8 12  1  0
  8 13  2  0
  9 14  1  0
  9 15  1  0
 15 16  1  0
 14 17  1  0
 15 18  1  0
 16 19  1  0
 16 20  2  0
 17 21  1  0
 17 22  1  0
 18 22  1  0
 21 23  1  0
 23 24  1  0
 23 25  1  0
 25 26  1  0
 24 27  2  0
 26 28  1  1
 26 29  1  0
 27 29  1  0
M  END
