x0981_1-x0874_0-x1418_1
     RDKit          3D

 27 28  0  0  0  0  0  0  0  0999 V2000
    4.3080   -5.2950   23.2500 C   0  0  0  0  0  0  0  0  0  0  0  0
    2.9160   -5.9150   23.5220 C   0  0  1  0  0  0  0  0  0  0  0  0
    2.6600   -7.1240   22.7210 N   0  0  0  0  0  0  0  0  0  0  0  0
    4.4870   -4.0640   23.6580 N   0  0  0  0  0  0  0  0  0  0  0  0
    2.7770   -6.2200   25.0210 C   0  0  0  0  0  0  0  0  0  0  0  0
    5.7330   -3.2540   23.5230 C   0  0  0  0  0  0  0  0  0  0  0  0
    1.4200   -7.3710   22.1720 C   0  0  0  0  0  0  0  0  0  0  0  0
    3.1620   -7.6590   25.2740 C   0  0  0  0  0  0  0  0  0  0  0  0
    6.7090   -3.6290   22.3940 C   0  0  2  0  0  0  0  0  0  0  0  0
    1.2570   -8.6820   21.4420 C   0  0  0  0  0  0  0  0  0  0  0  0
    0.4970   -6.5670   22.2440 O   0  0  0  0  0  0  0  0  0  0  0  0
    2.4970   -8.3100   26.2750 N   0  0  0  0  0  0  0  0  0  0  0  0
    4.0250   -8.1860   24.6110 O   0  0  0  0  0  0  0  0  0  0  0  0
    8.0160   -3.6010   22.9290 C   0  0  0  0  0  0  0  0  0  0  0  0
    6.5730   -2.7900   21.1700 N   0  0  0  0  0  0  0  0  0  0  0  0
    6.3630   -3.3160   19.9030 C   0  0  0  0  0  0  0  0  0  0  0  0
    8.7060   -2.2890   22.9040 N   0  0  0  0  0  0  0  0  0  0  0  0
    7.2220   -1.4750   21.2480 C   0  0  0  0  0  0  0  0  0  0  0  0
    7.3520   -2.9850   18.7900 C   0  0  0  0  0  0  0  0  0  0  0  0
    5.4030   -4.0790   19.7060 O   0  0  0  0  0  0  0  0  0  0  0  0
   10.0660   -2.3750   23.2520 C   0  0  0  0  0  0  0  0  0  0  0  0
    8.5520   -1.6270   21.6100 C   0  0  0  0  0  0  0  0  0  0  0  0
   10.8280   -1.1320   23.4120 C   0  0  0  0  0  0  0  0  0  0  0  0
   11.8000    0.1460   23.4670 C   0  0  0  0  0  0  0  0  0  0  0  0
   11.7080   -1.8550   22.5570 C   0  0  0  0  0  0  0  0  0  0  0  0
   12.9930    0.1460   22.7900 C   0  0  0  0  0  0  0  0  0  0  0  0
   13.2030   -1.2860   21.9810 S   0  0  0  0  0  0  0  0  0  0  0  0
  2  1  1  1
  2  3  1  0
  1  4  2  3
  2  5  1  0
  4  6  1  0
  3  7  1  0
  5  8  1  0
  9  6  1  1
  7 10  1  0
  7 11  2  0
  8 12  1  0
  8 13  2  0
  9 14  1  0
  9 15  1  0
 15 16  1  0
 14 17  1  0
 15 18  1  0
 16 19  1  0
 16 20  2  0
 17 21  1  0
 17 22  1  0
 18 22  1  0
 21 23  1  0
 23 24  1  0
 23 25  2  0
 24 26  2  0
 25 27  1  0
 26 27  1  0
M  END
