x0981_1-x0831_1-x0434_2
     RDKit          3D

 29 30  0  0  0  0  0  0  0  0999 V2000
    4.4040   -5.4380   23.3200 C   0  0  0  0  0  0  0  0  0  0  0  0
    2.9630   -5.9440   23.4920 C   0  0  1  0  0  0  0  0  0  0  0  0
    2.6450   -7.1250   22.6780 N   0  0  0  0  0  0  0  0  0  0  0  0
    4.6560   -4.2350   23.7510 N   0  0  0  0  0  0  0  0  0  0  0  0
    2.6400   -6.2260   24.9460 C   0  0  0  0  0  0  0  0  0  0  0  0
    6.0030   -3.6060   23.7190 C   0  0  0  0  0  0  0  0  0  0  0  0
    1.4250   -7.4410   22.1350 C   0  0  0  0  0  0  0  0  0  0  0  0
    3.0700   -7.6500   25.3000 C   0  0  0  0  0  0  0  0  0  0  0  0
    6.8190   -3.7170   22.4000 C   0  0  1  0  0  0  0  0  0  0  0  0
    1.2370   -8.7240   21.3670 C   0  0  0  0  0  0  0  0  0  0  0  0
    0.5000   -6.6340   22.2570 O   0  0  0  0  0  0  0  0  0  0  0  0
    2.4180   -8.2440   26.3410 N   0  0  0  0  0  0  0  0  0  0  0  0
    3.9520   -8.2040   24.6740 O   0  0  0  0  0  0  0  0  0  0  0  0
    6.3380   -2.8130   21.3100 N   0  0  0  0  0  0  0  0  0  0  0  0
    8.1470   -3.4800   22.7150 C   0  0  0  0  0  0  0  0  0  0  0  0
    6.2270   -3.3980   20.0310 C   0  0  0  0  0  0  0  0  0  0  0  0
    8.4120   -2.0730   23.0890 N   0  0  0  0  0  0  0  0  0  0  0  0
    6.5360   -1.3610   21.5860 C   0  0  1  0  0  0  0  0  0  0  0  0
    5.3640   -4.2470   19.7970 O   0  0  0  0  0  0  0  0  0  0  0  0
    7.2120   -3.0070   18.9220 C   0  0  0  0  0  0  0  0  0  0  0  0
    8.8660   -1.3600   21.9700 C   0  0  0  0  0  0  0  0  0  0  0  0
    7.7050   -0.8600   21.1360 C   0  0  0  0  0  0  0  0  0  0  0  0
    5.2260   -0.4940   21.5160 C   0  0  0  0  0  0  0  0  0  0  0  0
    4.8880    0.3580   20.4230 C   0  0  0  0  0  0  0  0  0  0  0  0
    6.1590   -0.3130   19.8970 C   0  0  0  0  0  0  0  0  0  0  0  0
    4.6680    1.1620   19.2550 C   0  0  0  0  0  0  0  0  0  0  0  0
    6.8220   -0.1640   18.7130 C   0  0  0  0  0  0  0  0  0  0  0  0
    5.3450    1.3020   18.0620 C   0  0  0  0  0  0  0  0  0  0  0  0
    6.4390    0.6440   17.7550 N   0  0  0  0  0  0  0  0  0  0  0  0
  2  1  1  1
  2  3  1  0
  1  4  2  3
  2  5  1  0
  4  6  1  0
  3  7  1  0
  5  8  1  0
  9  6  1  1
  7 10  1  0
  7 11  2  0
  8 12  1  0
  8 13  2  0
  9 14  1  0
  9 15  1  0
 14 16  1  0
 15 17  1  0
 14 18  1  0
 16 19  2  0
 16 20  1  0
 17 21  1  0
 18 22  1  0
 21 22  1  0
 18 23  1  6
 23 24  1  0
 24 25  2  0
 24 26  1  0
 25 27  1  0
 26 28  2  0
 27 29  2  0
 28 29  1  0
M  END
