x0981_1-x0434_2-x1412_0-x1412_1-x0874_0
     RDKit          3D

 42 45  0  0  0  0  0  0  0  0999 V2000
    4.0270   -5.2720   23.3100 C   0  0  0  0  0  0  0  0  0  0  0  0
    2.6970   -6.0240   23.5570 C   0  0  1  0  0  0  0  0  0  0  0  0
    2.5290   -7.2360   22.7550 N   0  0  0  0  0  0  0  0  0  0  0  0
    4.1170   -4.0490   23.7710 N   0  0  0  0  0  0  0  0  0  0  0  0
    2.6030   -6.3370   25.0700 C   0  0  0  0  0  0  0  0  0  0  0  0
    5.4110   -3.3400   23.5260 C   0  0  0  0  0  0  0  0  0  0  0  0
    1.3380   -7.4680   22.0970 C   0  0  0  0  0  0  0  0  0  0  0  0
    3.0390   -7.7560   25.3250 C   0  0  0  0  0  0  0  0  0  0  0  0
    6.2700   -3.9290   22.3870 C   0  0  1  0  0  0  0  0  0  0  0  0
    1.2480   -8.7450   21.3160 C   0  0  0  0  0  0  0  0  0  0  0  0
    0.4070   -6.6710   22.1260 O   0  0  0  0  0  0  0  0  0  0  0  0
    2.4190   -8.4740   26.3010 N   0  0  0  0  0  0  0  0  0  0  0  0
    3.9360   -8.2150   24.6490 O   0  0  0  0  0  0  0  0  0  0  0  0
    6.5080   -2.9720   21.2740 N   0  0  0  0  0  0  0  0  0  0  0  0
    7.6650   -4.4750   22.9910 C   0  0  0  0  0  0  0  0  0  0  0  0
    6.3180   -3.3590   19.9430 C   0  0  0  0  0  0  0  0  0  0  0  0
    8.5530   -3.3430   23.3250 N   0  0  0  0  0  0  0  0  0  0  0  0
    7.3560   -1.8300   21.6560 C   0  0  2  0  0  0  0  0  0  0  0  0
    7.3190   -2.9950   18.8410 C   0  0  0  0  0  0  0  0  0  0  0  0
    5.3430   -4.0610   19.6750 O   0  0  0  0  0  0  0  0  0  0  0  0
    8.5320   -2.9050   24.6400 C   0  0  0  0  0  0  0  0  0  0  0  0
    7.6210   -0.9470   20.5420 N   0  0  0  0  0  0  0  0  0  0  0  0
    8.7220   -2.3320   22.2340 C   0  0  0  0  0  0  0  0  0  0  0  0
    8.4440   -1.4840   24.9180 N   0  0  0  0  0  0  0  0  0  0  0  0
    8.6220   -3.9780   25.6550 C   0  0  0  0  0  0  0  0  0  0  0  0
    6.6410   -0.1230   19.8460 C   0  0  0  0  0  0  0  0  0  0  0  0
    8.3870   -0.5080   23.8560 C   0  0  0  0  0  0  0  0  0  0  0  0
    9.4780   -5.2110   25.4420 C   0  0  0  0  0  0  0  0  0  0  0  0
    7.7740   -3.9560   27.1850 S   0  0  0  0  0  0  0  0  0  0  0  0
    6.9550    0.1070   18.5080 C   0  0  0  0  0  0  0  0  0  0  0  0
    5.4770    0.4350   20.3520 C   0  0  0  0  0  0  0  0  0  0  0  0
    9.6600    0.4180   23.9360 C   0  0  0  0  0  0  0  0  0  0  0  0
    9.3420   -6.0720   26.6430 C   0  0  0  0  0  0  0  0  0  0  0  0
    8.4150   -5.4560   27.6670 C   0  0  0  0  0  0  0  0  0  0  0  0
    6.2420    0.8280   17.6440 N   0  0  0  0  0  0  0  0  0  0  0  0
    4.6960    1.2010   19.4760 C   0  0  0  0  0  0  0  0  0  0  0  0
    5.1150    1.3710   18.1460 C   0  0  0  0  0  0  0  0  0  0  0  0
   10.9490   -0.0390   23.2900 C   0  0  0  0  0  0  0  0  0  0  0  0
   12.1690    0.8370   23.3490 C   0  0  0  0  0  0  0  0  0  0  0  0
   11.2910   -1.3070   22.5300 C   0  0  0  0  0  0  0  0  0  0  0  0
   13.3250    0.1340   22.6200 C   0  0  0  0  0  0  0  0  0  0  0  0
   12.9350   -1.4130   21.9600 S   0  0  0  0  0  0  0  0  0  0  0  0
  2  1  1  1
  2  3  1  0
  1  4  2  3
  2  5  1  0
  4  6  1  0
  3  7  1  0
  5  8  1  0
  9  6  1  1
  7 10  1  0
  7 11  2  0
  8 12  1  0
  8 13  2  0
  9 14  1  0
  9 15  1  0
 14 16  1  0
 15 17  1  0
 14 18  1  0
 16 19  1  0
 16 20  2  0
 17 21  1  0
 18 22  1  6
 17 23  1  0
 18 23  1  0
 21 24  2  3
 21 25  1  0
 22 26  1  0
 24 27  1  0
 25 28  2  0
 25 29  1  0
 26 30  2  0
 26 31  1  0
 27 32  1  0
 28 33  1  0
 29 34  1  0
 33 34  2  0
 30 35  1  0
 31 36  2  0
 35 37  2  0
 36 37  1  0
 32 38  1  0
 38 39  1  0
 38 40  2  0
 39 41  2  0
 40 42  1  0
 41 42  1  0
M  END
