x0981_1-x1412_1-x0395_1-x0434_2
     RDKit          3D

 36 38  0  0  0  0  0  0  0  0999 V2000
    3.8670   -5.9700   22.9300 C   0  0  0  0  0  0  0  0  0  0  0  0
    2.5100   -6.2330   23.4940 C   0  0  1  0  0  0  0  0  0  0  0  0
    2.2080   -7.4960   22.8460 N   0  0  0  0  0  0  0  0  0  0  0  0
    4.5250   -4.9080   22.9050 N   0  0  0  0  0  0  0  0  0  0  0  0
    2.5820   -6.3710   24.9950 C   0  0  0  0  0  0  0  0  0  0  0  0
    5.7910   -5.0690   22.2270 C   0  0  0  0  0  0  0  0  0  0  0  0
    1.1360   -7.5680   22.0180 C   0  0  0  0  0  0  0  0  0  0  0  0
    3.0440   -7.7350   25.3940 C   0  0  0  0  0  0  0  0  0  0  0  0
    6.5630   -3.7960   22.4870 C   0  0  2  0  0  0  0  0  0  0  0  0
    1.1210   -8.7820   21.1370 C   0  0  0  0  0  0  0  0  0  0  0  0
    0.2670   -6.7010   21.9920 O   0  0  0  0  0  0  0  0  0  0  0  0
    2.4800   -8.3690   26.4530 N   0  0  0  0  0  0  0  0  0  0  0  0
    3.9270   -8.2460   24.7310 O   0  0  0  0  0  0  0  0  0  0  0  0
    6.7260   -2.9270   21.2900 N   0  0  0  0  0  0  0  0  0  0  0  0
    7.8750   -4.1310   23.2060 C   0  0  0  0  0  0  0  0  0  0  0  0
    6.4370   -3.3380   19.9620 C   0  0  0  0  0  0  0  0  0  0  0  0
    8.4990   -2.8910   23.5810 N   0  0  0  0  0  0  0  0  0  0  0  0
    7.5280   -1.7260   21.6690 C   0  0  2  0  0  0  0  0  0  0  0  0
    7.3890   -2.9800   18.8310 C   0  0  0  0  0  0  0  0  0  0  0  0
    5.4410   -4.0350   19.7120 O   0  0  0  0  0  0  0  0  0  0  0  0
    7.8650   -1.0030   20.5760 N   0  0  0  0  0  0  0  0  0  0  0  0
    8.6230   -1.9810   22.4060 C   0  0  1  0  0  0  0  0  0  0  0  0
    6.7920   -0.2110   19.9790 C   0  0  0  0  0  0  0  0  0  0  0  0
    9.0900   -0.6300   22.9710 C   0  0  0  0  0  0  0  0  0  0  0  0
    7.0080    0.0660   18.5240 C   0  0  0  0  0  0  0  0  0  0  0  0
    5.4640    0.4250   20.5170 C   0  0  0  0  0  0  0  0  0  0  0  0
   10.3740   -0.3290   22.7540 N   0  0  0  0  0  0  0  0  0  0  0  0
    6.1640    0.8320   17.6150 N   0  0  0  0  0  0  0  0  0  0  0  0
    4.7470    1.1380   19.5300 C   0  0  0  0  0  0  0  0  0  0  0  0
   11.2340   -1.4280   22.3220 C   0  0  0  0  0  0  0  0  0  0  0  0
   10.9840    0.1680   23.9550 C   0  0  0  0  0  0  0  0  0  0  0  0
    5.0650    1.3360   18.1830 C   0  0  0  0  0  0  0  0  0  0  0  0
   12.5850   -0.9770   22.2230 C   0  0  0  0  0  0  0  0  0  0  0  0
   11.9850    0.9810   23.4480 C   0  0  0  0  0  0  0  0  0  0  0  0
   13.4840   -1.7200   21.5670 F   0  0  0  0  0  0  0  0  0  0  0  0
   12.9680    0.2450   22.7900 C   0  0  0  0  0  0  0  0  0  0  0  0
  2  1  1  6
  2  3  1  0
  1  4  2  3
  2  5  1  0
  4  6  1  0
  3  7  1  0
  5  8  1  0
  9  6  1  6
  7 10  1  0
  7 11  2  0
  8 12  1  0
  8 13  2  0
  9 14  1  0
  9 15  1  0
 14 16  1  0
 15 17  1  0
 14 18  1  0
 16 19  1  0
 16 20  2  0
 18 21  1  6
 17 22  1  0
 18 22  1  0
 21 23  1  0
 22 24  1  1
 23 25  2  0
 23 26  1  0
 24 27  1  0
 25 28  1  0
 26 29  2  0
 27 30  1  0
 27 31  1  0
 28 32  2  0
 29 32  1  0
 30 33  1  0
 31 34  1  0
 33 35  1  0
 33 36  2  0
 34 36  1  0
M  END
