x0981_1-x1412_1-x1412_0-x0434_2
     RDKit          3D

 35 37  0  0  0  0  0  0  0  0999 V2000
    4.1330   -5.3360   23.2040 C   0  0  0  0  0  0  0  0  0  0  0  0
    2.7770   -5.9830   23.5090 C   0  0  1  0  0  0  0  0  0  0  0  0
    2.5630   -7.2040   22.7250 N   0  0  0  0  0  0  0  0  0  0  0  0
    4.2800   -4.1150   23.6160 N   0  0  0  0  0  0  0  0  0  0  0  0
    2.6820   -6.2570   25.0150 C   0  0  0  0  0  0  0  0  0  0  0  0
    5.5040   -3.3210   23.4150 C   0  0  0  0  0  0  0  0  0  0  0  0
    1.3520   -7.4520   22.1240 C   0  0  0  0  0  0  0  0  0  0  0  0
    3.1060   -7.6770   25.2850 C   0  0  0  0  0  0  0  0  0  0  0  0
    6.4750   -3.8510   22.3320 C   0  0  1  0  0  0  0  0  0  0  0  0
    1.2410   -8.7430   21.3540 C   0  0  0  0  0  0  0  0  0  0  0  0
    0.4150   -6.6600   22.1860 O   0  0  0  0  0  0  0  0  0  0  0  0
    2.4510   -8.3200   26.2940 N   0  0  0  0  0  0  0  0  0  0  0  0
    3.9850   -8.1950   24.6370 O   0  0  0  0  0  0  0  0  0  0  0  0
    6.6700   -2.9050   21.1770 N   0  0  0  0  0  0  0  0  0  0  0  0
    7.6650   -4.1550   22.9460 C   0  0  0  0  0  0  0  0  0  0  0  0
    6.3470   -3.4320   19.9220 C   0  0  0  0  0  0  0  0  0  0  0  0
    8.2520   -2.8880   23.3710 N   0  0  0  0  0  0  0  0  0  0  0  0
    7.7220   -1.8400   21.2840 C   0  0  1  0  0  0  0  0  0  0  0  0
    7.3170   -3.0430   18.8110 C   0  0  0  0  0  0  0  0  0  0  0  0
    5.3770   -4.1770   19.7390 O   0  0  0  0  0  0  0  0  0  0  0  0
    8.4300   -2.6300   24.7400 C   0  0  0  0  0  0  0  0  0  0  0  0
    7.1050   -0.5060   21.3900 N   0  0  0  0  0  0  0  0  0  0  0  0
    8.7140   -2.0450   22.2700 C   0  0  0  0  0  0  0  0  0  0  0  0
    8.4420   -1.4790   25.1820 O   0  0  0  0  0  0  0  0  0  0  0  0
    8.5970   -3.7920   25.5960 C   0  0  0  0  0  0  0  0  0  0  0  0
    6.4310    0.1060   20.2180 C   0  0  0  0  0  0  0  0  0  0  0  0
    9.4550   -5.0600   25.3750 C   0  0  0  0  0  0  0  0  0  0  0  0
    7.7840   -3.9120   27.1080 S   0  0  0  0  0  0  0  0  0  0  0  0
    6.9460   -0.0060   18.9500 C   0  0  0  0  0  0  0  0  0  0  0  0
    5.2410    0.8320   20.3230 C   0  0  0  0  0  0  0  0  0  0  0  0
    9.3150   -5.9020   26.4570 C   0  0  0  0  0  0  0  0  0  0  0  0
    8.4710   -5.4520   27.4640 C   0  0  0  0  0  0  0  0  0  0  0  0
    6.4160    0.5290   17.8260 N   0  0  0  0  0  0  0  0  0  0  0  0
    4.6580    1.3940   19.1910 C   0  0  0  0  0  0  0  0  0  0  0  0
    5.2770    1.2220   17.9690 C   0  0  0  0  0  0  0  0  0  0  0  0
  2  1  1  1
  2  3  1  0
  1  4  2  3
  2  5  1  0
  4  6  1  0
  3  7  1  0
  5  8  1  0
  9  6  1  1
  7 10  1  0
  7 11  2  0
  8 12  1  0
  8 13  2  0
  9 14  1  0
  9 15  1  0
 14 16  1  0
 15 17  1  0
 14 18  1  0
 16 19  1  0
 16 20  2  0
 17 21  1  0
 18 22  1  1
 17 23  1  0
 18 23  1  0
 21 24  2  0
 21 25  1  0
 22 26  1  0
 25 27  2  0
 25 28  1  0
 26 29  2  0
 26 30  1  0
 27 31  1  0
 28 32  1  0
 31 32  2  0
 29 33  1  0
 30 34  2  0
 33 35  2  0
 34 35  1  0
M  END
