x0981_1-x1385_0-x0434_2-x1412_1-x0831_0-x1334_0
     RDKit          3D

 45 48  0  0  0  0  0  0  0  0999 V2000
    4.0370   -5.8420   23.2650 C   0  0  0  0  0  0  0  0  0  0  0  0
    2.5830   -6.1960   23.5560 C   0  0  1  0  0  0  0  0  0  0  0  0
    2.3550   -7.4240   22.7940 N   0  0  0  0  0  0  0  0  0  0  0  0
    4.5570   -4.9530   22.2520 N   0  0  0  0  0  0  0  0  0  0  0  0
    2.4000   -6.4430   25.0510 C   0  0  0  0  0  0  0  0  0  0  0  0
    5.9890   -4.8550   22.2770 C   0  0  0  0  0  0  0  0  0  0  0  0
    1.2200   -7.5690   22.0360 C   0  0  0  0  0  0  0  0  0  0  0  0
    2.9620   -7.7790   25.3700 C   0  0  0  0  0  0  0  0  0  0  0  0
    6.2460   -3.3610   22.4680 C   0  0  2  0  0  0  0  0  0  0  0  0
    1.1940   -8.8060   21.1740 C   0  0  0  0  0  0  0  0  0  0  0  0
    0.3070   -6.7540   22.0450 O   0  0  0  0  0  0  0  0  0  0  0  0
    2.4420   -8.4880   26.3900 N   0  0  0  0  0  0  0  0  0  0  0  0
    3.8790   -8.2320   24.7200 O   0  0  0  0  0  0  0  0  0  0  0  0
    6.8540   -2.7880   21.2870 N   0  0  0  0  0  0  0  0  0  0  0  0
    6.9150   -2.9480   23.8170 C   0  0  0  0  0  0  0  0  0  0  0  0
    6.5200   -3.2830   19.9870 C   0  0  0  0  0  0  0  0  0  0  0  0
    8.2160   -2.2210   23.8420 N   0  0  0  0  0  0  0  0  0  0  0  0
    7.3370   -1.4910   21.6740 C   0  0  2  0  0  0  0  0  0  0  0  0
    7.4370   -2.9770   18.8340 C   0  0  0  0  0  0  0  0  0  0  0  0
    5.5250   -4.0220   19.7500 O   0  0  0  0  0  0  0  0  0  0  0  0
    9.2570   -3.1600   24.1530 C   0  0  2  0  0  0  0  0  0  0  0  0
    7.6220   -0.6180   20.5670 N   0  0  0  0  0  0  0  0  0  0  0  0
    8.6160   -1.6550   22.5430 C   0  0  0  0  0  0  0  0  0  0  0  0
   10.6680   -2.5850   23.9810 C   0  0  0  0  0  0  0  0  0  0  0  0
    9.0730   -4.1210   23.0200 C   0  0  0  0  0  0  0  0  0  0  0  0
    9.0450   -4.0970   25.3340 C   0  0  0  0  0  0  0  0  0  0  0  0
    6.7000    0.1050   19.8820 C   0  0  0  0  0  0  0  0  0  0  0  0
    9.7550   -5.4760   25.3680 C   0  0  0  0  0  0  0  0  0  0  0  0
    8.1010   -3.9600   26.7700 S   0  0  0  0  0  0  0  0  0  0  0  0
   11.0570   -1.1310   23.8280 C   0  0  0  0  0  0  0  0  0  0  0  0
    7.0430    0.1560   18.4380 C   0  0  0  0  0  0  0  0  0  0  0  0
    5.5660    0.7400   20.3650 C   0  0  0  0  0  0  0  0  0  0  0  0
    9.4290   -6.1680   26.5230 C   0  0  0  0  0  0  0  0  0  0  0  0
    8.5960   -5.5530   27.3700 C   0  0  0  0  0  0  0  0  0  0  0  0
   10.3160   -0.1770   24.4310 C   0  0  0  0  0  0  0  0  0  0  0  0
   12.2190   -0.8390   23.0400 C   0  0  0  0  0  0  0  0  0  0  0  0
    6.2860    0.8160   17.5530 N   0  0  0  0  0  0  0  0  0  0  0  0
    4.7590    1.4370   19.4610 C   0  0  0  0  0  0  0  0  0  0  0  0
    8.0910   -5.9220   28.5440 O   0  0  0  0  0  0  0  0  0  0  0  0
   13.0760   -1.8360   22.3290 C   0  0  0  0  0  0  0  0  0  0  0  0
   10.6250    1.1570   24.3340 C   0  0  0  0  0  0  0  0  0  0  0  0
   12.5740    0.6160   22.9430 C   0  0  0  0  0  0  0  0  0  0  0  0
    5.1090    1.4770   18.1030 C   0  0  0  0  0  0  0  0  0  0  0  0
   11.8240    1.6080   23.5530 C   0  0  0  0  0  0  0  0  0  0  0  0
    6.4370   -5.8180   28.6520 Cl  0  0  0  0  0  0  0  0  0  0  0  0
  2  1  1  1
  2  3  1  0
  1  4  2  3
  2  5  1  0
  4  6  1  0
  3  7  1  0
  5  8  1  0
  9  6  1  6
  7 10  1  0
  7 11  2  0
  8 12  1  0
  8 13  2  0
  9 14  1  0
  9 15  1  0
 14 16  1  0
 15 17  1  0
 14 18  1  0
 16 19  1  0
 16 20  2  0
 17 21  1  0
 18 22  1  6
 17 23  1  0
 18 23  1  0
 21 24  1  0
 21 25  1  6
 21 26  1  0
 22 27  1  0
 26 28  2  0
 26 29  1  0
 24 30  1  0
 27 31  2  0
 27 32  1  0
 28 33  1  0
 29 34  1  0
 33 34  2  0
 30 35  2  0
 30 36  1  0
 31 37  1  0
 32 38  2  0
 34 39  1  0
 36 40  1  0
 35 41  1  0
 36 42  2  0
 37 43  2  0
 38 43  1  0
 41 44  2  0
 42 44  1  0
 39 45  1  0
M  END
