x0981_1-x0874_0-x0820_1
     RDKit          3D

 29 31  0  0  0  0  0  0  0  0999 V2000
    3.5360   -5.1810   23.4080 C   0  0  0  0  0  0  0  0  0  0  0  0
    2.3070   -6.0300   23.5420 C   0  0  1  0  0  0  0  0  0  0  0  0
    2.3490   -7.1610   22.6310 N   0  0  0  0  0  0  0  0  0  0  0  0
    4.1370   -5.1130   24.7710 C   0  0  0  0  0  0  0  0  0  0  0  0
    2.1330   -6.4900   25.0050 C   0  0  0  0  0  0  0  0  0  0  0  0
    4.9840   -4.9780   26.0800 C   0  0  0  0  0  0  0  0  0  0  0  0
    5.3020   -4.7100   23.7950 C   0  0  0  0  0  0  0  0  0  0  0  0
    1.1720   -7.5380   21.9710 C   0  0  0  0  0  0  0  0  0  0  0  0
    2.8490   -7.8090   25.2650 C   0  0  0  0  0  0  0  0  0  0  0  0
    6.7610   -4.3360   24.0430 C   0  0  0  0  0  0  0  0  0  0  0  0
    6.2800   -4.6690   26.4000 C   0  0  0  0  0  0  0  0  0  0  0  0
    1.2420   -8.8200   21.1720 C   0  0  0  0  0  0  0  0  0  0  0  0
    0.1560   -6.8580   22.0200 O   0  0  0  0  0  0  0  0  0  0  0  0
    2.3220   -8.5780   26.2490 N   0  0  0  0  0  0  0  0  0  0  0  0
    3.8330   -8.1490   24.6330 O   0  0  0  0  0  0  0  0  0  0  0  0
    7.6270   -3.9820   22.8150 C   0  0  0  0  0  0  0  0  0  0  0  0
    7.2690   -4.3250   25.3290 C   0  0  0  0  0  0  0  0  0  0  0  0
    6.6910   -4.6810   27.7360 C   0  0  0  0  0  0  0  0  0  0  0  0
    7.5400   -2.5070   22.5080 C   0  0  0  0  0  0  0  0  0  0  0  0
    8.5080   -4.0410   25.5900 C   0  0  0  0  0  0  0  0  0  0  0  0
    8.0110   -4.3880   28.0310 C   0  0  0  0  0  0  0  0  0  0  0  0
    8.6660   -1.8160   22.1940 C   0  0  0  0  0  0  0  0  0  0  0  0
    8.9720   -4.0510   26.8730 C   0  0  0  0  0  0  0  0  0  0  0  0
    9.4190   -0.8900   23.1800 C   0  0  0  0  0  0  0  0  0  0  0  0
   10.8790   -0.7670   22.8830 C   0  0  0  0  0  0  0  0  0  0  0  0
   11.7260    0.2720   23.2660 C   0  0  0  0  0  0  0  0  0  0  0  0
   11.5840   -1.7100   22.1600 C   0  0  0  0  0  0  0  0  0  0  0  0
   13.0340    0.1380   22.8550 C   0  0  0  0  0  0  0  0  0  0  0  0
   13.2290   -1.3120   21.9730 S   0  0  0  0  0  0  0  0  0  0  0  0
  2  1  1  1
  2  3  1  0
  1  4  1  0
  2  5  1  0
  4  6  2  0
  4  7  1  0
  3  8  1  0
  5  9  1  0
  7 10  2  0
  6 11  1  0
  8 12  1  0
  8 13  2  0
  9 14  1  0
  9 15  2  0
 10 16  1  0
 10 17  1  0
 11 17  2  0
 11 18  1  0
 16 19  1  0
 17 20  1  0
 18 21  2  0
 19 22  1  0
 20 23  2  0
 21 23  1  0
 22 24  1  0
 24 25  1  0
 25 26  1  0
 25 27  2  0
 26 28  2  0
 27 29  1  0
 28 29  1  0
M  END
