x0981_1-x1412_1-x1385_0-x1412_0-x0434_2
     RDKit          3D

 37 39  0  0  0  0  0  0  0  0999 V2000
    4.1810   -5.3300   23.1600 C   0  0  0  0  0  0  0  0  0  0  0  0
    2.8310   -5.9710   23.5120 C   0  0  1  0  0  0  0  0  0  0  0  0
    2.6120   -7.1990   22.7350 N   0  0  0  0  0  0  0  0  0  0  0  0
    4.3550   -4.0940   23.5140 N   0  0  0  0  0  0  0  0  0  0  0  0
    2.7790   -6.2320   25.0300 C   0  0  0  0  0  0  0  0  0  0  0  0
    5.5940   -3.3210   23.2380 C   0  0  0  0  0  0  0  0  0  0  0  0
    1.3760   -7.4170   22.1560 C   0  0  0  0  0  0  0  0  0  0  0  0
    3.1650   -7.6690   25.2840 C   0  0  0  0  0  0  0  0  0  0  0  0
    6.4370   -3.8230   22.2160 C   0  0  1  0  0  0  0  0  0  0  0  0
    1.2190   -8.7430   21.3440 C   0  0  0  0  0  0  0  0  0  0  0  0
    0.4570   -6.6110   22.2500 O   0  0  0  0  0  0  0  0  0  0  0  0
    2.4970   -8.3130   26.2910 N   0  0  0  0  0  0  0  0  0  0  0  0
    4.0260   -8.1970   24.6240 O   0  0  0  0  0  0  0  0  0  0  0  0
    6.6360   -2.8590   21.0940 N   0  0  0  0  0  0  0  0  0  0  0  0
    7.7900   -4.1550   22.8570 C   0  0  0  0  0  0  0  0  0  0  0  0
    6.3730   -3.3800   19.8680 C   0  0  0  0  0  0  0  0  0  0  0  0
    8.3260   -2.8680   23.3270 N   0  0  0  0  0  0  0  0  0  0  0  0
    7.6980   -1.8170   21.1460 C   0  0  1  0  0  0  0  0  0  0  0  0
    7.3550   -3.0920   18.7530 C   0  0  0  0  0  0  0  0  0  0  0  0
    5.3910   -4.1050   19.6910 O   0  0  0  0  0  0  0  0  0  0  0  0
    9.3720   -2.9990   24.3440 C   0  0  1  0  0  0  0  0  0  0  0  0
    6.9270   -0.5740   21.3100 N   0  0  0  0  0  0  0  0  0  0  0  0
    8.8170   -2.1000   22.1750 C   0  0  0  0  0  0  0  0  0  0  0  0
    9.2940   -1.8010   25.0490 C   0  0  0  0  0  0  0  0  0  0  0  0
    9.0690   -4.0640   25.3470 C   0  0  0  0  0  0  0  0  0  0  0  0
    6.3480    0.0510   20.2610 C   0  0  0  0  0  0  0  0  0  0  0  0
    8.2720   -1.1310   25.1670 O   0  0  0  0  0  0  0  0  0  0  0  0
    9.7600   -5.3010   25.4360 C   0  0  0  0  0  0  0  0  0  0  0  0
    7.8200   -3.8360   26.4820 S   0  0  0  0  0  0  0  0  0  0  0  0
    6.9230    0.0020   18.8710 C   0  0  0  0  0  0  0  0  0  0  0  0
    5.0960    0.8330   20.3950 C   0  0  0  0  0  0  0  0  0  0  0  0
    9.2620   -6.0730   26.4480 C   0  0  0  0  0  0  0  0  0  0  0  0
    8.1180   -5.3360   27.1420 C   0  0  0  0  0  0  0  0  0  0  0  0
    6.4170    0.6010   17.7670 N   0  0  0  0  0  0  0  0  0  0  0  0
    4.6670    1.3870   19.2480 C   0  0  0  0  0  0  0  0  0  0  0  0
    7.0760   -5.9700   28.5990 Br  0  0  0  0  0  0  0  0  0  0  0  0
    5.2850    1.2830   18.0070 C   0  0  0  0  0  0  0  0  0  0  0  0
  2  1  1  1
  2  3  1  0
  1  4  2  3
  2  5  1  0
  4  6  1  0
  3  7  1  0
  5  8  1  0
  9  6  1  1
  7 10  1  0
  7 11  2  0
  8 12  1  0
  8 13  2  0
  9 14  1  0
  9 15  1  0
 14 16  1  0
 15 17  1  0
 14 18  1  0
 16 19  1  0
 16 20  2  0
 17 21  1  0
 18 22  1  1
 17 23  1  0
 18 23  1  0
 21 24  1  1
 21 25  1  0
 22 26  1  0
 24 27  2  0
 25 28  2  0
 25 29  1  0
 26 30  2  0
 26 31  1  0
 28 32  1  0
 29 33  1  0
 32 33  2  0
 30 34  1  0
 31 35  2  0
 33 36  1  0
 34 37  2  0
 35 37  1  0
M  END
