x0981_1-x1412_0-x0395_1-x1418_1
     RDKit          3D

 36 38  0  0  0  0  0  0  0  0999 V2000
    3.9920   -5.2000   23.1840 C   0  0  0  0  0  0  0  0  0  0  0  0
    2.7740   -6.0360   23.5550 C   0  0  1  0  0  0  0  0  0  0  0  0
    2.5950   -7.2240   22.7290 N   0  0  0  0  0  0  0  0  0  0  0  0
    4.2880   -3.9030   23.5780 N   0  0  0  0  0  0  0  0  0  0  0  0
    2.6630   -6.3270   25.0330 C   0  0  0  0  0  0  0  0  0  0  0  0
    5.4130   -3.0440   23.2510 C   0  0  0  0  0  0  0  0  0  0  0  0
    1.3020   -7.4680   22.0940 C   0  0  0  0  0  0  0  0  0  0  0  0
    3.0710   -7.7320   25.3520 C   0  0  0  0  0  0  0  0  0  0  0  0
    6.3630   -3.6250   22.1910 C   0  0  2  0  0  0  0  0  0  0  0  0
    1.1920   -8.7560   21.3240 C   0  0  0  0  0  0  0  0  0  0  0  0
    0.3820   -6.6620   22.1710 O   0  0  0  0  0  0  0  0  0  0  0  0
    2.4810   -8.4200   26.3620 N   0  0  0  0  0  0  0  0  0  0  0  0
    3.9430   -8.2240   24.6730 O   0  0  0  0  0  0  0  0  0  0  0  0
    7.6950   -4.0110   22.7370 C   0  0  0  0  0  0  0  0  0  0  0  0
    6.5350   -2.6830   21.0940 N   0  0  0  0  0  0  0  0  0  0  0  0
    6.3170   -3.2530   19.8520 C   0  0  0  0  0  0  0  0  0  0  0  0
    8.4040   -2.8180   23.1420 N   0  0  0  0  0  0  0  0  0  0  0  0
    7.4440   -1.5500   21.3190 C   0  0  0  0  0  0  0  0  0  0  0  0
    7.3370   -2.9980   18.7610 C   0  0  0  0  0  0  0  0  0  0  0  0
    5.3530   -3.9920   19.6290 O   0  0  0  0  0  0  0  0  0  0  0  0
    8.7970   -2.6230   24.4790 C   0  0  0  0  0  0  0  0  0  0  0  0
    8.6320   -1.9400   21.9720 C   0  0  0  0  0  0  0  0  0  0  0  0
    9.2900   -1.4470   25.1600 N   0  0  0  0  0  0  0  0  0  0  0  0
    8.7650   -3.7800   25.5260 C   0  0  0  0  0  0  0  0  0  0  0  0
    9.3630   -0.2770   24.3030 C   0  0  0  0  0  0  0  0  0  0  0  0
    9.6310   -4.9620   25.4310 C   0  0  0  0  0  0  0  0  0  0  0  0
    7.7480   -3.9700   27.0240 S   0  0  0  0  0  0  0  0  0  0  0  0
    9.4690   -5.8950   26.4600 C   0  0  0  0  0  0  0  0  0  0  0  0
    8.4980   -5.4920   27.3870 C   0  0  0  0  0  0  0  0  0  0  0  0
   10.2320   -0.2800   23.1240 N   0  0  0  0  0  0  0  0  0  0  0  0
   11.2090   -1.4100   22.9700 C   0  0  0  0  0  0  0  0  0  0  0  0
   10.8020    1.0620   23.0610 C   0  0  0  0  0  0  0  0  0  0  0  0
   12.4580   -0.9970   22.5000 C   0  0  0  0  0  0  0  0  0  0  0  0
   12.0980    1.0820   23.5580 C   0  0  0  0  0  0  0  0  0  0  0  0
   13.2350   -1.8090   21.7560 F   0  0  0  0  0  0  0  0  0  0  0  0
   12.9160    0.2620   22.8030 C   0  0  0  0  0  0  0  0  0  0  0  0
  2  1  1  1
  2  3  1  0
  1  4  2  3
  2  5  1  0
  4  6  1  0
  3  7  1  0
  5  8  1  0
  9  6  1  1
  7 10  1  0
  7 11  2  0
  8 12  1  0
  8 13  2  0
  9 14  1  0
  9 15  1  0
 15 16  1  0
 14 17  1  0
 15 18  1  0
 16 19  1  0
 16 20  2  0
 17 21  1  0
 17 22  1  0
 18 22  1  0
 21 23  2  3
 21 24  1  0
 23 25  1  0
 24 26  2  0
 24 27  1  0
 26 28  1  0
 27 29  1  0
 28 29  2  0
 25 30  1  0
 30 31  1  0
 30 32  1  0
 31 33  1  0
 32 34  1  0
 33 35  1  0
 33 36  2  0
 34 36  1  0
M  END
