x0981_1-x0831_1-x0692_0
     RDKit          3D

 30 31  0  0  0  0  0  0  0  0999 V2000
    4.3160   -5.3980   23.3460 C   0  0  0  0  0  0  0  0  0  0  0  0
    2.9040   -5.9620   23.5370 C   0  0  1  0  0  0  0  0  0  0  0  0
    2.6170   -7.1360   22.7010 N   0  0  0  0  0  0  0  0  0  0  0  0
    4.5370   -4.2100   23.8260 N   0  0  0  0  0  0  0  0  0  0  0  0
    2.6200   -6.2810   24.9930 C   0  0  0  0  0  0  0  0  0  0  0  0
    5.8530   -3.5350   23.7570 C   0  0  0  0  0  0  0  0  0  0  0  0
    1.4140   -7.4540   22.1310 C   0  0  0  0  0  0  0  0  0  0  0  0
    3.0790   -7.7000   25.3090 C   0  0  0  0  0  0  0  0  0  0  0  0
    6.6950   -3.7490   22.4600 C   0  0  1  0  0  0  0  0  0  0  0  0
    1.2430   -8.7430   21.3700 C   0  0  0  0  0  0  0  0  0  0  0  0
    0.4850   -6.6490   22.2290 O   0  0  0  0  0  0  0  0  0  0  0  0
    2.4470   -8.3360   26.3390 N   0  0  0  0  0  0  0  0  0  0  0  0
    3.9650   -8.2190   24.6660 O   0  0  0  0  0  0  0  0  0  0  0  0
    6.2840   -2.8920   21.3070 N   0  0  0  0  0  0  0  0  0  0  0  0
    8.0110   -3.6790   22.8110 C   0  0  0  0  0  0  0  0  0  0  0  0
    6.1970   -3.4370   20.0270 C   0  0  0  0  0  0  0  0  0  0  0  0
    8.3930   -2.2970   23.0840 N   0  0  0  0  0  0  0  0  0  0  0  0
    6.4170   -1.4250   21.3500 C   0  0  0  0  0  0  0  0  0  0  0  0
    5.3140   -4.2470   19.7660 O   0  0  0  0  0  0  0  0  0  0  0  0
    7.2280   -3.0490   18.9540 C   0  0  0  0  0  0  0  0  0  0  0  0
    9.4400   -2.2690   24.0060 C   0  0  0  0  0  0  0  0  0  0  0  0
    8.7490   -1.6060   21.8300 C   0  0  0  0  0  0  0  0  0  0  0  0
    7.6700   -0.8290   21.2510 C   0  0  0  0  0  0  0  0  0  0  0  0
   10.5670   -1.3250   23.6970 C   0  0  0  0  0  0  0  0  0  0  0  0
   10.3570    0.0200   23.8150 C   0  0  0  0  0  0  0  0  0  0  0  0
   11.8230   -1.8040   23.2910 C   0  0  0  0  0  0  0  0  0  0  0  0
   11.3800    0.9160   23.5290 C   0  0  0  0  0  0  0  0  0  0  0  0
   12.8630   -0.9180   23.0040 C   0  0  0  0  0  0  0  0  0  0  0  0
   11.1040    2.3770   23.6520 C   0  0  0  0  0  0  0  0  0  0  0  0
   12.6370    0.4400   23.1240 C   0  0  0  0  0  0  0  0  0  0  0  0
  2  1  1  1
  2  3  1  0
  1  4  2  3
  2  5  1  0
  4  6  1  0
  3  7  1  0
  5  8  1  0
  9  6  1  1
  7 10  1  0
  7 11  2  0
  8 12  1  0
  8 13  2  0
  9 14  1  0
  9 15  1  0
 14 16  1  0
 15 17  1  0
 14 18  1  0
 16 19  2  0
 16 20  1  0
 17 21  1  0
 17 22  1  0
 18 23  1  0
 22 23  1  0
 21 24  1  0
 24 25  2  0
 24 26  1  0
 25 27  1  0
 26 28  2  0
 27 29  1  0
 27 30  2  0
 28 30  1  0
M  END
