x0981_1-x1412_0
     RDKit          3D

 20 20  0  0  0  0  0  0  0  0999 V2000
    4.4020   -5.6140   23.3250 C   0  0  0  0  0  0  0  0  0  0  0  0
    2.9320   -6.0190   23.4860 C   0  0  1  0  0  0  0  0  0  0  0  0
    2.5890   -7.2680   22.7880 N   0  0  0  0  0  0  0  0  0  0  0  0
    4.8020   -4.4720   23.8110 N   0  0  0  0  0  0  0  0  0  0  0  0
    2.7000   -6.2130   24.9830 C   0  0  0  0  0  0  0  0  0  0  0  0
    6.2450   -4.1130   23.6590 C   0  0  0  0  0  0  0  0  0  0  0  0
    1.3710   -7.4310   22.1450 C   0  0  0  0  0  0  0  0  0  0  0  0
    3.1200   -7.6470   25.3050 C   0  0  0  0  0  0  0  0  0  0  0  0
    6.5210   -2.8390   24.5410 C   0  0  0  0  0  0  0  0  0  0  0  0
    1.2130   -8.7160   21.3650 C   0  0  0  0  0  0  0  0  0  0  0  0
    0.4790   -6.5910   22.1830 O   0  0  0  0  0  0  0  0  0  0  0  0
    2.5200   -8.2590   26.3660 N   0  0  0  0  0  0  0  0  0  0  0  0
    3.9620   -8.1950   24.6260 O   0  0  0  0  0  0  0  0  0  0  0  0
    7.8100   -2.8040   24.9110 C   0  0  0  0  0  0  0  0  0  0  0  0
    8.5580   -1.7310   24.5380 O   0  0  0  0  0  0  0  0  0  0  0  0
    8.2930   -3.8620   25.6580 C   0  0  0  0  0  0  0  0  0  0  0  0
    9.2050   -4.8180   25.3800 C   0  0  0  0  0  0  0  0  0  0  0  0
    7.6290   -4.0490   27.2780 S   0  0  0  0  0  0  0  0  0  0  0  0
    9.3950   -5.7090   26.3960 C   0  0  0  0  0  0  0  0  0  0  0  0
    8.6430   -5.4960   27.5440 C   0  0  0  0  0  0  0  0  0  0  0  0
  2  1  1  1
  2  3  1  0
  1  4  2  3
  2  5  1  0
  4  6  1  0
  3  7  1  0
  5  8  1  0
  6  9  1  0
  7 10  1  0
  7 11  2  0
  8 12  1  0
  8 13  2  0
  9 14  1  0
 14 15  2  0
 14 16  1  0
 16 17  2  0
 16 18  1  0
 17 19  1  0
 18 20  1  0
 19 20  2  0
M  END
