x0981_1-x0831_0-x1412_0-x0434_2-x1412_1
     RDKit          3D

 44 47  0  0  0  0  0  0  0  0999 V2000
    4.0700   -5.9370   22.9520 C   0  0  0  0  0  0  0  0  0  0  0  0
    2.6660   -6.1640   23.4520 C   0  0  1  0  0  0  0  0  0  0  0  0
    2.3400   -7.4330   22.8120 N   0  0  0  0  0  0  0  0  0  0  0  0
    4.7490   -4.8770   22.8810 N   0  0  0  0  0  0  0  0  0  0  0  0
    2.6660   -6.2700   24.9860 C   0  0  0  0  0  0  0  0  0  0  0  0
    6.0800   -4.9690   22.3160 C   0  0  0  0  0  0  0  0  0  0  0  0
    1.2000   -7.5310   22.0680 C   0  0  0  0  0  0  0  0  0  0  0  0
    3.0680   -7.6830   25.3350 C   0  0  0  0  0  0  0  0  0  0  0  0
    6.7560   -3.6230   22.5020 C   0  0  2  0  0  0  0  0  0  0  0  0
    1.1260   -8.7700   21.2200 C   0  0  0  0  0  0  0  0  0  0  0  0
    0.3160   -6.6800   22.0740 O   0  0  0  0  0  0  0  0  0  0  0  0
    2.3780   -8.3070   26.3260 N   0  0  0  0  0  0  0  0  0  0  0  0
    3.9760   -8.1970   24.7190 O   0  0  0  0  0  0  0  0  0  0  0  0
    6.6650   -2.7450   21.3130 N   0  0  0  0  0  0  0  0  0  0  0  0
    8.1530   -3.7650   23.1280 C   0  0  0  0  0  0  0  0  0  0  0  0
    6.4380   -3.3240   20.0310 C   0  0  0  0  0  0  0  0  0  0  0  0
    8.8900   -2.4830   23.1100 N   0  0  0  0  0  0  0  0  0  0  0  0
    7.5610   -1.6320   21.5210 C   0  0  2  0  0  0  0  0  0  0  0  0
    7.3570   -2.9840   18.8540 C   0  0  0  0  0  0  0  0  0  0  0  0
    5.5170   -4.1330   19.7790 O   0  0  0  0  0  0  0  0  0  0  0  0
   10.1820   -2.3000   23.7710 C   0  0  2  0  0  0  0  0  0  0  0  0
    7.6930   -0.6970   20.4400 N   0  0  0  0  0  0  0  0  0  0  0  0
    8.9030   -2.0010   21.7750 C   0  0  0  0  0  0  0  0  0  0  0  0
   10.0120   -2.4660   25.2300 C   0  0  0  0  0  0  0  0  0  0  0  0
   10.9830   -1.0380   23.5640 C   0  0  0  0  0  0  0  0  0  0  0  0
    6.7490   -0.0190   19.8260 C   0  0  0  0  0  0  0  0  0  0  0  0
    8.5170   -2.5580   25.5460 C   0  0  0  0  0  0  0  0  0  0  0  0
   10.3930    0.0920   24.1760 C   0  0  0  0  0  0  0  0  0  0  0  0
   12.3130   -0.9150   22.7940 C   0  0  0  0  0  0  0  0  0  0  0  0
    6.9770    0.3190   18.4250 C   0  0  0  0  0  0  0  0  0  0  0  0
    5.5620    0.4000   20.4060 C   0  0  0  0  0  0  0  0  0  0  0  0
   13.0360   -2.0080   22.0890 C   0  0  0  0  0  0  0  0  0  0  0  0
    7.5740   -1.7880   25.3180 O   0  0  0  0  0  0  0  0  0  0  0  0
   10.9700    1.3450   24.1170 C   0  0  0  0  0  0  0  0  0  0  0  0
   12.8450    0.5320   22.8310 C   0  0  0  0  0  0  0  0  0  0  0  0
    8.6010   -3.9010   26.2380 C   0  0  0  0  0  0  0  0  0  0  0  0
    6.1830    1.0030   17.5880 N   0  0  0  0  0  0  0  0  0  0  0  0
    4.6740    1.1890   19.4150 C   0  0  0  0  0  0  0  0  0  0  0  0
   12.1450    1.5200   23.4700 C   0  0  0  0  0  0  0  0  0  0  0  0
    9.4130   -5.0990   25.8590 C   0  0  0  0  0  0  0  0  0  0  0  0
    7.6870   -4.1980   27.6920 S   0  0  0  0  0  0  0  0  0  0  0  0
    5.0230    1.4480   18.0890 C   0  0  0  0  0  0  0  0  0  0  0  0
    9.3010   -6.1200   26.6590 C   0  0  0  0  0  0  0  0  0  0  0  0
    8.3710   -5.8560   27.7860 C   0  0  0  0  0  0  0  0  0  0  0  0
  2  1  1  6
  2  3  1  0
  1  4  2  3
  2  5  1  0
  4  6  1  0
  3  7  1  0
  5  8  1  0
  9  6  1  6
  7 10  1  0
  7 11  2  0
  8 12  1  0
  8 13  2  0
  9 14  1  0
  9 15  1  0
 14 16  1  0
 15 17  1  0
 14 18  1  0
 16 19  1  0
 16 20  2  0
 17 21  1  0
 18 22  1  6
 17 23  1  0
 18 23  1  0
 21 24  1  1
 21 25  1  0
 22 26  1  0
 24 27  1  0
 25 28  2  0
 25 29  1  0
 26 30  2  0
 26 31  1  0
 29 32  1  0
 27 33  2  0
 28 34  1  0
 29 35  2  0
 27 36  1  0
 30 37  1  0
 31 38  2  0
 34 39  2  0
 35 39  1  0
 36 40  2  0
 36 41  1  0
 37 42  2  0
 38 42  1  0
 40 43  1  0
 41 44  1  0
 43 44  2  0
M  END
