x0981_1-x0831_1-x1418_0-x0692_0
     RDKit          3D

 31 32  0  0  0  0  0  0  0  0999 V2000
    4.2580   -5.3080   23.3590 C   0  0  0  0  0  0  0  0  0  0  0  0
    2.8990   -6.0090   23.5530 C   0  0  1  0  0  0  0  0  0  0  0  0
    2.6230   -7.1960   22.7320 N   0  0  0  0  0  0  0  0  0  0  0  0
    4.5020   -4.0950   23.7870 N   0  0  0  0  0  0  0  0  0  0  0  0
    2.6670   -6.2690   25.0420 C   0  0  0  0  0  0  0  0  0  0  0  0
    5.7520   -3.3040   23.7000 C   0  0  0  0  0  0  0  0  0  0  0  0
    1.3900   -7.4250   22.1410 C   0  0  0  0  0  0  0  0  0  0  0  0
    3.0920   -7.6840   25.2800 C   0  0  0  0  0  0  0  0  0  0  0  0
    6.5940   -3.6350   22.4460 C   0  0  1  0  0  0  0  0  0  0  0  0
    1.2500   -8.7240   21.3790 C   0  0  0  0  0  0  0  0  0  0  0  0
    0.4680   -6.6190   22.2070 O   0  0  0  0  0  0  0  0  0  0  0  0
    2.4710   -8.3740   26.2850 N   0  0  0  0  0  0  0  0  0  0  0  0
    3.9650   -8.1750   24.5950 O   0  0  0  0  0  0  0  0  0  0  0  0
    6.1370   -2.8050   21.2910 N   0  0  0  0  0  0  0  0  0  0  0  0
    7.9790   -3.4900   22.6900 C   0  0  0  0  0  0  0  0  0  0  0  0
    6.1580   -3.4380   20.0530 C   0  0  0  0  0  0  0  0  0  0  0  0
    8.4320   -2.1230   22.9920 N   0  0  0  0  0  0  0  0  0  0  0  0
    6.1850   -1.3390   21.3610 C   0  0  0  0  0  0  0  0  0  0  0  0
    5.3770   -4.3640   19.8260 O   0  0  0  0  0  0  0  0  0  0  0  0
    7.1550   -3.0210   18.9510 C   0  0  0  0  0  0  0  0  0  0  0  0
    9.5450   -2.1500   23.9430 C   0  0  1  0  0  0  0  0  0  0  0  0
    8.7410   -1.3800   21.7570 C   0  0  0  0  0  0  0  0  0  0  0  0
    7.5460   -0.6480   21.1150 C   0  0  0  0  0  0  0  0  0  0  0  0
   10.1940   -3.5090   23.9710 C   0  0  0  0  0  0  0  0  0  0  0  0
   10.6290   -1.1790   23.6390 C   0  0  0  0  0  0  0  0  0  0  0  0
   10.3040    0.1390   23.8380 C   0  0  0  0  0  0  0  0  0  0  0  0
   11.8930   -1.5850   23.1830 C   0  0  0  0  0  0  0  0  0  0  0  0
   11.2110    1.1390   23.5920 C   0  0  0  0  0  0  0  0  0  0  0  0
   12.8660   -0.6010   22.9200 C   0  0  0  0  0  0  0  0  0  0  0  0
   10.7690    2.5400   23.8170 C   0  0  0  0  0  0  0  0  0  0  0  0
   12.5410    0.8500   23.1260 C   0  0  0  0  0  0  0  0  0  0  0  0
  2  1  1  1
  2  3  1  0
  1  4  2  3
  2  5  1  0
  4  6  1  0
  3  7  1  0
  5  8  1  0
  9  6  1  1
  7 10  1  0
  7 11  2  0
  8 12  1  0
  8 13  2  0
  9 14  1  0
  9 15  1  0
 14 16  1  0
 15 17  1  0
 14 18  1  0
 16 19  2  0
 16 20  1  0
 17 21  1  0
 17 22  1  0
 18 23  1  0
 22 23  1  0
 21 24  1  6
 21 25  1  0
 25 26  2  0
 25 27  1  0
 26 28  1  0
 27 29  2  0
 28 30  1  0
 28 31  2  0
 29 31  1  0
M  END
