x0981_1-x0195_0
     RDKit          3D

 30 31  0  0  0  0  0  0  0  0999 V2000
    4.2940   -5.6990   23.0270 C   0  0  0  0  0  0  0  0  0  0  0  0
    2.8590   -6.0800   23.4030 C   0  0  1  0  0  0  0  0  0  0  0  0
    2.6290   -7.1170   22.8920 N   0  0  0  0  0  0  0  0  0  0  0  0
    5.0570   -4.5580   23.2740 N   0  0  0  0  0  0  0  0  0  0  0  0
    2.6700   -6.1840   24.9170 C   0  0  0  0  0  0  0  0  0  0  0  0
    6.3720   -4.4450   22.7880 C   0  0  0  0  0  0  0  0  0  0  0  0
    1.3590   -7.3660   22.1860 C   0  0  0  0  0  0  0  0  0  0  0  0
    3.0930   -7.5830   25.3080 C   0  0  0  0  0  0  0  0  0  0  0  0
    7.4160   -3.9870   23.6180 C   0  0  0  0  0  0  0  0  0  0  0  0
    1.2470   -8.6830   21.4560 C   0  0  0  0  0  0  0  0  0  0  0  0
    0.2950   -6.4210   22.1580 O   0  0  0  0  0  0  0  0  0  0  0  0
    2.4700   -8.1510   26.3280 N   0  0  0  0  0  0  0  0  0  0  0  0
    4.1190   -8.2340   24.5970 O   0  0  0  0  0  0  0  0  0  0  0  0
    8.0560   -2.7930   23.2340 C   0  0  0  0  0  0  0  0  0  0  0  0
    8.7920   -2.1450   24.2380 C   0  0  0  0  0  0  0  0  0  0  0  0
    9.1990   -0.6840   23.9700 C   0  0  0  0  0  0  0  0  0  0  0  0
   10.6620   -0.4890   23.9450 N   0  0  0  0  0  0  0  0  0  0  0  0
   11.2280    0.7650   23.6160 C   0  0  0  0  0  0  0  0  0  0  0  0
   11.4710   -1.7190   23.7870 C   0  0  0  0  0  0  0  0  0  0  0  0
   12.4750    0.7690   23.1280 C   0  0  0  0  0  0  0  0  0  0  0  0
   12.4390   -1.5010   22.6370 C   0  0  0  0  0  0  0  0  0  0  0  0
   10.5300    2.0040   23.7850 C   0  0  0  0  0  0  0  0  0  0  0  0
   13.2170   -0.4590   22.9370 C   0  0  0  0  0  0  0  0  0  0  0  0
   13.1020    2.1070   22.7760 C   0  0  0  0  0  0  0  0  0  0  0  0
   11.0640    3.2680   23.4650 C   0  0  0  0  0  0  0  0  0  0  0  0
   10.1250    4.7580   23.7060 S   0  0  0  0  0  0  0  0  0  0  0  0
   12.3360    3.3780   22.9580 C   0  0  0  0  0  0  0  0  0  0  0  0
    9.8700    4.9700   25.1030 O   0  0  0  0  0  0  0  0  0  0  0  0
    9.0620    4.8410   22.7500 O   0  0  0  0  0  0  0  0  0  0  0  0
   11.2680    5.9470   23.3090 N   0  0  0  0  0  0  0  0  0  0  0  0
  2  1  1  1
  2  3  1  0
  1  4  2  3
  2  5  1  0
  4  6  1  0
  3  7  1  0
  5  8  1  0
  6  9  1  0
  7 10  1  0
  7 11  2  0
  8 12  1  0
  8 13  2  0
  9 14  1  0
 14 15  1  0
 15 16  1  0
 16 17  1  0
 17 18  1  0
 17 19  1  0
 18 20  2  0
 19 21  1  0
 18 22  1  0
 20 23  1  0
 21 23  1  0
 20 24  1  0
 22 25  2  0
 25 26  1  0
 24 27  2  0
 25 27  1  0
 26 28  2  0
 26 29  2  0
 26 30  1  0
M  END
