x0981_1-x1412_0-x1412_1-x1334_0-x0831_0-x0434_2
     RDKit          3D

 45 49  0  0  0  0  0  0  0  0999 V2000
    3.8370   -5.1710   23.2630 C   0  0  0  0  0  0  0  0  0  0  0  0
    2.5960   -6.0140   23.6260 C   0  0  1  0  0  0  0  0  0  0  0  0
    2.5010   -7.2000   22.7620 N   0  0  0  0  0  0  0  0  0  0  0  0
    4.0490   -3.7910   23.7370 N   0  0  0  0  0  0  0  0  0  0  0  0
    2.6070   -6.3750   25.1130 C   0  0  0  0  0  0  0  0  0  0  0  0
    5.2200   -3.0140   23.3610 C   0  0  0  0  0  0  0  0  0  0  0  0
    1.3190   -7.4640   22.1010 C   0  0  0  0  0  0  0  0  0  0  0  0
    3.0520   -7.7730   25.3130 C   0  0  0  0  0  0  0  0  0  0  0  0
    6.1130   -3.7340   22.3310 C   0  0  1  0  0  0  0  0  0  0  0  0
    1.2610   -8.7540   21.3210 C   0  0  0  0  0  0  0  0  0  0  0  0
    0.3710   -6.6890   22.1240 O   0  0  0  0  0  0  0  0  0  0  0  0
    2.4300   -8.5330   26.2400 N   0  0  0  0  0  0  0  0  0  0  0  0
    3.9600   -8.2250   24.6540 O   0  0  0  0  0  0  0  0  0  0  0  0
    6.5790   -2.7830   21.3040 N   0  0  0  0  0  0  0  0  0  0  0  0
    7.3010   -4.4340   22.9880 C   0  0  0  0  0  0  0  0  0  0  0  0
    6.4280   -3.2980   19.9890 C   0  0  0  0  0  0  0  0  0  0  0  0
    8.4760   -3.6090   23.1950 N   0  0  0  0  0  0  0  0  0  0  0  0
    7.6230   -1.8350   21.7920 C   0  0  2  0  0  0  0  0  0  0  0  0
    7.4050   -2.9850   18.8770 C   0  0  0  0  0  0  0  0  0  0  0  0
    5.4790   -4.0740   19.7310 O   0  0  0  0  0  0  0  0  0  0  0  0
    8.8420   -3.0250   24.4750 C   0  0  2  0  0  0  0  0  0  0  0  0
    7.8520   -0.8150   20.7530 N   0  0  0  0  0  0  0  0  0  0  0  0
    8.9100   -2.7080   22.1380 C   0  0  1  0  0  0  0  0  0  0  0  0
    8.1110   -2.0320   24.6640 O   0  0  0  0  0  0  0  0  0  0  0  0
   10.2980   -2.9470   24.1310 C   0  0  0  0  0  0  0  0  0  0  0  0
   10.2980   -2.1870   22.8300 C   0  0  2  0  0  0  0  0  0  0  0  0
    8.5680   -3.9390   25.6110 C   0  0  0  0  0  0  0  0  0  0  0  0
    6.8760   -0.0770   20.0910 C   0  0  0  0  0  0  0  0  0  0  0  0
    9.5080   -5.1350   25.8570 C   0  0  0  0  0  0  0  0  0  0  0  0
    7.3260   -3.9570   26.7930 S   0  0  0  0  0  0  0  0  0  0  0  0
   10.8380   -0.8080   23.0640 C   0  0  0  0  0  0  0  0  0  0  0  0
    7.0860   -0.0730   18.6060 C   0  0  0  0  0  0  0  0  0  0  0  0
    5.7860    0.6190   20.6120 C   0  0  0  0  0  0  0  0  0  0  0  0
    9.0910   -5.8830   26.9280 C   0  0  0  0  0  0  0  0  0  0  0  0
    7.9760   -5.4290   27.5280 C   0  0  0  0  0  0  0  0  0  0  0  0
   10.0800    0.1530   23.6470 C   0  0  0  0  0  0  0  0  0  0  0  0
   12.1910   -0.6410   22.6390 C   0  0  0  0  0  0  0  0  0  0  0  0
    6.2940    0.5660   17.7280 N   0  0  0  0  0  0  0  0  0  0  0  0
    4.9340    1.3000   19.7120 C   0  0  0  0  0  0  0  0  0  0  0  0
    7.1200   -6.0660   28.8500 Cl  0  0  0  0  0  0  0  0  0  0  0  0
   13.0470   -1.7160   21.9850 C   0  0  0  0  0  0  0  0  0  0  0  0
   10.5600    1.4320   23.8890 C   0  0  0  0  0  0  0  0  0  0  0  0
   12.6870    0.7360   22.9070 C   0  0  0  0  0  0  0  0  0  0  0  0
    5.1740    1.2810   18.3250 C   0  0  0  0  0  0  0  0  0  0  0  0
   11.9670    1.7490   23.4840 C   0  0  0  0  0  0  0  0  0  0  0  0
  2  1  1  6
  2  3  1  0
  1  4  2  3
  2  5  1  0
  4  6  1  0
  3  7  1  0
  5  8  1  0
  9  6  1  1
  7 10  1  0
  7 11  2  0
  8 12  1  0
  8 13  2  0
  9 14  1  0
  9 15  1  0
 14 16  1  0
 15 17  1  0
 14 18  1  0
 16 19  1  0
 16 20  2  0
 17 21  1  0
 18 22  1  6
 23 17  1  1
 18 23  1  0
 21 24  1  1
 21 25  1  0
 23 26  1  0
 25 26  1  0
 21 27  1  0
 22 28  1  0
 27 29  2  0
 27 30  1  0
 26 31  1  1
 28 32  2  0
 28 33  1  0
 29 34  1  0
 30 35  1  0
 34 35  2  0
 31 36  2  0
 31 37  1  0
 32 38  1  0
 33 39  2  0
 35 40  1  0
 37 41  1  0
 36 42  1  0
 37 43  2  0
 38 44  2  0
 39 44  1  0
 42 45  2  0
 43 45  1  0
M  END
