x0981_1-x1418_0-x0689_1-x0831_0
     RDKit          3D

 30 31  0  0  0  0  0  0  0  0999 V2000
    3.0900   -5.9460   23.3820 C   0  0  1  0  0  0  0  0  0  0  0  0
    2.7980   -7.0770   22.7940 N   0  0  0  0  0  0  0  0  0  0  0  0
    1.5290   -7.2980   22.2650 C   0  0  0  0  0  0  0  0  0  0  0  0
    2.8330   -6.1370   24.8920 C   0  0  0  0  0  0  0  0  0  0  0  0
    4.5470   -5.3470   23.0560 C   0  0  1  0  0  0  0  0  0  0  0  0
    3.1630   -7.5770   25.2460 C   0  0  0  0  0  0  0  0  0  0  0  0
    5.3180   -4.9800   24.2500 N   0  0  0  0  0  0  0  0  0  0  0  0
    5.4060   -5.9650   22.2280 C   0  0  0  0  0  0  0  0  0  0  0  0
    4.7920   -3.6970   24.6520 O   0  0  0  0  0  0  0  0  0  0  0  0
    1.3040   -8.6180   21.5210 C   0  0  0  0  0  0  0  0  0  0  0  0
    0.6380   -6.4510   22.3770 O   0  0  0  0  0  0  0  0  0  0  0  0
    2.5100   -8.1540   26.3070 N   0  0  0  0  0  0  0  0  0  0  0  0
    4.1250   -8.2340   24.4720 O   0  0  0  0  0  0  0  0  0  0  0  0
    6.4810   -5.0250   21.7960 N   0  0  0  0  0  0  0  0  0  0  0  0
    6.7850   -4.8350   24.0680 C   0  0  0  0  0  0  0  0  0  0  0  0
    6.2900   -4.4070   20.5280 C   0  0  0  0  0  0  0  0  0  0  0  0
    7.2540   -4.4990   22.7490 C   0  0  2  0  0  0  0  0  0  0  0  0
    7.2630   -3.4380   19.8320 C   0  0  0  0  0  0  0  0  0  0  0  0
    5.2600   -4.6640   19.9230 O   0  0  0  0  0  0  0  0  0  0  0  0
    7.4810   -2.9620   22.6450 C   0  0  0  0  0  0  0  0  0  0  0  0
    8.8540   -2.5860   22.3260 C   0  0  0  0  0  0  0  0  0  0  0  0
    9.6810   -2.2660   23.6110 C   0  0  1  0  0  0  0  0  0  0  0  0
   10.6050   -3.4030   23.9480 C   0  0  0  0  0  0  0  0  0  0  0  0
   10.5540   -0.9980   23.5500 C   0  0  0  0  0  0  0  0  0  0  0  0
   10.1030    0.1760   24.1460 C   0  0  0  0  0  0  0  0  0  0  0  0
   11.8520   -0.9250   22.9070 C   0  0  0  0  0  0  0  0  0  0  0  0
   12.5150   -2.0720   22.2060 C   0  0  0  0  0  0  0  0  0  0  0  0
   10.8330    1.3450   24.1270 C   0  0  0  0  0  0  0  0  0  0  0  0
   12.5850    0.2850   22.9080 C   0  0  0  0  0  0  0  0  0  0  0  0
   12.0660    1.4120   23.5160 C   0  0  0  0  0  0  0  0  0  0  0  0
  1  2  1  0
  2  3  1  0
  1  4  1  1
  1  5  1  0
  4  6  1  0
  5  7  1  0
  5  8  1  1
  7  9  1  0
  3 10  1  0
  3 11  2  0
  6 12  1  0
  6 13  2  0
  8 14  1  0
  7 15  1  0
 14 16  1  0
 14 17  1  0
 15 17  1  0
 16 18  1  0
 16 19  2  0
 17 20  1  1
 20 21  1  0
 21 22  1  0
 22 23  1  6
 22 24  1  0
 24 25  2  0
 24 26  1  0
 26 27  1  0
 25 28  1  0
 26 29  2  0
 28 30  2  0
 29 30  1  0
M  END
