x0981_1-x1418_1
     RDKit          3D

 21 21  0  0  0  0  0  0  0  0999 V2000
    4.1070   -5.3460   23.0100 C   0  0  0  0  0  0  0  0  0  0  0  0
    2.8090   -6.0650   23.4500 C   0  0  1  0  0  0  0  0  0  0  0  0
    2.6590   -7.1020   22.8980 N   0  0  0  0  0  0  0  0  0  0  0  0
    4.2270   -4.0050   23.3850 N   0  0  0  0  0  0  0  0  0  0  0  0
    2.7530   -6.2930   24.9710 C   0  0  0  0  0  0  0  0  0  0  0  0
    5.3000   -2.9590   23.1170 C   0  0  0  0  0  0  0  0  0  0  0  0
    1.3970   -7.3730   22.1760 C   0  0  0  0  0  0  0  0  0  0  0  0
    3.1490   -7.6950   25.2200 C   0  0  0  0  0  0  0  0  0  0  0  0
    6.5280   -3.4320   22.2840 C   0  0  2  0  0  0  0  0  0  0  0  0
    1.2770   -8.6940   21.4480 C   0  0  0  0  0  0  0  0  0  0  0  0
    0.3450   -6.4160   22.1390 O   0  0  0  0  0  0  0  0  0  0  0  0
    2.4500   -8.4050   26.2860 N   0  0  0  0  0  0  0  0  0  0  0  0
    4.0240   -8.1910   24.5530 O   0  0  0  0  0  0  0  0  0  0  0  0
    7.5960   -3.4590   23.1870 C   0  0  0  0  0  0  0  0  0  0  0  0
    6.5770   -2.6850   21.1460 N   0  0  0  0  0  0  0  0  0  0  0  0
    6.3620   -3.2830   19.9080 C   0  0  0  0  0  0  0  0  0  0  0  0
    8.5790   -2.3620   23.0980 N   0  0  0  0  0  0  0  0  0  0  0  0
    7.4170   -1.6170   21.1730 C   0  0  0  0  0  0  0  0  0  0  0  0
    7.3540   -3.0240   18.7900 C   0  0  0  0  0  0  0  0  0  0  0  0
    5.4140   -4.0560   19.7030 O   0  0  0  0  0  0  0  0  0  0  0  0
    8.7030   -1.8290   21.7510 C   0  0  0  0  0  0  0  0  0  0  0  0
  2  1  1  1
  2  3  1  0
  1  4  2  3
  2  5  1  0
  4  6  1  0
  3  7  1  0
  5  8  1  0
  9  6  1  1
  7 10  1  0
  7 11  2  0
  8 12  1  0
  8 13  2  0
  9 14  1  0
  9 15  1  0
 15 16  1  0
 14 17  1  0
 15 18  1  0
 16 19  1  0
 16 20  2  0
 17 21  1  0
 18 21  1  0
M  END
