x0981_1-x1412_0-x1412_1-x0434_2
     RDKit          3D

 35 37  0  0  0  0  0  0  0  0999 V2000
    4.1340   -5.2840   23.2060 C   0  0  0  0  0  0  0  0  0  0  0  0
    2.8110   -5.9830   23.5520 C   0  0  1  0  0  0  0  0  0  0  0  0
    2.5940   -7.2040   22.7570 N   0  0  0  0  0  0  0  0  0  0  0  0
    4.2470   -4.0360   23.5910 N   0  0  0  0  0  0  0  0  0  0  0  0
    2.7160   -6.2790   25.0430 C   0  0  0  0  0  0  0  0  0  0  0  0
    5.4600   -3.2240   23.3150 C   0  0  0  0  0  0  0  0  0  0  0  0
    1.3800   -7.4270   22.1530 C   0  0  0  0  0  0  0  0  0  0  0  0
    3.1290   -7.6980   25.2660 C   0  0  0  0  0  0  0  0  0  0  0  0
    6.4600   -3.8490   22.3150 C   0  0  1  0  0  0  0  0  0  0  0  0
    1.2340   -8.7200   21.3930 C   0  0  0  0  0  0  0  0  0  0  0  0
    0.4620   -6.6110   22.2040 O   0  0  0  0  0  0  0  0  0  0  0  0
    2.4690   -8.3820   26.2520 N   0  0  0  0  0  0  0  0  0  0  0  0
    4.0080   -8.1910   24.5950 O   0  0  0  0  0  0  0  0  0  0  0  0
    6.6860   -2.9300   21.1640 N   0  0  0  0  0  0  0  0  0  0  0  0
    7.6570   -4.1090   22.9700 C   0  0  0  0  0  0  0  0  0  0  0  0
    6.3860   -3.3980   19.9080 C   0  0  0  0  0  0  0  0  0  0  0  0
    8.2210   -2.8390   23.4220 N   0  0  0  0  0  0  0  0  0  0  0  0
    7.6540   -1.8060   21.2710 C   0  0  1  0  0  0  0  0  0  0  0  0
    7.3240   -3.0430   18.7720 C   0  0  0  0  0  0  0  0  0  0  0  0
    5.4120   -4.1210   19.7090 O   0  0  0  0  0  0  0  0  0  0  0  0
    8.4130   -2.6190   24.8000 C   0  0  0  0  0  0  0  0  0  0  0  0
    6.9520   -0.7420   21.4220 N   0  0  0  0  0  0  0  0  0  0  0  0
    8.7430   -1.9800   22.3550 C   0  0  0  0  0  0  0  0  0  0  0  0
    8.4430   -1.4760   25.2500 O   0  0  0  0  0  0  0  0  0  0  0  0
    8.5660   -3.7360   25.6150 C   0  0  0  0  0  0  0  0  0  0  0  0
    6.4200   -0.0800   20.2020 C   0  0  0  0  0  0  0  0  0  0  0  0
    9.3600   -4.8100   25.3140 C   0  0  0  0  0  0  0  0  0  0  0  0
    7.7840   -3.9300   27.1230 S   0  0  0  0  0  0  0  0  0  0  0  0
    6.9600   -0.0980   18.9220 C   0  0  0  0  0  0  0  0  0  0  0  0
    5.2340    0.6580   20.3450 C   0  0  0  0  0  0  0  0  0  0  0  0
    9.3860   -5.9340   26.3710 C   0  0  0  0  0  0  0  0  0  0  0  0
    8.5370   -5.4630   27.3540 C   0  0  0  0  0  0  0  0  0  0  0  0
    6.4500    0.5300   17.8340 N   0  0  0  0  0  0  0  0  0  0  0  0
    4.7040    1.2900   19.2670 C   0  0  0  0  0  0  0  0  0  0  0  0
    5.3200    1.2180   18.0310 C   0  0  0  0  0  0  0  0  0  0  0  0
  2  1  1  1
  2  3  1  0
  1  4  2  3
  2  5  1  0
  4  6  1  0
  3  7  1  0
  5  8  1  0
  9  6  1  1
  7 10  1  0
  7 11  2  0
  8 12  1  0
  8 13  2  0
  9 14  1  0
  9 15  1  0
 14 16  1  0
 15 17  1  0
 14 18  1  0
 16 19  1  0
 16 20  2  0
 17 21  1  0
 18 22  1  1
 17 23  1  0
 18 23  1  0
 21 24  2  0
 21 25  1  0
 22 26  1  0
 25 27  2  0
 25 28  1  0
 26 29  2  0
 26 30  1  0
 27 31  1  0
 28 32  1  0
 31 32  2  0
 29 33  1  0
 30 34  2  0
 33 35  2  0
 34 35  1  0
M  END
