x0981_1-x0689_1
     RDKit          3D

 19 19  0  0  0  0  0  0  0  0999 V2000
    3.2490   -6.1920   23.4450 C   0  0  1  0  0  0  0  0  0  0  0  0
    2.7040   -7.4210   22.8600 N   0  0  0  0  0  0  0  0  0  0  0  0
    1.4950   -7.4220   22.2160 C   0  0  0  0  0  0  0  0  0  0  0  0
    2.8070   -6.2310   24.9170 C   0  0  0  0  0  0  0  0  0  0  0  0
    4.8000   -6.1250   23.2930 C   0  0  2  0  0  0  0  0  0  0  0  0
    3.0940   -7.6380   25.3470 C   0  0  0  0  0  0  0  0  0  0  0  0
    5.3260   -5.0110   24.0410 N   0  0  0  0  0  0  0  0  0  0  0  0
    5.1480   -6.0080   22.0000 C   0  0  0  0  0  0  0  0  0  0  0  0
    4.8410   -3.8140   23.3790 O   0  0  0  0  0  0  0  0  0  0  0  0
    1.1990   -8.6580   21.3840 C   0  0  0  0  0  0  0  0  0  0  0  0
    0.6940   -6.4940   22.2870 O   0  0  0  0  0  0  0  0  0  0  0  0
    2.5140   -8.0890   26.4130 N   0  0  0  0  0  0  0  0  0  0  0  0
    3.8600   -8.2900   24.6710 O   0  0  0  0  0  0  0  0  0  0  0  0
    6.3160   -5.1680   21.7220 N   0  0  0  0  0  0  0  0  0  0  0  0
    6.7070   -4.9780   24.0250 C   0  0  0  0  0  0  0  0  0  0  0  0
    6.4080   -4.3680   20.5700 C   0  0  0  0  0  0  0  0  0  0  0  0
    7.2990   -4.9960   22.8140 C   0  0  0  0  0  0  0  0  0  0  0  0
    7.7110   -3.5980   20.3240 C   0  0  0  0  0  0  0  0  0  0  0  0
    5.4390   -4.2850   19.8180 O   0  0  0  0  0  0  0  0  0  0  0  0
  1  2  1  0
  2  3  1  0
  1  4  1  1
  1  5  1  0
  4  6  1  0
  5  7  1  0
  5  8  1  6
  7  9  1  0
  3 10  1  0
  3 11  2  0
  6 12  1  0
  6 13  2  0
  8 14  1  0
  7 15  1  0
 14 16  1  0
 14 17  1  0
 15 17  1  0
 16 18  1  0
 16 19  2  0
M  END
