x0981_1-x0874_1-x1308_0
     RDKit          3D

 29 30  0  0  0  0  0  0  0  0999 V2000
    3.1670   -5.9160   23.3670 C   0  0  1  0  0  0  0  0  0  0  0  0
    2.8590   -7.0590   22.8120 N   0  0  0  0  0  0  0  0  0  0  0  0
    1.5070   -7.2980   22.2410 C   0  0  0  0  0  0  0  0  0  0  0  0
    2.8930   -6.1860   24.8460 C   0  0  0  0  0  0  0  0  0  0  0  0
    4.6950   -5.4270   23.0870 C   0  0  1  0  0  0  0  0  0  0  0  0
    3.1950   -7.6360   25.2010 C   0  0  0  0  0  0  0  0  0  0  0  0
    5.4780   -5.0040   24.2820 N   0  0  0  0  0  0  0  0  0  0  0  0
    5.4870   -6.2000   22.2610 C   0  0  0  0  0  0  0  0  0  0  0  0
    4.6420   -4.0590   24.9740 O   0  0  0  0  0  0  0  0  0  0  0  0
    1.2820   -8.6370   21.5020 C   0  0  0  0  0  0  0  0  0  0  0  0
    0.6220   -6.4460   22.3340 O   0  0  0  0  0  0  0  0  0  0  0  0
    2.5160   -8.2030   26.2480 N   0  0  0  0  0  0  0  0  0  0  0  0
    4.0140   -8.2470   24.5700 O   0  0  0  0  0  0  0  0  0  0  0  0
    6.7220   -4.2610   23.9310 C   0  0  2  0  0  0  0  0  0  0  0  0
    6.6830   -5.4130   21.8650 N   0  0  0  0  0  0  0  0  0  0  0  0
    6.6090   -4.6250   20.7060 C   0  0  0  0  0  0  0  0  0  0  0  0
    6.3440   -2.8880   23.3000 C   0  0  0  0  0  0  0  0  0  0  0  0
    7.4770   -4.9860   23.0230 C   0  0  0  0  0  0  0  0  0  0  0  0
    7.8480   -3.7680   20.3650 C   0  0  0  0  0  0  0  0  0  0  0  0
    5.5990   -4.6360   19.9860 O   0  0  0  0  0  0  0  0  0  0  0  0
    6.8230   -1.7140   23.9830 C   0  0  0  0  0  0  0  0  0  0  0  0
    7.6760   -0.7950   23.0850 C   0  0  1  0  0  0  0  0  0  0  0  0
    7.6870    0.5690   23.4130 C   0  0  0  0  0  0  0  0  0  0  0  0
    8.9690   -1.3660   22.9990 C   0  0  0  0  0  0  0  0  0  0  0  0
    9.8130   -0.1210   23.1450 C   0  0  0  0  0  0  0  0  0  0  0  0
    9.0170    0.9770   23.2700 C   0  0  1  0  0  0  0  0  0  0  0  0
    9.1980    1.9410   22.0990 C   0  0  0  0  0  0  0  0  0  0  0  0
    9.9750    3.0500   22.3270 N   0  0  0  0  0  0  0  0  0  0  0  0
    8.7020    1.7620   20.9950 O   0  0  0  0  0  0  0  0  0  0  0  0
  1  2  1  0
  2  3  1  0
  1  4  1  1
  1  5  1  0
  4  6  1  0
  5  7  1  0
  5  8  1  1
  7  9  1  0
  3 10  1  0
  3 11  2  0
  6 12  1  0
  6 13  2  0
  7 14  1  0
  8 15  1  0
 15 16  1  0
 14 17  1  6
 14 18  1  0
 15 18  1  0
 16 19  1  0
 16 20  2  0
 17 21  1  0
 22 21  1  1
 22 23  1  0
 22 24  1  0
 24 25  1  0
 23 26  1  0
 25 26  1  0
 26 27  1  6
 27 28  1  0
 27 29  2  0
M  END
