x0981_1-x1334_1-x0831_0-x0691_1
     RDKit          3D

 38 41  0  0  0  0  0  0  0  0999 V2000
    4.1360   -5.5160   23.1400 C   0  0  0  0  0  0  0  0  0  0  0  0
    2.7280   -6.1610   23.2550 C   0  0  1  0  0  0  0  0  0  0  0  0
    2.5150   -7.4900   22.7000 N   0  0  0  0  0  0  0  0  0  0  0  0
    4.3680   -4.2550   23.4290 N   0  0  0  0  0  0  0  0  0  0  0  0
    2.4180   -6.1800   24.7450 C   0  0  1  0  0  0  0  0  0  0  0  0
    5.6060   -3.4440   23.4310 C   0  0  0  0  0  0  0  0  0  0  0  0
    1.3470   -7.6840   21.9960 C   0  0  0  0  0  0  0  0  0  0  0  0
    3.5020   -6.9940   25.4360 C   0  0  1  0  0  0  0  0  0  0  0  0
    2.4140   -4.7550   25.2640 C   0  0  0  0  0  0  0  0  0  0  0  0
    6.6810   -3.8530   22.3890 C   0  0  1  0  0  0  0  0  0  0  0  0
    1.3320   -8.8950   21.1070 C   0  0  0  0  0  0  0  0  0  0  0  0
    0.3910   -6.9170   22.0740 O   0  0  0  0  0  0  0  0  0  0  0  0
    3.0550   -7.4670   26.6500 N   0  0  0  0  0  0  0  0  0  0  0  0
    4.0520   -7.8510   24.7310 O   0  0  0  0  0  0  0  0  0  0  0  0
    4.7770   -5.7130   25.6610 S   0  0  0  0  0  0  0  0  0  0  0  0
    3.6630   -4.4070   25.7490 C   0  0  0  0  0  0  0  0  0  0  0  0
    1.3850   -3.8290   25.2800 C   0  0  0  0  0  0  0  0  0  0  0  0
    6.6430   -2.9510   21.2030 N   0  0  0  0  0  0  0  0  0  0  0  0
    7.9110   -3.8470   23.0860 C   0  0  0  0  0  0  0  0  0  0  0  0
    5.4350   -5.7840   27.1110 O   0  0  0  0  0  0  0  0  0  0  0  0
    6.3540   -3.3960   19.9100 C   0  0  0  0  0  0  0  0  0  0  0  0
    3.9410   -3.1200   26.2400 C   0  0  0  0  0  0  0  0  0  0  0  0
    1.5930   -2.5540   25.7530 C   0  0  0  0  0  0  0  0  0  0  0  0
    8.5890   -2.5210   23.1000 N   0  0  0  0  0  0  0  0  0  0  0  0
    7.3230   -1.6570   21.3420 C   0  0  0  0  0  0  0  0  0  0  0  0
    7.3410   -3.0040   18.8120 C   0  0  0  0  0  0  0  0  0  0  0  0
    5.3710   -4.1000   19.7050 O   0  0  0  0  0  0  0  0  0  0  0  0
   10.0010   -2.6130   23.5440 C   0  0  0  0  0  0  0  0  0  0  0  0
    2.9500   -2.0830   26.2800 C   0  0  0  0  0  0  0  0  0  0  0  0
    8.6140   -1.9210   21.7750 C   0  0  0  0  0  0  0  0  0  0  0  0
    3.1790   -0.8410   26.7250 F   0  0  0  0  0  0  0  0  0  0  0  0
   10.7430   -1.2680   23.5320 C   0  0  0  0  0  0  0  0  0  0  0  0
   10.1310   -0.0280   24.2380 C   0  0  0  0  0  0  0  0  0  0  0  0
   12.0980   -0.9730   22.8580 C   0  0  0  0  0  0  0  0  0  0  0  0
   12.8370   -2.0380   22.1170 C   0  0  0  0  0  0  0  0  0  0  0  0
   10.7650    1.2060   24.2340 C   0  0  0  0  0  0  0  0  0  0  0  0
   12.6820    0.2690   22.8960 C   0  0  0  0  0  0  0  0  0  0  0  0
   11.9770    1.3870   23.6070 C   0  0  0  0  0  0  0  0  0  0  0  0
  2  1  1  1
  2  3  1  0
  1  4  2  3
  2  5  1  0
  4  6  1  0
  3  7  1  0
  5  8  1  0
  5  9  1  1
 10  6  1  1
  7 11  1  0
  7 12  2  0
  8 13  1  1
  8 14  1  0
  8 15  1  0
  9 16  2  0
 15 16  1  1
  9 17  1  0
 10 18  1  0
 10 19  1  0
 15 20  2  0
 18 21  1  0
 16 22  1  0
 17 23  2  0
 19 24  1  0
 18 25  1  0
 21 26  1  0
 21 27  2  0
 24 28  1  0
 22 29  2  0
 23 29  1  0
 24 30  1  0
 25 30  1  0
 29 31  1  0
 28 32  1  0
 32 33  2  0
 32 34  1  0
 34 35  1  0
 33 36  1  0
 34 37  2  0
 36 38  2  0
 37 38  1  0
M  END
