x0981_1-x1385_1-x0692_0-x1412_0
     RDKit          3D

 36 38  0  0  0  0  0  0  0  0999 V2000
    4.6730   -5.8290   23.4400 C   0  0  0  0  0  0  0  0  0  0  0  0
    3.1450   -5.9880   23.5200 C   0  0  1  0  0  0  0  0  0  0  0  0
    2.7070   -7.1250   22.6970 N   0  0  0  0  0  0  0  0  0  0  0  0
    5.2650   -4.7700   23.9180 N   0  0  0  0  0  0  0  0  0  0  0  0
    2.6970   -6.2240   24.9540 C   0  0  0  0  0  0  0  0  0  0  0  0
    6.7550   -4.7290   23.8520 C   0  0  0  0  0  0  0  0  0  0  0  0
    1.4600   -7.3870   22.1880 C   0  0  0  0  0  0  0  0  0  0  0  0
    3.0920   -7.6490   25.3380 C   0  0  0  0  0  0  0  0  0  0  0  0
    7.2830   -3.8010   22.7160 C   0  0  2  0  0  0  0  0  0  0  0  0
    1.2070   -8.6790   21.4560 C   0  0  0  0  0  0  0  0  0  0  0  0
    0.5710   -6.5430   22.3170 O   0  0  0  0  0  0  0  0  0  0  0  0
    2.4820   -8.2050   26.4250 N   0  0  0  0  0  0  0  0  0  0  0  0
    3.9220   -8.2410   24.6800 O   0  0  0  0  0  0  0  0  0  0  0  0
    8.5760   -3.0360   22.8580 N   0  0  0  0  0  0  0  0  0  0  0  0
    6.2610   -2.9900   22.2830 C   0  0  0  0  0  0  0  0  0  0  0  0
    8.7340   -2.0480   23.7990 C   0  0  1  0  0  0  0  0  0  0  0  0
    6.6590   -2.4410   20.9670 N   0  0  0  0  0  0  0  0  0  0  0  0
    8.9930   -2.3190   21.6040 C   0  0  0  0  0  0  0  0  0  0  0  0
    6.4480   -3.2250   19.8180 C   0  0  0  0  0  0  0  0  0  0  0  0
    8.3720   -2.3270   25.2530 C   0  0  0  0  0  0  0  0  0  0  0  0
    7.8790   -1.6440   21.0740 C   0  0  0  0  0  0  0  0  0  0  0  0
   10.0390   -1.2880   23.5250 C   0  0  0  0  0  0  0  0  0  0  0  0
    7.3890   -2.9990   18.6450 C   0  0  0  0  0  0  0  0  0  0  0  0
    5.5470   -4.0760   19.7370 O   0  0  0  0  0  0  0  0  0  0  0  0
    7.9440   -1.3560   25.8840 O   0  0  0  0  0  0  0  0  0  0  0  0
   10.1170    0.0730   23.7200 C   0  0  0  0  0  0  0  0  0  0  0  0
   11.2270   -1.9030   23.0370 C   0  0  0  0  0  0  0  0  0  0  0  0
    8.5040   -3.6480   25.9650 C   0  0  0  0  0  0  0  0  0  0  0  0
   11.2530    0.8500   23.4700 C   0  0  0  0  0  0  0  0  0  0  0  0
   12.4060   -1.1790   22.7750 C   0  0  0  0  0  0  0  0  0  0  0  0
    9.3090   -4.6730   25.4630 C   0  0  0  0  0  0  0  0  0  0  0  0
    7.7510   -4.0900   27.4530 S   0  0  0  0  0  0  0  0  0  0  0  0
   11.2250    2.3230   23.6850 C   0  0  0  0  0  0  0  0  0  0  0  0
   12.3860    0.1780   23.0020 C   0  0  0  0  0  0  0  0  0  0  0  0
    9.3580   -5.8110   26.2270 C   0  0  0  0  0  0  0  0  0  0  0  0
    8.4820   -5.6300   27.4550 C   0  0  0  0  0  0  0  0  0  0  0  0
  2  1  1  1
  2  3  1  0
  1  4  2  3
  2  5  1  0
  4  6  1  0
  3  7  1  0
  5  8  1  0
  9  6  1  1
  7 10  1  0
  7 11  2  0
  8 12  1  0
  8 13  2  0
  9 14  1  0
  9 15  1  0
 14 16  1  0
 15 17  1  0
 14 18  1  0
 17 19  1  0
 16 20  1  1
 17 21  1  0
 18 21  1  0
 16 22  1  0
 19 23  1  0
 19 24  2  0
 20 25  2  0
 22 26  2  0
 22 27  1  0
 20 28  1  0
 26 29  1  0
 27 30  2  0
 28 31  2  0
 28 32  1  0
 29 33  1  0
 29 34  2  0
 30 34  1  0
 31 35  1  0
 32 36  1  0
 35 36  2  0
M  END
