x0981_1-x1412_1-x0831_0-x1385_0-x1412_0-x0434_2
     RDKit          3D

 45 48  0  0  0  0  0  0  0  0999 V2000
    4.2150   -5.3500   23.3230 C   0  0  0  0  0  0  0  0  0  0  0  0
    2.7980   -5.9980   23.5390 C   0  0  1  0  0  0  0  0  0  0  0  0
    2.6040   -7.1870   22.7040 N   0  0  0  0  0  0  0  0  0  0  0  0
    4.5800   -3.9580   23.6950 N   0  0  0  0  0  0  0  0  0  0  0  0
    2.5640   -6.2980   25.0370 C   0  0  0  0  0  0  0  0  0  0  0  0
    5.9070   -3.3310   23.5430 C   0  0  0  0  0  0  0  0  0  0  0  0
    1.3680   -7.4180   22.1300 C   0  0  0  0  0  0  0  0  0  0  0  0
    3.0500   -7.7240   25.2830 C   0  0  0  0  0  0  0  0  0  0  0  0
    6.7380   -3.7090   22.2950 C   0  0  1  0  0  0  0  0  0  0  0  0
    1.2270   -8.7080   21.3580 C   0  0  0  0  0  0  0  0  0  0  0  0
    0.4460   -6.6150   22.2200 O   0  0  0  0  0  0  0  0  0  0  0  0
    2.4370   -8.4130   26.2890 N   0  0  0  0  0  0  0  0  0  0  0  0
    3.9360   -8.2020   24.6160 O   0  0  0  0  0  0  0  0  0  0  0  0
    6.6490   -2.7980   21.1240 N   0  0  0  0  0  0  0  0  0  0  0  0
    8.0850   -3.9470   22.6330 C   0  0  0  0  0  0  0  0  0  0  0  0
    6.3710   -3.3610   19.8970 C   0  0  0  0  0  0  0  0  0  0  0  0
    9.0900   -2.8630   22.3970 N   0  0  0  0  0  0  0  0  0  0  0  0
    7.5710   -1.6580   21.1060 C   0  0  1  0  0  0  0  0  0  0  0  0
    7.3540   -3.0450   18.7750 C   0  0  0  0  0  0  0  0  0  0  0  0
    5.4080   -4.1100   19.7010 O   0  0  0  0  0  0  0  0  0  0  0  0
   10.0240   -2.6440   23.5020 C   0  0  2  0  0  0  0  0  0  0  0  0
    6.7520   -0.4840   21.1990 N   0  0  0  0  0  0  0  0  0  0  0  0
    8.4710   -1.6080   22.0620 C   0  0  0  0  0  0  0  0  0  0  0  0
    9.0200   -2.7120   24.5840 C   0  0  2  0  0  0  0  0  0  0  0  0
   10.7880   -1.2720   23.4280 C   0  0  0  0  0  0  0  0  0  0  0  0
    6.1880    0.1610   20.1020 C   0  0  0  0  0  0  0  0  0  0  0  0
    9.0470   -1.5730   25.4190 C   0  0  0  0  0  0  0  0  0  0  0  0
   10.1530   -0.2660   24.0800 C   0  0  0  0  0  0  0  0  0  0  0  0
   12.1360   -1.0300   22.7200 C   0  0  0  0  0  0  0  0  0  0  0  0
    8.8700   -3.9350   25.4450 C   0  0  0  0  0  0  0  0  0  0  0  0
    6.8550    0.0540   18.8910 C   0  0  0  0  0  0  0  0  0  0  0  0
    5.0180    0.8820   20.2020 C   0  0  0  0  0  0  0  0  0  0  0  0
   12.8930   -2.0690   21.9710 C   0  0  0  0  0  0  0  0  0  0  0  0
    8.0500   -0.9310   25.7400 O   0  0  0  0  0  0  0  0  0  0  0  0
   10.7320    1.1280   24.1510 C   0  0  0  0  0  0  0  0  0  0  0  0
   12.7310    0.3970   22.8070 C   0  0  0  0  0  0  0  0  0  0  0  0
    9.5060   -5.1530   25.4630 C   0  0  0  0  0  0  0  0  0  0  0  0
    7.6850   -3.8910   26.7040 S   0  0  0  0  0  0  0  0  0  0  0  0
    6.4010    0.6470   17.7760 N   0  0  0  0  0  0  0  0  0  0  0  0
    4.5420    1.4950   19.0610 C   0  0  0  0  0  0  0  0  0  0  0  0
   11.9520    1.4290   23.5470 C   0  0  0  0  0  0  0  0  0  0  0  0
    9.0620   -5.9980   26.4400 C   0  0  0  0  0  0  0  0  0  0  0  0
    8.0090   -5.4570   27.2520 C   0  0  0  0  0  0  0  0  0  0  0  0
    5.2560    1.3550   17.8890 C   0  0  0  0  0  0  0  0  0  0  0  0
    7.0200   -6.1770   28.7050 Br  0  0  0  0  0  0  0  0  0  0  0  0
  2  1  1  1
  2  3  1  0
  1  4  2  3
  2  5  1  0
  4  6  1  0
  3  7  1  0
  5  8  1  0
  9  6  1  1
  7 10  1  0
  7 11  2  0
  8 12  1  0
  8 13  2  0
  9 14  1  0
  9 15  1  0
 14 16  1  0
 15 17  1  0
 14 18  1  0
 16 19  1  0
 16 20  2  0
 17 21  1  0
 18 22  1  1
 17 23  1  0
 18 23  1  0
 21 24  1  0
 21 25  1  6
 22 26  1  0
 24 27  1  1
 25 28  2  0
 25 29  1  0
 24 30  1  0
 26 31  2  0
 26 32  1  0
 29 33  1  0
 27 34  2  0
 28 35  1  0
 29 36  2  0
 30 37  2  0
 30 38  1  0
 31 39  1  0
 32 40  2  0
 35 41  2  0
 36 41  1  0
 37 42  1  0
 38 43  1  0
 42 43  2  0
 39 44  2  0
 40 44  1  0
 43 45  1  0
M  END
