x0981_1-x1385_1-x1385_0
     RDKit          3D

 28 29  0  0  0  0  0  0  0  0999 V2000
    4.4780   -5.9330   23.4660 C   0  0  0  0  0  0  0  0  0  0  0  0
    2.9490   -6.0830   23.5570 C   0  0  1  0  0  0  0  0  0  0  0  0
    2.6260   -7.2390   22.7080 N   0  0  0  0  0  0  0  0  0  0  0  0
    5.2450   -4.9660   23.8580 N   0  0  0  0  0  0  0  0  0  0  0  0
    2.6600   -6.2350   24.9310 C   0  0  0  0  0  0  0  0  0  0  0  0
    6.7130   -5.0460   23.7120 C   0  0  0  0  0  0  0  0  0  0  0  0
    1.3700   -7.3950   22.1530 C   0  0  0  0  0  0  0  0  0  0  0  0
    3.0700   -7.6510   25.3060 C   0  0  0  0  0  0  0  0  0  0  0  0
    7.2520   -3.9620   22.7220 C   0  0  2  0  0  0  0  0  0  0  0  0
    1.1820   -8.6900   21.4020 C   0  0  0  0  0  0  0  0  0  0  0  0
    0.4830   -6.5550   22.2340 O   0  0  0  0  0  0  0  0  0  0  0  0
    2.4600   -8.2590   26.3600 N   0  0  0  0  0  0  0  0  0  0  0  0
    3.9260   -8.2060   24.6500 O   0  0  0  0  0  0  0  0  0  0  0  0
    8.1130   -2.8490   23.2230 N   0  0  0  0  0  0  0  0  0  0  0  0
    6.0520   -3.2950   22.1210 C   0  0  0  0  0  0  0  0  0  0  0  0
    9.2530   -3.2020   24.0530 C   0  0  0  0  0  0  0  0  0  0  0  0
    6.5230   -2.5050   21.0040 N   0  0  0  0  0  0  0  0  0  0  0  0
    8.6210   -2.0990   22.0420 C   0  0  0  0  0  0  0  0  0  0  0  0
    6.3670   -3.1590   19.7960 C   0  0  0  0  0  0  0  0  0  0  0  0
    7.5830   -1.5070   21.3010 C   0  0  0  0  0  0  0  0  0  0  0  0
    9.0380   -4.1510   25.0560 C   0  0  0  0  0  0  0  0  0  0  0  0
    7.3940   -2.9610   18.6980 C   0  0  0  0  0  0  0  0  0  0  0  0
    5.4160   -3.9290   19.6080 O   0  0  0  0  0  0  0  0  0  0  0  0
    9.6270   -5.3880   25.2430 C   0  0  0  0  0  0  0  0  0  0  0  0
    7.8800   -3.7940   26.2780 S   0  0  0  0  0  0  0  0  0  0  0  0
    9.1040   -6.0000   26.3660 C   0  0  0  0  0  0  0  0  0  0  0  0
    8.1330   -5.2870   27.0480 C   0  0  0  0  0  0  0  0  0  0  0  0
    7.1840   -5.8390   28.5990 Br  0  0  0  0  0  0  0  0  0  0  0  0
  2  1  1  1
  2  3  1  0
  1  4  2  3
  2  5  1  0
  4  6  1  0
  3  7  1  0
  5  8  1  0
  9  6  1  1
  7 10  1  0
  7 11  2  0
  8 12  1  0
  8 13  2  0
  9 14  1  0
  9 15  1  0
 14 16  1  0
 15 17  1  0
 14 18  1  0
 17 19  1  0
 17 20  1  0
 18 20  1  0
 16 21  1  0
 19 22  1  0
 19 23  2  0
 21 24  2  0
 21 25  1  0
 24 26  1  0
 25 27  1  0
 26 27  2  0
 27 28  1  0
M  END
