x0981_1-x1418_0-x0770_1
     RDKit          3D

 27 28  0  0  0  0  0  0  0  0999 V2000
    4.1340   -5.8570   22.9350 C   0  0  0  0  0  0  0  0  0  0  0  0
    2.7560   -6.1220   23.4820 C   0  0  1  0  0  0  0  0  0  0  0  0
    2.3470   -7.3500   22.8180 N   0  0  0  0  0  0  0  0  0  0  0  0
    4.6830   -4.7160   22.9910 N   0  0  0  0  0  0  0  0  0  0  0  0
    2.7010   -6.2600   24.9910 C   0  0  0  0  0  0  0  0  0  0  0  0
    5.9900   -4.7630   22.3510 C   0  0  0  0  0  0  0  0  0  0  0  0
    1.2390   -7.5320   22.0670 C   0  0  0  0  0  0  0  0  0  0  0  0
    3.1350   -7.6710   25.3550 C   0  0  0  0  0  0  0  0  0  0  0  0
    6.6440   -3.3840   22.4600 C   0  0  2  0  0  0  0  0  0  0  0  0
    1.1370   -8.7730   21.2290 C   0  0  0  0  0  0  0  0  0  0  0  0
    0.3560   -6.6700   22.0780 O   0  0  0  0  0  0  0  0  0  0  0  0
    2.5350   -8.2530   26.4350 N   0  0  0  0  0  0  0  0  0  0  0  0
    3.9790   -8.2340   24.6970 O   0  0  0  0  0  0  0  0  0  0  0  0
    6.6120   -2.6220   21.1850 N   0  0  0  0  0  0  0  0  0  0  0  0
    7.9130   -3.5430   22.9750 C   0  0  0  0  0  0  0  0  0  0  0  0
    6.3870   -3.3030   19.9630 C   0  0  0  0  0  0  0  0  0  0  0  0
    8.6880   -2.2870   23.0070 N   0  0  0  0  0  0  0  0  0  0  0  0
    7.4360   -1.4050   21.2770 C   0  0  0  0  0  0  0  0  0  0  0  0
    7.3690   -3.0140   18.8380 C   0  0  0  0  0  0  0  0  0  0  0  0
    5.4640   -4.1140   19.7800 O   0  0  0  0  0  0  0  0  0  0  0  0
   10.0010   -2.6290   23.3760 C   0  0  0  0  0  0  0  0  0  0  0  0
    8.6990   -1.6970   21.6550 C   0  0  0  0  0  0  0  0  0  0  0  0
   10.9720   -1.5510   23.3810 C   0  0  0  0  0  0  0  0  0  0  0  0
   12.1020   -1.3710   22.5950 C   0  0  0  0  0  0  0  0  0  0  0  0
   10.7800   -0.2500   24.4860 S   0  0  0  0  0  0  0  0  0  0  0  0
   12.7820   -0.2180   22.8730 C   0  0  0  0  0  0  0  0  0  0  0  0
   12.1870    0.4920   23.8650 C   0  0  0  0  0  0  0  0  0  0  0  0
  2  1  1  1
  2  3  1  0
  1  4  2  3
  2  5  1  0
  4  6  1  0
  3  7  1  0
  5  8  1  0
  9  6  1  6
  7 10  1  0
  7 11  2  0
  8 12  1  0
  8 13  2  0
  9 14  1  0
  9 15  1  0
 14 16  1  0
 15 17  1  0
 14 18  1  0
 16 19  1  0
 16 20  2  0
 17 21  1  0
 17 22  1  0
 18 22  1  0
 21 23  1  0
 23 24  2  0
 23 25  1  0
 24 26  1  0
 25 27  1  0
 26 27  2  0
M  END
