x0981_1-x1386_1-x0434_2
     RDKit          3D

 28 29  0  0  0  0  0  0  0  0999 V2000
    4.2090   -5.7320   22.9260 C   0  0  0  0  0  0  0  0  0  0  0  0
    2.8440   -6.1350   23.4730 C   0  0  1  0  0  0  0  0  0  0  0  0
    2.4290   -7.3880   22.8430 N   0  0  0  0  0  0  0  0  0  0  0  0
    4.7810   -4.5750   22.9360 N   0  0  0  0  0  0  0  0  0  0  0  0
    2.8260   -6.2110   24.9990 C   0  0  0  0  0  0  0  0  0  0  0  0
    6.0960   -4.4860   22.2960 C   0  0  0  0  0  0  0  0  0  0  0  0
    1.2680   -7.4830   22.1150 C   0  0  0  0  0  0  0  0  0  0  0  0
    3.1860   -7.6290   25.3050 C   0  0  0  0  0  0  0  0  0  0  0  0
    6.5880   -3.0270   22.3440 C   0  0  2  0  0  0  0  0  0  0  0  0
    1.1550   -8.7450   21.2900 C   0  0  0  0  0  0  0  0  0  0  0  0
    0.3990   -6.6170   22.1150 O   0  0  0  0  0  0  0  0  0  0  0  0
    2.5560   -8.2510   26.3450 N   0  0  0  0  0  0  0  0  0  0  0  0
    4.0220   -8.1820   24.6220 O   0  0  0  0  0  0  0  0  0  0  0  0
    6.7480   -2.4100   20.9880 N   0  0  0  0  0  0  0  0  0  0  0  0
    7.8660   -3.0360   23.2270 C   0  0  0  0  0  0  0  0  0  0  0  0
    6.4670   -3.1620   19.8310 C   0  0  0  0  0  0  0  0  0  0  0  0
    8.5770   -1.9450   23.1780 N   0  0  0  0  0  0  0  0  0  0  0  0
    7.8790   -1.4700   20.8230 C   0  0  2  0  0  0  0  0  0  0  0  0
    7.4130   -2.9800   18.6560 C   0  0  0  0  0  0  0  0  0  0  0  0
    5.5210   -3.9780   19.7100 O   0  0  0  0  0  0  0  0  0  0  0  0
    9.0280   -1.7150   21.8180 C   0  0  0  0  0  0  0  0  0  0  0  0
    7.5080   -0.0020   20.6980 C   0  0  0  0  0  0  0  0  0  0  0  0
    7.1330    0.3110   19.2610 C   0  0  0  0  0  0  0  0  0  0  0  0
    5.9800    0.5710   20.2960 C   0  0  0  0  0  0  0  0  0  0  0  0
    6.4800    0.6920   18.0850 N   0  0  0  0  0  0  0  0  0  0  0  0
    5.2330    1.1610   17.9210 C   0  0  0  0  0  0  0  0  0  0  0  0
    4.6940    1.0420   20.1410 C   0  0  0  0  0  0  0  0  0  0  0  0
    4.3190    1.3490   18.9070 C   0  0  0  0  0  0  0  0  0  0  0  0
  2  1  1  6
  2  3  1  0
  1  4  2  3
  2  5  1  0
  4  6  1  0
  3  7  1  0
  5  8  1  0
  9  6  1  6
  7 10  1  0
  7 11  2  0
  8 12  1  0
  8 13  2  0
  9 14  1  0
  9 15  1  0
 14 16  1  0
 15 17  1  0
 14 18  1  0
 16 19  1  0
 16 20  2  0
 17 21  1  0
 18 21  1  0
 18 22  1  1
 22 23  1  0
 23 24  2  0
 23 25  1  0
 25 26  2  0
 24 27  1  0
 26 28  1  0
 27 28  2  0
M  END
