x0981_1-x1418_1-x0692_0
     RDKit          3D

 29 30  0  0  0  0  0  0  0  0999 V2000
    4.1620   -5.2650   23.2260 C   0  0  0  0  0  0  0  0  0  0  0  0
    2.8150   -5.9400   23.5440 C   0  0  1  0  0  0  0  0  0  0  0  0
    2.5930   -7.1550   22.7440 N   0  0  0  0  0  0  0  0  0  0  0  0
    4.2950   -4.0350   23.6370 N   0  0  0  0  0  0  0  0  0  0  0  0
    2.7400   -6.2460   25.0470 C   0  0  0  0  0  0  0  0  0  0  0  0
    5.4990   -3.1940   23.4370 C   0  0  0  0  0  0  0  0  0  0  0  0
    1.3730   -7.3940   22.1500 C   0  0  0  0  0  0  0  0  0  0  0  0
    3.1530   -7.6780   25.2760 C   0  0  0  0  0  0  0  0  0  0  0  0
    6.4700   -3.6440   22.3130 C   0  0  2  0  0  0  0  0  0  0  0  0
    1.2320   -8.6990   21.4040 C   0  0  0  0  0  0  0  0  0  0  0  0
    0.4520   -6.5860   22.1950 O   0  0  0  0  0  0  0  0  0  0  0  0
    2.5250   -8.3470   26.2890 N   0  0  0  0  0  0  0  0  0  0  0  0
    4.0050   -8.1870   24.5880 O   0  0  0  0  0  0  0  0  0  0  0  0
    7.8630   -3.7560   22.9390 C   0  0  0  0  0  0  0  0  0  0  0  0
    6.5290   -2.7630   21.1030 N   0  0  0  0  0  0  0  0  0  0  0  0
    6.3320   -3.2850   19.8430 C   0  0  0  0  0  0  0  0  0  0  0  0
    8.5530   -2.4640   23.1040 N   0  0  0  0  0  0  0  0  0  0  0  0
    7.4150   -1.5870   21.2240 C   0  0  0  0  0  0  0  0  0  0  0  0
    7.3320   -2.9790   18.7370 C   0  0  0  0  0  0  0  0  0  0  0  0
    5.3670   -4.0380   19.6570 O   0  0  0  0  0  0  0  0  0  0  0  0
    9.8260   -2.6790   23.6180 C   0  0  0  0  0  0  0  0  0  0  0  0
    8.6450   -1.8140   21.8060 C   0  0  0  0  0  0  0  0  0  0  0  0
   10.7320   -1.4960   23.4880 C   0  0  0  0  0  0  0  0  0  0  0  0
   10.3730   -0.1870   23.7730 C   0  0  0  0  0  0  0  0  0  0  0  0
   12.0320   -1.7280   23.0410 C   0  0  0  0  0  0  0  0  0  0  0  0
   11.2560    0.8770   23.6230 C   0  0  0  0  0  0  0  0  0  0  0  0
   12.9260   -0.6670   22.8900 C   0  0  0  0  0  0  0  0  0  0  0  0
   10.6880    2.2170   23.9590 C   0  0  0  0  0  0  0  0  0  0  0  0
   12.5900    0.6570   23.1670 C   0  0  0  0  0  0  0  0  0  0  0  0
  2  1  1  1
  2  3  1  0
  1  4  2  3
  2  5  1  0
  4  6  1  0
  3  7  1  0
  5  8  1  0
  9  6  1  1
  7 10  1  0
  7 11  2  0
  8 12  1  0
  8 13  2  0
  9 14  1  0
  9 15  1  0
 15 16  1  0
 14 17  1  0
 15 18  1  0
 16 19  1  0
 16 20  2  0
 17 21  1  0
 17 22  1  0
 18 22  1  0
 21 23  1  0
 23 24  2  0
 23 25  1  0
 24 26  1  0
 25 27  2  0
 26 28  1  0
 26 29  2  0
 27 29  1  0
M  END
