x0981_1-x1412_0-x1418_1
     RDKit          3D

 28 29  0  0  0  0  0  0  0  0999 V2000
    4.2080   -5.3010   23.2270 C   0  0  0  0  0  0  0  0  0  0  0  0
    2.9240   -6.0350   23.5890 C   0  0  1  0  0  0  0  0  0  0  0  0
    2.6200   -7.2860   22.8780 N   0  0  0  0  0  0  0  0  0  0  0  0
    4.3280   -4.0660   23.6220 N   0  0  0  0  0  0  0  0  0  0  0  0
    2.8190   -6.2120   25.0960 C   0  0  0  0  0  0  0  0  0  0  0  0
    5.4820   -3.1900   23.3700 C   0  0  0  0  0  0  0  0  0  0  0  0
    1.4350   -7.5520   22.0880 C   0  0  0  0  0  0  0  0  0  0  0  0
    3.1660   -7.6420   25.3570 C   0  0  0  0  0  0  0  0  0  0  0  0
    6.4420   -3.7330   22.2920 C   0  0  2  0  0  0  0  0  0  0  0  0
    1.2010   -8.7970   21.2260 C   0  0  0  0  0  0  0  0  0  0  0  0
    0.4270   -6.5430   22.1130 O   0  0  0  0  0  0  0  0  0  0  0  0
    2.5250   -8.2640   26.3890 N   0  0  0  0  0  0  0  0  0  0  0  0
    3.9950   -8.1830   24.6490 O   0  0  0  0  0  0  0  0  0  0  0  0
    7.8040   -4.0700   22.9140 C   0  0  0  0  0  0  0  0  0  0  0  0
    6.6330   -2.8300   21.1260 N   0  0  0  0  0  0  0  0  0  0  0  0
    6.3690   -3.2950   19.8510 C   0  0  0  0  0  0  0  0  0  0  0  0
    8.5300   -2.8650   23.2840 N   0  0  0  0  0  0  0  0  0  0  0  0
    7.4390   -1.6140   21.3830 C   0  0  0  0  0  0  0  0  0  0  0  0
    7.3650   -2.9640   18.7550 C   0  0  0  0  0  0  0  0  0  0  0  0
    5.3840   -4.0040   19.6550 O   0  0  0  0  0  0  0  0  0  0  0  0
    8.5130   -2.5230   24.6520 C   0  0  0  0  0  0  0  0  0  0  0  0
    8.7700   -1.9240   22.1560 C   0  0  0  0  0  0  0  0  0  0  0  0
    8.4370   -1.3600   25.0480 O   0  0  0  0  0  0  0  0  0  0  0  0
    8.5810   -3.6350   25.5420 C   0  0  0  0  0  0  0  0  0  0  0  0
    9.3740   -4.7320   25.2560 C   0  0  0  0  0  0  0  0  0  0  0  0
    7.7690   -3.8660   27.0680 S   0  0  0  0  0  0  0  0  0  0  0  0
    9.3260   -5.7040   26.2290 C   0  0  0  0  0  0  0  0  0  0  0  0
    8.4970   -5.4060   27.3070 C   0  0  0  0  0  0  0  0  0  0  0  0
  2  1  1  1
  2  3  1  0
  1  4  2  3
  2  5  1  0
  4  6  1  0
  3  7  1  0
  5  8  1  0
  9  6  1  1
  7 10  1  0
  7 11  2  0
  8 12  1  0
  8 13  2  0
  9 14  1  0
  9 15  1  0
 15 16  1  0
 14 17  1  0
 15 18  1  0
 16 19  1  0
 16 20  2  0
 17 21  1  0
 17 22  1  0
 18 22  1  0
 21 23  2  0
 21 24  1  0
 24 25  2  0
 24 26  1  0
 25 27  1  0
 26 28  1  0
 27 28  2  0
M  END
