x0981_1-x0874_0-x1385_0-x1412_1
     RDKit          3D

 34 36  0  0  0  0  0  0  0  0999 V2000
    4.2160   -5.7720   23.0560 C   0  0  0  0  0  0  0  0  0  0  0  0
    2.7870   -6.0740   23.4870 C   0  0  1  0  0  0  0  0  0  0  0  0
    2.4600   -7.3290   22.8080 N   0  0  0  0  0  0  0  0  0  0  0  0
    4.5640   -4.7890   22.2960 N   0  0  0  0  0  0  0  0  0  0  0  0
    2.6960   -6.2600   25.0080 C   0  0  0  0  0  0  0  0  0  0  0  0
    6.0260   -4.7750   22.0490 C   0  0  0  0  0  0  0  0  0  0  0  0
    1.2810   -7.4580   22.1190 C   0  0  0  0  0  0  0  0  0  0  0  0
    3.0990   -7.6820   25.3200 C   0  0  0  0  0  0  0  0  0  0  0  0
    6.5370   -3.4940   22.2940 C   0  0  2  0  0  0  0  0  0  0  0  0
    1.1520   -8.7460   21.3050 C   0  0  0  0  0  0  0  0  0  0  0  0
    0.4060   -6.6020   22.1350 O   0  0  0  0  0  0  0  0  0  0  0  0
    2.4800   -8.3260   26.3500 N   0  0  0  0  0  0  0  0  0  0  0  0
    3.9530   -8.2010   24.6420 O   0  0  0  0  0  0  0  0  0  0  0  0
    6.7180   -2.8140   21.2100 N   0  0  0  0  0  0  0  0  0  0  0  0
    7.7070   -3.6750   23.0270 C   0  0  0  0  0  0  0  0  0  0  0  0
    6.3880   -3.3660   19.9600 C   0  0  0  0  0  0  0  0  0  0  0  0
    8.3810   -2.5530   23.3550 N   0  0  0  0  0  0  0  0  0  0  0  0
    7.4790   -1.5700   21.3820 C   0  0  0  0  0  0  0  0  0  0  0  0
    7.3730   -3.0380   18.8520 C   0  0  0  0  0  0  0  0  0  0  0  0
    5.4090   -4.0920   19.7350 O   0  0  0  0  0  0  0  0  0  0  0  0
    9.4890   -2.7470   24.2940 C   0  0  2  0  0  0  0  0  0  0  0  0
    8.7930   -1.8470   22.1410 C   0  0  0  0  0  0  0  0  0  0  0  0
   10.6070   -3.0270   23.4990 C   0  0  0  0  0  0  0  0  0  0  0  0
    9.1470   -3.8490   25.2870 C   0  0  0  0  0  0  0  0  0  0  0  0
    9.7830   -5.2550   25.4440 C   0  0  0  0  0  0  0  0  0  0  0  0
    7.9060   -3.7030   26.4720 S   0  0  0  0  0  0  0  0  0  0  0  0
   11.3830   -1.7630   23.3600 C   0  0  0  0  0  0  0  0  0  0  0  0
    9.2710   -6.0010   26.3980 C   0  0  0  0  0  0  0  0  0  0  0  0
    8.1540   -5.2640   27.1090 C   0  0  0  0  0  0  0  0  0  0  0  0
   11.4030   -0.3440   24.0170 C   0  0  0  0  0  0  0  0  0  0  0  0
   12.3680   -1.8150   22.4030 C   0  0  0  0  0  0  0  0  0  0  0  0
    7.1020   -5.9290   28.5460 Br  0  0  0  0  0  0  0  0  0  0  0  0
   12.4630    0.5300   23.4460 C   0  0  0  0  0  0  0  0  0  0  0  0
   13.3580   -0.3070   22.2140 S   0  0  0  0  0  0  0  0  0  0  0  0
  2  1  1  1
  2  3  1  0
  1  4  2  3
  2  5  1  0
  4  6  1  0
  3  7  1  0
  5  8  1  0
  9  6  1  6
  7 10  1  0
  7 11  2  0
  8 12  1  0
  8 13  2  0
  9 14  1  0
  9 15  1  0
 14 16  1  0
 15 17  1  0
 14 18  1  0
 16 19  1  0
 16 20  2  0
 17 21  1  0
 17 22  1  0
 18 22  1  0
 21 23  1  6
 21 24  1  0
 24 25  2  0
 24 26  1  0
 23 27  1  0
 25 28  1  0
 26 29  1  0
 28 29  2  0
 27 30  1  0
 27 31  2  0
 29 32  1  0
 30 33  2  0
 31 34  1  0
 33 34  1  0
M  END
