x0981_1-x0540_3
     RDKit          3D

 19 18  0  0  0  0  0  0  0  0999 V2000
    4.0110   -5.2450   23.0320 C   0  0  0  0  0  0  0  0  0  0  0  0
    2.7890   -5.9750   23.5580 C   0  0  1  0  0  0  0  0  0  0  0  0
    2.5570   -7.2010   22.7700 N   0  0  0  0  0  0  0  0  0  0  0  0
    4.5430   -4.1630   23.5060 N   0  0  0  0  0  0  0  0  0  0  0  0
    2.8810   -6.1990   25.0670 C   0  0  0  0  0  0  0  0  0  0  0  0
    5.6330   -3.6130   22.8160 C   0  0  0  0  0  0  0  0  0  0  0  0
    1.3430   -7.4160   22.1490 C   0  0  0  0  0  0  0  0  0  0  0  0
    3.2300   -7.6450   25.2960 C   0  0  0  0  0  0  0  0  0  0  0  0
    5.2420   -2.5090   22.0530 C   0  0  0  0  0  0  0  0  0  0  0  0
    1.2180   -8.7060   21.3800 C   0  0  0  0  0  0  0  0  0  0  0  0
    0.4030   -6.6250   22.1780 O   0  0  0  0  0  0  0  0  0  0  0  0
    2.5500   -8.3600   26.3770 N   0  0  0  0  0  0  0  0  0  0  0  0
    4.0590   -8.1710   24.5850 O   0  0  0  0  0  0  0  0  0  0  0  0
    5.8240   -1.2430   22.2340 C   0  0  0  0  0  0  0  0  0  0  0  0
    5.1120   -0.0730   21.8540 C   0  0  0  0  0  0  0  0  0  0  0  0
    5.3210    1.0340   22.6890 C   0  0  0  0  0  0  0  0  0  0  0  0
    4.2740    2.0510   22.3800 N   0  0  0  0  0  0  0  0  0  0  0  0
    3.1680    2.1640   23.3430 C   0  0  0  0  0  0  0  0  0  0  0  0
    2.9600    1.3810   24.5190 O   0  0  0  0  0  0  0  0  0  0  0  0
  2  1  1  6
  2  3  1  0
  1  4  2  3
  2  5  1  0
  4  6  1  0
  3  7  1  0
  5  8  1  0
  6  9  1  0
  7 10  1  0
  7 11  2  0
  8 12  1  0
  8 13  2  0
  9 14  1  0
 14 15  1  0
 15 16  1  0
 16 17  1  0
 17 18  1  0
 18 19  2  0
M  END
