x0981_1-x1348_0-x1418_0
     RDKit          3D

 25 25  0  0  0  0  0  0  0  0999 V2000
    4.1450   -5.5900   23.1110 C   0  0  0  0  0  0  0  0  0  0  0  0
    2.7570   -6.0670   23.5350 C   0  0  1  0  0  0  0  0  0  0  0  0
    2.4930   -7.3150   22.8040 N   0  0  0  0  0  0  0  0  0  0  0  0
    4.7170   -4.5900   23.7000 N   0  0  0  0  0  0  0  0  0  0  0  0
    2.6340   -6.3180   25.0280 C   0  0  0  0  0  0  0  0  0  0  0  0
    6.0370   -4.2440   23.1460 C   0  0  0  0  0  0  0  0  0  0  0  0
    1.3110   -7.4680   22.1180 C   0  0  0  0  0  0  0  0  0  0  0  0
    3.0770   -7.7180   25.3040 C   0  0  0  0  0  0  0  0  0  0  0  0
    5.8170   -3.0850   22.3920 C   0  0  0  0  0  0  0  0  0  0  0  0
    1.1830   -8.7440   21.3250 C   0  0  0  0  0  0  0  0  0  0  0  0
    0.4270   -6.6190   22.1330 O   0  0  0  0  0  0  0  0  0  0  0  0
    2.4710   -8.3820   26.3270 N   0  0  0  0  0  0  0  0  0  0  0  0
    3.9520   -8.2080   24.6240 O   0  0  0  0  0  0  0  0  0  0  0  0
    6.7030   -3.0110   21.3750 N   0  0  0  0  0  0  0  0  0  0  0  0
    6.4290   -3.4680   20.0590 C   0  0  0  0  0  0  0  0  0  0  0  0
    7.8560   -2.1040   21.6240 C   0  0  0  0  0  0  0  0  0  0  0  0
    5.4570   -4.2000   19.8080 O   0  0  0  0  0  0  0  0  0  0  0  0
    7.3960   -3.0560   18.9600 C   0  0  0  0  0  0  0  0  0  0  0  0
    8.9570   -2.8090   22.0530 C   0  0  0  0  0  0  0  0  0  0  0  0
    9.6280   -2.3980   23.3720 C   0  0  0  0  0  0  0  0  0  0  0  0
   10.7170   -1.5440   23.2420 C   0  0  0  0  0  0  0  0  0  0  0  0
   12.2450   -1.7580   22.9820 C   0  0  0  0  0  0  0  0  0  0  0  0
   10.4000    0.1240   23.3860 S   0  0  0  0  0  0  0  0  0  0  0  0
   12.8650   -0.5310   22.9570 C   0  0  0  0  0  0  0  0  0  0  0  0
   12.0540    0.5560   23.1530 C   0  0  0  0  0  0  0  0  0  0  0  0
  2  1  1  1
  2  3  1  0
  1  4  2  3
  2  5  1  0
  4  6  1  0
  3  7  1  0
  5  8  1  0
  6  9  1  0
  7 10  1  0
  7 11  2  0
  8 12  1  0
  8 13  2  0
  9 14  1  0
 14 15  1  0
 14 16  1  0
 15 17  2  0
 15 18  1  0
 16 19  1  0
 19 20  1  0
 20 21  1  0
 21 22  2  0
 21 23  1  0
 22 24  1  0
 23 25  1  0
 24 25  2  0
M  END
