x0981_1-x0426_1-x1334_1-x0831_0
     RDKit          3D

 41 44  0  0  0  0  0  0  0  0999 V2000
    4.2700   -5.3790   23.3300 C   0  0  0  0  0  0  0  0  0  0  0  0
    2.8710   -5.9610   23.5570 C   0  0  1  0  0  0  0  0  0  0  0  0
    2.6750   -7.1670   22.7440 N   0  0  0  0  0  0  0  0  0  0  0  0
    4.4850   -4.1770   23.7840 N   0  0  0  0  0  0  0  0  0  0  0  0
    2.6100   -6.3080   25.0320 C   0  0  0  0  0  0  0  0  0  0  0  0
    5.7920   -3.4880   23.6610 C   0  0  0  0  0  0  0  0  0  0  0  0
    1.3340   -7.4430   22.1190 C   0  0  0  0  0  0  0  0  0  0  0  0
    3.0600   -7.7240   25.2980 C   0  0  0  0  0  0  0  0  0  0  0  0
    6.6950   -3.8550   22.4500 C   0  0  1  0  0  0  0  0  0  0  0  0
    1.2090   -8.7400   21.3630 C   0  0  0  0  0  0  0  0  0  0  0  0
    0.4010   -6.6460   22.1980 O   0  0  0  0  0  0  0  0  0  0  0  0
    2.4330   -8.3880   26.3090 N   0  0  0  0  0  0  0  0  0  0  0  0
    3.9440   -8.2020   24.6180 O   0  0  0  0  0  0  0  0  0  0  0  0
    6.5180   -2.9260   21.2930 N   0  0  0  0  0  0  0  0  0  0  0  0
    8.0660   -3.8650   22.9200 C   0  0  0  0  0  0  0  0  0  0  0  0
    6.2950   -3.4600   20.0120 C   0  0  0  0  0  0  0  0  0  0  0  0
    8.6910   -2.5360   23.1720 N   0  0  0  0  0  0  0  0  0  0  0  0
    7.1820   -1.6390   21.4630 C   0  0  2  0  0  0  0  0  0  0  0  0
    7.2630   -3.0310   18.9090 C   0  0  0  0  0  0  0  0  0  0  0  0
    5.3790   -4.2530   19.7980 O   0  0  0  0  0  0  0  0  0  0  0  0
   10.1280   -2.6050   23.5180 C   0  0  0  0  0  0  0  0  0  0  0  0
    8.6250   -1.7920   21.9170 C   0  0  0  0  0  0  0  0  0  0  0  0
    6.3730   -0.7210   22.3810 C   0  0  0  0  0  0  0  0  0  0  0  0
   10.7970   -1.2280   23.5430 C   0  0  0  0  0  0  0  0  0  0  0  0
    6.3940    0.7380   21.8770 C   0  0  2  0  0  0  0  0  0  0  0  0
   10.0510   -0.0960   24.2650 C   0  0  0  0  0  0  0  0  0  0  0  0
   12.0480   -0.9940   22.9180 C   0  0  0  0  0  0  0  0  0  0  0  0
    5.6470    1.6280   22.6850 C   0  0  0  0  0  0  0  0  0  0  0  0
    6.0150    0.8620   20.4300 C   0  0  0  0  0  0  0  0  0  0  0  0
   12.7860   -2.0760   22.2000 C   0  0  0  0  0  0  0  0  0  0  0  0
   10.7280    1.2810   24.2610 C   0  0  0  0  0  0  0  0  0  0  0  0
   12.6480    0.2570   22.9370 C   0  0  0  0  0  0  0  0  0  0  0  0
    4.1390    1.6050   22.3820 C   0  0  1  0  0  0  0  0  0  0  0  0
    4.8420    1.5280   20.0780 C   0  0  0  0  0  0  0  0  0  0  0  0
    6.8030    0.3330   19.4070 C   0  0  0  0  0  0  0  0  0  0  0  0
   12.0480    1.3420   23.5570 C   0  0  0  0  0  0  0  0  0  0  0  0
    3.4670    2.4590   23.3560 N   0  0  0  0  0  0  0  0  0  0  0  0
    3.9050    2.1310   21.0880 C   0  0  0  0  0  0  0  0  0  0  0  0
    4.5300    1.6430   18.7410 C   0  0  0  0  0  0  0  0  0  0  0  0
    6.5080    0.4380   18.1000 N   0  0  0  0  0  0  0  0  0  0  0  0
    5.3780    1.0980   17.8200 C   0  0  0  0  0  0  0  0  0  0  0  0
  2  1  1  1
  2  3  1  0
  1  4  2  3
  2  5  1  0
  4  6  1  0
  3  7  1  0
  5  8  1  0
  9  6  1  1
  7 10  1  0
  7 11  2  0
  8 12  1  0
  8 13  2  0
  9 14  1  0
  9 15  1  0
 14 16  1  0
 15 17  1  0
 14 18  1  0
 16 19  1  0
 16 20  2  0
 17 21  1  0
 17 22  1  0
 18 22  1  0
 18 23  1  1
 21 24  1  0
 25 23  1  1
 24 26  2  0
 24 27  1  0
 25 28  1  0
 25 29  1  0
 27 30  1  0
 26 31  1  0
 27 32  2  0
 28 33  1  0
 29 34  2  0
 29 35  1  0
 31 36  2  0
 32 36  1  0
 33 37  1  1
 33 38  1  0
 34 38  1  0
 34 39  1  0
 35 40  2  0
 39 41  2  0
 40 41  1  0
M  END
