x0981_1-x1418_0-x1425_1
     RDKit          3D

 27 28  0  0  0  0  0  0  0  0999 V2000
    2.7780   -6.0310   23.4910 C   0  0  1  0  0  0  0  0  0  0  0  0
    2.5890   -7.1650   22.8710 N   0  0  0  0  0  0  0  0  0  0  0  0
    1.3420   -7.4450   22.1330 C   0  0  0  0  0  0  0  0  0  0  0  0
    2.6020   -6.3200   24.9740 C   0  0  0  0  0  0  0  0  0  0  0  0
    4.1990   -5.5740   23.2460 C   0  0  0  0  0  0  0  0  0  0  0  0
    3.0550   -7.7270   25.2980 C   0  0  0  0  0  0  0  0  0  0  0  0
    4.3410   -4.1820   23.5900 O   0  0  0  0  0  0  0  0  0  0  0  0
    1.1550   -8.7360   21.3440 C   0  0  0  0  0  0  0  0  0  0  0  0
    0.2130   -6.5690   22.0340 O   0  0  0  0  0  0  0  0  0  0  0  0
    2.4330   -8.3570   26.3340 N   0  0  0  0  0  0  0  0  0  0  0  0
    3.9390   -8.2210   24.6320 O   0  0  0  0  0  0  0  0  0  0  0  0
    5.7400   -3.8450   23.8800 N   0  0  0  0  0  0  0  0  0  0  0  0
    6.0770   -2.6860   22.9910 C   0  0  0  0  0  0  0  0  0  0  0  0
    6.4810   -5.1080   23.6500 C   0  0  0  0  0  0  0  0  0  0  0  0
    7.3080   -2.9420   22.3750 C   0  0  1  0  0  0  0  0  0  0  0  0
    6.7820   -5.4150   22.1980 C   0  0  0  0  0  0  0  0  0  0  0  0
    8.4200   -3.0010   23.4830 C   0  0  0  0  0  0  0  0  0  0  0  0
    6.9360   -4.1370   21.5190 N   0  0  0  0  0  0  0  0  0  0  0  0
    6.4430   -3.9850   20.2310 C   0  0  0  0  0  0  0  0  0  0  0  0
    9.8800   -2.9860   23.0130 C   0  0  0  0  0  0  0  0  0  0  0  0
    5.3810   -4.5190   19.9060 O   0  0  0  0  0  0  0  0  0  0  0  0
    7.2710   -3.2210   19.2160 C   0  0  0  0  0  0  0  0  0  0  0  0
   10.7730   -1.7740   23.2490 C   0  0  0  0  0  0  0  0  0  0  0  0
   11.9950   -1.4910   22.4940 C   0  0  0  0  0  0  0  0  0  0  0  0
   10.4520   -0.5600   24.4650 S   0  0  0  0  0  0  0  0  0  0  0  0
   12.6240   -0.3450   22.8870 C   0  0  0  0  0  0  0  0  0  0  0  0
   11.8980    0.3370   24.0000 C   0  0  0  0  0  0  0  0  0  0  0  0
  1  2  1  0
  2  3  1  0
  1  4  1  1
  1  5  1  0
  4  6  1  0
  5  7  1  0
  3  8  1  0
  3  9  2  0
  6 10  1  0
  6 11  2  0
  7 12  1  0
 12 13  1  0
 12 14  1  0
 13 15  1  0
 14 16  1  0
 15 17  1  1
 15 18  1  0
 16 18  1  0
 18 19  1  0
 17 20  1  0
 19 21  2  0
 19 22  1  0
 20 23  1  0
 23 24  2  0
 23 25  1  0
 24 26  1  0
 25 27  1  0
 26 27  2  0
M  END
