x0981_1-x1418_1-x1412_0-x0831_0
     RDKit          3D

 37 39  0  0  0  0  0  0  0  0999 V2000
    3.8160   -5.7940   22.8850 C   0  0  0  0  0  0  0  0  0  0  0  0
    2.5690   -6.2530   23.5780 C   0  0  1  0  0  0  0  0  0  0  0  0
    2.2140   -7.5180   22.9540 N   0  0  0  0  0  0  0  0  0  0  0  0
    4.3350   -4.6410   22.8290 N   0  0  0  0  0  0  0  0  0  0  0  0
    2.7220   -6.3040   25.0910 C   0  0  0  0  0  0  0  0  0  0  0  0
    5.5010   -4.6330   21.9860 C   0  0  0  0  0  0  0  0  0  0  0  0
    1.1670   -7.5630   22.0740 C   0  0  0  0  0  0  0  0  0  0  0  0
    3.1230   -7.7120   25.3590 C   0  0  0  0  0  0  0  0  0  0  0  0
    6.3740   -3.4790   22.2950 C   0  0  1  0  0  0  0  0  0  0  0  0
    1.1680   -8.7780   21.1810 C   0  0  0  0  0  0  0  0  0  0  0  0
    0.3090   -6.6900   22.0060 O   0  0  0  0  0  0  0  0  0  0  0  0
    2.4790   -8.3730   26.3650 N   0  0  0  0  0  0  0  0  0  0  0  0
    3.9930   -8.2130   24.6810 O   0  0  0  0  0  0  0  0  0  0  0  0
    7.6880   -4.0530   22.7430 C   0  0  0  0  0  0  0  0  0  0  0  0
    6.5750   -2.6240   21.1170 N   0  0  0  0  0  0  0  0  0  0  0  0
    6.3500   -3.2090   19.8610 C   0  0  0  0  0  0  0  0  0  0  0  0
    8.5360   -2.9930   23.2160 N   0  0  0  0  0  0  0  0  0  0  0  0
    7.5840   -1.5930   21.3750 C   0  0  0  0  0  0  0  0  0  0  0  0
    7.2980   -2.9250   18.7020 C   0  0  0  0  0  0  0  0  0  0  0  0
    5.4070   -3.9970   19.6700 O   0  0  0  0  0  0  0  0  0  0  0  0
    8.7790   -2.6720   24.6340 C   0  0  2  0  0  0  0  0  0  0  0  0
    8.7380   -1.9350   22.1580 C   0  0  0  0  0  0  0  0  0  0  0  0
    8.1180   -1.7650   25.1040 O   0  0  0  0  0  0  0  0  0  0  0  0
   10.1350   -2.6820   24.5890 C   0  0  0  0  0  0  0  0  0  0  0  0
    8.5830   -3.7960   25.6250 C   0  0  0  0  0  0  0  0  0  0  0  0
   10.7530   -2.3010   23.2980 C   0  0  0  0  0  0  0  0  0  0  0  0
    9.5180   -4.8270   25.6080 C   0  0  0  0  0  0  0  0  0  0  0  0
    7.4050   -4.0350   26.8220 S   0  0  0  0  0  0  0  0  0  0  0  0
    9.2600   -5.7570   26.5390 C   0  0  0  0  0  0  0  0  0  0  0  0
    8.1360   -5.5400   27.3490 C   0  0  0  0  0  0  0  0  0  0  0  0
   11.2280   -0.9090   23.3500 C   0  0  0  0  0  0  0  0  0  0  0  0
   10.4560    0.1580   23.9600 C   0  0  0  0  0  0  0  0  0  0  0  0
   12.4130   -0.6020   22.8290 C   0  0  0  0  0  0  0  0  0  0  0  0
   13.2020   -1.6940   22.1830 C   0  0  0  0  0  0  0  0  0  0  0  0
   10.9940    1.4140   23.9620 C   0  0  0  0  0  0  0  0  0  0  0  0
   12.9400    0.6800   22.8540 C   0  0  0  0  0  0  0  0  0  0  0  0
   12.2150    1.7070   23.4270 C   0  0  0  0  0  0  0  0  0  0  0  0
  2  1  1  6
  2  3  1  0
  1  4  2  3
  2  5  1  0
  4  6  1  0
  3  7  1  0
  5  8  1  0
  9  6  1  6
  7 10  1  0
  7 11  2  0
  8 12  1  0
  8 13  2  0
  9 14  1  0
  9 15  1  0
 15 16  1  0
 14 17  1  0
 15 18  1  0
 16 19  1  0
 16 20  2  0
 17 21  1  0
 17 22  1  0
 18 22  1  0
 21 23  1  1
 21 24  1  0
 21 25  1  0
 24 26  1  0
 25 27  2  0
 25 28  1  0
 27 29  1  0
 28 30  1  0
 29 30  2  0
 26 31  1  0
 31 32  2  0
 31 33  1  0
 33 34  1  0
 32 35  1  0
 33 36  2  0
 35 37  2  0
 36 37  1  0
M  END
