x0981_1-x1418_0-x0769_0
     RDKit          3D

 27 28  0  0  0  0  0  0  0  0999 V2000
    3.1200   -5.9470   23.3460 C   0  0  1  0  0  0  0  0  0  0  0  0
    2.8470   -7.0950   22.7770 N   0  0  0  0  0  0  0  0  0  0  0  0
    1.5470   -7.3570   22.2410 C   0  0  0  0  0  0  0  0  0  0  0  0
    2.8370   -6.2230   24.8320 C   0  0  0  0  0  0  0  0  0  0  0  0
    4.5420   -5.3780   23.0290 C   0  0  1  0  0  0  0  0  0  0  0  0
    3.2030   -7.6320   25.1730 C   0  0  0  0  0  0  0  0  0  0  0  0
    5.2080   -5.0450   24.2920 N   0  0  0  0  0  0  0  0  0  0  0  0
    5.4120   -6.1400   22.2720 C   0  0  0  0  0  0  0  0  0  0  0  0
    4.7160   -3.7140   24.5740 O   0  0  0  0  0  0  0  0  0  0  0  0
    1.2850   -8.6460   21.4890 C   0  0  0  0  0  0  0  0  0  0  0  0
    0.5900   -6.5740   22.3180 O   0  0  0  0  0  0  0  0  0  0  0  0
    2.4680   -8.2660   26.2910 N   0  0  0  0  0  0  0  0  0  0  0  0
    4.0630   -8.2090   24.5640 O   0  0  0  0  0  0  0  0  0  0  0  0
    6.4960   -5.1840   21.8870 N   0  0  0  0  0  0  0  0  0  0  0  0
    6.6670   -4.8670   24.2580 C   0  0  0  0  0  0  0  0  0  0  0  0
    6.5510   -4.4850   20.6710 C   0  0  0  0  0  0  0  0  0  0  0  0
    7.3120   -4.7030   23.0270 C   0  0  2  0  0  0  0  0  0  0  0  0
    5.5760   -4.4710   19.9120 O   0  0  0  0  0  0  0  0  0  0  0  0
    7.8900   -3.7540   20.4100 C   0  0  0  0  0  0  0  0  0  0  0  0
    7.7010   -3.1920   22.9240 C   0  0  0  0  0  0  0  0  0  0  0  0
    9.0150   -2.9150   22.4720 C   0  0  0  0  0  0  0  0  0  0  0  0
   10.0200   -2.7500   23.6090 C   0  0  0  0  0  0  0  0  0  0  0  0
   10.9400   -1.6960   23.3610 C   0  0  0  0  0  0  0  0  0  0  0  0
   12.2990   -1.7210   23.1090 C   0  0  0  0  0  0  0  0  0  0  0  0
   10.4040   -0.0830   23.3400 S   0  0  0  0  0  0  0  0  0  0  0  0
   12.9160   -0.5090   22.9080 C   0  0  0  0  0  0  0  0  0  0  0  0
   11.9720    0.5340   23.0110 C   0  0  0  0  0  0  0  0  0  0  0  0
  1  2  1  0
  2  3  1  0
  1  4  1  1
  1  5  1  0
  4  6  1  0
  5  7  1  0
  5  8  1  1
  7  9  1  0
  3 10  1  0
  3 11  2  0
  6 12  1  0
  6 13  2  0
  8 14  1  0
  7 15  1  0
 14 16  1  0
 14 17  1  0
 15 17  1  0
 16 18  2  0
 16 19  1  0
 17 20  1  6
 20 21  1  0
 21 22  1  0
 22 23  1  0
 23 24  2  0
 23 25  1  0
 24 26  1  0
 25 27  1  0
 26 27  2  0
M  END
