x0981_1-x0434_1-x0831_1-x0692_0
     RDKit          3D

 39 41  0  0  0  0  0  0  0  0999 V2000
    4.1620   -5.3130   23.3240 C   0  0  0  0  0  0  0  0  0  0  0  0
    2.7890   -5.9820   23.5190 C   0  0  1  0  0  0  0  0  0  0  0  0
    2.5460   -7.2410   22.7920 N   0  0  0  0  0  0  0  0  0  0  0  0
    4.4470   -4.1150   23.7580 N   0  0  0  0  0  0  0  0  0  0  0  0
    2.6590   -6.2450   25.0200 C   0  0  0  0  0  0  0  0  0  0  0  0
    5.7070   -3.3560   23.6520 C   0  0  0  0  0  0  0  0  0  0  0  0
    1.3500   -7.4320   22.1170 C   0  0  0  0  0  0  0  0  0  0  0  0
    3.0810   -7.6570   25.2880 C   0  0  0  0  0  0  0  0  0  0  0  0
    6.5620   -3.6580   22.3860 C   0  0  1  0  0  0  0  0  0  0  0  0
    1.2350   -8.7200   21.3410 C   0  0  0  0  0  0  0  0  0  0  0  0
    0.4460   -6.6040   22.1300 O   0  0  0  0  0  0  0  0  0  0  0  0
    2.4370   -8.3040   26.2980 N   0  0  0  0  0  0  0  0  0  0  0  0
    3.9610   -8.1740   24.6280 O   0  0  0  0  0  0  0  0  0  0  0  0
    6.1900   -2.8150   21.2000 N   0  0  0  0  0  0  0  0  0  0  0  0
    7.9120   -3.5870   22.8120 C   0  0  0  0  0  0  0  0  0  0  0  0
    6.1850   -3.5220   20.0060 C   0  0  0  0  0  0  0  0  0  0  0  0
    8.5210   -2.4090   22.9370 N   0  0  0  0  0  0  0  0  0  0  0  0
    6.2920   -1.3510   21.1360 C   0  0  2  0  0  0  0  0  0  0  0  0
    5.3930   -4.4350   19.8460 O   0  0  0  0  0  0  0  0  0  0  0  0
    7.2240   -3.0930   18.9520 C   0  0  0  0  0  0  0  0  0  0  0  0
    9.6770   -2.5050   23.8390 C   0  0  0  0  0  0  0  0  0  0  0  0
    8.5680   -1.5210   21.7780 C   0  0  1  0  0  0  0  0  0  0  0  0
    7.4300   -0.7590   21.9310 C   0  0  0  0  0  0  0  0  0  0  0  0
    5.0260   -0.5120   21.3850 C   0  0  0  0  0  0  0  0  0  0  0  0
    9.7100   -0.5130   21.6860 C   0  0  0  0  0  0  0  0  0  0  0  0
   10.7210   -1.4510   23.6190 C   0  0  0  0  0  0  0  0  0  0  0  0
    4.5680    0.4590   20.2750 C   0  0  0  0  0  0  0  0  0  0  0  0
    9.5470    0.7200   21.6060 O   0  0  0  0  0  0  0  0  0  0  0  0
   10.3630   -0.1250   23.8260 C   0  0  0  0  0  0  0  0  0  0  0  0
   12.0230   -1.7900   23.2040 C   0  0  0  0  0  0  0  0  0  0  0  0
    5.8170   -0.1360   19.8760 C   0  0  0  0  0  0  0  0  0  0  0  0
    4.4510    1.2990   18.9960 C   0  0  0  0  0  0  0  0  0  0  0  0
   11.3190    0.8790   23.6070 C   0  0  0  0  0  0  0  0  0  0  0  0
   12.9470   -0.7820   22.9990 C   0  0  0  0  0  0  0  0  0  0  0  0
    6.6140   -0.0080   18.7560 C   0  0  0  0  0  0  0  0  0  0  0  0
    5.2670    1.4000   17.8950 C   0  0  0  0  0  0  0  0  0  0  0  0
   10.9100    2.2990   23.8100 C   0  0  0  0  0  0  0  0  0  0  0  0
   12.6130    0.5630   23.1970 C   0  0  0  0  0  0  0  0  0  0  0  0
    6.3940    0.7420   17.7180 N   0  0  0  0  0  0  0  0  0  0  0  0
  2  1  1  1
  2  3  1  0
  1  4  2  3
  2  5  1  0
  4  6  1  0
  3  7  1  0
  5  8  1  0
  9  6  1  1
  7 10  1  0
  7 11  2  0
  8 12  1  0
  8 13  2  0
  9 14  1  0
  9 15  1  0
 14 16  1  0
 15 17  1  0
 14 18  1  0
 16 19  2  0
 16 20  1  0
 17 21  1  0
 17 22  1  0
 18 23  1  0
 22 23  1  0
 18 24  1  1
 22 25  1  1
 21 26  1  0
 24 27  1  0
 25 28  2  0
 26 29  2  0
 26 30  1  0
 27 31  2  0
 27 32  1  0
 29 33  1  0
 30 34  2  0
 31 35  1  0
 32 36  2  0
 33 37  1  0
 33 38  2  0
 34 38  1  0
 35 39  2  0
 36 39  1  0
M  END
