x0995_0-x1336_1
     RDKit          3D

 23 25  0  0  0  0  0  0  0  0999 V2000
    7.5110   -1.7410   25.5320 S   0  0  2  0  0  0  0  0  0  0  0  0
    6.2230   -1.7320   24.9240 N   0  0  0  0  0  0  0  0  0  0  0  0
    5.9640   -0.7790   23.8420 C   0  0  0  0  0  0  0  0  0  0  0  0
    8.5490   -1.4670   24.5650 O   0  0  0  0  0  0  0  0  0  0  0  0
    7.8010   -3.2840   26.3950 C   0  0  0  0  0  0  0  0  0  0  0  0
    6.8810   -3.7480   27.3460 C   0  0  0  0  0  0  0  0  0  0  0  0
    8.9630   -4.0250   26.1220 C   0  0  0  0  0  0  0  0  0  0  0  0
   10.0050   -3.6060   25.1200 C   0  0  0  0  0  0  0  0  0  0  0  0
    4.6060   -0.4700   23.6790 C   0  0  0  0  0  0  0  0  0  0  0  0
    7.0730   -4.9620   28.0690 C   0  0  0  0  0  0  0  0  0  0  0  0
    9.1440   -5.2080   26.8290 C   0  0  0  0  0  0  0  0  0  0  0  0
    6.1200   -5.5310   29.1150 C   0  0  0  0  0  0  0  0  0  0  0  0
    4.1260   -0.4140   22.3660 C   0  0  0  0  0  0  0  0  0  0  0  0
    8.2290   -5.6450   27.7610 C   0  0  0  0  0  0  0  0  0  0  0  0
    4.3820    0.7120   21.5850 C   0  0  2  0  0  0  0  0  0  0  0  0
    3.1880    1.5610   21.0320 C   0  0  0  0  0  0  0  0  0  0  0  0
    5.1510    0.4490   20.2930 C   0  0  0  0  0  0  0  0  0  0  0  0
    3.4700    2.2160   19.7440 N   0  0  0  0  0  0  0  0  0  0  0  0
    4.5570    1.3930   19.2800 C   0  0  0  0  0  0  0  0  0  0  0  0
    6.1620   -0.4180   20.0510 N   0  0  0  0  0  0  0  0  0  0  0  0
    5.2070    1.3260   17.9150 C   0  0  0  0  0  0  0  0  0  0  0  0
    6.6500   -0.3760   18.7810 C   0  0  0  0  0  0  0  0  0  0  0  0
    6.2970    0.3900   17.7160 N   0  0  0  0  0  0  0  0  0  0  0  0
  1  2  2  0
  2  3  1  0
  1  4  2  0
  1  5  1  6
  5  6  2  0
  5  7  1  0
  7  8  1  0
  3  9  1  0
  6 10  1  0
  7 11  2  0
 10 12  1  0
  9 13  1  0
 10 14  2  0
 11 14  1  0
 15 13  1  6
 15 16  1  0
 15 17  1  0
 16 18  1  0
 17 19  2  0
 18 19  1  0
 17 20  1  0
 19 21  1  0
 20 22  2  0
 21 23  2  0
 22 23  1  0
M  END
