x1093_0-x1385_1
     RDKit          3D

 16 17  0  0  0  0  0  0  0  0999 V2000
    6.3990   -3.2430   19.8920 C   0  0  0  0  0  0  0  0  0  0  0  0
    7.3600   -2.9560   18.7670 C   0  0  0  0  0  0  0  0  0  0  0  0
    5.4350   -4.0080   19.7030 O   0  0  0  0  0  0  0  0  0  0  0  0
    6.6360   -2.6660   21.1430 N   0  0  0  0  0  0  0  0  0  0  0  0
    6.0590   -3.3680   22.2780 C   0  0  0  0  0  0  0  0  0  0  0  0
    7.6830   -1.6520   21.4780 C   0  0  0  0  0  0  0  0  0  0  0  0
    7.1580   -3.8630   23.2480 C   0  0  0  0  0  0  0  0  0  0  0  0
    8.7560   -2.1540   22.4870 C   0  0  2  0  0  0  0  0  0  0  0  0
    8.1040   -2.8130   23.6360 N   0  0  0  0  0  0  0  0  0  0  0  0
    9.8250   -1.3120   22.8450 C   0  0  2  0  0  0  0  0  0  0  0  0
    9.8410   -0.1300   22.1730 N   0  0  0  0  0  0  0  0  0  0  0  0
   11.1100   -1.8230   22.7210 C   0  0  0  0  0  0  0  0  0  0  0  0
   10.5250    0.8450   23.0630 C   0  0  0  0  0  0  0  0  0  0  0  0
   12.0640   -1.1250   23.5700 N   0  0  0  0  0  0  0  0  0  0  0  0
   13.3950   -1.5910   23.3230 C   0  0  0  0  0  0  0  0  0  0  0  0
   11.9200    0.3120   23.4280 C   0  0  0  0  0  0  0  0  0  0  0  0
  1  2  1  0
  1  3  2  0
  1  4  1  0
  4  5  1  0
  4  6  1  0
  5  7  1  0
  8  6  1  1
  7  9  1  0
  8  9  1  0
  8 10  1  0
 10 11  1  0
 10 12  1  6
 11 13  1  0
 12 14  1  0
 14 15  1  0
 13 16  1  0
 14 16  1  0
M  END
