x1093_1-x1336_1
     RDKit          3D

 25 27  0  0  0  0  0  0  0  0999 V2000
    7.4170   -2.0070   25.2200 S   0  0  2  0  0  0  0  0  0  0  0  0
    8.7710   -1.3100   24.9910 N   0  0  0  0  0  0  0  0  0  0  0  0
    8.7760   -0.0110   24.3000 C   0  0  0  0  0  0  0  0  0  0  0  0
    6.2190   -1.3730   25.7350 O   0  0  0  0  0  0  0  0  0  0  0  0
    7.7830   -3.3480   26.2230 C   0  0  0  0  0  0  0  0  0  0  0  0
    6.8720   -3.7550   27.1980 C   0  0  0  0  0  0  0  0  0  0  0  0
    8.9990   -4.0550   26.0840 C   0  0  0  0  0  0  0  0  0  0  0  0
   10.0280   -3.6700   25.0680 C   0  0  0  0  0  0  0  0  0  0  0  0
    9.7440    0.1000   23.1210 C   0  0  0  0  0  0  0  0  0  0  0  0
    7.0540   -4.7830   28.0290 C   0  0  0  0  0  0  0  0  0  0  0  0
    9.2810   -5.1160   26.8760 C   0  0  0  0  0  0  0  0  0  0  0  0
    6.0180   -5.1450   29.0460 C   0  0  0  0  0  0  0  0  0  0  0  0
    8.9690    0.3660   21.7950 C   0  0  0  0  0  0  0  0  0  0  0  0
    8.3120   -5.5660   27.9260 C   0  0  0  0  0  0  0  0  0  0  0  0
    8.9960    1.4990   21.2650 O   0  0  0  0  0  0  0  0  0  0  0  0
    8.1860   -0.8130   21.1830 C   0  0  0  0  0  0  0  0  0  0  0  0
    7.2320   -0.3250   20.0820 C   0  0  0  0  0  0  0  0  0  0  0  0
    7.3060   -0.5850   18.7180 C   0  0  0  0  0  0  0  0  0  0  0  0
    5.9940    0.5560   20.2710 C   0  0  0  0  0  0  0  0  0  0  0  0
    6.2960    0.0220   18.0540 N   0  0  0  0  0  0  0  0  0  0  0  0
    5.4600    0.7450   19.0100 C   0  0  0  0  0  0  0  0  0  0  0  0
    5.3550    1.1470   21.3260 C   0  0  0  0  0  0  0  0  0  0  0  0
    4.1990    1.9050   21.0640 C   0  0  0  0  0  0  0  0  0  0  0  0
    4.2840    1.5140   18.6610 N   0  0  0  0  0  0  0  0  0  0  0  0
    3.7240    2.0510   19.7580 C   0  0  0  0  0  0  0  0  0  0  0  0
  1  2  2  0
  2  3  1  0
  1  4  2  0
  1  5  1  1
  5  6  2  0
  5  7  1  0
  7  8  1  0
  3  9  1  0
  6 10  1  0
  7 11  2  0
 10 12  1  0
  9 13  1  0
 10 14  2  0
 11 14  1  0
 13 15  2  0
 13 16  1  0
 16 17  1  0
 17 18  2  0
 17 19  1  0
 18 20  1  0
 19 21  2  0
 20 21  1  0
 19 22  1  0
 22 23  2  0
 21 24  1  0
 23 25  1  0
 24 25  2  0
M  END
