x1093_0-x1380_1
     RDKit          3D

 19 20  0  0  0  0  0  0  0  0999 V2000
    5.7870   -3.5470   25.2070 C   0  0  0  0  0  0  0  0  0  0  0  0
    6.0330   -3.7430   23.8380 C   0  0  1  0  0  0  0  0  0  0  0  0
    7.3130   -2.9460   23.5260 C   0  0  0  0  0  0  0  0  0  0  0  0
    4.9120   -2.7820   25.6180 O   0  0  0  0  0  0  0  0  0  0  0  0
    6.2040   -5.1230   23.6160 C   0  0  0  0  0  0  0  0  0  0  0  0
    6.5210   -5.4130   22.2740 C   0  0  0  0  0  0  0  0  0  0  0  0
    7.9450   -3.5230   22.4320 C   0  0  2  0  0  0  0  0  0  0  0  0
    8.7210   -2.3480   21.8210 C   0  0  0  0  0  0  0  0  0  0  0  0
    6.9070   -4.2790   21.6560 N   0  0  0  0  0  0  0  0  0  0  0  0
    6.5050   -4.0310   20.3260 C   0  0  0  0  0  0  0  0  0  0  0  0
    9.6830   -1.5810   22.7410 C   0  0  2  0  0  0  0  0  0  0  0  0
    7.3860   -3.2400   19.3750 C   0  0  0  0  0  0  0  0  0  0  0  0
    5.4450   -4.5530   19.9470 O   0  0  0  0  0  0  0  0  0  0  0  0
    9.5120   -0.1320   22.5010 N   0  0  0  0  0  0  0  0  0  0  0  0
   11.1670   -2.0320   22.7530 C   0  0  0  0  0  0  0  0  0  0  0  0
   10.4820    0.6720   23.2150 C   0  0  0  0  0  0  0  0  0  0  0  0
   11.9690   -1.3340   23.5930 N   0  0  0  0  0  0  0  0  0  0  0  0
   13.3560   -1.7910   23.5200 C   0  0  0  0  0  0  0  0  0  0  0  0
   11.8910    0.1220   23.4530 C   0  0  0  0  0  0  0  0  0  0  0  0
  2  1  1  1
  2  3  1  0
  1  4  2  0
  2  5  1  0
  5  6  1  0
  3  7  1  0
  7  8  1  6
  6  9  1  0
  7  9  1  0
  9 10  1  0
 11  8  1  6
 10 12  1  0
 10 13  2  0
 11 14  1  0
 11 15  1  0
 14 16  1  0
 15 17  1  0
 17 18  1  0
 16 19  1  0
 17 19  1  0
M  END
