x1093_1-x0981_1
     RDKit          3D

 27 28  0  0  0  0  0  0  0  0999 V2000
    4.3350   -5.6100   23.0810 C   0  0  0  0  0  0  0  0  0  0  0  0
    2.9060   -6.1220   23.3770 C   0  0  1  0  0  0  0  0  0  0  0  0
    2.5840   -7.0920   22.8040 N   0  0  0  0  0  0  0  0  0  0  0  0
    4.9420   -4.3880   23.3780 N   0  0  0  0  0  0  0  0  0  0  0  0
    2.6620   -6.2130   24.9020 C   0  0  0  0  0  0  0  0  0  0  0  0
    6.2740   -4.2290   22.9550 C   0  0  0  0  0  0  0  0  0  0  0  0
    1.3160   -7.4510   22.1240 C   0  0  0  0  0  0  0  0  0  0  0  0
    3.0760   -7.5920   25.3390 C   0  0  0  0  0  0  0  0  0  0  0  0
    6.6280   -2.9420   22.4960 C   0  0  0  0  0  0  0  0  0  0  0  0
    1.1730   -8.7360   21.3490 C   0  0  0  0  0  0  0  0  0  0  0  0
    0.3900   -6.6440   22.1930 O   0  0  0  0  0  0  0  0  0  0  0  0
    2.4770   -8.1660   26.4210 N   0  0  0  0  0  0  0  0  0  0  0  0
    4.0780   -8.2450   24.6010 O   0  0  0  0  0  0  0  0  0  0  0  0
    7.9760   -2.5660   22.6720 C   0  0  0  0  0  0  0  0  0  0  0  0
    8.6400   -1.8280   21.6700 C   0  0  0  0  0  0  0  0  0  0  0  0
    7.9500   -0.4650   21.5250 C   0  0  1  0  0  0  0  0  0  0  0  0
    9.0020    0.6130   21.6600 C   0  0  0  0  0  0  0  0  0  0  0  0
    7.2020   -0.2440   20.3500 C   0  0  0  0  0  0  0  0  0  0  0  0
    8.9330    1.7710   21.2380 O   0  0  0  0  0  0  0  0  0  0  0  0
    7.3120   -0.6530   19.0220 C   0  0  0  0  0  0  0  0  0  0  0  0
    6.0260    0.5600   20.3190 C   0  0  0  0  0  0  0  0  0  0  0  0
    6.3760   -0.1870   18.2500 N   0  0  0  0  0  0  0  0  0  0  0  0
    5.5490    0.5760   19.0030 C   0  0  0  0  0  0  0  0  0  0  0  0
    5.3270    1.2690   21.2720 C   0  0  0  0  0  0  0  0  0  0  0  0
    4.1880    1.9630   20.8860 C   0  0  0  0  0  0  0  0  0  0  0  0
    4.4700    1.2150   18.5300 N   0  0  0  0  0  0  0  0  0  0  0  0
    3.8050    1.9000   19.4860 C   0  0  0  0  0  0  0  0  0  0  0  0
  2  1  1  1
  2  3  1  0
  1  4  2  3
  2  5  1  0
  4  6  1  0
  3  7  1  0
  5  8  1  0
  6  9  1  0
  7 10  1  0
  7 11  2  0
  8 12  1  0
  8 13  2  0
  9 14  1  0
 14 15  1  0
 16 15  1  6
 16 17  1  0
 16 18  1  0
 17 19  2  0
 18 20  2  0
 18 21  1  0
 20 22  1  0
 21 23  2  0
 22 23  1  0
 21 24  1  0
 24 25  2  0
 23 26  1  0
 25 27  1  0
 26 27  2  0
M  END
