x1101_0-x1101_1
     RDKit          3D

 15 16  0  0  0  0  0  0  0  0999 V2000
   23.7330   -8.0050    3.6630 N   0  0  0  0  0  0  0  0  0  0  0  0
   23.7220   -7.1880    4.8780 C   0  0  0  0  0  0  0  0  0  0  0  0
   25.0620   -7.2770    5.6060 C   0  0  0  0  0  0  0  0  0  0  0  0
   24.1800   -9.4010    3.7780 C   0  0  0  0  0  0  0  0  0  0  0  0
   23.9390   -7.2500    2.4130 C   0  0  0  0  0  0  0  0  0  0  0  0
   22.5950   -7.6870    5.7540 C   0  0  0  0  0  0  0  0  0  0  0  0
   24.2390   -7.9660    1.1140 C   0  0  0  0  0  0  0  0  0  0  0  0
   23.8820   -5.9120    2.3170 N   0  0  0  0  0  0  0  0  0  0  0  0
   24.4540   -7.3080   -0.1630 C   0  0  0  0  0  0  0  0  0  0  0  0
   24.0820   -5.3360    1.1060 C   0  0  0  0  0  0  0  0  0  0  0  0
   24.4000   -9.4360    0.7450 C   0  0  0  0  0  0  0  0  0  0  0  0
   24.3550   -5.8450   -0.1200 N   0  0  0  0  0  0  0  0  0  0  0  0
   24.7040   -8.2030   -1.1280 N   0  0  0  0  0  0  0  0  0  0  0  0
   24.6780   -9.5140   -0.6120 N   0  0  0  0  0  0  0  0  0  0  0  0
   24.9720   -7.9580   -2.5220 C   0  0  0  0  0  0  0  0  0  0  0  0
  1  2  1  0
  2  3  1  0
  1  4  1  0
  1  5  1  0
  2  6  1  0
  5  7  2  0
  5  8  1  0
  7  9  1  0
  8 10  2  0
  7 11  1  0
  9 12  2  0
 10 12  1  0
  9 13  1  0
 11 14  2  0
 13 14  1  0
 13 15  1  0
M  END
