x1163_1-x0464_1
     RDKit          3D

 18 20  0  0  0  0  0  0  0  0999 V2000
   21.6110   20.3300    3.8720 C   0  0  0  0  0  0  0  0  0  0  0  0
   21.8390   21.1970    4.7100 O   0  0  0  0  0  0  0  0  0  0  0  0
   20.6130   19.1800    4.2070 C   0  0  2  0  0  0  0  0  0  0  0  0
   19.9140   19.6520    5.3890 O   0  0  0  0  0  0  0  0  0  0  0  0
   21.1930   17.8890    4.1940 C   0  0  0  0  0  0  0  0  0  0  0  0
   21.7940   17.4250    5.4790 N   0  0  0  0  0  0  0  0  0  0  0  0
   20.4500   19.1910    6.6340 C   0  0  0  0  0  0  0  0  0  0  0  0
   21.3370   16.0940    5.9240 C   0  0  2  0  0  0  0  0  0  0  0  0
   21.7980   18.5110    6.4670 C   0  0  0  0  0  0  0  0  0  0  0  0
   20.5700   16.4200    7.2160 C   0  0  0  0  0  0  0  0  0  0  0  0
   22.2940   15.1560    6.1770 N   0  0  0  0  0  0  0  0  0  0  0  0
   21.4690   15.8020    8.3040 C   0  0  0  0  0  0  0  0  0  0  0  0
   22.3320   14.0790    5.1840 C   0  0  0  0  0  0  0  0  0  0  0  0
   21.9760   14.5850    7.4840 C   0  0  1  0  0  0  0  0  0  0  0  0
   22.5490   12.7200    5.8250 C   0  0  0  0  0  0  0  0  0  0  0  0
   21.0600   13.5620    7.2630 C   0  0  2  0  0  0  0  0  0  0  0  0
   20.2440   13.2210    8.3850 O   0  0  0  0  0  0  0  0  0  0  0  0
   21.6430   12.4510    6.8290 C   0  0  0  0  0  0  0  0  0  0  0  0
  1  2  1  0
  3  1  1  1
  3  4  1  0
  3  5  1  0
  5  6  1  0
  4  7  1  0
  8  6  1  1
  6  9  1  0
  7  9  1  0
  8 10  1  0
  8 11  1  0
 10 12  1  0
 11 13  1  0
 11 14  1  0
 14 12  1  1
 13 15  1  0
 14 16  1  0
 16 17  1  1
 15 18  1  0
 16 18  1  0
M  END
