x1249_0-x0689_1
     RDKit          3D

 20 21  0  0  0  0  0  0  0  0999 V2000
    6.3280   -4.4920   20.5160 C   0  0  0  0  0  0  0  0  0  0  0  0
    7.3100   -3.4820   19.9170 C   0  0  0  0  0  0  0  0  0  0  0  0
    5.2750   -4.7060   19.9430 O   0  0  0  0  0  0  0  0  0  0  0  0
    6.6350   -5.2110   21.6770 N   0  0  0  0  0  0  0  0  0  0  0  0
    5.6930   -6.2700   22.0370 C   0  0  0  0  0  0  0  0  0  0  0  0
    7.4270   -4.7260   22.8160 C   0  0  0  0  0  0  0  0  0  0  0  0
    4.7670   -5.8380   23.1810 C   0  0  0  0  0  0  0  0  0  0  0  0
    6.4520   -4.1200   23.8510 C   0  0  1  0  0  0  0  0  0  0  0  0
    5.7580   -2.9020   23.2120 C   0  0  0  0  0  0  0  0  0  0  0  0
    5.4500   -5.1060   24.2530 N   0  0  0  0  0  0  0  0  0  0  0  0
    5.8680   -1.5390   23.8870 C   0  0  0  0  0  0  0  0  0  0  0  0
    4.5360   -1.0810   24.5370 C   0  0  0  0  0  0  0  0  0  0  0  0
    4.4370    0.3900   24.8610 C   0  0  2  0  0  0  0  0  0  0  0  0
    3.7820    1.0570   23.7650 O   0  0  0  0  0  0  0  0  0  0  0  0
    5.7050    0.9260   25.0570 C   0  0  0  0  0  0  0  0  0  0  0  0
    6.4530    0.9720   23.9210 N   0  0  0  0  0  0  0  0  0  0  0  0
    4.5960    1.1260   22.5860 C   0  0  0  0  0  0  0  0  0  0  0  0
    7.7910    1.1880   24.0280 C   0  0  0  0  0  0  0  0  0  0  0  0
    5.7350    1.7350   22.8920 C   0  0  0  0  0  0  0  0  0  0  0  0
    8.5100    2.3480   23.6070 O   0  0  0  0  0  0  0  0  0  0  0  0
  1  2  1  0
  1  3  2  0
  1  4  1  0
  4  5  1  0
  4  6  1  0
  5  7  1  0
  6  8  1  0
  8  9  1  6
  7 10  1  0
  8 10  1  0
  9 11  1  0
 11 12  1  0
 13 12  1  6
 13 14  1  0
 13 15  1  0
 15 16  1  0
 14 17  1  0
 16 18  1  0
 16 19  1  0
 17 19  1  0
 18 20  2  0
M  END
