x1308_0-x0831_0-x0769_1-x0769_0
     RDKit          3D

 29 31  0  0  0  0  0  0  0  0999 V2000
    6.3760   -4.4150   20.4030 C   0  0  0  0  0  0  0  0  0  0  0  0
    7.3210   -3.4080   19.7240 C   0  0  0  0  0  0  0  0  0  0  0  0
    5.2730   -4.6040   19.9170 O   0  0  0  0  0  0  0  0  0  0  0  0
    6.7580   -5.1280   21.5230 N   0  0  0  0  0  0  0  0  0  0  0  0
    7.5780   -4.5730   22.5630 C   0  0  0  0  0  0  0  0  0  0  0  0
    5.9150   -6.2370   21.9730 C   0  0  0  0  0  0  0  0  0  0  0  0
    6.7040   -4.0100   23.6880 C   0  0  2  0  0  0  0  0  0  0  0  0
    5.0710   -5.9040   23.2130 C   0  0  0  0  0  0  0  0  0  0  0  0
    7.6830   -3.3510   24.6480 C   0  0  0  0  0  0  0  0  0  0  0  0
    5.8460   -5.1520   24.2650 N   0  0  0  0  0  0  0  0  0  0  0  0
    4.9800   -5.1330   25.7700 S   0  0  0  0  0  0  0  0  0  0  0  0
    8.3820   -2.0910   24.1050 C   0  0  0  0  0  0  0  0  0  0  0  0
    5.8770   -4.8720   26.8580 O   0  0  0  0  0  0  0  0  0  0  0  0
    4.1800   -6.3410   25.7810 O   0  0  0  0  0  0  0  0  0  0  0  0
    9.8640   -2.3560   23.7240 C   0  0  0  0  0  0  0  0  0  0  0  0
    3.8360   -3.7770   25.7910 C   0  0  0  0  0  0  0  0  0  0  0  0
    2.4740   -4.0100   25.5950 C   0  0  0  0  0  0  0  0  0  0  0  0
    4.3190   -2.4840   26.0170 C   0  0  0  0  0  0  0  0  0  0  0  0
   10.6830   -1.0690   23.6420 C   0  0  0  0  0  0  0  0  0  0  0  0
    5.6190   -2.2490   26.2080 F   0  0  0  0  0  0  0  0  0  0  0  0
    1.5980   -2.9320   25.6350 C   0  0  0  0  0  0  0  0  0  0  0  0
    3.4260   -1.4170   26.0520 C   0  0  0  0  0  0  0  0  0  0  0  0
   10.1570    0.0860   24.2430 C   0  0  0  0  0  0  0  0  0  0  0  0
   11.9370   -0.9740   22.9880 C   0  0  0  0  0  0  0  0  0  0  0  0
   12.5940   -2.1290   22.3070 C   0  0  0  0  0  0  0  0  0  0  0  0
    2.0690   -1.6400   25.8630 C   0  0  0  0  0  0  0  0  0  0  0  0
   10.8460    1.2960   24.1920 C   0  0  0  0  0  0  0  0  0  0  0  0
   12.6170    0.2540   22.9580 C   0  0  0  0  0  0  0  0  0  0  0  0
   12.0730    1.3780   23.5510 C   0  0  0  0  0  0  0  0  0  0  0  0
  1  2  1  0
  1  3  2  0
  1  4  1  0
  4  5  1  0
  4  6  1  0
  5  7  1  0
  6  8  1  0
  7  9  1  1
  7 10  1  0
  8 10  1  0
 10 11  1  0
  9 12  1  0
 11 13  2  0
 11 14  2  0
 12 15  1  0
 11 16  1  0
 16 17  2  0
 16 18  1  0
 15 19  1  0
 18 20  1  0
 17 21  1  0
 18 22  2  0
 19 23  2  0
 19 24  1  0
 24 25  1  0
 21 26  2  0
 22 26  1  0
 23 27  1  0
 24 28  2  0
 27 29  2  0
 28 29  1  0
M  END
