x1308_0-x1374_1-x0107_0-x1336_1
     RDKit          3D

 41 44  0  0  0  0  0  0  0  0999 V2000
   10.0090   -0.6220   22.4430 C   0  0  0  0  0  0  0  0  0  0  0  0
    8.9850    0.0840   21.5670 C   0  0  0  0  0  0  0  0  0  0  0  0
    9.2160    1.4770   21.3060 O   0  0  0  0  0  0  0  0  0  0  0  0
    9.9350    0.0070   23.8300 C   0  0  0  0  0  0  0  0  0  0  0  0
    7.8800   -0.7110   21.1010 N   0  0  0  0  0  0  0  0  0  0  0  0
    9.7760   -1.0040   24.9650 C   0  0  0  0  0  0  0  0  0  0  0  0
    8.4750   -0.9110   25.4820 N   0  0  0  0  0  0  0  0  0  0  0  0
    6.9210   -0.1180   20.1720 C   0  0  0  0  0  0  0  0  0  0  0  0
    7.4780   -2.0820   25.2500 S   0  0  1  0  0  0  0  0  0  0  0  0
    5.7840    0.5900   20.6320 C   0  0  0  0  0  0  0  0  0  0  0  0
    7.0960   -0.2240   18.7720 C   0  0  0  0  0  0  0  0  0  0  0  0
    5.4740    0.7690   22.0640 C   0  0  0  0  0  0  0  0  0  0  0  0
    5.9060   -1.8180   25.2190 O   0  0  0  0  0  0  0  0  0  0  0  0
    7.9170   -2.6640   23.6870 C   0  0  0  0  0  0  0  0  0  0  0  0
    4.9980    1.0960   19.5870 C   0  0  0  0  0  0  0  0  0  0  0  0
    6.2840    0.3010   17.7960 N   0  0  0  0  0  0  0  0  0  0  0  0
    7.8330   -3.4130   26.2400 C   0  0  0  0  0  0  0  0  0  0  0  0
    5.1440    1.0190   18.3060 C   0  0  0  0  0  0  0  0  0  0  0  0
    6.9170   -3.6960   27.1760 C   0  0  0  0  0  0  0  0  0  0  0  0
    8.9880   -4.2160   26.1450 C   0  0  0  0  0  0  0  0  0  0  0  0
    6.9750   -3.5690   22.9050 C   0  0  2  0  0  0  0  0  0  0  0  0
   10.1000   -4.0200   25.1540 C   0  0  0  0  0  0  0  0  0  0  0  0
    7.0930   -4.7750   28.0510 C   0  0  0  0  0  0  0  0  0  0  0  0
    9.1840   -5.2920   27.0020 C   0  0  0  0  0  0  0  0  0  0  0  0
    5.7570   -4.1710   23.4710 N   0  0  0  0  0  0  0  0  0  0  0  0
    7.7620   -4.5400   22.3440 C   0  0  0  0  0  0  0  0  0  0  0  0
    6.0250   -5.0270   29.0680 C   0  0  0  0  0  0  0  0  0  0  0  0
    8.2330   -5.5750   27.9600 C   0  0  0  0  0  0  0  0  0  0  0  0
    6.9690   -5.1130   21.2650 N   0  0  0  0  0  0  0  0  0  0  0  0
    5.0960   -4.7870   22.3200 C   0  0  1  0  0  0  0  0  0  0  0  0
    5.7480   -5.2790   24.4580 C   0  0  0  0  0  0  0  0  0  0  0  0
    6.5860   -4.2590   20.2450 C   0  0  0  0  0  0  0  0  0  0  0  0
    5.8750   -5.8210   21.8030 C   0  0  0  0  0  0  0  0  0  0  0  0
    4.7620   -6.2500   23.7660 C   0  0  2  0  0  0  0  0  0  0  0  0
    3.9850   -5.4300   23.0020 C   0  0  0  0  0  0  0  0  0  0  0  0
    7.5900   -3.3270   19.6080 C   0  0  0  0  0  0  0  0  0  0  0  0
    5.4280   -4.3370   19.8510 O   0  0  0  0  0  0  0  0  0  0  0  0
    3.3770   -6.9400   24.6380 S   0  0  0  0  0  0  0  0  0  0  0  0
    2.4020   -7.4630   23.4810 O   0  0  0  0  0  0  0  0  0  0  0  0
    3.8370   -8.2040   25.4380 O   0  0  0  0  0  0  0  0  0  0  0  0
    2.5540   -5.8150   25.7030 C   0  0  0  0  0  0  0  0  0  0  0  0
  1  2  1  0
  2  3  2  0
  1  4  1  0
  2  5  1  0
  4  6  1  0
  6  7  1  0
  5  8  1  0
  7  9  2  0
  8 10  2  0
  8 11  1  0
 10 12  1  0
  9 13  2  0
  9 14  1  6
 10 15  1  0
 11 16  2  0
  9 17  1  0
 15 18  2  0
 16 18  1  0
 17 19  2  0
 17 20  1  0
 21 14  1  1
 20 22  1  0
 19 23  1  0
 20 24  2  0
 21 25  1  0
 21 26  1  0
 23 27  1  0
 23 28  2  0
 24 28  1  0
 26 29  1  0
 25 30  1  0
 25 31  1  0
 29 32  1  0
 29 33  1  0
 30 33  1  1
 31 34  1  0
 30 35  1  0
 34 35  1  0
 32 36  1  0
 32 37  2  0
 34 38  1  1
 38 39  1  0
 38 40  1  0
 38 41  1  0
M  END
