x1308_0-x0692_0-x1336_1
     RDKit          3D

 29 31  0  0  0  0  0  0  0  0999 V2000
    7.3070   -2.1120   25.2460 S   0  0  1  0  0  0  0  0  0  0  0  0
    8.5570   -1.3440   24.8140 N   0  0  0  0  0  0  0  0  0  0  0  0
    9.2380   -1.8930   23.6350 C   0  0  0  0  0  0  0  0  0  0  0  0
    6.3700   -1.2020   25.8810 O   0  0  0  0  0  0  0  0  0  0  0  0
    6.5120   -2.9690   23.9080 C   0  0  0  0  0  0  0  0  0  0  0  0
    7.7700   -3.4610   26.3150 C   0  0  0  0  0  0  0  0  0  0  0  0
    6.7200   -3.8840   27.3440 C   0  0  0  0  0  0  0  0  0  0  0  0
    9.0110   -4.1390   26.2470 C   0  0  0  0  0  0  0  0  0  0  0  0
    6.8790   -4.4570   23.9050 C   0  0  1  0  0  0  0  0  0  0  0  0
   10.1390   -3.8440   25.3020 C   0  0  0  0  0  0  0  0  0  0  0  0
    7.0020   -4.9400   28.1960 C   0  0  0  0  0  0  0  0  0  0  0  0
    9.2100   -5.1930   27.1450 C   0  0  0  0  0  0  0  0  0  0  0  0
    5.6660   -5.2220   24.3320 N   0  0  0  0  0  0  0  0  0  0  0  0
    7.5180   -4.7830   22.7280 C   0  0  0  0  0  0  0  0  0  0  0  0
   10.5400   -1.1910   23.4210 C   0  0  0  0  0  0  0  0  0  0  0  0
    6.0080   -5.3970   29.2140 C   0  0  0  0  0  0  0  0  0  0  0  0
    8.2370   -5.5590   28.0640 C   0  0  0  0  0  0  0  0  0  0  0  0
    6.5680   -5.2600   21.7240 N   0  0  0  0  0  0  0  0  0  0  0  0
    4.8960   -5.8740   23.2500 C   0  0  0  0  0  0  0  0  0  0  0  0
   10.5370    0.2020   23.4410 C   0  0  0  0  0  0  0  0  0  0  0  0
   11.7310   -1.9140   23.2000 C   0  0  0  0  0  0  0  0  0  0  0  0
    6.3100   -4.5320   20.5500 C   0  0  0  0  0  0  0  0  0  0  0  0
    5.8370   -6.3070   22.1080 C   0  0  0  0  0  0  0  0  0  0  0  0
   11.7250    0.8770   23.2310 C   0  0  0  0  0  0  0  0  0  0  0  0
   12.9230   -1.2140   22.9980 C   0  0  0  0  0  0  0  0  0  0  0  0
    7.3240   -3.5000   20.0460 C   0  0  0  0  0  0  0  0  0  0  0  0
    5.2760   -4.7450   19.9520 O   0  0  0  0  0  0  0  0  0  0  0  0
   11.7520    2.3640   23.2240 C   0  0  0  0  0  0  0  0  0  0  0  0
   12.9130    0.1820   23.0130 C   0  0  0  0  0  0  0  0  0  0  0  0
  1  2  2  0
  2  3  1  0
  1  4  2  0
  1  5  1  6
  1  6  1  0
  6  7  2  0
  6  8  1  0
  9  5  1  6
  8 10  1  0
  7 11  1  0
  8 12  2  0
  9 13  1  0
  9 14  1  0
  3 15  1  0
 11 16  1  0
 11 17  2  0
 12 17  1  0
 14 18  1  0
 13 19  1  0
 15 20  2  0
 15 21  1  0
 18 22  1  0
 18 23  1  0
 19 23  1  0
 20 24  1  0
 21 25  2  0
 22 26  1  0
 22 27  2  0
 24 28  1  0
 24 29  2  0
 25 29  1  0
M  END
