x1311_1-x0195_0
     RDKit          3D

 27 29  0  0  0  0  0  0  0  0999 V2000
    9.5210   -0.6720   24.6500 C   0  0  0  0  0  0  0  0  0  0  0  0
    8.9350   -2.0320   24.2370 C   0  0  0  0  0  0  0  0  0  0  0  0
    8.4920   -2.0740   22.7680 C   0  0  0  0  0  0  0  0  0  0  0  0
   10.7710   -0.4240   23.9400 N   0  0  0  0  0  0  0  0  0  0  0  0
   11.2310    0.9390   23.6070 C   0  0  0  0  0  0  0  0  0  0  0  0
   11.5350   -1.6450   23.5800 C   0  0  0  0  0  0  0  0  0  0  0  0
    7.2700   -2.9960   22.7700 C   0  0  0  0  0  0  0  0  0  0  0  0
   12.5150    0.9790   23.1020 C   0  0  0  0  0  0  0  0  0  0  0  0
   12.5580   -1.3460   22.6960 C   0  0  0  0  0  0  0  0  0  0  0  0
   10.4990    2.1520   23.7570 C   0  0  0  0  0  0  0  0  0  0  0  0
    7.6890   -4.2300   23.5500 C   0  0  0  0  0  0  0  0  0  0  0  0
   13.2400   -0.1830   22.9480 C   0  0  0  0  0  0  0  0  0  0  0  0
   13.0650    2.2160   22.7540 C   0  0  0  0  0  0  0  0  0  0  0  0
   11.0630    3.3950   23.3960 C   0  0  0  0  0  0  0  0  0  0  0  0
   10.1730    4.9380   23.5620 S   0  0  0  0  0  0  0  0  0  0  0  0
    6.8840   -5.3760   22.9730 C   0  0  0  0  0  0  0  0  0  0  0  0
   12.3480    3.3800   22.8990 C   0  0  0  0  0  0  0  0  0  0  0  0
    9.9700    5.3260   24.9270 O   0  0  0  0  0  0  0  0  0  0  0  0
    9.0610    4.9230   22.6570 O   0  0  0  0  0  0  0  0  0  0  0  0
   11.2930    6.0370   22.9780 N   0  0  0  0  0  0  0  0  0  0  0  0
    5.3580   -5.2170   23.1000 C   0  0  1  0  0  0  0  0  0  0  0  0
    4.6860   -6.0670   22.2420 C   0  0  0  0  0  0  0  0  0  0  0  0
    4.9370   -5.3110   24.4310 C   0  0  0  0  0  0  0  0  0  0  0  0
    3.6750   -6.8280   22.8110 C   0  0  0  0  0  0  0  0  0  0  0  0
    3.6560   -6.5300   24.4220 S   0  0  0  0  0  0  0  0  0  0  0  0
    4.1460   -7.7920   25.2510 O   0  0  0  0  0  0  0  0  0  0  0  0
    2.4050   -5.9860   24.9400 O   0  0  0  0  0  0  0  0  0  0  0  0
  1  2  1  0
  2  3  1  0
  1  4  1  0
  4  5  1  0
  4  6  1  0
  3  7  1  0
  5  8  2  0
  6  9  1  0
  5 10  1  0
  7 11  1  0
  8 12  1  0
  9 12  1  0
  8 13  1  0
 10 14  2  0
 14 15  1  0
 11 16  1  0
 13 17  2  0
 14 17  1  0
 15 18  2  0
 15 19  2  0
 15 20  1  0
 21 16  1  1
 21 22  1  0
 21 23  1  0
 22 24  2  0
 23 25  1  0
 24 25  1  0
 25 26  1  0
 25 27  1  0
M  END
