x1311_0-x1392_0
     RDKit          3D

 19 21  0  0  0  0  0  0  0  0999 V2000
    5.6530   -4.1320   19.8270 O   0  0  0  0  0  0  0  0  0  0  0  0
    6.6060   -3.3400   19.9950 C   0  0  0  0  0  0  0  0  0  0  0  0
    7.4720   -3.0230   18.7950 C   0  0  0  0  0  0  0  0  0  0  0  0
    6.9530   -2.7400   21.2270 N   0  0  0  0  0  0  0  0  0  0  0  0
    8.1140   -1.8690   21.4980 C   0  0  0  0  0  0  0  0  0  0  0  0
    6.3830   -3.3720   22.4320 C   0  0  0  0  0  0  0  0  0  0  0  0
    9.2850   -2.5760   22.1950 C   0  0  2  0  0  0  0  0  0  0  0  0
    7.4740   -3.8020   23.4420 C   0  0  0  0  0  0  0  0  0  0  0  0
    8.8420   -3.4510   23.3650 C   0  0  0  0  0  0  0  0  0  0  0  0
    7.0640   -4.6810   24.6350 C   0  0  0  0  0  0  0  0  0  0  0  0
   10.3240   -1.5610   22.6560 C   0  0  0  0  0  0  0  0  0  0  0  0
    8.0180   -5.0870   25.5660 C   0  0  0  0  0  0  0  0  0  0  0  0
    9.7630   -3.8930   24.3360 C   0  0  0  0  0  0  0  0  0  0  0  0
   11.6290   -1.5340   22.1170 C   0  0  0  0  0  0  0  0  0  0  0  0
    9.9630   -0.6430   23.6440 C   0  0  0  0  0  0  0  0  0  0  0  0
    9.3460   -4.6910   25.4020 C   0  0  0  0  0  0  0  0  0  0  0  0
   12.5460   -0.5840   22.5790 C   0  0  0  0  0  0  0  0  0  0  0  0
   10.8910    0.2960   24.0920 C   0  0  0  0  0  0  0  0  0  0  0  0
   12.1710    0.3210   23.5580 C   0  0  0  0  0  0  0  0  0  0  0  0
  1  2  2  0
  2  3  1  0
  2  4  1  0
  4  5  1  0
  4  6  1  0
  5  7  1  0
  6  8  1  0
  7  9  1  0
  8  9  2  0
  8 10  1  0
  7 11  1  1
 10 12  2  0
  9 13  1  0
 11 14  2  0
 11 15  1  0
 12 16  1  0
 13 16  2  0
 14 17  1  0
 15 18  2  0
 17 19  2  0
 18 19  1  0
M  END
