x1311_2-x1334_0
     RDKit          3D

 13 13  0  0  0  0  0  0  0  0999 V2000
    6.6380   -4.7100   22.0010 N   0  0  0  0  0  0  0  0  0  0  0  0
    6.7460   -4.2610   20.6810 C   0  0  0  0  0  0  0  0  0  0  0  0
    5.7720   -4.3140   19.8930 O   0  0  0  0  0  0  0  0  0  0  0  0
    7.7010   -4.6240   22.8940 C   0  0  0  0  0  0  0  0  0  0  0  0
    8.1290   -3.6850   20.2830 C   0  0  0  0  0  0  0  0  0  0  0  0
    8.5720   -3.3990   22.7050 C   0  0  0  0  0  0  0  0  0  0  0  0
    9.4640   -3.0860   23.9030 C   0  0  0  0  0  0  0  0  0  0  0  0
    9.1810   -4.0930   25.0200 C   0  0  0  0  0  0  0  0  0  0  0  0
    9.7920   -5.4730   25.2600 C   0  0  0  0  0  0  0  0  0  0  0  0
    8.0280   -3.7830   26.2630 S   0  0  0  0  0  0  0  0  0  0  0  0
    9.2370   -6.0220   26.3800 C   0  0  0  0  0  0  0  0  0  0  0  0
    8.3060   -5.2830   27.0170 C   0  0  0  0  0  0  0  0  0  0  0  0
    7.4540   -5.7870   28.4550 Cl  0  0  0  0  0  0  0  0  0  0  0  0
  1  2  1  0
  2  3  2  0
  1  4  1  0
  2  5  1  0
  4  6  1  0
  6  7  1  0
  7  8  1  0
  8  9  2  0
  8 10  1  0
  9 11  1  0
 10 12  1  0
 11 12  2  0
 12 13  1  0
M  END
