x1334_1-x0426_1-x0692_1-x0397_0-x0770_1-x1334_0-x0434_2-x0831_0-x1374_1-x1418_1-x1412_1-x1385_1
     RDKit          3D

 45 51  0  0  0  0  0  0  0  0999 V2000
    2.0680   -7.0840   23.2770 O   0  0  0  0  0  0  0  0  0  0  0  0
    2.4130   -7.3760   24.6100 C   0  0  0  0  0  0  0  0  0  0  0  0
    3.7350   -7.8770   24.6320 O   0  0  0  0  0  0  0  0  0  0  0  0
    4.7170   -6.9320   24.2360 C   0  0  0  0  0  0  0  0  0  0  0  0
    4.2600   -5.9350   23.5230 C   0  0  0  0  0  0  0  0  0  0  0  0
    5.4980   -5.3260   22.9320 C   0  0  2  0  0  0  0  0  0  0  0  0
    5.4670   -4.3880   22.1590 C   0  0  2  0  0  0  0  0  0  0  0  0
    5.9880   -5.8050   21.6630 C   0  0  0  0  0  0  0  0  0  0  0  0
    6.3760   -3.1930   22.3780 C   0  0  2  0  0  0  0  0  0  0  0  0
    6.6890   -2.5980   21.0680 N   0  0  0  0  0  0  0  0  0  0  0  0
    7.5510   -3.6080   22.9230 C   0  0  0  0  0  0  0  0  0  0  0  0
    6.4000   -3.2870   19.8860 C   0  0  0  0  0  0  0  0  0  0  0  0
    8.5330   -2.5730   23.2960 N   0  0  0  0  0  0  0  0  0  0  0  0
    7.8910   -1.7790   20.9170 C   0  0  1  0  0  0  0  0  0  0  0  0
    7.3150   -3.0320   18.6950 C   0  0  0  0  0  0  0  0  0  0  0  0
    5.4760   -4.1100   19.7350 O   0  0  0  0  0  0  0  0  0  0  0  0
    9.6230   -3.3120   23.9400 C   0  0  1  0  0  0  0  0  0  0  0  0
    7.5280   -0.3780   20.9720 N   0  0  0  0  0  0  0  0  0  0  0  0
    8.9710   -1.8900   22.0510 C   0  0  0  0  0  0  0  0  0  0  0  0
   10.9260   -2.5960   24.3270 C   0  0  0  0  0  0  0  0  0  0  0  0
    7.2030    0.3170   22.2710 C   0  0  0  0  0  0  0  0  0  0  0  0
    6.6430    0.1840   19.9870 C   0  0  0  0  0  0  0  0  0  0  0  0
    9.1370   -4.1490   25.1150 C   0  0  0  0  0  0  0  0  0  0  0  0
    5.6980    0.4390   22.1830 C   0  0  2  0  0  0  0  0  0  0  0  0
    6.7260    0.3050   18.4920 N   0  0  0  0  0  0  0  0  0  0  0  0
    5.5600    0.6780   20.6930 C   0  0  0  0  0  0  0  0  0  0  0  0
    9.7720   -5.4510   25.4180 C   0  0  0  0  0  0  0  0  0  0  0  0
    7.8790   -3.7820   26.2350 S   0  0  0  0  0  0  0  0  0  0  0  0
   11.1370   -1.1550   24.0540 C   0  0  0  0  0  0  0  0  0  0  0  0
    4.9940    1.5640   22.8690 C   0  0  0  0  0  0  0  0  0  0  0  0
    4.3940    1.3830   20.0620 C   0  0  0  0  0  0  0  0  0  0  0  0
    5.6450    0.9590   17.9660 C   0  0  0  0  0  0  0  0  0  0  0  0
    9.2930   -6.1030   26.4640 C   0  0  0  0  0  0  0  0  0  0  0  0
    8.1780   -5.3290   27.1080 C   0  0  0  0  0  0  0  0  0  0  0  0
   10.3460    0.0200   24.5870 C   0  0  0  0  0  0  0  0  0  0  0  0
   12.3120   -0.7640   23.1290 C   0  0  0  0  0  0  0  0  0  0  0  0
    3.5330    1.7270   22.4390 C   0  0  2  0  0  0  0  0  0  0  0  0
    3.2790    1.8820   20.9240 C   0  0  0  0  0  0  0  0  0  0  0  0
    7.2490   -5.7580   28.4760 Cl  0  0  0  0  0  0  0  0  0  0  0  0
   13.1760   -1.8020   22.5000 C   0  0  0  0  0  0  0  0  0  0  0  0
    4.5810    1.4510   18.6890 C   0  0  0  0  0  0  0  0  0  0  0  0
   10.6780    1.3560   24.2600 C   0  0  0  0  0  0  0  0  0  0  0  0
   12.6060    0.5440   22.8520 C   0  0  0  0  0  0  0  0  0  0  0  0
    2.9740    2.8250   23.2020 N   0  0  0  0  0  0  0  0  0  0  0  0
   11.7520    1.6780   23.4400 C   0  0  0  0  0  0  0  0  0  0  0  0
  1  2  1  0
  2  3  1  0
  3  4  1  0
  4  5  1  0
  6  5  1  6
  6  7  1  0
  6  8  1  0
  7  8  1  6
  7  9  1  0
  9 10  1  0
  9 11  1  6
 10 12  1  0
 11 13  1  0
 10 14  1  0
 12 15  1  0
 12 16  2  0
 13 17  1  0
 14 18  1  1
 13 19  1  0
 14 19  1  0
 17 20  1  1
 18 21  1  0
 18 22  1  0
 17 23  1  0
 24 21  1  1
 22 25  2  0
 22 26  1  0
 24 26  1  0
 23 27  2  0
 23 28  1  0
 20 29  1  0
 24 30  1  0
 26 31  2  0
 25 32  1  0
 27 33  1  0
 28 34  1  0
 33 34  2  0
 29 35  2  0
 29 36  1  0
 30 37  1  0
 31 38  1  0
 37 38  1  0
 34 39  1  0
 36 40  1  0
 31 41  1  0
 32 41  2  0
 35 42  1  0
 36 43  2  0
 37 44  1  1
 42 45  2  0
 43 45  1  0
M  END
