x1334_0-x0981_1-x0434_1-x1412_1
     RDKit          3D

 37 39  0  0  0  0  0  0  0  0999 V2000
    4.0300   -5.3470   23.2610 C   0  0  0  0  0  0  0  0  0  0  0  0
    2.7030   -6.0380   23.5810 C   0  0  1  0  0  0  0  0  0  0  0  0
    2.5370   -7.2580   22.7710 N   0  0  0  0  0  0  0  0  0  0  0  0
    4.1750   -4.1290   23.6880 N   0  0  0  0  0  0  0  0  0  0  0  0
    2.5640   -6.3670   25.0590 C   0  0  0  0  0  0  0  0  0  0  0  0
    5.4090   -3.3580   23.4330 C   0  0  0  0  0  0  0  0  0  0  0  0
    1.3410   -7.4720   22.1170 C   0  0  0  0  0  0  0  0  0  0  0  0
    3.0370   -7.7640   25.2920 C   0  0  0  0  0  0  0  0  0  0  0  0
    6.3330   -4.0100   22.3830 C   0  0  1  0  0  0  0  0  0  0  0  0
    1.2280   -8.7560   21.3320 C   0  0  0  0  0  0  0  0  0  0  0  0
    0.4250   -6.6570   22.1530 O   0  0  0  0  0  0  0  0  0  0  0  0
    2.4140   -8.4700   26.2750 N   0  0  0  0  0  0  0  0  0  0  0  0
    3.9380   -8.2130   24.6190 O   0  0  0  0  0  0  0  0  0  0  0  0
    6.4420   -3.1160   21.2280 N   0  0  0  0  0  0  0  0  0  0  0  0
    7.7550   -4.1000   23.0150 C   0  0  0  0  0  0  0  0  0  0  0  0
    6.2420   -3.5660   19.9750 C   0  0  0  0  0  0  0  0  0  0  0  0
    8.2790   -2.7010   23.2240 N   0  0  0  0  0  0  0  0  0  0  0  0
    7.0240   -1.8430   21.5000 C   0  0  0  0  0  0  0  0  0  0  0  0
    7.2650   -3.1230   18.9230 C   0  0  0  0  0  0  0  0  0  0  0  0
    5.2950   -4.2980   19.7510 O   0  0  0  0  0  0  0  0  0  0  0  0
    9.5500   -2.8490   24.0160 C   0  0  0  0  0  0  0  0  0  0  0  0
    8.3690   -2.0190   21.8540 C   0  0  1  0  0  0  0  0  0  0  0  0
    8.6560   -0.5060   21.7390 C   0  0  0  0  0  0  0  0  0  0  0  0
    9.3040   -3.9270   25.0610 C   0  0  0  0  0  0  0  0  0  0  0  0
    9.7460    0.0770   21.7820 O   0  0  0  0  0  0  0  0  0  0  0  0
    7.5210    0.2340   21.5230 N   0  0  0  0  0  0  0  0  0  0  0  0
    9.9020   -5.1230   25.2540 C   0  0  0  0  0  0  0  0  0  0  0  0
    7.9840   -3.7110   26.3390 S   0  0  0  0  0  0  0  0  0  0  0  0
    6.7210    0.5170   20.2840 C   0  0  0  0  0  0  0  0  0  0  0  0
    9.3940   -5.8340   26.3090 C   0  0  0  0  0  0  0  0  0  0  0  0
    8.3680   -5.2290   26.9960 C   0  0  0  0  0  0  0  0  0  0  0  0
    7.4920   -5.8130   28.3500 Cl  0  0  0  0  0  0  0  0  0  0  0  0
    7.0430    0.0200   19.0340 C   0  0  0  0  0  0  0  0  0  0  0  0
    5.5910    1.3250   20.3790 C   0  0  0  0  0  0  0  0  0  0  0  0
    6.3300    0.2890   17.9070 N   0  0  0  0  0  0  0  0  0  0  0  0
    4.8450    1.6090   19.2420 C   0  0  0  0  0  0  0  0  0  0  0  0
    5.2490    1.0770   18.0320 C   0  0  0  0  0  0  0  0  0  0  0  0
  2  1  1  1
  2  3  1  0
  1  4  2  3
  2  5  1  0
  4  6  1  0
  3  7  1  0
  5  8  1  0
  9  6  1  1
  7 10  1  0
  7 11  2  0
  8 12  1  0
  8 13  2  0
  9 14  1  0
  9 15  1  0
 14 16  1  0
 15 17  1  0
 14 18  1  0
 16 19  1  0
 16 20  2  0
 17 21  1  0
 17 22  1  0
 18 22  1  0
 22 23  1  1
 21 24  1  0
 23 25  2  0
 23 26  1  0
 24 27  2  0
 24 28  1  0
 26 29  1  0
 27 30  1  0
 28 31  1  0
 30 31  2  0
 31 32  1  0
 29 33  2  0
 29 34  1  0
 33 35  1  0
 34 36  2  0
 35 37  2  0
 36 37  1  0
M  END
