x1334_0-x0692_1-x1386_1-x1374_1-x1412_1-x0397_0-x0831_0-x0770_1-x1375_1
     RDKit          3D

 32 35  0  0  0  0  0  0  0  0999 V2000
    2.0060   -7.0680   23.8800 O   0  0  0  0  0  0  0  0  0  0  0  0
    2.4650   -7.9760   24.8600 C   0  0  0  0  0  0  0  0  0  0  0  0
    3.8760   -8.0270   24.8370 O   0  0  0  0  0  0  0  0  0  0  0  0
    4.4320   -7.2320   23.8020 C   0  0  0  0  0  0  0  0  0  0  0  0
    4.8940   -5.9140   24.2550 C   0  0  0  0  0  0  0  0  0  0  0  0
    5.8040   -5.3230   23.2210 C   0  0  2  0  0  0  0  0  0  0  0  0
    5.1800   -4.3560   22.3300 C   0  0  2  0  0  0  0  0  0  0  0  0
    5.9810   -5.7920   22.0080 C   0  0  0  0  0  0  0  0  0  0  0  0
    5.9460   -3.0130   22.3270 C   0  0  2  0  0  0  0  0  0  0  0  0
    6.2220   -2.4810   21.0010 N   0  0  0  0  0  0  0  0  0  0  0  0
    7.2630   -3.3880   23.0240 C   0  0  0  0  0  0  0  0  0  0  0  0
    6.1920   -3.2350   19.8500 C   0  0  0  0  0  0  0  0  0  0  0  0
    8.0050   -2.1920   23.2770 N   0  0  0  0  0  0  0  0  0  0  0  0
    7.1810   -1.3510   21.0250 C   0  0  0  0  0  0  0  0  0  0  0  0
    5.3640   -4.1410   19.7130 O   0  0  0  0  0  0  0  0  0  0  0  0
    7.2130   -2.9760   18.7570 C   0  0  0  0  0  0  0  0  0  0  0  0
    9.1030   -2.4670   24.1530 C   0  0  2  0  0  0  0  0  0  0  0  0
    8.4140   -1.6260   21.9530 C   0  0  0  0  0  0  0  0  0  0  0  0
   10.2980   -2.5580   23.2490 C   0  0  0  0  0  0  0  0  0  0  0  0
    8.9330   -3.6560   25.1400 C   0  0  0  0  0  0  0  0  0  0  0  0
    9.7390   -4.9630   25.1500 C   0  0  0  0  0  0  0  0  0  0  0  0
    7.7530   -3.6510   26.4440 S   0  0  0  0  0  0  0  0  0  0  0  0
   10.9560   -1.1730   23.3080 C   0  0  0  0  0  0  0  0  0  0  0  0
    9.3470   -5.8120   26.1700 C   0  0  0  0  0  0  0  0  0  0  0  0
    8.2900   -5.2690   26.9670 C   0  0  0  0  0  0  0  0  0  0  0  0
   10.2080   -0.0700   24.0770 C   0  0  0  0  0  0  0  0  0  0  0  0
   12.3230   -0.8370   22.6600 C   0  0  0  0  0  0  0  0  0  0  0  0
    7.5090   -5.9660   28.3180 Cl  0  0  0  0  0  0  0  0  0  0  0  0
   13.0680   -1.8800   21.8940 C   0  0  0  0  0  0  0  0  0  0  0  0
   10.9200    1.2780   24.1140 C   0  0  0  0  0  0  0  0  0  0  0  0
   12.8660    0.4470   22.7870 C   0  0  0  0  0  0  0  0  0  0  0  0
   12.2360    1.4120   23.4400 C   0  0  0  0  0  0  0  0  0  0  0  0
  1  2  1  0
  2  3  1  0
  3  4  1  0
  4  5  1  0
  6  5  1  1
  6  7  1  0
  6  8  1  0
  7  8  1  6
  7  9  1  0
  9 10  1  0
  9 11  1  6
 10 12  1  0
 11 13  1  0
 10 14  1  0
 12 15  2  0
 12 16  1  0
 13 17  1  0
 13 18  1  0
 14 18  1  0
 17 19  1  6
 17 20  1  0
 20 21  2  0
 20 22  1  0
 19 23  1  0
 21 24  1  0
 22 25  1  0
 24 25  2  0
 23 26  2  0
 23 27  1  0
 25 28  1  0
 27 29  1  0
 26 30  1  0
 27 31  2  0
 30 32  2  0
 31 32  1  0
M  END
