x1334_1-x0540_3-x1412_1-x1385_1-x0397_0-x1386_1-x0770_1-x0434_2-x1374_1-x0831_0-x1418_1-x1334_0-x0692_1-x0831_1
     RDKit          3D

 45 50  0  0  0  0  0  0  0  0999 V2000
    2.0510   -6.5370   23.9850 O   0  0  0  0  0  0  0  0  0  0  0  0
    2.9680   -7.5150   23.5500 C   0  0  0  0  0  0  0  0  0  0  0  0
    3.9100   -7.8740   24.5520 O   0  0  0  0  0  0  0  0  0  0  0  0
    5.2190   -7.3780   24.2830 C   0  0  0  0  0  0  0  0  0  0  0  0
    5.1820   -6.0140   24.2210 C   0  0  0  0  0  0  0  0  0  0  0  0
    6.1650   -5.6150   23.1660 C   0  0  2  0  0  0  0  0  0  0  0  0
    5.8960   -4.5820   22.4370 C   0  0  2  0  0  0  0  0  0  0  0  0
    5.9990   -6.1540   21.9770 C   0  0  0  0  0  0  0  0  0  0  0  0
    7.0040   -3.6370   22.1440 C   0  0  1  0  0  0  0  0  0  0  0  0
    6.4730   -2.7890   21.2200 N   0  0  0  0  0  0  0  0  0  0  0  0
    7.4910   -3.0060   23.3120 C   0  0  0  0  0  0  0  0  0  0  0  0
    6.2440   -3.3480   19.9410 C   0  0  0  0  0  0  0  0  0  0  0  0
    8.5070   -1.9440   23.0330 N   0  0  0  0  0  0  0  0  0  0  0  0
    7.1530   -1.5220   21.1210 C   0  0  1  0  0  0  0  0  0  0  0  0
    7.2780   -3.0400   18.8460 C   0  0  0  0  0  0  0  0  0  0  0  0
    5.2970   -4.0980   19.6920 O   0  0  0  0  0  0  0  0  0  0  0  0
    6.6940   -0.3110   21.9250 C   0  0  2  0  0  0  0  0  0  0  0  0
    9.7990   -2.2470   23.2930 C   0  0  2  0  0  0  0  0  0  0  0  0
    8.5480   -1.7760   21.5900 C   0  0  0  0  0  0  0  0  0  0  0  0
    5.2800    0.3050   21.8030 C   0  0  1  0  0  0  0  0  0  0  0  0
   10.1380   -3.6140   23.7390 C   0  0  0  0  0  0  0  0  0  0  0  0
    7.5250    0.5730   21.0740 N   0  0  0  0  0  0  0  0  0  0  0  0
   10.6210   -0.9670   23.4190 C   0  0  0  0  0  0  0  0  0  0  0  0
    5.1900    1.5750   22.6320 C   0  0  0  0  0  0  0  0  0  0  0  0
   10.1390    0.0950   24.0540 C   0  0  0  0  0  0  0  0  0  0  0  0
   12.0040   -0.9110   22.7670 C   0  0  0  0  0  0  0  0  0  0  0  0
    9.4910   -4.1860   24.9870 C   0  0  0  0  0  0  0  0  0  0  0  0
    6.6920    0.6180   19.9410 C   0  0  0  0  0  0  0  0  0  0  0  0
    5.3980    0.4960   20.3310 C   0  0  0  0  0  0  0  0  0  0  0  0
    3.9360    2.3330   22.4670 N   0  0  0  0  0  0  0  0  0  0  0  0
   12.6380   -2.0400   22.0260 C   0  0  0  0  0  0  0  0  0  0  0  0
   10.8760    1.4100   24.1690 C   0  0  0  0  0  0  0  0  0  0  0  0
   12.7850    0.4000   22.8720 C   0  0  0  0  0  0  0  0  0  0  0  0
    9.8960   -5.3400   25.5530 C   0  0  0  0  0  0  0  0  0  0  0  0
    8.1550   -3.5910   25.9760 S   0  0  0  0  0  0  0  0  0  0  0  0
    6.9540    0.7550   18.5830 C   0  0  0  0  0  0  0  0  0  0  0  0
    4.4440    0.5420   19.3920 C   0  0  0  0  0  0  0  0  0  0  0  0
    2.8880    2.2770   23.4960 C   0  0  0  0  0  0  0  0  0  0  0  0
   12.1600    1.5480   23.5850 C   0  0  0  0  0  0  0  0  0  0  0  0
    9.2900   -5.7630   26.6470 C   0  0  0  0  0  0  0  0  0  0  0  0
    8.2450   -4.9260   27.0800 C   0  0  0  0  0  0  0  0  0  0  0  0
    6.0240    0.7900   17.6460 N   0  0  0  0  0  0  0  0  0  0  0  0
    4.7860    0.6860   18.0860 C   0  0  0  0  0  0  0  0  0  0  0  0
    2.8640    1.5100   24.4550 O   0  0  0  0  0  0  0  0  0  0  0  0
    7.2210   -5.1360   28.4400 Cl  0  0  0  0  0  0  0  0  0  0  0  0
  1  2  1  0
  2  3  1  0
  3  4  1  0
  4  5  1  0
  6  5  1  1
  6  7  1  0
  6  8  1  0
  7  8  1  6
  7  9  1  0
  9 10  1  0
  9 11  1  1
 10 12  1  0
 11 13  1  0
 10 14  1  0
 12 15  1  0
 12 16  2  0
 14 17  1  0
 13 18  1  0
 13 19  1  0
 14 19  1  1
 17 20  1  0
 18 21  1  1
 17 22  1  6
 18 23  1  0
 20 24  1  1
 23 25  2  0
 23 26  1  0
 21 27  1  0
 22 28  1  0
 20 29  1  0
 28 29  2  0
 24 30  1  0
 26 31  1  0
 25 32  1  0
 26 33  2  0
 27 34  2  0
 27 35  1  0
 28 36  1  0
 29 37  1  0
 30 38  1  0
 32 39  2  0
 33 39  1  0
 34 40  1  0
 35 41  1  0
 40 41  2  0
 36 42  2  0
 37 43  2  0
 42 43  1  0
 38 44  2  0
 41 45  1  0
M  END
