x1334_0-x0831_0-x0769_1
     RDKit          3D

 26 28  0  0  0  0  0  0  0  0999 V2000
    4.7630   -5.4090   25.9080 S   0  0  1  0  0  0  0  0  0  0  0  0
    5.8600   -5.0830   26.9470 N   0  0  0  0  0  0  0  0  0  0  0  0
    6.2190   -5.9680   27.9740 C   0  0  0  0  0  0  0  0  0  0  0  0
    3.9060   -6.5780   25.9590 O   0  0  0  0  0  0  0  0  0  0  0  0
    3.7140   -4.0040   25.9400 C   0  0  0  0  0  0  0  0  0  0  0  0
    2.1880   -4.0270   25.8440 C   0  0  0  0  0  0  0  0  0  0  0  0
    4.2670   -2.5660   26.0790 C   0  0  0  0  0  0  0  0  0  0  0  0
    5.5880   -2.3760   26.1730 F   0  0  0  0  0  0  0  0  0  0  0  0
    7.7270   -5.8280   28.2250 C   0  0  0  0  0  0  0  0  0  0  0  0
    1.3920   -2.8930   25.8850 C   0  0  0  0  0  0  0  0  0  0  0  0
    3.4440   -1.4360   26.1190 C   0  0  0  0  0  0  0  0  0  0  0  0
    1.9120   -1.6240   26.0160 C   0  0  0  0  0  0  0  0  0  0  0  0
    8.3990   -5.3310   26.9840 C   0  0  0  0  0  0  0  0  0  0  0  0
    9.4290   -5.8960   26.2390 C   0  0  0  0  0  0  0  0  0  0  0  0
    7.8880   -3.8480   26.2890 S   0  0  0  0  0  0  0  0  0  0  0  0
    9.0050   -3.9630   25.0070 C   0  0  0  0  0  0  0  0  0  0  0  0
    9.7250   -5.1300   25.1870 C   0  0  0  0  0  0  0  0  0  0  0  0
    9.0350   -2.8740   23.9610 C   0  0  0  0  0  0  0  0  0  0  0  0
   10.3450   -2.6590   23.2190 C   0  0  0  0  0  0  0  0  0  0  0  0
   10.9060   -1.2500   23.3230 C   0  0  0  0  0  0  0  0  0  0  0  0
   10.1980   -0.1620   24.0660 C   0  0  0  0  0  0  0  0  0  0  0  0
   12.1280   -0.9030   22.7300 C   0  0  0  0  0  0  0  0  0  0  0  0
   12.9350   -1.8860   21.9510 C   0  0  0  0  0  0  0  0  0  0  0  0
   10.6300    1.1810   24.2310 C   0  0  0  0  0  0  0  0  0  0  0  0
   12.6850    0.5190   22.8610 C   0  0  0  0  0  0  0  0  0  0  0  0
   11.8610    1.5070   23.6290 C   0  0  0  0  0  0  0  0  0  0  0  0
  1  2  2  0
  2  3  1  0
  1  4  2  0
  1  5  1  1
  5  6  2  0
  5  7  1  0
  7  8  1  0
  3  9  1  0
  6 10  1  0
  7 11  2  0
 10 12  2  0
 11 12  1  0
  9 13  1  0
 13 14  2  0
 13 15  1  0
 15 16  1  0
 14 17  1  0
 16 17  2  0
 16 18  1  0
 18 19  1  0
 19 20  1  0
 20 21  2  0
 20 22  1  0
 22 23  1  0
 21 24  1  0
 22 25  2  0
 24 26  2  0
 25 26  1  0
M  END
