x1334_1-x1418_1-x0831_1-x0426_1-x1374_1-x1385_1-x0770_1-x0692_1-x1386_1-x1412_1-x0434_2-x1334_0-x0831_0-x0397_0-x1375_1
     RDKit          3D

 45 51  0  0  0  0  0  0  0  0999 V2000
    1.8170   -6.8800   24.1970 O   0  0  0  0  0  0  0  0  0  0  0  0
    2.8640   -7.6060   23.5960 C   0  0  0  0  0  0  0  0  0  0  0  0
    3.8920   -7.8890   24.5380 O   0  0  0  0  0  0  0  0  0  0  0  0
    4.1760   -6.7500   25.3450 C   0  0  0  0  0  0  0  0  0  0  0  0
    4.4040   -5.4990   24.4730 C   0  0  0  0  0  0  0  0  0  0  0  0
    5.5450   -5.6140   23.5010 C   0  0  2  0  0  0  0  0  0  0  0  0
    5.5210   -4.6850   22.2910 C   0  0  2  0  0  0  0  0  0  0  0  0
    5.4670   -6.3480   22.1970 C   0  0  0  0  0  0  0  0  0  0  0  0
    6.7770   -3.9290   21.9630 C   0  0  1  0  0  0  0  0  0  0  0  0
    6.5880   -2.7870   21.0670 N   0  0  0  0  0  0  0  0  0  0  0  0
    7.3860   -3.4640   23.2610 C   0  0  0  0  0  0  0  0  0  0  0  0
    6.3290   -3.1950   19.7870 C   0  0  0  0  0  0  0  0  0  0  0  0
    8.7560   -3.0710   23.0490 N   0  0  0  0  0  0  0  0  0  0  0  0
    7.4800   -1.6870   21.5050 C   0  0  2  0  0  0  0  0  0  0  0  0
    7.3280   -2.9500   18.6830 C   0  0  0  0  0  0  0  0  0  0  0  0
    5.3060   -3.8410   19.5130 O   0  0  0  0  0  0  0  0  0  0  0  0
    9.3430   -2.7480   24.1930 C   0  0  2  0  0  0  0  0  0  0  0  0
    7.7040   -0.4750   20.6600 N   0  0  0  0  0  0  0  0  0  0  0  0
    8.9090   -2.1790   21.9050 C   0  0  0  0  0  0  0  0  0  0  0  0
   10.8140   -2.4570   23.9630 C   0  0  0  0  0  0  0  0  0  0  0  0
    7.7570    0.6850   21.5400 C   0  0  0  0  0  0  0  0  0  0  0  0
    6.7180    0.0540   19.7390 C   0  0  0  0  0  0  0  0  0  0  0  0
    9.0490   -3.8340   25.2700 C   0  0  0  0  0  0  0  0  0  0  0  0
    6.2660    0.6890   21.9750 C   0  0  2  0  0  0  0  0  0  0  0  0
    6.4940    0.0400   18.3800 N   0  0  0  0  0  0  0  0  0  0  0  0
    5.8080    0.7590   20.5480 C   0  0  0  0  0  0  0  0  0  0  0  0
    9.8790   -5.1340   25.3650 C   0  0  0  0  0  0  0  0  0  0  0  0
    7.8270   -3.8810   26.5030 S   0  0  0  0  0  0  0  0  0  0  0  0
   11.1880   -1.0030   23.7690 C   0  0  0  0  0  0  0  0  0  0  0  0
    5.6130    1.8240   22.7800 C   0  0  0  0  0  0  0  0  0  0  0  0
    4.5930    1.4950   20.1380 C   0  0  0  0  0  0  0  0  0  0  0  0
    5.3950    0.7190   17.9190 C   0  0  0  0  0  0  0  0  0  0  0  0
    9.3690   -5.9720   26.4650 C   0  0  0  0  0  0  0  0  0  0  0  0
    8.2280   -5.3910   27.1840 C   0  0  0  0  0  0  0  0  0  0  0  0
   10.4410    0.0720   24.1250 C   0  0  0  0  0  0  0  0  0  0  0  0
   12.4360   -0.7920   23.1620 C   0  0  0  0  0  0  0  0  0  0  0  0
    4.1010    1.8400   22.5880 C   0  0  2  0  0  0  0  0  0  0  0  0
    3.7240    2.1780   21.1430 C   0  0  0  0  0  0  0  0  0  0  0  0
    7.3210   -5.9880   28.5020 Cl  0  0  0  0  0  0  0  0  0  0  0  0
   13.2560   -1.9510   22.7320 C   0  0  0  0  0  0  0  0  0  0  0  0
    4.4620    1.4140   18.6400 C   0  0  0  0  0  0  0  0  0  0  0  0
   11.0160    1.4130   23.8700 C   0  0  0  0  0  0  0  0  0  0  0  0
   12.9500    0.4630   22.9350 C   0  0  0  0  0  0  0  0  0  0  0  0
    3.4440    2.7640   23.4820 N   0  0  0  0  0  0  0  0  0  0  0  0
   12.2660    1.5810   23.2800 C   0  0  0  0  0  0  0  0  0  0  0  0
  1  2  1  0
  2  3  1  0
  3  4  1  0
  4  5  1  0
  6  5  1  1
  6  7  1  0
  6  8  1  0
  7  8  1  6
  7  9  1  0
  9 10  1  0
  9 11  1  1
 10 12  1  0
 11 13  1  0
 10 14  1  0
 12 15  1  0
 12 16  2  0
 13 17  1  0
 14 18  1  6
 13 19  1  0
 14 19  1  0
 17 20  1  6
 18 21  1  0
 18 22  1  0
 17 23  1  0
 24 21  1  6
 22 25  2  0
 22 26  1  0
 24 26  1  0
 23 27  2  0
 23 28  1  0
 20 29  1  0
 24 30  1  0
 26 31  2  0
 25 32  1  0
 27 33  1  0
 28 34  1  0
 33 34  2  0
 29 35  2  0
 29 36  1  0
 30 37  1  0
 31 38  1  0
 37 38  1  0
 34 39  1  0
 36 40  1  0
 31 41  1  0
 32 41  2  0
 35 42  1  0
 36 43  2  0
 37 44  1  1
 42 45  2  0
 43 45  1  0
M  END
