x1334_0-x1375_1-x1334_1-x0397_0-x1386_1-x1418_1-x1412_1-x0770_1-x0426_1-x0692_1-x0831_0-x0434_2-x1385_1-x0831_1
     RDKit          3D

 44 50  0  0  0  0  0  0  0  0999 V2000
    2.7500   -7.6240   23.9200 O   0  0  0  0  0  0  0  0  0  0  0  0
    3.4320   -7.1640   25.0800 C   0  0  0  0  0  0  0  0  0  0  0  0
    4.6390   -6.5150   24.7270 O   0  0  0  0  0  0  0  0  0  0  0  0
    4.9790   -6.7350   23.3730 C   0  0  0  0  0  0  0  0  0  0  0  0
    5.9910   -5.7700   22.8570 C   0  0  2  0  0  0  0  0  0  0  0  0
    5.6230   -4.5620   22.1950 C   0  0  2  0  0  0  0  0  0  0  0  0
    6.3170   -5.9600   21.6070 C   0  0  0  0  0  0  0  0  0  0  0  0
    6.4220   -3.3010   22.4250 C   0  0  2  0  0  0  0  0  0  0  0  0
    6.6870   -2.6840   21.1030 N   0  0  0  0  0  0  0  0  0  0  0  0
    7.6350   -3.6030   23.0780 C   0  0  0  0  0  0  0  0  0  0  0  0
    6.3940   -3.3460   19.8830 C   0  0  0  0  0  0  0  0  0  0  0  0
    8.6440   -2.5700   23.2930 N   0  0  0  0  0  0  0  0  0  0  0  0
    7.8820   -1.7870   20.9350 C   0  0  1  0  0  0  0  0  0  0  0  0
    7.3570   -3.0520   18.7380 C   0  0  0  0  0  0  0  0  0  0  0  0
    5.4500   -4.1370   19.7390 O   0  0  0  0  0  0  0  0  0  0  0  0
    9.7080   -3.1920   23.9560 C   0  0  1  0  0  0  0  0  0  0  0  0
    7.5260   -0.3800   20.9650 N   0  0  0  0  0  0  0  0  0  0  0  0
    9.0450   -2.0970   21.9310 C   0  0  0  0  0  0  0  0  0  0  0  0
   10.6830   -2.2970   24.7640 C   0  0  0  0  0  0  0  0  0  0  0  0
    7.2640    0.3330   22.2260 C   0  0  0  0  0  0  0  0  0  0  0  0
    6.6680    0.1470   20.0200 C   0  0  0  0  0  0  0  0  0  0  0  0
    9.2500   -4.1470   25.0710 C   0  0  0  0  0  0  0  0  0  0  0  0
    5.7430    0.4990   22.2080 C   0  0  2  0  0  0  0  0  0  0  0  0
    6.7270    0.2180   18.6270 N   0  0  0  0  0  0  0  0  0  0  0  0
    5.5630    0.7020   20.7310 C   0  0  0  0  0  0  0  0  0  0  0  0
    9.7910   -5.3860   25.3220 C   0  0  0  0  0  0  0  0  0  0  0  0
    7.9320   -3.8000   26.2910 S   0  0  0  0  0  0  0  0  0  0  0  0
   11.1100   -0.9810   24.2500 C   0  0  0  0  0  0  0  0  0  0  0  0
    5.0310    1.6410   22.8950 C   0  0  0  0  0  0  0  0  0  0  0  0
    4.4950    1.3420   20.1630 C   0  0  0  0  0  0  0  0  0  0  0  0
    5.7100    0.8470   17.9900 C   0  0  0  0  0  0  0  0  0  0  0  0
    9.2420   -6.0400   26.3890 C   0  0  0  0  0  0  0  0  0  0  0  0
    8.2300   -5.3270   27.0240 C   0  0  0  0  0  0  0  0  0  0  0  0
   10.5080    0.1780   24.5860 C   0  0  0  0  0  0  0  0  0  0  0  0
   12.3160   -0.8600   23.2930 C   0  0  0  0  0  0  0  0  0  0  0  0
    3.5400    1.6740   22.5650 C   0  0  2  0  0  0  0  0  0  0  0  0
    3.3970    1.8860   21.0370 C   0  0  0  0  0  0  0  0  0  0  0  0
    7.3140   -5.8090   28.3820 Cl  0  0  0  0  0  0  0  0  0  0  0  0
   13.0800   -2.0490   22.8070 C   0  0  0  0  0  0  0  0  0  0  0  0
    4.6350    1.3960   18.6510 C   0  0  0  0  0  0  0  0  0  0  0  0
   11.0290    1.5050   24.0440 C   0  0  0  0  0  0  0  0  0  0  0  0
   12.7460    0.5050   22.8330 C   0  0  0  0  0  0  0  0  0  0  0  0
    2.9070    2.7760   23.2590 N   0  0  0  0  0  0  0  0  0  0  0  0
   12.0850    1.6230   23.2300 C   0  0  0  0  0  0  0  0  0  0  0  0
  1  2  1  0
  2  3  1  0
  3  4  1  0
  5  4  1  6
  5  6  1  0
  5  7  1  0
  6  7  1  6
  6  8  1  0
  8  9  1  0
  8 10  1  6
  9 11  1  0
 10 12  1  0
  9 13  1  0
 11 14  1  0
 11 15  2  0
 12 16  1  0
 13 17  1  1
 12 18  1  0
 13 18  1  0
 16 19  1  1
 17 20  1  0
 17 21  1  0
 16 22  1  0
 23 20  1  6
 21 24  2  0
 21 25  1  0
 23 25  1  0
 22 26  2  0
 22 27  1  0
 19 28  1  0
 23 29  1  0
 25 30  2  0
 24 31  1  0
 26 32  1  0
 27 33  1  0
 32 33  2  0
 28 34  2  0
 28 35  1  0
 29 36  1  0
 30 37  1  0
 36 37  1  0
 33 38  1  0
 35 39  1  0
 30 40  1  0
 31 40  2  0
 34 41  1  0
 35 42  2  0
 36 43  1  1
 41 44  2  0
 42 44  1  0
M  END
