x1334_1-x1418_1-x0397_0-x0831_1-x0831_0-x1386_1-x0692_1-x0770_1-x1334_0
     RDKit          3D

 27 30  0  0  0  0  0  0  0  0999 V2000
    6.1600   -3.3090   19.9250 C   0  0  0  0  0  0  0  0  0  0  0  0
    7.1820   -3.0150   18.8370 C   0  0  0  0  0  0  0  0  0  0  0  0
    5.3610   -4.2350   19.7740 O   0  0  0  0  0  0  0  0  0  0  0  0
    6.1710   -2.5210   21.0610 N   0  0  0  0  0  0  0  0  0  0  0  0
    6.8710   -1.2430   21.0940 C   0  0  0  0  0  0  0  0  0  0  0  0
    6.1360   -3.2100   22.3560 C   0  0  2  0  0  0  0  0  0  0  0  0
    8.1990   -1.2970   21.8230 C   0  0  0  0  0  0  0  0  0  0  0  0
    7.5100   -3.2860   23.0270 C   0  0  0  0  0  0  0  0  0  0  0  0
    5.5180   -4.6000   22.2980 C   0  0  0  0  0  0  0  0  0  0  0  0
    8.2460   -2.0230   23.1030 N   0  0  0  0  0  0  0  0  0  0  0  0
    6.1370   -5.7000   23.0380 C   0  0  0  0  0  0  0  0  0  0  0  0
    6.2260   -5.9210   21.8120 C   0  0  0  0  0  0  0  0  0  0  0  0
    9.6480   -2.2880   23.1440 C   0  0  2  0  0  0  0  0  0  0  0  0
   10.0780   -3.5630   23.7610 C   0  0  0  0  0  0  0  0  0  0  0  0
   10.5000   -1.0160   23.3130 C   0  0  0  0  0  0  0  0  0  0  0  0
    9.9940    0.2350   24.0680 C   0  0  0  0  0  0  0  0  0  0  0  0
   11.9200   -0.8790   22.7260 C   0  0  0  0  0  0  0  0  0  0  0  0
    9.4220   -4.2010   24.9510 C   0  0  0  0  0  0  0  0  0  0  0  0
   12.6060   -1.9610   21.9600 C   0  0  0  0  0  0  0  0  0  0  0  0
   10.9490    1.4380   24.1160 C   0  0  0  0  0  0  0  0  0  0  0  0
   12.6760    0.3840   22.9010 C   0  0  0  0  0  0  0  0  0  0  0  0
    9.8050   -5.5820   25.3920 C   0  0  0  0  0  0  0  0  0  0  0  0
    8.1690   -3.6410   26.0580 S   0  0  0  0  0  0  0  0  0  0  0  0
   12.2200    1.4630   23.5420 C   0  0  0  0  0  0  0  0  0  0  0  0
    9.0250   -5.9550   26.5650 C   0  0  0  0  0  0  0  0  0  0  0  0
    8.1550   -5.0890   27.0300 C   0  0  0  0  0  0  0  0  0  0  0  0
    7.1330   -5.3020   28.3840 Cl  0  0  0  0  0  0  0  0  0  0  0  0
  1  2  1  0
  1  3  2  0
  1  4  1  0
  4  5  1  0
  4  6  1  0
  5  7  1  0
  6  8  1  0
  6  9  1  6
  7 10  1  0
  8 10  1  0
  9 11  1  0
  9 12  1  0
 11 12  1  0
 10 13  1  0
 13 14  1  1
 13 15  1  0
 15 16  2  0
 15 17  1  0
 14 18  1  0
 17 19  1  0
 16 20  1  0
 17 21  2  0
 18 22  2  0
 18 23  1  0
 20 24  2  0
 21 24  1  0
 22 25  1  0
 23 26  1  0
 25 26  2  0
 26 27  1  0
M  END
