x1334_1-x0831_1-x1418_1-x0770_1-x1334_0-x1412_1-x1385_1-x0397_0-x0831_0-x0434_2-x0692_1-x1386_1-x1374_1
     RDKit          3D

 39 43  0  0  0  0  0  0  0  0999 V2000
    2.0070   -7.2520   23.8220 O   0  0  0  0  0  0  0  0  0  0  0  0
    2.4820   -7.9360   24.9640 C   0  0  0  0  0  0  0  0  0  0  0  0
    3.8950   -7.9440   24.9150 O   0  0  0  0  0  0  0  0  0  0  0  0
    4.3720   -7.2370   23.7920 C   0  0  0  0  0  0  0  0  0  0  0  0
    4.7320   -5.9760   24.1860 C   0  0  0  0  0  0  0  0  0  0  0  0
    5.7850   -5.5680   23.2080 C   0  0  2  0  0  0  0  0  0  0  0  0
    5.4660   -4.5000   22.2340 C   0  0  2  0  0  0  0  0  0  0  0  0
    5.9400   -6.1180   21.8970 C   0  0  0  0  0  0  0  0  0  0  0  0
    6.3740   -3.3350   22.3800 C   0  0  2  0  0  0  0  0  0  0  0  0
    6.6480   -2.6700   21.2600 N   0  0  0  0  0  0  0  0  0  0  0  0
    7.7050   -3.8420   23.0100 C   0  0  0  0  0  0  0  0  0  0  0  0
    6.4200   -3.2750   19.9980 C   0  0  0  0  0  0  0  0  0  0  0  0
    8.5560   -2.7270   23.3290 N   0  0  0  0  0  0  0  0  0  0  0  0
    7.4740   -1.5720   21.5960 C   0  0  2  0  0  0  0  0  0  0  0  0
    7.3280   -2.9690   18.8320 C   0  0  0  0  0  0  0  0  0  0  0  0
    5.5010   -4.1060   19.7860 O   0  0  0  0  0  0  0  0  0  0  0  0
    9.7290   -3.1310   24.0430 C   0  0  1  0  0  0  0  0  0  0  0  0
    7.6740   -0.8040   20.4060 N   0  0  0  0  0  0  0  0  0  0  0  0
    8.8350   -1.9320   22.1680 C   0  0  0  0  0  0  0  0  0  0  0  0
   10.4060   -2.1090   24.9160 C   0  0  0  0  0  0  0  0  0  0  0  0
    9.2810   -4.1010   25.1250 C   0  0  0  0  0  0  0  0  0  0  0  0
    6.6930   -0.0680   19.7900 C   0  0  0  0  0  0  0  0  0  0  0  0
    9.8740   -5.4230   25.3370 C   0  0  0  0  0  0  0  0  0  0  0  0
    8.0680   -3.8360   26.2680 S   0  0  0  0  0  0  0  0  0  0  0  0
   11.0620   -0.9240   24.2490 C   0  0  0  0  0  0  0  0  0  0  0  0
    6.9920    0.2630   18.4080 C   0  0  0  0  0  0  0  0  0  0  0  0
    5.4780    0.3870   20.3220 C   0  0  0  0  0  0  0  0  0  0  0  0
    9.2640   -6.1550   26.4830 C   0  0  0  0  0  0  0  0  0  0  0  0
    8.2670   -5.3690   27.0590 C   0  0  0  0  0  0  0  0  0  0  0  0
   10.5090    0.2930   24.5360 C   0  0  0  0  0  0  0  0  0  0  0  0
   12.2840   -0.9430   23.3170 C   0  0  0  0  0  0  0  0  0  0  0  0
    6.2170    0.9640   17.6020 N   0  0  0  0  0  0  0  0  0  0  0  0
    4.6520    1.1360   19.4650 C   0  0  0  0  0  0  0  0  0  0  0  0
    7.2820   -5.7660   28.3970 Cl  0  0  0  0  0  0  0  0  0  0  0  0
   12.9230   -2.2430   22.9540 C   0  0  0  0  0  0  0  0  0  0  0  0
   11.0640    1.5590   23.9880 C   0  0  0  0  0  0  0  0  0  0  0  0
   12.8720    0.3560   22.7520 C   0  0  0  0  0  0  0  0  0  0  0  0
    5.0670    1.3950   18.1300 C   0  0  0  0  0  0  0  0  0  0  0  0
   12.1680    1.6310   23.1570 C   0  0  0  0  0  0  0  0  0  0  0  0
  1  2  1  0
  2  3  1  0
  3  4  1  0
  4  5  1  0
  6  5  1  1
  6  7  1  0
  6  8  1  0
  7  8  1  6
  7  9  1  0
  9 10  1  0
  9 11  1  6
 10 12  1  0
 11 13  1  0
 10 14  1  0
 12 15  1  0
 12 16  2  0
 13 17  1  0
 14 18  1  6
 13 19  1  0
 14 19  1  0
 17 20  1  1
 17 21  1  0
 18 22  1  0
 21 23  2  0
 21 24  1  0
 20 25  1  0
 22 26  2  0
 22 27  1  0
 23 28  1  0
 24 29  1  0
 28 29  2  0
 25 30  2  0
 25 31  1  0
 26 32  1  0
 27 33  2  0
 29 34  1  0
 31 35  1  0
 30 36  1  0
 31 37  2  0
 32 38  2  0
 33 38  1  0
 36 39  2  0
 37 39  1  0
M  END
