x1334_1-x1334_0-x0434_2-x0387_0-x1412_0
     RDKit          3D

 31 34  0  0  0  0  0  0  0  0999 V2000
    6.3670   -3.3390   19.8830 C   0  0  0  0  0  0  0  0  0  0  0  0
    7.3090   -3.0170   18.7250 C   0  0  0  0  0  0  0  0  0  0  0  0
    5.4220   -4.1370   19.7390 O   0  0  0  0  0  0  0  0  0  0  0  0
    6.6540   -2.7140   21.0930 N   0  0  0  0  0  0  0  0  0  0  0  0
    7.7450   -1.7230   21.0920 C   0  0  1  0  0  0  0  0  0  0  0  0
    6.5590   -3.3390   22.3980 C   0  0  0  0  0  0  0  0  0  0  0  0
    7.1990   -0.4100   21.3840 N   0  0  0  0  0  0  0  0  0  0  0  0
    8.9470   -1.9340   22.0870 C   0  0  0  0  0  0  0  0  0  0  0  0
    7.7460   -3.9300   22.7340 C   0  0  0  0  0  0  0  0  0  0  0  0
    8.7780   -2.9230   23.0240 N   0  0  0  0  0  0  0  0  0  0  0  0
    6.4550    0.2380   20.2580 C   0  0  0  0  0  0  0  0  0  0  0  0
    9.0230   -2.6880   24.3800 C   0  0  2  0  0  0  0  0  0  0  0  0
    7.0080   -0.0020   18.8290 C   0  0  0  0  0  0  0  0  0  0  0  0
    5.3290    1.0170   20.4540 C   0  0  0  0  0  0  0  0  0  0  0  0
    7.7250   -2.0090   24.8480 C   0  0  0  0  0  0  0  0  0  0  0  0
   10.0980   -1.6710   24.7200 C   0  0  0  0  0  0  0  0  0  0  0  0
    8.9970   -3.8660   25.3030 C   0  0  0  0  0  0  0  0  0  0  0  0
    6.3370    0.6130   17.7010 N   0  0  0  0  0  0  0  0  0  0  0  0
    4.6510    1.6220   19.4080 C   0  0  0  0  0  0  0  0  0  0  0  0
    7.8790   -0.7000   25.4020 O   0  0  0  0  0  0  0  0  0  0  0  0
    9.8030   -4.9970   25.3360 C   0  0  0  0  0  0  0  0  0  0  0  0
    7.7940   -3.8780   26.5330 S   0  0  0  0  0  0  0  0  0  0  0  0
    5.1550    1.4350   17.9580 C   0  0  0  0  0  0  0  0  0  0  0  0
   11.2600   -1.3660   23.7930 C   0  0  0  0  0  0  0  0  0  0  0  0
    9.4630   -5.8450   26.3110 C   0  0  0  0  0  0  0  0  0  0  0  0
    8.2840   -5.3780   27.1530 C   0  0  0  0  0  0  0  0  0  0  0  0
   12.0320   -0.2380   23.9000 C   0  0  0  0  0  0  0  0  0  0  0  0
   11.7180   -2.1430   22.7340 C   0  0  0  0  0  0  0  0  0  0  0  0
    7.4600   -6.0560   28.4790 Cl  0  0  0  0  0  0  0  0  0  0  0  0
   13.0760   -0.1230   22.9560 C   0  0  0  0  0  0  0  0  0  0  0  0
   13.0780   -1.4700   21.9180 S   0  0  0  0  0  0  0  0  0  0  0  0
  1  2  1  0
  1  3  2  0
  1  4  1  0
  4  5  1  0
  4  6  1  0
  5  7  1  1
  5  8  1  0
  6  9  1  0
  8 10  1  0
  9 10  1  0
  7 11  1  0
 10 12  1  0
 11 13  2  0
 11 14  1  0
 12 15  1  1
 12 16  1  0
 12 17  1  0
 13 18  1  0
 14 19  2  0
 15 20  2  0
 17 21  2  0
 17 22  1  0
 18 23  2  0
 19 23  1  0
 16 24  1  0
 21 25  1  0
 22 26  1  0
 25 26  2  0
 24 27  1  0
 24 28  2  0
 26 29  1  0
 27 30  2  0
 28 31  1  0
 30 31  1  0
M  END
