x1334_1-x0831_0-x1385_1-x0426_1-x0770_1-x0831_1-x0692_1-x0397_0-x1334_0-x1386_1-x0434_2-x1412_1-x1374_1-x1418_1
     RDKit          3D

 45 51  0  0  0  0  0  0  0  0999 V2000
    2.0530   -7.1530   23.6420 O   0  0  0  0  0  0  0  0  0  0  0  0
    2.5050   -7.4340   24.9560 C   0  0  0  0  0  0  0  0  0  0  0  0
    3.8800   -7.7780   24.8710 O   0  0  0  0  0  0  0  0  0  0  0  0
    4.4760   -7.1350   23.7570 C   0  0  0  0  0  0  0  0  0  0  0  0
    4.8570   -5.8790   24.1360 C   0  0  0  0  0  0  0  0  0  0  0  0
    6.0480   -5.5490   23.2860 C   0  0  2  0  0  0  0  0  0  0  0  0
    6.0260   -4.5450   22.4120 C   0  0  2  0  0  0  0  0  0  0  0  0
    6.0250   -6.1180   21.9580 C   0  0  0  0  0  0  0  0  0  0  0  0
    7.2530   -3.7770   22.0360 C   0  0  1  0  0  0  0  0  0  0  0  0
    6.8010   -2.7690   21.0440 N   0  0  0  0  0  0  0  0  0  0  0  0
    7.8970   -3.3100   23.2000 C   0  0  0  0  0  0  0  0  0  0  0  0
    6.4150   -3.3580   19.8680 C   0  0  0  0  0  0  0  0  0  0  0  0
    8.7400   -2.1370   23.0070 N   0  0  0  0  0  0  0  0  0  0  0  0
    7.8190   -1.7370   20.8460 C   0  0  1  0  0  0  0  0  0  0  0  0
    7.3590   -3.0790   18.7110 C   0  0  0  0  0  0  0  0  0  0  0  0
    5.4320   -4.0980   19.7150 O   0  0  0  0  0  0  0  0  0  0  0  0
   10.1430   -2.2580   23.3660 C   0  0  2  0  0  0  0  0  0  0  0  0
    7.3150   -0.4310   21.1070 N   0  0  0  0  0  0  0  0  0  0  0  0
    9.0870   -1.9910   21.6050 C   0  0  0  0  0  0  0  0  0  0  0  0
   10.5650   -3.1870   24.4800 C   0  0  0  0  0  0  0  0  0  0  0  0
    6.4400   -0.4530   22.3110 C   0  0  0  0  0  0  0  0  0  0  0  0
    6.5110    0.2090   20.0690 C   0  0  0  0  0  0  0  0  0  0  0  0
   10.7870   -0.9730   23.4160 C   0  0  0  0  0  0  0  0  0  0  0  0
    5.6340    0.8020   22.1760 C   0  0  1  0  0  0  0  0  0  0  0  0
    6.6040    0.1970   18.5880 N   0  0  0  0  0  0  0  0  0  0  0  0
    5.5090    0.9340   20.6740 C   0  0  0  0  0  0  0  0  0  0  0  0
   10.2230    0.2080   23.9140 C   0  0  0  0  0  0  0  0  0  0  0  0
   12.1950   -0.8240   22.8890 C   0  0  0  0  0  0  0  0  0  0  0  0
    9.7300   -4.0890   25.3480 C   0  0  0  0  0  0  0  0  0  0  0  0
    4.2820    0.8910   22.8100 C   0  0  0  0  0  0  0  0  0  0  0  0
   12.9880   -1.9460   22.2940 C   0  0  0  0  0  0  0  0  0  0  0  0
    4.5370    1.6730   20.0310 C   0  0  0  0  0  0  0  0  0  0  0  0
    5.5890    0.9970   17.9150 C   0  0  0  0  0  0  0  0  0  0  0  0
   10.8570    1.4540   23.9560 C   0  0  0  0  0  0  0  0  0  0  0  0
   12.8790    0.3800   22.9030 C   0  0  0  0  0  0  0  0  0  0  0  0
   10.0120   -5.3380   25.6080 C   0  0  0  0  0  0  0  0  0  0  0  0
    8.2210   -3.7070   26.2540 S   0  0  0  0  0  0  0  0  0  0  0  0
    3.6930    2.2450   22.4000 C   0  0  1  0  0  0  0  0  0  0  0  0
    3.5090    2.3820   20.8760 C   0  0  0  0  0  0  0  0  0  0  0  0
    4.6300    1.6730   18.6590 C   0  0  0  0  0  0  0  0  0  0  0  0
   12.1370    1.5680   23.4740 C   0  0  0  0  0  0  0  0  0  0  0  0
    9.1450   -6.1320   26.5330 C   0  0  0  0  0  0  0  0  0  0  0  0
    8.0340   -5.2260   26.9930 C   0  0  0  0  0  0  0  0  0  0  0  0
    2.4910    2.5380   23.1340 N   0  0  0  0  0  0  0  0  0  0  0  0
    6.7690   -5.5990   28.0810 Cl  0  0  0  0  0  0  0  0  0  0  0  0
  1  2  1  0
  2  3  1  0
  3  4  1  0
  4  5  1  0
  6  5  1  1
  6  7  1  0
  6  8  1  0
  7  8  1  6
  7  9  1  0
  9 10  1  0
  9 11  1  1
 10 12  1  0
 11 13  1  0
 10 14  1  0
 12 15  1  0
 12 16  2  0
 13 17  1  0
 14 18  1  1
 13 19  1  0
 14 19  1  0
 17 20  1  1
 18 21  1  0
 18 22  1  0
 17 23  1  0
 24 21  1  6
 22 25  2  0
 22 26  1  0
 24 26  1  0
 23 27  2  0
 23 28  1  0
 20 29  1  0
 24 30  1  0
 28 31  1  0
 26 32  2  0
 25 33  1  0
 27 34  1  0
 28 35  2  0
 29 36  2  0
 29 37  1  0
 30 38  1  0
 32 39  1  0
 38 39  1  0
 32 40  1  0
 33 40  2  0
 34 41  2  0
 35 41  1  0
 36 42  1  0
 37 43  1  0
 42 43  2  0
 38 44  1  1
 43 45  1  0
M  END
