x1334_1-x1334_0-x0770_1-x0692_1-x1385_1-x0397_0-x0434_2-x1412_1-x0831_0
     RDKit          3D

 34 38  0  0  0  0  0  0  0  0999 V2000
    6.3060   -3.3500   19.8930 C   0  0  0  0  0  0  0  0  0  0  0  0
    7.2870   -3.0500   18.7660 C   0  0  0  0  0  0  0  0  0  0  0  0
    5.3830   -4.1590   19.7520 O   0  0  0  0  0  0  0  0  0  0  0  0
    6.5460   -2.6790   21.0820 N   0  0  0  0  0  0  0  0  0  0  0  0
    7.5740   -1.6080   21.0800 C   0  0  1  0  0  0  0  0  0  0  0  0
    6.1100   -3.1610   22.3960 C   0  0  2  0  0  0  0  0  0  0  0  0
    6.8920   -0.3290   21.2360 N   0  0  0  0  0  0  0  0  0  0  0  0
    8.7130   -1.8500   22.0670 C   0  0  0  0  0  0  0  0  0  0  0  0
    7.1380   -3.2220   23.3900 C   0  0  0  0  0  0  0  0  0  0  0  0
    5.4530   -4.5280   22.3000 C   0  0  0  0  0  0  0  0  0  0  0  0
    8.3130   -2.3550   23.4090 N   0  0  0  0  0  0  0  0  0  0  0  0
    5.9100   -5.5920   22.9400 C   0  0  0  0  0  0  0  0  0  0  0  0
    6.0890   -5.8970   21.5610 C   0  0  0  0  0  0  0  0  0  0  0  0
    6.2650    0.2670   20.1610 C   0  0  0  0  0  0  0  0  0  0  0  0
    9.3420   -3.3740   23.6110 C   0  0  1  0  0  0  0  0  0  0  0  0
    6.8550    0.1470   18.9010 C   0  0  0  0  0  0  0  0  0  0  0  0
    5.0820    0.9800   20.2570 C   0  0  0  0  0  0  0  0  0  0  0  0
   10.6920   -2.7790   23.2680 C   0  0  0  0  0  0  0  0  0  0  0  0
    9.1250   -4.2180   24.8720 C   0  0  0  0  0  0  0  0  0  0  0  0
    6.3740    0.6800   17.7570 N   0  0  0  0  0  0  0  0  0  0  0  0
    4.6030    1.5180   19.0720 C   0  0  0  0  0  0  0  0  0  0  0  0
    9.7710   -5.3790   25.2250 C   0  0  0  0  0  0  0  0  0  0  0  0
    7.9530   -3.8660   26.1180 S   0  0  0  0  0  0  0  0  0  0  0  0
   11.0280   -1.2770   23.4200 C   0  0  0  0  0  0  0  0  0  0  0  0
    5.2330    1.3750   17.8610 C   0  0  0  0  0  0  0  0  0  0  0  0
    9.3240   -5.9050   26.3880 C   0  0  0  0  0  0  0  0  0  0  0  0
    8.3260   -5.2580   27.0550 C   0  0  0  0  0  0  0  0  0  0  0  0
   10.1080   -0.3600   24.2690 C   0  0  0  0  0  0  0  0  0  0  0  0
   12.1870   -0.7860   22.7950 C   0  0  0  0  0  0  0  0  0  0  0  0
    7.5170   -5.6340   28.5100 Cl  0  0  0  0  0  0  0  0  0  0  0  0
   13.0390   -1.7130   21.9830 C   0  0  0  0  0  0  0  0  0  0  0  0
   10.5430    0.9690   24.3420 C   0  0  0  0  0  0  0  0  0  0  0  0
   12.5410    0.5420   22.9330 C   0  0  0  0  0  0  0  0  0  0  0  0
   11.7200    1.3550   23.6840 C   0  0  0  0  0  0  0  0  0  0  0  0
  1  2  1  0
  1  3  2  0
  1  4  1  0
  4  5  1  0
  4  6  1  0
  5  7  1  1
  5  8  1  0
  6  9  1  0
  6 10  1  6
  8 11  1  0
  9 11  1  0
 10 12  1  0
 10 13  1  0
 12 13  1  0
  7 14  1  0
 11 15  1  0
 14 16  2  0
 14 17  1  0
 15 18  1  1
 15 19  1  0
 16 20  1  0
 17 21  2  0
 19 22  2  0
 19 23  1  0
 18 24  1  0
 20 25  2  0
 21 25  1  0
 22 26  1  0
 23 27  1  0
 26 27  2  0
 24 28  2  0
 24 29  1  0
 27 30  1  0
 29 31  1  0
 28 32  1  0
 29 33  2  0
 32 34  2  0
 33 34  1  0
M  END
