x1334_1-x1418_1-x0831_0-x1375_1-x1334_0-x0770_1-x1374_1-x0692_1-x1385_1-x0397_0-x0426_1-x1412_1-x1386_1
     RDKit          3D

 43 48  0  0  0  0  0  0  0  0999 V2000
    2.5540   -7.7550   23.6750 O   0  0  0  0  0  0  0  0  0  0  0  0
    3.2030   -6.9630   24.6470 C   0  0  0  0  0  0  0  0  0  0  0  0
    4.5710   -7.3030   24.6120 O   0  0  0  0  0  0  0  0  0  0  0  0
    5.1290   -7.0080   23.3310 C   0  0  0  0  0  0  0  0  0  0  0  0
    6.0340   -5.8290   23.2840 C   0  0  2  0  0  0  0  0  0  0  0  0
    5.9320   -4.7360   22.3240 C   0  0  2  0  0  0  0  0  0  0  0  0
    7.0530   -5.9790   22.4630 C   0  0  0  0  0  0  0  0  0  0  0  0
    6.4060   -3.2950   22.5330 C   0  0  2  0  0  0  0  0  0  0  0  0
    6.4140   -2.6270   21.2230 N   0  0  0  0  0  0  0  0  0  0  0  0
    7.8460   -3.5990   22.9790 C   0  0  0  0  0  0  0  0  0  0  0  0
    6.2660   -3.3440   20.0040 C   0  0  0  0  0  0  0  0  0  0  0  0
    8.6630   -2.3510   23.0910 N   0  0  0  0  0  0  0  0  0  0  0  0
    7.1180   -1.3810   21.3490 C   0  0  2  0  0  0  0  0  0  0  0  0
    7.2240   -3.0060   18.8640 C   0  0  0  0  0  0  0  0  0  0  0  0
    5.4240   -4.2330   19.8070 O   0  0  0  0  0  0  0  0  0  0  0  0
   10.0170   -2.4380   23.3210 C   0  0  2  0  0  0  0  0  0  0  0  0
    8.5620   -1.5960   21.8450 C   0  0  0  0  0  0  0  0  0  0  0  0
    6.3780   -0.4410   22.3340 C   0  0  0  0  0  0  0  0  0  0  0  0
   10.5970   -3.2350   24.4800 C   0  0  0  0  0  0  0  0  0  0  0  0
   10.7370   -1.0790   23.3630 C   0  0  0  0  0  0  0  0  0  0  0  0
    6.5100    1.0070   21.8550 C   0  0  2  0  0  0  0  0  0  0  0  0
   10.0700    0.0310   23.9130 C   0  0  0  0  0  0  0  0  0  0  0  0
   12.0290   -0.9200   22.8810 C   0  0  0  0  0  0  0  0  0  0  0  0
    9.7140   -4.1010   25.3520 C   0  0  0  0  0  0  0  0  0  0  0  0
    5.6860    1.9140   22.5250 C   0  0  0  0  0  0  0  0  0  0  0  0
    5.9960    1.0260   20.4580 C   0  0  0  0  0  0  0  0  0  0  0  0
   12.7870   -2.0540   22.2710 C   0  0  0  0  0  0  0  0  0  0  0  0
   10.6040    1.2730   24.0210 C   0  0  0  0  0  0  0  0  0  0  0  0
   12.6750    0.3140   22.9430 C   0  0  0  0  0  0  0  0  0  0  0  0
    9.9750   -5.3870   25.6410 C   0  0  0  0  0  0  0  0  0  0  0  0
    8.2580   -3.6800   26.1910 S   0  0  0  0  0  0  0  0  0  0  0  0
    4.1810    1.6330   22.3890 C   0  0  1  0  0  0  0  0  0  0  0  0
    4.7130    1.4790   20.1180 C   0  0  0  0  0  0  0  0  0  0  0  0
    6.8100    0.5760   19.4050 C   0  0  0  0  0  0  0  0  0  0  0  0
   12.0540    1.4310   23.4810 C   0  0  0  0  0  0  0  0  0  0  0  0
    9.1430   -6.0300   26.4750 C   0  0  0  0  0  0  0  0  0  0  0  0
    8.1050   -5.2460   26.9230 C   0  0  0  0  0  0  0  0  0  0  0  0
    3.5070    2.4060   23.2780 N   0  0  0  0  0  0  0  0  0  0  0  0
    3.7240    1.9750   21.1320 C   0  0  0  0  0  0  0  0  0  0  0  0
    4.3800    1.4560   18.7760 C   0  0  0  0  0  0  0  0  0  0  0  0
    6.5100    0.5370   18.1040 N   0  0  0  0  0  0  0  0  0  0  0  0
    6.8480   -5.6590   28.0080 Cl  0  0  0  0  0  0  0  0  0  0  0  0
    5.2900    0.9940   17.8560 C   0  0  0  0  0  0  0  0  0  0  0  0
  1  2  1  0
  2  3  1  0
  3  4  1  0
  5  4  1  6
  5  6  1  0
  5  7  1  0
  6  7  1  6
  6  8  1  0
  8  9  1  0
  8 10  1  6
  9 11  1  0
 10 12  1  0
  9 13  1  0
 11 14  1  0
 11 15  2  0
 12 16  1  0
 12 17  1  0
 13 17  1  0
 13 18  1  1
 16 19  1  1
 16 20  1  0
 21 18  1  1
 20 22  2  0
 20 23  1  0
 19 24  1  0
 21 25  1  0
 21 26  1  0
 23 27  1  0
 22 28  1  0
 23 29  2  0
 24 30  2  0
 24 31  1  0
 25 32  1  0
 26 33  2  0
 26 34  1  0
 28 35  2  0
 29 35  1  0
 30 36  1  0
 31 37  1  0
 36 37  2  0
 32 38  1  1
 32 39  1  0
 33 39  1  0
 33 40  1  0
 34 41  2  0
 37 42  1  0
 40 43  2  0
 41 43  1  0
M  END
