x1334_1-x1375_1-x0426_1-x0434_2-x0770_1-x0692_1-x0397_0-x1334_0-x0831_0-x1385_1-x1418_1-x1374_1-x1412_1-x0831_1
     RDKit          3D

 44 50  0  0  0  0  0  0  0  0999 V2000
    2.6660   -7.6370   23.8300 O   0  0  0  0  0  0  0  0  0  0  0  0
    3.3080   -7.3850   25.0700 C   0  0  0  0  0  0  0  0  0  0  0  0
    4.5480   -6.7450   24.8140 O   0  0  0  0  0  0  0  0  0  0  0  0
    4.9060   -6.8870   23.4520 C   0  0  0  0  0  0  0  0  0  0  0  0
    5.8060   -5.8190   22.9260 C   0  0  2  0  0  0  0  0  0  0  0  0
    5.5430   -4.8350   22.2350 C   0  0  2  0  0  0  0  0  0  0  0  0
    6.2540   -6.0700   21.5820 C   0  0  0  0  0  0  0  0  0  0  0  0
    6.2720   -3.5410   22.5000 C   0  0  2  0  0  0  0  0  0  0  0  0
    6.5310   -2.7590   21.2520 N   0  0  0  0  0  0  0  0  0  0  0  0
    7.4920   -3.8130   23.0920 C   0  0  0  0  0  0  0  0  0  0  0  0
    6.3290   -3.2850   19.9660 C   0  0  0  0  0  0  0  0  0  0  0  0
    8.3100   -2.6260   23.3960 N   0  0  0  0  0  0  0  0  0  0  0  0
    7.3010   -1.5570   21.5790 C   0  0  2  0  0  0  0  0  0  0  0  0
    7.2780   -2.9710   18.8200 C   0  0  0  0  0  0  0  0  0  0  0  0
    5.3980   -4.0720   19.7180 O   0  0  0  0  0  0  0  0  0  0  0  0
    9.3300   -2.7400   24.4340 C   0  0  2  0  0  0  0  0  0  0  0  0
    7.6510   -0.5060   20.5960 N   0  0  0  0  0  0  0  0  0  0  0  0
    8.6730   -1.9910   22.1240 C   0  0  0  0  0  0  0  0  0  0  0  0
   10.7250   -2.6520   23.8330 C   0  0  0  0  0  0  0  0  0  0  0  0
    7.8710    0.7460   21.4170 C   0  0  0  0  0  0  0  0  0  0  0  0
    6.6260    0.0340   19.7490 C   0  0  0  0  0  0  0  0  0  0  0  0
    9.0530   -3.8870   25.3980 C   0  0  0  0  0  0  0  0  0  0  0  0
    6.4270    0.9270   21.9330 C   0  0  2  0  0  0  0  0  0  0  0  0
    6.3190   -0.1490   18.3170 N   0  0  0  0  0  0  0  0  0  0  0  0
    5.8570    0.8720   20.5490 C   0  0  0  0  0  0  0  0  0  0  0  0
    9.8040   -5.1780   25.4710 C   0  0  0  0  0  0  0  0  0  0  0  0
    7.7990   -3.8180   26.5670 S   0  0  0  0  0  0  0  0  0  0  0  0
   11.1400   -1.2270   23.7380 C   0  0  0  0  0  0  0  0  0  0  0  0
    5.9760    2.2170   22.5800 C   0  0  0  0  0  0  0  0  0  0  0  0
    4.6470    1.6280   20.0820 C   0  0  0  0  0  0  0  0  0  0  0  0
    5.2220    0.5740   17.9460 C   0  0  0  0  0  0  0  0  0  0  0  0
    9.3850   -6.0300   26.4140 C   0  0  0  0  0  0  0  0  0  0  0  0
    8.2230   -5.4400   27.1780 C   0  0  0  0  0  0  0  0  0  0  0  0
   10.4320   -0.0370   24.3680 C   0  0  0  0  0  0  0  0  0  0  0  0
   12.3940   -0.8560   22.9380 C   0  0  0  0  0  0  0  0  0  0  0  0
    4.4800    2.6110   22.4200 C   0  0  1  0  0  0  0  0  0  0  0  0
    3.8700    2.4840   21.0180 C   0  0  0  0  0  0  0  0  0  0  0  0
    7.3130   -6.0800   28.4700 Cl  0  0  0  0  0  0  0  0  0  0  0  0
   13.1780   -1.9080   22.2440 C   0  0  0  0  0  0  0  0  0  0  0  0
    4.4600    1.3780   18.7510 C   0  0  0  0  0  0  0  0  0  0  0  0
   10.9050    1.2830   24.2170 C   0  0  0  0  0  0  0  0  0  0  0  0
   12.8300    0.4380   22.8280 C   0  0  0  0  0  0  0  0  0  0  0  0
    3.6730    1.9400   23.4210 N   0  0  0  0  0  0  0  0  0  0  0  0
   12.0520    1.5820   23.4960 C   0  0  0  0  0  0  0  0  0  0  0  0
  1  2  1  0
  2  3  1  0
  3  4  1  0
  5  4  1  6
  5  6  1  0
  5  7  1  0
  6  7  1  6
  6  8  1  0
  8  9  1  0
  8 10  1  6
  9 11  1  0
 10 12  1  0
  9 13  1  0
 11 14  1  0
 11 15  2  0
 12 16  1  0
 13 17  1  6
 12 18  1  0
 13 18  1  0
 16 19  1  6
 17 20  1  0
 17 21  1  0
 16 22  1  0
 23 20  1  6
 21 24  2  0
 21 25  1  0
 23 25  1  0
 22 26  2  0
 22 27  1  0
 19 28  1  0
 23 29  1  0
 25 30  2  0
 24 31  1  0
 26 32  1  0
 27 33  1  0
 32 33  2  0
 28 34  2  0
 28 35  1  0
 29 36  1  0
 30 37  1  0
 36 37  1  0
 33 38  1  0
 35 39  1  0
 30 40  1  0
 31 40  2  0
 34 41  1  0
 35 42  2  0
 36 43  1  1
 41 44  2  0
 42 44  1  0
M  END
