x1334_0-x0981_1-x1418_0-x1334_1
     RDKit          3D

 34 36  0  0  0  0  0  0  0  0999 V2000
    3.9680   -5.8060   22.8950 C   0  0  0  0  0  0  0  0  0  0  0  0
    2.6500   -6.1420   23.5380 C   0  0  1  0  0  0  0  0  0  0  0  0
    2.3600   -7.4190   22.9010 N   0  0  0  0  0  0  0  0  0  0  0  0
    4.4590   -4.6380   22.9320 N   0  0  0  0  0  0  0  0  0  0  0  0
    2.6850   -6.3090   25.0590 C   0  0  0  0  0  0  0  0  0  0  0  0
    5.7060   -4.6070   22.1830 C   0  0  0  0  0  0  0  0  0  0  0  0
    1.1510   -7.5390   22.0440 C   0  0  0  0  0  0  0  0  0  0  0  0
    3.1140   -7.7170   25.3540 C   0  0  0  0  0  0  0  0  0  0  0  0
    6.3880   -3.2430   22.3220 C   0  0  2  0  0  0  0  0  0  0  0  0
    1.1230   -8.7790   21.2000 C   0  0  0  0  0  0  0  0  0  0  0  0
    0.2650   -6.6890   22.0180 O   0  0  0  0  0  0  0  0  0  0  0  0
    2.5080   -8.3450   26.3970 N   0  0  0  0  0  0  0  0  0  0  0  0
    3.9690   -8.2250   24.6600 O   0  0  0  0  0  0  0  0  0  0  0  0
    6.5370   -2.5060   21.0490 N   0  0  0  0  0  0  0  0  0  0  0  0
    7.6550   -3.5030   22.8730 C   0  0  0  0  0  0  0  0  0  0  0  0
    6.3410   -3.2090   19.8460 C   0  0  0  0  0  0  0  0  0  0  0  0
    8.3730   -2.2680   23.1910 N   0  0  0  0  0  0  0  0  0  0  0  0
    7.4290   -1.3300   21.1330 C   0  0  0  0  0  0  0  0  0  0  0  0
    7.3830   -2.9760   18.7690 C   0  0  0  0  0  0  0  0  0  0  0  0
    5.3980   -3.9890   19.6730 O   0  0  0  0  0  0  0  0  0  0  0  0
    9.5840   -2.6910   23.8810 C   0  0  2  0  0  0  0  0  0  0  0  0
    8.7380   -1.6690   21.8840 C   0  0  0  0  0  0  0  0  0  0  0  0
   10.1400   -3.5930   23.0960 C   0  0  0  0  0  0  0  0  0  0  0  0
    9.2650   -3.6860   25.0290 C   0  0  0  0  0  0  0  0  0  0  0  0
   10.6590   -1.5930   23.8490 C   0  0  0  0  0  0  0  0  0  0  0  0
    9.9430   -5.0400   25.1420 C   0  0  0  0  0  0  0  0  0  0  0  0
    8.1090   -3.5060   26.3090 S   0  0  0  0  0  0  0  0  0  0  0  0
   11.8210   -1.5990   23.0570 C   0  0  0  0  0  0  0  0  0  0  0  0
   10.5780   -0.1540   24.7660 S   0  0  0  0  0  0  0  0  0  0  0  0
    9.4170   -5.8030   26.3170 C   0  0  0  0  0  0  0  0  0  0  0  0
    8.3800   -5.0340   27.0390 C   0  0  0  0  0  0  0  0  0  0  0  0
   12.6020   -0.4710   23.1940 C   0  0  0  0  0  0  0  0  0  0  0  0
   12.0390    0.4090   24.0930 C   0  0  0  0  0  0  0  0  0  0  0  0
    7.4990   -5.5170   28.4220 Cl  0  0  0  0  0  0  0  0  0  0  0  0
  2  1  1  6
  2  3  1  0
  1  4  2  3
  2  5  1  0
  4  6  1  0
  3  7  1  0
  5  8  1  0
  9  6  1  6
  7 10  1  0
  7 11  2  0
  8 12  1  0
  8 13  2  0
  9 14  1  0
  9 15  1  0
 14 16  1  0
 15 17  1  0
 14 18  1  0
 16 19  1  0
 16 20  2  0
 17 21  1  0
 17 22  1  0
 18 22  1  0
 21 23  1  6
 21 24  1  0
 21 25  1  0
 24 26  2  0
 24 27  1  0
 25 28  2  0
 25 29  1  0
 26 30  1  0
 27 31  1  0
 30 31  2  0
 28 32  1  0
 29 33  1  0
 32 33  2  0
 31 34  1  0
M  END
