x1334_1-x1385_1-x1374_1-x0770_1-x0434_2-x1386_1-x1412_1-x1418_1-x0831_1-x0692_1-x0397_0-x1334_0-x0831_0
     RDKit          3D

 39 43  0  0  0  0  0  0  0  0999 V2000
    2.0420   -6.7000   24.1900 O   0  0  0  0  0  0  0  0  0  0  0  0
    2.9360   -7.5970   23.5880 C   0  0  0  0  0  0  0  0  0  0  0  0
    3.9710   -7.9030   24.5160 O   0  0  0  0  0  0  0  0  0  0  0  0
    4.8730   -6.8090   24.6970 C   0  0  0  0  0  0  0  0  0  0  0  0
    6.0430   -7.0720   23.9920 C   0  0  0  0  0  0  0  0  0  0  0  0
    6.2610   -6.0960   22.8640 C   0  0  2  0  0  0  0  0  0  0  0  0
    5.5380   -4.8880   22.6430 C   0  0  2  0  0  0  0  0  0  0  0  0
    5.6210   -6.2410   21.6970 C   0  0  0  0  0  0  0  0  0  0  0  0
    6.3050   -3.5880   22.5010 C   0  0  2  0  0  0  0  0  0  0  0  0
    6.1730   -2.7300   21.3000 N   0  0  0  0  0  0  0  0  0  0  0  0
    7.7260   -3.9650   22.8490 C   0  0  0  0  0  0  0  0  0  0  0  0
    6.1820   -3.3920   20.0460 C   0  0  0  0  0  0  0  0  0  0  0  0
    8.3680   -2.7080   23.0640 N   0  0  0  0  0  0  0  0  0  0  0  0
    7.0550   -1.5480   21.5020 C   0  0  2  0  0  0  0  0  0  0  0  0
    7.1950   -3.0270   18.9600 C   0  0  0  0  0  0  0  0  0  0  0  0
    5.3750   -4.2940   19.8200 O   0  0  0  0  0  0  0  0  0  0  0  0
    9.3010   -2.6580   24.0890 C   0  0  2  0  0  0  0  0  0  0  0  0
    7.3910   -0.8660   20.3120 N   0  0  0  0  0  0  0  0  0  0  0  0
    8.4790   -1.8590   22.0480 C   0  0  0  0  0  0  0  0  0  0  0  0
   10.7580   -2.5610   23.6820 C   0  0  0  0  0  0  0  0  0  0  0  0
    9.0970   -3.7170   25.1810 C   0  0  0  0  0  0  0  0  0  0  0  0
    6.5000   -0.0450   19.6930 C   0  0  0  0  0  0  0  0  0  0  0  0
    9.8430   -4.8640   25.3770 C   0  0  0  0  0  0  0  0  0  0  0  0
    7.8410   -3.7100   26.4430 S   0  0  0  0  0  0  0  0  0  0  0  0
   11.2450   -1.1230   23.5640 C   0  0  0  0  0  0  0  0  0  0  0  0
    6.8960    0.2990   18.4590 C   0  0  0  0  0  0  0  0  0  0  0  0
    5.2890    0.4150   20.2450 C   0  0  0  0  0  0  0  0  0  0  0  0
    9.4220   -5.6960   26.5210 C   0  0  0  0  0  0  0  0  0  0  0  0
    8.3010   -5.1490   27.2240 C   0  0  0  0  0  0  0  0  0  0  0  0
   10.4970   -0.0470   23.9760 C   0  0  0  0  0  0  0  0  0  0  0  0
   12.4600   -0.8930   23.0340 C   0  0  0  0  0  0  0  0  0  0  0  0
    6.2930    1.0760   17.5690 N   0  0  0  0  0  0  0  0  0  0  0  0
    4.4070    1.3160   19.4490 C   0  0  0  0  0  0  0  0  0  0  0  0
    7.4090   -5.6330   28.5990 Cl  0  0  0  0  0  0  0  0  0  0  0  0
   13.2580   -2.0410   22.5640 C   0  0  0  0  0  0  0  0  0  0  0  0
   10.7490    1.5030   23.9930 C   0  0  0  0  0  0  0  0  0  0  0  0
   12.8930    0.4010   22.9520 C   0  0  0  0  0  0  0  0  0  0  0  0
    5.0190    1.6170   18.0430 C   0  0  0  0  0  0  0  0  0  0  0  0
   12.1280    1.4790   23.3840 C   0  0  0  0  0  0  0  0  0  0  0  0
  1  2  1  0
  2  3  1  0
  3  4  1  0
  4  5  1  0
  6  5  1  1
  6  7  1  0
  6  8  1  0
  7  8  1  6
  7  9  1  0
  9 10  1  0
  9 11  1  6
 10 12  1  0
 11 13  1  0
 10 14  1  0
 12 15  1  0
 12 16  2  0
 13 17  1  0
 14 18  1  6
 13 19  1  0
 14 19  1  0
 17 20  1  6
 17 21  1  0
 18 22  1  0
 21 23  2  0
 21 24  1  0
 20 25  1  0
 22 26  2  0
 22 27  1  0
 23 28  1  0
 24 29  1  0
 28 29  2  0
 25 30  2  0
 25 31  1  0
 26 32  1  0
 27 33  2  0
 29 34  1  0
 31 35  1  0
 30 36  1  0
 31 37  2  0
 32 38  2  0
 33 38  1  0
 36 39  2  0
 37 39  1  0
M  END
