x1334_0-x1418_0-x1334_1-x0831_0-x1412_0-x0434_2-x0981_1
     RDKit          3D

 46 50  0  0  0  0  0  0  0  0999 V2000
    3.9790   -5.3170   23.1420 C   0  0  0  0  0  0  0  0  0  0  0  0
    2.7210   -6.0770   23.5730 C   0  0  1  0  0  0  0  0  0  0  0  0
    2.5330   -7.2690   22.7440 N   0  0  0  0  0  0  0  0  0  0  0  0
    4.0440   -4.0860   23.5130 N   0  0  0  0  0  0  0  0  0  0  0  0
    2.6370   -6.3370   25.0990 C   0  0  0  0  0  0  0  0  0  0  0  0
    5.1270   -3.1500   23.2130 C   0  0  0  0  0  0  0  0  0  0  0  0
    1.3300   -7.4730   22.1060 C   0  0  0  0  0  0  0  0  0  0  0  0
    3.0860   -7.7340   25.3060 C   0  0  0  0  0  0  0  0  0  0  0  0
    6.1790   -3.7630   22.2670 C   0  0  1  0  0  0  0  0  0  0  0  0
    1.2170   -8.7490   21.3100 C   0  0  0  0  0  0  0  0  0  0  0  0
    0.4120   -6.6600   22.1600 O   0  0  0  0  0  0  0  0  0  0  0  0
    2.4860   -8.4450   26.3070 N   0  0  0  0  0  0  0  0  0  0  0  0
    3.9540   -8.2080   24.6100 O   0  0  0  0  0  0  0  0  0  0  0  0
    6.4700   -2.8600   21.1430 N   0  0  0  0  0  0  0  0  0  0  0  0
    7.4640   -3.9880   23.0440 C   0  0  0  0  0  0  0  0  0  0  0  0
    6.2800   -3.2980   19.8370 C   0  0  0  0  0  0  0  0  0  0  0  0
    7.9880   -2.7460   23.5670 N   0  0  0  0  0  0  0  0  0  0  0  0
    7.2100   -1.6340   21.5530 C   0  0  2  0  0  0  0  0  0  0  0  0
    7.3370   -2.9720   18.7840 C   0  0  0  0  0  0  0  0  0  0  0  0
    5.2890   -3.9800   19.5970 O   0  0  0  0  0  0  0  0  0  0  0  0
    9.1260   -2.7840   24.4080 C   0  0  1  0  0  0  0  0  0  0  0  0
    7.6010   -0.8310   20.4410 N   0  0  0  0  0  0  0  0  0  0  0  0
    8.3730   -1.8540   22.5430 C   0  0  2  0  0  0  0  0  0  0  0  0
   10.3080   -2.4920   23.4370 C   0  0  1  0  0  0  0  0  0  0  0  0
    8.9610   -1.6250   25.3920 C   0  0  0  0  0  0  0  0  0  0  0  0
    9.6830   -2.4690   22.0710 C   0  0  0  0  0  0  0  0  0  0  0  0
    9.0020   -3.9570   25.3410 C   0  0  0  0  0  0  0  0  0  0  0  0
    6.6310   -0.0320   19.7640 C   0  0  0  0  0  0  0  0  0  0  0  0
    7.9090   -1.0530   25.6370 O   0  0  0  0  0  0  0  0  0  0  0  0
    9.7580   -5.1510   25.2680 C   0  0  0  0  0  0  0  0  0  0  0  0
    7.8710   -3.9270   26.6240 S   0  0  0  0  0  0  0  0  0  0  0  0
   10.9400   -1.0820   23.4730 C   0  0  0  0  0  0  0  0  0  0  0  0
    6.9650    0.2520   18.4070 C   0  0  0  0  0  0  0  0  0  0  0  0
    5.4470    0.4830   20.2530 C   0  0  0  0  0  0  0  0  0  0  0  0
    9.3590   -5.9890   26.2910 C   0  0  0  0  0  0  0  0  0  0  0  0
    8.3420   -5.4650   27.1050 C   0  0  0  0  0  0  0  0  0  0  0  0
   10.2310    0.0420   24.2070 C   0  0  0  0  0  0  0  0  0  0  0  0
   12.1670   -0.8760   22.8170 C   0  0  0  0  0  0  0  0  0  0  0  0
    6.2410    0.9780   17.5530 N   0  0  0  0  0  0  0  0  0  0  0  0
    4.6860    1.2410   19.3760 C   0  0  0  0  0  0  0  0  0  0  0  0
    7.5290   -6.1100   28.4550 Cl  0  0  0  0  0  0  0  0  0  0  0  0
   12.8590   -1.9780   22.0760 C   0  0  0  0  0  0  0  0  0  0  0  0
   10.9840    1.3660   24.1430 C   0  0  0  0  0  0  0  0  0  0  0  0
   12.8080    0.3460   22.8060 C   0  0  0  0  0  0  0  0  0  0  0  0
    5.0940    1.4730   18.0610 C   0  0  0  0  0  0  0  0  0  0  0  0
   12.3170    1.4250   23.3950 C   0  0  0  0  0  0  0  0  0  0  0  0
  2  1  1  1
  2  3  1  0
  1  4  2  3
  2  5  1  0
  4  6  1  0
  3  7  1  0
  5  8  1  0
  9  6  1  1
  7 10  1  0
  7 11  2  0
  8 12  1  0
  8 13  2  0
  9 14  1  0
  9 15  1  0
 14 16  1  0
 15 17  1  0
 14 18  1  0
 16 19  1  0
 16 20  2  0
 17 21  1  0
 18 22  1  6
 17 23  1  0
 18 23  1  0
 21 24  1  0
 21 25  1  1
 23 26  1  6
 24 26  1  0
 21 27  1  0
 22 28  1  0
 25 29  2  0
 27 30  2  0
 27 31  1  0
 24 32  1  1
 28 33  2  0
 28 34  1  0
 30 35  1  0
 31 36  1  0
 35 36  2  0
 32 37  2  0
 32 38  1  0
 33 39  1  0
 34 40  2  0
 36 41  1  0
 38 42  1  0
 37 43  1  0
 38 44  2  0
 39 45  2  0
 40 45  1  0
 43 46  2  0
 44 46  1  0
M  END
