x1334_0-x1418_1-x0831_0-x1385_1-x1412_1-x0770_1-x1334_1-x1374_1-x0397_0-x0831_1
     RDKit          3D

 32 35  0  0  0  0  0  0  0  0999 V2000
    2.0010   -7.2860   23.7650 O   0  0  0  0  0  0  0  0  0  0  0  0
    2.4980   -7.9510   24.9120 C   0  0  0  0  0  0  0  0  0  0  0  0
    3.9130   -7.9870   24.8690 O   0  0  0  0  0  0  0  0  0  0  0  0
    4.3950   -7.2120   23.7790 C   0  0  0  0  0  0  0  0  0  0  0  0
    4.8500   -5.8680   24.2670 C   0  0  0  0  0  0  0  0  0  0  0  0
    5.8250   -5.3640   23.2520 C   0  0  2  0  0  0  0  0  0  0  0  0
    5.4250   -4.3550   22.3010 C   0  0  2  0  0  0  0  0  0  0  0  0
    5.9580   -5.8960   21.9140 C   0  0  0  0  0  0  0  0  0  0  0  0
    6.5600   -3.2570   22.2990 C   0  0  1  0  0  0  0  0  0  0  0  0
    7.8450   -3.9260   22.6990 C   0  0  0  0  0  0  0  0  0  0  0  0
    6.6950   -2.5240   21.0410 N   0  0  0  0  0  0  0  0  0  0  0  0
    6.4550   -3.2250   19.8500 C   0  0  0  0  0  0  0  0  0  0  0  0
    8.6500   -2.7960   23.0170 N   0  0  0  0  0  0  0  0  0  0  0  0
    7.7820   -1.4950   21.1970 C   0  0  0  0  0  0  0  0  0  0  0  0
    7.4450   -3.0010   18.7270 C   0  0  0  0  0  0  0  0  0  0  0  0
    5.5100   -4.0200   19.7170 O   0  0  0  0  0  0  0  0  0  0  0  0
    9.6910   -3.0370   23.8720 C   0  0  1  0  0  0  0  0  0  0  0  0
    8.9630   -1.9900   21.8120 C   0  0  0  0  0  0  0  0  0  0  0  0
   10.0330   -1.8590   24.7390 C   0  0  0  0  0  0  0  0  0  0  0  0
    9.3790   -4.0770   24.9230 C   0  0  0  0  0  0  0  0  0  0  0  0
    9.8480   -5.3290   25.1870 C   0  0  0  0  0  0  0  0  0  0  0  0
    8.1760   -3.7610   26.1610 S   0  0  0  0  0  0  0  0  0  0  0  0
   10.8660   -0.7560   24.1480 C   0  0  0  0  0  0  0  0  0  0  0  0
    9.3130   -5.9720   26.2710 C   0  0  0  0  0  0  0  0  0  0  0  0
    8.3640   -5.2720   26.9520 C   0  0  0  0  0  0  0  0  0  0  0  0
   10.4040    0.5260   24.4380 C   0  0  0  0  0  0  0  0  0  0  0  0
   12.1660   -0.9250   23.2770 C   0  0  0  0  0  0  0  0  0  0  0  0
    7.4550   -5.6990   28.3390 Cl  0  0  0  0  0  0  0  0  0  0  0  0
   12.7580   -2.2450   22.8800 C   0  0  0  0  0  0  0  0  0  0  0  0
   11.0290    1.6780   24.0100 C   0  0  0  0  0  0  0  0  0  0  0  0
   12.9030    0.3380   22.7860 C   0  0  0  0  0  0  0  0  0  0  0  0
   12.2930    1.6680   23.1800 C   0  0  0  0  0  0  0  0  0  0  0  0
  1  2  1  0
  2  3  1  0
  3  4  1  0
  4  5  1  0
  6  5  1  1
  6  7  1  0
  6  8  1  0
  7  8  1  6
  7  9  1  0
  9 10  1  6
  9 11  1  0
 11 12  1  0
 10 13  1  0
 11 14  1  0
 12 15  1  0
 12 16  2  0
 13 17  1  0
 13 18  1  0
 14 18  1  0
 17 19  1  1
 17 20  1  0
 20 21  2  0
 20 22  1  0
 19 23  1  0
 21 24  1  0
 22 25  1  0
 24 25  2  0
 23 26  2  0
 23 27  1  0
 25 28  1  0
 27 29  1  0
 26 30  1  0
 27 31  2  0
 30 32  2  0
 31 32  1  0
M  END
