x1336_0-x1348_0
     RDKit          3D

  9  9  0  0  0  0  0  0  0  0999 V2000
    6.4570   -3.5600   20.0270 C   0  0  0  0  0  0  0  0  0  0  0  0
    7.3310   -3.0650   18.8710 C   0  0  0  0  0  0  0  0  0  0  0  0
    5.4410   -4.2130   19.7790 O   0  0  0  0  0  0  0  0  0  0  0  0
    6.8620   -3.3230   21.3300 N   0  0  0  0  0  0  0  0  0  0  0  0
    6.6660   -4.2000   22.3650 C   0  0  0  0  0  0  0  0  0  0  0  0
    7.9980   -2.3970   21.5210 C   0  0  0  0  0  0  0  0  0  0  0  0
    6.4610   -3.4580   23.6930 C   0  0  0  0  0  0  0  0  0  0  0  0
    7.9400   -1.6080   22.8380 C   0  0  0  0  0  0  0  0  0  0  0  0
    7.5470   -2.4730   23.9590 N   0  0  0  0  0  0  0  0  0  0  0  0
  1  2  1  0
  1  3  2  0
  1  4  1  0
  4  5  1  0
  4  6  1  0
  5  7  1  0
  6  8  1  0
  7  9  1  0
  8  9  1  0
M  END
