x1334_0-x1385_1-x1334_1
     RDKit          3D

 16 17  0  0  0  0  0  0  0  0999 V2000
    6.4160   -3.2220   19.8730 C   0  0  0  0  0  0  0  0  0  0  0  0
    7.3980   -2.9780   18.7360 C   0  0  0  0  0  0  0  0  0  0  0  0
    5.5040   -4.0510   19.7180 O   0  0  0  0  0  0  0  0  0  0  0  0
    6.5760   -2.5150   21.0640 N   0  0  0  0  0  0  0  0  0  0  0  0
    6.2170   -3.2380   22.2890 C   0  0  0  0  0  0  0  0  0  0  0  0
    7.6560   -1.5230   21.2390 C   0  0  0  0  0  0  0  0  0  0  0  0
    7.4710   -3.7870   22.9710 C   0  0  0  0  0  0  0  0  0  0  0  0
    8.8270   -2.0050   21.9270 C   0  0  0  0  0  0  0  0  0  0  0  0
    8.4750   -2.7350   23.1770 N   0  0  0  0  0  0  0  0  0  0  0  0
    9.5800   -2.9610   24.1180 C   0  0  0  0  0  0  0  0  0  0  0  0
    9.2800   -3.9590   25.1180 C   0  0  0  0  0  0  0  0  0  0  0  0
    9.8790   -5.3180   25.3350 C   0  0  0  0  0  0  0  0  0  0  0  0
    8.0770   -3.7430   26.3220 S   0  0  0  0  0  0  0  0  0  0  0  0
    9.3100   -6.1020   26.4930 C   0  0  0  0  0  0  0  0  0  0  0  0
    8.3280   -5.3490   27.0980 C   0  0  0  0  0  0  0  0  0  0  0  0
    7.3730   -5.7880   28.4450 Cl  0  0  0  0  0  0  0  0  0  0  0  0
  1  2  1  0
  1  3  2  0
  1  4  1  0
  4  5  1  0
  4  6  1  0
  5  7  1  0
  6  8  1  0
  7  9  1  0
  8  9  1  0
  9 10  1  0
 10 11  1  0
 11 12  2  0
 11 13  1  0
 12 14  1  0
 13 15  1  0
 14 15  2  0
 15 16  1  0
M  END
