x1334_0-x0397_0-x1385_1-x0770_1-x0692_1-x0426_1-x1374_1-x1334_1-x1386_1-x0831_1-x0434_2-x0831_0
     RDKit          3D

 44 49  0  0  0  0  0  0  0  0999 V2000
    2.1690   -7.8080   23.3280 O   0  0  0  0  0  0  0  0  0  0  0  0
    2.4720   -8.0730   24.6810 C   0  0  0  0  0  0  0  0  0  0  0  0
    3.8630   -7.9550   24.8570 O   0  0  0  0  0  0  0  0  0  0  0  0
    4.3850   -7.1830   23.7870 C   0  0  0  0  0  0  0  0  0  0  0  0
    4.8500   -5.9620   24.2320 C   0  0  0  0  0  0  0  0  0  0  0  0
    5.9230   -5.5370   23.2840 C   0  0  2  0  0  0  0  0  0  0  0  0
    5.8430   -4.4390   22.4130 C   0  0  2  0  0  0  0  0  0  0  0  0
    6.0410   -5.9680   21.9070 C   0  0  0  0  0  0  0  0  0  0  0  0
    6.9120   -3.3720   22.2450 C   0  0  2  0  0  0  0  0  0  0  0  0
    7.3380   -2.8440   23.5770 C   0  0  0  0  0  0  0  0  0  0  0  0
    6.7050   -2.3120   21.1540 C   0  0  1  0  0  0  0  0  0  0  0  0
    6.4630   -3.0320   19.7810 C   0  0  0  0  0  0  0  0  0  0  0  0
    5.9040   -1.0310   21.4190 C   0  0  2  0  0  0  0  0  0  0  0  0
    8.6820   -2.2580   23.3610 N   0  0  0  0  0  0  0  0  0  0  0  0
    8.0570   -1.5630   21.1250 C   0  0  0  0  0  0  0  0  0  0  0  0
    7.4570   -2.9240   18.6480 C   0  0  0  0  0  0  0  0  0  0  0  0
    5.4880   -3.8040   19.6180 O   0  0  0  0  0  0  0  0  0  0  0  0
    4.7870   -1.0260   22.4840 C   0  0  0  0  0  0  0  0  0  0  0  0
    9.6560   -3.1800   23.9250 C   0  0  1  0  0  0  0  0  0  0  0  0
    9.0770   -2.0890   21.9260 C   0  0  0  0  0  0  0  0  0  0  0  0
    5.6300   -0.1340   20.1930 C   0  0  0  0  0  0  0  0  0  0  0  0
    4.6620    0.2430   23.3080 C   0  0  0  0  0  0  0  0  0  0  0  0
   10.9760   -2.5760   24.3460 C   0  0  0  0  0  0  0  0  0  0  0  0
    4.6170    0.8330   20.0710 C   0  0  0  0  0  0  0  0  0  0  0  0
    6.4350   -0.2550   19.1000 C   0  0  0  0  0  0  0  0  0  0  0  0
    9.1100   -3.9790   25.1350 C   0  0  0  0  0  0  0  0  0  0  0  0
    4.3590    1.5060   22.4580 C   0  0  1  0  0  0  0  0  0  0  0  0
    3.6500    1.1120   21.1520 C   0  0  0  0  0  0  0  0  0  0  0  0
    4.5660    1.5750   18.7800 C   0  0  0  0  0  0  0  0  0  0  0  0
    6.3860    0.4270   17.9200 N   0  0  0  0  0  0  0  0  0  0  0  0
    9.7880   -5.2970   25.2970 C   0  0  0  0  0  0  0  0  0  0  0  0
    7.9430   -3.7430   26.3290 S   0  0  0  0  0  0  0  0  0  0  0  0
   11.1970   -1.1390   24.0880 C   0  0  0  0  0  0  0  0  0  0  0  0
    3.5380    2.4190   23.2310 N   0  0  0  0  0  0  0  0  0  0  0  0
    5.4180    1.3430   17.8100 C   0  0  0  0  0  0  0  0  0  0  0  0
    9.3180   -6.1010   26.4390 C   0  0  0  0  0  0  0  0  0  0  0  0
    8.2360   -5.2590   27.0910 C   0  0  0  0  0  0  0  0  0  0  0  0
   10.4640   -0.0660   24.5980 C   0  0  0  0  0  0  0  0  0  0  0  0
   12.3510   -0.8300   23.1710 C   0  0  0  0  0  0  0  0  0  0  0  0
    7.3140   -5.6720   28.4690 Cl  0  0  0  0  0  0  0  0  0  0  0  0
   13.1710   -1.9150   22.5570 C   0  0  0  0  0  0  0  0  0  0  0  0
   10.8700    1.3600   24.2130 C   0  0  0  0  0  0  0  0  0  0  0  0
   12.6800    0.4770   22.8720 C   0  0  0  0  0  0  0  0  0  0  0  0
   11.9610    1.5270   23.3790 C   0  0  0  0  0  0  0  0  0  0  0  0
  1  2  1  0
  2  3  1  0
  3  4  1  0
  4  5  1  0
  6  5  1  6
  6  7  1  0
  6  8  1  0
  7  8  1  6
  7  9  1  0
  9 10  1  1
  9 11  1  0
 11 12  1  6
 11 13  1  0
 10 14  1  0
 11 15  1  0
 12 16  1  0
 12 17  2  0
 13 18  1  6
 14 19  1  0
 14 20  1  0
 15 20  1  0
 13 21  1  0
 18 22  1  0
 19 23  1  1
 21 24  2  0
 21 25  1  0
 19 26  1  0
 22 27  1  0
 24 28  1  0
 27 28  1  0
 24 29  1  0
 25 30  2  0
 26 31  2  0
 26 32  1  0
 23 33  1  0
 27 34  1  1
 29 35  2  0
 30 35  1  0
 31 36  1  0
 32 37  1  0
 36 37  2  0
 33 38  2  0
 33 39  1  0
 37 40  1  0
 39 41  1  0
 38 42  1  0
 39 43  2  0
 42 44  2  0
 43 44  1  0
M  END
