x1334_1-x1375_1-x0831_1-x1412_1-x0692_1-x1334_0-x0397_0-x0831_0-x0434_2
     RDKit          3D

 38 42  0  0  0  0  0  0  0  0999 V2000
    2.6820   -7.5800   23.5960 O   0  0  0  0  0  0  0  0  0  0  0  0
    3.2740   -7.0910   24.7860 C   0  0  0  0  0  0  0  0  0  0  0  0
    4.6880   -7.1220   24.7550 O   0  0  0  0  0  0  0  0  0  0  0  0
    5.2610   -5.8520   24.4010 C   0  0  0  0  0  0  0  0  0  0  0  0
    5.2890   -5.7930   22.9020 C   0  0  1  0  0  0  0  0  0  0  0  0
    5.6580   -4.7230   22.0310 C   0  0  2  0  0  0  0  0  0  0  0  0
    6.2820   -6.2620   22.2300 C   0  0  0  0  0  0  0  0  0  0  0  0
    6.4650   -3.4580   22.3520 C   0  0  2  0  0  0  0  0  0  0  0  0
    6.6160   -2.6590   21.1120 N   0  0  0  0  0  0  0  0  0  0  0  0
    7.6850   -3.7610   22.9630 C   0  0  0  0  0  0  0  0  0  0  0  0
    6.3720   -3.2740   19.8740 C   0  0  0  0  0  0  0  0  0  0  0  0
    8.5540   -2.6150   23.2910 N   0  0  0  0  0  0  0  0  0  0  0  0
    7.7410   -1.6820   21.1010 C   0  0  1  0  0  0  0  0  0  0  0  0
    7.3070   -2.9950   18.7190 C   0  0  0  0  0  0  0  0  0  0  0  0
    5.4280   -4.0650   19.6930 O   0  0  0  0  0  0  0  0  0  0  0  0
    9.6400   -3.0830   23.9830 C   0  0  1  0  0  0  0  0  0  0  0  0
    7.0920   -0.3720   21.2310 N   0  0  0  0  0  0  0  0  0  0  0  0
    8.9010   -1.8490   22.0970 C   0  0  0  0  0  0  0  0  0  0  0  0
   10.2790   -1.9690   24.7680 C   0  0  0  0  0  0  0  0  0  0  0  0
    9.2800   -4.0880   25.0470 C   0  0  0  0  0  0  0  0  0  0  0  0
    6.4590    0.2000   20.1430 C   0  0  0  0  0  0  0  0  0  0  0  0
    9.8530   -5.3670   25.2940 C   0  0  0  0  0  0  0  0  0  0  0  0
    7.9970   -3.8090   26.2680 S   0  0  0  0  0  0  0  0  0  0  0  0
   11.0730   -0.8580   24.0990 C   0  0  0  0  0  0  0  0  0  0  0  0
    6.9460    0.0790   18.8330 C   0  0  0  0  0  0  0  0  0  0  0  0
    5.2860    0.9330   20.3420 C   0  0  0  0  0  0  0  0  0  0  0  0
    9.3630   -6.0900   26.3400 C   0  0  0  0  0  0  0  0  0  0  0  0
    8.2470   -5.3510   27.0650 C   0  0  0  0  0  0  0  0  0  0  0  0
   10.4830    0.4700   24.4540 C   0  0  0  0  0  0  0  0  0  0  0  0
   12.2170   -0.9410   23.2650 C   0  0  0  0  0  0  0  0  0  0  0  0
    6.3740    0.6300   17.7440 N   0  0  0  0  0  0  0  0  0  0  0  0
    4.6920    1.4970   19.2130 C   0  0  0  0  0  0  0  0  0  0  0  0
    7.3190   -5.8230   28.4210 Cl  0  0  0  0  0  0  0  0  0  0  0  0
   12.8320   -2.2420   22.8770 C   0  0  0  0  0  0  0  0  0  0  0  0
   11.0230    1.5990   24.0050 C   0  0  0  0  0  0  0  0  0  0  0  0
   12.7380    0.2050   22.8370 C   0  0  0  0  0  0  0  0  0  0  0  0
    5.2580    1.3250   17.9710 C   0  0  0  0  0  0  0  0  0  0  0  0
   12.1440    1.5730   23.2020 C   0  0  0  0  0  0  0  0  0  0  0  0
  1  2  1  0
  2  3  1  0
  3  4  1  0
  5  4  1  1
  5  6  1  0
  5  7  1  0
  6  7  1  6
  6  8  1  0
  8  9  1  0
  8 10  1  6
  9 11  1  0
 10 12  1  0
  9 13  1  0
 11 14  1  0
 11 15  2  0
 12 16  1  0
 13 17  1  1
 12 18  1  0
 13 18  1  0
 16 19  1  1
 16 20  1  0
 17 21  1  0
 20 22  2  0
 20 23  1  0
 19 24  1  0
 21 25  2  0
 21 26  1  0
 22 27  1  0
 23 28  1  0
 27 28  2  0
 24 29  2  0
 24 30  1  0
 25 31  1  0
 26 32  2  0
 28 33  1  0
 30 34  1  0
 29 35  1  0
 30 36  2  0
 31 37  2  0
 32 37  1  0
 35 38  2  0
 36 38  1  0
M  END
