x1336_1-x0689_1
     RDKit          3D

 21 22  0  0  0  0  0  0  0  0999 V2000
    7.4110   -1.9800   25.2860 S   0  0  0  0  0  0  0  0  0  0  0  0
    7.7920   -3.2040   24.0990 C   0  0  0  0  0  0  0  0  0  0  0  0
    6.6000   -3.8530   23.3980 C   0  0  2  0  0  0  0  0  0  0  0  0
    8.4870   -1.0090   25.3200 O   0  0  0  0  0  0  0  0  0  0  0  0
    5.9950   -1.6860   25.3230 O   0  0  0  0  0  0  0  0  0  0  0  0
    7.7840   -3.3430   26.3240 C   0  0  0  0  0  0  0  0  0  0  0  0
    6.7130   -3.7950   27.3170 C   0  0  0  0  0  0  0  0  0  0  0  0
    9.0350   -3.9880   26.2220 C   0  0  0  0  0  0  0  0  0  0  0  0
   10.1160   -3.5590   25.2670 C   0  0  0  0  0  0  0  0  0  0  0  0
    6.9620   -4.9730   28.2310 C   0  0  0  0  0  0  0  0  0  0  0  0
    9.3080   -5.0790   27.0390 C   0  0  0  0  0  0  0  0  0  0  0  0
    5.7580   -4.6520   24.1000 N   0  0  0  0  0  0  0  0  0  0  0  0
    7.2560   -4.7120   22.3870 C   0  0  0  0  0  0  0  0  0  0  0  0
    5.8950   -5.4020   29.1980 C   0  0  0  0  0  0  0  0  0  0  0  0
    8.3190   -5.6310   28.0660 C   0  0  0  0  0  0  0  0  0  0  0  0
    4.8380   -5.3020   23.2170 C   0  0  0  0  0  0  0  0  0  0  0  0
    6.4720   -5.3580   21.4240 N   0  0  0  0  0  0  0  0  0  0  0  0
    6.1250   -4.5200   20.3760 C   0  0  0  0  0  0  0  0  0  0  0  0
    5.5050   -6.1120   22.2200 C   0  0  0  0  0  0  0  0  0  0  0  0
    7.0460   -3.4280   19.8210 C   0  0  0  0  0  0  0  0  0  0  0  0
    5.0490   -4.6300   19.8550 O   0  0  0  0  0  0  0  0  0  0  0  0
  1  2  1  0
  3  2  1  1
  1  4  2  0
  1  5  2  0
  1  6  1  0
  6  7  2  0
  6  8  1  0
  8  9  1  0
  7 10  1  0
  8 11  2  0
  3 12  1  0
  3 13  1  0
 10 14  1  0
 10 15  2  0
 11 15  1  0
 12 16  1  0
 13 17  1  0
 17 18  1  0
 16 19  1  0
 17 19  1  0
 18 20  1  0
 18 21  2  0
M  END
