x1334_1-x1334_0-x0981_1-x0434_2-x1412_0
     RDKit          3D

 37 39  0  0  0  0  0  0  0  0999 V2000
    4.1470   -5.2980   23.2180 C   0  0  0  0  0  0  0  0  0  0  0  0
    2.8040   -5.9910   23.5210 C   0  0  1  0  0  0  0  0  0  0  0  0
    2.5470   -7.2570   22.8110 N   0  0  0  0  0  0  0  0  0  0  0  0
    4.4190   -4.0620   23.5440 N   0  0  0  0  0  0  0  0  0  0  0  0
    2.7540   -6.2410   25.0300 C   0  0  0  0  0  0  0  0  0  0  0  0
    5.6470   -3.2720   23.3120 C   0  0  0  0  0  0  0  0  0  0  0  0
    1.3550   -7.4430   22.1300 C   0  0  0  0  0  0  0  0  0  0  0  0
    3.1550   -7.6610   25.2780 C   0  0  0  0  0  0  0  0  0  0  0  0
    6.4600   -3.7430   22.2600 C   0  0  1  0  0  0  0  0  0  0  0  0
    1.2450   -8.7330   21.3590 C   0  0  0  0  0  0  0  0  0  0  0  0
    0.4530   -6.6100   22.1320 O   0  0  0  0  0  0  0  0  0  0  0  0
    2.5400   -8.3150   26.3070 N   0  0  0  0  0  0  0  0  0  0  0  0
    3.9940   -8.1830   24.5790 O   0  0  0  0  0  0  0  0  0  0  0  0
    6.5960   -2.8110   21.0950 N   0  0  0  0  0  0  0  0  0  0  0  0
    7.6750   -4.0840   22.7910 C   0  0  0  0  0  0  0  0  0  0  0  0
    6.3370   -3.3900   19.8540 C   0  0  0  0  0  0  0  0  0  0  0  0
    8.4370   -2.8940   23.1780 N   0  0  0  0  0  0  0  0  0  0  0  0
    7.6860   -1.7850   21.1010 C   0  0  1  0  0  0  0  0  0  0  0  0
    7.3230   -3.0500   18.7300 C   0  0  0  0  0  0  0  0  0  0  0  0
    5.3820   -4.1470   19.7020 O   0  0  0  0  0  0  0  0  0  0  0  0
    9.3430   -2.9390   24.3240 C   0  0  1  0  0  0  0  0  0  0  0  0
    7.0720   -0.4720   21.2840 N   0  0  0  0  0  0  0  0  0  0  0  0
    8.8590   -2.0630   22.0640 C   0  0  0  0  0  0  0  0  0  0  0  0
    9.1920   -1.5960   24.9850 C   0  0  0  0  0  0  0  0  0  0  0  0
    9.1010   -4.0440   25.3090 C   0  0  0  0  0  0  0  0  0  0  0  0
    6.4050    0.1570   20.2360 C   0  0  0  0  0  0  0  0  0  0  0  0
    8.1220   -1.0280   25.2010 O   0  0  0  0  0  0  0  0  0  0  0  0
    9.7710   -5.2590   25.4120 C   0  0  0  0  0  0  0  0  0  0  0  0
    7.8890   -3.8950   26.4930 S   0  0  0  0  0  0  0  0  0  0  0  0
    6.9000    0.0880   18.9220 C   0  0  0  0  0  0  0  0  0  0  0  0
    5.1500    0.9470   20.3140 C   0  0  0  0  0  0  0  0  0  0  0  0
    9.3290   -6.0710   26.4310 C   0  0  0  0  0  0  0  0  0  0  0  0
    8.2900   -5.4870   27.1420 C   0  0  0  0  0  0  0  0  0  0  0  0
    6.4070    0.6320   17.7750 N   0  0  0  0  0  0  0  0  0  0  0  0
    4.6450    1.4990   19.1440 C   0  0  0  0  0  0  0  0  0  0  0  0
    7.3930   -6.0580   28.4750 Cl  0  0  0  0  0  0  0  0  0  0  0  0
    5.2760    1.3320   17.9330 C   0  0  0  0  0  0  0  0  0  0  0  0
  2  1  1  6
  2  3  1  0
  1  4  2  3
  2  5  1  0
  4  6  1  0
  3  7  1  0
  5  8  1  0
  9  6  1  1
  7 10  1  0
  7 11  2  0
  8 12  1  0
  8 13  2  0
  9 14  1  0
  9 15  1  0
 14 16  1  0
 15 17  1  0
 14 18  1  0
 16 19  1  0
 16 20  2  0
 17 21  1  0
 18 22  1  1
 17 23  1  0
 18 23  1  0
 21 24  1  1
 21 25  1  0
 22 26  1  0
 24 27  2  0
 25 28  2  0
 25 29  1  0
 26 30  2  0
 26 31  1  0
 28 32  1  0
 29 33  1  0
 32 33  2  0
 30 34  1  0
 31 35  2  0
 33 36  1  0
 34 37  2  0
 35 37  1  0
M  END
