x1336_1-x0434_1
     RDKit          3D

 22 23  0  0  0  0  0  0  0  0999 V2000
    7.3580   -2.0370   25.3360 S   0  0  2  0  0  0  0  0  0  0  0  0
    8.6820   -1.3230   25.1160 N   0  0  0  0  0  0  0  0  0  0  0  0
    8.9870   -1.1760   23.8120 C   0  0  0  0  0  0  0  0  0  0  0  0
    6.3860   -1.2170   26.0150 O   0  0  0  0  0  0  0  0  0  0  0  0
    7.7270   -3.4510   26.3080 C   0  0  0  0  0  0  0  0  0  0  0  0
    6.6940   -3.9300   27.2860 C   0  0  0  0  0  0  0  0  0  0  0  0
    8.9390   -4.1240   26.1940 C   0  0  0  0  0  0  0  0  0  0  0  0
   10.0300   -3.7100   25.2480 C   0  0  0  0  0  0  0  0  0  0  0  0
    8.1080   -0.1020   23.2070 C   0  0  0  0  0  0  0  0  0  0  0  0
    6.9770   -5.1430   28.1350 C   0  0  0  0  0  0  0  0  0  0  0  0
    9.1450   -5.2360   27.0050 C   0  0  0  0  0  0  0  0  0  0  0  0
    5.9800   -5.6650   29.1190 C   0  0  0  0  0  0  0  0  0  0  0  0
    8.2750    0.0740   21.7190 C   0  0  0  0  0  0  0  0  0  0  0  0
    8.2130   -5.7270   27.9340 C   0  0  0  0  0  0  0  0  0  0  0  0
    9.1930    0.7490   21.2850 O   0  0  0  0  0  0  0  0  0  0  0  0
    7.3180   -0.5560   21.0020 N   0  0  0  0  0  0  0  0  0  0  0  0
    6.5970    0.0570   19.9840 C   0  0  0  0  0  0  0  0  0  0  0  0
    6.9620   -0.0310   18.6660 C   0  0  0  0  0  0  0  0  0  0  0  0
    5.4410    0.8170   20.3090 C   0  0  0  0  0  0  0  0  0  0  0  0
    6.2450    0.6160   17.5860 N   0  0  0  0  0  0  0  0  0  0  0  0
    4.6640    1.4870   19.3480 C   0  0  0  0  0  0  0  0  0  0  0  0
    5.1210    1.3470   18.0440 C   0  0  0  0  0  0  0  0  0  0  0  0
  1  2  2  0
  2  3  1  0
  1  4  2  0
  1  5  1  1
  5  6  2  0
  5  7  1  0
  7  8  1  0
  3  9  1  0
  6 10  1  0
  7 11  2  0
 10 12  1  0
  9 13  1  0
 10 14  2  0
 11 14  1  0
 13 15  2  0
 13 16  1  0
 16 17  1  0
 17 18  2  0
 17 19  1  0
 18 20  1  0
 19 21  2  0
 20 22  2  0
 21 22  1  0
M  END
