x1334_0-x1334_1-x0831_0-x1412_1-x1418_1-x0397_0-x0770_1-x0434_2
     RDKit          3D

 34 38  0  0  0  0  0  0  0  0999 V2000
    6.3420   -3.3530   19.8940 C   0  0  0  0  0  0  0  0  0  0  0  0
    7.2950   -3.0280   18.7470 C   0  0  0  0  0  0  0  0  0  0  0  0
    5.4010   -4.1380   19.7160 O   0  0  0  0  0  0  0  0  0  0  0  0
    6.5820   -2.7680   21.1370 N   0  0  0  0  0  0  0  0  0  0  0  0
    7.6960   -1.7790   21.1220 C   0  0  1  0  0  0  0  0  0  0  0  0
    6.3050   -3.4170   22.4320 C   0  0  2  0  0  0  0  0  0  0  0  0
    7.0200   -0.5010   21.2780 N   0  0  0  0  0  0  0  0  0  0  0  0
    8.8520   -2.0240   22.1280 C   0  0  0  0  0  0  0  0  0  0  0  0
    7.6220   -3.7150   23.1460 C   0  0  0  0  0  0  0  0  0  0  0  0
    5.5160   -4.7250   22.3020 C   0  0  0  0  0  0  0  0  0  0  0  0
    8.3470   -2.4840   23.3310 N   0  0  0  0  0  0  0  0  0  0  0  0
    5.9880   -6.0520   22.9930 C   0  0  0  0  0  0  0  0  0  0  0  0
    6.1110   -6.0720   21.7560 C   0  0  0  0  0  0  0  0  0  0  0  0
    6.4390    0.1020   20.1530 C   0  0  0  0  0  0  0  0  0  0  0  0
    9.2700   -2.6160   24.4560 C   0  0  2  0  0  0  0  0  0  0  0  0
    6.9210    0.0450   18.9050 C   0  0  0  0  0  0  0  0  0  0  0  0
    5.2680    0.8110   20.3590 C   0  0  0  0  0  0  0  0  0  0  0  0
   10.7440   -2.5940   24.0230 C   0  0  0  0  0  0  0  0  0  0  0  0
    9.0370   -3.8040   25.3870 C   0  0  0  0  0  0  0  0  0  0  0  0
    6.3960    0.6180   17.8010 N   0  0  0  0  0  0  0  0  0  0  0  0
    4.6080    1.4880   19.1440 C   0  0  0  0  0  0  0  0  0  0  0  0
    9.8010   -5.0920   25.4390 C   0  0  0  0  0  0  0  0  0  0  0  0
    7.7870   -3.8300   26.5890 S   0  0  0  0  0  0  0  0  0  0  0  0
   11.2450   -1.1630   23.7890 C   0  0  0  0  0  0  0  0  0  0  0  0
    5.2600    1.3240   17.9320 C   0  0  0  0  0  0  0  0  0  0  0  0
    9.3740   -5.9530   26.3760 C   0  0  0  0  0  0  0  0  0  0  0  0
    8.1860   -5.3940   27.1730 C   0  0  0  0  0  0  0  0  0  0  0  0
   10.5570   -0.0960   24.3740 C   0  0  0  0  0  0  0  0  0  0  0  0
   12.3430   -0.8460   23.0280 C   0  0  0  0  0  0  0  0  0  0  0  0
    7.2740   -6.0570   28.4560 Cl  0  0  0  0  0  0  0  0  0  0  0  0
   13.1730   -1.8640   22.3150 C   0  0  0  0  0  0  0  0  0  0  0  0
   10.9510    1.2240   24.2080 C   0  0  0  0  0  0  0  0  0  0  0  0
   12.7780    0.4610   22.8510 C   0  0  0  0  0  0  0  0  0  0  0  0
   12.0780    1.5130   23.4420 C   0  0  0  0  0  0  0  0  0  0  0  0
  1  2  1  0
  1  3  2  0
  1  4  1  0
  4  5  1  0
  4  6  1  0
  5  7  1  1
  5  8  1  0
  6  9  1  0
  6 10  1  6
  8 11  1  0
  9 11  1  0
 10 12  1  0
 10 13  1  0
 12 13  1  0
  7 14  1  0
 11 15  1  0
 14 16  2  0
 14 17  1  0
 15 18  1  6
 15 19  1  0
 16 20  1  0
 17 21  2  0
 19 22  2  0
 19 23  1  0
 18 24  1  0
 20 25  2  0
 21 25  1  0
 22 26  1  0
 23 27  1  0
 26 27  2  0
 24 28  2  0
 24 29  1  0
 27 30  1  0
 29 31  1  0
 28 32  1  0
 29 33  2  0
 32 34  2  0
 33 34  1  0
M  END
