x1334_1-x0831_1-x0831_0-x1334_0-x0397_0-x0770_1-x1418_1-x0434_2
     RDKit          3D

 34 38  0  0  0  0  0  0  0  0999 V2000
    6.2570   -3.3430   19.9290 C   0  0  0  0  0  0  0  0  0  0  0  0
    7.2280   -3.0390   18.7940 C   0  0  0  0  0  0  0  0  0  0  0  0
    5.3710   -4.1970   19.7510 O   0  0  0  0  0  0  0  0  0  0  0  0
    6.4720   -2.6290   21.1050 N   0  0  0  0  0  0  0  0  0  0  0  0
    7.3310   -1.4950   20.8330 C   0  0  1  0  0  0  0  0  0  0  0  0
    6.3180   -3.2480   22.3170 C   0  0  2  0  0  0  0  0  0  0  0  0
    6.5920   -0.3220   21.0960 N   0  0  0  0  0  0  0  0  0  0  0  0
    8.4540   -1.3640   21.7990 C   0  0  0  0  0  0  0  0  0  0  0  0
    7.7350   -3.4260   22.8850 C   0  0  0  0  0  0  0  0  0  0  0  0
    5.5730   -4.5840   22.4340 C   0  0  0  0  0  0  0  0  0  0  0  0
    8.4120   -2.1150   23.0790 N   0  0  0  0  0  0  0  0  0  0  0  0
    6.1540   -5.7300   23.0910 C   0  0  0  0  0  0  0  0  0  0  0  0
    6.1510   -6.0060   21.6530 C   0  0  0  0  0  0  0  0  0  0  0  0
    6.0860    0.3230   20.0090 C   0  0  0  0  0  0  0  0  0  0  0  0
    9.8300   -2.2160   23.0240 C   0  0  2  0  0  0  0  0  0  0  0  0
    6.7370    0.2210   18.8470 C   0  0  0  0  0  0  0  0  0  0  0  0
    4.9310    1.0670   20.0770 C   0  0  0  0  0  0  0  0  0  0  0  0
   10.1350   -3.5090   23.7020 C   0  0  0  0  0  0  0  0  0  0  0  0
   10.6610   -0.8970   23.1940 C   0  0  0  0  0  0  0  0  0  0  0  0
    6.3360    0.8360   17.6260 N   0  0  0  0  0  0  0  0  0  0  0  0
    4.5020    1.6770   18.9500 C   0  0  0  0  0  0  0  0  0  0  0  0
    9.8420    0.3260   23.7810 C   0  0  0  0  0  0  0  0  0  0  0  0
   11.9670   -0.9430   22.8220 C   0  0  0  0  0  0  0  0  0  0  0  0
    9.4590   -4.1960   24.8940 C   0  0  0  0  0  0  0  0  0  0  0  0
    5.1710    1.5910   17.7180 C   0  0  0  0  0  0  0  0  0  0  0  0
   12.6750   -2.1190   22.2640 C   0  0  0  0  0  0  0  0  0  0  0  0
   10.6170    1.6630   23.9720 C   0  0  0  0  0  0  0  0  0  0  0  0
   12.6420    0.1810   22.9740 C   0  0  0  0  0  0  0  0  0  0  0  0
    9.9880   -5.4300   25.5720 C   0  0  0  0  0  0  0  0  0  0  0  0
    7.9860   -3.8190   25.7990 S   0  0  0  0  0  0  0  0  0  0  0  0
   12.0920    1.5420   23.5300 C   0  0  0  0  0  0  0  0  0  0  0  0
    9.1970   -5.8970   26.6770 C   0  0  0  0  0  0  0  0  0  0  0  0
    8.0970   -5.1350   26.9220 C   0  0  0  0  0  0  0  0  0  0  0  0
    6.9570   -5.4110   28.1650 Cl  0  0  0  0  0  0  0  0  0  0  0  0
  1  2  1  0
  1  3  2  0
  1  4  1  0
  4  5  1  0
  4  6  1  0
  5  7  1  1
  5  8  1  0
  6  9  1  0
  6 10  1  6
  8 11  1  0
  9 11  1  0
 10 12  1  0
 10 13  1  0
 12 13  1  0
  7 14  1  0
 11 15  1  0
 14 16  2  0
 14 17  1  0
 15 18  1  1
 15 19  1  0
 16 20  1  0
 17 21  2  0
 19 22  2  0
 19 23  1  0
 18 24  1  0
 20 25  2  0
 21 25  1  0
 23 26  1  0
 22 27  1  0
 23 28  2  0
 24 29  2  0
 24 30  1  0
 27 31  2  0
 28 31  1  0
 29 32  1  0
 30 33  1  0
 32 33  2  0
 33 34  1  0
M  END
