x1334_0-x0981_1-x0769_0
     RDKit          3D

 27 28  0  0  0  0  0  0  0  0999 V2000
    2.9780   -6.0460   23.3410 C   0  0  1  0  0  0  0  0  0  0  0  0
    2.7280   -7.1900   22.7640 N   0  0  0  0  0  0  0  0  0  0  0  0
    1.4570   -7.4310   22.1860 C   0  0  0  0  0  0  0  0  0  0  0  0
    2.7400   -6.2800   24.8400 C   0  0  0  0  0  0  0  0  0  0  0  0
    4.4350   -5.4320   23.0950 C   0  0  1  0  0  0  0  0  0  0  0  0
    3.1310   -7.6800   25.1980 C   0  0  0  0  0  0  0  0  0  0  0  0
    5.0880   -5.0860   24.3790 N   0  0  0  0  0  0  0  0  0  0  0  0
    5.4430   -6.0830   22.1480 C   0  0  0  0  0  0  0  0  0  0  0  0
    4.5580   -3.7780   24.6870 O   0  0  0  0  0  0  0  0  0  0  0  0
    1.2710   -8.7170   21.4110 C   0  0  0  0  0  0  0  0  0  0  0  0
    0.5460   -6.6060   22.2960 O   0  0  0  0  0  0  0  0  0  0  0  0
    2.4800   -8.2840   26.2370 N   0  0  0  0  0  0  0  0  0  0  0  0
    4.0050   -8.2200   24.5680 O   0  0  0  0  0  0  0  0  0  0  0  0
    6.4810   -5.0920   21.7850 N   0  0  0  0  0  0  0  0  0  0  0  0
    6.5390   -4.8700   24.2590 C   0  0  0  0  0  0  0  0  0  0  0  0
    6.5710   -4.4050   20.5860 C   0  0  0  0  0  0  0  0  0  0  0  0
    6.9370   -4.2450   22.9080 C   0  0  1  0  0  0  0  0  0  0  0  0
    5.5940   -4.3490   19.8460 O   0  0  0  0  0  0  0  0  0  0  0  0
    7.9370   -3.7050   20.3190 C   0  0  0  0  0  0  0  0  0  0  0  0
    8.4480   -3.9940   22.7000 C   0  0  0  0  0  0  0  0  0  0  0  0
    9.2240   -3.3910   23.8470 C   0  0  0  0  0  0  0  0  0  0  0  0
    9.0760   -4.2910   25.0120 C   0  0  0  0  0  0  0  0  0  0  0  0
    9.7090   -5.4840   25.2170 C   0  0  0  0  0  0  0  0  0  0  0  0
    8.0040   -3.8870   26.2850 S   0  0  0  0  0  0  0  0  0  0  0  0
    9.3320   -6.0940   26.3940 C   0  0  0  0  0  0  0  0  0  0  0  0
    8.3830   -5.3210   27.0720 C   0  0  0  0  0  0  0  0  0  0  0  0
    7.6040   -5.6780   28.5400 Cl  0  0  0  0  0  0  0  0  0  0  0  0
  1  2  1  0
  2  3  1  0
  1  4  1  1
  1  5  1  0
  4  6  1  0
  5  7  1  0
  5  8  1  1
  7  9  1  0
  3 10  1  0
  3 11  2  0
  6 12  1  0
  6 13  2  0
  8 14  1  0
  7 15  1  0
 14 16  1  0
 14 17  1  0
 15 17  1  0
 16 18  2  0
 16 19  1  0
 17 20  1  1
 20 21  1  0
 21 22  1  0
 22 23  2  0
 22 24  1  0
 23 25  1  0
 24 26  1  0
 25 26  2  0
 26 27  1  0
M  END
