x1334_1-x1375_1-x0434_2-x1374_1-x0692_1-x0831_0-x1334_0-x1412_1-x0397_0-x1385_1-x1386_1-x0770_1-x1418_1
     RDKit          3D

 38 42  0  0  0  0  0  0  0  0999 V2000
    2.9470   -8.1070   24.3350 O   0  0  0  0  0  0  0  0  0  0  0  0
    3.4760   -6.8070   24.3170 C   0  0  0  0  0  0  0  0  0  0  0  0
    4.8180   -6.9190   24.7210 O   0  0  0  0  0  0  0  0  0  0  0  0
    5.5130   -5.6730   24.6630 C   0  0  0  0  0  0  0  0  0  0  0  0
    6.2370   -5.6050   23.3430 C   0  0  2  0  0  0  0  0  0  0  0  0
    5.8280   -4.7210   22.3930 C   0  0  2  0  0  0  0  0  0  0  0  0
    5.7840   -6.3270   22.2410 C   0  0  0  0  0  0  0  0  0  0  0  0
    7.0840   -3.8520   21.9980 C   0  0  1  0  0  0  0  0  0  0  0  0
    6.7340   -2.7890   21.0420 N   0  0  0  0  0  0  0  0  0  0  0  0
    7.8590   -3.3870   23.2500 C   0  0  0  0  0  0  0  0  0  0  0  0
    6.3730   -3.3000   19.7920 C   0  0  0  0  0  0  0  0  0  0  0  0
    8.8090   -2.2790   23.0240 N   0  0  0  0  0  0  0  0  0  0  0  0
    7.7350   -1.7300   20.9060 C   0  0  1  0  0  0  0  0  0  0  0  0
    7.3500   -3.0350   18.6840 C   0  0  0  0  0  0  0  0  0  0  0  0
    5.3610   -3.9860   19.6180 O   0  0  0  0  0  0  0  0  0  0  0  0
    9.9840   -2.3420   23.6900 C   0  0  2  0  0  0  0  0  0  0  0  0
    7.0930   -0.4660   21.2410 N   0  0  0  0  0  0  0  0  0  0  0  0
    9.0610   -1.9620   21.6520 C   0  0  0  0  0  0  0  0  0  0  0  0
    9.7640   -2.4930   25.1330 C   0  0  0  0  0  0  0  0  0  0  0  0
   10.7810   -1.0370   23.5780 C   0  0  0  0  0  0  0  0  0  0  0  0
    6.4070    0.1770   20.2090 C   0  0  0  0  0  0  0  0  0  0  0  0
   10.1050    0.2080   24.2320 C   0  0  0  0  0  0  0  0  0  0  0  0
   12.0600   -0.9130   22.9240 C   0  0  0  0  0  0  0  0  0  0  0  0
    9.4210   -3.8280   25.7150 C   0  0  0  0  0  0  0  0  0  0  0  0
    6.8760    0.1300   18.9070 C   0  0  0  0  0  0  0  0  0  0  0  0
    5.1210    0.9740   20.3530 C   0  0  0  0  0  0  0  0  0  0  0  0
   12.7140   -2.0850   22.2840 C   0  0  0  0  0  0  0  0  0  0  0  0
   10.8610    1.5770   24.1400 C   0  0  0  0  0  0  0  0  0  0  0  0
   12.7560    0.2450   22.8290 C   0  0  0  0  0  0  0  0  0  0  0  0
    9.9670   -5.1910   25.5930 C   0  0  0  0  0  0  0  0  0  0  0  0
    8.0900   -3.8800   26.8300 S   0  0  0  0  0  0  0  0  0  0  0  0
    6.4170    0.6620   17.7570 N   0  0  0  0  0  0  0  0  0  0  0  0
    4.4680    1.6390   19.1490 C   0  0  0  0  0  0  0  0  0  0  0  0
   12.2890    1.5510   23.3780 C   0  0  0  0  0  0  0  0  0  0  0  0
    9.2050   -6.1500   26.5090 C   0  0  0  0  0  0  0  0  0  0  0  0
    8.1970   -5.5040   27.2020 C   0  0  0  0  0  0  0  0  0  0  0  0
    5.2140    1.4200   17.8760 C   0  0  0  0  0  0  0  0  0  0  0  0
    7.0790   -6.1010   28.3490 Cl  0  0  0  0  0  0  0  0  0  0  0  0
  1  2  1  0
  2  3  1  0
  3  4  1  0
  5  4  1  1
  5  6  1  0
  5  7  1  0
  6  7  1  6
  6  8  1  0
  8  9  1  0
  8 10  1  1
  9 11  1  0
 10 12  1  0
  9 13  1  0
 11 14  1  0
 11 15  2  0
 12 16  1  0
 13 17  1  1
 12 18  1  0
 13 18  1  0
 16 19  1  1
 16 20  1  0
 17 21  1  0
 20 22  2  0
 20 23  1  0
 19 24  1  0
 21 25  2  0
 21 26  1  0
 23 27  1  0
 22 28  1  0
 23 29  2  0
 24 30  2  0
 24 31  1  0
 25 32  1  0
 26 33  2  0
 28 34  2  0
 29 34  1  0
 30 35  1  0
 31 36  1  0
 35 36  2  0
 32 37  2  0
 33 37  1  0
 36 38  1  0
M  END
