x1334_1-x1412_0-x1334_0-x1385_1-x1412_1-x0397_0-x0692_1-x0770_1-x0831_0-x0434_2
     RDKit          3D

 36 41  0  0  0  0  0  0  0  0999 V2000
    6.4000   -3.3540   19.9460 C   0  0  0  0  0  0  0  0  0  0  0  0
    7.3790   -3.0380   18.8140 C   0  0  0  0  0  0  0  0  0  0  0  0
    5.4760   -4.1600   19.7660 O   0  0  0  0  0  0  0  0  0  0  0  0
    6.6080   -2.7070   21.1840 N   0  0  0  0  0  0  0  0  0  0  0  0
    7.9140   -2.0000   21.3350 C   0  0  1  0  0  0  0  0  0  0  0  0
    6.2050   -3.3920   22.4400 C   0  0  2  0  0  0  0  0  0  0  0  0
    8.0300   -0.7330   20.6270 N   0  0  0  0  0  0  0  0  0  0  0  0
    8.4660   -1.7050   22.7770 C   0  0  2  0  0  0  0  0  0  0  0  0
    7.4150   -3.8210   23.2350 C   0  0  0  0  0  0  0  0  0  0  0  0
    5.4040   -4.6390   22.2320 C   0  0  0  0  0  0  0  0  0  0  0  0
   10.0060   -1.9860   22.8630 C   0  0  2  0  0  0  0  0  0  0  0  0
    7.8770   -2.5770   23.8040 N   0  0  0  0  0  0  0  0  0  0  0  0
    5.8090   -5.7970   22.8100 C   0  0  0  0  0  0  0  0  0  0  0  0
    6.0230   -5.9940   21.5170 C   0  0  0  0  0  0  0  0  0  0  0  0
    6.9680   -0.0930   19.9610 C   0  0  0  0  0  0  0  0  0  0  0  0
    8.8770   -2.6320   24.8140 C   0  0  1  0  0  0  0  0  0  0  0  0
   10.1760   -2.8020   24.1240 C   0  0  0  0  0  0  0  0  0  0  0  0
   10.8750   -0.7900   23.0410 C   0  0  0  0  0  0  0  0  0  0  0  0
    7.0640   -0.0130   18.5960 C   0  0  0  0  0  0  0  0  0  0  0  0
    5.8470    0.4700   20.6050 C   0  0  0  0  0  0  0  0  0  0  0  0
    8.5570   -1.4470   25.5460 O   0  0  0  0  0  0  0  0  0  0  0  0
    8.7890   -3.7970   25.7220 C   0  0  0  0  0  0  0  0  0  0  0  0
   10.3440    0.3310   23.6590 C   0  0  0  0  0  0  0  0  0  0  0  0
   12.1850   -0.7770   22.6070 C   0  0  0  0  0  0  0  0  0  0  0  0
    6.2220    0.5580   17.7090 N   0  0  0  0  0  0  0  0  0  0  0  0
    4.7820    1.1550   19.8110 C   0  0  0  0  0  0  0  0  0  0  0  0
   12.8370   -1.9430   21.9310 C   0  0  0  0  0  0  0  0  0  0  0  0
    9.6250   -4.9020   25.7980 C   0  0  0  0  0  0  0  0  0  0  0  0
    7.4640   -3.9160   26.9140 S   0  0  0  0  0  0  0  0  0  0  0  0
   10.9000    1.7510   24.0160 C   0  0  0  0  0  0  0  0  0  0  0  0
   12.8160    0.4010   22.8480 C   0  0  0  0  0  0  0  0  0  0  0  0
    5.0240    1.1860   18.2700 C   0  0  0  0  0  0  0  0  0  0  0  0
    9.1400   -5.8070   26.8330 C   0  0  0  0  0  0  0  0  0  0  0  0
    7.9680   -5.4190   27.5360 C   0  0  0  0  0  0  0  0  0  0  0  0
   12.2640    1.5040   23.4550 C   0  0  0  0  0  0  0  0  0  0  0  0
    7.0770   -6.1640   28.7790 Cl  0  0  0  0  0  0  0  0  0  0  0  0
  1  2  1  0
  1  3  2  0
  1  4  1  0
  4  5  1  0
  4  6  1  0
  5  7  1  1
  5  8  1  0
  6  9  1  0
  6 10  1  6
  8 11  1  0
  8 12  1  1
  9 12  1  0
 10 13  1  0
 10 14  1  0
 13 14  1  0
  7 15  1  0
 12 16  1  0
 11 17  1  0
 16 17  1  0
 11 18  1  1
 15 19  2  0
 15 20  1  0
 16 21  1  1
 16 22  1  0
 18 23  2  0
 18 24  1  0
 19 25  1  0
 20 26  2  0
 24 27  1  0
 22 28  2  0
 22 29  1  0
 23 30  1  0
 24 31  2  0
 25 32  2  0
 26 32  1  0
 28 33  1  0
 29 34  1  0
 33 34  2  0
 30 35  2  0
 31 35  1  0
 34 36  1  0
M  END
