x1336_1-x1374_2
     RDKit          3D

 18 18  0  0  0  0  0  0  0  0999 V2000
    7.4770   -1.8600   25.3290 S   0  0  0  0  0  0  0  0  0  0  0  0
    7.3030   -2.8640   23.8980 C   0  0  0  0  0  0  0  0  0  0  0  0
    6.9240   -4.3320   24.0810 C   0  0  0  0  0  0  0  0  0  0  0  0
    8.6300   -1.0110   25.1600 O   0  0  0  0  0  0  0  0  0  0  0  0
    6.1790   -1.3510   25.7010 O   0  0  0  0  0  0  0  0  0  0  0  0
    7.7990   -3.3030   26.3020 C   0  0  0  0  0  0  0  0  0  0  0  0
    6.8490   -3.6790   27.2530 C   0  0  0  0  0  0  0  0  0  0  0  0
    8.9950   -4.0090   26.0830 C   0  0  0  0  0  0  0  0  0  0  0  0
   10.0150   -3.5860   25.0680 C   0  0  0  0  0  0  0  0  0  0  0  0
    5.9490   -4.7550   22.9960 C   0  0  0  0  0  0  0  0  0  0  0  0
    7.0090   -4.8040   28.0720 C   0  0  0  0  0  0  0  0  0  0  0  0
    9.3290   -5.2640   26.8820 C   0  0  0  0  0  0  0  0  0  0  0  0
    5.9720   -5.0930   29.0160 C   0  0  0  0  0  0  0  0  0  0  0  0
    6.7060   -5.0690   21.7990 N   0  0  0  0  0  0  0  0  0  0  0  0
    8.2680   -5.6280   27.8960 C   0  0  0  0  0  0  0  0  0  0  0  0
    6.2820   -4.5840   20.5620 C   0  0  0  0  0  0  0  0  0  0  0  0
    5.3230   -5.0810   20.0120 O   0  0  0  0  0  0  0  0  0  0  0  0
    7.0600   -3.4530   19.9110 C   0  0  0  0  0  0  0  0  0  0  0  0
  1  2  1  0
  2  3  1  0
  1  4  2  0
  1  5  2  0
  1  6  1  0
  6  7  2  0
  6  8  1  0
  8  9  1  0
  3 10  1  0
  7 11  1  0
  8 12  2  0
 11 13  1  0
 10 14  1  0
 11 15  2  0
 12 15  1  0
 14 16  1  0
 16 17  2  0
 16 18  1  0
M  END
