x1334_1-x0426_1-x1375_1-x0692_1-x1386_1-x0831_0
     RDKit          3D

 37 41  0  0  0  0  0  0  0  0999 V2000
    6.4900   -3.2750   19.9690 C   0  0  0  0  0  0  0  0  0  0  0  0
    7.4110   -2.9430   18.8100 C   0  0  0  0  0  0  0  0  0  0  0  0
    5.5140   -4.0300   19.7540 O   0  0  0  0  0  0  0  0  0  0  0  0
    6.8040   -2.7410   21.2770 N   0  0  0  0  0  0  0  0  0  0  0  0
    7.7000   -1.6740   21.7110 C   0  0  1  0  0  0  0  0  0  0  0  0
    6.6840   -3.5720   22.4560 C   0  0  1  0  0  0  0  0  0  0  0  0
    6.2010   -4.9730   22.1840 C   0  0  0  0  0  0  0  0  0  0  0  0
    9.1410   -2.0810   21.7750 C   0  0  0  0  0  0  0  0  0  0  0  0
    8.0010   -3.6350   23.3230 C   0  0  0  0  0  0  0  0  0  0  0  0
    7.4520   -0.2780   21.2840 C   0  0  0  0  0  0  0  0  0  0  0  0
    9.2380   -2.9050   22.9440 N   0  0  0  0  0  0  0  0  0  0  0  0
    4.8480   -5.1180   22.8250 C   0  0  2  0  0  0  0  0  0  0  0  0
    5.9490    0.0250   21.2950 C   0  0  1  0  0  0  0  0  0  0  0  0
   10.0310   -2.3360   24.0150 C   0  0  0  0  0  0  0  0  0  0  0  0
    4.8600   -4.6250   24.2670 C   0  0  0  0  0  0  0  0  0  0  0  0
    4.4890   -6.5940   22.9100 C   0  0  0  0  0  0  0  0  0  0  0  0
    5.6790    1.0990   22.2120 C   0  0  0  0  0  0  0  0  0  0  0  0
    5.6970    0.5620   19.9600 C   0  0  0  0  0  0  0  0  0  0  0  0
    4.3010   -5.3480   25.2210 C   0  0  0  0  0  0  0  0  0  0  0  0
    3.7040   -6.7090   24.4730 S   0  0  0  0  0  0  0  0  0  0  0  0
   10.8490   -1.0820   23.7510 C   0  0  0  0  0  0  0  0  0  0  0  0
    4.1660    1.3120   22.2640 C   0  0  1  0  0  0  0  0  0  0  0  0
    4.5760    1.4990   19.8350 C   0  0  0  0  0  0  0  0  0  0  0  0
    6.4810    0.2170   18.8930 C   0  0  0  0  0  0  0  0  0  0  0  0
    2.1330   -6.6920   24.2460 O   0  0  0  0  0  0  0  0  0  0  0  0
    4.2220   -8.0390   25.1000 O   0  0  0  0  0  0  0  0  0  0  0  0
   10.3270    0.1230   24.2990 C   0  0  0  0  0  0  0  0  0  0  0  0
   12.0640   -1.0140   23.0190 C   0  0  0  0  0  0  0  0  0  0  0  0
    3.8600    2.0790   23.4790 N   0  0  0  0  0  0  0  0  0  0  0  0
    3.7250    1.8580   21.0040 C   0  0  0  0  0  0  0  0  0  0  0  0
    4.3140    2.0620   18.6040 C   0  0  0  0  0  0  0  0  0  0  0  0
    6.2910    0.7110   17.6830 N   0  0  0  0  0  0  0  0  0  0  0  0
   12.7650   -2.1640   22.3580 C   0  0  0  0  0  0  0  0  0  0  0  0
   10.9730    1.3530   24.1340 C   0  0  0  0  0  0  0  0  0  0  0  0
   12.6580    0.2390   22.9000 C   0  0  0  0  0  0  0  0  0  0  0  0
    5.1700    1.6630   17.5760 C   0  0  0  0  0  0  0  0  0  0  0  0
   12.1550    1.4030   23.4260 C   0  0  0  0  0  0  0  0  0  0  0  0
  1  2  1  0
  1  3  2  0
  1  4  1  0
  4  5  1  0
  4  6  1  0
  6  7  1  6
  5  8  1  0
  6  9  1  0
  5 10  1  6
  8 11  1  0
  9 11  1  0
 12  7  1  1
 13 10  1  6
 11 14  1  0
 12 15  1  0
 12 16  1  0
 13 17  1  0
 13 18  1  0
 15 19  2  0
 16 20  1  0
 19 20  1  0
 14 21  1  0
 17 22  1  0
 18 23  2  0
 18 24  1  0
 20 25  1  0
 20 26  1  0
 21 27  2  0
 21 28  1  0
 22 29  1  1
 22 30  1  0
 23 30  1  0
 23 31  1  0
 24 32  2  0
 28 33  1  0
 27 34  1  0
 28 35  2  0
 31 36  2  0
 32 36  1  0
 34 37  2  0
 35 37  1  0
M  END
