x1334_1-x0692_1-x1386_1-x0831_0-x0770_1-x0426_1-x1374_1-x1418_1-x0434_2-x0831_1-x1334_0-x1385_1-x0397_0
     RDKit          3D

 45 51  0  0  0  0  0  0  0  0999 V2000
    1.9430   -6.6260   23.9950 O   0  0  0  0  0  0  0  0  0  0  0  0
    2.8750   -7.5460   23.4900 C   0  0  0  0  0  0  0  0  0  0  0  0
    3.7820   -7.9470   24.5070 O   0  0  0  0  0  0  0  0  0  0  0  0
    5.0680   -7.3590   24.3380 C   0  0  0  0  0  0  0  0  0  0  0  0
    4.9770   -5.9950   24.1460 C   0  0  0  0  0  0  0  0  0  0  0  0
    6.0610   -5.6600   23.1870 C   0  0  2  0  0  0  0  0  0  0  0  0
    5.8960   -4.5270   22.3330 C   0  0  2  0  0  0  0  0  0  0  0  0
    6.0380   -6.1110   21.8420 C   0  0  0  0  0  0  0  0  0  0  0  0
    6.9580   -3.5370   22.0000 C   0  0  1  0  0  0  0  0  0  0  0  0
    6.6910   -2.5730   20.9190 N   0  0  0  0  0  0  0  0  0  0  0  0
    7.6040   -2.9730   23.2580 C   0  0  0  0  0  0  0  0  0  0  0  0
    6.4040   -3.2510   19.7520 C   0  0  0  0  0  0  0  0  0  0  0  0
    8.5190   -2.0250   23.0170 N   0  0  0  0  0  0  0  0  0  0  0  0
    7.8450   -1.6530   20.7150 C   0  0  1  0  0  0  0  0  0  0  0  0
    7.3720   -3.0270   18.5950 C   0  0  0  0  0  0  0  0  0  0  0  0
    5.4460   -4.0330   19.6550 O   0  0  0  0  0  0  0  0  0  0  0  0
    9.6240   -1.9800   23.9260 C   0  0  1  0  0  0  0  0  0  0  0  0
    7.4490   -0.4010   20.9170 N   0  0  0  0  0  0  0  0  0  0  0  0
    8.9510   -2.0470   21.6380 C   0  0  0  0  0  0  0  0  0  0  0  0
   10.1700   -3.3570   24.0320 C   0  0  0  0  0  0  0  0  0  0  0  0
    6.8520   -0.0550   22.2550 C   0  0  0  0  0  0  0  0  0  0  0  0
    6.6510    0.2480   19.9030 C   0  0  0  0  0  0  0  0  0  0  0  0
   10.6090   -0.8400   23.6840 C   0  0  0  0  0  0  0  0  0  0  0  0
    5.4250    0.4240   21.9930 C   0  0  2  0  0  0  0  0  0  0  0  0
    6.7160    0.4990   18.5900 N   0  0  0  0  0  0  0  0  0  0  0  0
    5.4410    0.7880   20.5140 C   0  0  0  0  0  0  0  0  0  0  0  0
   10.2030    0.6100   24.1120 C   0  0  0  0  0  0  0  0  0  0  0  0
   12.0010   -0.9810   23.0370 C   0  0  0  0  0  0  0  0  0  0  0  0
    9.6450   -4.1070   25.2120 C   0  0  0  0  0  0  0  0  0  0  0  0
    4.9690    1.5740   22.8660 C   0  0  0  0  0  0  0  0  0  0  0  0
   12.6280   -2.2310   22.5270 C   0  0  0  0  0  0  0  0  0  0  0  0
    4.4830    1.5000   19.9030 C   0  0  0  0  0  0  0  0  0  0  0  0
    5.6310    1.2940   17.9890 C   0  0  0  0  0  0  0  0  0  0  0  0
   10.9670    1.7270   23.9650 C   0  0  0  0  0  0  0  0  0  0  0  0
   12.7680    0.3520   22.9340 C   0  0  0  0  0  0  0  0  0  0  0  0
   10.2070   -5.1770   25.8790 C   0  0  0  0  0  0  0  0  0  0  0  0
    8.1300   -3.7250   26.0010 S   0  0  0  0  0  0  0  0  0  0  0  0
    3.8130    2.3860   22.2270 C   0  0  1  0  0  0  0  0  0  0  0  0
    3.3790    1.9040   20.8250 C   0  0  0  0  0  0  0  0  0  0  0  0
    4.4620    1.9040   18.4020 C   0  0  0  0  0  0  0  0  0  0  0  0
   12.3450    1.6340   23.3420 C   0  0  0  0  0  0  0  0  0  0  0  0
    9.4040   -5.6580   27.0300 C   0  0  0  0  0  0  0  0  0  0  0  0
    8.2590   -4.9540   27.1960 C   0  0  0  0  0  0  0  0  0  0  0  0
    2.8130    2.3620   23.0280 N   0  0  0  0  0  0  0  0  0  0  0  0
    7.0720   -5.1980   28.4040 Cl  0  0  0  0  0  0  0  0  0  0  0  0
  1  2  1  0
  2  3  1  0
  3  4  1  0
  4  5  1  0
  6  5  1  1
  6  7  1  0
  6  8  1  0
  7  8  1  6
  7  9  1  0
  9 10  1  0
  9 11  1  1
 10 12  1  0
 11 13  1  0
 10 14  1  0
 12 15  1  0
 12 16  2  0
 13 17  1  0
 14 18  1  1
 13 19  1  0
 14 19  1  0
 17 20  1  6
 18 21  1  0
 18 22  1  0
 17 23  1  0
 24 21  1  1
 22 25  2  0
 22 26  1  0
 24 26  1  0
 23 27  2  0
 23 28  1  0
 20 29  1  0
 24 30  1  0
 28 31  1  0
 26 32  2  0
 25 33  1  0
 27 34  1  0
 28 35  2  0
 29 36  2  0
 29 37  1  0
 30 38  1  0
 32 39  1  0
 38 39  1  0
 32 40  1  0
 33 40  2  0
 34 41  2  0
 35 41  1  0
 36 42  1  0
 37 43  1  0
 42 43  2  0
 38 44  1  1
 43 45  1  0
M  END
