x1334_1-x0831_0-x0692_1-x0770_1-x1374_1-x0397_0-x1334_0-x0831_1-x0434_2-x1385_1-x0426_1-x1412_1-x1418_1
     RDKit          3D

 45 51  0  0  0  0  0  0  0  0999 V2000
    1.5770   -6.8220   24.2090 O   0  0  0  0  0  0  0  0  0  0  0  0
    2.4560   -7.6780   23.5270 C   0  0  0  0  0  0  0  0  0  0  0  0
    3.5860   -7.8980   24.3470 O   0  0  0  0  0  0  0  0  0  0  0  0
    4.6860   -7.0450   24.0930 C   0  0  0  0  0  0  0  0  0  0  0  0
    4.3600   -5.9050   23.4180 C   0  0  0  0  0  0  0  0  0  0  0  0
    5.6710   -5.3770   22.9030 C   0  0  2  0  0  0  0  0  0  0  0  0
    5.6430   -4.3440   22.1180 C   0  0  2  0  0  0  0  0  0  0  0  0
    6.1580   -5.8860   21.8650 C   0  0  0  0  0  0  0  0  0  0  0  0
    6.5360   -3.1230   22.1890 C   0  0  2  0  0  0  0  0  0  0  0  0
    6.7240   -2.4770   20.8430 N   0  0  0  0  0  0  0  0  0  0  0  0
    7.7340   -3.3920   22.8700 C   0  0  0  0  0  0  0  0  0  0  0  0
    6.4050   -3.3070   19.7850 C   0  0  0  0  0  0  0  0  0  0  0  0
    8.6020   -2.2190   22.8450 N   0  0  0  0  0  0  0  0  0  0  0  0
    7.9150   -1.5860   20.6650 C   0  0  1  0  0  0  0  0  0  0  0  0
    7.3460   -3.0760   18.6240 C   0  0  0  0  0  0  0  0  0  0  0  0
    5.4940   -4.1530   19.7480 O   0  0  0  0  0  0  0  0  0  0  0  0
    9.5980   -2.0050   23.8990 C   0  0  1  0  0  0  0  0  0  0  0  0
    7.5510   -0.2240   20.7800 N   0  0  0  0  0  0  0  0  0  0  0  0
    9.0980   -1.9820   21.5210 C   0  0  0  0  0  0  0  0  0  0  0  0
   10.1660   -3.3410   24.2160 C   0  0  0  0  0  0  0  0  0  0  0  0
    7.2050    0.3140   22.1100 C   0  0  0  0  0  0  0  0  0  0  0  0
    6.6200    0.3510   19.9210 C   0  0  0  0  0  0  0  0  0  0  0  0
   10.4970   -0.8540   23.7160 C   0  0  0  0  0  0  0  0  0  0  0  0
    5.7410    0.5950   21.9940 C   0  0  2  0  0  0  0  0  0  0  0  0
    6.7150    0.4450   18.5350 N   0  0  0  0  0  0  0  0  0  0  0  0
    5.5580    0.8420   20.5900 C   0  0  0  0  0  0  0  0  0  0  0  0
   10.1100    0.4370   24.0820 C   0  0  0  0  0  0  0  0  0  0  0  0
   11.8180   -0.9860   23.1560 C   0  0  0  0  0  0  0  0  0  0  0  0
    9.4350   -4.0900   25.2540 C   0  0  0  0  0  0  0  0  0  0  0  0
    5.3230    1.8280   22.8220 C   0  0  0  0  0  0  0  0  0  0  0  0
   12.3960   -2.2850   22.6940 C   0  0  0  0  0  0  0  0  0  0  0  0
    4.3280    1.5570   20.0840 C   0  0  0  0  0  0  0  0  0  0  0  0
    5.6010    1.1290   17.9120 C   0  0  0  0  0  0  0  0  0  0  0  0
   11.0180    1.6630   23.9190 C   0  0  0  0  0  0  0  0  0  0  0  0
   12.7040    0.2230   23.0020 C   0  0  0  0  0  0  0  0  0  0  0  0
    9.9420   -5.4380   25.4950 C   0  0  0  0  0  0  0  0  0  0  0  0
    8.0210   -3.7640   26.3560 S   0  0  0  0  0  0  0  0  0  0  0  0
    3.9700    2.4710   22.3770 C   0  0  1  0  0  0  0  0  0  0  0  0
    3.2950    1.9990   21.0490 C   0  0  0  0  0  0  0  0  0  0  0  0
    4.4590    1.6700   18.6060 C   0  0  0  0  0  0  0  0  0  0  0  0
   12.2740    1.4170   23.3740 C   0  0  0  0  0  0  0  0  0  0  0  0
    9.2230   -6.0540   26.4890 C   0  0  0  0  0  0  0  0  0  0  0  0
    8.2000   -5.3230   27.0460 C   0  0  0  0  0  0  0  0  0  0  0  0
    3.0230    2.3600   23.4610 N   0  0  0  0  0  0  0  0  0  0  0  0
    7.1440   -5.8130   28.3050 Cl  0  0  0  0  0  0  0  0  0  0  0  0
  1  2  1  0
  2  3  1  0
  3  4  1  0
  4  5  1  0
  6  5  1  6
  6  7  1  0
  6  8  1  0
  7  8  1  6
  7  9  1  0
  9 10  1  0
  9 11  1  6
 10 12  1  0
 11 13  1  0
 10 14  1  0
 12 15  1  0
 12 16  2  0
 13 17  1  0
 14 18  1  1
 13 19  1  0
 14 19  1  0
 17 20  1  6
 18 21  1  0
 18 22  1  0
 17 23  1  0
 24 21  1  6
 22 25  2  0
 22 26  1  0
 24 26  1  0
 23 27  2  0
 23 28  1  0
 20 29  1  0
 24 30  1  0
 28 31  1  0
 26 32  2  0
 25 33  1  0
 27 34  1  0
 28 35  2  0
 29 36  2  0
 29 37  1  0
 30 38  1  0
 32 39  1  0
 38 39  1  0
 32 40  1  0
 33 40  2  0
 34 41  2  0
 35 41  1  0
 36 42  1  0
 37 43  1  0
 42 43  2  0
 38 44  1  1
 43 45  1  0
M  END
