x1334_0-x1418_1-x0831_0-x1334_1-x1412_1-x0397_0-x1385_1-x0770_1-x0434_2-x0831_1
     RDKit          3D

 34 38  0  0  0  0  0  0  0  0999 V2000
    6.4440   -3.2830   19.8350 C   0  0  0  0  0  0  0  0  0  0  0  0
    7.3740   -3.0310   18.6730 C   0  0  0  0  0  0  0  0  0  0  0  0
    5.4830   -4.0600   19.7070 O   0  0  0  0  0  0  0  0  0  0  0  0
    6.7970   -2.6060   20.9950 N   0  0  0  0  0  0  0  0  0  0  0  0
    6.9600   -3.4970   22.1500 C   0  0  1  0  0  0  0  0  0  0  0  0
    7.8590   -1.5830   20.9830 C   0  0  2  0  0  0  0  0  0  0  0  0
    7.1870   -2.6620   23.4250 C   0  0  0  0  0  0  0  0  0  0  0  0
    8.9670   -1.7630   22.0550 C   0  0  0  0  0  0  0  0  0  0  0  0
    5.8090   -4.5410   22.2710 C   0  0  0  0  0  0  0  0  0  0  0  0
    7.3120   -0.2340   20.7920 C   0  0  0  0  0  0  0  0  0  0  0  0
    8.5760   -2.2650   23.4310 N   0  0  0  0  0  0  0  0  0  0  0  0
    6.2180   -5.4490   23.0350 C   0  0  0  0  0  0  0  0  0  0  0  0
    5.9570   -6.0070   21.7250 C   0  0  0  0  0  0  0  0  0  0  0  0
    7.0710    0.1160   19.4410 C   0  0  0  0  0  0  0  0  0  0  0  0
    9.3880   -3.3080   23.7610 C   0  0  1  0  0  0  0  0  0  0  0  0
    5.9020    0.4470   20.3850 C   0  0  0  0  0  0  0  0  0  0  0  0
    6.5380    0.5710   18.2280 N   0  0  0  0  0  0  0  0  0  0  0  0
   10.8290   -2.7930   23.9510 C   0  0  0  0  0  0  0  0  0  0  0  0
    8.9630   -4.1390   24.9790 C   0  0  0  0  0  0  0  0  0  0  0  0
    5.3590    1.1480   17.9320 C   0  0  0  0  0  0  0  0  0  0  0  0
    4.6760    1.0280   20.1300 C   0  0  0  0  0  0  0  0  0  0  0  0
    9.7270   -5.2670   25.3270 C   0  0  0  0  0  0  0  0  0  0  0  0
    7.6580   -3.9560   26.0810 S   0  0  0  0  0  0  0  0  0  0  0  0
   11.1000   -1.3060   23.8410 C   0  0  0  0  0  0  0  0  0  0  0  0
    4.4090    1.3880   18.8600 C   0  0  0  0  0  0  0  0  0  0  0  0
    9.2700   -5.9350   26.4410 C   0  0  0  0  0  0  0  0  0  0  0  0
    8.1840   -5.4110   27.0070 C   0  0  0  0  0  0  0  0  0  0  0  0
   10.3510   -0.0900   24.4230 C   0  0  0  0  0  0  0  0  0  0  0  0
   12.3230   -0.8250   23.0240 C   0  0  0  0  0  0  0  0  0  0  0  0
    7.3150   -5.9210   28.3890 Cl  0  0  0  0  0  0  0  0  0  0  0  0
   13.1950   -1.8190   22.3350 C   0  0  0  0  0  0  0  0  0  0  0  0
   10.7230    1.2400   24.2500 C   0  0  0  0  0  0  0  0  0  0  0  0
   12.6210    0.6790   22.9300 C   0  0  0  0  0  0  0  0  0  0  0  0
   11.8320    1.6380   23.5290 C   0  0  0  0  0  0  0  0  0  0  0  0
  1  2  1  0
  1  3  2  0
  1  4  1  0
  4  5  1  0
  4  6  1  0
  5  7  1  0
  6  8  1  0
  5  9  1  1
  6 10  1  1
  7 11  1  0
  8 11  1  0
  9 12  1  0
  9 13  1  0
 12 13  1  0
 10 14  1  0
 11 15  1  0
 14 16  2  0
 14 17  1  0
 15 18  1  1
 15 19  1  0
 17 20  2  0
 16 21  1  0
 19 22  2  0
 19 23  1  0
 18 24  1  0
 20 25  1  0
 21 25  2  0
 22 26  1  0
 23 27  1  0
 26 27  2  0
 24 28  2  0
 24 29  1  0
 27 30  1  0
 29 31  1  0
 28 32  1  0
 29 33  2  0
 32 34  2  0
 33 34  1  0
M  END
