x1334_1-x1336_0-x1412_1-x1386_0-x1412_0
     RDKit          3D

 22 24  0  0  0  0  0  0  0  0999 V2000
    6.3030   -3.3690   19.8920 C   0  0  0  0  0  0  0  0  0  0  0  0
    7.2790   -3.0300   18.7820 C   0  0  0  0  0  0  0  0  0  0  0  0
    5.3490   -4.1290   19.7280 O   0  0  0  0  0  0  0  0  0  0  0  0
    6.5890   -2.7870   21.1220 N   0  0  0  0  0  0  0  0  0  0  0  0
    7.4910   -1.6250   21.2790 C   0  0  0  0  0  0  0  0  0  0  0  0
    6.2210   -3.4650   22.4070 C   0  0  0  0  0  0  0  0  0  0  0  0
    8.6130   -1.9290   22.2810 C   0  0  0  0  0  0  0  0  0  0  0  0
    7.3570   -3.8400   23.1010 C   0  0  0  0  0  0  0  0  0  0  0  0
    8.0900   -2.6250   23.4500 N   0  0  0  0  0  0  0  0  0  0  0  0
    8.9720   -2.5370   24.6210 C   0  0  2  0  0  0  0  0  0  0  0  0
    8.9090   -1.4960   25.2640 O   0  0  0  0  0  0  0  0  0  0  0  0
   10.3960   -2.6980   24.0940 C   0  0  0  0  0  0  0  0  0  0  0  0
    8.7940   -3.6920   25.6420 C   0  0  0  0  0  0  0  0  0  0  0  0
    9.7250   -4.7660   25.6390 C   0  0  0  0  0  0  0  0  0  0  0  0
    7.5710   -3.9120   26.8920 S   0  0  0  0  0  0  0  0  0  0  0  0
   11.2130   -1.4900   23.7860 C   0  0  0  0  0  0  0  0  0  0  0  0
    9.3090   -5.6930   26.7060 C   0  0  0  0  0  0  0  0  0  0  0  0
    8.2170   -5.3800   27.4360 C   0  0  0  0  0  0  0  0  0  0  0  0
   12.2720   -1.4900   22.9100 C   0  0  0  0  0  0  0  0  0  0  0  0
   11.0410   -0.2110   24.3200 C   0  0  0  0  0  0  0  0  0  0  0  0
   12.9040   -0.2360   22.7680 C   0  0  0  0  0  0  0  0  0  0  0  0
   12.1700    0.9470   23.7300 S   0  0  0  0  0  0  0  0  0  0  0  0
  1  2  1  0
  1  3  2  0
  1  4  1  0
  4  5  1  0
  4  6  1  0
  5  7  1  0
  6  8  1  0
  7  9  1  0
  8  9  1  0
  9 10  1  0
 10 11  1  1
 10 12  1  0
 10 13  1  0
 13 14  2  0
 13 15  1  0
 12 16  1  0
 14 17  1  0
 15 18  1  0
 17 18  2  0
 16 19  1  0
 16 20  2  0
 19 21  2  0
 20 22  1  0
 21 22  1  0
M  END
