x1334_0-x1412_1-x1418_1
     RDKit          3D

 16 17  0  0  0  0  0  0  0  0999 V2000
    6.3550   -3.3230   19.9200 C   0  0  0  0  0  0  0  0  0  0  0  0
    7.3680   -3.0280   18.8160 C   0  0  0  0  0  0  0  0  0  0  0  0
    5.3770   -4.0500   19.6900 O   0  0  0  0  0  0  0  0  0  0  0  0
    6.5770   -2.8040   21.1800 N   0  0  0  0  0  0  0  0  0  0  0  0
    7.5740   -1.7190   21.3250 C   0  0  0  0  0  0  0  0  0  0  0  0
    6.3360   -3.5970   22.3820 C   0  0  0  0  0  0  0  0  0  0  0  0
    8.8390   -2.1060   22.1060 C   0  0  0  0  0  0  0  0  0  0  0  0
    7.6440   -4.0800   22.9990 C   0  0  0  0  0  0  0  0  0  0  0  0
    8.5740   -2.9790   23.2530 N   0  0  0  0  0  0  0  0  0  0  0  0
    9.5580   -3.0820   24.2240 C   0  0  0  0  0  0  0  0  0  0  0  0
    9.2650   -4.0810   25.2320 C   0  0  0  0  0  0  0  0  0  0  0  0
    9.8590   -5.3090   25.3900 C   0  0  0  0  0  0  0  0  0  0  0  0
    8.0460   -3.8210   26.4070 S   0  0  0  0  0  0  0  0  0  0  0  0
    9.3070   -6.0180   26.4740 C   0  0  0  0  0  0  0  0  0  0  0  0
    8.3160   -5.3430   27.1190 C   0  0  0  0  0  0  0  0  0  0  0  0
    7.3840   -5.8370   28.4640 Cl  0  0  0  0  0  0  0  0  0  0  0  0
  1  2  1  0
  1  3  2  0
  1  4  1  0
  4  5  1  0
  4  6  1  0
  5  7  1  0
  6  8  1  0
  7  9  1  0
  8  9  1  0
  9 10  1  0
 10 11  1  0
 11 12  2  0
 11 13  1  0
 12 14  1  0
 13 15  1  0
 14 15  2  0
 15 16  1  0
M  END
