x1334_1-x0426_1-x0397_0-x1334_0-x0831_0
     RDKit          3D

 39 44  0  0  0  0  0  0  0  0999 V2000
    6.3440   -3.3000   19.9050 C   0  0  0  0  0  0  0  0  0  0  0  0
    7.2780   -2.9960   18.7550 C   0  0  0  0  0  0  0  0  0  0  0  0
    5.4330   -4.1260   19.7450 O   0  0  0  0  0  0  0  0  0  0  0  0
    6.5600   -2.6570   21.1190 N   0  0  0  0  0  0  0  0  0  0  0  0
    7.4600   -1.5170   21.2000 C   0  0  2  0  0  0  0  0  0  0  0  0
    6.0110   -3.2050   22.3790 C   0  0  2  0  0  0  0  0  0  0  0  0
    8.6520   -2.0890   21.9260 C   0  0  0  0  0  0  0  0  0  0  0  0
    7.0010   -3.0810   23.5400 C   0  0  0  0  0  0  0  0  0  0  0  0
    5.3690   -4.6300   22.3110 C   0  0  0  0  0  0  0  0  0  0  0  0
    6.8820   -0.3900   22.0610 C   0  0  0  0  0  0  0  0  0  0  0  0
    8.3610   -2.5300   23.3230 N   0  0  0  0  0  0  0  0  0  0  0  0
    6.2430   -5.5150   23.0280 C   0  0  0  0  0  0  0  0  0  0  0  0
    6.1710   -6.0240   21.8070 C   0  0  0  0  0  0  0  0  0  0  0  0
    5.4750    0.0570   21.6720 C   0  0  1  0  0  0  0  0  0  0  0  0
    9.3080   -3.4180   23.5680 C   0  0  1  0  0  0  0  0  0  0  0  0
    5.1600    1.0740   22.4800 C   0  0  0  0  0  0  0  0  0  0  0  0
    5.4940    0.5030   20.2260 C   0  0  0  0  0  0  0  0  0  0  0  0
   10.6680   -2.8790   23.2290 C   0  0  0  0  0  0  0  0  0  0  0  0
    9.1190   -4.2550   24.8210 C   0  0  0  0  0  0  0  0  0  0  0  0
    3.7080    1.4370   22.1640 C   0  0  1  0  0  0  0  0  0  0  0  0
    4.6010    1.5000   19.8990 C   0  0  0  0  0  0  0  0  0  0  0  0
    6.3580   -0.0400   19.2650 C   0  0  0  0  0  0  0  0  0  0  0  0
    9.7830   -5.4100   25.1860 C   0  0  0  0  0  0  0  0  0  0  0  0
    7.9170   -3.8460   26.0500 S   0  0  0  0  0  0  0  0  0  0  0  0
   10.9260   -1.3940   23.4150 C   0  0  0  0  0  0  0  0  0  0  0  0
    3.2600    2.0960   23.2620 N   0  0  0  0  0  0  0  0  0  0  0  0
    3.6510    2.1050   20.9360 C   0  0  0  0  0  0  0  0  0  0  0  0
    4.5650    1.9700   18.6120 C   0  0  0  0  0  0  0  0  0  0  0  0
    6.3810    0.3690   17.9860 N   0  0  0  0  0  0  0  0  0  0  0  0
    9.3380   -6.0380   26.4830 C   0  0  0  0  0  0  0  0  0  0  0  0
    8.2130   -5.2750   27.1760 C   0  0  0  0  0  0  0  0  0  0  0  0
   10.0610   -0.4130   24.2100 C   0  0  0  0  0  0  0  0  0  0  0  0
   12.2090   -0.7870   22.7560 C   0  0  0  0  0  0  0  0  0  0  0  0
    5.4690    1.3780   17.7070 C   0  0  0  0  0  0  0  0  0  0  0  0
    7.3540   -5.5630   28.6190 Cl  0  0  0  0  0  0  0  0  0  0  0  0
   13.0940   -1.6850   21.9570 C   0  0  0  0  0  0  0  0  0  0  0  0
   10.4180    1.1000   24.3620 C   0  0  0  0  0  0  0  0  0  0  0  0
   12.5600    0.5440   22.8820 C   0  0  0  0  0  0  0  0  0  0  0  0
   11.6820    1.5270   23.6790 C   0  0  0  0  0  0  0  0  0  0  0  0
  1  2  1  0
  1  3  2  0
  1  4  1  0
  4  5  1  0
  4  6  1  0
  5  7  1  0
  6  8  1  0
  6  9  1  6
  5 10  1  1
  7 11  1  0
  8 11  1  0
  9 12  1  0
  9 13  1  0
 12 13  1  0
 14 10  1  1
 11 15  1  0
 14 16  1  0
 14 17  1  0
 15 18  1  1
 15 19  1  0
 16 20  1  0
 17 21  2  0
 17 22  1  0
 19 23  2  0
 19 24  1  0
 18 25  1  0
 20 26  1  1
 20 27  1  0
 21 27  1  0
 21 28  1  0
 22 29  2  0
 23 30  1  0
 24 31  1  0
 30 31  2  0
 25 32  2  0
 25 33  1  0
 28 34  2  0
 29 34  1  0
 31 35  1  0
 33 36  1  0
 32 37  1  0
 33 38  2  0
 37 39  2  0
 38 39  1  0
M  END
