x1334_1-x1412_1-x0692_1-x1334_0-x0831_0-x1418_1-x1374_1-x0434_2-x0397_0-x0770_1-x1375_1-x1385_1-x0426_1
     RDKit          3D

 45 51  0  0  0  0  0  0  0  0999 V2000
    2.0620   -6.6990   24.2270 O   0  0  0  0  0  0  0  0  0  0  0  0
    2.8520   -7.7270   23.6880 C   0  0  0  0  0  0  0  0  0  0  0  0
    3.9420   -7.9730   24.5660 O   0  0  0  0  0  0  0  0  0  0  0  0
    5.0810   -7.1840   24.2270 C   0  0  0  0  0  0  0  0  0  0  0  0
    4.6580   -5.9750   23.8800 C   0  0  0  0  0  0  0  0  0  0  0  0
    5.6820   -5.3230   23.0050 C   0  0  2  0  0  0  0  0  0  0  0  0
    5.3840   -4.4320   22.2130 C   0  0  2  0  0  0  0  0  0  0  0  0
    5.9710   -5.8170   21.6810 C   0  0  0  0  0  0  0  0  0  0  0  0
    6.1730   -3.1340   22.3160 C   0  0  2  0  0  0  0  0  0  0  0  0
    6.5220   -2.5800   20.9930 N   0  0  0  0  0  0  0  0  0  0  0  0
    7.3120   -3.4930   22.9130 C   0  0  0  0  0  0  0  0  0  0  0  0
    6.2960   -3.3070   19.8470 C   0  0  0  0  0  0  0  0  0  0  0  0
    8.3350   -2.5000   23.1780 N   0  0  0  0  0  0  0  0  0  0  0  0
    7.7140   -1.7470   20.8160 C   0  0  1  0  0  0  0  0  0  0  0  0
    7.2620   -3.0700   18.6940 C   0  0  0  0  0  0  0  0  0  0  0  0
    5.3960   -4.1500   19.7170 O   0  0  0  0  0  0  0  0  0  0  0  0
    9.3960   -3.3630   23.5600 C   0  0  1  0  0  0  0  0  0  0  0  0
    7.3590   -0.3680   20.9380 N   0  0  0  0  0  0  0  0  0  0  0  0
    8.7740   -1.8390   21.9310 C   0  0  0  0  0  0  0  0  0  0  0  0
   10.7310   -2.7600   23.1500 C   0  0  0  0  0  0  0  0  0  0  0  0
    7.0030    0.2650   22.2610 C   0  0  0  0  0  0  0  0  0  0  0  0
    6.5240    0.2340   19.9540 C   0  0  0  0  0  0  0  0  0  0  0  0
    9.1090   -4.0840   24.8820 C   0  0  0  0  0  0  0  0  0  0  0  0
    5.5060    0.4170   22.1380 C   0  0  2  0  0  0  0  0  0  0  0  0
    6.6650    0.3940   18.4680 N   0  0  0  0  0  0  0  0  0  0  0  0
    5.4350    0.7210   20.6470 C   0  0  0  0  0  0  0  0  0  0  0  0
    9.8200   -5.3270   25.2780 C   0  0  0  0  0  0  0  0  0  0  0  0
    7.9420   -3.6270   26.0690 S   0  0  0  0  0  0  0  0  0  0  0  0
   10.9600   -1.2940   23.3780 C   0  0  0  0  0  0  0  0  0  0  0  0
    4.8140    1.4740   22.9570 C   0  0  0  0  0  0  0  0  0  0  0  0
    4.3190    1.4640   20.0080 C   0  0  0  0  0  0  0  0  0  0  0  0
    5.6170    1.0890   17.9330 C   0  0  0  0  0  0  0  0  0  0  0  0
    9.4580   -5.8660   26.4290 C   0  0  0  0  0  0  0  0  0  0  0  0
    8.3650   -5.0570   27.0740 C   0  0  0  0  0  0  0  0  0  0  0  0
   10.1330   -0.2760   24.1500 C   0  0  0  0  0  0  0  0  0  0  0  0
   12.2430   -0.7260   22.7530 C   0  0  0  0  0  0  0  0  0  0  0  0
    3.8200    2.4080   22.2430 C   0  0  1  0  0  0  0  0  0  0  0  0
    3.2360    1.9310   20.9010 C   0  0  0  0  0  0  0  0  0  0  0  0
    7.5470   -5.3390   28.5440 Cl  0  0  0  0  0  0  0  0  0  0  0  0
   13.1240   -1.6370   21.9680 C   0  0  0  0  0  0  0  0  0  0  0  0
    4.5430    1.5820   18.6440 C   0  0  0  0  0  0  0  0  0  0  0  0
   10.5370    1.0770   24.2620 C   0  0  0  0  0  0  0  0  0  0  0  0
   12.6100    0.5920   22.8910 C   0  0  0  0  0  0  0  0  0  0  0  0
    2.7950    2.7630   23.2020 N   0  0  0  0  0  0  0  0  0  0  0  0
   11.7100    1.5530   23.6840 C   0  0  0  0  0  0  0  0  0  0  0  0
  1  2  1  0
  2  3  1  0
  3  4  1  0
  4  5  1  0
  6  5  1  6
  6  7  1  0
  6  8  1  0
  7  8  1  6
  7  9  1  0
  9 10  1  0
  9 11  1  1
 10 12  1  0
 11 13  1  0
 10 14  1  0
 12 15  1  0
 12 16  2  0
 13 17  1  0
 14 18  1  1
 13 19  1  0
 14 19  1  0
 17 20  1  1
 18 21  1  0
 18 22  1  0
 17 23  1  0
 24 21  1  1
 22 25  2  0
 22 26  1  0
 24 26  1  0
 23 27  2  0
 23 28  1  0
 20 29  1  0
 24 30  1  0
 26 31  2  0
 25 32  1  0
 27 33  1  0
 28 34  1  0
 33 34  2  0
 29 35  2  0
 29 36  1  0
 30 37  1  0
 31 38  1  0
 37 38  1  0
 34 39  1  0
 36 40  1  0
 31 41  1  0
 32 41  2  0
 35 42  1  0
 36 43  2  0
 37 44  1  1
 42 45  2  0
 43 45  1  0
M  END
