x1334_1-x1374_1-x0831_1-x0770_1-x0434_2-x1418_1-x0692_1-x0397_0-x0831_0-x1334_0-x1385_1
     RDKit          3D

 39 43  0  0  0  0  0  0  0  0999 V2000
    1.9800   -6.6520   24.0460 O   0  0  0  0  0  0  0  0  0  0  0  0
    2.8530   -7.6130   23.5140 C   0  0  0  0  0  0  0  0  0  0  0  0
    3.7920   -7.9770   24.5220 O   0  0  0  0  0  0  0  0  0  0  0  0
    5.0670   -7.3620   24.3530 C   0  0  0  0  0  0  0  0  0  0  0  0
    4.9100   -6.0230   24.1080 C   0  0  0  0  0  0  0  0  0  0  0  0
    6.0100   -5.6010   23.1930 C   0  0  2  0  0  0  0  0  0  0  0  0
    5.8690   -4.5460   22.2780 C   0  0  2  0  0  0  0  0  0  0  0  0
    6.1190   -6.1570   21.9750 C   0  0  0  0  0  0  0  0  0  0  0  0
    6.9000   -3.4670   22.0190 C   0  0  1  0  0  0  0  0  0  0  0  0
    6.5300   -2.5590   20.9420 N   0  0  0  0  0  0  0  0  0  0  0  0
    7.3600   -2.8540   23.3350 C   0  0  0  0  0  0  0  0  0  0  0  0
    6.3110   -3.2540   19.7700 C   0  0  0  0  0  0  0  0  0  0  0  0
    8.3700   -1.8160   23.0500 N   0  0  0  0  0  0  0  0  0  0  0  0
    7.5410   -1.5150   20.8210 C   0  0  1  0  0  0  0  0  0  0  0  0
    7.2880   -3.0030   18.6400 C   0  0  0  0  0  0  0  0  0  0  0  0
    5.3900   -4.0710   19.6700 O   0  0  0  0  0  0  0  0  0  0  0  0
    9.5100   -1.9560   23.8730 C   0  0  1  0  0  0  0  0  0  0  0  0
    6.9740   -0.2320   21.1450 N   0  0  0  0  0  0  0  0  0  0  0  0
    8.7590   -1.6990   21.7550 C   0  0  0  0  0  0  0  0  0  0  0  0
    9.9830   -3.3340   23.6860 C   0  0  0  0  0  0  0  0  0  0  0  0
   10.5420   -0.8220   23.6480 C   0  0  0  0  0  0  0  0  0  0  0  0
    6.3350    0.3580   20.0810 C   0  0  0  0  0  0  0  0  0  0  0  0
   10.2470    0.3870   24.2340 C   0  0  0  0  0  0  0  0  0  0  0  0
   11.7510   -0.8980   22.8970 C   0  0  0  0  0  0  0  0  0  0  0  0
    9.5020   -4.1230   24.8790 C   0  0  0  0  0  0  0  0  0  0  0  0
    6.8770    0.2290   18.8140 C   0  0  0  0  0  0  0  0  0  0  0  0
    5.1490    1.0770   20.2900 C   0  0  0  0  0  0  0  0  0  0  0  0
   12.2000   -2.1380   22.1880 C   0  0  0  0  0  0  0  0  0  0  0  0
   11.1450    1.5420   24.0840 C   0  0  0  0  0  0  0  0  0  0  0  0
   12.6420    0.1850   22.7450 C   0  0  0  0  0  0  0  0  0  0  0  0
   10.0280   -5.3780   25.3030 C   0  0  0  0  0  0  0  0  0  0  0  0
    8.2210   -3.6450   25.9720 S   0  0  0  0  0  0  0  0  0  0  0  0
    6.4140    0.7370   17.6640 N   0  0  0  0  0  0  0  0  0  0  0  0
    4.4420    1.7330   19.1650 C   0  0  0  0  0  0  0  0  0  0  0  0
   12.3430    1.4120   23.3350 C   0  0  0  0  0  0  0  0  0  0  0  0
    9.4520   -5.9590   26.5100 C   0  0  0  0  0  0  0  0  0  0  0  0
    8.3670   -5.0150   26.9830 C   0  0  0  0  0  0  0  0  0  0  0  0
    5.1830    1.5070   17.8140 C   0  0  0  0  0  0  0  0  0  0  0  0
    7.3690   -5.2210   28.3570 Cl  0  0  0  0  0  0  0  0  0  0  0  0
  1  2  1  0
  2  3  1  0
  3  4  1  0
  4  5  1  0
  6  5  1  6
  6  7  1  0
  6  8  1  0
  7  8  1  6
  7  9  1  0
  9 10  1  0
  9 11  1  1
 10 12  1  0
 11 13  1  0
 10 14  1  0
 12 15  1  0
 12 16  2  0
 13 17  1  0
 14 18  1  1
 13 19  1  0
 14 19  1  0
 17 20  1  6
 17 21  1  0
 18 22  1  0
 21 23  2  0
 21 24  1  0
 20 25  1  0
 22 26  2  0
 22 27  1  0
 24 28  1  0
 23 29  1  0
 24 30  2  0
 25 31  2  0
 25 32  1  0
 26 33  1  0
 27 34  2  0
 29 35  2  0
 30 35  1  0
 31 36  1  0
 32 37  1  0
 36 37  2  0
 33 38  2  0
 34 38  1  0
 37 39  1  0
M  END
