x1334_1-x1412_1-x1418_1-x1374_1-x1334_0-x0397_0-x0831_0-x0426_1-x1385_1-x0770_1-x0831_1
     RDKit          3D

 44 49  0  0  0  0  0  0  0  0999 V2000
    1.9570   -7.3090   23.7560 O   0  0  0  0  0  0  0  0  0  0  0  0
    2.4390   -7.9890   24.9020 C   0  0  0  0  0  0  0  0  0  0  0  0
    3.8510   -8.0090   24.9250 O   0  0  0  0  0  0  0  0  0  0  0  0
    4.3890   -7.2740   23.8450 C   0  0  0  0  0  0  0  0  0  0  0  0
    4.8080   -5.9350   24.3350 C   0  0  0  0  0  0  0  0  0  0  0  0
    5.8270   -5.4360   23.3740 C   0  0  2  0  0  0  0  0  0  0  0  0
    5.5790   -4.4630   22.4010 C   0  0  2  0  0  0  0  0  0  0  0  0
    5.9730   -5.9830   22.0100 C   0  0  0  0  0  0  0  0  0  0  0  0
    6.5700   -3.3250   22.3760 C   0  0  2  0  0  0  0  0  0  0  0  0
    6.7470   -2.5900   21.1210 N   0  0  0  0  0  0  0  0  0  0  0  0
    7.7840   -3.7630   22.8570 C   0  0  0  0  0  0  0  0  0  0  0  0
    6.4540   -3.2460   19.9170 C   0  0  0  0  0  0  0  0  0  0  0  0
    8.6530   -2.6830   23.2590 N   0  0  0  0  0  0  0  0  0  0  0  0
    7.7990   -1.5500   21.2700 C   0  0  2  0  0  0  0  0  0  0  0  0
    7.3930   -3.0080   18.7640 C   0  0  0  0  0  0  0  0  0  0  0  0
    5.5040   -4.0460   19.7390 O   0  0  0  0  0  0  0  0  0  0  0  0
    9.7640   -3.2040   24.0460 C   0  0  1  0  0  0  0  0  0  0  0  0
    9.0720   -2.1480   21.9840 C   0  0  0  0  0  0  0  0  0  0  0  0
    7.2270   -0.3960   22.1080 C   0  0  0  0  0  0  0  0  0  0  0  0
   10.6270   -2.2430   24.8110 C   0  0  0  0  0  0  0  0  0  0  0  0
    9.2750   -4.1400   25.1380 C   0  0  0  0  0  0  0  0  0  0  0  0
    5.8850    0.2310   21.7130 C   0  0  1  0  0  0  0  0  0  0  0  0
    9.8200   -5.3790   25.3580 C   0  0  0  0  0  0  0  0  0  0  0  0
    8.0350   -3.8360   26.2620 S   0  0  0  0  0  0  0  0  0  0  0  0
   11.1230   -1.0120   24.2230 C   0  0  0  0  0  0  0  0  0  0  0  0
    5.7520    1.5310   22.3530 C   0  0  0  0  0  0  0  0  0  0  0  0
    5.7490    0.5940   20.2870 C   0  0  0  0  0  0  0  0  0  0  0  0
    9.2710   -6.0480   26.3890 C   0  0  0  0  0  0  0  0  0  0  0  0
    8.2560   -5.3600   27.0310 C   0  0  0  0  0  0  0  0  0  0  0  0
   10.4850    0.1070   24.5760 C   0  0  0  0  0  0  0  0  0  0  0  0
   12.3150   -0.9880   23.2800 C   0  0  0  0  0  0  0  0  0  0  0  0
    4.3520    2.1800   22.1880 C   0  0  2  0  0  0  0  0  0  0  0  0
    4.6850    1.3730   19.9460 C   0  0  0  0  0  0  0  0  0  0  0  0
    6.6260    0.2050   19.3060 C   0  0  0  0  0  0  0  0  0  0  0  0
    7.3050   -5.8330   28.3720 Cl  0  0  0  0  0  0  0  0  0  0  0  0
   13.0390   -2.2210   22.8520 C   0  0  0  0  0  0  0  0  0  0  0  0
   10.8880    1.4870   24.0940 C   0  0  0  0  0  0  0  0  0  0  0  0
   12.7540    0.3960   22.7880 C   0  0  0  0  0  0  0  0  0  0  0  0
    3.5590    1.9050   23.2570 N   0  0  0  0  0  0  0  0  0  0  0  0
    3.7030    1.7930   21.0230 C   0  0  0  0  0  0  0  0  0  0  0  0
    4.4850    1.7920   18.6340 C   0  0  0  0  0  0  0  0  0  0  0  0
    6.5240    0.5410   18.0260 N   0  0  0  0  0  0  0  0  0  0  0  0
   11.9980    1.6190   23.2300 C   0  0  0  0  0  0  0  0  0  0  0  0
    5.4440    1.3470   17.7210 C   0  0  0  0  0  0  0  0  0  0  0  0
  1  2  1  0
  2  3  1  0
  3  4  1  0
  4  5  1  0
  6  5  1  6
  6  7  1  0
  6  8  1  0
  7  8  1  6
  7  9  1  0
  9 10  1  0
  9 11  1  6
 10 12  1  0
 11 13  1  0
 10 14  1  0
 12 15  1  0
 12 16  2  0
 13 17  1  0
 13 18  1  0
 14 18  1  0
 14 19  1  1
 17 20  1  1
 17 21  1  0
 22 19  1  6
 21 23  2  0
 21 24  1  0
 20 25  1  0
 22 26  1  0
 22 27  1  0
 23 28  1  0
 24 29  1  0
 28 29  2  0
 25 30  2  0
 25 31  1  0
 26 32  1  0
 27 33  2  0
 27 34  1  0
 29 35  1  0
 31 36  1  0
 30 37  1  0
 31 38  2  0
 32 39  1  1
 32 40  1  0
 33 40  1  0
 33 41  1  0
 34 42  2  0
 37 43  2  0
 38 43  1  0
 41 44  2  0
 42 44  1  0
M  END
