x1334_0-x1374_1-x1412_1-x0397_0-x0434_2-x0692_1-x0831_0-x0770_1-x0831_1-x1386_1-x1385_1
     RDKit          3D

 39 43  0  0  0  0  0  0  0  0999 V2000
    2.0480   -7.0090   23.8000 O   0  0  0  0  0  0  0  0  0  0  0  0
    2.4110   -7.9580   24.7810 C   0  0  0  0  0  0  0  0  0  0  0  0
    3.8180   -8.0370   24.8790 O   0  0  0  0  0  0  0  0  0  0  0  0
    4.4550   -7.2790   23.8600 C   0  0  0  0  0  0  0  0  0  0  0  0
    4.7590   -6.0450   24.3720 C   0  0  0  0  0  0  0  0  0  0  0  0
    5.9120   -5.5870   23.5250 C   0  0  2  0  0  0  0  0  0  0  0  0
    5.7890   -4.5930   22.4920 C   0  0  2  0  0  0  0  0  0  0  0  0
    6.1540   -6.2040   22.3760 C   0  0  0  0  0  0  0  0  0  0  0  0
    6.9730   -3.6870   22.1480 C   0  0  1  0  0  0  0  0  0  0  0  0
    6.7690   -2.7420   21.0850 N   0  0  0  0  0  0  0  0  0  0  0  0
    7.2630   -2.9570   23.4720 C   0  0  0  0  0  0  0  0  0  0  0  0
    6.4480   -3.2950   19.8650 C   0  0  0  0  0  0  0  0  0  0  0  0
    8.5720   -2.3440   23.4270 N   0  0  0  0  0  0  0  0  0  0  0  0
    7.7390   -1.7440   21.0530 C   0  0  1  0  0  0  0  0  0  0  0  0
    7.4440   -3.0350   18.7560 C   0  0  0  0  0  0  0  0  0  0  0  0
    5.4490   -4.0100   19.6750 O   0  0  0  0  0  0  0  0  0  0  0  0
    9.4840   -3.2800   23.8250 C   0  0  1  0  0  0  0  0  0  0  0  0
    6.9920   -0.5070   21.2500 N   0  0  0  0  0  0  0  0  0  0  0  0
    8.9070   -1.7750   22.1150 C   0  0  0  0  0  0  0  0  0  0  0  0
   10.8210   -2.7220   24.2670 C   0  0  0  0  0  0  0  0  0  0  0  0
    9.0690   -4.1190   25.0380 C   0  0  0  0  0  0  0  0  0  0  0  0
    6.3530    0.1320   20.2020 C   0  0  0  0  0  0  0  0  0  0  0  0
    9.7450   -5.4570   25.2910 C   0  0  0  0  0  0  0  0  0  0  0  0
    7.8650   -3.7550   26.2670 S   0  0  0  0  0  0  0  0  0  0  0  0
   11.1230   -1.2430   23.9980 C   0  0  0  0  0  0  0  0  0  0  0  0
    6.9350    0.0420   18.8370 C   0  0  0  0  0  0  0  0  0  0  0  0
    5.1870    0.8630   20.3310 C   0  0  0  0  0  0  0  0  0  0  0  0
    9.2610   -6.0650   26.4100 C   0  0  0  0  0  0  0  0  0  0  0  0
    8.2460   -5.3100   27.0660 C   0  0  0  0  0  0  0  0  0  0  0  0
   10.2380   -0.1690   24.6350 C   0  0  0  0  0  0  0  0  0  0  0  0
   12.3180   -0.8010   23.1010 C   0  0  0  0  0  0  0  0  0  0  0  0
    6.4090    0.6310   17.7510 N   0  0  0  0  0  0  0  0  0  0  0  0
    4.5840    1.4890   19.2610 C   0  0  0  0  0  0  0  0  0  0  0  0
    7.3970   -5.7420   28.4820 Cl  0  0  0  0  0  0  0  0  0  0  0  0
   13.1920   -1.8140   22.4340 C   0  0  0  0  0  0  0  0  0  0  0  0
   10.6570    1.2690   24.3080 C   0  0  0  0  0  0  0  0  0  0  0  0
   12.5920    0.5550   22.9030 C   0  0  0  0  0  0  0  0  0  0  0  0
    5.2280    1.3670   17.9190 C   0  0  0  0  0  0  0  0  0  0  0  0
   11.8460    1.5060   23.4440 C   0  0  0  0  0  0  0  0  0  0  0  0
  1  2  1  0
  2  3  1  0
  3  4  1  0
  4  5  1  0
  6  5  1  6
  6  7  1  0
  6  8  1  0
  7  8  1  6
  7  9  1  0
  9 10  1  0
  9 11  1  1
 10 12  1  0
 11 13  1  0
 10 14  1  0
 12 15  1  0
 12 16  2  0
 13 17  1  0
 14 18  1  1
 13 19  1  0
 14 19  1  0
 17 20  1  1
 17 21  1  0
 18 22  1  0
 21 23  2  0
 21 24  1  0
 20 25  1  0
 22 26  2  0
 22 27  1  0
 23 28  1  0
 24 29  1  0
 28 29  2  0
 25 30  2  0
 25 31  1  0
 26 32  1  0
 27 33  2  0
 29 34  1  0
 31 35  1  0
 30 36  1  0
 31 37  2  0
 32 38  2  0
 33 38  1  0
 36 39  2  0
 37 39  1  0
M  END
