x1336_1-x0874_0
     RDKit          3D

 18 19  0  0  0  0  0  0  0  0999 V2000
    7.4770   -2.0110   25.1880 S   0  0  2  0  0  0  0  0  0  0  0  0
    8.8360   -1.3180   25.0560 N   0  0  0  0  0  0  0  0  0  0  0  0
    8.9200    0.0260   24.5150 C   0  0  0  0  0  0  0  0  0  0  0  0
    6.2550   -1.4420   25.7230 O   0  0  0  0  0  0  0  0  0  0  0  0
    7.7700   -3.3790   26.2160 C   0  0  0  0  0  0  0  0  0  0  0  0
    6.7080   -3.7580   27.2530 C   0  0  0  0  0  0  0  0  0  0  0  0
    8.9640   -4.1260   26.0990 C   0  0  0  0  0  0  0  0  0  0  0  0
   10.0270   -3.7970   25.1200 C   0  0  0  0  0  0  0  0  0  0  0  0
    9.3630   -0.1210   23.0570 C   0  0  0  0  0  0  0  0  0  0  0  0
    7.0130   -4.9730   28.1340 C   0  0  0  0  0  0  0  0  0  0  0  0
    9.1490   -5.2120   26.9440 C   0  0  0  0  0  0  0  0  0  0  0  0
    6.0070   -5.3890   29.1600 C   0  0  0  0  0  0  0  0  0  0  0  0
    8.2260   -5.5930   27.8880 C   0  0  0  0  0  0  0  0  0  0  0  0
   10.8310   -0.3680   22.7860 C   0  0  0  0  0  0  0  0  0  0  0  0
   11.9230    0.6360   23.1270 C   0  0  0  0  0  0  0  0  0  0  0  0
   11.3780   -1.5090   22.2020 C   0  0  0  0  0  0  0  0  0  0  0  0
   13.1800    0.2030   22.7820 C   0  0  0  0  0  0  0  0  0  0  0  0
   13.0870   -1.4540   22.0330 S   0  0  0  0  0  0  0  0  0  0  0  0
  1  2  2  0
  2  3  1  0
  1  4  2  0
  1  5  1  1
  5  6  2  0
  5  7  1  0
  7  8  1  0
  3  9  1  0
  6 10  1  0
  7 11  2  0
 10 12  1  0
 10 13  2  0
 11 13  1  0
  9 14  1  0
 14 15  1  0
 14 16  2  0
 15 17  2  0
 16 18  1  0
 17 18  1  0
M  END
