x1334_0-x1412_0-x0981_1-x0387_0-x1418_1
     RDKit          3D

 36 38  0  0  0  0  0  0  0  0999 V2000
    3.9780   -5.1040   23.5220 C   0  0  0  0  0  0  0  0  0  0  0  0
    2.6910   -5.9400   23.6340 C   0  0  1  0  0  0  0  0  0  0  0  0
    2.6210   -7.0860   22.7150 N   0  0  0  0  0  0  0  0  0  0  0  0
    4.1470   -4.1230   22.6880 N   0  0  0  0  0  0  0  0  0  0  0  0
    2.5300   -6.3710   25.0990 C   0  0  0  0  0  0  0  0  0  0  0  0
    5.4100   -3.3460   22.8680 C   0  0  0  0  0  0  0  0  0  0  0  0
    1.3980   -7.3880   22.1350 C   0  0  0  0  0  0  0  0  0  0  0  0
    3.0070   -7.7850   25.2860 C   0  0  0  0  0  0  0  0  0  0  0  0
    6.4740   -3.7450   22.0530 C   0  0  2  0  0  0  0  0  0  0  0  0
    1.2820   -8.7080   21.3650 C   0  0  0  0  0  0  0  0  0  0  0  0
    0.4490   -6.6200   22.2080 O   0  0  0  0  0  0  0  0  0  0  0  0
    2.3810   -8.5410   26.2330 N   0  0  0  0  0  0  0  0  0  0  0  0
    3.9170   -8.2070   24.6090 O   0  0  0  0  0  0  0  0  0  0  0  0
    7.7910   -4.0630   22.7590 C   0  0  0  0  0  0  0  0  0  0  0  0
    6.7280   -2.8820   21.1430 N   0  0  0  0  0  0  0  0  0  0  0  0
    6.4200   -3.2900   19.8500 C   0  0  0  0  0  0  0  0  0  0  0  0
    8.5110   -2.8290   22.9850 N   0  0  0  0  0  0  0  0  0  0  0  0
    7.4740   -1.8140   21.3810 C   0  0  0  0  0  0  0  0  0  0  0  0
    7.4110   -2.9700   18.7460 C   0  0  0  0  0  0  0  0  0  0  0  0
    5.4000   -3.9420   19.6090 O   0  0  0  0  0  0  0  0  0  0  0  0
    9.2950   -2.7440   24.2160 C   0  0  2  0  0  0  0  0  0  0  0  0
    8.7740   -2.1310   21.8490 C   0  0  0  0  0  0  0  0  0  0  0  0
    8.7270   -1.5920   24.8230 C   0  0  0  0  0  0  0  0  0  0  0  0
   10.0780   -1.5250   24.6190 C   0  0  0  0  0  0  0  0  0  0  0  0
    9.0850   -3.8580   25.2340 C   0  0  0  0  0  0  0  0  0  0  0  0
    7.6290   -1.5790   25.3490 O   0  0  0  0  0  0  0  0  0  0  0  0
    9.8140   -4.9830   25.2450 C   0  0  0  0  0  0  0  0  0  0  0  0
    7.8710   -3.8300   26.5060 S   0  0  0  0  0  0  0  0  0  0  0  0
   11.2530   -1.1830   23.7870 C   0  0  0  0  0  0  0  0  0  0  0  0
    9.3690   -5.8660   26.3380 C   0  0  0  0  0  0  0  0  0  0  0  0
    8.2460   -5.3570   27.1740 C   0  0  0  0  0  0  0  0  0  0  0  0
   12.1270    0.0220   23.8190 C   0  0  0  0  0  0  0  0  0  0  0  0
   11.7590   -2.0560   22.7320 C   0  0  0  0  0  0  0  0  0  0  0  0
    7.3940   -5.9920   28.5070 Cl  0  0  0  0  0  0  0  0  0  0  0  0
   13.1330    0.0920   22.9570 C   0  0  0  0  0  0  0  0  0  0  0  0
   13.1970   -1.3960   21.8880 S   0  0  0  0  0  0  0  0  0  0  0  0
  2  1  1  1
  2  3  1  0
  1  4  2  3
  2  5  1  0
  4  6  1  0
  3  7  1  0
  5  8  1  0
  9  6  1  1
  7 10  1  0
  7 11  2  0
  8 12  1  0
  8 13  2  0
  9 14  1  0
  9 15  1  0
 15 16  1  0
 14 17  1  0
 15 18  1  0
 16 19  1  0
 16 20  2  0
 17 21  1  0
 17 22  1  0
 18 22  1  0
 21 23  1  1
 21 24  1  0
 21 25  1  0
 23 26  2  0
 25 27  2  0
 25 28  1  0
 24 29  1  0
 27 30  1  0
 28 31  1  0
 30 31  2  0
 29 32  1  0
 29 33  2  0
 31 34  1  0
 32 35  2  0
 33 36  1  0
 35 36  1  0
M  END
