x1334_1-x0434_2-x0770_1-x1412_0-x1418_0
     RDKit          3D

 30 34  0  0  0  0  0  0  0  0999 V2000
    6.4350   -3.2990   19.8470 C   0  0  0  0  0  0  0  0  0  0  0  0
    7.3760   -3.0050   18.6980 C   0  0  0  0  0  0  0  0  0  0  0  0
    5.4740   -4.0780   19.7260 O   0  0  0  0  0  0  0  0  0  0  0  0
    6.7500   -2.6600   21.0540 N   0  0  0  0  0  0  0  0  0  0  0  0
    7.9810   -1.8450   21.2750 C   0  0  1  0  0  0  0  0  0  0  0  0
    6.0290   -3.1150   22.2630 C   0  0  0  0  0  0  0  0  0  0  0  0
    7.5090   -0.4730   21.4540 N   0  0  0  0  0  0  0  0  0  0  0  0
    8.7820   -2.6060   22.4320 C   0  0  1  0  0  0  0  0  0  0  0  0
    6.8750   -3.7240   23.3570 C   0  0  0  0  0  0  0  0  0  0  0  0
   10.2220   -2.4110   23.0650 C   0  0  2  0  0  0  0  0  0  0  0  0
    7.9790   -2.7920   23.6160 N   0  0  0  0  0  0  0  0  0  0  0  0
    6.7360    0.1110   20.4180 C   0  0  0  0  0  0  0  0  0  0  0  0
    8.5730   -2.7100   24.8810 C   0  0  1  0  0  0  0  0  0  0  0  0
   10.0830   -2.7230   24.5250 C   0  0  0  0  0  0  0  0  0  0  0  0
    7.0770   -0.0860   19.0120 C   0  0  0  0  0  0  0  0  0  0  0  0
    5.5060    0.9770   20.6230 C   0  0  0  0  0  0  0  0  0  0  0  0
   11.0570   -1.1650   23.1130 C   0  0  0  0  0  0  0  0  0  0  0  0
    8.0460   -1.7250   25.3950 O   0  0  0  0  0  0  0  0  0  0  0  0
    8.5560   -3.8520   25.9030 C   0  0  0  0  0  0  0  0  0  0  0  0
    6.3680    0.4770   17.8380 N   0  0  0  0  0  0  0  0  0  0  0  0
    4.7990    1.5320   19.4170 C   0  0  0  0  0  0  0  0  0  0  0  0
   12.3440   -0.9970   22.5170 C   0  0  0  0  0  0  0  0  0  0  0  0
   10.5780    0.2430   23.9570 S   0  0  0  0  0  0  0  0  0  0  0  0
    9.3740   -4.9230   25.7770 C   0  0  0  0  0  0  0  0  0  0  0  0
    7.5960   -4.0520   27.3510 S   0  0  0  0  0  0  0  0  0  0  0  0
    5.2080    1.3010   18.1030 C   0  0  0  0  0  0  0  0  0  0  0  0
   12.8400    0.2430   22.7840 C   0  0  0  0  0  0  0  0  0  0  0  0
   12.0210    1.0560   23.5470 C   0  0  0  0  0  0  0  0  0  0  0  0
    9.3060   -5.9020   26.7290 C   0  0  0  0  0  0  0  0  0  0  0  0
    8.3410   -5.5680   27.7100 C   0  0  0  0  0  0  0  0  0  0  0  0
  1  2  1  0
  1  3  2  0
  1  4  1  0
  4  5  1  0
  4  6  1  0
  5  7  1  1
  5  8  1  0
  6  9  1  0
  8 10  1  0
  8 11  1  1
  9 11  1  0
  7 12  1  0
 11 13  1  0
 10 14  1  0
 13 14  1  0
 12 15  2  0
 12 16  1  0
 10 17  1  1
 13 18  1  1
 13 19  1  0
 15 20  1  0
 16 21  2  0
 17 22  2  0
 17 23  1  0
 19 24  2  0
 19 25  1  0
 20 26  2  0
 21 26  1  0
 22 27  1  0
 23 28  1  0
 27 28  2  0
 24 29  1  0
 25 30  1  0
 29 30  2  0
M  END
