x1334_1-x0397_0-x0831_0-x1375_1-x1386_1-x1418_1-x0831_1-x1385_1-x0426_1
     RDKit          3D

 36 40  0  0  0  0  0  0  0  0999 V2000
    2.6920   -7.5830   23.9830 O   0  0  0  0  0  0  0  0  0  0  0  0
    3.3620   -7.2260   25.1870 C   0  0  0  0  0  0  0  0  0  0  0  0
    4.5870   -6.5840   24.8830 O   0  0  0  0  0  0  0  0  0  0  0  0
    4.9420   -6.9130   23.5590 C   0  0  0  0  0  0  0  0  0  0  0  0
    6.0690   -6.1540   22.9540 C   0  0  2  0  0  0  0  0  0  0  0  0
    6.0180   -4.7040   22.3090 C   0  0  2  0  0  0  0  0  0  0  0  0
    6.1490   -6.1350   21.7030 C   0  0  0  0  0  0  0  0  0  0  0  0
    7.1690   -3.7760   22.1210 C   0  0  1  0  0  0  0  0  0  0  0  0
    6.7300   -2.7570   21.1490 N   0  0  0  0  0  0  0  0  0  0  0  0
    7.8930   -3.3240   23.3930 C   0  0  0  0  0  0  0  0  0  0  0  0
    6.4150   -3.3090   19.8980 C   0  0  0  0  0  0  0  0  0  0  0  0
    8.8890   -2.2690   23.1860 N   0  0  0  0  0  0  0  0  0  0  0  0
    7.5950   -1.5860   21.2750 C   0  0  2  0  0  0  0  0  0  0  0  0
    7.3900   -3.0170   18.7700 C   0  0  0  0  0  0  0  0  0  0  0  0
    5.4340   -4.0490   19.7220 O   0  0  0  0  0  0  0  0  0  0  0  0
   10.1670   -2.4740   23.6300 C   0  0  0  0  0  0  0  0  0  0  0  0
    8.9910   -1.9260   21.7800 C   0  0  0  0  0  0  0  0  0  0  0  0
    7.0190   -0.5810   22.2930 C   0  0  0  0  0  0  0  0  0  0  0  0
   10.8700   -1.1290   23.6100 C   0  0  0  0  0  0  0  0  0  0  0  0
    5.7090    0.0920   21.8460 C   0  0  1  0  0  0  0  0  0  0  0  0
   10.2820    0.0030   24.2500 C   0  0  0  0  0  0  0  0  0  0  0  0
   12.0920   -0.9670   22.9570 C   0  0  0  0  0  0  0  0  0  0  0  0
    5.4490    1.2290   22.6130 C   0  0  0  0  0  0  0  0  0  0  0  0
    5.6510    0.5080   20.4250 C   0  0  0  0  0  0  0  0  0  0  0  0
   12.7620   -2.1080   22.2560 C   0  0  0  0  0  0  0  0  0  0  0  0
   10.9220    1.2000   24.1960 C   0  0  0  0  0  0  0  0  0  0  0  0
   12.7460    0.2660   22.9180 C   0  0  0  0  0  0  0  0  0  0  0  0
    3.9930    1.6310   22.3980 C   0  0  1  0  0  0  0  0  0  0  0  0
    4.6550    1.5350   20.0500 C   0  0  0  0  0  0  0  0  0  0  0  0
    6.5810   -0.0590   19.3130 C   0  0  0  0  0  0  0  0  0  0  0  0
   12.1470    1.3620   23.5440 C   0  0  0  0  0  0  0  0  0  0  0  0
    3.6260    2.3740   23.4600 N   0  0  0  0  0  0  0  0  0  0  0  0
    3.7400    2.1090   21.1040 C   0  0  0  0  0  0  0  0  0  0  0  0
    4.6220    1.9690   18.5770 C   0  0  0  0  0  0  0  0  0  0  0  0
    6.5170    0.3500   18.0390 N   0  0  0  0  0  0  0  0  0  0  0  0
    5.6330    1.2850   17.6560 C   0  0  0  0  0  0  0  0  0  0  0  0
  1  2  1  0
  2  3  1  0
  3  4  1  0
  5  4  1  6
  5  6  1  0
  5  7  1  0
  6  7  1  6
  6  8  1  0
  8  9  1  0
  8 10  1  1
  9 11  1  0
 10 12  1  0
  9 13  1  0
 11 14  1  0
 11 15  2  0
 12 16  1  0
 12 17  1  0
 13 17  1  0
 13 18  1  1
 16 19  1  0
 20 18  1  1
 19 21  2  0
 19 22  1  0
 20 23  1  0
 20 24  1  0
 22 25  1  0
 21 26  1  0
 22 27  2  0
 23 28  1  0
 24 29  2  0
 24 30  1  0
 26 31  2  0
 27 31  1  0
 28 32  1  1
 28 33  1  0
 29 33  1  0
 29 34  1  0
 30 35  2  0
 34 36  2  0
 35 36  1  0
M  END
