x1334_1-x1374_1-x0831_0-x1385_1-x0397_0-x0434_2-x0692_1-x1418_1-x0770_1-x1412_1
     RDKit          3D

 32 35  0  0  0  0  0  0  0  0999 V2000
    2.1900   -7.7760   23.2990 O   0  0  0  0  0  0  0  0  0  0  0  0
    2.4750   -8.0320   24.6610 C   0  0  0  0  0  0  0  0  0  0  0  0
    3.8600   -7.9290   24.8820 O   0  0  0  0  0  0  0  0  0  0  0  0
    4.4950   -7.1530   23.8760 C   0  0  0  0  0  0  0  0  0  0  0  0
    5.0710   -6.0150   24.3550 C   0  0  0  0  0  0  0  0  0  0  0  0
    6.2310   -5.7410   23.4600 C   0  0  2  0  0  0  0  0  0  0  0  0
    6.0710   -4.7040   22.3720 C   0  0  2  0  0  0  0  0  0  0  0  0
    6.1880   -6.1660   22.0190 C   0  0  0  0  0  0  0  0  0  0  0  0
    7.1840   -3.7460   22.0740 C   0  0  1  0  0  0  0  0  0  0  0  0
    6.7450   -2.7460   21.0940 N   0  0  0  0  0  0  0  0  0  0  0  0
    7.9640   -3.3330   23.3460 C   0  0  0  0  0  0  0  0  0  0  0  0
    6.4040   -3.3270   19.8710 C   0  0  0  0  0  0  0  0  0  0  0  0
    8.8700   -2.1920   23.1840 N   0  0  0  0  0  0  0  0  0  0  0  0
    7.7230   -1.6720   21.0040 C   0  0  1  0  0  0  0  0  0  0  0  0
    7.3450   -3.0280   18.7090 C   0  0  0  0  0  0  0  0  0  0  0  0
    5.4310   -4.0780   19.7060 O   0  0  0  0  0  0  0  0  0  0  0  0
   10.1350   -2.3430   23.6760 C   0  0  0  0  0  0  0  0  0  0  0  0
    7.0450   -0.4090   21.2650 N   0  0  0  0  0  0  0  0  0  0  0  0
    9.0240   -1.8770   21.7760 C   0  0  0  0  0  0  0  0  0  0  0  0
   10.8990   -1.0410   23.5990 C   0  0  0  0  0  0  0  0  0  0  0  0
    6.3730    0.2120   20.2290 C   0  0  0  0  0  0  0  0  0  0  0  0
   10.3300    0.0930   24.2020 C   0  0  0  0  0  0  0  0  0  0  0  0
   12.1410   -0.9150   22.9410 C   0  0  0  0  0  0  0  0  0  0  0  0
    6.9220    0.0980   18.8190 C   0  0  0  0  0  0  0  0  0  0  0  0
    5.2090    0.9470   20.3730 C   0  0  0  0  0  0  0  0  0  0  0  0
   12.8070   -2.0710   22.2640 C   0  0  0  0  0  0  0  0  0  0  0  0
   10.9710    1.3210   24.1480 C   0  0  0  0  0  0  0  0  0  0  0  0
   12.7750    0.3280   22.9070 C   0  0  0  0  0  0  0  0  0  0  0  0
    6.3510    0.6730   17.7450 N   0  0  0  0  0  0  0  0  0  0  0  0
    4.5070    1.6210   19.1890 C   0  0  0  0  0  0  0  0  0  0  0  0
   12.1960    1.4370   23.5000 C   0  0  0  0  0  0  0  0  0  0  0  0
    5.2220    1.3940   17.8760 C   0  0  0  0  0  0  0  0  0  0  0  0
  1  2  1  0
  2  3  1  0
  3  4  1  0
  4  5  1  0
  6  5  1  1
  6  7  1  0
  6  8  1  0
  7  8  1  6
  7  9  1  0
  9 10  1  0
  9 11  1  1
 10 12  1  0
 11 13  1  0
 10 14  1  0
 12 15  1  0
 12 16  2  0
 13 17  1  0
 14 18  1  1
 13 19  1  0
 14 19  1  0
 17 20  1  0
 18 21  1  0
 20 22  2  0
 20 23  1  0
 21 24  2  0
 21 25  1  0
 23 26  1  0
 22 27  1  0
 23 28  2  0
 24 29  1  0
 25 30  2  0
 27 31  2  0
 28 31  1  0
 29 32  2  0
 30 32  1  0
M  END
