x1334_0-x1334_1-x0692_1-x0397_0-x0770_1-x0831_0-x0434_2
     RDKit          3D

 34 38  0  0  0  0  0  0  0  0999 V2000
    6.3420   -3.2450   19.8480 C   0  0  0  0  0  0  0  0  0  0  0  0
    7.3790   -2.9590   18.7820 C   0  0  0  0  0  0  0  0  0  0  0  0
    5.2840   -3.7960   19.5330 O   0  0  0  0  0  0  0  0  0  0  0  0
    6.6510   -3.0100   21.2000 N   0  0  0  0  0  0  0  0  0  0  0  0
    7.3400   -1.7630   21.5650 C   0  0  2  0  0  0  0  0  0  0  0  0
    6.8680   -4.1530   21.9370 C   0  0  1  0  0  0  0  0  0  0  0  0
    7.6500   -0.9260   20.4270 N   0  0  0  0  0  0  0  0  0  0  0  0
    8.6560   -2.0110   22.3540 C   0  0  0  0  0  0  0  0  0  0  0  0
    7.8400   -4.1310   23.1550 C   0  0  0  0  0  0  0  0  0  0  0  0
    5.5690   -4.7470   22.3520 C   0  0  0  0  0  0  0  0  0  0  0  0
    8.2340   -2.8140   23.5230 N   0  0  0  0  0  0  0  0  0  0  0  0
    5.4850   -5.6610   23.2770 C   0  0  0  0  0  0  0  0  0  0  0  0
    5.2540   -6.3480   22.1620 C   0  0  0  0  0  0  0  0  0  0  0  0
    6.7190   -0.1610   19.7570 C   0  0  0  0  0  0  0  0  0  0  0  0
    9.2430   -2.8170   24.5110 C   0  0  2  0  0  0  0  0  0  0  0  0
    6.9820    0.1860   18.4930 C   0  0  0  0  0  0  0  0  0  0  0  0
    5.5190    0.2740   20.3350 C   0  0  0  0  0  0  0  0  0  0  0  0
   10.6700   -2.6480   23.9660 C   0  0  0  0  0  0  0  0  0  0  0  0
    9.0960   -3.9410   25.4030 C   0  0  0  0  0  0  0  0  0  0  0  0
    6.2560    0.9220   17.6480 N   0  0  0  0  0  0  0  0  0  0  0  0
    4.5380    1.1480   19.4860 C   0  0  0  0  0  0  0  0  0  0  0  0
    9.8100   -5.1200   25.4520 C   0  0  0  0  0  0  0  0  0  0  0  0
    7.8790   -3.8770   26.5770 S   0  0  0  0  0  0  0  0  0  0  0  0
   11.1100   -1.2250   23.8120 C   0  0  0  0  0  0  0  0  0  0  0  0
    5.0890    1.4020   18.0800 C   0  0  0  0  0  0  0  0  0  0  0  0
    9.3420   -5.9780   26.4800 C   0  0  0  0  0  0  0  0  0  0  0  0
    8.2910   -5.4100   27.1610 C   0  0  0  0  0  0  0  0  0  0  0  0
   10.3670   -0.1960   24.4130 C   0  0  0  0  0  0  0  0  0  0  0  0
   12.3590   -0.8390   23.0120 C   0  0  0  0  0  0  0  0  0  0  0  0
    7.3870   -6.0320   28.4650 Cl  0  0  0  0  0  0  0  0  0  0  0  0
   13.2030   -1.8420   22.3170 C   0  0  0  0  0  0  0  0  0  0  0  0
   10.7610    1.1820   24.2860 C   0  0  0  0  0  0  0  0  0  0  0  0
   12.7760    0.6590   22.9070 C   0  0  0  0  0  0  0  0  0  0  0  0
   12.0100    1.6260   23.5100 C   0  0  0  0  0  0  0  0  0  0  0  0
  1  2  1  0
  1  3  2  0
  1  4  1  0
  4  5  1  0
  4  6  1  0
  5  7  1  6
  5  8  1  0
  6  9  1  0
  6 10  1  1
  8 11  1  0
  9 11  1  0
 10 12  1  0
 10 13  1  0
 12 13  1  0
  7 14  1  0
 11 15  1  0
 14 16  2  0
 14 17  1  0
 15 18  1  6
 15 19  1  0
 16 20  1  0
 17 21  2  0
 19 22  2  0
 19 23  1  0
 18 24  1  0
 20 25  2  0
 21 25  1  0
 22 26  1  0
 23 27  1  0
 26 27  2  0
 24 28  2  0
 24 29  1  0
 27 30  1  0
 29 31  1  0
 28 32  1  0
 29 33  2  0
 32 34  2  0
 33 34  1  0
M  END
