x1334_0-x1334_1-x0397_0-x0831_0-x0692_1-x0770_1
     RDKit          3D

 27 30  0  0  0  0  0  0  0  0999 V2000
    6.3290   -3.2950   19.8660 C   0  0  0  0  0  0  0  0  0  0  0  0
    7.3050   -3.0070   18.7520 C   0  0  0  0  0  0  0  0  0  0  0  0
    5.3430   -4.0180   19.6610 O   0  0  0  0  0  0  0  0  0  0  0  0
    6.6300   -2.7750   21.1160 N   0  0  0  0  0  0  0  0  0  0  0  0
    7.4620   -1.5600   21.2600 C   0  0  0  0  0  0  0  0  0  0  0  0
    6.8890   -3.6980   22.2180 C   0  0  1  0  0  0  0  0  0  0  0  0
    8.7310   -1.7870   22.1160 C   0  0  0  0  0  0  0  0  0  0  0  0
    7.1170   -2.9040   23.5080 C   0  0  0  0  0  0  0  0  0  0  0  0
    5.8190   -4.7410   22.3680 C   0  0  0  0  0  0  0  0  0  0  0  0
    8.4550   -2.2990   23.4830 N   0  0  0  0  0  0  0  0  0  0  0  0
    5.9600   -5.9370   23.2860 C   0  0  0  0  0  0  0  0  0  0  0  0
    6.0180   -6.1270   21.7970 C   0  0  0  0  0  0  0  0  0  0  0  0
    9.4900   -3.2700   23.8820 C   0  0  1  0  0  0  0  0  0  0  0  0
   10.9220   -2.6990   23.9920 C   0  0  0  0  0  0  0  0  0  0  0  0
    9.1150   -4.1590   25.0700 C   0  0  0  0  0  0  0  0  0  0  0  0
    9.7350   -5.3760   25.3300 C   0  0  0  0  0  0  0  0  0  0  0  0
    7.9130   -3.8720   26.2840 S   0  0  0  0  0  0  0  0  0  0  0  0
   11.2120   -1.2010   23.8350 C   0  0  0  0  0  0  0  0  0  0  0  0
    9.2520   -6.0080   26.4320 C   0  0  0  0  0  0  0  0  0  0  0  0
    8.2460   -5.3470   27.0930 C   0  0  0  0  0  0  0  0  0  0  0  0
   10.3280   -0.1740   24.5080 C   0  0  0  0  0  0  0  0  0  0  0  0
   12.3000   -0.8030   23.0730 C   0  0  0  0  0  0  0  0  0  0  0  0
    7.3810   -5.8090   28.4890 Cl  0  0  0  0  0  0  0  0  0  0  0  0
   13.1740   -1.7940   22.3800 C   0  0  0  0  0  0  0  0  0  0  0  0
   10.6180    1.1340   24.3620 C   0  0  0  0  0  0  0  0  0  0  0  0
   12.6110    0.6440   22.9370 C   0  0  0  0  0  0  0  0  0  0  0  0
   11.8300    1.6090   23.5370 C   0  0  0  0  0  0  0  0  0  0  0  0
  1  2  1  0
  1  3  2  0
  1  4  1  0
  4  5  1  0
  4  6  1  0
  5  7  1  0
  6  8  1  0
  6  9  1  1
  7 10  1  0
  8 10  1  0
  9 11  1  0
  9 12  1  0
 11 12  1  0
 10 13  1  0
 13 14  1  1
 13 15  1  0
 15 16  2  0
 15 17  1  0
 14 18  1  0
 16 19  1  0
 17 20  1  0
 19 20  2  0
 18 21  2  0
 18 22  1  0
 20 23  1  0
 22 24  1  0
 21 25  1  0
 22 26  2  0
 25 27  2  0
 26 27  1  0
M  END
