x1336_1-x0769_0
     RDKit          3D

 21 22  0  0  0  0  0  0  0  0999 V2000
    7.4150   -1.9870   25.2230 S   0  0  0  0  0  0  0  0  0  0  0  0
    6.9050   -2.7540   23.7120 C   0  0  0  0  0  0  0  0  0  0  0  0
    6.7280   -4.2500   23.7460 C   0  0  1  0  0  0  0  0  0  0  0  0
    8.5850   -1.1930   24.9220 O   0  0  0  0  0  0  0  0  0  0  0  0
    6.2850   -1.3920   25.8970 O   0  0  0  0  0  0  0  0  0  0  0  0
    7.8110   -3.3630   26.2390 C   0  0  0  0  0  0  0  0  0  0  0  0
    6.8390   -3.8060   27.3140 C   0  0  0  0  0  0  0  0  0  0  0  0
    8.9980   -4.0540   26.0660 C   0  0  0  0  0  0  0  0  0  0  0  0
   10.0150   -3.6750   25.0250 C   0  0  0  0  0  0  0  0  0  0  0  0
    6.9870   -4.8670   28.1890 C   0  0  0  0  0  0  0  0  0  0  0  0
    9.2760   -5.1450   26.8760 C   0  0  0  0  0  0  0  0  0  0  0  0
    5.3990   -4.5350   23.6070 N   0  0  0  0  0  0  0  0  0  0  0  0
    7.4790   -4.8700   22.7410 C   0  0  0  0  0  0  0  0  0  0  0  0
    5.9180   -5.1660   29.1930 C   0  0  0  0  0  0  0  0  0  0  0  0
    8.3200   -5.6190   27.9630 C   0  0  0  0  0  0  0  0  0  0  0  0
    5.0810   -5.8780   23.1440 C   0  0  0  0  0  0  0  0  0  0  0  0
    6.7320   -5.2780   21.5360 N   0  0  0  0  0  0  0  0  0  0  0  0
    6.3470   -4.4760   20.4520 C   0  0  0  0  0  0  0  0  0  0  0  0
    5.8230   -6.2650   22.0480 C   0  0  0  0  0  0  0  0  0  0  0  0
    5.2480   -4.6300   19.9340 O   0  0  0  0  0  0  0  0  0  0  0  0
    7.3120   -3.4390   19.8950 C   0  0  0  0  0  0  0  0  0  0  0  0
  1  2  1  0
  3  2  1  6
  1  4  2  0
  1  5  2  0
  1  6  1  0
  6  7  2  0
  6  8  1  0
  8  9  1  0
  7 10  1  0
  8 11  2  0
  3 12  1  0
  3 13  1  0
 10 14  1  0
 10 15  2  0
 11 15  1  0
 12 16  1  0
 13 17  1  0
 17 18  1  0
 16 19  1  0
 17 19  1  0
 18 20  2  0
 18 21  1  0
M  END
