x1334_0-x0387_0-x1418_1
     RDKit          3D

 22 24  0  0  0  0  0  0  0  0999 V2000
    6.4510   -3.2450   19.8570 C   0  0  0  0  0  0  0  0  0  0  0  0
    7.4250   -2.9680   18.7280 C   0  0  0  0  0  0  0  0  0  0  0  0
    5.4840   -4.0200   19.7060 O   0  0  0  0  0  0  0  0  0  0  0  0
    6.7130   -2.6130   21.0880 N   0  0  0  0  0  0  0  0  0  0  0  0
    6.6290   -3.4390   22.2920 C   0  0  0  0  0  0  0  0  0  0  0  0
    7.6650   -1.4750   21.1590 C   0  0  0  0  0  0  0  0  0  0  0  0
    7.8910   -3.9380   22.5910 C   0  0  0  0  0  0  0  0  0  0  0  0
    8.8490   -1.7390   21.9060 C   0  0  0  0  0  0  0  0  0  0  0  0
    8.8470   -2.8640   22.8710 N   0  0  0  0  0  0  0  0  0  0  0  0
    8.9700   -2.5410   24.3000 C   0  0  2  0  0  0  0  0  0  0  0  0
   10.0560   -1.5230   24.6570 C   0  0  0  0  0  0  0  0  0  0  0  0
    8.9900   -3.7260   25.1670 C   0  0  0  0  0  0  0  0  0  0  0  0
    9.7910   -4.8790   25.1780 C   0  0  0  0  0  0  0  0  0  0  0  0
    7.8110   -3.7600   26.4330 S   0  0  0  0  0  0  0  0  0  0  0  0
   11.2340   -1.2570   23.7720 C   0  0  0  0  0  0  0  0  0  0  0  0
    9.4650   -5.7560   26.1690 C   0  0  0  0  0  0  0  0  0  0  0  0
    8.3030   -5.2720   27.0330 C   0  0  0  0  0  0  0  0  0  0  0  0
   12.0480   -0.1350   23.8630 C   0  0  0  0  0  0  0  0  0  0  0  0
   11.6880   -2.0790   22.7450 C   0  0  0  0  0  0  0  0  0  0  0  0
    7.5130   -5.9710   28.3740 Cl  0  0  0  0  0  0  0  0  0  0  0  0
   13.0750   -0.0730   22.9750 C   0  0  0  0  0  0  0  0  0  0  0  0
   13.0800   -1.4610   21.9470 S   0  0  0  0  0  0  0  0  0  0  0  0
  1  2  1  0
  1  3  2  0
  1  4  1  0
  4  5  1  0
  4  6  1  0
  5  7  1  0
  6  8  1  0
  7  9  1  0
  8  9  1  0
  9 10  1  0
 10 11  1  6
 10 12  1  0
 12 13  2  0
 12 14  1  0
 11 15  1  0
 13 16  1  0
 14 17  1  0
 16 17  2  0
 15 18  1  0
 15 19  2  0
 17 20  1  0
 18 21  2  0
 19 22  1  0
 21 22  1  0
M  END
