x1334_0-x0770_1-x0397_0-x1418_1-x0831_0-x0831_1-x1334_1-x0692_1-x1374_1-x1385_1-x1386_1-x0434_2-x1412_1
     RDKit          3D

 39 43  0  0  0  0  0  0  0  0999 V2000
    6.3450   -3.2920   19.8560 C   0  0  0  0  0  0  0  0  0  0  0  0
    7.3260   -3.0220   18.7260 C   0  0  0  0  0  0  0  0  0  0  0  0
    5.3890   -4.0730   19.7220 O   0  0  0  0  0  0  0  0  0  0  0  0
    6.6730   -2.6120   21.0530 N   0  0  0  0  0  0  0  0  0  0  0  0
    7.7490   -1.6070   21.0140 C   0  0  2  0  0  0  0  0  0  0  0  0
    6.8890   -3.5570   22.1760 C   0  0  1  0  0  0  0  0  0  0  0  0
    8.8920   -1.8290   22.0610 C   0  0  0  0  0  0  0  0  0  0  0  0
    7.0800   -2.8590   23.3800 C   0  0  0  0  0  0  0  0  0  0  0  0
    5.8430   -4.5950   22.3180 C   0  0  2  0  0  0  0  0  0  0  0  0
    7.4480   -0.1310   20.8120 C   0  0  0  0  0  0  0  0  0  0  0  0
    8.3870   -2.1840   23.4250 N   0  0  0  0  0  0  0  0  0  0  0  0
    5.9840   -5.5980   23.1420 C   0  0  2  0  0  0  0  0  0  0  0  0
    6.0980   -6.1700   21.8390 C   0  0  0  0  0  0  0  0  0  0  0  0
    7.1070    0.2250   19.3810 C   0  0  0  0  0  0  0  0  0  0  0  0
    9.3430   -2.5790   24.4740 C   0  0  2  0  0  0  0  0  0  0  0  0
    6.0580    0.4680   20.3340 C   0  0  0  0  0  0  0  0  0  0  0  0
    6.5050    0.6480   18.1920 N   0  0  0  0  0  0  0  0  0  0  0  0
    4.9250   -5.9500   24.1340 C   0  0  0  0  0  0  0  0  0  0  0  0
   10.7170   -2.5580   23.8750 C   0  0  0  0  0  0  0  0  0  0  0  0
    9.0910   -3.8050   25.3550 C   0  0  0  0  0  0  0  0  0  0  0  0
    5.3030    1.1740   17.8730 C   0  0  0  0  0  0  0  0  0  0  0  0
    4.7840    0.9780   20.1960 C   0  0  0  0  0  0  0  0  0  0  0  0
    4.4630   -7.1910   23.8180 C   0  0  0  0  0  0  0  0  0  0  0  0
    9.7710   -5.0230   25.3850 C   0  0  0  0  0  0  0  0  0  0  0  0
    7.8340   -3.8140   26.5450 S   0  0  0  0  0  0  0  0  0  0  0  0
   11.2460   -1.1400   23.6990 C   0  0  0  0  0  0  0  0  0  0  0  0
    4.3320    1.3600   18.9860 C   0  0  0  0  0  0  0  0  0  0  0  0
    3.9650   -7.9450   24.9080 O   0  0  0  0  0  0  0  0  0  0  0  0
    9.2450   -5.8390   26.3510 C   0  0  0  0  0  0  0  0  0  0  0  0
    8.1910   -5.3800   27.1050 C   0  0  0  0  0  0  0  0  0  0  0  0
   10.4570   -0.0150   24.3510 C   0  0  0  0  0  0  0  0  0  0  0  0
   12.3900   -0.8270   22.9860 C   0  0  0  0  0  0  0  0  0  0  0  0
    2.5550   -8.0440   24.8660 C   0  0  0  0  0  0  0  0  0  0  0  0
    7.2940   -6.0780   28.3760 Cl  0  0  0  0  0  0  0  0  0  0  0  0
   13.1540   -1.9270   22.3280 C   0  0  0  0  0  0  0  0  0  0  0  0
   10.9350    1.2590   24.1890 C   0  0  0  0  0  0  0  0  0  0  0  0
   12.8500    0.4860   22.8600 C   0  0  0  0  0  0  0  0  0  0  0  0
    2.0980   -7.3230   23.7400 O   0  0  0  0  0  0  0  0  0  0  0  0
   12.1090    1.5230   23.4640 C   0  0  0  0  0  0  0  0  0  0  0  0
  1  2  1  0
  1  3  2  0
  1  4  1  0
  4  5  1  0
  4  6  1  0
  5  7  1  0
  6  8  1  1
  6  9  1  0
  5 10  1  1
  7 11  1  0
  8 11  1  0
  9 12  1  0
  9 13  1  6
 12 13  1  0
 10 14  1  0
 11 15  1  0
 14 16  2  0
 14 17  1  0
 12 18  1  6
 15 19  1  6
 15 20  1  0
 17 21  2  0
 16 22  1  0
 18 23  1  0
 20 24  2  0
 20 25  1  0
 19 26  1  0
 21 27  1  0
 22 27  2  0
 23 28  1  0
 24 29  1  0
 25 30  1  0
 29 30  2  0
 26 31  2  0
 26 32  1  0
 28 33  1  0
 30 34  1  0
 32 35  1  0
 31 36  1  0
 32 37  2  0
 33 38  1  0
 36 39  2  0
 37 39  1  0
M  END
