x1334_0-x1412_1-x0397_0-x0692_1-x0770_1-x1385_1-x0831_1-x0434_2-x1334_1-x0831_0
     RDKit          3D

 34 38  0  0  0  0  0  0  0  0999 V2000
    6.3670   -3.3730   19.8970 C   0  0  0  0  0  0  0  0  0  0  0  0
    7.3530   -3.0290   18.7860 C   0  0  0  0  0  0  0  0  0  0  0  0
    5.3770   -4.0760   19.6870 O   0  0  0  0  0  0  0  0  0  0  0  0
    6.6570   -2.9120   21.1710 N   0  0  0  0  0  0  0  0  0  0  0  0
    7.5320   -1.7660   21.1680 C   0  0  1  0  0  0  0  0  0  0  0  0
    6.7880   -3.8020   22.2040 C   0  0  1  0  0  0  0  0  0  0  0  0
    6.7170   -0.5660   21.3020 N   0  0  0  0  0  0  0  0  0  0  0  0
    8.6140   -1.8360   22.2740 C   0  0  0  0  0  0  0  0  0  0  0  0
    6.9170   -3.1560   23.5950 C   0  0  0  0  0  0  0  0  0  0  0  0
    5.6800   -4.7880   22.1830 C   0  0  0  0  0  0  0  0  0  0  0  0
    8.0550   -2.2890   23.6080 N   0  0  0  0  0  0  0  0  0  0  0  0
    5.6360   -5.8540   22.9460 C   0  0  0  0  0  0  0  0  0  0  0  0
    5.9440   -6.3340   21.7480 C   0  0  0  0  0  0  0  0  0  0  0  0
    6.2420    0.0650   20.1650 C   0  0  0  0  0  0  0  0  0  0  0  0
    9.1970   -2.7470   24.2810 C   0  0  2  0  0  0  0  0  0  0  0  0
    6.8370    0.0220   18.9230 C   0  0  0  0  0  0  0  0  0  0  0  0
    5.0670    0.7950   20.3150 C   0  0  0  0  0  0  0  0  0  0  0  0
   10.3940   -2.6560   23.3160 C   0  0  0  0  0  0  0  0  0  0  0  0
    9.0690   -3.8980   25.1670 C   0  0  0  0  0  0  0  0  0  0  0  0
    6.4090    0.6290   17.7940 N   0  0  0  0  0  0  0  0  0  0  0  0
    4.4520    1.5460   19.1080 C   0  0  0  0  0  0  0  0  0  0  0  0
    9.7390   -5.1060   25.1900 C   0  0  0  0  0  0  0  0  0  0  0  0
    7.9210   -3.7970   26.4230 S   0  0  0  0  0  0  0  0  0  0  0  0
   10.9690   -1.2590   23.3580 C   0  0  0  0  0  0  0  0  0  0  0  0
    5.2870    1.3590   17.8470 C   0  0  0  0  0  0  0  0  0  0  0  0
    9.3050   -5.9470   26.2540 C   0  0  0  0  0  0  0  0  0  0  0  0
    8.3160   -5.3460   26.9960 C   0  0  0  0  0  0  0  0  0  0  0  0
   10.2770   -0.2520   24.0660 C   0  0  0  0  0  0  0  0  0  0  0  0
   12.2930   -0.8750   22.6860 C   0  0  0  0  0  0  0  0  0  0  0  0
    7.4810   -5.9480   28.3590 Cl  0  0  0  0  0  0  0  0  0  0  0  0
   13.1000   -1.8480   21.9070 C   0  0  0  0  0  0  0  0  0  0  0  0
   10.7810    1.0910   24.1600 C   0  0  0  0  0  0  0  0  0  0  0  0
   12.8270    0.5850   22.8190 C   0  0  0  0  0  0  0  0  0  0  0  0
   12.1030    1.5220   23.5140 C   0  0  0  0  0  0  0  0  0  0  0  0
  1  2  1  0
  1  3  2  0
  1  4  1  0
  4  5  1  0
  4  6  1  0
  5  7  1  1
  5  8  1  0
  6  9  1  0
  6 10  1  1
  8 11  1  0
  9 11  1  0
 10 12  1  0
 10 13  1  0
 12 13  1  0
  7 14  1  0
 11 15  1  0
 14 16  2  0
 14 17  1  0
 15 18  1  6
 15 19  1  0
 16 20  1  0
 17 21  2  0
 19 22  2  0
 19 23  1  0
 18 24  1  0
 20 25  2  0
 21 25  1  0
 22 26  1  0
 23 27  1  0
 26 27  2  0
 24 28  2  0
 24 29  1  0
 27 30  1  0
 29 31  1  0
 28 32  1  0
 29 33  2  0
 32 34  2  0
 33 34  1  0
M  END
