x1334_0-x1402_1
     RDKit          3D

 18 19  0  0  0  0  0  0  0  0999 V2000
    6.5750   -4.6310   20.6430 C   0  0  0  0  0  0  0  0  0  0  0  0
    7.7290   -3.6730   20.2960 C   0  0  0  0  0  0  0  0  0  0  0  0
    5.5330   -4.6820   19.9740 O   0  0  0  0  0  0  0  0  0  0  0  0
    6.7750   -5.4420   21.7560 N   0  0  0  0  0  0  0  0  0  0  0  0
    7.4510   -4.9240   22.9210 C   0  0  0  0  0  0  0  0  0  0  0  0
    5.6750   -6.3530   22.1620 C   0  0  0  0  0  0  0  0  0  0  0  0
    6.4880   -4.1020   23.4590 C   0  0  2  0  0  0  0  0  0  0  0  0
    4.8560   -5.8380   23.1160 C   0  0  0  0  0  0  0  0  0  0  0  0
    7.0370   -2.9550   24.3080 C   0  0  0  0  0  0  0  0  0  0  0  0
    5.5480   -5.0130   24.1390 N   0  0  0  0  0  0  0  0  0  0  0  0
    8.3160   -2.2890   23.7700 C   0  0  0  0  0  0  0  0  0  0  0  0
    9.6000   -3.0070   24.2020 C   0  0  0  0  0  0  0  0  0  0  0  0
    9.3130   -4.0870   25.2000 C   0  0  0  0  0  0  0  0  0  0  0  0
    9.8620   -5.3440   25.2790 C   0  0  0  0  0  0  0  0  0  0  0  0
    8.1620   -3.8210   26.4450 S   0  0  0  0  0  0  0  0  0  0  0  0
    9.2950   -6.1310   26.4430 C   0  0  0  0  0  0  0  0  0  0  0  0
    8.3590   -5.3630   27.1160 C   0  0  0  0  0  0  0  0  0  0  0  0
    7.4660   -5.8790   28.4810 Cl  0  0  0  0  0  0  0  0  0  0  0  0
  1  2  1  0
  1  3  2  0
  1  4  1  0
  4  5  1  0
  4  6  1  0
  5  7  1  0
  6  8  1  0
  7  9  1  1
  7 10  1  0
  8 10  1  0
  9 11  1  0
 11 12  1  0
 12 13  1  0
 13 14  2  0
 13 15  1  0
 14 16  1  0
 15 17  1  0
 16 17  2  0
 17 18  1  0
M  END
