x1334_1-x0397_0-x1418_1-x0831_1-x1386_1-x1334_0-x0426_1-x1385_1-x1412_1-x0434_2-x0831_0-x0770_1-x1374_1-x0692_1
     RDKit          3D

 45 51  0  0  0  0  0  0  0  0999 V2000
    1.9720   -7.0710   23.8650 O   0  0  0  0  0  0  0  0  0  0  0  0
    2.4180   -7.9440   24.8860 C   0  0  0  0  0  0  0  0  0  0  0  0
    3.8290   -7.9890   24.9170 O   0  0  0  0  0  0  0  0  0  0  0  0
    4.4360   -7.2650   23.8590 C   0  0  0  0  0  0  0  0  0  0  0  0
    4.7950   -5.8330   24.2010 C   0  0  0  0  0  0  0  0  0  0  0  0
    5.8620   -5.3880   23.2600 C   0  0  2  0  0  0  0  0  0  0  0  0
    5.5080   -4.2870   22.2760 C   0  0  2  0  0  0  0  0  0  0  0  0
    5.9650   -5.8490   21.8370 C   0  0  0  0  0  0  0  0  0  0  0  0
    6.4270   -3.0800   22.3270 C   0  0  2  0  0  0  0  0  0  0  0  0
    6.7550   -2.5670   20.9970 N   0  0  0  0  0  0  0  0  0  0  0  0
    7.7050   -3.5920   22.9780 C   0  0  0  0  0  0  0  0  0  0  0  0
    6.4360   -3.2950   19.8640 C   0  0  0  0  0  0  0  0  0  0  0  0
    8.7200   -2.5770   23.2260 N   0  0  0  0  0  0  0  0  0  0  0  0
    7.9520   -1.7100   20.9210 C   0  0  1  0  0  0  0  0  0  0  0  0
    7.3430   -3.0700   18.6730 C   0  0  0  0  0  0  0  0  0  0  0  0
    5.5000   -4.1210   19.7400 O   0  0  0  0  0  0  0  0  0  0  0  0
    9.7170   -3.1680   23.9590 C   0  0  1  0  0  0  0  0  0  0  0  0
    7.5820   -0.2990   20.9610 N   0  0  0  0  0  0  0  0  0  0  0  0
    9.1310   -1.9350   21.9590 C   0  0  0  0  0  0  0  0  0  0  0  0
   10.7640   -2.2950   24.6420 C   0  0  0  0  0  0  0  0  0  0  0  0
    7.3020    0.3970   22.2140 C   0  0  0  0  0  0  0  0  0  0  0  0
    6.7140    0.2580   19.9490 C   0  0  0  0  0  0  0  0  0  0  0  0
    9.1950   -4.0450   25.1290 C   0  0  0  0  0  0  0  0  0  0  0  0
    5.8210    0.8060   22.1360 C   0  0  2  0  0  0  0  0  0  0  0  0
    6.6840    0.3000   18.5550 N   0  0  0  0  0  0  0  0  0  0  0  0
    5.6740    0.9020   20.6390 C   0  0  0  0  0  0  0  0  0  0  0  0
    9.8490   -5.4150   25.3490 C   0  0  0  0  0  0  0  0  0  0  0  0
    7.9620   -3.8250   26.3450 S   0  0  0  0  0  0  0  0  0  0  0  0
   11.1410   -0.9240   24.1820 C   0  0  0  0  0  0  0  0  0  0  0  0
    5.4160    2.1630   22.7370 C   0  0  0  0  0  0  0  0  0  0  0  0
    4.5310    1.6300   20.0760 C   0  0  0  0  0  0  0  0  0  0  0  0
    5.6560    0.9760   17.9500 C   0  0  0  0  0  0  0  0  0  0  0  0
    9.2410   -6.0860   26.4950 C   0  0  0  0  0  0  0  0  0  0  0  0
    8.1780   -5.3250   27.1510 C   0  0  0  0  0  0  0  0  0  0  0  0
   10.4750    0.1780   24.5700 C   0  0  0  0  0  0  0  0  0  0  0  0
   12.2660   -0.8100   23.3100 C   0  0  0  0  0  0  0  0  0  0  0  0
    4.0050    2.6150   22.4000 C   0  0  1  0  0  0  0  0  0  0  0  0
    3.5100    2.2450   20.9810 C   0  0  0  0  0  0  0  0  0  0  0  0
    7.2260   -5.7530   28.5040 Cl  0  0  0  0  0  0  0  0  0  0  0  0
   13.0310   -2.0000   22.8270 C   0  0  0  0  0  0  0  0  0  0  0  0
    4.6160    1.6230   18.5600 C   0  0  0  0  0  0  0  0  0  0  0  0
   10.9880    1.4730   24.0570 C   0  0  0  0  0  0  0  0  0  0  0  0
   12.7160    0.4060   22.8630 C   0  0  0  0  0  0  0  0  0  0  0  0
    3.0770    2.0930   23.3630 N   0  0  0  0  0  0  0  0  0  0  0  0
   12.1030    1.5640   23.2170 C   0  0  0  0  0  0  0  0  0  0  0  0
  1  2  1  0
  2  3  1  0
  3  4  1  0
  4  5  1  0
  6  5  1  1
  6  7  1  0
  6  8  1  0
  7  8  1  6
  7  9  1  0
  9 10  1  0
  9 11  1  6
 10 12  1  0
 11 13  1  0
 10 14  1  0
 12 15  1  0
 12 16  2  0
 13 17  1  0
 14 18  1  1
 13 19  1  0
 14 19  1  0
 17 20  1  1
 18 21  1  0
 18 22  1  0
 17 23  1  0
 24 21  1  6
 22 25  2  0
 22 26  1  0
 24 26  1  0
 23 27  2  0
 23 28  1  0
 20 29  1  0
 24 30  1  0
 26 31  2  0
 25 32  1  0
 27 33  1  0
 28 34  1  0
 33 34  2  0
 29 35  2  0
 29 36  1  0
 30 37  1  0
 31 38  1  0
 37 38  1  0
 34 39  1  0
 36 40  1  0
 31 41  1  0
 32 41  2  0
 35 42  1  0
 36 43  2  0
 37 44  1  1
 42 45  2  0
 43 45  1  0
M  END
