x1334_1-x1336_0-x1412_0-x1386_0
     RDKit          3D

 22 24  0  0  0  0  0  0  0  0999 V2000
    6.2830   -3.3580   19.9100 C   0  0  0  0  0  0  0  0  0  0  0  0
    7.2250   -2.9990   18.7660 C   0  0  0  0  0  0  0  0  0  0  0  0
    5.3310   -4.1200   19.7120 O   0  0  0  0  0  0  0  0  0  0  0  0
    6.5580   -2.8440   21.1590 N   0  0  0  0  0  0  0  0  0  0  0  0
    7.4840   -1.7030   21.3660 C   0  0  0  0  0  0  0  0  0  0  0  0
    6.2350   -3.6380   22.3560 C   0  0  0  0  0  0  0  0  0  0  0  0
    8.6020   -2.0260   22.3650 C   0  0  0  0  0  0  0  0  0  0  0  0
    7.4380   -3.8630   23.2910 C   0  0  0  0  0  0  0  0  0  0  0  0
    8.0490   -2.5730   23.6260 N   0  0  0  0  0  0  0  0  0  0  0  0
    8.9560   -2.5610   24.6900 C   0  0  2  0  0  0  0  0  0  0  0  0
    9.0700   -1.4420   25.1760 O   0  0  0  0  0  0  0  0  0  0  0  0
   10.3930   -2.7550   24.1450 C   0  0  0  0  0  0  0  0  0  0  0  0
    8.7640   -3.7240   25.7120 C   0  0  0  0  0  0  0  0  0  0  0  0
    9.6690   -4.8100   25.6630 C   0  0  0  0  0  0  0  0  0  0  0  0
    7.5870   -3.9110   26.9630 S   0  0  0  0  0  0  0  0  0  0  0  0
   11.1910   -1.5640   23.8260 C   0  0  0  0  0  0  0  0  0  0  0  0
    9.3270   -5.6870   26.6310 C   0  0  0  0  0  0  0  0  0  0  0  0
    8.2810   -5.4040   27.4130 C   0  0  0  0  0  0  0  0  0  0  0  0
   12.3610   -1.5250   22.8560 C   0  0  0  0  0  0  0  0  0  0  0  0
   11.0280   -0.2670   24.3460 C   0  0  0  0  0  0  0  0  0  0  0  0
   12.9820   -0.1360   22.7440 C   0  0  0  0  0  0  0  0  0  0  0  0
   12.1390    0.9320   23.7600 S   0  0  0  0  0  0  0  0  0  0  0  0
  1  2  1  0
  1  3  2  0
  1  4  1  0
  4  5  1  0
  4  6  1  0
  5  7  1  0
  6  8  1  0
  7  9  1  0
  8  9  1  0
  9 10  1  0
 10 11  1  1
 10 12  1  0
 10 13  1  0
 13 14  2  0
 13 15  1  0
 12 16  1  0
 14 17  1  0
 15 18  1  0
 17 18  2  0
 16 19  1  0
 16 20  2  0
 19 21  2  0
 20 22  1  0
 21 22  1  0
M  END
