x1334_0-x1418_1-x1412_1-x1334_1-x0831_0-x0397_0-x0770_1-x1374_1-x0692_1-x0434_2
     RDKit          3D

 39 43  0  0  0  0  0  0  0  0999 V2000
    6.4430   -3.2220   19.8010 C   0  0  0  0  0  0  0  0  0  0  0  0
    7.4090   -2.9960   18.6600 C   0  0  0  0  0  0  0  0  0  0  0  0
    5.5110   -4.0370   19.6890 O   0  0  0  0  0  0  0  0  0  0  0  0
    6.6350   -2.5240   20.9950 N   0  0  0  0  0  0  0  0  0  0  0  0
    6.3120   -3.0390   22.3390 C   0  0  2  0  0  0  0  0  0  0  0  0
    7.7910   -1.5680   20.9410 C   0  0  2  0  0  0  0  0  0  0  0  0
    7.5780   -3.5140   23.0140 C   0  0  0  0  0  0  0  0  0  0  0  0
    8.8750   -1.7520   22.0260 C   0  0  0  0  0  0  0  0  0  0  0  0
    5.4140   -4.2230   22.3120 C   0  0  2  0  0  0  0  0  0  0  0  0
    7.5040   -0.1110   20.7840 C   0  0  0  0  0  0  0  0  0  0  0  0
    8.5170   -2.4490   23.2900 N   0  0  0  0  0  0  0  0  0  0  0  0
    5.7580   -5.3210   23.1150 C   0  0  2  0  0  0  0  0  0  0  0  0
    5.8480   -5.7810   21.9320 C   0  0  0  0  0  0  0  0  0  0  0  0
    7.1610    0.2510   19.3630 C   0  0  0  0  0  0  0  0  0  0  0  0
    9.5390   -3.2110   23.7540 C   0  0  1  0  0  0  0  0  0  0  0  0
    6.0820    0.4880   20.2760 C   0  0  0  0  0  0  0  0  0  0  0  0
    6.4770    0.7200   18.0740 N   0  0  0  0  0  0  0  0  0  0  0  0
    4.9380   -5.9470   24.1780 C   0  0  0  0  0  0  0  0  0  0  0  0
   10.8840   -2.5140   23.9950 C   0  0  0  0  0  0  0  0  0  0  0  0
    9.2080   -4.1440   24.9230 C   0  0  0  0  0  0  0  0  0  0  0  0
    5.1300    1.2560   17.9210 C   0  0  0  0  0  0  0  0  0  0  0  0
    4.7880    0.9910   20.1200 C   0  0  0  0  0  0  0  0  0  0  0  0
    4.4370   -7.1850   23.7700 C   0  0  0  0  0  0  0  0  0  0  0  0
    9.8380   -5.3860   25.2290 C   0  0  0  0  0  0  0  0  0  0  0  0
    7.9210   -3.8070   26.1310 S   0  0  0  0  0  0  0  0  0  0  0  0
   11.1960   -1.0480   23.7740 C   0  0  0  0  0  0  0  0  0  0  0  0
    4.3060    1.3830   18.9380 C   0  0  0  0  0  0  0  0  0  0  0  0
    4.0180   -7.9540   24.8850 O   0  0  0  0  0  0  0  0  0  0  0  0
    9.3010   -5.9670   26.3450 C   0  0  0  0  0  0  0  0  0  0  0  0
    8.1760   -5.2290   27.0400 C   0  0  0  0  0  0  0  0  0  0  0  0
   10.4160    0.0340   24.1390 C   0  0  0  0  0  0  0  0  0  0  0  0
   12.3820   -0.7580   23.1600 C   0  0  0  0  0  0  0  0  0  0  0  0
    2.6100   -8.0650   24.9290 C   0  0  0  0  0  0  0  0  0  0  0  0
    7.2750   -5.6330   28.4340 Cl  0  0  0  0  0  0  0  0  0  0  0  0
   13.2830   -1.8490   22.6880 C   0  0  0  0  0  0  0  0  0  0  0  0
   10.8740    1.3850   23.9000 C   0  0  0  0  0  0  0  0  0  0  0  0
   12.7910    0.6820   22.9490 C   0  0  0  0  0  0  0  0  0  0  0  0
    2.0490   -7.3730   23.8330 O   0  0  0  0  0  0  0  0  0  0  0  0
   12.0350    1.7960   23.3250 C   0  0  0  0  0  0  0  0  0  0  0  0
  1  2  1  0
  1  3  2  0
  1  4  1  0
  4  5  1  0
  4  6  1  0
  5  7  1  6
  6  8  1  0
  5  9  1  0
  6 10  1  1
  7 11  1  0
  8 11  1  0
  9 12  1  0
  9 13  1  6
 12 13  1  0
 10 14  1  0
 11 15  1  0
 14 16  2  0
 14 17  1  0
 12 18  1  1
 15 19  1  1
 15 20  1  0
 17 21  2  0
 16 22  1  0
 18 23  1  0
 20 24  2  0
 20 25  1  0
 19 26  1  0
 21 27  1  0
 22 27  2  0
 23 28  1  0
 24 29  1  0
 25 30  1  0
 29 30  2  0
 26 31  2  0
 26 32  1  0
 28 33  1  0
 30 34  1  0
 32 35  1  0
 31 36  1  0
 32 37  2  0
 33 38  1  0
 36 39  2  0
 37 39  1  0
M  END
