x1334_0-x0831_0-x1412_1-x0692_1
     RDKit          3D

 24 26  0  0  0  0  0  0  0  0999 V2000
    6.3040   -3.3060   19.8950 C   0  0  0  0  0  0  0  0  0  0  0  0
    7.3460   -2.9990   18.8160 C   0  0  0  0  0  0  0  0  0  0  0  0
    5.4470   -4.1760   19.7490 O   0  0  0  0  0  0  0  0  0  0  0  0
    6.3430   -2.5910   21.0710 N   0  0  0  0  0  0  0  0  0  0  0  0
    7.2670   -1.4600   21.1890 C   0  0  0  0  0  0  0  0  0  0  0  0
    6.0010   -3.1490   22.3660 C   0  0  0  0  0  0  0  0  0  0  0  0
    8.4960   -1.7980   22.0680 C   0  0  0  0  0  0  0  0  0  0  0  0
    7.1220   -3.6650   22.9510 C   0  0  0  0  0  0  0  0  0  0  0  0
    8.1700   -2.6780   23.2230 N   0  0  0  0  0  0  0  0  0  0  0  0
    9.3130   -3.4600   23.5840 C   0  0  1  0  0  0  0  0  0  0  0  0
   10.6470   -2.8180   23.2650 C   0  0  0  0  0  0  0  0  0  0  0  0
    9.1100   -4.2480   24.8430 C   0  0  0  0  0  0  0  0  0  0  0  0
    9.7940   -5.4010   25.1330 C   0  0  0  0  0  0  0  0  0  0  0  0
    7.9430   -3.8500   26.1170 S   0  0  0  0  0  0  0  0  0  0  0  0
   10.9450   -1.3310   23.4530 C   0  0  0  0  0  0  0  0  0  0  0  0
    9.3490   -5.9660   26.3970 C   0  0  0  0  0  0  0  0  0  0  0  0
    8.2710   -5.2100   27.1090 C   0  0  0  0  0  0  0  0  0  0  0  0
   10.1590   -0.4420   24.2160 C   0  0  0  0  0  0  0  0  0  0  0  0
   12.1100   -0.8210   22.8230 C   0  0  0  0  0  0  0  0  0  0  0  0
    7.4600   -5.5260   28.5740 Cl  0  0  0  0  0  0  0  0  0  0  0  0
   13.0070   -1.7350   21.9740 C   0  0  0  0  0  0  0  0  0  0  0  0
   10.5140    0.9050   24.3510 C   0  0  0  0  0  0  0  0  0  0  0  0
   12.4610    0.5130   22.9670 C   0  0  0  0  0  0  0  0  0  0  0  0
   11.6730    1.3590   23.7170 C   0  0  0  0  0  0  0  0  0  0  0  0
  1  2  1  0
  1  3  2  0
  1  4  1  0
  4  5  1  0
  4  6  1  0
  5  7  1  0
  6  8  1  0
  7  9  1  0
  8  9  1  0
  9 10  1  0
 10 11  1  1
 10 12  1  0
 12 13  2  0
 12 14  1  0
 11 15  1  0
 13 16  1  0
 14 17  1  0
 16 17  2  0
 15 18  2  0
 15 19  1  0
 17 20  1  0
 19 21  1  0
 18 22  1  0
 19 23  2  0
 22 24  2  0
 23 24  1  0
M  END
