x1334_1-x0692_1-x1386_1-x0434_2-x1412_1-x0770_1-x0831_1-x1374_1-x1385_1-x0426_1-x1334_0-x0397_0-x0831_0
     RDKit          3D

 45 51  0  0  0  0  0  0  0  0999 V2000
    1.9180   -6.7070   24.4600 O   0  0  0  0  0  0  0  0  0  0  0  0
    2.7920   -7.5150   23.6990 C   0  0  0  0  0  0  0  0  0  0  0  0
    3.8310   -7.9610   24.5590 O   0  0  0  0  0  0  0  0  0  0  0  0
    5.0590   -7.2770   24.3360 C   0  0  0  0  0  0  0  0  0  0  0  0
    4.8730   -5.9750   23.9480 C   0  0  0  0  0  0  0  0  0  0  0  0
    5.8830   -5.6380   22.8990 C   0  0  2  0  0  0  0  0  0  0  0  0
    5.7280   -4.6330   22.1000 C   0  0  2  0  0  0  0  0  0  0  0  0
    5.9130   -6.1550   21.5690 C   0  0  0  0  0  0  0  0  0  0  0  0
    6.8760   -3.7120   21.9380 C   0  0  1  0  0  0  0  0  0  0  0  0
    6.6710   -2.6870   20.9430 N   0  0  0  0  0  0  0  0  0  0  0  0
    7.1500   -3.1210   23.2570 C   0  0  0  0  0  0  0  0  0  0  0  0
    6.3690   -3.2880   19.7520 C   0  0  0  0  0  0  0  0  0  0  0  0
    8.3430   -2.3300   23.1500 N   0  0  0  0  0  0  0  0  0  0  0  0
    7.8390   -1.7950   20.7800 C   0  0  1  0  0  0  0  0  0  0  0  0
    7.3650   -3.0560   18.6300 C   0  0  0  0  0  0  0  0  0  0  0  0
    5.3830   -4.0200   19.6290 O   0  0  0  0  0  0  0  0  0  0  0  0
    9.2940   -2.5000   24.1840 C   0  0  2  0  0  0  0  0  0  0  0  0
    7.5120   -0.4070   20.9060 N   0  0  0  0  0  0  0  0  0  0  0  0
    8.9180   -2.1810   21.8200 C   0  0  0  0  0  0  0  0  0  0  0  0
   10.7030   -2.4480   23.6580 C   0  0  0  0  0  0  0  0  0  0  0  0
    7.1370    0.1420   22.2440 C   0  0  0  0  0  0  0  0  0  0  0  0
    6.6050    0.2100   19.8830 C   0  0  0  0  0  0  0  0  0  0  0  0
    9.0900   -3.6270   25.2020 C   0  0  0  0  0  0  0  0  0  0  0  0
    5.6490    0.3930   22.0790 C   0  0  2  0  0  0  0  0  0  0  0  0
    6.7250    0.3430   18.5230 N   0  0  0  0  0  0  0  0  0  0  0  0
    5.5190    0.6890   20.5820 C   0  0  0  0  0  0  0  0  0  0  0  0
    9.9250   -4.8650   25.3670 C   0  0  0  0  0  0  0  0  0  0  0  0
    7.8520   -3.6020   26.3510 S   0  0  0  0  0  0  0  0  0  0  0  0
   11.1840   -1.0320   23.5730 C   0  0  0  0  0  0  0  0  0  0  0  0
    5.0660    1.5810   22.8190 C   0  0  0  0  0  0  0  0  0  0  0  0
    4.4140    1.3650   20.0910 C   0  0  0  0  0  0  0  0  0  0  0  0
    5.6110    1.0590   17.8920 C   0  0  0  0  0  0  0  0  0  0  0  0
    9.4030   -5.6580   26.5170 C   0  0  0  0  0  0  0  0  0  0  0  0
    8.2960   -5.0670   27.1330 C   0  0  0  0  0  0  0  0  0  0  0  0
   10.5170    0.1080   23.9980 C   0  0  0  0  0  0  0  0  0  0  0  0
   12.4310   -0.8010   23.0120 C   0  0  0  0  0  0  0  0  0  0  0  0
    3.5420    1.6410   22.5460 C   0  0  2  0  0  0  0  0  0  0  0  0
    3.3040    1.8240   21.0060 C   0  0  0  0  0  0  0  0  0  0  0  0
    7.3630   -5.5480   28.4840 Cl  0  0  0  0  0  0  0  0  0  0  0  0
   13.2350   -1.9380   22.4930 C   0  0  0  0  0  0  0  0  0  0  0  0
    4.4400    1.5770   18.6980 C   0  0  0  0  0  0  0  0  0  0  0  0
   11.0190    1.4950   23.9180 C   0  0  0  0  0  0  0  0  0  0  0  0
   12.9310    0.4760   22.9240 C   0  0  0  0  0  0  0  0  0  0  0  0
    2.9970    2.7670   23.2620 N   0  0  0  0  0  0  0  0  0  0  0  0
   12.2740    1.6150   23.3560 C   0  0  0  0  0  0  0  0  0  0  0  0
  1  2  1  0
  2  3  1  0
  3  4  1  0
  4  5  1  0
  6  5  1  1
  6  7  1  0
  6  8  1  0
  7  8  1  6
  7  9  1  0
  9 10  1  0
  9 11  1  1
 10 12  1  0
 11 13  1  0
 10 14  1  0
 12 15  1  0
 12 16  2  0
 13 17  1  0
 14 18  1  1
 13 19  1  0
 14 19  1  0
 17 20  1  6
 18 21  1  0
 18 22  1  0
 17 23  1  0
 24 21  1  1
 22 25  2  0
 22 26  1  0
 24 26  1  0
 23 27  2  0
 23 28  1  0
 20 29  1  0
 24 30  1  0
 26 31  2  0
 25 32  1  0
 27 33  1  0
 28 34  1  0
 33 34  2  0
 29 35  2  0
 29 36  1  0
 30 37  1  0
 31 38  1  0
 37 38  1  0
 34 39  1  0
 36 40  1  0
 31 41  1  0
 32 41  2  0
 35 42  1  0
 36 43  2  0
 37 44  1  1
 42 45  2  0
 43 45  1  0
M  END
