x1334_1-x0397_0-x1412_1-x0434_2-x1334_0-x0831_0-x1385_1
     RDKit          3D

 34 38  0  0  0  0  0  0  0  0999 V2000
    6.3700   -3.3250   19.8730 C   0  0  0  0  0  0  0  0  0  0  0  0
    7.3080   -3.0130   18.7400 C   0  0  0  0  0  0  0  0  0  0  0  0
    5.3930   -4.0600   19.6830 O   0  0  0  0  0  0  0  0  0  0  0  0
    6.6870   -2.7940   21.1340 N   0  0  0  0  0  0  0  0  0  0  0  0
    7.6310   -1.6950   21.0930 C   0  0  1  0  0  0  0  0  0  0  0  0
    6.7950   -3.8120   22.1590 C   0  0  1  0  0  0  0  0  0  0  0  0
    6.9430   -0.4350   21.1710 N   0  0  0  0  0  0  0  0  0  0  0  0
    8.6840   -1.8620   22.2190 C   0  0  0  0  0  0  0  0  0  0  0  0
    7.0840   -3.2310   23.5100 C   0  0  0  0  0  0  0  0  0  0  0  0
    5.7400   -4.8530   22.1230 C   0  0  0  0  0  0  0  0  0  0  0  0
    8.1440   -2.2510   23.5550 N   0  0  0  0  0  0  0  0  0  0  0  0
    5.8720   -6.1230   23.1930 C   0  0  0  0  0  0  0  0  0  0  0  0
    6.0130   -6.2400   21.7850 C   0  0  0  0  0  0  0  0  0  0  0  0
    6.3690    0.1850   20.0860 C   0  0  0  0  0  0  0  0  0  0  0  0
    9.2780   -2.6230   24.3550 C   0  0  2  0  0  0  0  0  0  0  0  0
    6.8580    0.1590   18.7800 C   0  0  0  0  0  0  0  0  0  0  0  0
    5.2040    0.9020   20.2580 C   0  0  0  0  0  0  0  0  0  0  0  0
   10.4080   -2.6400   23.3030 C   0  0  0  0  0  0  0  0  0  0  0  0
    9.0570   -3.8290   25.2650 C   0  0  0  0  0  0  0  0  0  0  0  0
    6.3550    0.7400   17.6990 N   0  0  0  0  0  0  0  0  0  0  0  0
    4.5780    1.5890   19.0570 C   0  0  0  0  0  0  0  0  0  0  0  0
    9.7540   -5.0680   25.2770 C   0  0  0  0  0  0  0  0  0  0  0  0
    7.8480   -3.8290   26.5220 S   0  0  0  0  0  0  0  0  0  0  0  0
   11.0220   -1.2620   23.2980 C   0  0  0  0  0  0  0  0  0  0  0  0
    5.2170    1.4650   17.8020 C   0  0  0  0  0  0  0  0  0  0  0  0
    9.3350   -6.0770   26.3250 C   0  0  0  0  0  0  0  0  0  0  0  0
    8.1620   -5.4040   27.1430 C   0  0  0  0  0  0  0  0  0  0  0  0
   10.4290   -0.0410   23.9970 C   0  0  0  0  0  0  0  0  0  0  0  0
   12.1870   -0.9510   22.6810 C   0  0  0  0  0  0  0  0  0  0  0  0
    7.2510   -6.0060   28.4570 Cl  0  0  0  0  0  0  0  0  0  0  0  0
   12.9730   -1.9620   21.9150 C   0  0  0  0  0  0  0  0  0  0  0  0
   10.8810    1.1840   24.0590 C   0  0  0  0  0  0  0  0  0  0  0  0
   12.7330    0.5020   22.7610 C   0  0  0  0  0  0  0  0  0  0  0  0
   12.1570    1.7980   23.4550 C   0  0  0  0  0  0  0  0  0  0  0  0
  1  2  1  0
  1  3  2  0
  1  4  1  0
  4  5  1  0
  4  6  1  0
  5  7  1  1
  5  8  1  0
  6  9  1  0
  6 10  1  1
  8 11  1  0
  9 11  1  0
 10 12  1  0
 10 13  1  0
 12 13  1  0
  7 14  1  0
 11 15  1  0
 14 16  2  0
 14 17  1  0
 15 18  1  6
 15 19  1  0
 16 20  1  0
 17 21  2  0
 19 22  2  0
 19 23  1  0
 18 24  1  0
 20 25  2  0
 21 25  1  0
 22 26  1  0
 23 27  1  0
 26 27  2  0
 24 28  2  0
 24 29  1  0
 27 30  1  0
 29 31  1  0
 28 32  1  0
 29 33  2  0
 32 34  2  0
 33 34  1  0
M  END
