x1334_0-x0981_1-x1412_1-x1412_0
     RDKit          3D

 30 31  0  0  0  0  0  0  0  0999 V2000
    4.1380   -5.3870   23.1940 C   0  0  0  0  0  0  0  0  0  0  0  0
    2.7900   -6.0270   23.5200 C   0  0  1  0  0  0  0  0  0  0  0  0
    2.5230   -7.2240   22.7140 N   0  0  0  0  0  0  0  0  0  0  0  0
    4.3090   -4.1640   23.5850 N   0  0  0  0  0  0  0  0  0  0  0  0
    2.6200   -6.3070   25.0000 C   0  0  0  0  0  0  0  0  0  0  0  0
    5.5560   -3.4120   23.3390 C   0  0  0  0  0  0  0  0  0  0  0  0
    1.3530   -7.5270   22.0770 C   0  0  0  0  0  0  0  0  0  0  0  0
    3.0800   -7.7220   25.3130 C   0  0  0  0  0  0  0  0  0  0  0  0
    6.4200   -3.9690   22.3860 C   0  0  1  0  0  0  0  0  0  0  0  0
    1.2440   -8.7770   21.2430 C   0  0  0  0  0  0  0  0  0  0  0  0
    0.4060   -6.7450   22.1840 O   0  0  0  0  0  0  0  0  0  0  0  0
    2.4450   -8.3570   26.3410 N   0  0  0  0  0  0  0  0  0  0  0  0
    3.9660   -8.2360   24.6710 O   0  0  0  0  0  0  0  0  0  0  0  0
    6.6280   -2.9930   21.2620 N   0  0  0  0  0  0  0  0  0  0  0  0
    7.7010   -4.3000   22.9440 C   0  0  0  0  0  0  0  0  0  0  0  0
    6.3720   -3.4260   19.9620 C   0  0  0  0  0  0  0  0  0  0  0  0
    8.2890   -3.0320   23.3850 N   0  0  0  0  0  0  0  0  0  0  0  0
    7.5940   -1.8830   21.4580 C   0  0  0  0  0  0  0  0  0  0  0  0
    7.3470   -3.0340   18.8570 C   0  0  0  0  0  0  0  0  0  0  0  0
    5.3970   -4.1430   19.7360 O   0  0  0  0  0  0  0  0  0  0  0  0
    9.3100   -3.1080   24.3380 C   0  0  1  0  0  0  0  0  0  0  0  0
    8.7400   -2.3110   22.1920 C   0  0  0  0  0  0  0  0  0  0  0  0
    9.4000   -1.7040   24.8510 C   0  0  0  0  0  0  0  0  0  0  0  0
    9.0870   -4.0670   25.2290 C   0  0  0  0  0  0  0  0  0  0  0  0
    8.4470   -0.9570   25.1160 O   0  0  0  0  0  0  0  0  0  0  0  0
    9.7600   -5.2600   25.3150 C   0  0  0  0  0  0  0  0  0  0  0  0
    7.8730   -3.8970   26.4510 S   0  0  0  0  0  0  0  0  0  0  0  0
    9.2750   -5.9780   26.3570 C   0  0  0  0  0  0  0  0  0  0  0  0
    8.2490   -5.4080   27.0950 C   0  0  0  0  0  0  0  0  0  0  0  0
    7.3920   -5.9920   28.4500 Cl  0  0  0  0  0  0  0  0  0  0  0  0
  2  1  1  1
  2  3  1  0
  1  4  2  3
  2  5  1  0
  4  6  1  0
  3  7  1  0
  5  8  1  0
  9  6  1  1
  7 10  1  0
  7 11  2  0
  8 12  1  0
  8 13  2  0
  9 14  1  0
  9 15  1  0
 14 16  1  0
 15 17  1  0
 14 18  1  0
 16 19  1  0
 16 20  2  0
 17 21  1  0
 17 22  1  0
 18 22  1  0
 21 23  1  1
 21 24  1  0
 23 25  2  0
 24 26  2  0
 24 27  1  0
 26 28  1  0
 27 29  1  0
 28 29  2  0
 29 30  1  0
M  END
