x1334_1-x1418_1-x1385_1-x0831_0-x0434_2-x1334_0-x0692_1-x0397_0-x0831_1-x1412_1
     RDKit          3D

 34 38  0  0  0  0  0  0  0  0999 V2000
    6.2640   -3.3570   20.0480 C   0  0  0  0  0  0  0  0  0  0  0  0
    7.2230   -2.9700   18.9170 C   0  0  0  0  0  0  0  0  0  0  0  0
    5.4350   -4.2530   19.8340 O   0  0  0  0  0  0  0  0  0  0  0  0
    6.3350   -2.7040   21.3320 N   0  0  0  0  0  0  0  0  0  0  0  0
    7.0580   -1.4510   21.5660 C   0  0  2  0  0  0  0  0  0  0  0  0
    6.3870   -3.4590   22.5930 C   0  0  2  0  0  0  0  0  0  0  0  0
    7.3970   -0.7760   20.3780 N   0  0  0  0  0  0  0  0  0  0  0  0
    8.4640   -1.6350   22.0910 C   0  0  0  0  0  0  0  0  0  0  0  0
    7.9000   -3.6370   22.9640 C   0  0  0  0  0  0  0  0  0  0  0  0
    5.6730   -4.7920   22.5470 C   0  0  0  0  0  0  0  0  0  0  0  0
    8.5770   -2.3430   23.2240 N   0  0  0  0  0  0  0  0  0  0  0  0
    6.1910   -5.9740   23.1190 C   0  0  0  0  0  0  0  0  0  0  0  0
    6.2420   -6.1860   21.8750 C   0  0  0  0  0  0  0  0  0  0  0  0
    6.5110    0.0010   19.7500 C   0  0  0  0  0  0  0  0  0  0  0  0
   10.0220   -2.4400   23.3210 C   0  0  2  0  0  0  0  0  0  0  0  0
    6.9330    0.2510   18.4970 C   0  0  0  0  0  0  0  0  0  0  0  0
    5.3100    0.5300   20.2070 C   0  0  0  0  0  0  0  0  0  0  0  0
   10.5820   -3.1740   24.4820 C   0  0  0  0  0  0  0  0  0  0  0  0
   10.7200   -1.0660   23.3780 C   0  0  0  0  0  0  0  0  0  0  0  0
    6.2280    1.0530   17.5490 N   0  0  0  0  0  0  0  0  0  0  0  0
    4.4720    1.4170   19.2420 C   0  0  0  0  0  0  0  0  0  0  0  0
   10.0570    0.2260   23.9310 C   0  0  0  0  0  0  0  0  0  0  0  0
   12.0130   -0.9630   22.9140 C   0  0  0  0  0  0  0  0  0  0  0  0
    9.6930   -4.0560   25.3730 C   0  0  0  0  0  0  0  0  0  0  0  0
    5.0650    1.6090   17.8930 C   0  0  0  0  0  0  0  0  0  0  0  0
   12.7530   -2.1250   22.3440 C   0  0  0  0  0  0  0  0  0  0  0  0
   10.7750    1.4270   23.9530 C   0  0  0  0  0  0  0  0  0  0  0  0
   12.7200    0.2460   22.9420 C   0  0  0  0  0  0  0  0  0  0  0  0
   10.0600   -5.4870   25.7000 C   0  0  0  0  0  0  0  0  0  0  0  0
    8.1990   -3.6650   26.1720 S   0  0  0  0  0  0  0  0  0  0  0  0
   12.0510    1.4750   23.4890 C   0  0  0  0  0  0  0  0  0  0  0  0
    9.0890   -6.0150   26.5570 C   0  0  0  0  0  0  0  0  0  0  0  0
    8.0650   -5.1900   26.9050 C   0  0  0  0  0  0  0  0  0  0  0  0
    6.7690   -5.5830   27.9570 Cl  0  0  0  0  0  0  0  0  0  0  0  0
  1  2  1  0
  1  3  2  0
  1  4  1  0
  4  5  1  0
  4  6  1  0
  5  7  1  6
  5  8  1  0
  6  9  1  0
  6 10  1  6
  8 11  1  0
  9 11  1  0
 10 12  1  0
 10 13  1  0
 12 13  1  0
  7 14  1  0
 11 15  1  0
 14 16  2  0
 14 17  1  0
 15 18  1  1
 15 19  1  0
 16 20  1  0
 17 21  2  0
 19 22  2  0
 19 23  1  0
 18 24  1  0
 20 25  2  0
 21 25  1  0
 23 26  1  0
 22 27  1  0
 23 28  2  0
 24 29  2  0
 24 30  1  0
 27 31  2  0
 28 31  1  0
 29 32  1  0
 30 33  1  0
 32 33  2  0
 33 34  1  0
M  END
