x1334_1-x0831_1-x1412_1-x0770_1-x0397_0-x0426_1-x0831_0-x1374_1-x1334_0-x1385_1-x1418_1-x0692_1-x0434_2
     RDKit          3D

 45 51  0  0  0  0  0  0  0  0999 V2000
    2.2700   -7.6510   23.3120 O   0  0  0  0  0  0  0  0  0  0  0  0
    2.5170   -7.9360   24.6750 C   0  0  0  0  0  0  0  0  0  0  0  0
    3.9080   -7.8760   24.8930 O   0  0  0  0  0  0  0  0  0  0  0  0
    4.5590   -7.2010   23.8320 C   0  0  0  0  0  0  0  0  0  0  0  0
    5.0380   -6.0140   24.2590 C   0  0  0  0  0  0  0  0  0  0  0  0
    6.1390   -5.5520   23.3550 C   0  0  2  0  0  0  0  0  0  0  0  0
    5.9070   -4.5080   22.3300 C   0  0  2  0  0  0  0  0  0  0  0  0
    6.2320   -6.0830   22.0060 C   0  0  0  0  0  0  0  0  0  0  0  0
    6.9640   -3.3980   22.1550 C   0  0  1  0  0  0  0  0  0  0  0  0
    6.7290   -2.5640   20.9740 N   0  0  0  0  0  0  0  0  0  0  0  0
    7.2740   -2.6850   23.2690 C   0  0  0  0  0  0  0  0  0  0  0  0
    6.4060   -3.2350   19.7970 C   0  0  0  0  0  0  0  0  0  0  0  0
    8.4370   -1.8210   23.0340 N   0  0  0  0  0  0  0  0  0  0  0  0
    7.8430   -1.6450   20.7740 C   0  0  1  0  0  0  0  0  0  0  0  0
    7.3200   -3.0200   18.6170 C   0  0  0  0  0  0  0  0  0  0  0  0
    5.4510   -4.0310   19.6770 O   0  0  0  0  0  0  0  0  0  0  0  0
    9.5600   -1.9450   23.9420 C   0  0  1  0  0  0  0  0  0  0  0  0
    7.5390   -0.2420   20.8850 N   0  0  0  0  0  0  0  0  0  0  0  0
    8.8840   -1.9380   21.6340 C   0  0  0  0  0  0  0  0  0  0  0  0
   10.0040   -3.3610   23.8570 C   0  0  0  0  0  0  0  0  0  0  0  0
    7.2130    0.4470   22.1510 C   0  0  0  0  0  0  0  0  0  0  0  0
    6.6050    0.3110   19.9110 C   0  0  0  0  0  0  0  0  0  0  0  0
   10.5530   -0.8930   23.6800 C   0  0  0  0  0  0  0  0  0  0  0  0
    5.6910    0.4600   22.0830 C   0  0  2  0  0  0  0  0  0  0  0  0
    6.6950    0.4560   18.4190 N   0  0  0  0  0  0  0  0  0  0  0  0
    5.5170    0.7510   20.5970 C   0  0  0  0  0  0  0  0  0  0  0  0
   10.2230    0.2760   24.2660 C   0  0  0  0  0  0  0  0  0  0  0  0
   11.7770   -0.9610   22.9050 C   0  0  0  0  0  0  0  0  0  0  0  0
    9.4640   -4.2180   24.9840 C   0  0  0  0  0  0  0  0  0  0  0  0
    5.0120    1.5110   23.0120 C   0  0  0  0  0  0  0  0  0  0  0  0
   12.2810   -2.1630   22.1860 C   0  0  0  0  0  0  0  0  0  0  0  0
    4.4060    1.3820   20.0530 C   0  0  0  0  0  0  0  0  0  0  0  0
    5.6220    1.0740   17.8870 C   0  0  0  0  0  0  0  0  0  0  0  0
   11.0150    1.4080   24.1480 C   0  0  0  0  0  0  0  0  0  0  0  0
   12.5750    0.1640   22.7980 C   0  0  0  0  0  0  0  0  0  0  0  0
    9.8980   -5.4600   25.3090 C   0  0  0  0  0  0  0  0  0  0  0  0
    8.1820   -3.7620   26.0900 S   0  0  0  0  0  0  0  0  0  0  0  0
    3.9100    2.3570   22.3180 C   0  0  1  0  0  0  0  0  0  0  0  0
    3.3320    1.7920   21.0060 C   0  0  0  0  0  0  0  0  0  0  0  0
    4.3960    1.5820   18.7030 C   0  0  0  0  0  0  0  0  0  0  0  0
   12.1920    1.3210   23.4110 C   0  0  0  0  0  0  0  0  0  0  0  0
    9.1860   -6.0520   26.4890 C   0  0  0  0  0  0  0  0  0  0  0  0
    8.2370   -5.2180   26.9960 C   0  0  0  0  0  0  0  0  0  0  0  0
    2.8450    2.6690   23.2340 N   0  0  0  0  0  0  0  0  0  0  0  0
    7.2080   -5.5100   28.3330 Cl  0  0  0  0  0  0  0  0  0  0  0  0
  1  2  1  0
  2  3  1  0
  3  4  1  0
  4  5  1  0
  6  5  1  1
  6  7  1  0
  6  8  1  0
  7  8  1  6
  7  9  1  0
  9 10  1  0
  9 11  1  1
 10 12  1  0
 11 13  1  0
 10 14  1  0
 12 15  1  0
 12 16  2  0
 13 17  1  0
 14 18  1  1
 13 19  1  0
 14 19  1  0
 17 20  1  6
 18 21  1  0
 18 22  1  0
 17 23  1  0
 24 21  1  1
 22 25  2  0
 22 26  1  0
 24 26  1  0
 23 27  2  0
 23 28  1  0
 20 29  1  0
 24 30  1  0
 28 31  1  0
 26 32  2  0
 25 33  1  0
 27 34  1  0
 28 35  2  0
 29 36  2  0
 29 37  1  0
 30 38  1  0
 32 39  1  0
 38 39  1  0
 32 40  1  0
 33 40  2  0
 34 41  2  0
 35 41  1  0
 36 42  1  0
 37 43  1  0
 42 43  2  0
 38 44  1  1
 43 45  1  0
M  END
