x1334_1-x1386_1-x1374_1-x0692_1-x1375_1-x0770_1-x0831_0-x0426_1-x0434_2-x1412_1-x0831_1-x1334_0-x1385_1-x0397_0
     RDKit          3D

 45 51  0  0  0  0  0  0  0  0999 V2000
    2.1370   -7.1370   23.5860 O   0  0  0  0  0  0  0  0  0  0  0  0
    2.6790   -7.3970   24.8680 C   0  0  0  0  0  0  0  0  0  0  0  0
    4.0280   -7.7900   24.6980 O   0  0  0  0  0  0  0  0  0  0  0  0
    4.6230   -7.0370   23.6460 C   0  0  0  0  0  0  0  0  0  0  0  0
    4.9870   -5.8630   24.1190 C   0  0  0  0  0  0  0  0  0  0  0  0
    5.9940   -5.2770   23.1740 C   0  0  2  0  0  0  0  0  0  0  0  0
    5.6760   -4.4460   22.3310 C   0  0  2  0  0  0  0  0  0  0  0  0
    6.2420   -5.8590   21.8690 C   0  0  0  0  0  0  0  0  0  0  0  0
    6.4510   -3.1250   22.3370 C   0  0  2  0  0  0  0  0  0  0  0  0
    6.5620   -2.5760   20.9590 N   0  0  0  0  0  0  0  0  0  0  0  0
    7.7150   -3.3000   22.8390 C   0  0  0  0  0  0  0  0  0  0  0  0
    6.3200   -3.3450   19.8530 C   0  0  0  0  0  0  0  0  0  0  0  0
    8.5500   -2.0740   22.8550 N   0  0  0  0  0  0  0  0  0  0  0  0
    7.6600   -1.6910   20.5810 C   0  0  1  0  0  0  0  0  0  0  0  0
    7.3030   -3.1090   18.7110 C   0  0  0  0  0  0  0  0  0  0  0  0
    5.4250   -4.1940   19.7400 O   0  0  0  0  0  0  0  0  0  0  0  0
    9.8740   -2.2800   23.3440 C   0  0  2  0  0  0  0  0  0  0  0  0
    7.3220   -0.3360   20.8370 N   0  0  0  0  0  0  0  0  0  0  0  0
    8.8800   -1.8070   21.4720 C   0  0  0  0  0  0  0  0  0  0  0  0
   10.0920   -3.6570   23.9130 C   0  0  0  0  0  0  0  0  0  0  0  0
    6.9670    0.2070   22.2020 C   0  0  0  0  0  0  0  0  0  0  0  0
    6.4710    0.2900   19.8960 C   0  0  0  0  0  0  0  0  0  0  0  0
   10.6860   -0.9750   23.4440 C   0  0  0  0  0  0  0  0  0  0  0  0
    5.4670    0.3570   22.0950 C   0  0  2  0  0  0  0  0  0  0  0  0
    6.6110    0.5060   18.4230 N   0  0  0  0  0  0  0  0  0  0  0  0
    5.3820    0.7220   20.6210 C   0  0  0  0  0  0  0  0  0  0  0  0
   10.1340    0.1920   24.1630 C   0  0  0  0  0  0  0  0  0  0  0  0
   11.9440   -0.8700   22.8270 C   0  0  0  0  0  0  0  0  0  0  0  0
    9.4070   -4.2770   25.0850 C   0  0  0  0  0  0  0  0  0  0  0  0
    4.7670    1.3750   22.9580 C   0  0  0  0  0  0  0  0  0  0  0  0
   12.5770   -1.9960   22.0700 C   0  0  0  0  0  0  0  0  0  0  0  0
    4.2520    1.4700   20.0130 C   0  0  0  0  0  0  0  0  0  0  0  0
    5.5480    1.2020   17.9180 C   0  0  0  0  0  0  0  0  0  0  0  0
   10.8080    1.3510   24.2250 C   0  0  0  0  0  0  0  0  0  0  0  0
   12.6690    0.2850   22.8740 C   0  0  0  0  0  0  0  0  0  0  0  0
    9.7540   -5.5260   25.5140 C   0  0  0  0  0  0  0  0  0  0  0  0
    8.1420   -3.6370   26.0730 S   0  0  0  0  0  0  0  0  0  0  0  0
    3.7630    2.3270   22.2790 C   0  0  1  0  0  0  0  0  0  0  0  0
    3.1690    1.8760   20.9340 C   0  0  0  0  0  0  0  0  0  0  0  0
    4.4700    1.6450   18.6580 C   0  0  0  0  0  0  0  0  0  0  0  0
   12.1810    1.5180   23.5660 C   0  0  0  0  0  0  0  0  0  0  0  0
    9.0790   -6.0060   26.5880 C   0  0  0  0  0  0  0  0  0  0  0  0
    8.1480   -5.1470   27.0680 C   0  0  0  0  0  0  0  0  0  0  0  0
    2.7430    2.6500   23.2530 N   0  0  0  0  0  0  0  0  0  0  0  0
    7.1070   -5.3930   28.3990 Cl  0  0  0  0  0  0  0  0  0  0  0  0
  1  2  1  0
  2  3  1  0
  3  4  1  0
  4  5  1  0
  6  5  1  6
  6  7  1  0
  6  8  1  0
  7  8  1  6
  7  9  1  0
  9 10  1  0
  9 11  1  6
 10 12  1  0
 11 13  1  0
 10 14  1  0
 12 15  1  0
 12 16  2  0
 13 17  1  0
 14 18  1  1
 13 19  1  0
 14 19  1  0
 17 20  1  1
 18 21  1  0
 18 22  1  0
 17 23  1  0
 24 21  1  1
 22 25  2  0
 22 26  1  0
 24 26  1  0
 23 27  2  0
 23 28  1  0
 20 29  1  0
 24 30  1  0
 28 31  1  0
 26 32  2  0
 25 33  1  0
 27 34  1  0
 28 35  2  0
 29 36  2  0
 29 37  1  0
 30 38  1  0
 32 39  1  0
 38 39  1  0
 32 40  1  0
 33 40  2  0
 34 41  2  0
 35 41  1  0
 36 42  1  0
 37 43  1  0
 42 43  2  0
 38 44  1  1
 43 45  1  0
M  END
