x1334_1-x0397_0-x1418_1-x1375_1-x0831_0-x0831_1-x1385_1-x0426_1-x0692_1-x1374_1-x1334_0
     RDKit          3D

 43 48  0  0  0  0  0  0  0  0999 V2000
    2.5700   -7.7370   23.6370 O   0  0  0  0  0  0  0  0  0  0  0  0
    3.3300   -6.9920   24.5610 C   0  0  0  0  0  0  0  0  0  0  0  0
    4.6770   -7.3840   24.4730 O   0  0  0  0  0  0  0  0  0  0  0  0
    5.2860   -6.9980   23.2310 C   0  0  0  0  0  0  0  0  0  0  0  0
    6.0930   -5.7660   23.2790 C   0  0  2  0  0  0  0  0  0  0  0  0
    5.7600   -4.5510   22.6000 C   0  0  2  0  0  0  0  0  0  0  0  0
    6.9820   -5.6190   22.3390 C   0  0  0  0  0  0  0  0  0  0  0  0
    6.4600   -3.1960   22.5170 C   0  0  2  0  0  0  0  0  0  0  0  0
    6.5500   -2.6740   21.1690 N   0  0  0  0  0  0  0  0  0  0  0  0
    7.8770   -3.4840   23.0720 C   0  0  0  0  0  0  0  0  0  0  0  0
    6.3350   -3.3570   19.9520 C   0  0  0  0  0  0  0  0  0  0  0  0
    8.7540   -2.2850   22.9910 N   0  0  0  0  0  0  0  0  0  0  0  0
    7.4210   -1.4960   21.1040 C   0  0  2  0  0  0  0  0  0  0  0  0
    7.2670   -3.0200   18.7910 C   0  0  0  0  0  0  0  0  0  0  0  0
    5.4520   -4.2150   19.7980 O   0  0  0  0  0  0  0  0  0  0  0  0
   10.1480   -2.3750   23.3500 C   0  0  2  0  0  0  0  0  0  0  0  0
    8.8250   -1.8640   21.6120 C   0  0  0  0  0  0  0  0  0  0  0  0
    6.9800   -0.3310   21.9880 C   0  0  0  0  0  0  0  0  0  0  0  0
   10.5990   -3.2100   24.4840 C   0  0  0  0  0  0  0  0  0  0  0  0
   10.8410   -1.0120   23.3970 C   0  0  0  0  0  0  0  0  0  0  0  0
    5.5650    0.1280   21.7170 C   0  0  1  0  0  0  0  0  0  0  0  0
   10.1380    0.1160   23.9140 C   0  0  0  0  0  0  0  0  0  0  0  0
   12.1580   -0.8650   22.9290 C   0  0  0  0  0  0  0  0  0  0  0  0
    9.6820   -4.0690   25.3810 C   0  0  0  0  0  0  0  0  0  0  0  0
    5.2640    1.2200   22.5170 C   0  0  0  0  0  0  0  0  0  0  0  0
    5.5190    0.5690   20.2820 C   0  0  0  0  0  0  0  0  0  0  0  0
   12.9270   -2.0070   22.3610 C   0  0  0  0  0  0  0  0  0  0  0  0
   10.8160    1.3250   23.9380 C   0  0  0  0  0  0  0  0  0  0  0  0
   12.7960    0.3650   22.9730 C   0  0  0  0  0  0  0  0  0  0  0  0
    9.9600   -5.5190   25.6090 C   0  0  0  0  0  0  0  0  0  0  0  0
    8.1990   -3.7200   26.3620 S   0  0  0  0  0  0  0  0  0  0  0  0
    3.7220    1.4510   22.2370 C   0  0  1  0  0  0  0  0  0  0  0  0
    4.5260    1.4670   19.9280 C   0  0  0  0  0  0  0  0  0  0  0  0
    6.4210    0.1120   19.3640 C   0  0  0  0  0  0  0  0  0  0  0  0
   12.1220    1.4520   23.4770 C   0  0  0  0  0  0  0  0  0  0  0  0
    9.0930   -6.1050   26.4560 C   0  0  0  0  0  0  0  0  0  0  0  0
    8.0710   -5.2990   26.9850 C   0  0  0  0  0  0  0  0  0  0  0  0
    3.2770    2.3810   23.1220 N   0  0  0  0  0  0  0  0  0  0  0  0
    3.5330    1.9620   20.9390 C   0  0  0  0  0  0  0  0  0  0  0  0
    4.4680    1.8990   18.6490 C   0  0  0  0  0  0  0  0  0  0  0  0
    6.4500    0.4730   18.0640 N   0  0  0  0  0  0  0  0  0  0  0  0
    6.8390   -5.7280   28.0930 Cl  0  0  0  0  0  0  0  0  0  0  0  0
    5.5180    1.3460   17.6890 C   0  0  0  0  0  0  0  0  0  0  0  0
  1  2  1  0
  2  3  1  0
  3  4  1  0
  5  4  1  6
  5  6  1  0
  5  7  1  0
  6  7  1  6
  6  8  1  0
  8  9  1  0
  8 10  1  6
  9 11  1  0
 10 12  1  0
  9 13  1  0
 11 14  1  0
 11 15  2  0
 12 16  1  0
 12 17  1  0
 13 17  1  0
 13 18  1  1
 16 19  1  1
 16 20  1  0
 21 18  1  1
 20 22  2  0
 20 23  1  0
 19 24  1  0
 21 25  1  0
 21 26  1  0
 23 27  1  0
 22 28  1  0
 23 29  2  0
 24 30  2  0
 24 31  1  0
 25 32  1  0
 26 33  2  0
 26 34  1  0
 28 35  2  0
 29 35  1  0
 30 36  1  0
 31 37  1  0
 36 37  2  0
 32 38  1  1
 32 39  1  0
 33 39  1  0
 33 40  1  0
 34 41  2  0
 37 42  1  0
 40 43  2  0
 41 43  1  0
M  END
