x1334_1-x0981_1-x0691_1-x0387_0-x1412_0
     RDKit          3D

 43 47  0  0  0  0  0  0  0  0999 V2000
    4.0050   -5.9710   22.9030 C   0  0  0  0  0  0  0  0  0  0  0  0
    2.5770   -6.2490   23.3260 C   0  0  1  0  0  0  0  0  0  0  0  0
    2.2420   -7.5120   22.7210 N   0  0  0  0  0  0  0  0  0  0  0  0
    4.4030   -4.8190   22.5140 N   0  0  0  0  0  0  0  0  0  0  0  0
    2.3650   -6.2570   24.8220 C   0  0  1  0  0  0  0  0  0  0  0  0
    5.8050   -4.9010   22.1410 C   0  0  0  0  0  0  0  0  0  0  0  0
    1.1820   -7.7180   21.9260 C   0  0  0  0  0  0  0  0  0  0  0  0
    3.4730   -7.0810   25.4870 C   0  0  1  0  0  0  0  0  0  0  0  0
    2.4300   -4.8090   25.2730 C   0  0  0  0  0  0  0  0  0  0  0  0
    6.5170   -3.5700   22.3940 C   0  0  2  0  0  0  0  0  0  0  0  0
    1.2280   -8.8750   20.9820 C   0  0  0  0  0  0  0  0  0  0  0  0
    0.2270   -6.9430   21.9880 O   0  0  0  0  0  0  0  0  0  0  0  0
    3.0230   -7.5820   26.6870 N   0  0  0  0  0  0  0  0  0  0  0  0
    4.0590   -7.9020   24.7690 O   0  0  0  0  0  0  0  0  0  0  0  0
    4.7980   -5.7040   25.6910 S   0  0  0  0  0  0  0  0  0  0  0  0
    3.6810   -4.4390   25.7180 C   0  0  0  0  0  0  0  0  0  0  0  0
    1.3850   -3.8720   25.2550 C   0  0  0  0  0  0  0  0  0  0  0  0
    6.7490   -2.7630   21.1770 N   0  0  0  0  0  0  0  0  0  0  0  0
    7.6920   -3.8610   23.0660 C   0  0  0  0  0  0  0  0  0  0  0  0
    5.4360   -5.7960   27.1500 O   0  0  0  0  0  0  0  0  0  0  0  0
    6.4320   -3.2810   19.9030 C   0  0  0  0  0  0  0  0  0  0  0  0
    3.9320   -3.0850   26.1430 C   0  0  0  0  0  0  0  0  0  0  0  0
    1.6350   -2.5520   25.6780 C   0  0  0  0  0  0  0  0  0  0  0  0
    8.6720   -2.7720   23.2570 N   0  0  0  0  0  0  0  0  0  0  0  0
    7.6150   -1.5750   21.4010 C   0  0  0  0  0  0  0  0  0  0  0  0
    7.3630   -2.9640   18.7520 C   0  0  0  0  0  0  0  0  0  0  0  0
    5.4470   -4.0110   19.7090 O   0  0  0  0  0  0  0  0  0  0  0  0
    8.8210   -2.2550   24.5610 C   0  0  2  0  0  0  0  0  0  0  0  0
    2.9140   -2.1470   26.1170 C   0  0  0  0  0  0  0  0  0  0  0  0
    8.8290   -1.9120   22.0390 C   0  0  0  0  0  0  0  0  0  0  0  0
    3.1290   -0.8810   26.5010 F   0  0  0  0  0  0  0  0  0  0  0  0
    7.7310   -1.4030   24.8690 O   0  0  0  0  0  0  0  0  0  0  0  0
   10.0670   -1.4280   24.8580 C   0  0  0  0  0  0  0  0  0  0  0  0
    8.7710   -3.4540   25.5550 C   0  0  0  0  0  0  0  0  0  0  0  0
    9.7300   -4.4540   25.4270 C   0  0  0  0  0  0  0  0  0  0  0  0
    7.6880   -3.8090   26.8620 S   0  0  0  0  0  0  0  0  0  0  0  0
   11.2060   -1.2410   23.8710 C   0  0  0  0  0  0  0  0  0  0  0  0
    9.5680   -5.4720   26.3650 C   0  0  0  0  0  0  0  0  0  0  0  0
    8.5060   -5.2760   27.2280 C   0  0  0  0  0  0  0  0  0  0  0  0
   12.0660   -0.0890   23.9080 C   0  0  0  0  0  0  0  0  0  0  0  0
   11.5940   -2.0910   22.8520 C   0  0  0  0  0  0  0  0  0  0  0  0
   13.0430   -0.1110   22.9500 C   0  0  0  0  0  0  0  0  0  0  0  0
   12.9520   -1.5130   21.9860 S   0  0  0  0  0  0  0  0  0  0  0  0
  2  1  1  1
  2  3  1  0
  1  4  2  3
  2  5  1  0
  4  6  1  0
  3  7  1  0
  5  8  1  0
  5  9  1  1
 10  6  1  6
  7 11  1  0
  7 12  2  0
  8 13  1  1
  8 14  1  0
  8 15  1  0
  9 16  2  0
 15 16  1  1
  9 17  1  0
 10 18  1  0
 10 19  1  0
 15 20  2  0
 18 21  1  0
 16 22  1  0
 17 23  2  0
 19 24  1  0
 18 25  1  0
 21 26  1  0
 21 27  2  0
 24 28  1  0
 22 29  2  0
 23 29  1  0
 24 30  1  0
 25 30  1  0
 29 31  1  0
 28 32  1  1
 28 33  1  0
 28 34  1  0
 34 35  2  0
 34 36  1  0
 33 37  1  0
 35 38  1  0
 36 39  1  0
 38 39  2  0
 37 40  1  0
 37 41  2  0
 40 42  2  0
 41 43  1  0
 42 43  1  0
M  END
