x1334_1-x0831_1-x1418_1-x0692_1-x0831_0-x0770_1-x1334_0-x0397_0
     RDKit          3D

 27 30  0  0  0  0  0  0  0  0999 V2000
    6.2390   -3.2540   19.8670 C   0  0  0  0  0  0  0  0  0  0  0  0
    7.2710   -2.9760   18.8030 C   0  0  0  0  0  0  0  0  0  0  0  0
    5.2780   -4.0010   19.6280 O   0  0  0  0  0  0  0  0  0  0  0  0
    6.4270   -2.6950   21.1190 N   0  0  0  0  0  0  0  0  0  0  0  0
    6.9660   -1.3400   21.2500 C   0  0  0  0  0  0  0  0  0  0  0  0
    6.8380   -3.6030   22.1970 C   0  0  1  0  0  0  0  0  0  0  0  0
    8.2390   -1.4310   21.6340 C   0  0  0  0  0  0  0  0  0  0  0  0
    7.3740   -2.8710   23.4040 C   0  0  0  0  0  0  0  0  0  0  0  0
    5.8380   -4.7000   22.4630 C   0  0  0  0  0  0  0  0  0  0  0  0
    8.3810   -1.8860   23.0300 N   0  0  0  0  0  0  0  0  0  0  0  0
    6.1690   -5.7910   23.3570 C   0  0  0  0  0  0  0  0  0  0  0  0
    5.9570   -6.2830   22.0130 C   0  0  0  0  0  0  0  0  0  0  0  0
    9.6610   -2.2510   23.2110 C   0  0  2  0  0  0  0  0  0  0  0  0
    9.9150   -3.5640   23.8450 C   0  0  0  0  0  0  0  0  0  0  0  0
   10.6090   -1.0500   23.2920 C   0  0  0  0  0  0  0  0  0  0  0  0
   10.1790    0.0990   23.9620 C   0  0  0  0  0  0  0  0  0  0  0  0
   12.0370   -0.9240   22.6810 C   0  0  0  0  0  0  0  0  0  0  0  0
    9.3290   -4.2430   25.0420 C   0  0  0  0  0  0  0  0  0  0  0  0
   12.7910   -1.9450   21.9100 C   0  0  0  0  0  0  0  0  0  0  0  0
   10.8620    1.2830   24.1130 C   0  0  0  0  0  0  0  0  0  0  0  0
   12.8100    0.4500   22.8720 C   0  0  0  0  0  0  0  0  0  0  0  0
    9.7640   -5.5310   25.4220 C   0  0  0  0  0  0  0  0  0  0  0  0
    8.0950   -3.6960   26.1520 S   0  0  0  0  0  0  0  0  0  0  0  0
   12.2540    1.5220   23.5480 C   0  0  0  0  0  0  0  0  0  0  0  0
    9.1660   -5.9960   26.4810 C   0  0  0  0  0  0  0  0  0  0  0  0
    8.1900   -5.1500   27.0670 C   0  0  0  0  0  0  0  0  0  0  0  0
    7.2270   -5.4540   28.4440 Cl  0  0  0  0  0  0  0  0  0  0  0  0
  1  2  1  0
  1  3  2  0
  1  4  1  0
  4  5  1  0
  4  6  1  0
  5  7  1  0
  6  8  1  0
  6  9  1  1
  7 10  1  0
  8 10  1  0
  9 11  1  0
  9 12  1  0
 11 12  1  0
 10 13  1  0
 13 14  1  1
 13 15  1  0
 15 16  2  0
 15 17  1  0
 14 18  1  0
 17 19  1  0
 16 20  1  0
 17 21  2  0
 18 22  2  0
 18 23  1  0
 20 24  2  0
 21 24  1  0
 22 25  1  0
 23 26  1  0
 25 26  2  0
 26 27  1  0
M  END
