x1334_1-x1412_1-x1334_0-x0770_1-x1386_1-x0434_2-x0397_0-x0831_0-x0692_1-x1418_1
     RDKit          3D

 34 38  0  0  0  0  0  0  0  0999 V2000
    6.2940   -3.3110   19.9860 C   0  0  0  0  0  0  0  0  0  0  0  0
    7.2570   -2.9630   18.8490 C   0  0  0  0  0  0  0  0  0  0  0  0
    5.3950   -4.1300   19.7400 O   0  0  0  0  0  0  0  0  0  0  0  0
    6.4490   -2.7380   21.2840 N   0  0  0  0  0  0  0  0  0  0  0  0
    7.4030   -1.6760   21.6380 C   0  0  2  0  0  0  0  0  0  0  0  0
    6.2600   -3.6330   22.3430 C   0  0  2  0  0  0  0  0  0  0  0  0
    7.7550   -0.7860   20.5450 N   0  0  0  0  0  0  0  0  0  0  0  0
    8.6600   -2.2000   22.3340 C   0  0  0  0  0  0  0  0  0  0  0  0
    7.2120   -3.5240   23.5610 C   0  0  0  0  0  0  0  0  0  0  0  0
    6.4070   -5.0460   21.8820 C   0  0  0  0  0  0  0  0  0  0  0  0
    8.1700   -2.4180   23.5920 N   0  0  0  0  0  0  0  0  0  0  0  0
    6.5170   -6.2030   22.8490 C   0  0  0  0  0  0  0  0  0  0  0  0
    5.3300   -6.0990   21.9350 C   0  0  0  0  0  0  0  0  0  0  0  0
    6.8210   -0.0860   19.8040 C   0  0  0  0  0  0  0  0  0  0  0  0
    9.3030   -2.7170   24.4690 C   0  0  2  0  0  0  0  0  0  0  0  0
    7.0330    0.2010   18.4580 C   0  0  0  0  0  0  0  0  0  0  0  0
    5.6100    0.3880   20.3280 C   0  0  0  0  0  0  0  0  0  0  0  0
   10.6030   -2.6090   23.6440 C   0  0  0  0  0  0  0  0  0  0  0  0
    9.0720   -3.8970   25.4020 C   0  0  0  0  0  0  0  0  0  0  0  0
    6.2080    0.8730   17.6540 N   0  0  0  0  0  0  0  0  0  0  0  0
    4.7170    1.0970   19.5120 C   0  0  0  0  0  0  0  0  0  0  0  0
    9.7720   -5.1080   25.4530 C   0  0  0  0  0  0  0  0  0  0  0  0
    7.8380   -3.8910   26.6030 S   0  0  0  0  0  0  0  0  0  0  0  0
   11.1550   -1.1780   23.5730 C   0  0  0  0  0  0  0  0  0  0  0  0
    5.0650    1.3130   18.1930 C   0  0  0  0  0  0  0  0  0  0  0  0
    9.2980   -5.9420   26.4320 C   0  0  0  0  0  0  0  0  0  0  0  0
    8.2400   -5.4430   27.1680 C   0  0  0  0  0  0  0  0  0  0  0  0
   10.3840   -0.0670   24.2690 C   0  0  0  0  0  0  0  0  0  0  0  0
   12.3250   -0.8930   22.8940 C   0  0  0  0  0  0  0  0  0  0  0  0
    7.3410   -6.1020   28.4560 Cl  0  0  0  0  0  0  0  0  0  0  0  0
   13.0950   -1.9520   22.1840 C   0  0  0  0  0  0  0  0  0  0  0  0
   10.8440    1.1930   24.2180 C   0  0  0  0  0  0  0  0  0  0  0  0
   12.8260    0.5060   22.8630 C   0  0  0  0  0  0  0  0  0  0  0  0
   12.1480    1.5390   23.4770 C   0  0  0  0  0  0  0  0  0  0  0  0
  1  2  1  0
  1  3  2  0
  1  4  1  0
  4  5  1  0
  4  6  1  0
  5  7  1  6
  5  8  1  0
  6  9  1  0
  6 10  1  6
  8 11  1  0
  9 11  1  0
 10 12  1  0
 10 13  1  0
 12 13  1  0
  7 14  1  0
 11 15  1  0
 14 16  2  0
 14 17  1  0
 15 18  1  6
 15 19  1  0
 16 20  1  0
 17 21  2  0
 19 22  2  0
 19 23  1  0
 18 24  1  0
 20 25  2  0
 21 25  1  0
 22 26  1  0
 23 27  1  0
 26 27  2  0
 24 28  2  0
 24 29  1  0
 27 30  1  0
 29 31  1  0
 28 32  1  0
 29 33  2  0
 32 34  2  0
 33 34  1  0
M  END
