x1334_1-x0397_0-x0434_2-x0689_0-x1412_1-x0692_1-x0831_0
     RDKit          3D

 36 40  0  0  0  0  0  0  0  0999 V2000
    6.3930   -3.2180   19.8710 C   0  0  0  0  0  0  0  0  0  0  0  0
    7.3680   -2.9680   18.7350 C   0  0  0  0  0  0  0  0  0  0  0  0
    5.3720   -3.8810   19.6080 O   0  0  0  0  0  0  0  0  0  0  0  0
    6.7000   -2.8260   21.2010 N   0  0  0  0  0  0  0  0  0  0  0  0
    7.5180   -1.6330   21.4740 C   0  0  2  0  0  0  0  0  0  0  0  0
    7.0680   -3.8810   22.1400 C   0  0  1  0  0  0  0  0  0  0  0  0
    7.6830   -0.8510   20.2980 N   0  0  0  0  0  0  0  0  0  0  0  0
    8.9210   -2.0370   21.8930 C   0  0  0  0  0  0  0  0  0  0  0  0
    7.8180   -3.4250   23.4410 C   0  0  0  0  0  0  0  0  0  0  0  0
    5.8290   -4.7260   22.3780 C   0  0  2  0  0  0  0  0  0  0  0  0
    8.8380   -2.3880   23.1850 N   0  0  0  0  0  0  0  0  0  0  0  0
    5.7540   -5.8550   23.4450 C   0  0  2  0  0  0  0  0  0  0  0  0
    5.8750   -6.2840   22.2770 C   0  0  0  0  0  0  0  0  0  0  0  0
    6.7390   -0.0940   19.6450 C   0  0  0  0  0  0  0  0  0  0  0  0
    4.5000   -6.1970   24.1960 C   0  0  0  0  0  0  0  0  0  0  0  0
    9.8770   -2.2890   24.0620 C   0  0  0  0  0  0  0  0  0  0  0  0
    6.9540    0.2490   18.4270 C   0  0  0  0  0  0  0  0  0  0  0  0
    5.5570    0.3220   20.2370 C   0  0  0  0  0  0  0  0  0  0  0  0
    4.4420   -5.3710   25.7600 S   0  0  0  0  0  0  0  0  0  0  0  0
   10.7950   -1.0740   23.7730 C   0  0  0  0  0  0  0  0  0  0  0  0
    6.1810    0.9700   17.6280 N   0  0  0  0  0  0  0  0  0  0  0  0
    4.5590    1.1800   19.4200 C   0  0  0  0  0  0  0  0  0  0  0  0
    3.7560   -6.3310   26.8220 O   0  0  0  0  0  0  0  0  0  0  0  0
    5.7320   -4.8620   26.1690 O   0  0  0  0  0  0  0  0  0  0  0  0
    3.3840   -4.0540   25.6590 C   0  0  0  0  0  0  0  0  0  0  0  0
   10.3440    0.1400   24.2870 C   0  0  0  0  0  0  0  0  0  0  0  0
   12.0150   -1.0040   23.0650 C   0  0  0  0  0  0  0  0  0  0  0  0
    5.0140    1.4290   18.1200 C   0  0  0  0  0  0  0  0  0  0  0  0
   12.7210   -2.1540   22.3990 C   0  0  0  0  0  0  0  0  0  0  0  0
    4.0150   -2.4590   25.9760 S   0  0  0  0  0  0  0  0  0  0  0  0
    2.0190   -3.9870   25.3630 C   0  0  0  0  0  0  0  0  0  0  0  0
   10.9890    1.3500   24.1460 C   0  0  0  0  0  0  0  0  0  0  0  0
   12.7110    0.2070   22.9060 C   0  0  0  0  0  0  0  0  0  0  0  0
    2.3650   -1.7920   25.6910 C   0  0  0  0  0  0  0  0  0  0  0  0
    1.4890   -2.7670   25.3860 C   0  0  0  0  0  0  0  0  0  0  0  0
   12.1930    1.3860   23.4480 C   0  0  0  0  0  0  0  0  0  0  0  0
  1  2  1  0
  1  3  2  0
  1  4  1  0
  4  5  1  0
  4  6  1  0
  5  7  1  6
  5  8  1  0
  6  9  1  1
  6 10  1  0
  8 11  1  0
  9 11  1  0
 10 12  1  0
 10 13  1  6
 12 13  1  0
  7 14  1  0
 12 15  1  6
 11 16  1  0
 14 17  2  0
 14 18  1  0
 19 15  1  0
 16 20  1  0
 17 21  1  0
 18 22  2  0
 19 23  2  0
 19 24  2  0
 19 25  1  0
 20 26  2  0
 20 27  1  0
 21 28  2  0
 22 28  1  0
 27 29  1  0
 25 30  1  0
 25 31  2  0
 26 32  1  0
 27 33  2  0
 30 34  1  0
 31 35  1  0
 34 35  2  0
 32 36  2  0
 33 36  1  0
M  END
