x1334_0-x0981_1-x1412_1-x0434_2
     RDKit          3D

 35 37  0  0  0  0  0  0  0  0999 V2000
    4.2410   -5.3750   23.2650 C   0  0  0  0  0  0  0  0  0  0  0  0
    2.8440   -5.9630   23.5260 C   0  0  1  0  0  0  0  0  0  0  0  0
    2.6000   -7.1740   22.7280 N   0  0  0  0  0  0  0  0  0  0  0  0
    4.4390   -4.1490   23.6630 N   0  0  0  0  0  0  0  0  0  0  0  0
    2.7030   -6.2590   25.0270 C   0  0  0  0  0  0  0  0  0  0  0  0
    5.7200   -3.4270   23.5000 C   0  0  0  0  0  0  0  0  0  0  0  0
    1.3720   -7.4160   22.1540 C   0  0  0  0  0  0  0  0  0  0  0  0
    3.1190   -7.6860   25.2850 C   0  0  0  0  0  0  0  0  0  0  0  0
    6.6000   -3.8810   22.3050 C   0  0  1  0  0  0  0  0  0  0  0  0
    1.2290   -8.7100   21.3940 C   0  0  0  0  0  0  0  0  0  0  0  0
    0.4420   -6.6170   22.2320 O   0  0  0  0  0  0  0  0  0  0  0  0
    2.4680   -8.3390   26.2900 N   0  0  0  0  0  0  0  0  0  0  0  0
    3.9900   -8.2000   24.6230 O   0  0  0  0  0  0  0  0  0  0  0  0
    6.6490   -2.8770   21.1790 N   0  0  0  0  0  0  0  0  0  0  0  0
    7.8660   -4.0960   22.7940 C   0  0  0  0  0  0  0  0  0  0  0  0
    6.3420   -3.4220   19.9270 C   0  0  0  0  0  0  0  0  0  0  0  0
    8.4450   -2.8350   23.2700 N   0  0  0  0  0  0  0  0  0  0  0  0
    7.6890   -1.7960   21.2020 C   0  0  1  0  0  0  0  0  0  0  0  0
    7.3530   -3.0660   18.8410 C   0  0  0  0  0  0  0  0  0  0  0  0
    5.3640   -4.1550   19.7300 O   0  0  0  0  0  0  0  0  0  0  0  0
    9.4450   -2.9740   24.2400 C   0  0  0  0  0  0  0  0  0  0  0  0
    7.0240   -0.4990   21.3760 N   0  0  0  0  0  0  0  0  0  0  0  0
    8.7120   -1.9390   22.1520 C   0  0  0  0  0  0  0  0  0  0  0  0
    9.2030   -4.0200   25.2040 C   0  0  0  0  0  0  0  0  0  0  0  0
    6.3850    0.1250   20.1990 C   0  0  0  0  0  0  0  0  0  0  0  0
    9.8550   -5.4020   25.3720 C   0  0  0  0  0  0  0  0  0  0  0  0
    8.0120   -3.8070   26.4090 S   0  0  0  0  0  0  0  0  0  0  0  0
    6.9330   -0.0010   18.9350 C   0  0  0  0  0  0  0  0  0  0  0  0
    5.2090    0.8710   20.2720 C   0  0  0  0  0  0  0  0  0  0  0  0
    9.2970   -6.0580   26.4390 C   0  0  0  0  0  0  0  0  0  0  0  0
    8.3040   -5.3480   27.0950 C   0  0  0  0  0  0  0  0  0  0  0  0
    6.4100    0.5550   17.8120 N   0  0  0  0  0  0  0  0  0  0  0  0
    4.6350    1.4520   19.1580 C   0  0  0  0  0  0  0  0  0  0  0  0
    7.3830   -5.8370   28.4520 Cl  0  0  0  0  0  0  0  0  0  0  0  0
    5.2800    1.2630   17.9600 C   0  0  0  0  0  0  0  0  0  0  0  0
  2  1  1  1
  2  3  1  0
  1  4  2  3
  2  5  1  0
  4  6  1  0
  3  7  1  0
  5  8  1  0
  9  6  1  1
  7 10  1  0
  7 11  2  0
  8 12  1  0
  8 13  2  0
  9 14  1  0
  9 15  1  0
 14 16  1  0
 15 17  1  0
 14 18  1  0
 16 19  1  0
 16 20  2  0
 17 21  1  0
 18 22  1  1
 17 23  1  0
 18 23  1  0
 21 24  1  0
 22 25  1  0
 24 26  2  0
 24 27  1  0
 25 28  2  0
 25 29  1  0
 26 30  1  0
 27 31  1  0
 30 31  2  0
 28 32  1  0
 29 33  2  0
 31 34  1  0
 32 35  2  0
 33 35  1  0
M  END
