x1334_1-x0770_1-x0397_0-x0434_2-x0831_0-x1334_0
     RDKit          3D

 34 38  0  0  0  0  0  0  0  0999 V2000
    6.3350   -3.2680   19.8930 C   0  0  0  0  0  0  0  0  0  0  0  0
    7.3140   -2.9360   18.7750 C   0  0  0  0  0  0  0  0  0  0  0  0
    5.3550   -3.9810   19.6520 O   0  0  0  0  0  0  0  0  0  0  0  0
    6.5760   -2.8420   21.2210 N   0  0  0  0  0  0  0  0  0  0  0  0
    7.2650   -1.6640   21.7590 C   0  0  2  0  0  0  0  0  0  0  0  0
    6.9560   -3.9790   22.0200 C   0  0  1  0  0  0  0  0  0  0  0  0
    6.6660   -0.3980   21.3790 N   0  0  0  0  0  0  0  0  0  0  0  0
    8.7780   -1.8510   21.7090 C   0  0  0  0  0  0  0  0  0  0  0  0
    8.0940   -3.6740   23.0450 C   0  0  0  0  0  0  0  0  0  0  0  0
    5.7740   -4.7180   22.6100 C   0  0  0  0  0  0  0  0  0  0  0  0
    9.1690   -2.7090   22.6820 N   0  0  0  0  0  0  0  0  0  0  0  0
    6.0090   -5.8600   23.4730 C   0  0  0  0  0  0  0  0  0  0  0  0
    5.5270   -6.2990   22.2660 C   0  0  0  0  0  0  0  0  0  0  0  0
    6.2730    0.1290   20.1860 C   0  0  0  0  0  0  0  0  0  0  0  0
    9.6330   -2.0430   23.8860 C   0  0  1  0  0  0  0  0  0  0  0  0
    6.8740    0.0780   18.8320 C   0  0  0  0  0  0  0  0  0  0  0  0
    5.0140    0.9310   20.1930 C   0  0  0  0  0  0  0  0  0  0  0  0
   10.3620   -3.1210   24.6450 C   0  0  0  0  0  0  0  0  0  0  0  0
   10.6050   -0.8530   23.6550 C   0  0  0  0  0  0  0  0  0  0  0  0
    6.4130    0.6590   17.7250 N   0  0  0  0  0  0  0  0  0  0  0  0
    4.5190    1.5890   18.8530 C   0  0  0  0  0  0  0  0  0  0  0  0
   10.1500    0.4220   24.0730 C   0  0  0  0  0  0  0  0  0  0  0  0
   11.9260   -0.9700   23.0530 C   0  0  0  0  0  0  0  0  0  0  0  0
    9.5730   -4.0780   25.5070 C   0  0  0  0  0  0  0  0  0  0  0  0
    5.2480    1.4010   17.7690 C   0  0  0  0  0  0  0  0  0  0  0  0
   12.5120   -2.2530   22.5630 C   0  0  0  0  0  0  0  0  0  0  0  0
   10.8740    1.5960   23.9610 C   0  0  0  0  0  0  0  0  0  0  0  0
   12.7420    0.1510   22.8960 C   0  0  0  0  0  0  0  0  0  0  0  0
   10.1730   -5.4980   25.7330 C   0  0  0  0  0  0  0  0  0  0  0  0
    8.0550   -3.6450   26.2520 S   0  0  0  0  0  0  0  0  0  0  0  0
   12.2240    1.5680   23.3700 C   0  0  0  0  0  0  0  0  0  0  0  0
    9.0920   -5.9150   26.6010 C   0  0  0  0  0  0  0  0  0  0  0  0
    7.9250   -5.1180   27.0000 C   0  0  0  0  0  0  0  0  0  0  0  0
    6.6450   -5.5720   28.0380 Cl  0  0  0  0  0  0  0  0  0  0  0  0
  1  2  1  0
  1  3  2  0
  1  4  1  0
  4  5  1  0
  4  6  1  0
  5  7  1  6
  5  8  1  0
  6  9  1  0
  6 10  1  1
  8 11  1  0
  9 11  1  0
 10 12  1  0
 10 13  1  0
 12 13  1  0
  7 14  1  0
 11 15  1  0
 14 16  2  0
 14 17  1  0
 15 18  1  1
 15 19  1  0
 16 20  1  0
 17 21  2  0
 19 22  2  0
 19 23  1  0
 18 24  1  0
 20 25  2  0
 21 25  1  0
 23 26  1  0
 22 27  1  0
 23 28  2  0
 24 29  2  0
 24 30  1  0
 27 31  2  0
 28 31  1  0
 29 32  1  0
 30 33  1  0
 32 33  2  0
 33 34  1  0
M  END
