x1334_1-x1386_1-x1418_0-x0692_1
     RDKit          3D

 15 16  0  0  0  0  0  0  0  0999 V2000
    6.3630   -3.3190   19.9400 C   0  0  0  0  0  0  0  0  0  0  0  0
    7.3320   -2.9840   18.8150 C   0  0  0  0  0  0  0  0  0  0  0  0
    5.4330   -4.1140   19.7420 O   0  0  0  0  0  0  0  0  0  0  0  0
    6.5780   -2.7260   21.1800 N   0  0  0  0  0  0  0  0  0  0  0  0
    7.3540   -1.5390   21.2120 C   0  0  0  0  0  0  0  0  0  0  0  0
    6.5370   -3.4490   22.4750 C   0  0  0  0  0  0  0  0  0  0  0  0
    8.7260   -1.7440   21.8740 C   0  0  0  0  0  0  0  0  0  0  0  0
    7.8500   -3.7220   22.9150 C   0  0  0  0  0  0  0  0  0  0  0  0
    8.6630   -2.4960   23.1420 N   0  0  0  0  0  0  0  0  0  0  0  0
   10.0530   -2.8730   23.4720 C   0  0  0  0  0  0  0  0  0  0  0  0
   10.9850   -1.6950   23.4530 C   0  0  0  0  0  0  0  0  0  0  0  0
   12.0690   -1.4840   22.6790 C   0  0  0  0  0  0  0  0  0  0  0  0
   10.7640   -0.3460   24.5030 S   0  0  0  0  0  0  0  0  0  0  0  0
   12.8460   -0.1970   22.8440 C   0  0  0  0  0  0  0  0  0  0  0  0
   12.1240    0.5330   23.9060 C   0  0  0  0  0  0  0  0  0  0  0  0
  1  2  1  0
  1  3  2  0
  1  4  1  0
  4  5  1  0
  4  6  1  0
  5  7  1  0
  6  8  1  0
  7  9  1  0
  8  9  1  0
  9 10  1  0
 10 11  1  0
 11 12  2  0
 11 13  1  0
 12 14  1  0
 13 15  1  0
 14 15  2  0
M  END
