x1334_1-x0397_0-x0831_1-x0692_1-x1374_1-x0831_0-x1412_1-x1334_0-x0434_2
     RDKit          3D

 39 43  0  0  0  0  0  0  0  0999 V2000
    2.2780   -7.6660   23.2160 O   0  0  0  0  0  0  0  0  0  0  0  0
    2.5180   -7.9850   24.5680 C   0  0  0  0  0  0  0  0  0  0  0  0
    3.9120   -7.9850   24.7900 O   0  0  0  0  0  0  0  0  0  0  0  0
    4.5760   -7.1470   23.8550 C   0  0  0  0  0  0  0  0  0  0  0  0
    5.1580   -6.1490   24.4790 C   0  0  0  0  0  0  0  0  0  0  0  0
    6.1790   -5.6450   23.5030 C   0  0  2  0  0  0  0  0  0  0  0  0
    5.8200   -4.6490   22.5280 C   0  0  2  0  0  0  0  0  0  0  0  0
    6.3910   -6.1960   22.2720 C   0  0  0  0  0  0  0  0  0  0  0  0
    6.6390   -3.3740   22.5740 C   0  0  2  0  0  0  0  0  0  0  0  0
    6.5320   -2.6250   21.3130 N   0  0  0  0  0  0  0  0  0  0  0  0
    7.9480   -3.4980   23.0930 C   0  0  0  0  0  0  0  0  0  0  0  0
    6.3760   -3.2960   20.0420 C   0  0  0  0  0  0  0  0  0  0  0  0
    8.6100   -2.1670   23.2090 N   0  0  0  0  0  0  0  0  0  0  0  0
    7.3460   -1.3810   21.4150 C   0  0  2  0  0  0  0  0  0  0  0  0
    7.2920   -2.9660   18.8630 C   0  0  0  0  0  0  0  0  0  0  0  0
    5.5080   -4.1770   19.8300 O   0  0  0  0  0  0  0  0  0  0  0  0
    9.6180   -1.9640   24.1100 C   0  0  1  0  0  0  0  0  0  0  0  0
    7.5410   -0.8760   20.1270 N   0  0  0  0  0  0  0  0  0  0  0  0
    8.7740   -1.5590   21.9400 C   0  0  0  0  0  0  0  0  0  0  0  0
   10.3820   -3.2120   24.3670 C   0  0  0  0  0  0  0  0  0  0  0  0
   10.5890   -0.7850   23.8260 C   0  0  0  0  0  0  0  0  0  0  0  0
    6.6770   -0.0810   19.4840 C   0  0  0  0  0  0  0  0  0  0  0  0
   10.3820    0.5420   24.1750 C   0  0  0  0  0  0  0  0  0  0  0  0
   11.8010   -1.1360   23.1340 C   0  0  0  0  0  0  0  0  0  0  0  0
    9.6640   -4.1420   25.3290 C   0  0  0  0  0  0  0  0  0  0  0  0
    6.9900    0.4000   18.2770 C   0  0  0  0  0  0  0  0  0  0  0  0
    5.3200    0.3460   20.0060 C   0  0  0  0  0  0  0  0  0  0  0  0
   12.1770   -2.4870   22.6770 C   0  0  0  0  0  0  0  0  0  0  0  0
   11.3320    1.5010   23.8560 C   0  0  0  0  0  0  0  0  0  0  0  0
   12.7840   -0.2120   22.8020 C   0  0  0  0  0  0  0  0  0  0  0  0
    9.9390   -5.6060   25.4160 C   0  0  0  0  0  0  0  0  0  0  0  0
    8.4690   -3.7080   26.4470 S   0  0  0  0  0  0  0  0  0  0  0  0
    6.1390    1.2390   17.5110 N   0  0  0  0  0  0  0  0  0  0  0  0
    4.5640    1.1380   19.2600 C   0  0  0  0  0  0  0  0  0  0  0  0
   12.6120    1.1100   23.1320 C   0  0  0  0  0  0  0  0  0  0  0  0
    9.0950   -6.1630   26.4620 C   0  0  0  0  0  0  0  0  0  0  0  0
    8.2970   -5.3010   27.0740 C   0  0  0  0  0  0  0  0  0  0  0  0
    4.9670    1.5870   18.0170 C   0  0  0  0  0  0  0  0  0  0  0  0
    7.1890   -5.6110   28.3400 Cl  0  0  0  0  0  0  0  0  0  0  0  0
  1  2  1  0
  2  3  1  0
  3  4  1  0
  4  5  1  0
  6  5  1  6
  6  7  1  0
  6  8  1  0
  7  8  1  6
  7  9  1  0
  9 10  1  0
  9 11  1  6
 10 12  1  0
 11 13  1  0
 10 14  1  0
 12 15  1  0
 12 16  2  0
 13 17  1  0
 14 18  1  6
 13 19  1  0
 14 19  1  0
 17 20  1  6
 17 21  1  0
 18 22  1  0
 21 23  2  0
 21 24  1  0
 20 25  1  0
 22 26  2  0
 22 27  1  0
 24 28  1  0
 23 29  1  0
 24 30  2  0
 25 31  2  0
 25 32  1  0
 26 33  1  0
 27 34  2  0
 29 35  2  0
 30 35  1  0
 31 36  1  0
 32 37  1  0
 36 37  2  0
 33 38  2  0
 34 38  1  0
 37 39  1  0
M  END
