x1334_0-x0769_0
     RDKit          3D

 17 18  0  0  0  0  0  0  0  0999 V2000
    6.6840   -4.4080   20.6350 C   0  0  0  0  0  0  0  0  0  0  0  0
    7.9500   -3.6220   20.2570 C   0  0  0  0  0  0  0  0  0  0  0  0
    5.6730   -4.4020   19.9060 O   0  0  0  0  0  0  0  0  0  0  0  0
    6.7640   -5.1260   21.8500 N   0  0  0  0  0  0  0  0  0  0  0  0
    5.8340   -6.2420   22.0300 C   0  0  0  0  0  0  0  0  0  0  0  0
    7.3260   -4.6390   23.0150 C   0  0  1  0  0  0  0  0  0  0  0  0
    8.4290   -3.5870   22.7280 C   0  0  0  0  0  0  0  0  0  0  0  0
    4.6960   -5.9430   23.0500 C   0  0  0  0  0  0  0  0  0  0  0  0
    6.1790   -4.2230   23.9250 C   0  0  0  0  0  0  0  0  0  0  0  0
    9.3540   -3.3380   23.7510 C   0  0  0  0  0  0  0  0  0  0  0  0
    5.2410   -5.3090   24.2520 N   0  0  0  0  0  0  0  0  0  0  0  0
    9.0490   -4.1990   24.9990 C   0  0  0  0  0  0  0  0  0  0  0  0
    9.6910   -5.3980   25.1550 C   0  0  0  0  0  0  0  0  0  0  0  0
    7.9800   -3.8450   26.2520 S   0  0  0  0  0  0  0  0  0  0  0  0
    9.3010   -6.0260   26.2980 C   0  0  0  0  0  0  0  0  0  0  0  0
    8.3480   -5.3060   27.0220 C   0  0  0  0  0  0  0  0  0  0  0  0
    7.5740   -5.7190   28.4840 Cl  0  0  0  0  0  0  0  0  0  0  0  0
  1  2  1  0
  1  3  2  0
  1  4  1  0
  4  5  1  0
  4  6  1  0
  6  7  1  6
  5  8  1  0
  6  9  1  0
  7 10  1  0
  8 11  1  0
  9 11  1  0
 10 12  1  0
 12 13  2  0
 12 14  1  0
 13 15  1  0
 14 16  1  0
 15 16  2  0
 16 17  1  0
M  END
