x1334_1-x0397_0-x1412_1-x1334_0-x0831_0-x1374_1-x0770_1-x1418_1-x0831_1-x1385_1-x0692_1-x0434_2
     RDKit          3D

 39 43  0  0  0  0  0  0  0  0999 V2000
    2.0840   -6.9640   23.8030 O   0  0  0  0  0  0  0  0  0  0  0  0
    2.5130   -7.8390   24.8320 C   0  0  0  0  0  0  0  0  0  0  0  0
    3.9210   -7.9110   24.9090 O   0  0  0  0  0  0  0  0  0  0  0  0
    4.5270   -7.1820   23.8480 C   0  0  0  0  0  0  0  0  0  0  0  0
    4.9510   -5.9640   24.3430 C   0  0  0  0  0  0  0  0  0  0  0  0
    6.0910   -5.6600   23.4180 C   0  0  2  0  0  0  0  0  0  0  0  0
    5.8940   -4.6820   22.4400 C   0  0  2  0  0  0  0  0  0  0  0  0
    6.1630   -6.2130   22.0490 C   0  0  0  0  0  0  0  0  0  0  0  0
    6.9610   -3.6420   22.2090 C   0  0  1  0  0  0  0  0  0  0  0  0
    6.7430   -2.7040   21.1170 N   0  0  0  0  0  0  0  0  0  0  0  0
    7.2400   -2.9810   23.3600 C   0  0  0  0  0  0  0  0  0  0  0  0
    6.4000   -3.2670   19.8750 C   0  0  0  0  0  0  0  0  0  0  0  0
    8.5700   -2.3540   23.4180 N   0  0  0  0  0  0  0  0  0  0  0  0
    7.7250   -1.6800   21.0760 C   0  0  1  0  0  0  0  0  0  0  0  0
    7.3350   -2.9900   18.7210 C   0  0  0  0  0  0  0  0  0  0  0  0
    5.4240   -4.0190   19.6920 O   0  0  0  0  0  0  0  0  0  0  0  0
    9.5200   -3.2430   23.8600 C   0  0  1  0  0  0  0  0  0  0  0  0
    6.9340   -0.4830   21.2480 N   0  0  0  0  0  0  0  0  0  0  0  0
    8.9460   -1.8100   22.1020 C   0  0  0  0  0  0  0  0  0  0  0  0
   10.8940   -2.7080   24.1630 C   0  0  0  0  0  0  0  0  0  0  0  0
    9.0900   -4.0920   25.0540 C   0  0  0  0  0  0  0  0  0  0  0  0
    6.3510    0.1560   20.0860 C   0  0  0  0  0  0  0  0  0  0  0  0
    9.7180   -5.3030   25.2950 C   0  0  0  0  0  0  0  0  0  0  0  0
    7.9000   -3.7790   26.2180 S   0  0  0  0  0  0  0  0  0  0  0  0
   11.1540   -1.2920   23.9410 C   0  0  0  0  0  0  0  0  0  0  0  0
    6.8800    0.1070   18.8210 C   0  0  0  0  0  0  0  0  0  0  0  0
    5.1590    0.8750   20.2660 C   0  0  0  0  0  0  0  0  0  0  0  0
    9.2490   -5.9550   26.3890 C   0  0  0  0  0  0  0  0  0  0  0  0
    8.2330   -5.2590   27.0300 C   0  0  0  0  0  0  0  0  0  0  0  0
   10.4190   -0.3370   24.4970 C   0  0  0  0  0  0  0  0  0  0  0  0
   12.3030   -0.8730   23.0590 C   0  0  0  0  0  0  0  0  0  0  0  0
    6.3940    0.6820   17.7220 N   0  0  0  0  0  0  0  0  0  0  0  0
    4.5890    1.5000   19.1560 C   0  0  0  0  0  0  0  0  0  0  0  0
    7.3620   -5.7100   28.4290 Cl  0  0  0  0  0  0  0  0  0  0  0  0
   13.1700   -1.8670   22.3700 C   0  0  0  0  0  0  0  0  0  0  0  0
   10.5620    1.1620   24.3840 C   0  0  0  0  0  0  0  0  0  0  0  0
   12.5360    0.6400   22.9030 C   0  0  0  0  0  0  0  0  0  0  0  0
    5.2200    1.3890   17.9260 C   0  0  0  0  0  0  0  0  0  0  0  0
   11.6350    1.6440   23.5870 C   0  0  0  0  0  0  0  0  0  0  0  0
  1  2  1  0
  2  3  1  0
  3  4  1  0
  4  5  1  0
  6  5  1  1
  6  7  1  0
  6  8  1  0
  7  8  1  6
  7  9  1  0
  9 10  1  0
  9 11  1  1
 10 12  1  0
 11 13  1  0
 10 14  1  0
 12 15  1  0
 12 16  2  0
 13 17  1  0
 14 18  1  1
 13 19  1  0
 14 19  1  0
 17 20  1  1
 17 21  1  0
 18 22  1  0
 21 23  2  0
 21 24  1  0
 20 25  1  0
 22 26  2  0
 22 27  1  0
 23 28  1  0
 24 29  1  0
 28 29  2  0
 25 30  2  0
 25 31  1  0
 26 32  1  0
 27 33  2  0
 29 34  1  0
 31 35  1  0
 30 36  1  0
 31 37  2  0
 32 38  2  0
 33 38  1  0
 36 39  2  0
 37 39  1  0
M  END
