x1334_0-x1334_1-x1386_1-x0397_0-x0434_2-x0426_1-x1385_1-x1374_1-x0770_1-x1412_1-x0831_0-x0692_1
     RDKit          3D

 45 51  0  0  0  0  0  0  0  0999 V2000
    2.0900   -6.7050   24.3870 O   0  0  0  0  0  0  0  0  0  0  0  0
    3.1120   -7.3300   23.6500 C   0  0  0  0  0  0  0  0  0  0  0  0
    4.1340   -7.8130   24.5190 O   0  0  0  0  0  0  0  0  0  0  0  0
    5.4380   -7.3520   24.1420 C   0  0  0  0  0  0  0  0  0  0  0  0
    5.4780   -6.0390   24.1620 C   0  0  0  0  0  0  0  0  0  0  0  0
    6.0770   -5.5390   22.8800 C   0  0  2  0  0  0  0  0  0  0  0  0
    5.6270   -4.5150   22.2610 C   0  0  2  0  0  0  0  0  0  0  0  0
    5.6130   -6.0820   21.8020 C   0  0  0  0  0  0  0  0  0  0  0  0
    6.8340   -3.6140   22.0760 C   0  0  1  0  0  0  0  0  0  0  0  0
    6.6770   -2.6810   21.0000 N   0  0  0  0  0  0  0  0  0  0  0  0
    7.1880   -3.0830   23.4520 C   0  0  0  0  0  0  0  0  0  0  0  0
    6.4090   -3.2630   19.7810 C   0  0  0  0  0  0  0  0  0  0  0  0
    8.3710   -2.2560   23.4150 N   0  0  0  0  0  0  0  0  0  0  0  0
    7.8790   -1.8140   20.9650 C   0  0  1  0  0  0  0  0  0  0  0  0
    7.3600   -3.0270   18.6250 C   0  0  0  0  0  0  0  0  0  0  0  0
    5.4340   -4.0190   19.6470 O   0  0  0  0  0  0  0  0  0  0  0  0
    9.3320   -2.4790   24.3540 C   0  0  2  0  0  0  0  0  0  0  0  0
    7.5880   -0.3760   20.8270 N   0  0  0  0  0  0  0  0  0  0  0  0
    8.9520   -2.0680   22.0460 C   0  0  0  0  0  0  0  0  0  0  0  0
   10.7820   -2.4220   23.8920 C   0  0  0  0  0  0  0  0  0  0  0  0
    7.3000    0.3800   22.0660 C   0  0  0  0  0  0  0  0  0  0  0  0
    6.6700    0.1910   19.8760 C   0  0  0  0  0  0  0  0  0  0  0  0
    9.1620   -3.6490   25.2770 C   0  0  0  0  0  0  0  0  0  0  0  0
    5.7670    0.4420   22.1000 C   0  0  2  0  0  0  0  0  0  0  0  0
    6.7300    0.3010   18.4920 N   0  0  0  0  0  0  0  0  0  0  0  0
    5.5630    0.7020   20.6690 C   0  0  0  0  0  0  0  0  0  0  0  0
    9.9170   -4.9250   25.3510 C   0  0  0  0  0  0  0  0  0  0  0  0
    7.9330   -3.5850   26.4880 S   0  0  0  0  0  0  0  0  0  0  0  0
   11.1720   -1.1540   23.7650 C   0  0  0  0  0  0  0  0  0  0  0  0
    5.1240    1.5210   22.9120 C   0  0  0  0  0  0  0  0  0  0  0  0
    4.4690    1.3540   20.1600 C   0  0  0  0  0  0  0  0  0  0  0  0
    5.6890    0.9450   17.9110 C   0  0  0  0  0  0  0  0  0  0  0  0
    9.3920   -5.7440   26.4690 C   0  0  0  0  0  0  0  0  0  0  0  0
    8.2650   -5.0900   27.2070 C   0  0  0  0  0  0  0  0  0  0  0  0
   10.4350    0.0640   24.3570 C   0  0  0  0  0  0  0  0  0  0  0  0
   12.2950   -0.9200   23.0610 C   0  0  0  0  0  0  0  0  0  0  0  0
    3.6330    1.5940   22.5780 C   0  0  2  0  0  0  0  0  0  0  0  0
    3.3720    1.8480   21.0740 C   0  0  0  0  0  0  0  0  0  0  0  0
    7.3280   -5.5640   28.5560 Cl  0  0  0  0  0  0  0  0  0  0  0  0
   13.0560   -2.0370   22.4390 C   0  0  0  0  0  0  0  0  0  0  0  0
    4.5480    1.4890   18.6540 C   0  0  0  0  0  0  0  0  0  0  0  0
   10.9110    1.3670   24.1740 C   0  0  0  0  0  0  0  0  0  0  0  0
   12.8110    0.3240   22.8620 C   0  0  0  0  0  0  0  0  0  0  0  0
    3.0490    2.6480   23.3760 N   0  0  0  0  0  0  0  0  0  0  0  0
   12.2040    1.5820   23.3740 C   0  0  0  0  0  0  0  0  0  0  0  0
  1  2  1  0
  2  3  1  0
  3  4  1  0
  4  5  1  0
  6  5  1  1
  6  7  1  0
  6  8  1  0
  7  8  1  6
  7  9  1  0
  9 10  1  0
  9 11  1  1
 10 12  1  0
 11 13  1  0
 10 14  1  0
 12 15  1  0
 12 16  2  0
 13 17  1  0
 14 18  1  1
 13 19  1  0
 14 19  1  0
 17 20  1  6
 18 21  1  0
 18 22  1  0
 17 23  1  0
 24 21  1  6
 22 25  2  0
 22 26  1  0
 24 26  1  0
 23 27  2  0
 23 28  1  0
 20 29  1  0
 24 30  1  0
 26 31  2  0
 25 32  1  0
 27 33  1  0
 28 34  1  0
 33 34  2  0
 29 35  2  0
 29 36  1  0
 30 37  1  0
 31 38  1  0
 37 38  1  0
 34 39  1  0
 36 40  1  0
 31 41  1  0
 32 41  2  0
 35 42  1  0
 36 43  2  0
 37 44  1  1
 42 45  2  0
 43 45  1  0
M  END
