x1334_1-x1334_0-x0981_1-x0874_0-x0820_1
     RDKit          3D

 44 50  0  0  0  0  0  0  0  0999 V2000
    4.5100   -5.5080   23.1820 C   0  0  0  0  0  0  0  0  0  0  0  0
    3.0940   -6.0780   23.3390 C   0  0  1  0  0  0  0  0  0  0  0  0
    2.7840   -7.2380   22.5050 N   0  0  0  0  0  0  0  0  0  0  0  0
    4.1540   -4.5400   24.7490 C   0  0  1  0  0  0  0  0  0  0  0  0
    2.7930   -6.3500   24.8150 C   0  0  0  0  0  0  0  0  0  0  0  0
    4.5530   -4.5590   26.0430 C   0  0  0  0  0  0  0  0  0  0  0  0
    5.0990   -4.3650   23.7200 C   0  0  0  0  0  0  0  0  0  0  0  0
    1.5900   -7.3850   21.9160 C   0  0  0  0  0  0  0  0  0  0  0  0
    3.0600   -7.7920   25.1920 C   0  0  0  0  0  0  0  0  0  0  0  0
    6.4390   -4.2050   23.9830 C   0  0  2  0  0  0  0  0  0  0  0  0
    5.9160   -4.3990   26.3890 C   0  0  0  0  0  0  0  0  0  0  0  0
    1.3430   -8.6730   21.1970 C   0  0  0  0  0  0  0  0  0  0  0  0
    0.7360   -6.5000   21.9450 O   0  0  0  0  0  0  0  0  0  0  0  0
    2.4110   -8.2650   26.2450 N   0  0  0  0  0  0  0  0  0  0  0  0
    3.8600   -8.4710   24.5530 O   0  0  0  0  0  0  0  0  0  0  0  0
    7.6400   -3.7960   22.9530 C   0  0  2  0  0  0  0  0  0  0  0  0
    6.3270   -4.4200   27.7430 C   0  0  0  0  0  0  0  0  0  0  0  0
    7.5420   -2.5260   22.4730 C   0  0  1  0  0  0  0  0  0  0  0  0
    7.6330   -4.2720   28.0760 C   0  0  2  0  0  0  0  0  0  0  0  0
    7.0350   -3.5860   22.5530 C   0  0  0  0  0  0  0  0  0  0  0  0
    8.4690   -2.6360   23.2960 N   0  0  0  0  0  0  0  0  0  0  0  0
    6.8670   -2.7290   20.9200 C   0  0  2  0  0  0  0  0  0  0  0  0
    6.4300   -3.3760   22.1540 C   0  0  0  0  0  0  0  0  0  0  0  0
    8.2410   -4.0590   25.7640 C   0  0  1  0  0  0  0  0  0  0  0  0
    7.6960   -5.1620   28.2440 C   0  0  0  0  0  0  0  0  0  0  0  0
    6.5330   -3.1970   19.6980 C   0  0  0  0  0  0  0  0  0  0  0  0
    9.6330   -3.0430   24.1030 C   0  0  2  0  0  0  0  0  0  0  0  0
    7.7580   -6.0530   28.4120 N   0  0  0  0  0  0  0  0  0  0  0  0
    8.8930   -1.9680   22.0610 C   0  0  0  0  0  0  0  0  0  0  0  0
    7.7100   -1.5650   21.2060 C   0  0  0  0  0  0  0  0  0  0  0  0
    9.3350   -4.1330   25.0870 C   0  0  2  0  0  0  0  0  0  0  0  0
    8.5790   -5.4750   27.0200 C   0  0  2  0  0  0  0  0  0  0  0  0
    6.6490   -3.0530   21.5370 C   0  0  0  0  0  0  0  0  0  0  0  0
    7.1360   -2.5360   18.4720 C   0  0  0  0  0  0  0  0  0  0  0  0
    5.7910   -4.1670   19.5620 O   0  0  0  0  0  0  0  0  0  0  0  0
   10.4950   -2.1830   23.6260 C   0  0  0  0  0  0  0  0  0  0  0  0
    9.7900   -5.4460   25.0520 C   0  0  0  0  0  0  0  0  0  0  0  0
    9.4740   -6.1750   26.2220 C   0  0  0  0  0  0  0  0  0  0  0  0
    8.1680   -5.7640   27.7160 C   0  0  0  0  0  0  0  0  0  0  0  0
   11.0770   -0.4550   23.0860 C   0  0  0  0  0  0  0  0  0  0  0  0
   12.0820    0.4690   23.4640 C   0  0  0  0  0  0  0  0  0  0  0  0
   11.4570   -1.4510   22.1640 C   0  0  0  0  0  0  0  0  0  0  0  0
   13.3380    0.2600   22.8420 C   0  0  0  0  0  0  0  0  0  0  0  0
   13.1460   -1.1360   21.8020 S   0  0  0  0  0  0  0  0  0  0  0  0
  2  1  1  1
  2  3  1  0
  4  1  1  6
  2  5  1  0
  4  6  1  0
  4  7  1  0
  3  8  1  0
  5  9  1  0
 10  7  1  1
  6 11  1  0
 10 11  1  0
  8 12  1  0
  8 13  2  0
  9 14  1  0
  9 15  2  0
 10 16  1  0
 11 17  1  0
 16 18  1  0
 19 17  1  6
 16 20  1  6
 18 21  1  6
 18 22  1  0
 20 23  2  0
 24 19  1  1
 19 25  1  0
 22 26  1  6
 21 27  1  0
 25 28  1  0
 21 29  1  0
 22 30  1  0
 29 30  1  0
 24 31  1  0
 27 31  1  0
 24 32  1  0
 22 33  1  0
 23 33  1  0
 26 34  1  0
 26 35  2  0
 27 36  1  1
 31 37  1  6
 32 38  1  6
 37 38  2  0
 28 39  1  0
 32 39  1  0
 36 40  1  0
 40 41  1  0
 40 42  2  0
 41 43  2  0
 42 44  1  0
 43 44  1  0
M  END
