x1334_0-x0981_1-x1418_1-x0395_1
     RDKit          3D

 36 38  0  0  0  0  0  0  0  0999 V2000
    4.0920   -5.8060   22.9290 C   0  0  0  0  0  0  0  0  0  0  0  0
    2.7090   -6.1350   23.4880 C   0  0  1  0  0  0  0  0  0  0  0  0
    2.3550   -7.4010   22.8430 N   0  0  0  0  0  0  0  0  0  0  0  0
    4.5890   -4.6270   23.0020 N   0  0  0  0  0  0  0  0  0  0  0  0
    2.7400   -6.2650   25.0060 C   0  0  0  0  0  0  0  0  0  0  0  0
    5.8970   -4.5740   22.3480 C   0  0  0  0  0  0  0  0  0  0  0  0
    1.2230   -7.4930   22.0900 C   0  0  0  0  0  0  0  0  0  0  0  0
    3.1460   -7.6700   25.2960 C   0  0  0  0  0  0  0  0  0  0  0  0
    6.6560   -3.4140   22.4130 C   0  0  1  0  0  0  0  0  0  0  0  0
    1.1380   -8.7530   21.2730 C   0  0  0  0  0  0  0  0  0  0  0  0
    0.3610   -6.6190   22.0670 O   0  0  0  0  0  0  0  0  0  0  0  0
    2.4970   -8.2960   26.3260 N   0  0  0  0  0  0  0  0  0  0  0  0
    4.0070   -8.2070   24.6400 O   0  0  0  0  0  0  0  0  0  0  0  0
    7.9580   -3.8130   22.6320 C   0  0  0  0  0  0  0  0  0  0  0  0
    6.6210   -2.6390   21.1520 N   0  0  0  0  0  0  0  0  0  0  0  0
    6.3650   -3.2820   19.9060 C   0  0  0  0  0  0  0  0  0  0  0  0
    8.8810   -2.7430   22.9110 N   0  0  0  0  0  0  0  0  0  0  0  0
    7.5030   -1.4780   21.2260 C   0  0  0  0  0  0  0  0  0  0  0  0
    7.3510   -2.9950   18.7790 C   0  0  0  0  0  0  0  0  0  0  0  0
    5.4240   -4.0600   19.7010 O   0  0  0  0  0  0  0  0  0  0  0  0
    9.0960   -2.4200   24.3350 C   0  0  2  0  0  0  0  0  0  0  0  0
    8.7800   -1.6610   22.0640 C   0  0  0  0  0  0  0  0  0  0  0  0
   10.3080   -1.7700   24.4910 C   0  0  0  0  0  0  0  0  0  0  0  0
    9.0350   -3.6510   25.2140 C   0  0  0  0  0  0  0  0  0  0  0  0
    9.8730   -4.9270   25.1720 C   0  0  0  0  0  0  0  0  0  0  0  0
    7.8870   -3.7430   26.4860 S   0  0  0  0  0  0  0  0  0  0  0  0
   10.5950   -0.9940   23.2720 N   0  0  0  0  0  0  0  0  0  0  0  0
    9.3780   -5.8240   26.2910 C   0  0  0  0  0  0  0  0  0  0  0  0
    8.3380   -5.2970   27.0430 C   0  0  0  0  0  0  0  0  0  0  0  0
   11.5300   -1.6600   22.3390 C   0  0  0  0  0  0  0  0  0  0  0  0
   10.7560    0.4640   23.4750 C   0  0  0  0  0  0  0  0  0  0  0  0
    7.5040   -5.9740   28.3690 Cl  0  0  0  0  0  0  0  0  0  0  0  0
   12.7150   -0.9800   22.1650 C   0  0  0  0  0  0  0  0  0  0  0  0
   12.0830    0.8150   23.6960 C   0  0  0  0  0  0  0  0  0  0  0  0
   13.6210   -1.4920   21.3280 F   0  0  0  0  0  0  0  0  0  0  0  0
   12.9570    0.2070   22.8280 C   0  0  0  0  0  0  0  0  0  0  0  0
  2  1  1  6
  2  3  1  0
  1  4  2  3
  2  5  1  0
  4  6  1  0
  3  7  1  0
  5  8  1  0
  9  6  1  6
  7 10  1  0
  7 11  2  0
  8 12  1  0
  8 13  2  0
  9 14  1  0
  9 15  1  0
 15 16  1  0
 14 17  1  0
 15 18  1  0
 16 19  1  0
 16 20  2  0
 17 21  1  0
 17 22  1  0
 18 22  1  0
 21 23  1  6
 21 24  1  0
 24 25  2  0
 24 26  1  0
 23 27  1  0
 25 28  1  0
 26 29  1  0
 28 29  2  0
 27 30  1  0
 27 31  1  0
 29 32  1  0
 30 33  1  0
 31 34  1  0
 33 35  1  0
 33 36  2  0
 34 36  1  0
M  END
