x1334_1-x1334_0-x1374_1-x1386_1-x1418_1-x0397_0-x0831_1-x0426_1-x1412_1-x0770_1-x0692_1-x0831_0-x0434_2-x1385_1
     RDKit          3D

 45 51  0  0  0  0  0  0  0  0999 V2000
    2.1100   -6.6050   24.5610 O   0  0  0  0  0  0  0  0  0  0  0  0
    2.6530   -7.7390   23.9200 C   0  0  0  0  0  0  0  0  0  0  0  0
    3.8440   -8.0900   24.6250 O   0  0  0  0  0  0  0  0  0  0  0  0
    4.9220   -7.1880   24.3920 C   0  0  0  0  0  0  0  0  0  0  0  0
    4.5060   -6.3500   23.3820 C   0  0  0  0  0  0  0  0  0  0  0  0
    5.6850   -5.5730   22.8810 C   0  0  2  0  0  0  0  0  0  0  0  0
    5.4930   -4.4530   22.1910 C   0  0  2  0  0  0  0  0  0  0  0  0
    6.0710   -5.8430   21.5240 C   0  0  0  0  0  0  0  0  0  0  0  0
    6.4030   -3.2710   22.3120 C   0  0  2  0  0  0  0  0  0  0  0  0
    6.6530   -2.6260   20.9860 N   0  0  0  0  0  0  0  0  0  0  0  0
    7.5930   -3.6990   22.8440 C   0  0  0  0  0  0  0  0  0  0  0  0
    6.3750   -3.3500   19.8550 C   0  0  0  0  0  0  0  0  0  0  0  0
    8.2950   -2.5080   23.1220 N   0  0  0  0  0  0  0  0  0  0  0  0
    7.8690   -1.7550   20.9340 C   0  0  1  0  0  0  0  0  0  0  0  0
    7.3100   -3.0690   18.6840 C   0  0  0  0  0  0  0  0  0  0  0  0
    5.4660   -4.1850   19.7490 O   0  0  0  0  0  0  0  0  0  0  0  0
    9.2870   -2.6110   24.1420 C   0  0  2  0  0  0  0  0  0  0  0  0
    7.6170   -0.3280   20.9100 N   0  0  0  0  0  0  0  0  0  0  0  0
    8.9880   -2.0810   21.9200 C   0  0  0  0  0  0  0  0  0  0  0  0
   10.6860   -2.4940   23.6040 C   0  0  0  0  0  0  0  0  0  0  0  0
    7.2080    0.2300   22.2250 C   0  0  0  0  0  0  0  0  0  0  0  0
    6.6710    0.2360   19.9640 C   0  0  0  0  0  0  0  0  0  0  0  0
    9.1750   -3.6870   25.1060 C   0  0  0  0  0  0  0  0  0  0  0  0
    5.7030    0.3490   22.1160 C   0  0  2  0  0  0  0  0  0  0  0  0
    6.7540    0.4190   18.4970 N   0  0  0  0  0  0  0  0  0  0  0  0
    5.5440    0.6560   20.6410 C   0  0  0  0  0  0  0  0  0  0  0  0
    9.8770   -4.8410   25.3620 C   0  0  0  0  0  0  0  0  0  0  0  0
    7.8760   -3.6130   26.3140 S   0  0  0  0  0  0  0  0  0  0  0  0
   11.1860   -1.0720   23.5330 C   0  0  0  0  0  0  0  0  0  0  0  0
    5.0350    1.4230   22.9340 C   0  0  0  0  0  0  0  0  0  0  0  0
    4.4480    1.2690   20.0850 C   0  0  0  0  0  0  0  0  0  0  0  0
    5.5950    1.0750   17.9110 C   0  0  0  0  0  0  0  0  0  0  0  0
    9.4410   -5.5870   26.4360 C   0  0  0  0  0  0  0  0  0  0  0  0
    8.3440   -5.0410   27.0900 C   0  0  0  0  0  0  0  0  0  0  0  0
   10.4270    0.0140   24.0030 C   0  0  0  0  0  0  0  0  0  0  0  0
   12.4350   -0.8140   22.9910 C   0  0  0  0  0  0  0  0  0  0  0  0
    3.5730    1.6510   22.5100 C   0  0  2  0  0  0  0  0  0  0  0  0
    3.3100    1.6690   20.9850 C   0  0  0  0  0  0  0  0  0  0  0  0
    7.4580   -5.5450   28.4630 Cl  0  0  0  0  0  0  0  0  0  0  0  0
   13.2440   -1.9460   22.4600 C   0  0  0  0  0  0  0  0  0  0  0  0
    4.5320    1.4560   18.7220 C   0  0  0  0  0  0  0  0  0  0  0  0
   10.9400    1.2950   23.9360 C   0  0  0  0  0  0  0  0  0  0  0  0
   12.9290    0.4740   22.9360 C   0  0  0  0  0  0  0  0  0  0  0  0
    3.0670    2.8510   23.1330 N   0  0  0  0  0  0  0  0  0  0  0  0
   12.1440    1.5180   23.4260 C   0  0  0  0  0  0  0  0  0  0  0  0
  1  2  1  0
  2  3  1  0
  3  4  1  0
  4  5  1  0
  6  5  1  6
  6  7  1  0
  6  8  1  0
  7  8  1  6
  7  9  1  0
  9 10  1  0
  9 11  1  6
 10 12  1  0
 11 13  1  0
 10 14  1  0
 12 15  1  0
 12 16  2  0
 13 17  1  0
 14 18  1  1
 13 19  1  0
 14 19  1  0
 17 20  1  6
 18 21  1  0
 18 22  1  0
 17 23  1  0
 24 21  1  1
 22 25  2  0
 22 26  1  0
 24 26  1  0
 23 27  2  0
 23 28  1  0
 20 29  1  0
 24 30  1  0
 26 31  2  0
 25 32  1  0
 27 33  1  0
 28 34  1  0
 33 34  2  0
 29 35  2  0
 29 36  1  0
 30 37  1  0
 31 38  1  0
 37 38  1  0
 34 39  1  0
 36 40  1  0
 31 41  1  0
 32 41  2  0
 35 42  1  0
 36 43  2  0
 37 44  1  6
 42 45  2  0
 43 45  1  0
M  END
