x1334_0-x1334_1-x0831_0-x0434_2-x0397_0-x0770_1-x1412_1-x0692_1
     RDKit          3D

 34 38  0  0  0  0  0  0  0  0999 V2000
    6.3680   -3.3790   19.9260 C   0  0  0  0  0  0  0  0  0  0  0  0
    7.2850   -3.0440   18.7670 C   0  0  0  0  0  0  0  0  0  0  0  0
    5.4190   -4.1610   19.7580 O   0  0  0  0  0  0  0  0  0  0  0  0
    6.6790   -2.7810   21.1640 N   0  0  0  0  0  0  0  0  0  0  0  0
    7.7570   -1.7670   21.1010 C   0  0  1  0  0  0  0  0  0  0  0  0
    6.2620   -3.2970   22.3820 C   0  0  2  0  0  0  0  0  0  0  0  0
    7.1430   -0.4560   21.2690 N   0  0  0  0  0  0  0  0  0  0  0  0
    8.8500   -1.9570   22.1580 C   0  0  0  0  0  0  0  0  0  0  0  0
    7.4910   -3.6620   23.2030 C   0  0  0  0  0  0  0  0  0  0  0  0
    5.4420   -4.5490   22.2450 C   0  0  0  0  0  0  0  0  0  0  0  0
    8.4410   -2.5880   23.4360 N   0  0  0  0  0  0  0  0  0  0  0  0
    5.8140   -5.7510   22.9660 C   0  0  0  0  0  0  0  0  0  0  0  0
    6.0580   -5.9250   21.5510 C   0  0  0  0  0  0  0  0  0  0  0  0
    6.4660    0.1560   20.2390 C   0  0  0  0  0  0  0  0  0  0  0  0
    9.6280   -3.1880   23.9960 C   0  0  1  0  0  0  0  0  0  0  0  0
    6.9310    0.0890   18.7770 C   0  0  0  0  0  0  0  0  0  0  0  0
    5.2080    0.9640   20.3080 C   0  0  0  0  0  0  0  0  0  0  0  0
   10.8260   -2.4860   24.6100 C   0  0  0  0  0  0  0  0  0  0  0  0
    9.2830   -4.1870   25.0890 C   0  0  0  0  0  0  0  0  0  0  0  0
    6.3400    0.6570   17.7260 N   0  0  0  0  0  0  0  0  0  0  0  0
    4.6450    1.5310   19.1320 C   0  0  0  0  0  0  0  0  0  0  0  0
    9.8150   -5.3710   25.3360 C   0  0  0  0  0  0  0  0  0  0  0  0
    8.0340   -3.8720   26.2780 S   0  0  0  0  0  0  0  0  0  0  0  0
   11.1330   -1.0760   24.1920 C   0  0  0  0  0  0  0  0  0  0  0  0
    5.2260    1.3550   17.9380 C   0  0  0  0  0  0  0  0  0  0  0  0
    9.3110   -6.1490   26.4710 C   0  0  0  0  0  0  0  0  0  0  0  0
    8.2120   -5.3450   27.1360 C   0  0  0  0  0  0  0  0  0  0  0  0
   10.4050    0.0500   24.6230 C   0  0  0  0  0  0  0  0  0  0  0  0
   12.3340   -0.8200   23.2440 C   0  0  0  0  0  0  0  0  0  0  0  0
    7.2510   -5.7300   28.4950 Cl  0  0  0  0  0  0  0  0  0  0  0  0
   13.1780   -1.9130   22.6900 C   0  0  0  0  0  0  0  0  0  0  0  0
   10.7400    1.3430   24.2340 C   0  0  0  0  0  0  0  0  0  0  0  0
   12.6620    0.5810   22.8710 C   0  0  0  0  0  0  0  0  0  0  0  0
   11.8940    1.6210   23.3480 C   0  0  0  0  0  0  0  0  0  0  0  0
  1  2  1  0
  1  3  2  0
  1  4  1  0
  4  5  1  0
  4  6  1  0
  5  7  1  1
  5  8  1  0
  6  9  1  0
  6 10  1  6
  8 11  1  0
  9 11  1  0
 10 12  1  0
 10 13  1  0
 12 13  1  0
  7 14  1  0
 11 15  1  0
 14 16  2  0
 14 17  1  0
 15 18  1  1
 15 19  1  0
 16 20  1  0
 17 21  2  0
 19 22  2  0
 19 23  1  0
 18 24  1  0
 20 25  2  0
 21 25  1  0
 22 26  1  0
 23 27  1  0
 26 27  2  0
 24 28  2  0
 24 29  1  0
 27 30  1  0
 29 31  1  0
 28 32  1  0
 29 33  2  0
 32 34  2  0
 33 34  1  0
M  END
