x1334_1-x0831_1-x0397_0-x1385_1-x0770_1-x0831_0-x1418_1-x0692_1-x1334_0
     RDKit          3D

 27 30  0  0  0  0  0  0  0  0999 V2000
    6.2510   -3.3220   19.9480 C   0  0  0  0  0  0  0  0  0  0  0  0
    7.2290   -3.0000   18.8290 C   0  0  0  0  0  0  0  0  0  0  0  0
    5.4020   -4.2010   19.7740 O   0  0  0  0  0  0  0  0  0  0  0  0
    6.3680   -2.6160   21.1340 N   0  0  0  0  0  0  0  0  0  0  0  0
    6.9810   -1.3870   21.1920 C   0  0  0  0  0  0  0  0  0  0  0  0
    6.3860   -3.3420   22.4190 C   0  0  2  0  0  0  0  0  0  0  0  0
    8.3960   -1.4470   21.8250 C   0  0  0  0  0  0  0  0  0  0  0  0
    7.8380   -3.4890   22.9580 C   0  0  0  0  0  0  0  0  0  0  0  0
    5.5800   -4.6490   22.4460 C   0  0  0  0  0  0  0  0  0  0  0  0
    8.5250   -2.1960   23.0930 N   0  0  0  0  0  0  0  0  0  0  0  0
    6.1070   -5.8410   23.1020 C   0  0  0  0  0  0  0  0  0  0  0  0
    6.1190   -6.0370   21.7440 C   0  0  0  0  0  0  0  0  0  0  0  0
    9.8960   -2.3290   23.3140 C   0  0  2  0  0  0  0  0  0  0  0  0
   10.4100   -3.1730   24.4640 C   0  0  0  0  0  0  0  0  0  0  0  0
   10.6960   -1.0000   23.3520 C   0  0  0  0  0  0  0  0  0  0  0  0
   10.0820    0.1650   23.8790 C   0  0  0  0  0  0  0  0  0  0  0  0
   12.0520   -0.9180   22.8590 C   0  0  0  0  0  0  0  0  0  0  0  0
    9.5680   -4.0820   25.3400 C   0  0  0  0  0  0  0  0  0  0  0  0
   12.7770   -2.0750   22.2720 C   0  0  0  0  0  0  0  0  0  0  0  0
   10.6970    1.4080   23.9680 C   0  0  0  0  0  0  0  0  0  0  0  0
   12.7670    0.2750   22.9000 C   0  0  0  0  0  0  0  0  0  0  0  0
   10.0410   -5.5550   25.4330 C   0  0  0  0  0  0  0  0  0  0  0  0
    8.1660   -3.5730   26.2420 S   0  0  0  0  0  0  0  0  0  0  0  0
   12.0850    1.5700   23.4860 C   0  0  0  0  0  0  0  0  0  0  0  0
    9.0190   -5.9370   26.3810 C   0  0  0  0  0  0  0  0  0  0  0  0
    7.9660   -5.0720   26.9290 C   0  0  0  0  0  0  0  0  0  0  0  0
    6.7530   -5.4820   28.0600 Cl  0  0  0  0  0  0  0  0  0  0  0  0
  1  2  1  0
  1  3  2  0
  1  4  1  0
  4  5  1  0
  4  6  1  0
  5  7  1  0
  6  8  1  0
  6  9  1  6
  7 10  1  0
  8 10  1  0
  9 11  1  0
  9 12  1  0
 11 12  1  0
 10 13  1  0
 13 14  1  1
 13 15  1  0
 15 16  2  0
 15 17  1  0
 14 18  1  0
 17 19  1  0
 16 20  1  0
 17 21  2  0
 18 22  2  0
 18 23  1  0
 20 24  2  0
 21 24  1  0
 22 25  1  0
 23 26  1  0
 25 26  2  0
 26 27  1  0
M  END
