x1334_0-x1374_1-x1334_1-x1418_1-x0397_0-x0831_1-x0692_1-x0770_1-x1385_1-x0434_2-x1412_1-x0426_1-x0831_0
     RDKit          3D

 45 51  0  0  0  0  0  0  0  0999 V2000
    1.8750   -6.7680   24.0310 O   0  0  0  0  0  0  0  0  0  0  0  0
    2.7900   -7.7110   23.5320 C   0  0  0  0  0  0  0  0  0  0  0  0
    3.9980   -7.5930   24.2670 O   0  0  0  0  0  0  0  0  0  0  0  0
    4.0740   -6.2190   24.6520 C   0  0  0  0  0  0  0  0  0  0  0  0
    5.3530   -5.6780   24.6390 C   0  0  0  0  0  0  0  0  0  0  0  0
    6.0560   -5.6040   23.2960 C   0  0  2  0  0  0  0  0  0  0  0  0
    5.8610   -4.5570   22.4760 C   0  0  2  0  0  0  0  0  0  0  0  0
    5.6530   -6.1550   22.0030 C   0  0  0  0  0  0  0  0  0  0  0  0
    6.9930   -3.6590   22.0830 C   0  0  1  0  0  0  0  0  0  0  0  0
    6.7420   -2.7690   21.0790 N   0  0  0  0  0  0  0  0  0  0  0  0
    7.4800   -2.9490   23.3590 C   0  0  0  0  0  0  0  0  0  0  0  0
    6.4340   -3.3480   19.8700 C   0  0  0  0  0  0  0  0  0  0  0  0
    8.7490   -2.5170   23.2720 N   0  0  0  0  0  0  0  0  0  0  0  0
    7.8750   -1.8070   20.9010 C   0  0  1  0  0  0  0  0  0  0  0  0
    7.3350   -3.0630   18.6950 C   0  0  0  0  0  0  0  0  0  0  0  0
    5.4680   -4.1180   19.7240 O   0  0  0  0  0  0  0  0  0  0  0  0
    9.7750   -3.2780   23.9810 C   0  0  1  0  0  0  0  0  0  0  0  0
    7.4550   -0.4580   21.0460 N   0  0  0  0  0  0  0  0  0  0  0  0
    9.1350   -2.0910   21.8980 C   0  0  0  0  0  0  0  0  0  0  0  0
   10.8860   -2.4710   24.5940 C   0  0  0  0  0  0  0  0  0  0  0  0
    7.0400    0.1100   22.3270 C   0  0  0  0  0  0  0  0  0  0  0  0
    6.6440    0.1660   20.0180 C   0  0  0  0  0  0  0  0  0  0  0  0
    9.2630   -4.1660   25.1280 C   0  0  0  0  0  0  0  0  0  0  0  0
    5.5660    0.4480   22.1200 C   0  0  2  0  0  0  0  0  0  0  0  0
    6.7060    0.3400   18.6660 N   0  0  0  0  0  0  0  0  0  0  0  0
    5.5650    0.7060   20.6120 C   0  0  0  0  0  0  0  0  0  0  0  0
    9.7780   -5.3980   25.3980 C   0  0  0  0  0  0  0  0  0  0  0  0
    7.9710   -3.8260   26.3230 S   0  0  0  0  0  0  0  0  0  0  0  0
   11.1720   -1.0750   24.1730 C   0  0  0  0  0  0  0  0  0  0  0  0
    5.1350    1.6660   22.9340 C   0  0  0  0  0  0  0  0  0  0  0  0
    4.4580    1.4700   20.0300 C   0  0  0  0  0  0  0  0  0  0  0  0
    5.7070    1.0590   18.0780 C   0  0  0  0  0  0  0  0  0  0  0  0
    9.2890   -6.0810   26.4100 C   0  0  0  0  0  0  0  0  0  0  0  0
    8.2170   -5.3170   27.0750 C   0  0  0  0  0  0  0  0  0  0  0  0
   10.4320   -0.0180   24.6190 C   0  0  0  0  0  0  0  0  0  0  0  0
   12.2550   -0.8630   23.3030 C   0  0  0  0  0  0  0  0  0  0  0  0
    4.0280    2.5330   22.3230 C   0  0  1  0  0  0  0  0  0  0  0  0
    3.4140    1.9170   20.9910 C   0  0  0  0  0  0  0  0  0  0  0  0
    7.2820   -5.7750   28.4290 Cl  0  0  0  0  0  0  0  0  0  0  0  0
   13.1450   -1.9090   22.7110 C   0  0  0  0  0  0  0  0  0  0  0  0
    4.4110    1.7760   18.5560 C   0  0  0  0  0  0  0  0  0  0  0  0
   10.7490    1.4160   24.2090 C   0  0  0  0  0  0  0  0  0  0  0  0
   12.6300    0.5040   22.8750 C   0  0  0  0  0  0  0  0  0  0  0  0
    2.9100    2.6690   23.3480 N   0  0  0  0  0  0  0  0  0  0  0  0
   11.9400    1.6170   23.2850 C   0  0  0  0  0  0  0  0  0  0  0  0
  1  2  1  0
  2  3  1  0
  3  4  1  0
  4  5  1  0
  6  5  1  1
  6  7  1  0
  6  8  1  0
  7  8  1  6
  7  9  1  0
  9 10  1  0
  9 11  1  1
 10 12  1  0
 11 13  1  0
 10 14  1  0
 12 15  1  0
 12 16  2  0
 13 17  1  0
 14 18  1  1
 13 19  1  0
 14 19  1  0
 17 20  1  1
 18 21  1  0
 18 22  1  0
 17 23  1  0
 24 21  1  1
 22 25  2  0
 22 26  1  0
 24 26  1  0
 23 27  2  0
 23 28  1  0
 20 29  1  0
 24 30  1  0
 26 31  2  0
 25 32  1  0
 27 33  1  0
 28 34  1  0
 33 34  2  0
 29 35  2  0
 29 36  1  0
 30 37  1  0
 31 38  1  0
 37 38  1  0
 34 39  1  0
 36 40  1  0
 31 41  1  0
 32 41  2  0
 35 42  1  0
 36 43  2  0
 37 44  1  1
 42 45  2  0
 43 45  1  0
M  END
