x1334_0-x0434_2-x0736_1-x1334_1-x0387_0-x0397_0-x1418_1-x1412_0-x0874_0
     RDKit          3D

 34 38  0  0  0  0  0  0  0  0999 V2000
    6.4730   -3.3340   20.0600 C   0  0  0  0  0  0  0  0  0  0  0  0
    7.4270   -2.9970   18.9320 C   0  0  0  0  0  0  0  0  0  0  0  0
    5.5170   -4.0890   19.7810 O   0  0  0  0  0  0  0  0  0  0  0  0
    6.6870   -2.8280   21.4050 N   0  0  0  0  0  0  0  0  0  0  0  0
    7.5270   -1.6620   21.6800 C   0  0  2  0  0  0  0  0  0  0  0  0
    6.4940   -3.7540   22.5030 C   0  0  2  0  0  0  0  0  0  0  0  0
    7.7800   -0.8170   20.5620 N   0  0  0  0  0  0  0  0  0  0  0  0
    8.9180   -2.0970   22.2200 C   0  0  0  0  0  0  0  0  0  0  0  0
    7.8640   -4.2250   22.9860 C   0  0  0  0  0  0  0  0  0  0  0  0
    5.6010   -4.8900   22.1710 C   0  0  0  0  0  0  0  0  0  0  0  0
    8.9250   -3.2210   23.1640 N   0  0  0  0  0  0  0  0  0  0  0  0
    5.8630   -6.2910   23.0500 C   0  0  0  0  0  0  0  0  0  0  0  0
    6.0560   -6.1760   21.6580 C   0  0  0  0  0  0  0  0  0  0  0  0
    6.8420   -0.0720   19.9150 C   0  0  0  0  0  0  0  0  0  0  0  0
    9.1280   -2.7300   24.5050 C   0  0  2  0  0  0  0  0  0  0  0  0
    7.0600    0.2000   18.4370 C   0  0  0  0  0  0  0  0  0  0  0  0
    5.4850    0.6170   20.4240 C   0  0  0  0  0  0  0  0  0  0  0  0
    7.8430   -1.8730   24.6970 C   0  0  0  0  0  0  0  0  0  0  0  0
   10.1740   -1.6790   24.8310 C   0  0  0  0  0  0  0  0  0  0  0  0
    9.0220   -3.9110   25.4310 C   0  0  0  0  0  0  0  0  0  0  0  0
    6.1990    0.9720   17.5840 N   0  0  0  0  0  0  0  0  0  0  0  0
    4.5750    1.4410   19.5060 C   0  0  0  0  0  0  0  0  0  0  0  0
    7.7600   -0.7170   25.0820 O   0  0  0  0  0  0  0  0  0  0  0  0
    9.7780   -5.1080   25.4490 C   0  0  0  0  0  0  0  0  0  0  0  0
    7.8160   -3.9550   26.7000 S   0  0  0  0  0  0  0  0  0  0  0  0
    4.9890    1.5940   18.0740 C   0  0  0  0  0  0  0  0  0  0  0  0
   11.2900   -1.3580   23.8690 C   0  0  0  0  0  0  0  0  0  0  0  0
    9.3780   -6.0890   26.5090 C   0  0  0  0  0  0  0  0  0  0  0  0
    8.1790   -5.5050   27.3440 C   0  0  0  0  0  0  0  0  0  0  0  0
   12.0700   -0.2060   23.9580 C   0  0  0  0  0  0  0  0  0  0  0  0
   11.7670   -2.1970   22.6660 C   0  0  0  0  0  0  0  0  0  0  0  0
    7.2690   -6.1050   28.6540 Cl  0  0  0  0  0  0  0  0  0  0  0  0
   13.0730   -0.0840   22.9740 C   0  0  0  0  0  0  0  0  0  0  0  0
   13.0810   -1.5060   21.8210 S   0  0  0  0  0  0  0  0  0  0  0  0
  1  2  1  0
  1  3  2  0
  1  4  1  0
  4  5  1  0
  4  6  1  0
  5  7  1  6
  5  8  1  0
  6  9  1  0
  6 10  1  6
  8 11  1  0
  9 11  1  0
 10 12  1  0
 10 13  1  0
 12 13  1  0
  7 14  1  0
 11 15  1  0
 14 16  2  0
 14 17  1  0
 15 18  1  1
 15 19  1  0
 15 20  1  0
 16 21  1  0
 17 22  2  0
 18 23  2  0
 20 24  2  0
 20 25  1  0
 21 26  2  0
 22 26  1  0
 19 27  1  0
 24 28  1  0
 25 29  1  0
 28 29  2  0
 27 30  1  0
 27 31  2  0
 29 32  1  0
 30 33  2  0
 31 34  1  0
 33 34  1  0
M  END
