x1334_1-x0397_0-x0434_2-x1418_1-x1385_1-x0692_1-x1334_0-x1412_1-x0770_1-x0831_0-x0426_1
     RDKit          3D

 40 46  0  0  0  0  0  0  0  0999 V2000
    6.3760   -3.3850   19.8800 C   0  0  0  0  0  0  0  0  0  0  0  0
    7.3570   -3.0910   18.7400 C   0  0  0  0  0  0  0  0  0  0  0  0
    5.4780   -4.2330   19.7810 O   0  0  0  0  0  0  0  0  0  0  0  0
    6.5790   -2.6220   21.0300 N   0  0  0  0  0  0  0  0  0  0  0  0
    7.8240   -1.8140   20.9600 C   0  0  1  0  0  0  0  0  0  0  0  0
    6.0710   -3.0310   22.3440 C   0  0  2  0  0  0  0  0  0  0  0  0
    7.5890   -0.3820   20.9120 N   0  0  0  0  0  0  0  0  0  0  0  0
    8.8890   -2.3280   21.9870 C   0  0  0  0  0  0  0  0  0  0  0  0
    7.2200   -3.6680   23.0780 C   0  0  0  0  0  0  0  0  0  0  0  0
    5.5900   -4.4990   22.6260 C   0  0  0  0  0  0  0  0  0  0  0  0
    7.2530    0.2620   22.1810 C   0  0  0  0  0  0  0  0  0  0  0  0
    8.3060   -2.6600   23.1540 N   0  0  0  0  0  0  0  0  0  0  0  0
    6.5780   -5.4300   23.1230 C   0  0  0  0  0  0  0  0  0  0  0  0
    6.2820   -5.6440   21.5820 C   0  0  0  0  0  0  0  0  0  0  0  0
    6.6570    0.1770   19.9600 C   0  0  0  0  0  0  0  0  0  0  0  0
    5.7430    0.3560   22.1490 C   0  0  2  0  0  0  0  0  0  0  0  0
    9.1520   -2.6470   24.3280 C   0  0  2  0  0  0  0  0  0  0  0  0
    6.7080    0.3330   18.4520 N   0  0  0  0  0  0  0  0  0  0  0  0
    5.5570    0.6330   20.6770 C   0  0  0  0  0  0  0  0  0  0  0  0
    5.0570    1.4290   23.0180 C   0  0  0  0  0  0  0  0  0  0  0  0
   10.6010   -2.5380   23.8920 C   0  0  0  0  0  0  0  0  0  0  0  0
    4.4810    1.2450   20.1060 C   0  0  0  0  0  0  0  0  0  0  0  0
    5.6220    0.9550   17.9130 C   0  0  0  0  0  0  0  0  0  0  0  0
    8.9370   -3.8180   25.3080 C   0  0  0  0  0  0  0  0  0  0  0  0
    3.9780    2.2830   22.3230 C   0  0  1  0  0  0  0  0  0  0  0  0
    3.3750    1.6940   20.9860 C   0  0  0  0  0  0  0  0  0  0  0  0
    4.4500    1.4390   18.7540 C   0  0  0  0  0  0  0  0  0  0  0  0
    9.7820   -5.0700   25.3030 C   0  0  0  0  0  0  0  0  0  0  0  0
    7.7130   -3.8080   26.5270 S   0  0  0  0  0  0  0  0  0  0  0  0
   11.0510   -0.9810   23.8040 C   0  0  0  0  0  0  0  0  0  0  0  0
    2.9190    2.5750   23.2700 N   0  0  0  0  0  0  0  0  0  0  0  0
    9.3310   -6.0040   26.3890 C   0  0  0  0  0  0  0  0  0  0  0  0
    8.1630   -5.4240   27.1730 C   0  0  0  0  0  0  0  0  0  0  0  0
   10.4090    0.0390   24.3740 C   0  0  0  0  0  0  0  0  0  0  0  0
   12.3120   -0.9020   22.9650 C   0  0  0  0  0  0  0  0  0  0  0  0
    7.2860   -6.0610   28.4870 Cl  0  0  0  0  0  0  0  0  0  0  0  0
   13.0690   -1.9930   22.2850 C   0  0  0  0  0  0  0  0  0  0  0  0
   10.8940    1.3210   24.2220 C   0  0  0  0  0  0  0  0  0  0  0  0
   12.7450    0.4050   22.8700 C   0  0  0  0  0  0  0  0  0  0  0  0
   12.1340    1.5270   23.4310 C   0  0  0  0  0  0  0  0  0  0  0  0
  1  2  1  0
  1  3  2  0
  1  4  1  0
  4  5  1  0
  4  6  1  0
  5  7  1  1
  5  8  1  0
  6  9  1  0
  6 10  1  6
  7 11  1  0
  8 12  1  0
  9 12  1  0
 10 13  1  0
 10 14  1  0
 13 14  1  0
  7 15  1  0
 16 11  1  6
 12 17  1  0
 15 18  2  0
 15 19  1  0
 16 19  1  0
 16 20  1  0
 17 21  1  6
 19 22  2  0
 18 23  1  0
 17 24  1  0
 20 25  1  0
 22 26  1  0
 25 26  1  0
 22 27  1  0
 23 27  2  0
 24 28  2  0
 24 29  1  0
 21 30  1  0
 25 31  1  1
 28 32  1  0
 29 33  1  0
 32 33  2  0
 30 34  2  0
 30 35  1  0
 33 36  1  0
 35 37  1  0
 34 38  1  0
 35 39  2  0
 38 40  2  0
 39 40  1  0
M  END
