x1334_0-x1418_1-x1375_1-x1385_1-x1412_1-x0397_0-x0770_1-x0831_1-x1334_1-x1374_1-x1386_1-x0831_0-x0692_1-x0434_2
     RDKit          3D

 38 42  0  0  0  0  0  0  0  0999 V2000
    6.3990   -3.2670   19.8400 C   0  0  0  0  0  0  0  0  0  0  0  0
    7.4020   -3.0410   18.7180 C   0  0  0  0  0  0  0  0  0  0  0  0
    5.4470   -4.0450   19.6830 O   0  0  0  0  0  0  0  0  0  0  0  0
    6.6030   -2.6090   21.0390 N   0  0  0  0  0  0  0  0  0  0  0  0
    6.3360   -3.2510   22.3270 C   0  0  2  0  0  0  0  0  0  0  0  0
    7.7990   -1.7150   20.9710 C   0  0  2  0  0  0  0  0  0  0  0  0
    7.6050   -3.6830   23.0410 C   0  0  0  0  0  0  0  0  0  0  0  0
    8.9340   -1.9700   22.0200 C   0  0  0  0  0  0  0  0  0  0  0  0
    5.4890   -4.5390   22.0670 C   0  0  2  0  0  0  0  0  0  0  0  0
    7.4380   -0.2410   20.7950 C   0  0  0  0  0  0  0  0  0  0  0  0
    8.5530   -2.6030   23.2910 N   0  0  0  0  0  0  0  0  0  0  0  0
    5.9770   -5.6390   22.8910 C   0  0  2  0  0  0  0  0  0  0  0  0
    6.1700   -5.6960   21.4200 C   0  0  0  0  0  0  0  0  0  0  0  0
    7.1200    0.1530   19.3680 C   0  0  0  0  0  0  0  0  0  0  0  0
    9.6980   -3.2270   23.9500 C   0  0  1  0  0  0  0  0  0  0  0  0
    5.9860    0.4260   20.3520 C   0  0  0  0  0  0  0  0  0  0  0  0
    6.5400    0.6120   18.1840 N   0  0  0  0  0  0  0  0  0  0  0  0
    5.1150   -6.7470   23.3950 C   0  0  0  0  0  0  0  0  0  0  0  0
   10.7040   -2.3020   24.6440 C   0  0  0  0  0  0  0  0  0  0  0  0
    9.2230   -4.1590   25.0610 C   0  0  0  0  0  0  0  0  0  0  0  0
    5.3450    1.1570   17.9320 C   0  0  0  0  0  0  0  0  0  0  0  0
    4.7210    0.9740   20.1860 C   0  0  0  0  0  0  0  0  0  0  0  0
    4.7930   -6.6210   24.7640 O   0  0  0  0  0  0  0  0  0  0  0  0
    9.7980   -5.3700   25.3710 C   0  0  0  0  0  0  0  0  0  0  0  0
    7.8910   -3.9360   26.2150 S   0  0  0  0  0  0  0  0  0  0  0  0
   11.1340   -0.8940   24.1610 C   0  0  0  0  0  0  0  0  0  0  0  0
    4.2960    1.3870   18.9640 C   0  0  0  0  0  0  0  0  0  0  0  0
    3.4660   -7.0330   25.0020 C   0  0  0  0  0  0  0  0  0  0  0  0
    9.2520   -6.0270   26.4100 C   0  0  0  0  0  0  0  0  0  0  0  0
    8.1910   -5.4240   27.0360 C   0  0  0  0  0  0  0  0  0  0  0  0
   10.4340    0.1720   24.5610 C   0  0  0  0  0  0  0  0  0  0  0  0
   12.3890   -0.7840   23.2360 C   0  0  0  0  0  0  0  0  0  0  0  0
    3.1060   -8.1520   24.2160 O   0  0  0  0  0  0  0  0  0  0  0  0
    7.2500   -5.9260   28.3720 Cl  0  0  0  0  0  0  0  0  0  0  0  0
   13.1290   -2.0160   22.7900 C   0  0  0  0  0  0  0  0  0  0  0  0
   10.9360    1.4880   24.0800 C   0  0  0  0  0  0  0  0  0  0  0  0
   12.8830    0.4840   22.7800 C   0  0  0  0  0  0  0  0  0  0  0  0
   12.1410    1.6690   23.2090 C   0  0  0  0  0  0  0  0  0  0  0  0
  1  2  1  0
  1  3  2  0
  1  4  1  0
  4  5  1  0
  4  6  1  0
  5  7  1  6
  6  8  1  0
  5  9  1  0
  6 10  1  1
  7 11  1  0
  8 11  1  0
  9 12  1  0
  9 13  1  6
 12 13  1  0
 10 14  1  0
 11 15  1  0
 14 16  2  0
 14 17  1  0
 12 18  1  6
 15 19  1  1
 15 20  1  0
 17 21  2  0
 16 22  1  0
 18 23  1  0
 20 24  2  0
 20 25  1  0
 19 26  1  0
 21 27  1  0
 22 27  2  0
 23 28  1  0
 24 29  1  0
 25 30  1  0
 29 30  2  0
 26 31  2  0
 26 32  1  0
 28 33  1  0
 30 34  1  0
 32 35  1  0
 31 36  1  0
 32 37  2  0
 36 38  2  0
 37 38  1  0
M  END
