x1334_0-x1374_1-x0831_0-x1334_1-x0397_0-x1386_1
     RDKit          3D

 32 35  0  0  0  0  0  0  0  0999 V2000
    2.0640   -7.2440   23.6990 O   0  0  0  0  0  0  0  0  0  0  0  0
    2.5490   -7.8460   24.8830 C   0  0  0  0  0  0  0  0  0  0  0  0
    3.9610   -7.9190   24.8910 O   0  0  0  0  0  0  0  0  0  0  0  0
    4.5110   -7.2160   23.7830 C   0  0  0  0  0  0  0  0  0  0  0  0
    5.0060   -6.0050   24.1870 C   0  0  0  0  0  0  0  0  0  0  0  0
    5.9100   -5.5360   23.0890 C   0  0  2  0  0  0  0  0  0  0  0  0
    5.4590   -4.4940   22.2190 C   0  0  2  0  0  0  0  0  0  0  0  0
    5.9670   -6.0530   21.9000 C   0  0  0  0  0  0  0  0  0  0  0  0
    6.2100   -3.1830   22.3520 C   0  0  2  0  0  0  0  0  0  0  0  0
    6.3590   -2.5110   21.0640 N   0  0  0  0  0  0  0  0  0  0  0  0
    7.3940   -3.3840   23.0430 C   0  0  0  0  0  0  0  0  0  0  0  0
    6.2430   -3.2600   19.8930 C   0  0  0  0  0  0  0  0  0  0  0  0
    8.1490   -2.1980   23.3080 N   0  0  0  0  0  0  0  0  0  0  0  0
    7.3790   -1.4190   21.0620 C   0  0  0  0  0  0  0  0  0  0  0  0
    7.2430   -3.0150   18.7860 C   0  0  0  0  0  0  0  0  0  0  0  0
    5.3820   -4.1360   19.7330 O   0  0  0  0  0  0  0  0  0  0  0  0
    9.2500   -2.5530   24.1720 C   0  0  2  0  0  0  0  0  0  0  0  0
    8.5700   -1.6460   21.9980 C   0  0  0  0  0  0  0  0  0  0  0  0
   10.4520   -2.5620   23.2840 C   0  0  0  0  0  0  0  0  0  0  0  0
    9.0710   -3.7380   25.1050 C   0  0  0  0  0  0  0  0  0  0  0  0
    9.7520   -5.0050   25.1720 C   0  0  0  0  0  0  0  0  0  0  0  0
    7.8510   -3.7010   26.4150 S   0  0  0  0  0  0  0  0  0  0  0  0
   11.0890   -1.1710   23.2970 C   0  0  0  0  0  0  0  0  0  0  0  0
    9.3670   -5.8810   26.1610 C   0  0  0  0  0  0  0  0  0  0  0  0
    8.2470   -5.3000   27.0190 C   0  0  0  0  0  0  0  0  0  0  0  0
   10.3410   -0.1000   24.0640 C   0  0  0  0  0  0  0  0  0  0  0  0
   12.2960   -0.8690   22.6680 C   0  0  0  0  0  0  0  0  0  0  0  0
    7.4130   -5.9530   28.3620 Cl  0  0  0  0  0  0  0  0  0  0  0  0
   13.0150   -1.9250   21.9100 C   0  0  0  0  0  0  0  0  0  0  0  0
   10.8290    1.1400   24.1410 C   0  0  0  0  0  0  0  0  0  0  0  0
   12.7650    0.3630   22.7680 C   0  0  0  0  0  0  0  0  0  0  0  0
   12.0250    1.4630   23.5310 C   0  0  0  0  0  0  0  0  0  0  0  0
  1  2  1  0
  2  3  1  0
  3  4  1  0
  4  5  1  0
  6  5  1  1
  6  7  1  0
  6  8  1  0
  7  8  1  6
  7  9  1  0
  9 10  1  0
  9 11  1  6
 10 12  1  0
 11 13  1  0
 10 14  1  0
 12 15  1  0
 12 16  2  0
 13 17  1  0
 13 18  1  0
 14 18  1  0
 17 19  1  6
 17 20  1  0
 20 21  2  0
 20 22  1  0
 19 23  1  0
 21 24  1  0
 22 25  1  0
 24 25  2  0
 23 26  2  0
 23 27  1  0
 25 28  1  0
 27 29  1  0
 26 30  1  0
 27 31  2  0
 30 32  2  0
 31 32  1  0
M  END
