x1334_1-x1412_1-x1385_1-x0770_1-x0692_1-x1334_0-x0831_1-x0831_0-x0397_0-x1418_1-x1374_1-x0434_2-x0426_1
     RDKit          3D

 45 51  0  0  0  0  0  0  0  0999 V2000
    2.2350   -6.5300   23.9850 O   0  0  0  0  0  0  0  0  0  0  0  0
    2.5990   -7.8900   24.0470 C   0  0  0  0  0  0  0  0  0  0  0  0
    3.8320   -8.1190   24.7230 O   0  0  0  0  0  0  0  0  0  0  0  0
    4.7730   -7.0490   24.6080 C   0  0  0  0  0  0  0  0  0  0  0  0
    4.4380   -6.2570   23.5320 C   0  0  0  0  0  0  0  0  0  0  0  0
    5.6740   -5.7440   22.8700 C   0  0  2  0  0  0  0  0  0  0  0  0
    5.8040   -4.7090   22.0820 C   0  0  2  0  0  0  0  0  0  0  0  0
    5.9570   -6.3190   21.7420 C   0  0  0  0  0  0  0  0  0  0  0  0
    6.8760   -3.7810   21.9570 C   0  0  1  0  0  0  0  0  0  0  0  0
    6.5710   -2.7220   20.9560 N   0  0  0  0  0  0  0  0  0  0  0  0
    7.1480   -3.2710   23.2250 C   0  0  0  0  0  0  0  0  0  0  0  0
    6.2850   -3.3110   19.7730 C   0  0  0  0  0  0  0  0  0  0  0  0
    8.2600   -2.3190   23.2580 N   0  0  0  0  0  0  0  0  0  0  0  0
    7.7660   -1.8170   20.8470 C   0  0  1  0  0  0  0  0  0  0  0  0
    7.2700   -3.0320   18.6520 C   0  0  0  0  0  0  0  0  0  0  0  0
    5.3190   -4.0650   19.6210 O   0  0  0  0  0  0  0  0  0  0  0  0
    9.2760   -2.5040   24.2450 C   0  0  2  0  0  0  0  0  0  0  0  0
    7.4500   -0.4010   20.9620 N   0  0  0  0  0  0  0  0  0  0  0  0
    8.8510   -2.0840   21.9090 C   0  0  0  0  0  0  0  0  0  0  0  0
   10.6790   -2.4770   23.6630 C   0  0  0  0  0  0  0  0  0  0  0  0
    7.0770    0.2570   22.2390 C   0  0  0  0  0  0  0  0  0  0  0  0
    6.6280    0.1970   19.9280 C   0  0  0  0  0  0  0  0  0  0  0  0
    8.9350   -3.4610   25.2860 C   0  0  0  0  0  0  0  0  0  0  0  0
    5.5740    0.4830   22.0760 C   0  0  2  0  0  0  0  0  0  0  0  0
    6.7830    0.3040   18.5290 N   0  0  0  0  0  0  0  0  0  0  0  0
    5.5140    0.7370   20.5860 C   0  0  0  0  0  0  0  0  0  0  0  0
    9.8200   -4.5350   25.4780 C   0  0  0  0  0  0  0  0  0  0  0  0
    7.6250   -3.5220   26.3860 S   0  0  0  0  0  0  0  0  0  0  0  0
   11.2140   -1.0240   23.5450 C   0  0  0  0  0  0  0  0  0  0  0  0
    5.0060    1.7210   22.8100 C   0  0  0  0  0  0  0  0  0  0  0  0
    4.4770    1.4260   19.9900 C   0  0  0  0  0  0  0  0  0  0  0  0
    5.7680    0.9890   17.9460 C   0  0  0  0  0  0  0  0  0  0  0  0
    9.4440   -5.3870   26.5270 C   0  0  0  0  0  0  0  0  0  0  0  0
    8.2780   -4.9920   27.1710 C   0  0  0  0  0  0  0  0  0  0  0  0
   10.4260    0.0510   23.9920 C   0  0  0  0  0  0  0  0  0  0  0  0
   12.4730   -0.8130   22.9960 C   0  0  0  0  0  0  0  0  0  0  0  0
    3.7660    2.4520   22.2330 C   0  0  1  0  0  0  0  0  0  0  0  0
    3.3700    1.9360   20.8420 C   0  0  0  0  0  0  0  0  0  0  0  0
    7.4160   -5.6170   28.5060 Cl  0  0  0  0  0  0  0  0  0  0  0  0
   13.2340   -1.9890   22.5190 C   0  0  0  0  0  0  0  0  0  0  0  0
    4.6260    1.5420   18.6930 C   0  0  0  0  0  0  0  0  0  0  0  0
   10.9080    1.3390   23.9100 C   0  0  0  0  0  0  0  0  0  0  0  0
   13.0240    0.4450   22.8810 C   0  0  0  0  0  0  0  0  0  0  0  0
    2.6630    2.3590   23.1610 N   0  0  0  0  0  0  0  0  0  0  0  0
   12.3130    1.5570   23.3120 C   0  0  0  0  0  0  0  0  0  0  0  0
  1  2  1  0
  2  3  1  0
  3  4  1  0
  4  5  1  0
  6  5  1  6
  6  7  1  0
  6  8  1  0
  7  8  1  6
  7  9  1  0
  9 10  1  0
  9 11  1  1
 10 12  1  0
 11 13  1  0
 10 14  1  0
 12 15  1  0
 12 16  2  0
 13 17  1  0
 14 18  1  1
 13 19  1  0
 14 19  1  0
 17 20  1  6
 18 21  1  0
 18 22  1  0
 17 23  1  0
 24 21  1  1
 22 25  2  0
 22 26  1  0
 24 26  1  0
 23 27  2  0
 23 28  1  0
 20 29  1  0
 24 30  1  0
 26 31  2  0
 25 32  1  0
 27 33  1  0
 28 34  1  0
 33 34  2  0
 29 35  2  0
 29 36  1  0
 30 37  1  0
 31 38  1  0
 37 38  1  0
 34 39  1  0
 36 40  1  0
 31 41  1  0
 32 41  2  0
 35 42  1  0
 36 43  2  0
 37 44  1  1
 42 45  2  0
 43 45  1  0
M  END
