x1334_0-x0831_0-x1334_1-x0981_1
     RDKit          3D

 36 38  0  0  0  0  0  0  0  0999 V2000
    4.0940   -5.2950   23.2110 C   0  0  0  0  0  0  0  0  0  0  0  0
    2.7650   -6.0020   23.5390 C   0  0  1  0  0  0  0  0  0  0  0  0
    2.5410   -7.2570   22.7990 N   0  0  0  0  0  0  0  0  0  0  0  0
    4.2270   -4.0690   23.6300 N   0  0  0  0  0  0  0  0  0  0  0  0
    2.6720   -6.2530   25.0450 C   0  0  0  0  0  0  0  0  0  0  0  0
    5.4220   -3.2610   23.3920 C   0  0  0  0  0  0  0  0  0  0  0  0
    1.3520   -7.4410   22.1060 C   0  0  0  0  0  0  0  0  0  0  0  0
    3.1160   -7.6880   25.3140 C   0  0  0  0  0  0  0  0  0  0  0  0
    6.4460   -3.8230   22.3580 C   0  0  1  0  0  0  0  0  0  0  0  0
    1.2330   -8.7270   21.3300 C   0  0  0  0  0  0  0  0  0  0  0  0
    0.4570   -6.6010   22.1080 O   0  0  0  0  0  0  0  0  0  0  0  0
    2.5170   -8.3330   26.3520 N   0  0  0  0  0  0  0  0  0  0  0  0
    3.9640   -8.2090   24.6240 O   0  0  0  0  0  0  0  0  0  0  0  0
    6.5790   -2.8840   21.2040 N   0  0  0  0  0  0  0  0  0  0  0  0
    7.7850   -3.9730   23.0810 C   0  0  0  0  0  0  0  0  0  0  0  0
    6.3030   -3.3740   19.9280 C   0  0  0  0  0  0  0  0  0  0  0  0
    8.2540   -2.6360   23.4100 N   0  0  0  0  0  0  0  0  0  0  0  0
    7.5480   -1.7830   21.3630 C   0  0  0  0  0  0  0  0  0  0  0  0
    7.2780   -3.0150   18.8200 C   0  0  0  0  0  0  0  0  0  0  0  0
    5.3390   -4.1020   19.6940 O   0  0  0  0  0  0  0  0  0  0  0  0
    9.2230   -2.6100   24.3900 C   0  0  2  0  0  0  0  0  0  0  0  0
    8.6950   -2.1220   22.1060 C   0  0  0  0  0  0  0  0  0  0  0  0
   10.5110   -2.6670   23.7880 C   0  0  0  0  0  0  0  0  0  0  0  0
    9.0530   -3.6650   25.2260 C   0  0  0  0  0  0  0  0  0  0  0  0
    9.8090   -4.8780   25.2610 C   0  0  0  0  0  0  0  0  0  0  0  0
    7.8510   -3.7460   26.4710 S   0  0  0  0  0  0  0  0  0  0  0  0
   11.0530   -1.2350   23.6990 C   0  0  0  0  0  0  0  0  0  0  0  0
    9.3970   -5.7290   26.2320 C   0  0  0  0  0  0  0  0  0  0  0  0
    8.3280   -5.2940   27.0190 C   0  0  0  0  0  0  0  0  0  0  0  0
   10.3910   -0.1900   24.3540 C   0  0  0  0  0  0  0  0  0  0  0  0
   12.2140   -0.9360   22.9660 C   0  0  0  0  0  0  0  0  0  0  0  0
    7.5020   -6.0150   28.3260 Cl  0  0  0  0  0  0  0  0  0  0  0  0
   12.9710   -1.9860   22.2240 C   0  0  0  0  0  0  0  0  0  0  0  0
   10.8820    1.1040   24.2660 C   0  0  0  0  0  0  0  0  0  0  0  0
   12.6980    0.3620   22.9020 C   0  0  0  0  0  0  0  0  0  0  0  0
   12.0320    1.3860   23.5470 C   0  0  0  0  0  0  0  0  0  0  0  0
  2  1  1  1
  2  3  1  0
  1  4  2  3
  2  5  1  0
  4  6  1  0
  3  7  1  0
  5  8  1  0
  9  6  1  1
  7 10  1  0
  7 11  2  0
  8 12  1  0
  8 13  2  0
  9 14  1  0
  9 15  1  0
 14 16  1  0
 15 17  1  0
 14 18  1  0
 16 19  1  0
 16 20  2  0
 17 21  1  0
 17 22  1  0
 18 22  1  0
 21 23  1  6
 21 24  1  0
 24 25  2  0
 24 26  1  0
 23 27  1  0
 25 28  1  0
 26 29  1  0
 28 29  2  0
 27 30  2  0
 27 31  1  0
 29 32  1  0
 31 33  1  0
 30 34  1  0
 31 35  2  0
 34 36  2  0
 35 36  1  0
M  END
