x1334_0-x1385_1-x0434_2-x0426_1-x0831_1-x0770_1-x1334_1-x0397_0-x0831_0-x1386_1-x1418_1-x1374_1-x1375_1-x0692_1
     RDKit          3D

 44 49  0  0  0  0  0  0  0  0999 V2000
    2.2210   -7.8050   23.4110 O   0  0  0  0  0  0  0  0  0  0  0  0
    2.5870   -7.9330   24.7710 C   0  0  0  0  0  0  0  0  0  0  0  0
    3.9920   -7.8560   24.8310 O   0  0  0  0  0  0  0  0  0  0  0  0
    4.5120   -7.1120   23.7270 C   0  0  0  0  0  0  0  0  0  0  0  0
    4.8790   -5.8330   24.1160 C   0  0  0  0  0  0  0  0  0  0  0  0
    5.8230   -5.3590   23.0470 C   0  0  2  0  0  0  0  0  0  0  0  0
    5.5710   -4.3100   22.2330 C   0  0  2  0  0  0  0  0  0  0  0  0
    5.7160   -5.8750   21.7700 C   0  0  0  0  0  0  0  0  0  0  0  0
    6.6940   -3.2730   22.1400 C   0  0  2  0  0  0  0  0  0  0  0  0
    7.2120   -3.0180   23.6100 C   0  0  0  0  0  0  0  0  0  0  0  0
    6.7440   -2.2750   21.1350 C   0  0  1  0  0  0  0  0  0  0  0  0
    6.4450   -3.0470   19.7970 C   0  0  0  0  0  0  0  0  0  0  0  0
    5.8330   -1.0480   21.3820 C   0  0  2  0  0  0  0  0  0  0  0  0
    8.4760   -2.3420   23.4680 N   0  0  0  0  0  0  0  0  0  0  0  0
    8.1160   -1.5790   21.0640 C   0  0  0  0  0  0  0  0  0  0  0  0
    7.4190   -2.9290   18.6600 C   0  0  0  0  0  0  0  0  0  0  0  0
    5.4870   -3.8400   19.6530 O   0  0  0  0  0  0  0  0  0  0  0  0
    4.7440   -1.1150   22.4680 C   0  0  0  0  0  0  0  0  0  0  0  0
    9.4170   -2.6940   24.5260 C   0  0  2  0  0  0  0  0  0  0  0  0
    9.1040   -2.2810   22.1160 C   0  0  0  0  0  0  0  0  0  0  0  0
    5.5850   -0.1520   20.1710 C   0  0  0  0  0  0  0  0  0  0  0  0
    4.7120    0.1250   23.3700 C   0  0  0  0  0  0  0  0  0  0  0  0
   10.8060   -2.5550   24.0120 C   0  0  0  0  0  0  0  0  0  0  0  0
    4.5910    0.8360   20.0970 C   0  0  0  0  0  0  0  0  0  0  0  0
    6.3870   -0.3140   19.1060 C   0  0  0  0  0  0  0  0  0  0  0  0
    9.0930   -3.8260   25.4610 C   0  0  0  0  0  0  0  0  0  0  0  0
    4.3970    1.4260   22.5790 C   0  0  1  0  0  0  0  0  0  0  0  0
    3.6340    1.1340   21.2110 C   0  0  0  0  0  0  0  0  0  0  0  0
    4.4820    1.6340   18.8570 C   0  0  0  0  0  0  0  0  0  0  0  0
    6.3640    0.3670   17.9320 N   0  0  0  0  0  0  0  0  0  0  0  0
    9.8090   -4.9850   25.4200 C   0  0  0  0  0  0  0  0  0  0  0  0
    7.7630   -3.8420   26.7420 S   0  0  0  0  0  0  0  0  0  0  0  0
   11.2660   -1.1400   23.7860 C   0  0  0  0  0  0  0  0  0  0  0  0
    3.4980    2.3410   23.4070 N   0  0  0  0  0  0  0  0  0  0  0  0
    5.4640    1.3460   17.7080 C   0  0  0  0  0  0  0  0  0  0  0  0
    9.3310   -5.9600   26.4350 C   0  0  0  0  0  0  0  0  0  0  0  0
    8.1670   -5.4620   27.2770 C   0  0  0  0  0  0  0  0  0  0  0  0
   10.4650   -0.0230   24.4510 C   0  0  0  0  0  0  0  0  0  0  0  0
   12.3850   -0.8730   22.9900 C   0  0  0  0  0  0  0  0  0  0  0  0
    7.2610   -6.1550   28.5430 Cl  0  0  0  0  0  0  0  0  0  0  0  0
   13.1470   -1.9640   22.3250 C   0  0  0  0  0  0  0  0  0  0  0  0
   11.0090    1.3800   24.1610 C   0  0  0  0  0  0  0  0  0  0  0  0
   12.8210    0.4090   22.7890 C   0  0  0  0  0  0  0  0  0  0  0  0
   12.1300    1.5910   23.3780 C   0  0  0  0  0  0  0  0  0  0  0  0
  1  2  1  0
  2  3  1  0
  3  4  1  0
  4  5  1  0
  6  5  1  1
  6  7  1  0
  6  8  1  0
  7  8  1  6
  7  9  1  0
  9 10  1  1
  9 11  1  0
 11 12  1  6
 11 13  1  0
 10 14  1  0
 11 15  1  0
 12 16  1  0
 12 17  2  0
 13 18  1  6
 14 19  1  0
 14 20  1  0
 15 20  1  0
 13 21  1  0
 18 22  1  0
 19 23  1  6
 21 24  2  0
 21 25  1  0
 19 26  1  0
 22 27  1  0
 24 28  1  0
 27 28  1  0
 24 29  1  0
 25 30  2  0
 26 31  2  0
 26 32  1  0
 23 33  1  0
 27 34  1  1
 29 35  2  0
 30 35  1  0
 31 36  1  0
 32 37  1  0
 36 37  2  0
 33 38  2  0
 33 39  1  0
 37 40  1  0
 39 41  1  0
 38 42  1  0
 39 43  2  0
 42 44  2  0
 43 44  1  0
M  END
