x1334_1-x0397_0-x1385_1-x1412_1-x1334_0-x0434_2-x1418_1-x1386_1-x0692_1-x1374_1-x0831_1-x0770_1-x0831_0-x0426_1
     RDKit          3D

 45 51  0  0  0  0  0  0  0  0999 V2000
    1.9920   -7.4070   23.8510 O   0  0  0  0  0  0  0  0  0  0  0  0
    2.5250   -7.8910   25.0680 C   0  0  0  0  0  0  0  0  0  0  0  0
    3.9350   -7.8640   24.9520 O   0  0  0  0  0  0  0  0  0  0  0  0
    4.3540   -7.2150   23.7590 C   0  0  0  0  0  0  0  0  0  0  0  0
    4.5790   -5.8980   24.0060 C   0  0  0  0  0  0  0  0  0  0  0  0
    5.8170   -5.5430   23.2290 C   0  0  2  0  0  0  0  0  0  0  0  0
    5.8140   -4.5920   22.2990 C   0  0  2  0  0  0  0  0  0  0  0  0
    5.9830   -6.1800   21.9430 C   0  0  0  0  0  0  0  0  0  0  0  0
    6.9990   -3.7020   22.1570 C   0  0  1  0  0  0  0  0  0  0  0  0
    6.7640   -2.7180   21.0770 N   0  0  0  0  0  0  0  0  0  0  0  0
    7.1850   -3.1060   23.3910 C   0  0  0  0  0  0  0  0  0  0  0  0
    6.4150   -3.3270   19.8800 C   0  0  0  0  0  0  0  0  0  0  0  0
    8.3090   -2.2170   23.4090 N   0  0  0  0  0  0  0  0  0  0  0  0
    7.9360   -1.8090   21.0510 C   0  0  1  0  0  0  0  0  0  0  0  0
    7.3240   -3.0470   18.6910 C   0  0  0  0  0  0  0  0  0  0  0  0
    5.4530   -4.1030   19.7310 O   0  0  0  0  0  0  0  0  0  0  0  0
    9.3080   -2.5310   24.4400 C   0  0  2  0  0  0  0  0  0  0  0  0
    7.6420   -0.3790   20.9640 N   0  0  0  0  0  0  0  0  0  0  0  0
    9.0020   -2.1360   22.1130 C   0  0  0  0  0  0  0  0  0  0  0  0
   10.7160   -2.5110   23.9090 C   0  0  0  0  0  0  0  0  0  0  0  0
    7.2320    0.2350   22.2520 C   0  0  0  0  0  0  0  0  0  0  0  0
    6.6950    0.1740   19.9930 C   0  0  0  0  0  0  0  0  0  0  0  0
    9.1420   -3.7260   25.2490 C   0  0  0  0  0  0  0  0  0  0  0  0
    5.7270    0.3450   22.1400 C   0  0  2  0  0  0  0  0  0  0  0  0
    6.7690    0.3290   18.5190 N   0  0  0  0  0  0  0  0  0  0  0  0
    5.5690    0.6220   20.6620 C   0  0  0  0  0  0  0  0  0  0  0  0
    9.7930   -4.9380   25.3120 C   0  0  0  0  0  0  0  0  0  0  0  0
    7.8730   -3.7770   26.4930 S   0  0  0  0  0  0  0  0  0  0  0  0
   11.2180   -1.1070   23.7480 C   0  0  0  0  0  0  0  0  0  0  0  0
    5.0540    1.4300   22.9400 C   0  0  0  0  0  0  0  0  0  0  0  0
    4.4750    1.2360   20.0910 C   0  0  0  0  0  0  0  0  0  0  0  0
    5.6130    0.9850   17.9210 C   0  0  0  0  0  0  0  0  0  0  0  0
    9.3370   -5.8220   26.2660 C   0  0  0  0  0  0  0  0  0  0  0  0
    8.2800   -5.3380   27.0170 C   0  0  0  0  0  0  0  0  0  0  0  0
   10.5260   -0.0410   24.3430 C   0  0  0  0  0  0  0  0  0  0  0  0
   12.3750   -0.8400   23.0050 C   0  0  0  0  0  0  0  0  0  0  0  0
    3.5920    1.6430   22.5100 C   0  0  2  0  0  0  0  0  0  0  0  0
    3.3410    1.6690   20.9850 C   0  0  0  0  0  0  0  0  0  0  0  0
    7.4000   -6.0430   28.2990 Cl  0  0  0  0  0  0  0  0  0  0  0  0
   13.1330   -1.9350   22.3350 C   0  0  0  0  0  0  0  0  0  0  0  0
    4.5550    1.3940   18.7270 C   0  0  0  0  0  0  0  0  0  0  0  0
   11.0050    1.2460   24.1810 C   0  0  0  0  0  0  0  0  0  0  0  0
   12.8270    0.4580   22.8800 C   0  0  0  0  0  0  0  0  0  0  0  0
    3.0640    2.8290   23.1430 N   0  0  0  0  0  0  0  0  0  0  0  0
   12.1120    1.4860   23.4820 C   0  0  0  0  0  0  0  0  0  0  0  0
  1  2  1  0
  2  3  1  0
  3  4  1  0
  4  5  1  0
  6  5  1  6
  6  7  1  0
  6  8  1  0
  7  8  1  6
  7  9  1  0
  9 10  1  0
  9 11  1  1
 10 12  1  0
 11 13  1  0
 10 14  1  0
 12 15  1  0
 12 16  2  0
 13 17  1  0
 14 18  1  1
 13 19  1  0
 14 19  1  0
 17 20  1  6
 18 21  1  0
 18 22  1  0
 17 23  1  0
 24 21  1  1
 22 25  2  0
 22 26  1  0
 24 26  1  0
 23 27  2  0
 23 28  1  0
 20 29  1  0
 24 30  1  0
 26 31  2  0
 25 32  1  0
 27 33  1  0
 28 34  1  0
 33 34  2  0
 29 35  2  0
 29 36  1  0
 30 37  1  0
 31 38  1  0
 37 38  1  0
 34 39  1  0
 36 40  1  0
 31 41  1  0
 32 41  2  0
 35 42  1  0
 36 43  2  0
 37 44  1  6
 42 45  2  0
 43 45  1  0
M  END
