x1334_1-x1093_0
     RDKit          3D

 16 17  0  0  0  0  0  0  0  0999 V2000
    6.3220   -3.2710   19.9220 C   0  0  0  0  0  0  0  0  0  0  0  0
    7.3050   -2.9850   18.8110 C   0  0  0  0  0  0  0  0  0  0  0  0
    5.3750   -4.0420   19.6930 O   0  0  0  0  0  0  0  0  0  0  0  0
    6.5100   -2.7190   21.1800 N   0  0  0  0  0  0  0  0  0  0  0  0
    7.6060   -1.7080   21.4060 C   0  0  0  0  0  0  0  0  0  0  0  0
    6.0650   -3.3880   22.3970 C   0  0  0  0  0  0  0  0  0  0  0  0
    8.7440   -2.3510   22.2730 C   0  0  2  0  0  0  0  0  0  0  0  0
    7.2370   -4.0470   23.1270 C   0  0  0  0  0  0  0  0  0  0  0  0
    8.2590   -3.0630   23.4720 N   0  0  0  0  0  0  0  0  0  0  0  0
    9.7650   -1.3990   22.8490 C   0  0  2  0  0  0  0  0  0  0  0  0
    9.8000   -0.2680   22.1470 N   0  0  0  0  0  0  0  0  0  0  0  0
   11.0390   -1.9350   22.9310 C   0  0  0  0  0  0  0  0  0  0  0  0
   10.6080    0.7300   22.8480 C   0  0  0  0  0  0  0  0  0  0  0  0
   12.0090   -1.0890   23.6090 N   0  0  0  0  0  0  0  0  0  0  0  0
   13.3230   -1.6830   23.5830 C   0  0  0  0  0  0  0  0  0  0  0  0
   12.0310    0.1760   23.1310 C   0  0  0  0  0  0  0  0  0  0  0  0
  1  2  1  0
  1  3  2  0
  1  4  1  0
  4  5  1  0
  4  6  1  0
  7  5  1  1
  6  8  1  0
  7  9  1  0
  8  9  1  0
  7 10  1  0
 10 11  1  0
 10 12  1  6
 11 13  1  0
 12 14  1  0
 14 15  1  0
 13 16  1  0
 14 16  1  0
M  END
