x1334_1-x1412_1-x0426_1-x1334_0-x0397_0-x0831_0-x0692_1-x0831_1-x1385_1-x1374_1-x0770_1
     RDKit          3D

 44 49  0  0  0  0  0  0  0  0999 V2000
    2.1730   -7.8190   23.2340 O   0  0  0  0  0  0  0  0  0  0  0  0
    2.4190   -8.1080   24.5920 C   0  0  0  0  0  0  0  0  0  0  0  0
    3.8070   -8.0630   24.8180 O   0  0  0  0  0  0  0  0  0  0  0  0
    4.4340   -7.2720   23.8170 C   0  0  0  0  0  0  0  0  0  0  0  0
    4.6440   -6.0930   24.2910 C   0  0  0  0  0  0  0  0  0  0  0  0
    5.7340   -5.5560   23.4320 C   0  0  2  0  0  0  0  0  0  0  0  0
    5.3560   -4.5090   22.5190 C   0  0  2  0  0  0  0  0  0  0  0  0
    5.9930   -6.0120   22.2090 C   0  0  0  0  0  0  0  0  0  0  0  0
    6.3300   -3.3420   22.4440 C   0  0  2  0  0  0  0  0  0  0  0  0
    6.5490   -2.7030   21.1580 N   0  0  0  0  0  0  0  0  0  0  0  0
    7.6530   -3.9090   23.0100 C   0  0  0  0  0  0  0  0  0  0  0  0
    6.3490   -3.2850   19.9080 C   0  0  0  0  0  0  0  0  0  0  0  0
    8.4860   -2.7640   23.2200 N   0  0  0  0  0  0  0  0  0  0  0  0
    7.5550   -1.6180   21.3360 C   0  0  2  0  0  0  0  0  0  0  0  0
    7.2890   -2.9770   18.7610 C   0  0  0  0  0  0  0  0  0  0  0  0
    5.4250   -4.0930   19.7200 O   0  0  0  0  0  0  0  0  0  0  0  0
    9.3080   -2.7090   24.3850 C   0  0  2  0  0  0  0  0  0  0  0  0
    8.8870   -2.1750   21.9290 C   0  0  0  0  0  0  0  0  0  0  0  0
    7.0110   -0.6810   22.4220 C   0  0  0  0  0  0  0  0  0  0  0  0
   10.7510   -2.6740   23.9950 C   0  0  0  0  0  0  0  0  0  0  0  0
    9.0360   -3.8380   25.3760 C   0  0  0  0  0  0  0  0  0  0  0  0
    6.2010    0.5640   22.0330 C   0  0  2  0  0  0  0  0  0  0  0  0
    9.8150   -5.1450   25.4590 C   0  0  0  0  0  0  0  0  0  0  0  0
    7.7660   -3.7960   26.5760 S   0  0  0  0  0  0  0  0  0  0  0  0
   11.1890   -1.2230   23.8040 C   0  0  0  0  0  0  0  0  0  0  0  0
    4.9010    0.6350   22.7750 C   0  0  0  0  0  0  0  0  0  0  0  0
    5.9170    0.7560   20.5270 C   0  0  0  0  0  0  0  0  0  0  0  0
    9.3680   -5.9920   26.4410 C   0  0  0  0  0  0  0  0  0  0  0  0
    8.2590   -5.4110   27.1480 C   0  0  0  0  0  0  0  0  0  0  0  0
   10.3770   -0.1060   24.4670 C   0  0  0  0  0  0  0  0  0  0  0  0
   12.4130   -0.8370   22.9680 C   0  0  0  0  0  0  0  0  0  0  0  0
    4.2030    1.9560   22.4650 C   0  0  2  0  0  0  0  0  0  0  0  0
    4.7720    1.4510   20.1090 C   0  0  0  0  0  0  0  0  0  0  0  0
    6.8250    0.2420   19.4330 C   0  0  0  0  0  0  0  0  0  0  0  0
    7.3630   -6.0630   28.4440 Cl  0  0  0  0  0  0  0  0  0  0  0  0
   13.2210   -1.8740   22.2780 C   0  0  0  0  0  0  0  0  0  0  0  0
   10.8460    1.3500   24.2520 C   0  0  0  0  0  0  0  0  0  0  0  0
   12.7480    0.4980   22.8640 C   0  0  0  0  0  0  0  0  0  0  0  0
    3.1010    2.2140   23.3940 N   0  0  0  0  0  0  0  0  0  0  0  0
    3.7480    2.0220   21.0580 C   0  0  0  0  0  0  0  0  0  0  0  0
    4.5710    1.6380   18.6300 C   0  0  0  0  0  0  0  0  0  0  0  0
    6.5990    0.4290   18.1220 N   0  0  0  0  0  0  0  0  0  0  0  0
   12.0840    1.5030   23.4130 C   0  0  0  0  0  0  0  0  0  0  0  0
    5.5070    1.1130   17.7710 C   0  0  0  0  0  0  0  0  0  0  0  0
  1  2  1  0
  2  3  1  0
  3  4  1  0
  4  5  1  0
  6  5  1  6
  6  7  1  0
  6  8  1  0
  7  8  1  6
  7  9  1  0
  9 10  1  0
  9 11  1  6
 10 12  1  0
 11 13  1  0
 10 14  1  0
 12 15  1  0
 12 16  2  0
 13 17  1  0
 13 18  1  0
 14 18  1  0
 14 19  1  1
 17 20  1  6
 17 21  1  0
 22 19  1  6
 21 23  2  0
 21 24  1  0
 20 25  1  0
 22 26  1  0
 22 27  1  0
 23 28  1  0
 24 29  1  0
 28 29  2  0
 25 30  2  0
 25 31  1  0
 26 32  1  0
 27 33  2  0
 27 34  1  0
 29 35  1  0
 31 36  1  0
 30 37  1  0
 31 38  2  0
 32 39  1  1
 32 40  1  0
 33 40  1  0
 33 41  1  0
 34 42  2  0
 37 43  2  0
 38 43  1  0
 41 44  2  0
 42 44  1  0
M  END
