x1334_1-x0692_1-x0831_0-x0397_0-x1374_1-x1385_1
     RDKit          3D

 25 27  0  0  0  0  0  0  0  0999 V2000
    2.6520   -7.3870   23.2880 O   0  0  0  0  0  0  0  0  0  0  0  0
    2.8460   -7.6830   24.6630 C   0  0  0  0  0  0  0  0  0  0  0  0
    4.2230   -7.9360   24.8660 O   0  0  0  0  0  0  0  0  0  0  0  0
    5.0560   -7.3790   23.8590 C   0  0  0  0  0  0  0  0  0  0  0  0
    5.8960   -6.2310   24.4000 C   0  0  0  0  0  0  0  0  0  0  0  0
    6.4550   -5.3860   23.2670 C   0  0  2  0  0  0  0  0  0  0  0  0
    5.7290   -4.4640   22.4510 C   0  0  2  0  0  0  0  0  0  0  0  0
    6.3370   -5.9940   22.1560 C   0  0  0  0  0  0  0  0  0  0  0  0
    6.3950   -3.1140   22.4290 C   0  0  2  0  0  0  0  0  0  0  0  0
    6.5310   -2.5500   21.0630 N   0  0  0  0  0  0  0  0  0  0  0  0
    7.7910   -3.2320   23.1150 C   0  0  0  0  0  0  0  0  0  0  0  0
    6.3180   -3.2950   19.8990 C   0  0  0  0  0  0  0  0  0  0  0  0
    8.7360   -2.1350   22.9570 N   0  0  0  0  0  0  0  0  0  0  0  0
    7.4420   -1.3970   21.0350 C   0  0  0  0  0  0  0  0  0  0  0  0
    7.2840   -3.0020   18.7610 C   0  0  0  0  0  0  0  0  0  0  0  0
    5.4340   -4.1540   19.7750 O   0  0  0  0  0  0  0  0  0  0  0  0
   10.0390   -2.2690   23.5880 C   0  0  0  0  0  0  0  0  0  0  0  0
    8.8070   -1.6840   21.6740 C   0  0  0  0  0  0  0  0  0  0  0  0
   10.9050   -1.0330   23.4950 C   0  0  0  0  0  0  0  0  0  0  0  0
   10.2930    0.2070   24.1310 C   0  0  0  0  0  0  0  0  0  0  0  0
   12.1130   -0.9760   22.9020 C   0  0  0  0  0  0  0  0  0  0  0  0
   12.7470   -2.1750   22.2550 C   0  0  0  0  0  0  0  0  0  0  0  0
   10.9500    1.4340   24.1130 C   0  0  0  0  0  0  0  0  0  0  0  0
   12.7950    0.2430   22.8810 C   0  0  0  0  0  0  0  0  0  0  0  0
   12.1940    1.5030   23.5050 C   0  0  0  0  0  0  0  0  0  0  0  0
  1  2  1  0
  2  3  1  0
  3  4  1  0
  4  5  1  0
  6  5  1  1
  6  7  1  0
  6  8  1  0
  7  8  1  6
  7  9  1  0
  9 10  1  0
  9 11  1  6
 10 12  1  0
 11 13  1  0
 10 14  1  0
 12 15  1  0
 12 16  2  0
 13 17  1  0
 13 18  1  0
 14 18  1  0
 17 19  1  0
 19 20  2  0
 19 21  1  0
 21 22  1  0
 20 23  1  0
 21 24  2  0
 23 25  2  0
 24 25  1  0
M  END
