x1334_1-x1334_0-x0397_0-x1418_1-x0770_1-x0692_1-x0831_0-x0426_1-x1374_1
     RDKit          3D

 44 49  0  0  0  0  0  0  0  0999 V2000
    2.0020   -7.1990   23.6110 O   0  0  0  0  0  0  0  0  0  0  0  0
    2.3590   -7.5710   24.9320 C   0  0  0  0  0  0  0  0  0  0  0  0
    3.7350   -7.9150   24.9300 O   0  0  0  0  0  0  0  0  0  0  0  0
    4.3910   -7.2790   23.8530 C   0  0  0  0  0  0  0  0  0  0  0  0
    4.6980   -6.0190   24.2030 C   0  0  0  0  0  0  0  0  0  0  0  0
    5.6910   -5.5280   23.2100 C   0  0  2  0  0  0  0  0  0  0  0  0
    5.4260   -4.5500   22.2820 C   0  0  2  0  0  0  0  0  0  0  0  0
    5.8120   -6.0460   21.8190 C   0  0  0  0  0  0  0  0  0  0  0  0
    6.3030   -3.3740   22.3450 C   0  0  2  0  0  0  0  0  0  0  0  0
    6.4880   -2.6090   21.1160 N   0  0  0  0  0  0  0  0  0  0  0  0
    7.6450   -3.8860   22.8830 C   0  0  0  0  0  0  0  0  0  0  0  0
    6.3180   -3.3020   19.9130 C   0  0  0  0  0  0  0  0  0  0  0  0
    8.5010   -2.7510   23.1080 N   0  0  0  0  0  0  0  0  0  0  0  0
    7.4900   -1.5200   21.3120 C   0  0  2  0  0  0  0  0  0  0  0  0
    7.2750   -2.9910   18.7730 C   0  0  0  0  0  0  0  0  0  0  0  0
    5.4400   -4.1640   19.7600 O   0  0  0  0  0  0  0  0  0  0  0  0
    9.3160   -2.7160   24.1600 C   0  0  2  0  0  0  0  0  0  0  0  0
    8.7900   -2.0890   21.8600 C   0  0  0  0  0  0  0  0  0  0  0  0
    6.9910   -0.5650   22.4120 C   0  0  0  0  0  0  0  0  0  0  0  0
   10.6860   -2.5380   23.5930 C   0  0  0  0  0  0  0  0  0  0  0  0
    9.0450   -3.8250   25.1890 C   0  0  0  0  0  0  0  0  0  0  0  0
    6.2110    0.6860   21.9710 C   0  0  2  0  0  0  0  0  0  0  0  0
    9.8540   -5.1160   25.3480 C   0  0  0  0  0  0  0  0  0  0  0  0
    7.8160   -3.8490   26.3550 S   0  0  0  0  0  0  0  0  0  0  0  0
   11.1240   -1.0990   23.5390 C   0  0  0  0  0  0  0  0  0  0  0  0
    4.9020    0.7570   22.6720 C   0  0  0  0  0  0  0  0  0  0  0  0
    5.9300    0.7780   20.4780 C   0  0  0  0  0  0  0  0  0  0  0  0
    9.3940   -6.0520   26.4520 C   0  0  0  0  0  0  0  0  0  0  0  0
    8.1830   -5.3620   27.1030 C   0  0  0  0  0  0  0  0  0  0  0  0
   10.2530    0.1110   24.0640 C   0  0  0  0  0  0  0  0  0  0  0  0
   12.4930   -0.7650   22.9420 C   0  0  0  0  0  0  0  0  0  0  0  0
    4.1820    2.0610   22.3510 C   0  0  2  0  0  0  0  0  0  0  0  0
    4.7180    1.3470   20.0670 C   0  0  0  0  0  0  0  0  0  0  0  0
    6.8190    0.3330   19.5080 C   0  0  0  0  0  0  0  0  0  0  0  0
    7.2060   -5.9140   28.4330 Cl  0  0  0  0  0  0  0  0  0  0  0  0
   13.2870   -1.9000   22.4210 C   0  0  0  0  0  0  0  0  0  0  0  0
   10.8460    1.4920   23.9590 C   0  0  0  0  0  0  0  0  0  0  0  0
   12.9070    0.5580   22.9160 C   0  0  0  0  0  0  0  0  0  0  0  0
    3.3250    2.3510   23.3510 N   0  0  0  0  0  0  0  0  0  0  0  0
    3.6480    1.8560   21.0010 C   0  0  0  0  0  0  0  0  0  0  0  0
    4.4750    1.4590   18.6840 C   0  0  0  0  0  0  0  0  0  0  0  0
    6.5760    0.4350   18.1840 N   0  0  0  0  0  0  0  0  0  0  0  0
   12.1830    1.6190   23.3740 C   0  0  0  0  0  0  0  0  0  0  0  0
    5.4210    1.0000   17.8290 C   0  0  0  0  0  0  0  0  0  0  0  0
  1  2  1  0
  2  3  1  0
  3  4  1  0
  4  5  1  0
  6  5  1  1
  6  7  1  0
  6  8  1  0
  7  8  1  6
  7  9  1  0
  9 10  1  0
  9 11  1  6
 10 12  1  0
 11 13  1  0
 10 14  1  0
 12 15  1  0
 12 16  2  0
 13 17  1  0
 13 18  1  0
 14 18  1  0
 14 19  1  1
 17 20  1  6
 17 21  1  0
 22 19  1  6
 21 23  2  0
 21 24  1  0
 20 25  1  0
 22 26  1  0
 22 27  1  0
 23 28  1  0
 24 29  1  0
 28 29  2  0
 25 30  2  0
 25 31  1  0
 26 32  1  0
 27 33  2  0
 27 34  1  0
 29 35  1  0
 31 36  1  0
 30 37  1  0
 31 38  2  0
 32 39  1  1
 32 40  1  0
 33 40  1  0
 33 41  1  0
 34 42  2  0
 37 43  2  0
 38 43  1  0
 41 44  2  0
 42 44  1  0
M  END
