x1334_1-x1386_1-x1412_1-x1385_1-x0770_1-x0434_2-x0397_0-x0831_0-x0426_1-x1418_1-x1334_0-x0692_1-x1374_1-x0831_1
     RDKit          3D

 45 51  0  0  0  0  0  0  0  0999 V2000
    2.3080   -7.6330   23.3070 O   0  0  0  0  0  0  0  0  0  0  0  0
    2.6190   -7.8020   24.6770 C   0  0  0  0  0  0  0  0  0  0  0  0
    4.0220   -7.7930   24.8360 O   0  0  0  0  0  0  0  0  0  0  0  0
    4.6840   -7.1180   23.7710 C   0  0  0  0  0  0  0  0  0  0  0  0
    5.1790   -5.8990   24.1860 C   0  0  0  0  0  0  0  0  0  0  0  0
    6.2390   -5.5620   23.1700 C   0  0  2  0  0  0  0  0  0  0  0  0
    6.0750   -4.5330   22.3750 C   0  0  2  0  0  0  0  0  0  0  0  0
    6.1300   -6.1210   21.9970 C   0  0  0  0  0  0  0  0  0  0  0  0
    7.2230   -3.6500   22.0040 C   0  0  1  0  0  0  0  0  0  0  0  0
    6.7880   -2.6770   21.0000 N   0  0  0  0  0  0  0  0  0  0  0  0
    7.7950   -3.2490   23.2100 C   0  0  0  0  0  0  0  0  0  0  0  0
    6.4120   -3.3440   19.8330 C   0  0  0  0  0  0  0  0  0  0  0  0
    8.7590   -2.1160   23.0540 N   0  0  0  0  0  0  0  0  0  0  0  0
    7.8190   -1.6960   20.7630 C   0  0  1  0  0  0  0  0  0  0  0  0
    7.3530   -3.0630   18.6620 C   0  0  0  0  0  0  0  0  0  0  0  0
    5.4480   -4.1170   19.7290 O   0  0  0  0  0  0  0  0  0  0  0  0
   10.1330   -2.2360   23.4900 C   0  0  2  0  0  0  0  0  0  0  0  0
    7.5200   -0.3050   20.8240 N   0  0  0  0  0  0  0  0  0  0  0  0
    9.0190   -1.8660   21.6340 C   0  0  0  0  0  0  0  0  0  0  0  0
   10.5400   -3.1560   24.5800 C   0  0  0  0  0  0  0  0  0  0  0  0
    7.1940    0.3410   22.1240 C   0  0  0  0  0  0  0  0  0  0  0  0
    6.6780    0.2680   19.8500 C   0  0  0  0  0  0  0  0  0  0  0  0
   10.8450   -0.9000   23.4830 C   0  0  0  0  0  0  0  0  0  0  0  0
    5.7020    0.7070   22.0510 C   0  0  2  0  0  0  0  0  0  0  0  0
    6.5360    0.4580   18.3650 N   0  0  0  0  0  0  0  0  0  0  0  0
    5.5340    0.9090   20.5760 C   0  0  0  0  0  0  0  0  0  0  0  0
   10.1980    0.3770   23.9640 C   0  0  0  0  0  0  0  0  0  0  0  0
   12.2910   -0.8020   22.9580 C   0  0  0  0  0  0  0  0  0  0  0  0
    9.6680   -4.0310   25.4260 C   0  0  0  0  0  0  0  0  0  0  0  0
    5.1590    1.9240   22.7790 C   0  0  0  0  0  0  0  0  0  0  0  0
   13.0520   -1.9700   22.4370 C   0  0  0  0  0  0  0  0  0  0  0  0
    4.4080    1.6430   20.0210 C   0  0  0  0  0  0  0  0  0  0  0  0
    5.5000    1.1400   17.8860 C   0  0  0  0  0  0  0  0  0  0  0  0
   10.8830    1.5580   23.9350 C   0  0  0  0  0  0  0  0  0  0  0  0
   12.8800    0.4660   22.9810 C   0  0  0  0  0  0  0  0  0  0  0  0
   10.0370   -5.4690   25.7110 C   0  0  0  0  0  0  0  0  0  0  0  0
    8.0810   -3.6190   26.2920 S   0  0  0  0  0  0  0  0  0  0  0  0
    3.6800    2.0420   22.4420 C   0  0  2  0  0  0  0  0  0  0  0  0
    3.3590    2.2190   20.9360 C   0  0  0  0  0  0  0  0  0  0  0  0
    4.4890    1.7050   18.6620 C   0  0  0  0  0  0  0  0  0  0  0  0
   12.1910    1.5890   23.4520 C   0  0  0  0  0  0  0  0  0  0  0  0
    9.0470   -6.1090   26.6090 C   0  0  0  0  0  0  0  0  0  0  0  0
    7.9510   -5.2500   27.0190 C   0  0  0  0  0  0  0  0  0  0  0  0
    3.0930    3.0860   23.2380 N   0  0  0  0  0  0  0  0  0  0  0  0
    6.6690   -5.6770   28.0620 Cl  0  0  0  0  0  0  0  0  0  0  0  0
  1  2  1  0
  2  3  1  0
  3  4  1  0
  4  5  1  0
  6  5  1  1
  6  7  1  0
  6  8  1  0
  7  8  1  6
  7  9  1  0
  9 10  1  0
  9 11  1  1
 10 12  1  0
 11 13  1  0
 10 14  1  0
 12 15  1  0
 12 16  2  0
 13 17  1  0
 14 18  1  1
 13 19  1  0
 14 19  1  0
 17 20  1  1
 18 21  1  0
 18 22  1  0
 17 23  1  0
 24 21  1  6
 22 25  2  0
 22 26  1  0
 24 26  1  0
 23 27  2  0
 23 28  1  0
 20 29  1  0
 24 30  1  0
 28 31  1  0
 26 32  2  0
 25 33  1  0
 27 34  1  0
 28 35  2  0
 29 36  2  0
 29 37  1  0
 30 38  1  0
 32 39  1  0
 38 39  1  0
 32 40  1  0
 33 40  2  0
 34 41  2  0
 35 41  1  0
 36 42  1  0
 37 43  1  0
 42 43  2  0
 38 44  1  1
 43 45  1  0
M  END
