x1334_0-x1334_1-x1385_1-x1412_1-x1374_1-x0831_0-x0397_0-x0770_1-x0434_2-x0692_1-x0831_1-x0426_1-x1418_1
     RDKit          3D

 45 51  0  0  0  0  0  0  0  0999 V2000
    1.5920   -6.8220   24.2230 O   0  0  0  0  0  0  0  0  0  0  0  0
    2.4290   -7.7400   23.5610 C   0  0  0  0  0  0  0  0  0  0  0  0
    3.4940   -8.0200   24.4450 O   0  0  0  0  0  0  0  0  0  0  0  0
    4.5570   -7.1190   24.2530 C   0  0  0  0  0  0  0  0  0  0  0  0
    4.2400   -6.0050   23.5280 C   0  0  0  0  0  0  0  0  0  0  0  0
    5.4910   -5.5030   22.8600 C   0  0  2  0  0  0  0  0  0  0  0  0
    5.4650   -4.4210   22.0860 C   0  0  2  0  0  0  0  0  0  0  0  0
    5.9580   -5.9400   21.5510 C   0  0  0  0  0  0  0  0  0  0  0  0
    6.3800   -3.2560   22.1920 C   0  0  2  0  0  0  0  0  0  0  0  0
    6.6040   -2.6270   20.9800 N   0  0  0  0  0  0  0  0  0  0  0  0
    7.6550   -3.8120   22.8400 C   0  0  0  0  0  0  0  0  0  0  0  0
    6.3790   -3.3340   19.8350 C   0  0  0  0  0  0  0  0  0  0  0  0
    8.5860   -2.8880   22.9740 N   0  0  0  0  0  0  0  0  0  0  0  0
    7.8240   -1.7750   20.8150 C   0  0  1  0  0  0  0  0  0  0  0  0
    7.3050   -3.0740   18.6720 C   0  0  0  0  0  0  0  0  0  0  0  0
    5.4710   -4.1700   19.7300 O   0  0  0  0  0  0  0  0  0  0  0  0
    9.3190   -2.7260   24.1850 C   0  0  2  0  0  0  0  0  0  0  0  0
    7.4840   -0.4220   21.0560 N   0  0  0  0  0  0  0  0  0  0  0  0
    9.0630   -2.2330   21.7490 C   0  0  0  0  0  0  0  0  0  0  0  0
   10.7470   -2.5040   23.8140 C   0  0  0  0  0  0  0  0  0  0  0  0
    6.9350   -0.0630   22.3720 C   0  0  0  0  0  0  0  0  0  0  0  0
    6.6520    0.1940   20.0270 C   0  0  0  0  0  0  0  0  0  0  0  0
    9.0800   -3.8600   25.2100 C   0  0  0  0  0  0  0  0  0  0  0  0
    5.9350    1.0450   22.1090 C   0  0  1  0  0  0  0  0  0  0  0  0
    6.5560    0.1480   18.6650 N   0  0  0  0  0  0  0  0  0  0  0  0
    5.7600    1.0120   20.6080 C   0  0  0  0  0  0  0  0  0  0  0  0
    9.7980   -5.0240   25.3650 C   0  0  0  0  0  0  0  0  0  0  0  0
    7.7760   -3.8510   26.4290 S   0  0  0  0  0  0  0  0  0  0  0  0
   11.1440   -1.0650   23.6720 C   0  0  0  0  0  0  0  0  0  0  0  0
    4.5730    0.9460   22.7320 C   0  0  0  0  0  0  0  0  0  0  0  0
    4.6910    1.8520   20.0250 C   0  0  0  0  0  0  0  0  0  0  0  0
    5.5980    0.9140   18.0690 C   0  0  0  0  0  0  0  0  0  0  0  0
    9.4290   -5.8700   26.3220 C   0  0  0  0  0  0  0  0  0  0  0  0
    8.2580   -5.3340   27.0520 C   0  0  0  0  0  0  0  0  0  0  0  0
   10.3840    0.0030   24.0520 C   0  0  0  0  0  0  0  0  0  0  0  0
   12.3910   -0.8510   23.1050 C   0  0  0  0  0  0  0  0  0  0  0  0
    3.9170    2.3040   22.5160 C   0  0  1  0  0  0  0  0  0  0  0  0
    3.8190    2.6590   20.9570 C   0  0  0  0  0  0  0  0  0  0  0  0
    7.3920   -6.0020   28.3630 Cl  0  0  0  0  0  0  0  0  0  0  0  0
   13.2850   -1.9300   22.6250 C   0  0  0  0  0  0  0  0  0  0  0  0
    4.4880    1.9000   18.5330 C   0  0  0  0  0  0  0  0  0  0  0  0
   10.8540    1.4440   23.9090 C   0  0  0  0  0  0  0  0  0  0  0  0
   12.9310    0.5220   22.9280 C   0  0  0  0  0  0  0  0  0  0  0  0
    2.5270    2.3220   23.1270 N   0  0  0  0  0  0  0  0  0  0  0  0
   12.2340    1.6380   23.3000 C   0  0  0  0  0  0  0  0  0  0  0  0
  1  2  1  0
  2  3  1  0
  3  4  1  0
  4  5  1  0
  6  5  1  6
  6  7  1  0
  6  8  1  0
  7  8  1  6
  7  9  1  0
  9 10  1  0
  9 11  1  6
 10 12  1  0
 11 13  1  0
 10 14  1  0
 12 15  1  0
 12 16  2  0
 13 17  1  0
 14 18  1  1
 13 19  1  0
 14 19  1  0
 17 20  1  6
 18 21  1  0
 18 22  1  0
 17 23  1  0
 24 21  1  1
 22 25  2  0
 22 26  1  0
 24 26  1  0
 23 27  2  0
 23 28  1  0
 20 29  1  0
 24 30  1  0
 26 31  2  0
 25 32  1  0
 27 33  1  0
 28 34  1  0
 33 34  2  0
 29 35  2  0
 29 36  1  0
 30 37  1  0
 31 38  1  0
 37 38  1  0
 34 39  1  0
 36 40  1  0
 31 41  1  0
 32 41  2  0
 35 42  1  0
 36 43  2  0
 37 44  1  6
 42 45  2  0
 43 45  1  0
M  END
