x1334_1-x1418_1-x1334_0-x0770_1-x0426_1-x1375_1-x1386_1-x0831_1-x0692_1-x0397_0-x0831_0
     RDKit          3D

 43 48  0  0  0  0  0  0  0  0999 V2000
    2.2170   -6.6910   24.8860 O   0  0  0  0  0  0  0  0  0  0  0  0
    3.0090   -7.2400   23.8670 C   0  0  0  0  0  0  0  0  0  0  0  0
    4.3430   -7.3320   24.3270 O   0  0  0  0  0  0  0  0  0  0  0  0
    5.2060   -7.0140   23.2280 C   0  0  0  0  0  0  0  0  0  0  0  0
    5.9540   -5.7340   23.2710 C   0  0  2  0  0  0  0  0  0  0  0  0
    5.9810   -4.6750   22.2570 C   0  0  2  0  0  0  0  0  0  0  0  0
    7.1770   -5.6650   22.2120 C   0  0  0  0  0  0  0  0  0  0  0  0
    6.2770   -3.2080   22.4600 C   0  0  2  0  0  0  0  0  0  0  0  0
    6.6040   -2.6640   21.1460 N   0  0  0  0  0  0  0  0  0  0  0  0
    7.1580   -3.0270   23.5560 C   0  0  0  0  0  0  0  0  0  0  0  0
    6.3830   -3.2740   19.9140 C   0  0  0  0  0  0  0  0  0  0  0  0
    8.5130   -2.4660   23.3470 N   0  0  0  0  0  0  0  0  0  0  0  0
    7.6560   -1.6210   21.1680 C   0  0  2  0  0  0  0  0  0  0  0  0
    7.3240   -2.9780   18.7690 C   0  0  0  0  0  0  0  0  0  0  0  0
    5.4500   -4.0840   19.7400 O   0  0  0  0  0  0  0  0  0  0  0  0
    9.5370   -3.3710   23.8350 C   0  0  1  0  0  0  0  0  0  0  0  0
    8.8670   -2.1150   21.9670 C   0  0  0  0  0  0  0  0  0  0  0  0
    7.1340   -0.3240   21.7800 C   0  0  0  0  0  0  0  0  0  0  0  0
   10.8870   -2.7200   24.0550 C   0  0  0  0  0  0  0  0  0  0  0  0
    9.1480   -4.1940   25.0260 C   0  0  0  0  0  0  0  0  0  0  0  0
    5.6170   -0.1970   21.5970 C   0  0  1  0  0  0  0  0  0  0  0  0
    9.7620   -5.3980   25.3070 C   0  0  0  0  0  0  0  0  0  0  0  0
    7.9130   -3.8290   26.2320 S   0  0  0  0  0  0  0  0  0  0  0  0
   11.0890   -1.2230   23.9280 C   0  0  0  0  0  0  0  0  0  0  0  0
    5.0110    0.6580   22.6130 C   0  0  0  0  0  0  0  0  0  0  0  0
    5.4980    0.4210   20.2300 C   0  0  0  0  0  0  0  0  0  0  0  0
    9.2620   -6.1020   26.5210 C   0  0  0  0  0  0  0  0  0  0  0  0
    8.1620   -5.3460   27.2120 C   0  0  0  0  0  0  0  0  0  0  0  0
   10.2960   -0.1590   24.4840 C   0  0  0  0  0  0  0  0  0  0  0  0
   12.2700   -0.8500   23.1330 C   0  0  0  0  0  0  0  0  0  0  0  0
    4.1700    1.9070   22.1390 C   0  0  2  0  0  0  0  0  0  0  0  0
    4.6410    1.3340   19.8970 C   0  0  0  0  0  0  0  0  0  0  0  0
    6.4420   -0.0500   19.1700 C   0  0  0  0  0  0  0  0  0  0  0  0
    7.2560   -5.7190   28.6070 Cl  0  0  0  0  0  0  0  0  0  0  0  0
   13.1030   -1.9270   22.5200 C   0  0  0  0  0  0  0  0  0  0  0  0
   10.5170    1.1800   24.3600 C   0  0  0  0  0  0  0  0  0  0  0  0
   12.6680    0.6240   22.9150 C   0  0  0  0  0  0  0  0  0  0  0  0
    3.0540    2.2040   23.0890 N   0  0  0  0  0  0  0  0  0  0  0  0
    3.6590    1.8900   20.8460 C   0  0  0  0  0  0  0  0  0  0  0  0
    4.5570    1.8690   18.6870 C   0  0  0  0  0  0  0  0  0  0  0  0
    6.3890    0.4640   17.9380 N   0  0  0  0  0  0  0  0  0  0  0  0
   11.7220    1.6320   23.5720 C   0  0  0  0  0  0  0  0  0  0  0  0
    5.4460    1.4180   17.7210 C   0  0  0  0  0  0  0  0  0  0  0  0
  1  2  1  0
  2  3  1  0
  3  4  1  0
  5  4  1  6
  5  6  1  0
  5  7  1  0
  6  7  1  6
  6  8  1  0
  8  9  1  0
  8 10  1  1
  9 11  1  0
 10 12  1  0
  9 13  1  0
 11 14  1  0
 11 15  2  0
 12 16  1  0
 12 17  1  0
 13 17  1  0
 13 18  1  1
 16 19  1  1
 16 20  1  0
 21 18  1  1
 20 22  2  0
 20 23  1  0
 19 24  1  0
 21 25  1  0
 21 26  1  0
 22 27  1  0
 23 28  1  0
 27 28  2  0
 24 29  2  0
 24 30  1  0
 25 31  1  0
 26 32  2  0
 26 33  1  0
 28 34  1  0
 30 35  1  0
 29 36  1  0
 30 37  2  0
 31 38  1  1
 31 39  1  0
 32 39  1  0
 32 40  1  0
 33 41  2  0
 36 42  2  0
 37 42  1  0
 40 43  2  0
 41 43  1  0
M  END
