x1334_0-x1385_1-x0397_0
     RDKit          3D

 19 21  0  0  0  0  0  0  0  0999 V2000
    6.3650   -3.3020   19.9390 C   0  0  0  0  0  0  0  0  0  0  0  0
    7.3760   -3.0090   18.8400 C   0  0  0  0  0  0  0  0  0  0  0  0
    5.4380   -4.1180   19.7580 O   0  0  0  0  0  0  0  0  0  0  0  0
    6.5590   -2.6100   21.1530 N   0  0  0  0  0  0  0  0  0  0  0  0
    6.4080   -3.3760   22.4090 C   0  0  2  0  0  0  0  0  0  0  0  0
    7.6160   -1.5480   21.2540 C   0  0  0  0  0  0  0  0  0  0  0  0
    7.7530   -3.7550   23.0340 C   0  0  0  0  0  0  0  0  0  0  0  0
    8.9020   -1.9590   22.0520 C   0  0  0  0  0  0  0  0  0  0  0  0
    5.5190   -4.5780   22.2340 C   0  0  0  0  0  0  0  0  0  0  0  0
    8.5470   -2.5650   23.3370 N   0  0  0  0  0  0  0  0  0  0  0  0
    5.7160   -5.7050   22.8610 C   0  0  0  0  0  0  0  0  0  0  0  0
    6.0550   -6.0260   21.6530 C   0  0  0  0  0  0  0  0  0  0  0  0
    9.6990   -2.9910   24.1430 C   0  0  0  0  0  0  0  0  0  0  0  0
    9.2750   -3.9950   25.2010 C   0  0  0  0  0  0  0  0  0  0  0  0
    9.9090   -5.3880   25.3320 C   0  0  0  0  0  0  0  0  0  0  0  0
    8.0570   -3.7340   26.3760 S   0  0  0  0  0  0  0  0  0  0  0  0
    9.2840   -6.0000   26.3980 C   0  0  0  0  0  0  0  0  0  0  0  0
    8.3020   -5.2670   27.0380 C   0  0  0  0  0  0  0  0  0  0  0  0
    7.3620   -5.7680   28.3780 Cl  0  0  0  0  0  0  0  0  0  0  0  0
  1  2  1  0
  1  3  2  0
  1  4  1  0
  4  5  1  0
  4  6  1  0
  5  7  1  0
  6  8  1  0
  5  9  1  6
  7 10  1  0
  8 10  1  0
  9 11  1  0
  9 12  1  0
 11 12  1  0
 10 13  1  0
 13 14  1  0
 14 15  2  0
 14 16  1  0
 15 17  1  0
 16 18  1  0
 17 18  2  0
 18 19  1  0
M  END
