x1334_0-x0831_0-x1386_1-x1334_1
     RDKit          3D

 24 26  0  0  0  0  0  0  0  0999 V2000
    6.4610   -3.1130   19.7750 C   0  0  0  0  0  0  0  0  0  0  0  0
    7.4640   -2.9510   18.6480 C   0  0  0  0  0  0  0  0  0  0  0  0
    5.5270   -3.9280   19.6790 O   0  0  0  0  0  0  0  0  0  0  0  0
    6.6720   -2.3140   20.9180 N   0  0  0  0  0  0  0  0  0  0  0  0
    7.8260   -1.3860   21.0060 C   0  0  0  0  0  0  0  0  0  0  0  0
    6.2580   -2.8830   22.2070 C   0  0  0  0  0  0  0  0  0  0  0  0
    9.0130   -1.9000   21.8330 C   0  0  0  0  0  0  0  0  0  0  0  0
    7.4670   -3.4250   22.9700 C   0  0  0  0  0  0  0  0  0  0  0  0
    8.5670   -2.4520   23.1640 N   0  0  0  0  0  0  0  0  0  0  0  0
    9.6470   -3.2060   23.8130 C   0  0  1  0  0  0  0  0  0  0  0  0
   10.7540   -2.3760   24.4260 C   0  0  0  0  0  0  0  0  0  0  0  0
    9.1920   -4.0710   24.9790 C   0  0  0  0  0  0  0  0  0  0  0  0
    9.7900   -5.4050   25.2730 C   0  0  0  0  0  0  0  0  0  0  0  0
    7.9830   -3.7450   26.1670 S   0  0  0  0  0  0  0  0  0  0  0  0
   11.1430   -0.9910   24.0410 C   0  0  0  0  0  0  0  0  0  0  0  0
    9.2870   -6.0370   26.3550 C   0  0  0  0  0  0  0  0  0  0  0  0
    8.2600   -5.2900   27.0090 C   0  0  0  0  0  0  0  0  0  0  0  0
   10.4270    0.1390   24.5170 C   0  0  0  0  0  0  0  0  0  0  0  0
   12.2330   -0.8220   23.2190 C   0  0  0  0  0  0  0  0  0  0  0  0
    7.3620   -5.7150   28.3970 Cl  0  0  0  0  0  0  0  0  0  0  0  0
   13.0110   -1.9830   22.6750 C   0  0  0  0  0  0  0  0  0  0  0  0
   10.8660    1.3960   24.1360 C   0  0  0  0  0  0  0  0  0  0  0  0
   12.6590    0.4330   22.8600 C   0  0  0  0  0  0  0  0  0  0  0  0
   11.9830    1.5550   23.3130 C   0  0  0  0  0  0  0  0  0  0  0  0
  1  2  1  0
  1  3  2  0
  1  4  1  0
  4  5  1  0
  4  6  1  0
  5  7  1  0
  6  8  1  0
  7  9  1  0
  8  9  1  0
  9 10  1  0
 10 11  1  1
 10 12  1  0
 12 13  2  0
 12 14  1  0
 11 15  1  0
 13 16  1  0
 14 17  1  0
 16 17  2  0
 15 18  2  0
 15 19  1  0
 17 20  1  0
 19 21  1  0
 18 22  1  0
 19 23  2  0
 22 24  2  0
 23 24  1  0
M  END
