x1334_0-x0770_1-x0692_1-x1374_1-x0831_0-x0397_0-x1334_1-x1385_1
     RDKit          3D

 32 35  0  0  0  0  0  0  0  0999 V2000
    1.9360   -7.3310   23.8030 O   0  0  0  0  0  0  0  0  0  0  0  0
    2.4310   -8.0100   24.9400 C   0  0  0  0  0  0  0  0  0  0  0  0
    3.8420   -8.0230   24.9410 O   0  0  0  0  0  0  0  0  0  0  0  0
    4.3470   -7.2750   23.8450 C   0  0  0  0  0  0  0  0  0  0  0  0
    4.7650   -6.0600   24.2940 C   0  0  0  0  0  0  0  0  0  0  0  0
    5.7210   -5.4600   23.3130 C   0  0  2  0  0  0  0  0  0  0  0  0
    5.3860   -4.5760   22.4900 C   0  0  2  0  0  0  0  0  0  0  0  0
    5.9910   -5.9590   21.9630 C   0  0  0  0  0  0  0  0  0  0  0  0
    6.1850   -3.2580   22.4130 C   0  0  2  0  0  0  0  0  0  0  0  0
    6.2870   -2.6410   21.1030 N   0  0  0  0  0  0  0  0  0  0  0  0
    7.5070   -3.5730   22.9610 C   0  0  0  0  0  0  0  0  0  0  0  0
    6.1810   -3.3100   19.8980 C   0  0  0  0  0  0  0  0  0  0  0  0
    8.0840   -2.3340   23.3350 N   0  0  0  0  0  0  0  0  0  0  0  0
    7.1970   -1.4230   21.1310 C   0  0  0  0  0  0  0  0  0  0  0  0
    7.2000   -2.9970   18.8030 C   0  0  0  0  0  0  0  0  0  0  0  0
    5.3110   -4.1630   19.7340 O   0  0  0  0  0  0  0  0  0  0  0  0
    9.2250   -2.5650   24.1990 C   0  0  2  0  0  0  0  0  0  0  0  0
    8.3930   -1.5450   22.1200 C   0  0  0  0  0  0  0  0  0  0  0  0
   10.4200   -2.4650   23.2740 C   0  0  0  0  0  0  0  0  0  0  0  0
    9.0270   -3.7410   25.1570 C   0  0  0  0  0  0  0  0  0  0  0  0
    9.7060   -4.9460   25.1980 C   0  0  0  0  0  0  0  0  0  0  0  0
    7.8610   -3.7660   26.4450 S   0  0  0  0  0  0  0  0  0  0  0  0
   11.0790   -1.1100   23.3040 C   0  0  0  0  0  0  0  0  0  0  0  0
    9.3140   -5.8060   26.1890 C   0  0  0  0  0  0  0  0  0  0  0  0
    8.2970   -5.3190   26.9860 C   0  0  0  0  0  0  0  0  0  0  0  0
   10.4600   -0.0660   23.9790 C   0  0  0  0  0  0  0  0  0  0  0  0
   12.2980   -0.8500   22.6950 C   0  0  0  0  0  0  0  0  0  0  0  0
    7.4920   -6.0070   28.3260 Cl  0  0  0  0  0  0  0  0  0  0  0  0
   13.0100   -1.9260   21.9450 C   0  0  0  0  0  0  0  0  0  0  0  0
   10.9740    1.2210   24.0840 C   0  0  0  0  0  0  0  0  0  0  0  0
   12.8400    0.4290   22.7960 C   0  0  0  0  0  0  0  0  0  0  0  0
   12.1990    1.4700   23.4740 C   0  0  0  0  0  0  0  0  0  0  0  0
  1  2  1  0
  2  3  1  0
  3  4  1  0
  4  5  1  0
  6  5  1  6
  6  7  1  0
  6  8  1  0
  7  8  1  6
  7  9  1  0
  9 10  1  0
  9 11  1  6
 10 12  1  0
 11 13  1  0
 10 14  1  0
 12 15  1  0
 12 16  2  0
 13 17  1  0
 13 18  1  0
 14 18  1  0
 17 19  1  6
 17 20  1  0
 20 21  2  0
 20 22  1  0
 19 23  1  0
 21 24  1  0
 22 25  1  0
 24 25  2  0
 23 26  2  0
 23 27  1  0
 25 28  1  0
 27 29  1  0
 26 30  1  0
 27 31  2  0
 30 32  2  0
 31 32  1  0
M  END
