x1334_0-x1093_0-x0397_0
     RDKit          3D

 22 24  0  0  0  0  0  0  0  0999 V2000
    5.8310   -3.1420   20.5480 C   0  0  0  0  0  0  0  0  0  0  0  0
    6.4670   -3.5090   21.6180 N   0  0  0  0  0  0  0  0  0  0  0  0
    7.8070   -3.0880   22.0780 C   0  0  0  0  0  0  0  0  0  0  0  0
    5.3520   -3.9430   19.7390 O   0  0  0  0  0  0  0  0  0  0  0  0
    5.8530   -4.4860   22.3820 C   0  0  0  0  0  0  0  0  0  0  0  0
    7.7200   -2.2950   23.3690 C   0  0  0  0  0  0  0  0  0  0  0  0
    6.6570   -5.5760   22.9500 C   0  0  0  0  0  0  0  0  0  0  0  0
    5.7230   -6.0550   21.9350 C   0  0  0  0  0  0  0  0  0  0  0  0
    8.9500   -2.3590   24.2990 C   0  0  1  0  0  0  0  0  0  0  0  0
    8.9900   -3.6250   25.1710 C   0  0  0  0  0  0  0  0  0  0  0  0
   10.2340   -1.5630   23.8550 C   0  0  2  0  0  0  0  0  0  0  0  0
    9.8220   -4.7900   25.1450 C   0  0  0  0  0  0  0  0  0  0  0  0
    7.8430   -3.7570   26.4610 S   0  0  0  0  0  0  0  0  0  0  0  0
    9.8230   -0.2890   23.2100 N   0  0  0  0  0  0  0  0  0  0  0  0
   11.1560   -2.1400   23.0030 C   0  0  0  0  0  0  0  0  0  0  0  0
    9.5120   -5.7040   26.1170 C   0  0  0  0  0  0  0  0  0  0  0  0
    8.3810   -5.2580   26.9770 C   0  0  0  0  0  0  0  0  0  0  0  0
   10.9510    0.6620   23.1810 C   0  0  0  0  0  0  0  0  0  0  0  0
   12.4300   -1.4080   23.0050 N   0  0  0  0  0  0  0  0  0  0  0  0
    7.6100   -6.0010   28.3060 Cl  0  0  0  0  0  0  0  0  0  0  0  0
   13.3660   -2.1290   23.8480 C   0  0  0  0  0  0  0  0  0  0  0  0
   12.3370    0.0080   23.4670 C   0  0  0  0  0  0  0  0  0  0  0  0
  1  2  1  0
  2  3  1  0
  1  4  2  0
  2  5  1  0
  3  6  1  0
  5  7  1  0
  5  8  1  0
  7  8  1  0
  9  6  1  6
  9 10  1  0
  9 11  1  0
 10 12  2  0
 10 13  1  0
 11 14  1  0
 11 15  1  6
 12 16  1  0
 13 17  1  0
 16 17  2  0
 14 18  1  0
 15 19  1  0
 17 20  1  0
 19 21  1  0
 18 22  1  0
 19 22  1  0
M  END
