x1334_0-x0426_1-x1334_1-x0831_0
     RDKit          3D

 36 40  0  0  0  0  0  0  0  0999 V2000
    6.1310   -3.4160   19.9230 C   0  0  0  0  0  0  0  0  0  0  0  0
    7.1660   -3.0230   18.8700 C   0  0  0  0  0  0  0  0  0  0  0  0
    5.2510   -4.2410   19.7250 O   0  0  0  0  0  0  0  0  0  0  0  0
    6.2140   -2.8200   21.1660 N   0  0  0  0  0  0  0  0  0  0  0  0
    7.0900   -1.6750   21.4750 C   0  0  2  0  0  0  0  0  0  0  0  0
    5.9870   -3.7080   22.3070 C   0  0  0  0  0  0  0  0  0  0  0  0
    8.4000   -2.1080   22.1280 C   0  0  0  0  0  0  0  0  0  0  0  0
    7.3510   -4.0410   23.0200 C   0  0  0  0  0  0  0  0  0  0  0  0
    6.3010   -0.7080   22.3650 C   0  0  0  0  0  0  0  0  0  0  0  0
    8.0470   -2.7960   23.3590 N   0  0  0  0  0  0  0  0  0  0  0  0
    6.3030    0.7400   21.8830 C   0  0  2  0  0  0  0  0  0  0  0  0
    9.2390   -2.9370   24.1350 C   0  0  2  0  0  0  0  0  0  0  0  0
    5.5890    1.6320   22.7510 C   0  0  0  0  0  0  0  0  0  0  0  0
    5.9590    0.8850   20.4300 C   0  0  0  0  0  0  0  0  0  0  0  0
   10.5730   -2.6330   23.4300 C   0  0  0  0  0  0  0  0  0  0  0  0
    9.0940   -4.0520   25.1630 C   0  0  0  0  0  0  0  0  0  0  0  0
    4.0790    1.6100   22.4770 C   0  0  1  0  0  0  0  0  0  0  0  0
    4.7840    1.5180   20.0450 C   0  0  0  0  0  0  0  0  0  0  0  0
    6.7890    0.4010   19.4210 C   0  0  0  0  0  0  0  0  0  0  0  0
    9.7860   -5.2310   25.3170 C   0  0  0  0  0  0  0  0  0  0  0  0
    7.9040   -3.9420   26.3910 S   0  0  0  0  0  0  0  0  0  0  0  0
   11.0780   -1.2010   23.4690 C   0  0  0  0  0  0  0  0  0  0  0  0
    3.3550    2.4330   23.4470 N   0  0  0  0  0  0  0  0  0  0  0  0
    3.8040    2.0600   21.0370 C   0  0  0  0  0  0  0  0  0  0  0  0
    4.5050    1.6570   18.7040 C   0  0  0  0  0  0  0  0  0  0  0  0
    6.5290    0.5240   18.1110 N   0  0  0  0  0  0  0  0  0  0  0  0
    9.3690   -6.0410   26.4000 C   0  0  0  0  0  0  0  0  0  0  0  0
    8.3380   -5.4250   27.0550 C   0  0  0  0  0  0  0  0  0  0  0  0
   10.3490   -0.1990   24.1970 C   0  0  0  0  0  0  0  0  0  0  0  0
   12.2600   -0.8620   22.8070 C   0  0  0  0  0  0  0  0  0  0  0  0
    5.3950    1.1560   17.8030 C   0  0  0  0  0  0  0  0  0  0  0  0
    7.4670   -5.9690   28.4200 Cl  0  0  0  0  0  0  0  0  0  0  0  0
   13.0360   -1.8740   22.0300 C   0  0  0  0  0  0  0  0  0  0  0  0
   10.8680    1.0790   24.2020 C   0  0  0  0  0  0  0  0  0  0  0  0
   12.7380    0.4360   22.8580 C   0  0  0  0  0  0  0  0  0  0  0  0
   12.0440    1.4040   23.5480 C   0  0  0  0  0  0  0  0  0  0  0  0
  1  2  1  0
  1  3  2  0
  1  4  1  0
  4  5  1  0
  4  6  1  0
  5  7  1  0
  6  8  1  0
  5  9  1  1
  7 10  1  0
  8 10  1  0
 11  9  1  1
 10 12  1  0
 11 13  1  0
 11 14  1  0
 12 15  1  6
 12 16  1  0
 13 17  1  0
 14 18  2  0
 14 19  1  0
 16 20  2  0
 16 21  1  0
 15 22  1  0
 17 23  1  1
 17 24  1  0
 18 24  1  0
 18 25  1  0
 19 26  2  0
 20 27  1  0
 21 28  1  0
 27 28  2  0
 22 29  2  0
 22 30  1  0
 25 31  2  0
 26 31  1  0
 28 32  1  0
 30 33  1  0
 29 34  1  0
 30 35  2  0
 34 36  2  0
 35 36  1  0
M  END
