x1334_1-x0770_1-x1334_0-x1385_1-x1418_1-x0692_1-x1412_1-x0831_0-x0397_0
     RDKit          3D

 27 30  0  0  0  0  0  0  0  0999 V2000
    6.3140   -3.3630   19.9190 C   0  0  0  0  0  0  0  0  0  0  0  0
    7.2560   -3.0320   18.7900 C   0  0  0  0  0  0  0  0  0  0  0  0
    5.3700   -4.1390   19.7310 O   0  0  0  0  0  0  0  0  0  0  0  0
    6.5800   -2.7890   21.1440 N   0  0  0  0  0  0  0  0  0  0  0  0
    7.3090   -1.5270   21.1460 C   0  0  0  0  0  0  0  0  0  0  0  0
    5.9030   -3.1100   22.3900 C   0  0  2  0  0  0  0  0  0  0  0  0
    8.3840   -1.4980   22.2160 C   0  0  0  0  0  0  0  0  0  0  0  0
    6.7440   -2.7900   23.6370 C   0  0  0  0  0  0  0  0  0  0  0  0
    5.4410   -4.5540   22.4330 C   0  0  0  0  0  0  0  0  0  0  0  0
    8.1130   -2.3630   23.3800 N   0  0  0  0  0  0  0  0  0  0  0  0
    6.1910   -5.5800   23.1300 C   0  0  0  0  0  0  0  0  0  0  0  0
    6.2730   -5.7900   21.7000 C   0  0  0  0  0  0  0  0  0  0  0  0
    9.1610   -3.3310   23.5650 C   0  0  1  0  0  0  0  0  0  0  0  0
   10.5750   -2.8740   23.2550 C   0  0  0  0  0  0  0  0  0  0  0  0
    9.0550   -4.2240   24.8160 C   0  0  0  0  0  0  0  0  0  0  0  0
    9.7260   -5.3230   25.1610 C   0  0  0  0  0  0  0  0  0  0  0  0
    7.8880   -3.8880   26.0850 S   0  0  0  0  0  0  0  0  0  0  0  0
   10.8840   -1.3880   23.4530 C   0  0  0  0  0  0  0  0  0  0  0  0
    9.3930   -6.0090   26.4180 C   0  0  0  0  0  0  0  0  0  0  0  0
    8.2720   -5.2330   27.0770 C   0  0  0  0  0  0  0  0  0  0  0  0
   10.1360   -0.4480   24.2050 C   0  0  0  0  0  0  0  0  0  0  0  0
   12.1750   -0.8520   22.7650 C   0  0  0  0  0  0  0  0  0  0  0  0
    7.4470   -5.5410   28.5380 Cl  0  0  0  0  0  0  0  0  0  0  0  0
   13.0450   -1.7330   21.9420 C   0  0  0  0  0  0  0  0  0  0  0  0
   10.5250    0.8860   24.3290 C   0  0  0  0  0  0  0  0  0  0  0  0
   12.5570    0.5820   22.9350 C   0  0  0  0  0  0  0  0  0  0  0  0
   11.7570    1.4110   23.6840 C   0  0  0  0  0  0  0  0  0  0  0  0
  1  2  1  0
  1  3  2  0
  1  4  1  0
  4  5  1  0
  4  6  1  0
  5  7  1  0
  6  8  1  0
  6  9  1  6
  7 10  1  0
  8 10  1  0
  9 11  1  0
  9 12  1  0
 11 12  1  0
 10 13  1  0
 13 14  1  1
 13 15  1  0
 15 16  2  0
 15 17  1  0
 14 18  1  0
 16 19  1  0
 17 20  1  0
 19 20  2  0
 18 21  2  0
 18 22  1  0
 20 23  1  0
 22 24  1  0
 21 25  1  0
 22 26  2  0
 25 27  2  0
 26 27  1  0
M  END
