x1334_1-x0397_0-x0770_1-x1412_1-x1386_1-x0692_1-x1385_1-x1374_1-x1334_0-x0831_1-x0831_0-x0434_2
     RDKit          3D

 39 43  0  0  0  0  0  0  0  0999 V2000
    2.0210   -6.5840   24.0130 O   0  0  0  0  0  0  0  0  0  0  0  0
    2.9220   -7.5680   23.5660 C   0  0  0  0  0  0  0  0  0  0  0  0
    3.8740   -7.9380   24.5570 O   0  0  0  0  0  0  0  0  0  0  0  0
    5.1510   -7.3520   24.3040 C   0  0  0  0  0  0  0  0  0  0  0  0
    4.9820   -6.0060   24.1060 C   0  0  0  0  0  0  0  0  0  0  0  0
    5.9720   -5.6920   23.0380 C   0  0  2  0  0  0  0  0  0  0  0  0
    5.8180   -4.5260   22.2500 C   0  0  2  0  0  0  0  0  0  0  0  0
    5.8530   -6.1330   21.8250 C   0  0  0  0  0  0  0  0  0  0  0  0
    6.9450   -3.5180   22.1570 C   0  0  1  0  0  0  0  0  0  0  0  0
    6.6840   -2.6060   21.0640 N   0  0  0  0  0  0  0  0  0  0  0  0
    7.2350   -2.8500   23.3340 C   0  0  0  0  0  0  0  0  0  0  0  0
    6.4080   -3.2280   19.8380 C   0  0  0  0  0  0  0  0  0  0  0  0
    8.5760   -2.2320   23.3590 N   0  0  0  0  0  0  0  0  0  0  0  0
    7.7570   -1.5870   21.0260 C   0  0  1  0  0  0  0  0  0  0  0  0
    7.3310   -2.9890   18.6760 C   0  0  0  0  0  0  0  0  0  0  0  0
    5.4530   -4.0190   19.6870 O   0  0  0  0  0  0  0  0  0  0  0  0
    9.4590   -3.2060   23.7200 C   0  0  1  0  0  0  0  0  0  0  0  0
    7.0530   -0.3180   21.1990 N   0  0  0  0  0  0  0  0  0  0  0  0
    8.9280   -1.7110   22.0250 C   0  0  0  0  0  0  0  0  0  0  0  0
   10.8770   -2.7130   23.8460 C   0  0  0  0  0  0  0  0  0  0  0  0
    9.1470   -4.0100   24.9480 C   0  0  0  0  0  0  0  0  0  0  0  0
    6.4220    0.2480   20.1170 C   0  0  0  0  0  0  0  0  0  0  0  0
    9.8300   -5.1980   25.3340 C   0  0  0  0  0  0  0  0  0  0  0  0
    7.8830   -3.6560   26.1650 S   0  0  0  0  0  0  0  0  0  0  0  0
   11.1950   -1.2270   23.7230 C   0  0  0  0  0  0  0  0  0  0  0  0
    6.9240    0.1240   18.8150 C   0  0  0  0  0  0  0  0  0  0  0  0
    5.2450    0.9700   20.3100 C   0  0  0  0  0  0  0  0  0  0  0  0
    9.4340   -5.8050   26.4760 C   0  0  0  0  0  0  0  0  0  0  0  0
    8.2800   -5.0610   27.1390 C   0  0  0  0  0  0  0  0  0  0  0  0
   10.3190   -0.2480   24.4590 C   0  0  0  0  0  0  0  0  0  0  0  0
   12.2770   -0.7840   22.9600 C   0  0  0  0  0  0  0  0  0  0  0  0
    6.3600    0.6650   17.7210 N   0  0  0  0  0  0  0  0  0  0  0  0
    4.6590    1.5260   19.1780 C   0  0  0  0  0  0  0  0  0  0  0  0
    7.4190   -5.4060   28.5710 Cl  0  0  0  0  0  0  0  0  0  0  0  0
   13.1210   -1.7660   22.2240 C   0  0  0  0  0  0  0  0  0  0  0  0
   10.5820    1.0660   24.3810 C   0  0  0  0  0  0  0  0  0  0  0  0
   12.5260    0.5180   22.9100 C   0  0  0  0  0  0  0  0  0  0  0  0
    5.2370    1.3540   17.9400 C   0  0  0  0  0  0  0  0  0  0  0  0
   11.6540    1.5380   23.6450 C   0  0  0  0  0  0  0  0  0  0  0  0
  1  2  1  0
  2  3  1  0
  3  4  1  0
  4  5  1  0
  6  5  1  1
  6  7  1  0
  6  8  1  0
  7  8  1  6
  7  9  1  0
  9 10  1  0
  9 11  1  1
 10 12  1  0
 11 13  1  0
 10 14  1  0
 12 15  1  0
 12 16  2  0
 13 17  1  0
 14 18  1  1
 13 19  1  0
 14 19  1  0
 17 20  1  1
 17 21  1  0
 18 22  1  0
 21 23  2  0
 21 24  1  0
 20 25  1  0
 22 26  2  0
 22 27  1  0
 23 28  1  0
 24 29  1  0
 28 29  2  0
 25 30  2  0
 25 31  1  0
 26 32  1  0
 27 33  2  0
 29 34  1  0
 31 35  1  0
 30 36  1  0
 31 37  2  0
 32 38  2  0
 33 38  1  0
 36 39  2  0
 37 39  1  0
M  END
