x1334_0-x1412_1-x1385_1-x0692_1-x0397_0-x0434_2-x0831_0-x0770_1-x1334_1
     RDKit          3D

 34 38  0  0  0  0  0  0  0  0999 V2000
    6.4420   -3.3360   19.9790 C   0  0  0  0  0  0  0  0  0  0  0  0
    7.3880   -2.9810   18.8560 C   0  0  0  0  0  0  0  0  0  0  0  0
    5.4360   -4.0270   19.7190 O   0  0  0  0  0  0  0  0  0  0  0  0
    6.7620   -2.9560   21.3150 N   0  0  0  0  0  0  0  0  0  0  0  0
    7.3210   -1.6360   21.6600 C   0  0  2  0  0  0  0  0  0  0  0  0
    6.9400   -3.9290   22.2490 C   0  0  1  0  0  0  0  0  0  0  0  0
    7.6410   -0.7990   20.5420 N   0  0  0  0  0  0  0  0  0  0  0  0
    8.6080   -1.8180   22.4340 C   0  0  0  0  0  0  0  0  0  0  0  0
    7.1700   -3.3050   23.6280 C   0  0  0  0  0  0  0  0  0  0  0  0
    5.7340   -4.7820   22.2850 C   0  0  0  0  0  0  0  0  0  0  0  0
    8.3670   -2.4680   23.7260 N   0  0  0  0  0  0  0  0  0  0  0  0
    5.6410   -5.9250   23.1560 C   0  0  0  0  0  0  0  0  0  0  0  0
    5.9250   -6.3380   21.7990 C   0  0  0  0  0  0  0  0  0  0  0  0
    6.7330   -0.0670   19.8480 C   0  0  0  0  0  0  0  0  0  0  0  0
    9.5290   -3.2560   23.9970 C   0  0  1  0  0  0  0  0  0  0  0  0
    7.0080    0.2680   18.4180 C   0  0  0  0  0  0  0  0  0  0  0  0
    5.4080    0.5230   20.2490 C   0  0  0  0  0  0  0  0  0  0  0  0
   10.9220   -2.7220   24.2870 C   0  0  0  0  0  0  0  0  0  0  0  0
    9.2400   -4.2380   25.1100 C   0  0  0  0  0  0  0  0  0  0  0  0
    6.2540    0.9670   17.5910 N   0  0  0  0  0  0  0  0  0  0  0  0
    4.6470    1.2660   19.3030 C   0  0  0  0  0  0  0  0  0  0  0  0
    9.7880   -5.4120   25.3440 C   0  0  0  0  0  0  0  0  0  0  0  0
    8.0290   -3.9120   26.3350 S   0  0  0  0  0  0  0  0  0  0  0  0
   11.1490   -1.2480   24.0470 C   0  0  0  0  0  0  0  0  0  0  0  0
    5.1010    1.4470   18.0520 C   0  0  0  0  0  0  0  0  0  0  0  0
    9.3260   -6.1820   26.4990 C   0  0  0  0  0  0  0  0  0  0  0  0
    8.2410   -5.3790   27.1910 C   0  0  0  0  0  0  0  0  0  0  0  0
   10.3810   -0.1960   24.5980 C   0  0  0  0  0  0  0  0  0  0  0  0
   12.3290   -0.8400   23.1280 C   0  0  0  0  0  0  0  0  0  0  0  0
    7.3130   -5.7540   28.5760 Cl  0  0  0  0  0  0  0  0  0  0  0  0
   13.1990   -1.8450   22.4620 C   0  0  0  0  0  0  0  0  0  0  0  0
   10.6650    1.1390   24.3420 C   0  0  0  0  0  0  0  0  0  0  0  0
   12.6030    0.6020   22.9020 C   0  0  0  0  0  0  0  0  0  0  0  0
   11.8000    1.5570   23.4860 C   0  0  0  0  0  0  0  0  0  0  0  0
  1  2  1  0
  1  3  2  0
  1  4  1  0
  4  5  1  0
  4  6  1  0
  5  7  1  6
  5  8  1  0
  6  9  1  0
  6 10  1  1
  8 11  1  0
  9 11  1  0
 10 12  1  0
 10 13  1  0
 12 13  1  0
  7 14  1  0
 11 15  1  0
 14 16  2  0
 14 17  1  0
 15 18  1  1
 15 19  1  0
 16 20  1  0
 17 21  2  0
 19 22  2  0
 19 23  1  0
 18 24  1  0
 20 25  2  0
 21 25  1  0
 22 26  1  0
 23 27  1  0
 26 27  2  0
 24 28  2  0
 24 29  1  0
 27 30  1  0
 29 31  1  0
 28 32  1  0
 29 33  2  0
 32 34  2  0
 33 34  1  0
M  END
