x1334_0-x0426_1-x1418_1-x1386_1-x1374_1-x0770_1-x1375_1-x1412_1-x0397_0-x0831_1-x0831_0-x0692_1-x1385_1-x1334_1-x0434_2
     RDKit          3D

 43 48  0  0  0  0  0  0  0  0999 V2000
    1.9960   -7.2080   23.5830 O   0  0  0  0  0  0  0  0  0  0  0  0
    2.4090   -7.5830   24.8870 C   0  0  0  0  0  0  0  0  0  0  0  0
    3.7910   -7.8910   24.8390 O   0  0  0  0  0  0  0  0  0  0  0  0
    4.4300   -7.1430   23.8180 C   0  0  0  0  0  0  0  0  0  0  0  0
    4.9870   -5.8700   24.3140 C   0  0  0  0  0  0  0  0  0  0  0  0
    6.0390   -5.5480   23.3110 C   0  0  2  0  0  0  0  0  0  0  0  0
    5.8130   -4.5540   22.2980 C   0  0  2  0  0  0  0  0  0  0  0  0
    6.0420   -6.1310   21.8830 C   0  0  0  0  0  0  0  0  0  0  0  0
    6.9220   -3.4790   22.2350 C   0  0  2  0  0  0  0  0  0  0  0  0
    7.0780   -2.7240   23.5240 C   0  0  0  0  0  0  0  0  0  0  0  0
    6.7700   -2.7690   21.1480 N   0  0  0  0  0  0  0  0  0  0  0  0
    6.4280   -3.2960   19.8840 C   0  0  0  0  0  0  0  0  0  0  0  0
    8.3960   -2.1080   23.4620 N   0  0  0  0  0  0  0  0  0  0  0  0
    7.2550   -1.3820   21.2890 C   0  0  1  0  0  0  0  0  0  0  0  0
    7.3730   -3.0050   18.7660 C   0  0  0  0  0  0  0  0  0  0  0  0
    5.4370   -4.0200   19.6900 O   0  0  0  0  0  0  0  0  0  0  0  0
    6.0500   -0.4740   21.4100 C   0  0  1  0  0  0  0  0  0  0  0  0
    9.3770   -3.1780   23.8140 C   0  0  1  0  0  0  0  0  0  0  0  0
    8.4470   -1.3790   22.1710 C   0  0  0  0  0  0  0  0  0  0  0  0
    5.9180    0.5500   22.5330 C   0  0  0  0  0  0  0  0  0  0  0  0
   10.7950   -2.7050   23.9600 C   0  0  0  0  0  0  0  0  0  0  0  0
    5.7710    0.2290   20.1160 C   0  0  0  0  0  0  0  0  0  0  0  0
    9.0660   -4.1000   25.0300 C   0  0  0  0  0  0  0  0  0  0  0  0
    4.4530    1.0990   22.6100 C   0  0  1  0  0  0  0  0  0  0  0  0
    4.6780    1.0870   20.0260 C   0  0  0  0  0  0  0  0  0  0  0  0
    6.6490    0.0500   18.8520 C   0  0  0  0  0  0  0  0  0  0  0  0
    9.7460   -5.3220   25.2580 C   0  0  0  0  0  0  0  0  0  0  0  0
    7.9100   -3.7780   26.2110 S   0  0  0  0  0  0  0  0  0  0  0  0
   11.1340   -1.2330   23.8010 C   0  0  0  0  0  0  0  0  0  0  0  0
    4.3880    2.4300   23.3590 N   0  0  0  0  0  0  0  0  0  0  0  0
    3.7490    1.3370   21.1850 C   0  0  0  0  0  0  0  0  0  0  0  0
    4.4530    1.7010   18.8790 C   0  0  0  0  0  0  0  0  0  0  0  0
    6.4070    0.6760   17.7010 N   0  0  0  0  0  0  0  0  0  0  0  0
    9.2680   -5.9050   26.3800 C   0  0  0  0  0  0  0  0  0  0  0  0
    8.3050   -5.2420   27.0050 C   0  0  0  0  0  0  0  0  0  0  0  0
   10.3100   -0.0920   24.4520 C   0  0  0  0  0  0  0  0  0  0  0  0
   12.2890   -0.7960   23.0140 C   0  0  0  0  0  0  0  0  0  0  0  0
    7.4710   -5.6840   28.4340 Cl  0  0  0  0  0  0  0  0  0  0  0  0
   13.1680   -1.7710   22.3090 C   0  0  0  0  0  0  0  0  0  0  0  0
    5.3410    1.4890   17.6930 C   0  0  0  0  0  0  0  0  0  0  0  0
   10.6020    1.2160   24.3310 C   0  0  0  0  0  0  0  0  0  0  0  0
   12.5990    0.5420   22.9000 C   0  0  0  0  0  0  0  0  0  0  0  0
   11.8040    1.6530   23.5310 C   0  0  0  0  0  0  0  0  0  0  0  0
  1  2  1  0
  2  3  1  0
  3  4  1  0
  4  5  1  0
  6  5  1  1
  6  7  1  0
  6  8  1  0
  7  8  1  6
  7  9  1  0
  9 10  1  1
  9 11  1  0
 11 12  1  0
 10 13  1  0
 11 14  1  0
 12 15  1  0
 12 16  2  0
 14 17  1  0
 13 18  1  0
 13 19  1  0
 14 19  1  1
 17 20  1  1
 18 21  1  1
 17 22  1  0
 18 23  1  0
 20 24  1  0
 22 25  2  0
 22 26  1  0
 23 27  2  0
 23 28  1  0
 21 29  1  0
 24 30  1  6
 24 31  1  0
 25 31  1  0
 25 32  1  0
 26 33  2  0
 27 34  1  0
 28 35  1  0
 34 35  2  0
 29 36  2  0
 29 37  1  0
 35 38  1  0
 37 39  1  0
 32 40  2  0
 33 40  1  0
 36 41  1  0
 37 42  2  0
 41 43  2  0
 42 43  1  0
M  END
