x1334_0-x0831_0-x0831_1-x1334_1
     RDKit          3D

 25 27  0  0  0  0  0  0  0  0999 V2000
    6.2220   -3.4470   19.9670 C   0  0  0  0  0  0  0  0  0  0  0  0
    7.2580   -3.0450   18.8900 C   0  0  0  0  0  0  0  0  0  0  0  0
    5.3290   -4.2600   19.7470 O   0  0  0  0  0  0  0  0  0  0  0  0
    6.2970   -2.8950   21.2140 N   0  0  0  0  0  0  0  0  0  0  0  0
    6.1890   -1.4630   21.4990 C   0  0  0  0  0  0  0  0  0  0  0  0
    6.8760   -3.7920   22.2200 C   0  0  0  0  0  0  0  0  0  0  0  0
    7.4940   -0.7160   21.3700 C   0  0  0  0  0  0  0  0  0  0  0  0
    7.0820   -3.1230   23.4410 C   0  0  0  0  0  0  0  0  0  0  0  0
    8.1320   -2.1020   23.4410 N   0  0  0  0  0  0  0  0  0  0  0  0
    8.5270   -1.6300   22.0790 C   0  0  0  0  0  0  0  0  0  0  0  0
    9.2240   -2.4870   24.2060 C   0  0  2  0  0  0  0  0  0  0  0  0
   10.4600   -2.4870   23.3230 C   0  0  0  0  0  0  0  0  0  0  0  0
    9.0330   -3.6880   25.1180 C   0  0  0  0  0  0  0  0  0  0  0  0
    9.7140   -4.8440   25.0700 C   0  0  0  0  0  0  0  0  0  0  0  0
    7.8800   -3.7390   26.4280 S   0  0  0  0  0  0  0  0  0  0  0  0
   11.0560   -1.1160   23.3730 C   0  0  0  0  0  0  0  0  0  0  0  0
    9.3510   -5.8580   26.1090 C   0  0  0  0  0  0  0  0  0  0  0  0
    8.2520   -5.3290   27.0060 C   0  0  0  0  0  0  0  0  0  0  0  0
   10.4190   -0.0980   24.0630 C   0  0  0  0  0  0  0  0  0  0  0  0
   12.2720   -0.8290   22.7380 C   0  0  0  0  0  0  0  0  0  0  0  0
    7.4330   -6.0020   28.3440 Cl  0  0  0  0  0  0  0  0  0  0  0  0
   13.0040   -1.8710   21.9680 C   0  0  0  0  0  0  0  0  0  0  0  0
   11.0200    1.1590   24.0870 C   0  0  0  0  0  0  0  0  0  0  0  0
   12.8540    0.4280   22.7880 C   0  0  0  0  0  0  0  0  0  0  0  0
   12.2220    1.4490   23.4700 C   0  0  0  0  0  0  0  0  0  0  0  0
  1  2  1  0
  1  3  2  0
  1  4  1  0
  4  5  1  0
  4  6  1  0
  5  7  1  0
  6  8  1  0
  8  9  1  0
  7 10  1  0
  9 10  1  0
  9 11  1  0
 11 12  1  6
 11 13  1  0
 13 14  2  0
 13 15  1  0
 12 16  1  0
 14 17  1  0
 15 18  1  0
 17 18  2  0
 16 19  2  0
 16 20  1  0
 18 21  1  0
 20 22  1  0
 19 23  1  0
 20 24  2  0
 23 25  2  0
 24 25  1  0
M  END
