x1336_0-x1412_0
     RDKit          3D

 16 17  0  0  0  0  0  0  0  0999 V2000
    6.4350   -3.4380   19.9270 C   0  0  0  0  0  0  0  0  0  0  0  0
    7.3970   -3.0510   18.8000 C   0  0  0  0  0  0  0  0  0  0  0  0
    5.4360   -4.1250   19.7110 O   0  0  0  0  0  0  0  0  0  0  0  0
    6.7210   -3.0500   21.2030 N   0  0  0  0  0  0  0  0  0  0  0  0
    6.5190   -4.0620   22.2370 C   0  0  0  0  0  0  0  0  0  0  0  0
    7.9260   -2.2240   21.4120 C   0  0  0  0  0  0  0  0  0  0  0  0
    6.5350   -3.3970   23.6090 C   0  0  0  0  0  0  0  0  0  0  0  0
    7.9650   -1.6080   22.8100 C   0  0  0  0  0  0  0  0  0  0  0  0
    7.8520   -2.7620   23.7090 N   0  0  0  0  0  0  0  0  0  0  0  0
    8.2740   -2.5280   25.0560 C   0  0  0  0  0  0  0  0  0  0  0  0
    8.4410   -1.3890   25.5150 O   0  0  0  0  0  0  0  0  0  0  0  0
    8.4930   -3.7650   25.8660 C   0  0  0  0  0  0  0  0  0  0  0  0
    9.2730   -4.8410   25.4340 C   0  0  0  0  0  0  0  0  0  0  0  0
    7.7350   -3.9460   27.5190 S   0  0  0  0  0  0  0  0  0  0  0  0
    9.3470   -5.8790   26.3420 C   0  0  0  0  0  0  0  0  0  0  0  0
    8.5300   -5.5350   27.5790 C   0  0  0  0  0  0  0  0  0  0  0  0
  1  2  1  0
  1  3  2  0
  1  4  1  0
  4  5  1  0
  4  6  1  0
  5  7  1  0
  6  8  1  0
  7  9  1  0
  8  9  1  0
  9 10  1  0
 10 11  2  0
 10 12  1  0
 12 13  2  0
 12 14  1  0
 13 15  1  0
 14 16  1  0
 15 16  2  0
M  END
