x1334_1-x0831_0-x1374_1-x0426_1-x0397_0-x1386_1-x0692_1
     RDKit          3D

 37 41  0  0  0  0  0  0  0  0999 V2000
    1.9750   -7.2000   23.6250 O   0  0  0  0  0  0  0  0  0  0  0  0
    2.3790   -7.5450   24.9400 C   0  0  0  0  0  0  0  0  0  0  0  0
    3.7580   -7.8620   24.9560 O   0  0  0  0  0  0  0  0  0  0  0  0
    4.4080   -7.2060   23.8850 C   0  0  0  0  0  0  0  0  0  0  0  0
    4.8870   -6.0140   24.3690 C   0  0  0  0  0  0  0  0  0  0  0  0
    6.0280   -5.6840   23.4650 C   0  0  2  0  0  0  0  0  0  0  0  0
    5.9510   -4.6460   22.5040 C   0  0  2  0  0  0  0  0  0  0  0  0
    6.0140   -6.2830   22.2850 C   0  0  0  0  0  0  0  0  0  0  0  0
    7.1030   -3.8160   22.1320 C   0  0  1  0  0  0  0  0  0  0  0  0
    6.6570   -2.8490   21.1300 N   0  0  0  0  0  0  0  0  0  0  0  0
    7.8530   -3.3650   23.4050 C   0  0  0  0  0  0  0  0  0  0  0  0
    6.3480   -3.3060   19.8730 C   0  0  0  0  0  0  0  0  0  0  0  0
    8.7490   -2.2370   23.2430 N   0  0  0  0  0  0  0  0  0  0  0  0
    7.3160   -1.5870   21.3590 C   0  0  2  0  0  0  0  0  0  0  0  0
    7.3070   -2.9870   18.7530 C   0  0  0  0  0  0  0  0  0  0  0  0
    5.3590   -4.0180   19.6600 O   0  0  0  0  0  0  0  0  0  0  0  0
   10.1310   -2.4660   23.5860 C   0  0  0  0  0  0  0  0  0  0  0  0
    8.7290   -1.8000   21.8410 C   0  0  0  0  0  0  0  0  0  0  0  0
    6.6330   -0.7640   22.4660 C   0  0  0  0  0  0  0  0  0  0  0  0
   10.8540   -1.1530   23.5520 C   0  0  0  0  0  0  0  0  0  0  0  0
    5.9320    0.5260   21.9930 C   0  0  2  0  0  0  0  0  0  0  0  0
   10.2220    0.0890   24.2200 C   0  0  0  0  0  0  0  0  0  0  0  0
   12.2000   -0.9360   22.8720 C   0  0  0  0  0  0  0  0  0  0  0  0
    4.7390    0.5360   22.6080 C   0  0  0  0  0  0  0  0  0  0  0  0
    5.7880    0.7250   20.4940 C   0  0  0  0  0  0  0  0  0  0  0  0
   12.9250   -2.0420   22.1750 C   0  0  0  0  0  0  0  0  0  0  0  0
   11.0250    1.3960   24.1110 C   0  0  0  0  0  0  0  0  0  0  0  0
   12.8090    0.4220   22.8950 C   0  0  0  0  0  0  0  0  0  0  0  0
    4.1870    1.9370   22.4160 C   0  0  2  0  0  0  0  0  0  0  0  0
    4.7000    1.4790   20.0250 C   0  0  0  0  0  0  0  0  0  0  0  0
    6.7480    0.1770   19.4690 C   0  0  0  0  0  0  0  0  0  0  0  0
   12.2550    1.5040   23.4700 C   0  0  0  0  0  0  0  0  0  0  0  0
    3.1340    2.2390   23.3790 N   0  0  0  0  0  0  0  0  0  0  0  0
    3.6880    2.0590   20.9640 C   0  0  0  0  0  0  0  0  0  0  0  0
    4.4990    1.7310   18.7380 C   0  0  0  0  0  0  0  0  0  0  0  0
    6.6150    0.3780   18.1540 N   0  0  0  0  0  0  0  0  0  0  0  0
    5.4820    1.1710   17.7880 C   0  0  0  0  0  0  0  0  0  0  0  0
  1  2  1  0
  2  3  1  0
  3  4  1  0
  4  5  1  0
  6  5  1  1
  6  7  1  0
  6  8  1  0
  7  8  1  6
  7  9  1  0
  9 10  1  0
  9 11  1  1
 10 12  1  0
 11 13  1  0
 10 14  1  0
 12 15  1  0
 12 16  2  0
 13 17  1  0
 13 18  1  0
 14 18  1  0
 14 19  1  1
 17 20  1  0
 21 19  1  6
 20 22  2  0
 20 23  1  0
 21 24  1  0
 21 25  1  0
 23 26  1  0
 22 27  1  0
 23 28  2  0
 24 29  1  0
 25 30  2  0
 25 31  1  0
 27 32  2  0
 28 32  1  0
 29 33  1  1
 29 34  1  0
 30 34  1  0
 30 35  1  0
 31 36  2  0
 35 37  2  0
 36 37  1  0
M  END
