x1334_1-x0831_0-x0397_0-x1386_1-x1412_1-x1385_1-x0434_2-x0692_1-x1418_1-x1334_0-x1374_1-x0770_1-x0831_1
     RDKit          3D

 39 43  0  0  0  0  0  0  0  0999 V2000
    2.3000   -7.6310   23.2920 O   0  0  0  0  0  0  0  0  0  0  0  0
    2.5080   -7.9720   24.6480 C   0  0  0  0  0  0  0  0  0  0  0  0
    3.8940   -7.9100   24.8850 O   0  0  0  0  0  0  0  0  0  0  0  0
    4.5280   -7.1550   23.8560 C   0  0  0  0  0  0  0  0  0  0  0  0
    5.0470   -5.9840   24.4090 C   0  0  0  0  0  0  0  0  0  0  0  0
    6.1900   -5.7370   23.4790 C   0  0  2  0  0  0  0  0  0  0  0  0
    6.0100   -4.7480   22.4830 C   0  0  2  0  0  0  0  0  0  0  0  0
    6.0950   -6.2490   22.0030 C   0  0  0  0  0  0  0  0  0  0  0  0
    7.1750   -3.9000   22.1610 C   0  0  1  0  0  0  0  0  0  0  0  0
    6.6690   -2.8760   21.2430 N   0  0  0  0  0  0  0  0  0  0  0  0
    7.8730   -3.4140   23.4630 C   0  0  0  0  0  0  0  0  0  0  0  0
    6.3390   -3.3100   19.9340 C   0  0  0  0  0  0  0  0  0  0  0  0
    8.7220   -2.2320   23.3070 N   0  0  0  0  0  0  0  0  0  0  0  0
    7.1630   -1.5390   21.6020 C   0  0  2  0  0  0  0  0  0  0  0  0
    7.2370   -2.9630   18.7520 C   0  0  0  0  0  0  0  0  0  0  0  0
    5.3610   -4.0390   19.7000 O   0  0  0  0  0  0  0  0  0  0  0  0
   10.0610   -2.3740   23.4860 C   0  0  2  0  0  0  0  0  0  0  0  0
    7.3660   -0.8200   20.3940 N   0  0  0  0  0  0  0  0  0  0  0  0
    8.5730   -1.6290   22.1240 C   0  0  0  0  0  0  0  0  0  0  0  0
   10.6370   -3.2150   24.5710 C   0  0  0  0  0  0  0  0  0  0  0  0
   10.7870   -1.0040   23.4740 C   0  0  0  0  0  0  0  0  0  0  0  0
    6.4780   -0.0300   19.7630 C   0  0  0  0  0  0  0  0  0  0  0  0
   10.0870    0.1060   23.9190 C   0  0  0  0  0  0  0  0  0  0  0  0
   12.2620   -0.8100   22.9800 C   0  0  0  0  0  0  0  0  0  0  0  0
    9.7750   -4.1100   25.4270 C   0  0  0  0  0  0  0  0  0  0  0  0
    6.8690    0.3430   18.4330 C   0  0  0  0  0  0  0  0  0  0  0  0
    5.1320    0.5330   20.2220 C   0  0  0  0  0  0  0  0  0  0  0  0
   12.9850   -2.0170   22.4950 C   0  0  0  0  0  0  0  0  0  0  0  0
   10.7740    1.4740   23.9220 C   0  0  0  0  0  0  0  0  0  0  0  0
   12.9010    0.3760   22.9660 C   0  0  0  0  0  0  0  0  0  0  0  0
   10.0720   -5.3880   25.7370 C   0  0  0  0  0  0  0  0  0  0  0  0
    8.2840   -3.7190   26.2060 S   0  0  0  0  0  0  0  0  0  0  0  0
    6.2590    1.0900   17.5540 N   0  0  0  0  0  0  0  0  0  0  0  0
    4.3740    1.4080   19.2460 C   0  0  0  0  0  0  0  0  0  0  0  0
   12.1910    1.5750   23.4350 C   0  0  0  0  0  0  0  0  0  0  0  0
    9.2370   -6.0750   26.5460 C   0  0  0  0  0  0  0  0  0  0  0  0
    8.1830   -5.2550   26.9060 C   0  0  0  0  0  0  0  0  0  0  0  0
    5.0250    1.6640   17.8610 C   0  0  0  0  0  0  0  0  0  0  0  0
    6.8830   -5.6710   27.9400 Cl  0  0  0  0  0  0  0  0  0  0  0  0
  1  2  1  0
  2  3  1  0
  3  4  1  0
  4  5  1  0
  6  5  1  1
  6  7  1  0
  6  8  1  0
  7  8  1  6
  7  9  1  0
  9 10  1  0
  9 11  1  1
 10 12  1  0
 11 13  1  0
 10 14  1  0
 12 15  1  0
 12 16  2  0
 13 17  1  0
 14 18  1  6
 13 19  1  0
 14 19  1  0
 17 20  1  1
 17 21  1  0
 18 22  1  0
 21 23  2  0
 21 24  1  0
 20 25  1  0
 22 26  2  0
 22 27  1  0
 24 28  1  0
 23 29  1  0
 24 30  2  0
 25 31  2  0
 25 32  1  0
 26 33  1  0
 27 34  2  0
 29 35  2  0
 30 35  1  0
 31 36  1  0
 32 37  1  0
 36 37  2  0
 33 38  2  0
 34 38  1  0
 37 39  1  0
M  END
