x1334_1-x0434_2-x1386_1-x1418_1-x0770_1-x1412_1-x1334_0-x0831_0-x0426_1-x0831_1-x0397_0-x0692_1-x1385_1
     RDKit          3D

 40 46  0  0  0  0  0  0  0  0999 V2000
    6.2870   -3.2600   19.9220 C   0  0  0  0  0  0  0  0  0  0  0  0
    7.3010   -2.9750   18.8320 C   0  0  0  0  0  0  0  0  0  0  0  0
    5.4160   -4.1190   19.7120 O   0  0  0  0  0  0  0  0  0  0  0  0
    6.3260   -2.6020   21.1720 N   0  0  0  0  0  0  0  0  0  0  0  0
    7.3970   -1.5910   21.5280 C   0  0  2  0  0  0  0  0  0  0  0  0
    6.1440   -3.5560   22.3210 C   0  0  2  0  0  0  0  0  0  0  0  0
    7.6890   -0.4600   20.6340 N   0  0  0  0  0  0  0  0  0  0  0  0
    8.7450   -2.2100   21.9610 C   0  0  0  0  0  0  0  0  0  0  0  0
    7.0920   -3.3220   23.3690 C   0  0  0  0  0  0  0  0  0  0  0  0
    6.3970   -5.0040   21.9610 C   0  0  0  0  0  0  0  0  0  0  0  0
    7.7450    0.6400   21.6180 C   0  0  0  0  0  0  0  0  0  0  0  0
    8.5270   -3.2000   23.0250 N   0  0  0  0  0  0  0  0  0  0  0  0
    6.3930   -6.0570   22.9430 C   0  0  0  0  0  0  0  0  0  0  0  0
    5.4140   -6.0400   21.9920 C   0  0  0  0  0  0  0  0  0  0  0  0
    6.6870    0.1150   19.7960 C   0  0  0  0  0  0  0  0  0  0  0  0
    6.2210    0.7360   22.0300 C   0  0  2  0  0  0  0  0  0  0  0  0
    9.3460   -2.8890   24.1950 C   0  0  2  0  0  0  0  0  0  0  0  0
    6.4960    0.0930   18.4370 N   0  0  0  0  0  0  0  0  0  0  0  0
    5.8180    0.8090   20.6450 C   0  0  0  0  0  0  0  0  0  0  0  0
    5.8580    2.0750   22.6790 C   0  0  0  0  0  0  0  0  0  0  0  0
   10.8140   -2.6410   23.9110 C   0  0  0  0  0  0  0  0  0  0  0  0
    4.6790    1.5140   20.1260 C   0  0  0  0  0  0  0  0  0  0  0  0
    5.4630    0.7390   17.8270 C   0  0  0  0  0  0  0  0  0  0  0  0
    9.1580   -4.0070   25.2110 C   0  0  0  0  0  0  0  0  0  0  0  0
    4.3750    2.5380   22.4680 C   0  0  1  0  0  0  0  0  0  0  0  0
    3.7650    2.2340   21.0550 C   0  0  0  0  0  0  0  0  0  0  0  0
    4.5930    1.4180   18.6670 C   0  0  0  0  0  0  0  0  0  0  0  0
    9.8200   -5.2190   25.3890 C   0  0  0  0  0  0  0  0  0  0  0  0
    7.9260   -3.8670   26.4100 S   0  0  0  0  0  0  0  0  0  0  0  0
   11.1480   -1.0770   23.8250 C   0  0  0  0  0  0  0  0  0  0  0  0
    3.5200    1.9750   23.5110 N   0  0  0  0  0  0  0  0  0  0  0  0
    9.3550   -5.9770   26.4280 C   0  0  0  0  0  0  0  0  0  0  0  0
    8.3000   -5.3670   27.1000 C   0  0  0  0  0  0  0  0  0  0  0  0
   10.3820    0.0910   24.4340 C   0  0  0  0  0  0  0  0  0  0  0  0
   12.3030   -0.8940   23.0760 C   0  0  0  0  0  0  0  0  0  0  0  0
    7.4020   -5.9240   28.4400 Cl  0  0  0  0  0  0  0  0  0  0  0  0
   13.0670   -2.0160   22.4490 C   0  0  0  0  0  0  0  0  0  0  0  0
   10.9250    1.3550   24.1830 C   0  0  0  0  0  0  0  0  0  0  0  0
   12.7460    0.4030   22.9100 C   0  0  0  0  0  0  0  0  0  0  0  0
   12.1000    1.5160   23.4330 C   0  0  0  0  0  0  0  0  0  0  0  0
  1  2  1  0
  1  3  2  0
  1  4  1  0
  4  5  1  0
  4  6  1  0
  5  7  1  6
  5  8  1  0
  6  9  1  0
  6 10  1  6
  7 11  1  0
  8 12  1  0
  9 12  1  0
 10 13  1  0
 10 14  1  0
 13 14  1  0
  7 15  1  0
 16 11  1  6
 12 17  1  0
 15 18  2  0
 15 19  1  0
 16 19  1  0
 16 20  1  0
 17 21  1  6
 19 22  2  0
 18 23  1  0
 17 24  1  0
 20 25  1  0
 22 26  1  0
 25 26  1  0
 22 27  1  0
 23 27  2  0
 24 28  2  0
 24 29  1  0
 21 30  1  0
 25 31  1  1
 28 32  1  0
 29 33  1  0
 32 33  2  0
 30 34  2  0
 30 35  1  0
 33 36  1  0
 35 37  1  0
 34 38  1  0
 35 39  2  0
 38 40  2  0
 39 40  1  0
M  END
