x1336_0-x1374_1-x0770_1-x1386_0-x1412_0
     RDKit          3D

 30 33  0  0  0  0  0  0  0  0999 V2000
    6.5150   -3.3950   19.8820 C   0  0  0  0  0  0  0  0  0  0  0  0
    7.4390   -3.0300   18.7420 C   0  0  0  0  0  0  0  0  0  0  0  0
    5.5040   -4.0930   19.7250 O   0  0  0  0  0  0  0  0  0  0  0  0
    6.9050   -2.9260   21.1280 N   0  0  0  0  0  0  0  0  0  0  0  0
    6.2930   -3.5280   22.2970 C   0  0  2  0  0  0  0  0  0  0  0  0
    8.0860   -2.0680   21.3920 C   0  0  0  0  0  0  0  0  0  0  0  0
    7.2600   -3.7110   23.4460 C   0  0  0  0  0  0  0  0  0  0  0  0
    7.8970   -1.4510   22.7910 C   0  0  0  0  0  0  0  0  0  0  0  0
    5.5600   -4.7970   21.9340 C   0  0  0  0  0  0  0  0  0  0  0  0
    7.8370   -2.4560   23.8610 N   0  0  0  0  0  0  0  0  0  0  0  0
    4.4090   -5.1850   22.8520 C   0  0  2  0  0  0  0  0  0  0  0  0
    8.9020   -2.5650   24.7540 C   0  0  2  0  0  0  0  0  0  0  0  0
    4.7620   -4.6330   24.1170 C   0  0  0  0  0  0  0  0  0  0  0  0
    4.3830   -6.6920   22.9770 C   0  0  0  0  0  0  0  0  0  0  0  0
    9.1250   -1.4890   25.2920 O   0  0  0  0  0  0  0  0  0  0  0  0
   10.1120   -2.7760   24.0210 C   0  0  0  0  0  0  0  0  0  0  0  0
    8.8840   -3.7490   25.6180 C   0  0  0  0  0  0  0  0  0  0  0  0
    4.3240   -5.4380   25.1490 C   0  0  0  0  0  0  0  0  0  0  0  0
    3.5590   -6.7660   24.4890 S   0  0  0  0  0  0  0  0  0  0  0  0
    9.6390   -4.9270   25.5350 C   0  0  0  0  0  0  0  0  0  0  0  0
    7.8340   -3.8560   26.9940 S   0  0  0  0  0  0  0  0  0  0  0  0
   11.0230   -1.5570   23.7720 C   0  0  0  0  0  0  0  0  0  0  0  0
    2.0180   -6.5580   24.1580 O   0  0  0  0  0  0  0  0  0  0  0  0
    3.8700   -8.1550   25.1710 O   0  0  0  0  0  0  0  0  0  0  0  0
    9.3710   -5.8390   26.5340 C   0  0  0  0  0  0  0  0  0  0  0  0
    8.4120   -5.4140   27.4220 C   0  0  0  0  0  0  0  0  0  0  0  0
   12.1670   -1.6050   22.7810 C   0  0  0  0  0  0  0  0  0  0  0  0
   10.8860   -0.1920   24.4740 C   0  0  0  0  0  0  0  0  0  0  0  0
   12.9200   -0.2400   22.7260 C   0  0  0  0  0  0  0  0  0  0  0  0
   12.1860    0.8160   23.7950 S   0  0  0  0  0  0  0  0  0  0  0  0
  1  2  1  0
  1  3  2  0
  1  4  1  0
  4  5  1  0
  4  6  1  0
  5  7  1  0
  6  8  1  0
  5  9  1  6
  7 10  1  0
  8 10  1  0
 11  9  1  6
 10 12  1  0
 11 13  1  0
 11 14  1  0
 12 15  1  1
 12 16  1  0
 12 17  1  0
 13 18  2  0
 14 19  1  0
 18 19  1  0
 17 20  2  0
 17 21  1  0
 16 22  1  0
 19 23  1  0
 19 24  1  0
 20 25  1  0
 21 26  1  0
 25 26  2  0
 22 27  1  0
 22 28  2  0
 27 29  2  0
 28 30  1  0
 29 30  1  0
M  END
