x1334_1-x0434_2-x0397_0-x0692_1-x1334_0-x1412_1-x1385_1-x0770_1-x0831_0-x1386_1-x1418_1-x1374_1
     RDKit          3D

 39 43  0  0  0  0  0  0  0  0999 V2000
    2.0020   -7.1130   23.9900 O   0  0  0  0  0  0  0  0  0  0  0  0
    2.4590   -7.9610   25.0280 C   0  0  0  0  0  0  0  0  0  0  0  0
    3.8740   -7.9570   24.9880 O   0  0  0  0  0  0  0  0  0  0  0  0
    4.3720   -7.2550   23.8680 C   0  0  0  0  0  0  0  0  0  0  0  0
    4.9320   -6.0670   24.2610 C   0  0  0  0  0  0  0  0  0  0  0  0
    5.9870   -5.6510   23.2820 C   0  0  2  0  0  0  0  0  0  0  0  0
    5.9220   -4.5200   22.3840 C   0  0  2  0  0  0  0  0  0  0  0  0
    6.0650   -6.1690   22.0630 C   0  0  0  0  0  0  0  0  0  0  0  0
    7.0880   -3.5950   22.0760 C   0  0  1  0  0  0  0  0  0  0  0  0
    6.7960   -2.7530   21.0730 N   0  0  0  0  0  0  0  0  0  0  0  0
    7.2910   -2.9810   23.4130 C   0  0  0  0  0  0  0  0  0  0  0  0
    6.4100   -3.2810   19.8360 C   0  0  0  0  0  0  0  0  0  0  0  0
    8.5630   -2.2920   23.4210 N   0  0  0  0  0  0  0  0  0  0  0  0
    7.7410   -1.6260   21.0490 C   0  0  1  0  0  0  0  0  0  0  0  0
    7.3310   -2.9950   18.6720 C   0  0  0  0  0  0  0  0  0  0  0  0
    5.4160   -4.0000   19.6590 O   0  0  0  0  0  0  0  0  0  0  0  0
    9.5720   -3.1960   23.9190 C   0  0  1  0  0  0  0  0  0  0  0  0
    6.9930   -0.3980   21.2770 N   0  0  0  0  0  0  0  0  0  0  0  0
    8.9350   -1.8290   22.0450 C   0  0  0  0  0  0  0  0  0  0  0  0
   10.8380   -2.5720   24.4600 C   0  0  0  0  0  0  0  0  0  0  0  0
    9.1080   -4.0340   25.1000 C   0  0  0  0  0  0  0  0  0  0  0  0
    6.3420    0.2000   20.1980 C   0  0  0  0  0  0  0  0  0  0  0  0
    9.7470   -5.2580   25.3310 C   0  0  0  0  0  0  0  0  0  0  0  0
    7.8850   -3.7820   26.3030 S   0  0  0  0  0  0  0  0  0  0  0  0
   11.2030   -1.1530   24.0690 C   0  0  0  0  0  0  0  0  0  0  0  0
    6.8670    0.1180   18.9130 C   0  0  0  0  0  0  0  0  0  0  0  0
    5.1540    0.8970   20.3820 C   0  0  0  0  0  0  0  0  0  0  0  0
    9.3820   -6.0220   26.3490 C   0  0  0  0  0  0  0  0  0  0  0  0
    8.2490   -5.2970   27.0730 C   0  0  0  0  0  0  0  0  0  0  0  0
   10.4230   -0.0840   24.5800 C   0  0  0  0  0  0  0  0  0  0  0  0
   12.3130   -0.9400   23.2230 C   0  0  0  0  0  0  0  0  0  0  0  0
    6.3940    0.6350   17.7800 N   0  0  0  0  0  0  0  0  0  0  0  0
    4.5890    1.4980   19.0920 C   0  0  0  0  0  0  0  0  0  0  0  0
    7.3760   -5.7980   28.4520 Cl  0  0  0  0  0  0  0  0  0  0  0  0
   13.1150   -2.0680   22.6740 C   0  0  0  0  0  0  0  0  0  0  0  0
   10.7220    1.2530   24.2740 C   0  0  0  0  0  0  0  0  0  0  0  0
   12.6930    0.4980   22.8720 C   0  0  0  0  0  0  0  0  0  0  0  0
    5.2520    1.3260   17.8830 C   0  0  0  0  0  0  0  0  0  0  0  0
   11.7900    1.5560   23.4770 C   0  0  0  0  0  0  0  0  0  0  0  0
  1  2  1  0
  2  3  1  0
  3  4  1  0
  4  5  1  0
  6  5  1  6
  6  7  1  0
  6  8  1  0
  7  8  1  6
  7  9  1  0
  9 10  1  0
  9 11  1  1
 10 12  1  0
 11 13  1  0
 10 14  1  0
 12 15  1  0
 12 16  2  0
 13 17  1  0
 14 18  1  1
 13 19  1  0
 14 19  1  0
 17 20  1  1
 17 21  1  0
 18 22  1  0
 21 23  2  0
 21 24  1  0
 20 25  1  0
 22 26  2  0
 22 27  1  0
 23 28  1  0
 24 29  1  0
 28 29  2  0
 25 30  2  0
 25 31  1  0
 26 32  1  0
 27 33  2  0
 29 34  1  0
 31 35  1  0
 30 36  1  0
 31 37  2  0
 32 38  2  0
 33 38  1  0
 36 39  2  0
 37 39  1  0
M  END
