x1334_0-x0770_1-x1334_1-x0397_0-x0831_0
     RDKit          3D

 27 30  0  0  0  0  0  0  0  0999 V2000
    6.2470   -3.3340   19.9660 C   0  0  0  0  0  0  0  0  0  0  0  0
    7.2370   -3.0330   18.8550 C   0  0  0  0  0  0  0  0  0  0  0  0
    5.3700   -4.1920   19.7860 O   0  0  0  0  0  0  0  0  0  0  0  0
    6.3990   -2.6180   21.1500 N   0  0  0  0  0  0  0  0  0  0  0  0
    7.3490   -1.4920   21.3260 C   0  0  0  0  0  0  0  0  0  0  0  0
    6.2320   -3.3840   22.4050 C   0  0  2  0  0  0  0  0  0  0  0  0
    8.6730   -1.8210   22.0890 C   0  0  0  0  0  0  0  0  0  0  0  0
    7.6210   -3.7450   22.9450 C   0  0  0  0  0  0  0  0  0  0  0  0
    5.5000   -4.7040   22.3070 C   0  0  0  0  0  0  0  0  0  0  0  0
    8.4370   -2.6170   23.3280 N   0  0  0  0  0  0  0  0  0  0  0  0
    5.8350   -5.8450   23.1270 C   0  0  0  0  0  0  0  0  0  0  0  0
    6.0510   -5.9470   21.6570 C   0  0  0  0  0  0  0  0  0  0  0  0
    9.6120   -3.2140   23.9730 C   0  0  1  0  0  0  0  0  0  0  0  0
   10.5970   -2.2710   24.6790 C   0  0  0  0  0  0  0  0  0  0  0  0
    9.1780   -4.1580   25.0940 C   0  0  0  0  0  0  0  0  0  0  0  0
    9.7720   -5.3870   25.3260 C   0  0  0  0  0  0  0  0  0  0  0  0
    7.9100   -3.9010   26.2990 S   0  0  0  0  0  0  0  0  0  0  0  0
   11.0900   -0.8900   24.1770 C   0  0  0  0  0  0  0  0  0  0  0  0
    9.2530   -6.0640   26.3930 C   0  0  0  0  0  0  0  0  0  0  0  0
    8.2260   -5.4050   27.0450 C   0  0  0  0  0  0  0  0  0  0  0  0
   10.4300    0.2160   24.5470 C   0  0  0  0  0  0  0  0  0  0  0  0
   12.3570   -0.8190   23.2690 C   0  0  0  0  0  0  0  0  0  0  0  0
    7.3170   -5.9010   28.4030 Cl  0  0  0  0  0  0  0  0  0  0  0  0
   13.0930   -2.0540   22.8280 C   0  0  0  0  0  0  0  0  0  0  0  0
   10.9230    1.5550   24.0910 C   0  0  0  0  0  0  0  0  0  0  0  0
   12.8460    0.4570   22.8390 C   0  0  0  0  0  0  0  0  0  0  0  0
   12.1470    1.6760   23.2340 C   0  0  0  0  0  0  0  0  0  0  0  0
  1  2  1  0
  1  3  2  0
  1  4  1  0
  4  5  1  0
  4  6  1  0
  5  7  1  0
  6  8  1  0
  6  9  1  6
  7 10  1  0
  8 10  1  0
  9 11  1  0
  9 12  1  0
 11 12  1  0
 10 13  1  0
 13 14  1  1
 13 15  1  0
 15 16  2  0
 15 17  1  0
 14 18  1  0
 16 19  1  0
 17 20  1  0
 19 20  2  0
 18 21  2  0
 18 22  1  0
 20 23  1  0
 22 24  1  0
 21 25  1  0
 22 26  2  0
 25 27  2  0
 26 27  1  0
M  END
