x1334_0-x1374_1-x1412_1-x1386_1-x0831_0-x1334_1
     RDKit          3D

 32 35  0  0  0  0  0  0  0  0999 V2000
    6.3660   -3.2380   19.7990 C   0  0  0  0  0  0  0  0  0  0  0  0
    7.3890   -2.9840   18.7130 C   0  0  0  0  0  0  0  0  0  0  0  0
    5.3650   -3.9320   19.5870 O   0  0  0  0  0  0  0  0  0  0  0  0
    6.5840   -2.7150   21.0630 N   0  0  0  0  0  0  0  0  0  0  0  0
    7.5440   -1.5720   21.0710 C   0  0  0  0  0  0  0  0  0  0  0  0
    6.6180   -3.6870   22.1710 C   0  0  1  0  0  0  0  0  0  0  0  0
    5.8610   -5.0150   21.7960 C   0  0  0  0  0  0  0  0  0  0  0  0
    8.7430   -1.8290   22.0280 C   0  0  0  0  0  0  0  0  0  0  0  0
    7.8620   -3.9310   22.7050 C   0  0  0  0  0  0  0  0  0  0  0  0
    8.3480   -2.6730   23.1760 N   0  0  0  0  0  0  0  0  0  0  0  0
    4.7550   -5.1800   22.7300 C   0  0  2  0  0  0  0  0  0  0  0  0
    9.2470   -2.7270   24.1560 C   0  0  2  0  0  0  0  0  0  0  0  0
    4.9050   -4.6740   24.1720 C   0  0  0  0  0  0  0  0  0  0  0  0
    4.4120   -6.6640   22.9330 C   0  0  0  0  0  0  0  0  0  0  0  0
   10.6200   -2.5030   23.6290 C   0  0  0  0  0  0  0  0  0  0  0  0
    9.0970   -3.9190   25.1850 C   0  0  0  0  0  0  0  0  0  0  0  0
    4.2750   -5.5230   25.2350 C   0  0  0  0  0  0  0  0  0  0  0  0
    3.5980   -6.8110   24.4390 S   0  0  0  0  0  0  0  0  0  0  0  0
    2.0460   -6.6630   24.1420 O   0  0  0  0  0  0  0  0  0  0  0  0
    3.9210   -8.2010   25.1020 O   0  0  0  0  0  0  0  0  0  0  0  0
    9.8520   -5.0290   25.2070 C   0  0  0  0  0  0  0  0  0  0  0  0
    7.8770   -3.8930   26.4230 S   0  0  0  0  0  0  0  0  0  0  0  0
   11.0680   -1.0460   23.5840 C   0  0  0  0  0  0  0  0  0  0  0  0
    9.3580   -5.9150   26.3710 C   0  0  0  0  0  0  0  0  0  0  0  0
    8.2900   -5.3760   27.0880 C   0  0  0  0  0  0  0  0  0  0  0  0
   10.3130    0.0310   24.0160 C   0  0  0  0  0  0  0  0  0  0  0  0
   12.3750   -0.8770   23.0400 C   0  0  0  0  0  0  0  0  0  0  0  0
    7.4230   -5.9800   28.4290 Cl  0  0  0  0  0  0  0  0  0  0  0  0
   13.1210   -2.0860   22.5730 C   0  0  0  0  0  0  0  0  0  0  0  0
   10.9140    1.3980   23.9160 C   0  0  0  0  0  0  0  0  0  0  0  0
   12.9550    0.3550   22.9310 C   0  0  0  0  0  0  0  0  0  0  0  0
   12.1270    1.5500   23.4190 C   0  0  0  0  0  0  0  0  0  0  0  0
  1  2  1  0
  1  3  2  0
  1  4  1  0
  4  5  1  0
  4  6  1  0
  6  7  1  6
  5  8  1  0
  6  9  1  0
  8 10  1  0
  9 10  1  0
 11  7  1  6
 10 12  1  0
 11 13  1  0
 11 14  1  0
 12 15  1  6
 12 16  1  0
 13 17  2  0
 14 18  1  0
 17 18  1  0
 18 19  1  0
 18 20  1  0
 16 21  2  0
 16 22  1  0
 15 23  1  0
 21 24  1  0
 22 25  1  0
 24 25  2  0
 23 26  2  0
 23 27  1  0
 25 28  1  0
 27 29  1  0
 26 30  1  0
 27 31  2  0
 30 32  2  0
 31 32  1  0
M  END
