x1334_0-x0831_0-x0692_1-x1374_1-x0397_0-x1412_1-x0434_2-x1334_1-x0831_1-x1418_1-x0770_1-x1385_1-x0426_1
     RDKit          3D

 44 49  0  0  0  0  0  0  0  0999 V2000
    2.3890   -7.6690   23.1840 O   0  0  0  0  0  0  0  0  0  0  0  0
    2.5980   -7.8600   24.5740 C   0  0  0  0  0  0  0  0  0  0  0  0
    3.9770   -8.1100   24.7630 O   0  0  0  0  0  0  0  0  0  0  0  0
    4.7670   -6.9350   24.9110 C   0  0  0  0  0  0  0  0  0  0  0  0
    4.4610   -6.0340   23.9090 C   0  0  0  0  0  0  0  0  0  0  0  0
    5.6660   -5.6970   23.0890 C   0  0  2  0  0  0  0  0  0  0  0  0
    5.5540   -4.5940   22.2060 C   0  0  2  0  0  0  0  0  0  0  0  0
    5.7640   -6.1970   21.8510 C   0  0  0  0  0  0  0  0  0  0  0  0
    6.6540   -3.6150   22.0780 C   0  0  1  0  0  0  0  0  0  0  0  0
    6.4890   -2.6740   20.9750 N   0  0  0  0  0  0  0  0  0  0  0  0
    7.0460   -2.9920   23.2240 C   0  0  0  0  0  0  0  0  0  0  0  0
    6.2140   -3.2830   19.7760 C   0  0  0  0  0  0  0  0  0  0  0  0
    8.4400   -2.7640   23.0180 N   0  0  0  0  0  0  0  0  0  0  0  0
    7.5830   -1.6970   20.8950 C   0  0  1  0  0  0  0  0  0  0  0  0
    5.2760   -4.0640   19.6450 O   0  0  0  0  0  0  0  0  0  0  0  0
    7.1960   -2.9770   18.6600 C   0  0  0  0  0  0  0  0  0  0  0  0
    9.2390   -2.6300   24.1930 C   0  0  2  0  0  0  0  0  0  0  0  0
    7.4320   -0.4270   21.8810 C   0  0  0  0  0  0  0  0  0  0  0  0
    8.6650   -1.6750   21.9780 C   0  0  0  0  0  0  0  0  0  0  0  0
    5.9810    0.0910   21.8540 C   0  0  1  0  0  0  0  0  0  0  0  0
   10.6620   -2.4800   23.7000 C   0  0  0  0  0  0  0  0  0  0  0  0
    9.0800   -3.7370   25.2540 C   0  0  0  0  0  0  0  0  0  0  0  0
    5.5470    1.2730   22.7680 C   0  0  0  0  0  0  0  0  0  0  0  0
    5.8070    0.5120   20.3910 C   0  0  0  0  0  0  0  0  0  0  0  0
    9.8900   -4.8560   25.4890 C   0  0  0  0  0  0  0  0  0  0  0  0
    7.7700   -3.6600   26.3640 S   0  0  0  0  0  0  0  0  0  0  0  0
   11.0920   -1.0560   23.6200 C   0  0  0  0  0  0  0  0  0  0  0  0
    4.0340    1.5030   22.5720 C   0  0  1  0  0  0  0  0  0  0  0  0
    4.6180    1.3760   20.0790 C   0  0  0  0  0  0  0  0  0  0  0  0
    6.6460    0.1750   19.3370 C   0  0  0  0  0  0  0  0  0  0  0  0
    9.4050   -5.5780   26.5760 C   0  0  0  0  0  0  0  0  0  0  0  0
    8.2670   -5.0450   27.1680 C   0  0  0  0  0  0  0  0  0  0  0  0
   10.4630    0.1310   24.0250 C   0  0  0  0  0  0  0  0  0  0  0  0
   12.4450   -0.7040   23.0040 C   0  0  0  0  0  0  0  0  0  0  0  0
    3.5990    2.5890   23.4330 N   0  0  0  0  0  0  0  0  0  0  0  0
    3.6270    1.7990   21.1330 C   0  0  0  0  0  0  0  0  0  0  0  0
    7.3540   -5.5580   28.5190 Cl  0  0  0  0  0  0  0  0  0  0  0  0
   13.2690   -1.8180   22.4750 C   0  0  0  0  0  0  0  0  0  0  0  0
    4.4570    1.8260   18.6080 C   0  0  0  0  0  0  0  0  0  0  0  0
    6.5350    0.5340   18.0530 N   0  0  0  0  0  0  0  0  0  0  0  0
   10.9990    1.3980   23.9010 C   0  0  0  0  0  0  0  0  0  0  0  0
   12.9520    0.5550   22.8970 C   0  0  0  0  0  0  0  0  0  0  0  0
    5.4930    1.3160   17.7630 C   0  0  0  0  0  0  0  0  0  0  0  0
   12.2370    1.6490   23.3470 C   0  0  0  0  0  0  0  0  0  0  0  0
  1  2  1  0
  2  3  1  0
  3  4  1  0
  4  5  1  0
  6  5  1  6
  6  7  1  0
  6  8  1  0
  7  8  1  6
  7  9  1  0
  9 10  1  0
  9 11  1  1
 10 12  1  0
 11 13  1  0
 10 14  1  0
 12 15  2  0
 12 16  1  0
 13 17  1  0
 14 18  1  1
 13 19  1  0
 14 19  1  0
 20 18  1  6
 17 21  1  6
 17 22  1  0
 20 23  1  0
 20 24  1  0
 22 25  2  0
 22 26  1  0
 21 27  1  0
 23 28  1  0
 24 29  2  0
 24 30  1  0
 25 31  1  0
 26 32  1  0
 31 32  2  0
 27 33  2  0
 27 34  1  0
 28 35  1  1
 28 36  1  0
 29 36  1  0
 32 37  1  0
 34 38  1  0
 29 39  1  0
 30 40  2  0
 33 41  1  0
 34 42  2  0
 39 43  2  0
 40 43  1  0
 41 44  2  0
 42 44  1  0
M  END
