x1334_0-x0831_1-x1418_0
     RDKit          3D

 23 25  0  0  0  0  0  0  0  0999 V2000
    6.2250   -3.3900   19.9740 C   0  0  0  0  0  0  0  0  0  0  0  0
    7.2940   -3.0650   18.9350 C   0  0  0  0  0  0  0  0  0  0  0  0
    5.3350   -4.2070   19.7460 O   0  0  0  0  0  0  0  0  0  0  0  0
    6.3010   -2.7640   21.1990 N   0  0  0  0  0  0  0  0  0  0  0  0
    6.1210   -1.3280   21.4300 C   0  0  0  0  0  0  0  0  0  0  0  0
    6.7770   -3.5660   22.3170 C   0  0  0  0  0  0  0  0  0  0  0  0
    7.4460   -0.5020   21.5750 C   0  0  0  0  0  0  0  0  0  0  0  0
    7.1110   -2.6900   23.5250 C   0  0  0  0  0  0  0  0  0  0  0  0
    8.3450   -1.9310   23.3330 N   0  0  0  0  0  0  0  0  0  0  0  0
    8.5130   -1.5060   21.9810 C   0  0  0  0  0  0  0  0  0  0  0  0
    9.4480   -2.6110   23.7700 C   0  0  2  0  0  0  0  0  0  0  0  0
    9.8760   -3.4120   22.6390 C   0  0  0  0  0  0  0  0  0  0  0  0
    9.2500   -3.6200   24.8810 C   0  0  0  0  0  0  0  0  0  0  0  0
   10.6090   -1.5810   23.7740 C   0  0  0  0  0  0  0  0  0  0  0  0
    9.8970   -4.8750   25.0480 C   0  0  0  0  0  0  0  0  0  0  0  0
    8.1240   -3.4900   26.2080 S   0  0  0  0  0  0  0  0  0  0  0  0
   11.8170   -1.6040   22.9540 C   0  0  0  0  0  0  0  0  0  0  0  0
   10.6050   -0.1840   24.7730 S   0  0  0  0  0  0  0  0  0  0  0  0
    9.4510   -5.6650   26.2350 C   0  0  0  0  0  0  0  0  0  0  0  0
    8.4750   -5.0140   26.9520 C   0  0  0  0  0  0  0  0  0  0  0  0
   12.6480   -0.5200   23.1580 C   0  0  0  0  0  0  0  0  0  0  0  0
   12.0880    0.3120   24.1150 C   0  0  0  0  0  0  0  0  0  0  0  0
    7.6620   -5.5320   28.3630 Cl  0  0  0  0  0  0  0  0  0  0  0  0
  1  2  1  0
  1  3  2  0
  1  4  1  0
  4  5  1  0
  4  6  1  0
  5  7  1  0
  6  8  1  0
  8  9  1  0
  7 10  1  0
  9 10  1  0
  9 11  1  0
 11 12  1  6
 11 13  1  0
 11 14  1  0
 13 15  2  0
 13 16  1  0
 14 17  2  0
 14 18  1  0
 15 19  1  0
 16 20  1  0
 19 20  2  0
 17 21  1  0
 18 22  1  0
 21 22  2  0
 20 23  1  0
M  END
