x1334_0-x1412_1-x0831_0-x0397_0
     RDKit          3D

 27 30  0  0  0  0  0  0  0  0999 V2000
    6.3770   -3.3160   19.8790 C   0  0  0  0  0  0  0  0  0  0  0  0
    7.3950   -3.0380   18.7910 C   0  0  0  0  0  0  0  0  0  0  0  0
    5.4090   -4.0710   19.7180 O   0  0  0  0  0  0  0  0  0  0  0  0
    6.6330   -2.6800   21.0900 N   0  0  0  0  0  0  0  0  0  0  0  0
    7.6130   -1.5720   21.2180 C   0  0  0  0  0  0  0  0  0  0  0  0
    6.2540   -3.1900   22.4240 C   0  0  2  0  0  0  0  0  0  0  0  0
    8.7840   -1.9820   22.1300 C   0  0  0  0  0  0  0  0  0  0  0  0
    7.3670   -3.7070   23.1190 C   0  0  0  0  0  0  0  0  0  0  0  0
    6.0670   -4.6370   22.8720 C   0  0  0  0  0  0  0  0  0  0  0  0
    8.3900   -2.6600   23.3820 N   0  0  0  0  0  0  0  0  0  0  0  0
    6.9130   -5.7270   22.4750 C   0  0  0  0  0  0  0  0  0  0  0  0
    5.8390   -5.8220   21.8440 C   0  0  0  0  0  0  0  0  0  0  0  0
    9.5440   -3.2700   23.8870 C   0  0  1  0  0  0  0  0  0  0  0  0
   10.7380   -2.5730   24.2180 C   0  0  0  0  0  0  0  0  0  0  0  0
    9.1660   -4.1480   25.0430 C   0  0  0  0  0  0  0  0  0  0  0  0
    9.7870   -5.4630   25.3010 C   0  0  0  0  0  0  0  0  0  0  0  0
    7.9910   -3.8250   26.2500 S   0  0  0  0  0  0  0  0  0  0  0  0
   11.0720   -1.1210   23.9520 C   0  0  0  0  0  0  0  0  0  0  0  0
    9.2070   -6.1360   26.5450 C   0  0  0  0  0  0  0  0  0  0  0  0
    8.2390   -5.3120   27.1010 C   0  0  0  0  0  0  0  0  0  0  0  0
   10.2680   -0.0770   24.5450 C   0  0  0  0  0  0  0  0  0  0  0  0
   12.1900   -0.8340   23.1370 C   0  0  0  0  0  0  0  0  0  0  0  0
    7.3080   -5.6410   28.4940 Cl  0  0  0  0  0  0  0  0  0  0  0  0
   13.0170   -1.9110   22.5040 C   0  0  0  0  0  0  0  0  0  0  0  0
   10.6430    1.2290   24.2860 C   0  0  0  0  0  0  0  0  0  0  0  0
   12.5740    0.4590   22.8860 C   0  0  0  0  0  0  0  0  0  0  0  0
   11.7360    1.5290   23.5060 C   0  0  0  0  0  0  0  0  0  0  0  0
  1  2  1  0
  1  3  2  0
  1  4  1  0
  4  5  1  0
  4  6  1  0
  5  7  1  0
  6  8  1  0
  6  9  1  6
  7 10  1  0
  8 10  1  0
  9 11  1  0
  9 12  1  0
 11 12  1  0
 10 13  1  0
 13 14  1  1
 13 15  1  0
 15 16  2  0
 15 17  1  0
 14 18  1  0
 16 19  1  0
 17 20  1  0
 19 20  2  0
 18 21  2  0
 18 22  1  0
 20 23  1  0
 22 24  1  0
 21 25  1  0
 22 26  2  0
 25 27  2  0
 26 27  1  0
M  END
