x1334_0-x1412_1-x0770_1-x0692_1-x0831_0-x0831_1-x1385_1-x0434_2-x0397_0
     RDKit          3D

 34 38  0  0  0  0  0  0  0  0999 V2000
    6.3280   -3.2820   19.8730 C   0  0  0  0  0  0  0  0  0  0  0  0
    7.3940   -2.9730   18.8250 C   0  0  0  0  0  0  0  0  0  0  0  0
    5.3030   -3.8960   19.5830 O   0  0  0  0  0  0  0  0  0  0  0  0
    6.5550   -2.9650   21.2210 N   0  0  0  0  0  0  0  0  0  0  0  0
    7.2010   -1.7120   21.6590 C   0  0  2  0  0  0  0  0  0  0  0  0
    6.8890   -4.1660   22.0070 C   0  0  1  0  0  0  0  0  0  0  0  0
    7.6070   -0.8280   20.5950 N   0  0  0  0  0  0  0  0  0  0  0  0
    8.4980   -1.9940   22.4010 C   0  0  0  0  0  0  0  0  0  0  0  0
    7.8410   -3.9760   23.2140 C   0  0  0  0  0  0  0  0  0  0  0  0
    5.6760   -4.8380   22.5600 C   0  0  0  0  0  0  0  0  0  0  0  0
    8.1860   -2.6140   23.5530 N   0  0  0  0  0  0  0  0  0  0  0  0
    5.8240   -5.9150   23.4520 C   0  0  0  0  0  0  0  0  0  0  0  0
    5.3360   -6.4410   22.4140 C   0  0  0  0  0  0  0  0  0  0  0  0
    6.7010   -0.0730   19.9030 C   0  0  0  0  0  0  0  0  0  0  0  0
    9.2950   -2.6680   24.4640 C   0  0  2  0  0  0  0  0  0  0  0  0
    7.0050    0.0350   18.5750 C   0  0  0  0  0  0  0  0  0  0  0  0
    5.5570    0.5680   20.3890 C   0  0  0  0  0  0  0  0  0  0  0  0
   10.6520   -2.5850   23.8240 C   0  0  0  0  0  0  0  0  0  0  0  0
    9.1370   -3.8720   25.3440 C   0  0  0  0  0  0  0  0  0  0  0  0
    6.2250    0.7840   17.6160 N   0  0  0  0  0  0  0  0  0  0  0  0
    4.6640    1.3960   19.4110 C   0  0  0  0  0  0  0  0  0  0  0  0
    9.8260   -5.2180   25.4380 C   0  0  0  0  0  0  0  0  0  0  0  0
    7.8940   -3.8680   26.6100 S   0  0  0  0  0  0  0  0  0  0  0  0
   11.1080   -1.1510   23.7330 C   0  0  0  0  0  0  0  0  0  0  0  0
    5.1240    1.4310   18.0040 C   0  0  0  0  0  0  0  0  0  0  0  0
    9.2900   -5.9780   26.4460 C   0  0  0  0  0  0  0  0  0  0  0  0
    8.2530   -5.4380   27.1850 C   0  0  0  0  0  0  0  0  0  0  0  0
   10.3950   -0.0890   24.3520 C   0  0  0  0  0  0  0  0  0  0  0  0
   12.3410   -0.8500   22.9680 C   0  0  0  0  0  0  0  0  0  0  0  0
    7.3490   -6.0680   28.4830 Cl  0  0  0  0  0  0  0  0  0  0  0  0
   13.1100   -1.9320   22.2850 C   0  0  0  0  0  0  0  0  0  0  0  0
   10.8730    1.2010   24.2210 C   0  0  0  0  0  0  0  0  0  0  0  0
   12.8090    0.4550   22.8620 C   0  0  0  0  0  0  0  0  0  0  0  0
   12.1760    1.5530   23.4300 C   0  0  0  0  0  0  0  0  0  0  0  0
  1  2  1  0
  1  3  2  0
  1  4  1  0
  4  5  1  0
  4  6  1  0
  5  7  1  6
  5  8  1  0
  6  9  1  0
  6 10  1  1
  8 11  1  0
  9 11  1  0
 10 12  1  0
 10 13  1  0
 12 13  1  0
  7 14  1  0
 11 15  1  0
 14 16  2  0
 14 17  1  0
 15 18  1  6
 15 19  1  0
 16 20  1  0
 17 21  2  0
 19 22  2  0
 19 23  1  0
 18 24  1  0
 20 25  2  0
 21 25  1  0
 22 26  1  0
 23 27  1  0
 26 27  2  0
 24 28  2  0
 24 29  1  0
 27 30  1  0
 29 31  1  0
 28 32  1  0
 29 33  2  0
 32 34  2  0
 33 34  1  0
M  END
