x1334_1-x0820_1-x0434_2-x1412_0-x1418_0
     RDKit          3D

 40 47  0  0  0  0  0  0  0  0999 V2000
    6.5330   -3.1970   19.6980 C   0  0  0  0  0  0  0  0  0  0  0  0
    7.1360   -2.5360   18.4720 C   0  0  0  0  0  0  0  0  0  0  0  0
    5.7910   -4.1670   19.5620 O   0  0  0  0  0  0  0  0  0  0  0  0
    6.8670   -2.7290   20.9200 C   0  0  1  0  0  0  0  0  0  0  0  0
    7.5420   -2.5260   22.4730 C   0  0  0  0  0  0  0  0  0  0  0  0
    7.7100   -1.5650   21.2060 C   0  0  1  0  0  0  0  0  0  0  0  0
    6.4300   -3.3760   22.1540 C   0  0  0  0  0  0  0  0  0  0  0  0
    7.3290   -0.6840   20.9150 N   0  0  0  0  0  0  0  0  0  0  0  0
    8.4690   -2.6360   23.2960 N   0  0  0  0  0  0  0  0  0  0  0  0
    8.8930   -1.9680   22.0610 C   0  0  2  0  0  0  0  0  0  0  0  0
    7.6400   -3.7960   22.9530 C   0  0  0  0  0  0  0  0  0  0  0  0
    7.0350   -3.5860   22.5530 C   0  0  0  0  0  0  0  0  0  0  0  0
    8.4350   -2.5230   24.8290 C   0  0  0  0  0  0  0  0  0  0  0  0
   10.0540   -2.6430   23.5460 C   0  0  2  0  0  0  0  0  0  0  0  0
    6.4390   -4.2050   23.9830 C   0  0  1  0  0  0  0  0  0  0  0  0
    6.6490    0.0080   19.8530 C   0  0  0  0  0  0  0  0  0  0  0  0
    8.3330   -1.3830   25.2750 O   0  0  0  0  0  0  0  0  0  0  0  0
    9.2450   -2.5830   24.1880 C   0  0  0  0  0  0  0  0  0  0  0  0
    6.8860   -4.2170   25.3580 C   0  0  0  0  0  0  0  0  0  0  0  0
    5.0990   -4.3650   23.7200 C   0  0  0  0  0  0  0  0  0  0  0  0
    7.1890    0.0390   18.5790 C   0  0  0  0  0  0  0  0  0  0  0  0
    5.4460    0.6340   20.1390 C   0  0  0  0  0  0  0  0  0  0  0  0
   11.0210   -1.5060   23.5860 C   0  0  0  0  0  0  0  0  0  0  0  0
    5.9160   -4.3990   26.3890 C   0  0  0  0  0  0  0  0  0  0  0  0
    4.1540   -4.5400   24.7490 C   0  0  0  0  0  0  0  0  0  0  0  0
    8.2410   -4.0590   25.7640 C   0  0  1  0  0  0  0  0  0  0  0  0
    6.5560    0.6700   17.6270 N   0  0  0  0  0  0  0  0  0  0  0  0
    4.8170    1.2970   19.0970 C   0  0  0  0  0  0  0  0  0  0  0  0
   12.1120   -1.2610   22.7430 C   0  0  0  0  0  0  0  0  0  0  0  0
   10.8900   -0.2770   24.7770 S   0  0  0  0  0  0  0  0  0  0  0  0
    4.5530   -4.5590   26.0430 C   0  0  0  0  0  0  0  0  0  0  0  0
    8.6000   -4.0860   27.0800 C   0  0  1  0  0  0  0  0  0  0  0  0
    6.3270   -4.4200   27.7430 C   0  0  0  0  0  0  0  0  0  0  0  0
    9.6190   -4.6380   25.4440 C   0  0  0  0  0  0  0  0  0  0  0  0
    5.4080    1.2680   17.8390 C   0  0  0  0  0  0  0  0  0  0  0  0
   12.7990   -0.0810   23.1240 C   0  0  0  0  0  0  0  0  0  0  0  0
   12.1210    0.6380   24.0450 C   0  0  0  0  0  0  0  0  0  0  0  0
    7.6330   -4.2720   28.0760 C   0  0  0  0  0  0  0  0  0  0  0  0
    9.4890   -5.6710   26.3930 C   0  0  0  0  0  0  0  0  0  0  0  0
    8.7150   -5.3290   27.4460 C   0  0  0  0  0  0  0  0  0  0  0  0
  1  2  1  0
  1  3  2  0
  4  1  1  6
  4  5  1  0
  4  6  1  0
  4  7  1  0
  6  8  1  1
  5  9  1  0
  6 10  1  0
 10  9  1  6
  5 11  2  0
  7 12  2  0
 11 12  1  0
  9 13  1  0
 10 14  1  0
 15 11  1  1
  8 16  1  0
 13 17  2  0
 13 18  1  0
 14 18  1  0
 15 19  1  0
 15 20  1  0
 16 21  2  0
 16 22  1  0
 14 23  1  1
 19 24  1  0
 20 25  1  0
 19 26  1  0
 21 27  1  0
 22 28  2  0
 23 29  2  0
 23 30  1  0
 24 31  1  0
 25 31  2  0
 26 32  1  0
 24 33  1  0
 26 34  1  6
 27 35  2  0
 28 35  1  0
 29 36  1  0
 30 37  1  0
 36 37  2  0
 32 38  1  1
 33 38  2  0
 34 39  2  0
 32 40  1  0
 39 40  1  0
M  END
