x1336_0-x1418_0-x1386_0
     RDKit          3D

 17 18  0  0  0  0  0  0  0  0999 V2000
    6.3950   -3.5150   19.9670 C   0  0  0  0  0  0  0  0  0  0  0  0
    7.3140   -3.0750   18.8410 C   0  0  0  0  0  0  0  0  0  0  0  0
    5.4080   -4.2250   19.7690 O   0  0  0  0  0  0  0  0  0  0  0  0
    6.7710   -3.1110   21.2350 N   0  0  0  0  0  0  0  0  0  0  0  0
    6.6580   -3.9370   22.3100 C   0  0  0  0  0  0  0  0  0  0  0  0
    7.8450   -2.1310   21.3550 C   0  0  0  0  0  0  0  0  0  0  0  0
    6.3530   -3.0970   23.5520 C   0  0  0  0  0  0  0  0  0  0  0  0
    7.4840   -1.2250   22.5230 C   0  0  0  0  0  0  0  0  0  0  0  0
    7.0570   -2.0080   23.6920 N   0  0  0  0  0  0  0  0  0  0  0  0
    8.1330   -2.1790   24.6540 C   0  0  0  0  0  0  0  0  0  0  0  0
    9.5220   -1.7510   24.1510 C   0  0  0  0  0  0  0  0  0  0  0  0
   10.3100   -2.9630   23.6650 C   0  0  0  0  0  0  0  0  0  0  0  0
   11.1450   -1.7070   23.5740 C   0  0  0  0  0  0  0  0  0  0  0  0
   12.2900   -1.4350   22.6160 C   0  0  0  0  0  0  0  0  0  0  0  0
   10.9330   -0.3350   24.5800 S   0  0  0  0  0  0  0  0  0  0  0  0
   12.8700   -0.0590   22.8420 C   0  0  0  0  0  0  0  0  0  0  0  0
   12.2010    0.5840   23.8560 C   0  0  0  0  0  0  0  0  0  0  0  0
  1  2  1  0
  1  3  2  0
  1  4  1  0
  4  5  1  0
  4  6  1  0
  5  7  1  0
  6  8  1  0
  7  9  1  0
  8  9  1  0
  9 10  1  0
 10 11  1  0
 11 12  1  0
 12 13  1  0
 13 14  2  0
 13 15  1  0
 14 16  1  0
 15 17  1  0
 16 17  2  0
M  END
