x1334_0-x0769_1
     RDKit          3D

 18 19  0  0  0  0  0  0  0  0999 V2000
    4.6520   -5.3700   25.7840 S   0  0  1  0  0  0  0  0  0  0  0  0
    5.9560   -5.0450   26.7950 N   0  0  0  0  0  0  0  0  0  0  0  0
    6.2210   -5.8330   27.9210 C   0  0  0  0  0  0  0  0  0  0  0  0
    3.8140   -6.5440   25.8440 O   0  0  0  0  0  0  0  0  0  0  0  0
    3.6670   -3.9120   25.8970 C   0  0  0  0  0  0  0  0  0  0  0  0
    2.2880   -4.0540   25.8330 C   0  0  0  0  0  0  0  0  0  0  0  0
    4.2600   -2.6290   26.0550 C   0  0  0  0  0  0  0  0  0  0  0  0
    5.6030   -2.4970   26.1150 F   0  0  0  0  0  0  0  0  0  0  0  0
    7.5680   -5.7410   28.2820 C   0  0  0  0  0  0  0  0  0  0  0  0
    1.4310   -2.9410   25.9270 C   0  0  0  0  0  0  0  0  0  0  0  0
    3.4150   -1.3690   26.1660 C   0  0  0  0  0  0  0  0  0  0  0  0
    1.9240   -1.5430   26.1010 C   0  0  0  0  0  0  0  0  0  0  0  0
    8.3960   -5.3280   27.1110 C   0  0  0  0  0  0  0  0  0  0  0  0
    9.3820   -6.0130   26.4200 C   0  0  0  0  0  0  0  0  0  0  0  0
    8.2100   -3.8130   26.3930 S   0  0  0  0  0  0  0  0  0  0  0  0
    9.4120   -4.0770   25.1970 C   0  0  0  0  0  0  0  0  0  0  0  0
    9.9230   -5.3290   25.3870 C   0  0  0  0  0  0  0  0  0  0  0  0
    9.7490   -3.0320   24.1740 C   0  0  0  0  0  0  0  0  0  0  0  0
  1  2  2  0
  2  3  1  0
  1  4  2  0
  1  5  1  1
  5  6  2  0
  5  7  1  0
  7  8  1  0
  3  9  1  0
  6 10  1  0
  7 11  2  0
 10 12  2  0
 11 12  1  0
  9 13  1  0
 13 14  2  0
 13 15  1  0
 15 16  1  0
 14 17  1  0
 16 17  2  0
 16 18  1  0
M  END
