x1334_0-x1334_1-x0397_0-x1418_1-x0434_2-x0831_1-x0692_1-x1385_1-x0770_1-x0831_0-x1386_1-x1374_1-x1412_1
     RDKit          3D

 39 43  0  0  0  0  0  0  0  0999 V2000
    2.7670   -7.2780   23.1020 O   0  0  0  0  0  0  0  0  0  0  0  0
    2.6400   -7.6380   24.4610 C   0  0  0  0  0  0  0  0  0  0  0  0
    3.9030   -8.0380   24.9590 O   0  0  0  0  0  0  0  0  0  0  0  0
    5.0170   -7.3350   24.4200 C   0  0  0  0  0  0  0  0  0  0  0  0
    4.7800   -6.0030   24.2850 C   0  0  0  0  0  0  0  0  0  0  0  0
    5.7280   -5.6760   23.1990 C   0  0  2  0  0  0  0  0  0  0  0  0
    5.6390   -4.6410   22.3020 C   0  0  2  0  0  0  0  0  0  0  0  0
    5.4120   -6.1580   21.8380 C   0  0  0  0  0  0  0  0  0  0  0  0
    6.8870   -3.9680   21.9050 C   0  0  1  0  0  0  0  0  0  0  0  0
    6.6910   -2.8510   20.9980 N   0  0  0  0  0  0  0  0  0  0  0  0
    7.7590   -3.7930   23.1250 C   0  0  0  0  0  0  0  0  0  0  0  0
    6.3430   -3.2550   19.7380 C   0  0  0  0  0  0  0  0  0  0  0  0
    8.2010   -2.4470   23.3730 N   0  0  0  0  0  0  0  0  0  0  0  0
    7.6940   -1.7470   21.0780 C   0  0  1  0  0  0  0  0  0  0  0  0
    7.3300   -2.9810   18.6260 C   0  0  0  0  0  0  0  0  0  0  0  0
    5.3060   -3.8880   19.5360 O   0  0  0  0  0  0  0  0  0  0  0  0
    9.2260   -2.5230   24.2190 C   0  0  2  0  0  0  0  0  0  0  0  0
    7.0010   -0.4740   21.2680 N   0  0  0  0  0  0  0  0  0  0  0  0
    8.7550   -1.8590   22.1650 C   0  0  0  0  0  0  0  0  0  0  0  0
   10.4700   -2.4590   23.3770 C   0  0  0  0  0  0  0  0  0  0  0  0
    9.0380   -3.6370   25.2510 C   0  0  0  0  0  0  0  0  0  0  0  0
    6.4160    0.1330   20.1540 C   0  0  0  0  0  0  0  0  0  0  0  0
    9.9050   -4.9020   25.4050 C   0  0  0  0  0  0  0  0  0  0  0  0
    7.8170   -3.6510   26.4250 S   0  0  0  0  0  0  0  0  0  0  0  0
   11.0440   -1.0680   23.3860 C   0  0  0  0  0  0  0  0  0  0  0  0
    6.9160    0.0660   18.7950 C   0  0  0  0  0  0  0  0  0  0  0  0
    5.2510    0.8750   20.3160 C   0  0  0  0  0  0  0  0  0  0  0  0
    9.4330   -5.7650   26.5600 C   0  0  0  0  0  0  0  0  0  0  0  0
    8.2170   -5.1070   27.2330 C   0  0  0  0  0  0  0  0  0  0  0  0
   10.2470    0.1540   23.9560 C   0  0  0  0  0  0  0  0  0  0  0  0
   12.4410   -0.7790   22.8360 C   0  0  0  0  0  0  0  0  0  0  0  0
    6.3460    0.6630   17.7360 N   0  0  0  0  0  0  0  0  0  0  0  0
    4.6210    1.5110   19.2300 C   0  0  0  0  0  0  0  0  0  0  0  0
    7.2460   -5.5740   28.6020 Cl  0  0  0  0  0  0  0  0  0  0  0  0
   13.1980   -1.9240   22.2750 C   0  0  0  0  0  0  0  0  0  0  0  0
   10.8810    1.5190   23.9470 C   0  0  0  0  0  0  0  0  0  0  0  0
   12.9360    0.5170   22.8760 C   0  0  0  0  0  0  0  0  0  0  0  0
    5.2230    1.3710   17.9460 C   0  0  0  0  0  0  0  0  0  0  0  0
   12.2440    1.5950   23.3790 C   0  0  0  0  0  0  0  0  0  0  0  0
  1  2  1  0
  2  3  1  0
  3  4  1  0
  4  5  1  0
  6  5  1  1
  6  7  1  0
  6  8  1  0
  7  8  1  6
  7  9  1  0
  9 10  1  0
  9 11  1  1
 10 12  1  0
 11 13  1  0
 10 14  1  0
 12 15  1  0
 12 16  2  0
 13 17  1  0
 14 18  1  1
 13 19  1  0
 14 19  1  0
 17 20  1  6
 17 21  1  0
 18 22  1  0
 21 23  2  0
 21 24  1  0
 20 25  1  0
 22 26  2  0
 22 27  1  0
 23 28  1  0
 24 29  1  0
 28 29  2  0
 25 30  2  0
 25 31  1  0
 26 32  1  0
 27 33  2  0
 29 34  1  0
 31 35  1  0
 30 36  1  0
 31 37  2  0
 32 38  2  0
 33 38  1  0
 36 39  2  0
 37 39  1  0
M  END
