x1334_1-x1418_1-x0831_0-x0397_0-x0434_2-x1334_0-x1412_1-x0770_1-x0692_1-x0426_1
     RDKit          3D

 40 46  0  0  0  0  0  0  0  0999 V2000
    6.3510   -3.3470   19.8480 C   0  0  0  0  0  0  0  0  0  0  0  0
    7.2850   -3.0490   18.6820 C   0  0  0  0  0  0  0  0  0  0  0  0
    5.4650   -4.2110   19.7750 O   0  0  0  0  0  0  0  0  0  0  0  0
    6.6050   -2.5620   20.9760 N   0  0  0  0  0  0  0  0  0  0  0  0
    7.7690   -1.6720   20.7650 C   0  0  1  0  0  0  0  0  0  0  0  0
    6.5880   -3.2480   22.2770 C   0  0  2  0  0  0  0  0  0  0  0  0
    7.4440   -0.3390   21.0000 N   0  0  0  0  0  0  0  0  0  0  0  0
    9.0260   -1.9200   21.5580 C   0  0  0  0  0  0  0  0  0  0  0  0
    7.8000   -3.5060   22.9280 C   0  0  0  0  0  0  0  0  0  0  0  0
    6.8580   -4.7430   22.2530 C   0  0  0  0  0  0  0  0  0  0  0  0
    6.7830   -0.1160   22.2800 C   0  0  0  0  0  0  0  0  0  0  0  0
    8.7100   -2.2840   22.9180 N   0  0  0  0  0  0  0  0  0  0  0  0
    6.5510   -5.6520   23.1070 C   0  0  0  0  0  0  0  0  0  0  0  0
    5.7040   -5.9260   22.1760 C   0  0  0  0  0  0  0  0  0  0  0  0
    6.5370    0.2930   20.0260 C   0  0  0  0  0  0  0  0  0  0  0  0
    5.7470    1.0010   22.1680 C   0  0  1  0  0  0  0  0  0  0  0  0
   10.0970   -2.3750   23.3400 C   0  0  2  0  0  0  0  0  0  0  0  0
    6.5320    0.2340   18.5420 N   0  0  0  0  0  0  0  0  0  0  0  0
    5.5690    1.0330   20.6820 C   0  0  0  0  0  0  0  0  0  0  0  0
    4.3530    0.9490   22.7780 C   0  0  0  0  0  0  0  0  0  0  0  0
   10.5460   -3.2180   24.5520 C   0  0  0  0  0  0  0  0  0  0  0  0
    4.5690    1.7190   20.0480 C   0  0  0  0  0  0  0  0  0  0  0  0
    5.5290    0.9510   17.9830 C   0  0  0  0  0  0  0  0  0  0  0  0
   10.6800   -0.9990   23.4290 C   0  0  0  0  0  0  0  0  0  0  0  0
    3.7200    2.3090   22.4250 C   0  0  1  0  0  0  0  0  0  0  0  0
    3.5450    2.4730   20.8550 C   0  0  0  0  0  0  0  0  0  0  0  0
    4.5610    1.6750   18.6210 C   0  0  0  0  0  0  0  0  0  0  0  0
   10.1180    0.1640   23.9300 C   0  0  0  0  0  0  0  0  0  0  0  0
   12.1210   -0.8990   22.8700 C   0  0  0  0  0  0  0  0  0  0  0  0
    9.6010   -4.0160   25.4210 C   0  0  0  0  0  0  0  0  0  0  0  0
    2.6160    2.4300   23.0870 N   0  0  0  0  0  0  0  0  0  0  0  0
   12.8960   -2.0210   22.2720 C   0  0  0  0  0  0  0  0  0  0  0  0
   10.7530    1.4140   23.9750 C   0  0  0  0  0  0  0  0  0  0  0  0
   12.7190    0.3450   22.9310 C   0  0  0  0  0  0  0  0  0  0  0  0
   10.0690   -5.4080   25.7390 C   0  0  0  0  0  0  0  0  0  0  0  0
    8.0870   -3.6850   26.1760 S   0  0  0  0  0  0  0  0  0  0  0  0
   12.0300    1.5890   23.5050 C   0  0  0  0  0  0  0  0  0  0  0  0
    9.2890   -6.1150   26.5220 C   0  0  0  0  0  0  0  0  0  0  0  0
    8.0620   -5.2310   26.8940 C   0  0  0  0  0  0  0  0  0  0  0  0
    6.7780   -5.7040   27.9210 Cl  0  0  0  0  0  0  0  0  0  0  0  0
  1  2  1  0
  1  3  2  0
  1  4  1  0
  4  5  1  0
  4  6  1  0
  5  7  1  1
  5  8  1  0
  6  9  1  0
  6 10  1  6
  7 11  1  0
  8 12  1  0
  9 12  1  0
 10 13  1  0
 10 14  1  0
 13 14  1  0
  7 15  1  0
 16 11  1  6
 12 17  1  0
 15 18  2  0
 15 19  1  0
 16 19  1  0
 16 20  1  0
 17 21  1  1
 19 22  2  0
 18 23  1  0
 17 24  1  0
 20 25  1  0
 22 26  1  0
 25 26  1  0
 22 27  1  0
 23 27  2  0
 24 28  2  0
 24 29  1  0
 21 30  1  0
 25 31  1  1
 29 32  1  0
 28 33  1  0
 29 34  2  0
 30 35  2  0
 30 36  1  0
 33 37  2  0
 34 37  1  0
 35 38  1  0
 36 39  1  0
 38 39  2  0
 39 40  1  0
M  END
