x1334_0-x1374_1-x1412_1-x1386_1-x0397_0-x0692_1-x0770_1-x0831_0-x1375_1-x0434_2
     RDKit          3D

 39 43  0  0  0  0  0  0  0  0999 V2000
    1.9970   -7.0770   23.8420 O   0  0  0  0  0  0  0  0  0  0  0  0
    2.4130   -7.9770   24.8490 C   0  0  0  0  0  0  0  0  0  0  0  0
    3.8250   -8.0130   24.9060 O   0  0  0  0  0  0  0  0  0  0  0  0
    4.4210   -7.3010   23.8380 C   0  0  0  0  0  0  0  0  0  0  0  0
    4.6710   -6.0190   24.2070 C   0  0  0  0  0  0  0  0  0  0  0  0
    5.7860   -5.5890   23.3080 C   0  0  2  0  0  0  0  0  0  0  0  0
    5.5040   -4.5140   22.3550 C   0  0  2  0  0  0  0  0  0  0  0  0
    5.9360   -6.0720   21.9300 C   0  0  0  0  0  0  0  0  0  0  0  0
    6.4520   -3.3340   22.3740 C   0  0  2  0  0  0  0  0  0  0  0  0
    6.6670   -2.6700   21.0920 N   0  0  0  0  0  0  0  0  0  0  0  0
    7.7590   -3.8020   22.9430 C   0  0  0  0  0  0  0  0  0  0  0  0
    6.4220   -3.3470   19.8980 C   0  0  0  0  0  0  0  0  0  0  0  0
    8.6560   -2.7100   23.2390 N   0  0  0  0  0  0  0  0  0  0  0  0
    7.7890   -1.6980   21.0870 C   0  0  1  0  0  0  0  0  0  0  0  0
    7.3730   -3.0510   18.7430 C   0  0  0  0  0  0  0  0  0  0  0  0
    5.4980   -4.1650   19.7690 O   0  0  0  0  0  0  0  0  0  0  0  0
    9.7010   -3.0150   24.0510 C   0  0  1  0  0  0  0  0  0  0  0  0
    7.1600   -0.4220   21.3860 N   0  0  0  0  0  0  0  0  0  0  0  0
    8.9960   -2.0040   22.0070 C   0  0  0  0  0  0  0  0  0  0  0  0
   10.4370   -1.9170   24.7690 C   0  0  0  0  0  0  0  0  0  0  0  0
    9.2590   -4.0190   25.1170 C   0  0  0  0  0  0  0  0  0  0  0  0
    6.3650    0.2180   20.3170 C   0  0  0  0  0  0  0  0  0  0  0  0
    9.8740   -5.3790   25.2950 C   0  0  0  0  0  0  0  0  0  0  0  0
    7.9780   -3.7690   26.3370 S   0  0  0  0  0  0  0  0  0  0  0  0
   11.2100   -0.8260   24.0540 C   0  0  0  0  0  0  0  0  0  0  0  0
    6.9550    0.0390   18.8780 C   0  0  0  0  0  0  0  0  0  0  0  0
    5.0650    1.0290   20.3870 C   0  0  0  0  0  0  0  0  0  0  0  0
    9.2620   -6.2060   26.4890 C   0  0  0  0  0  0  0  0  0  0  0  0
    8.1620   -5.3740   27.1600 C   0  0  0  0  0  0  0  0  0  0  0  0
   10.5930    0.5220   24.3770 C   0  0  0  0  0  0  0  0  0  0  0  0
   12.3260   -0.9940   23.2350 C   0  0  0  0  0  0  0  0  0  0  0  0
    6.3880    0.5620   17.7810 N   0  0  0  0  0  0  0  0  0  0  0  0
    4.5900    1.5080   19.1410 C   0  0  0  0  0  0  0  0  0  0  0  0
    7.1810   -5.7960   28.4930 Cl  0  0  0  0  0  0  0  0  0  0  0  0
   13.0290   -2.2480   22.8210 C   0  0  0  0  0  0  0  0  0  0  0  0
   10.8930    1.9920   24.0070 C   0  0  0  0  0  0  0  0  0  0  0  0
   12.7340    0.2280   22.8300 C   0  0  0  0  0  0  0  0  0  0  0  0
    5.2530    1.2620   17.9440 C   0  0  0  0  0  0  0  0  0  0  0  0
   12.0790    1.5910   23.1840 C   0  0  0  0  0  0  0  0  0  0  0  0
  1  2  1  0
  2  3  1  0
  3  4  1  0
  4  5  1  0
  6  5  1  6
  6  7  1  0
  6  8  1  0
  7  8  1  6
  7  9  1  0
  9 10  1  0
  9 11  1  6
 10 12  1  0
 11 13  1  0
 10 14  1  0
 12 15  1  0
 12 16  2  0
 13 17  1  0
 14 18  1  1
 13 19  1  0
 14 19  1  0
 17 20  1  1
 17 21  1  0
 18 22  1  0
 21 23  2  0
 21 24  1  0
 20 25  1  0
 22 26  2  0
 22 27  1  0
 23 28  1  0
 24 29  1  0
 28 29  2  0
 25 30  2  0
 25 31  1  0
 26 32  1  0
 27 33  2  0
 29 34  1  0
 31 35  1  0
 30 36  1  0
 31 37  2  0
 32 38  2  0
 33 38  1  0
 36 39  2  0
 37 39  1  0
M  END
