x1334_0-x0946_0
     RDKit          3D

 21 22  0  0  0  0  0  0  0  0999 V2000
    9.0130    5.3430   22.6940 N   0  0  0  0  0  0  0  0  0  0  0  0
   10.3080    5.3940   23.7540 S   0  0  0  0  0  0  0  0  0  0  0  0
   10.0800    5.5430   25.1710 O   0  0  0  0  0  0  0  0  0  0  0  0
   11.2720    6.2870   23.1420 O   0  0  0  0  0  0  0  0  0  0  0  0
   11.1190    3.8290   23.4850 C   0  0  0  0  0  0  0  0  0  0  0  0
   12.4820    3.7670   22.9280 C   0  0  0  0  0  0  0  0  0  0  0  0
   10.4630    2.4720   23.8150 C   0  0  0  0  0  0  0  0  0  0  0  0
   13.1330    2.4240   22.7280 C   0  0  0  0  0  0  0  0  0  0  0  0
   11.1730    1.2670   23.5790 C   0  0  0  0  0  0  0  0  0  0  0  0
   12.5030    1.2290   23.0390 C   0  0  0  0  0  0  0  0  0  0  0  0
   13.0850   -0.0020   22.8620 O   0  0  0  0  0  0  0  0  0  0  0  0
   12.2860   -1.1660   22.7250 C   0  0  0  0  0  0  0  0  0  0  0  0
   11.6220   -1.4060   24.0710 C   0  0  0  0  0  0  0  0  0  0  0  0
   11.2470   -2.8760   24.1630 C   0  0  0  0  0  0  0  0  0  0  0  0
    9.7300   -3.0910   24.1570 C   0  0  0  0  0  0  0  0  0  0  0  0
    9.3240   -4.0810   25.2510 C   0  0  0  0  0  0  0  0  0  0  0  0
    9.9820   -5.2270   25.6080 C   0  0  0  0  0  0  0  0  0  0  0  0
    7.9220   -3.8450   26.2100 S   0  0  0  0  0  0  0  0  0  0  0  0
    9.3390   -5.9040   26.6520 C   0  0  0  0  0  0  0  0  0  0  0  0
    8.2130   -5.2820   27.0900 C   0  0  0  0  0  0  0  0  0  0  0  0
    7.1620   -5.7800   28.3440 Cl  0  0  0  0  0  0  0  0  0  0  0  0
  2  1  1  0
  2  3  2  0
  2  4  2  0
  2  5  1  0
  5  6  2  0
  5  7  1  0
  6  8  1  0
  7  9  2  0
  8 10  2  0
  9 10  1  0
 10 11  1  0
 11 12  1  0
 12 13  1  0
 13 14  1  0
 14 15  1  0
 15 16  1  0
 16 17  2  0
 16 18  1  0
 17 19  1  0
 18 20  1  0
 19 20  2  0
 20 21  1  0
M  END
