x1336_0-x0820_1-x0540_3-x1386_0-x1412_0
     RDKit          3D

 39 44  0  0  0  0  0  0  0  0999 V2000
    6.6600   -3.5110   19.8470 C   0  0  0  0  0  0  0  0  0  0  0  0
    7.2370   -2.6660   18.7440 C   0  0  0  0  0  0  0  0  0  0  0  0
    5.7690   -4.3120   19.5950 O   0  0  0  0  0  0  0  0  0  0  0  0
    7.1830   -3.3680   21.0860 C   0  0  1  0  0  0  0  0  0  0  0  0
    7.5420   -2.5260   22.4730 C   0  0  2  0  0  0  0  0  0  0  0  0
    6.7260   -4.1880   22.2090 C   0  0  0  0  0  0  0  0  0  0  0  0
    8.2530   -2.4320   21.4530 C   0  0  0  0  0  0  0  0  0  0  0  0
    7.4500   -2.4800   23.7350 N   0  0  0  0  0  0  0  0  0  0  0  0
    6.2970   -3.3050   23.3480 C   0  0  2  0  0  0  0  0  0  0  0  0
    7.8680   -1.5880   22.6420 C   0  0  1  0  0  0  0  0  0  0  0  0
    8.0610   -2.0100   22.0470 C   0  0  0  0  0  0  0  0  0  0  0  0
    8.4350   -2.5230   24.8290 C   0  0  0  0  0  0  0  0  0  0  0  0
    6.4390   -4.2050   23.9830 C   0  0  1  0  0  0  0  0  0  0  0  0
    6.8000   -1.1870   22.2970 C   0  0  0  0  0  0  0  0  0  0  0  0
    8.3330   -1.3830   25.2750 O   0  0  0  0  0  0  0  0  0  0  0  0
    9.9360   -2.5250   23.8300 C   0  0  0  0  0  0  0  0  0  0  0  0
    6.8860   -4.2170   25.3580 C   0  0  0  0  0  0  0  0  0  0  0  0
    5.0990   -4.3650   23.7200 C   0  0  0  0  0  0  0  0  0  0  0  0
    5.7320   -0.7850   21.9530 C   0  0  0  0  0  0  0  0  0  0  0  0
    5.9160   -4.3990   26.3890 C   0  0  0  0  0  0  0  0  0  0  0  0
    4.1540   -4.5400   24.7490 C   0  0  0  0  0  0  0  0  0  0  0  0
    8.2410   -4.0590   25.7640 C   0  0  1  0  0  0  0  0  0  0  0  0
   11.0160   -1.4730   23.8260 C   0  0  0  0  0  0  0  0  0  0  0  0
    4.9500    0.2690   21.7230 C   0  0  0  0  0  0  0  0  0  0  0  0
    4.5530   -4.5590   26.0430 C   0  0  0  0  0  0  0  0  0  0  0  0
    8.6000   -4.0860   27.0800 C   0  0  1  0  0  0  0  0  0  0  0  0
    6.3270   -4.4200   27.7430 C   0  0  0  0  0  0  0  0  0  0  0  0
    9.6190   -4.6380   25.4440 C   0  0  0  0  0  0  0  0  0  0  0  0
   12.1170   -1.4010   22.9200 C   0  0  0  0  0  0  0  0  0  0  0  0
   11.0500   -0.3900   24.6970 C   0  0  0  0  0  0  0  0  0  0  0  0
    5.2800    1.5020   22.5600 C   0  0  0  0  0  0  0  0  0  0  0  0
    7.6330   -4.2720   28.0760 C   0  0  0  0  0  0  0  0  0  0  0  0
    9.4890   -5.6710   26.3930 C   0  0  0  0  0  0  0  0  0  0  0  0
    8.7150   -5.3290   27.4460 C   0  0  0  0  0  0  0  0  0  0  0  0
   12.8260   -0.2560   23.0140 C   0  0  0  0  0  0  0  0  0  0  0  0
   12.1910    0.7640   24.2010 S   0  0  0  0  0  0  0  0  0  0  0  0
    4.1480    2.3990   22.4820 N   0  0  0  0  0  0  0  0  0  0  0  0
    3.0060    2.2640   23.3710 C   0  0  0  0  0  0  0  0  0  0  0  0
    2.9690    1.4200   24.2170 O   0  0  0  0  0  0  0  0  0  0  0  0
  1  2  1  0
  1  3  2  0
  4  1  1  6
  4  5  1  0
  4  6  1  0
  4  7  1  0
  5  8  1  1
  9  6  1  6
  8  9  1  0
  5 10  1  0
  7 11  2  0
 10 11  1  0
  8 12  1  0
  9 13  1  0
 10 14  1  6
 12 15  2  0
 12 16  1  0
 13 17  1  0
 13 18  1  1
 14 19  1  0
 17 20  1  0
 18 21  1  0
 17 22  1  0
 16 23  1  0
 19 24  1  0
 20 25  1  0
 21 25  2  0
 22 26  1  0
 20 27  1  0
 22 28  1  6
 23 29  1  0
 23 30  2  0
 24 31  1  0
 26 32  1  1
 27 32  2  0
 28 33  2  0
 26 34  1  0
 33 34  1  0
 29 35  2  0
 30 36  1  0
 35 36  1  0
 31 37  1  0
 37 38  1  0
 38 39  2  0
M  END
