x1334_0-x0831_0-x1418_1-x1334_1
     RDKit          3D

 24 26  0  0  0  0  0  0  0  0999 V2000
    6.3810   -3.1710   19.8010 C   0  0  0  0  0  0  0  0  0  0  0  0
    7.3560   -2.9670   18.6740 C   0  0  0  0  0  0  0  0  0  0  0  0
    5.4620   -4.0000   19.6750 O   0  0  0  0  0  0  0  0  0  0  0  0
    6.5790   -2.4550   20.9670 N   0  0  0  0  0  0  0  0  0  0  0  0
    6.2100   -3.0360   22.2470 C   0  0  0  0  0  0  0  0  0  0  0  0
    7.6120   -1.4070   21.0860 C   0  0  0  0  0  0  0  0  0  0  0  0
    7.4430   -3.6010   22.9730 C   0  0  0  0  0  0  0  0  0  0  0  0
    8.8070   -1.8590   21.9570 C   0  0  0  0  0  0  0  0  0  0  0  0
    8.4500   -2.5580   23.2100 N   0  0  0  0  0  0  0  0  0  0  0  0
    9.6180   -3.2200   23.8140 C   0  0  1  0  0  0  0  0  0  0  0  0
   10.5990   -2.3480   24.6460 C   0  0  0  0  0  0  0  0  0  0  0  0
    9.2540   -4.1510   24.9450 C   0  0  0  0  0  0  0  0  0  0  0  0
    9.8680   -5.3980   25.2430 C   0  0  0  0  0  0  0  0  0  0  0  0
    8.0030   -3.8030   26.0700 S   0  0  0  0  0  0  0  0  0  0  0  0
   11.1180   -1.0080   24.1320 C   0  0  0  0  0  0  0  0  0  0  0  0
    9.2950   -5.9860   26.3640 C   0  0  0  0  0  0  0  0  0  0  0  0
    8.2710   -5.2610   26.9410 C   0  0  0  0  0  0  0  0  0  0  0  0
   10.4400    0.1490   24.5040 C   0  0  0  0  0  0  0  0  0  0  0  0
   12.2810   -0.9290   23.3010 C   0  0  0  0  0  0  0  0  0  0  0  0
    7.3520   -5.6620   28.3000 Cl  0  0  0  0  0  0  0  0  0  0  0  0
   13.0410   -2.1330   22.8530 C   0  0  0  0  0  0  0  0  0  0  0  0
   10.8230    1.5730   24.1110 C   0  0  0  0  0  0  0  0  0  0  0  0
   12.7380    0.3100   22.8860 C   0  0  0  0  0  0  0  0  0  0  0  0
   12.0360    1.6050   23.2720 C   0  0  0  0  0  0  0  0  0  0  0  0
  1  2  1  0
  1  3  2  0
  1  4  1  0
  4  5  1  0
  4  6  1  0
  5  7  1  0
  6  8  1  0
  7  9  1  0
  8  9  1  0
  9 10  1  0
 10 11  1  1
 10 12  1  0
 12 13  2  0
 12 14  1  0
 11 15  1  0
 13 16  1  0
 14 17  1  0
 16 17  2  0
 15 18  2  0
 15 19  1  0
 17 20  1  0
 19 21  1  0
 18 22  1  0
 19 23  2  0
 22 24  2  0
 23 24  1  0
M  END
