x1334_1-x0691_1
     RDKit          3D

 22 23  0  0  0  0  0  0  0  0999 V2000
    6.3520   -3.3080   19.8840 C   0  0  0  0  0  0  0  0  0  0  0  0
    7.2900   -2.9900   18.7440 C   0  0  0  0  0  0  0  0  0  0  0  0
    5.3830   -4.0530   19.6930 O   0  0  0  0  0  0  0  0  0  0  0  0
    6.6490   -2.7850   21.1320 N   0  0  0  0  0  0  0  0  0  0  0  0
    7.5340   -1.5940   21.3040 C   0  0  0  0  0  0  0  0  0  0  0  0
    6.4440   -3.6850   22.2720 C   0  0  2  0  0  0  0  0  0  0  0  0
    5.0480   -3.5470   22.9180 C   0  0  0  0  0  0  0  0  0  0  0  0
    8.8080   -1.9880   22.0140 C   0  0  0  0  0  0  0  0  0  0  0  0
    7.5750   -3.6450   23.3150 C   0  0  0  0  0  0  0  0  0  0  0  0
    4.3810   -4.9090   23.1430 C   0  0  0  0  0  0  0  0  0  0  0  0
    8.5640   -2.5610   23.3280 N   0  0  0  0  0  0  0  0  0  0  0  0
    5.0660   -5.6880   24.0590 C   0  0  0  0  0  0  0  0  0  0  0  0
    4.6360   -5.6490   25.7180 S   0  0  0  0  0  0  0  0  0  0  0  0
    4.0000   -6.9070   26.0090 O   0  0  0  0  0  0  0  0  0  0  0  0
    5.7650   -5.1690   26.4830 O   0  0  0  0  0  0  0  0  0  0  0  0
    3.3990   -4.3970   25.7600 C   0  0  0  0  0  0  0  0  0  0  0  0
    3.8250   -3.0860   25.8590 C   0  0  0  0  0  0  0  0  0  0  0  0
    2.0250   -4.6280   25.7040 C   0  0  0  0  0  0  0  0  0  0  0  0
    2.9550   -1.9880   25.9070 C   0  0  0  0  0  0  0  0  0  0  0  0
    1.0980   -3.5850   25.7480 C   0  0  0  0  0  0  0  0  0  0  0  0
    3.4310   -0.7190   26.0040 F   0  0  0  0  0  0  0  0  0  0  0  0
    1.4450   -2.2460   25.8500 C   0  0  0  0  0  0  0  0  0  0  0  0
  1  2  1  0
  1  3  2  0
  1  4  1  0
  4  5  1  0
  4  6  1  0
  6  7  1  1
  5  8  1  0
  6  9  1  0
  7 10  1  0
  8 11  1  0
  9 11  1  0
 10 12  1  0
 13 12  1  0
 13 14  2  0
 13 15  2  0
 13 16  1  0
 16 17  2  0
 16 18  1  0
 17 19  1  0
 18 20  2  0
 19 21  1  0
 19 22  2  0
 20 22  1  0
M  END
