x1334_0-x0387_0-x1386_1-x1334_1
     RDKit          3D

 22 24  0  0  0  0  0  0  0  0999 V2000
    6.4600   -3.1540   19.8190 C   0  0  0  0  0  0  0  0  0  0  0  0
    7.4410   -2.9880   18.6910 C   0  0  0  0  0  0  0  0  0  0  0  0
    5.4880   -3.9180   19.6670 O   0  0  0  0  0  0  0  0  0  0  0  0
    6.7240   -2.4580   21.0010 N   0  0  0  0  0  0  0  0  0  0  0  0
    7.6960   -1.3250   21.0610 C   0  0  0  0  0  0  0  0  0  0  0  0
    6.5670   -3.0940   22.2900 C   0  0  0  0  0  0  0  0  0  0  0  0
    8.9560   -1.6330   21.9400 C   0  0  0  0  0  0  0  0  0  0  0  0
    7.8710   -3.7550   22.6090 C   0  0  0  0  0  0  0  0  0  0  0  0
    8.9370   -2.7920   22.8850 N   0  0  0  0  0  0  0  0  0  0  0  0
    8.8890   -2.4100   24.2990 C   0  0  2  0  0  0  0  0  0  0  0  0
   10.0440   -1.4590   24.7310 C   0  0  0  0  0  0  0  0  0  0  0  0
    8.8320   -3.6000   25.2420 C   0  0  0  0  0  0  0  0  0  0  0  0
    9.7460   -4.8590   25.2270 C   0  0  0  0  0  0  0  0  0  0  0  0
    7.6610   -3.6690   26.5040 S   0  0  0  0  0  0  0  0  0  0  0  0
   11.2250   -1.2860   23.7530 C   0  0  0  0  0  0  0  0  0  0  0  0
    9.3690   -5.8310   26.3320 C   0  0  0  0  0  0  0  0  0  0  0  0
    8.2630   -5.3740   27.1370 C   0  0  0  0  0  0  0  0  0  0  0  0
   12.0280   -0.0120   23.9270 C   0  0  0  0  0  0  0  0  0  0  0  0
   11.7580   -2.1060   22.6670 C   0  0  0  0  0  0  0  0  0  0  0  0
    7.4640   -6.0700   28.4660 Cl  0  0  0  0  0  0  0  0  0  0  0  0
   13.1750    0.0680   22.9230 C   0  0  0  0  0  0  0  0  0  0  0  0
   13.1490   -1.4410   21.8680 S   0  0  0  0  0  0  0  0  0  0  0  0
  1  2  1  0
  1  3  2  0
  1  4  1  0
  4  5  1  0
  4  6  1  0
  5  7  1  0
  6  8  1  0
  7  9  1  0
  8  9  1  0
  9 10  1  0
 10 11  1  1
 10 12  1  0
 12 13  2  0
 12 14  1  0
 11 15  1  0
 13 16  1  0
 14 17  1  0
 16 17  2  0
 15 18  1  0
 15 19  2  0
 17 20  1  0
 18 21  2  0
 19 22  1  0
 21 22  1  0
M  END
