x1334_0-x0387_0-x1334_1-x0397_0
     RDKit          3D

 25 28  0  0  0  0  0  0  0  0999 V2000
    6.3710   -3.3150   19.8390 C   0  0  0  0  0  0  0  0  0  0  0  0
    7.2940   -2.9540   18.6920 C   0  0  0  0  0  0  0  0  0  0  0  0
    5.3750   -4.0260   19.6680 O   0  0  0  0  0  0  0  0  0  0  0  0
    6.7330   -2.8940   21.0990 N   0  0  0  0  0  0  0  0  0  0  0  0
    7.4980   -1.6530   21.3550 C   0  0  0  0  0  0  0  0  0  0  0  0
    7.0760   -4.0390   21.9280 C   0  0  1  0  0  0  0  0  0  0  0  0
    8.8570   -1.8400   22.1130 C   0  0  0  0  0  0  0  0  0  0  0  0
    7.7620   -3.7460   23.2410 C   0  0  0  0  0  0  0  0  0  0  0  0
    5.8180   -4.8450   22.2330 C   0  0  0  0  0  0  0  0  0  0  0  0
    8.9250   -2.8730   23.1520 N   0  0  0  0  0  0  0  0  0  0  0  0
    5.8740   -5.5700   23.3080 C   0  0  0  0  0  0  0  0  0  0  0  0
    5.9150   -6.4090   22.1230 C   0  0  0  0  0  0  0  0  0  0  0  0
    9.0790   -2.3500   24.4970 C   0  0  2  0  0  0  0  0  0  0  0  0
   10.3000   -1.5180   24.8640 C   0  0  0  0  0  0  0  0  0  0  0  0
    9.0120   -3.6100   25.4050 C   0  0  0  0  0  0  0  0  0  0  0  0
    9.8990   -4.8530   25.4480 C   0  0  0  0  0  0  0  0  0  0  0  0
    7.7920   -3.7980   26.5940 S   0  0  0  0  0  0  0  0  0  0  0  0
   11.3800   -1.2550   23.8720 C   0  0  0  0  0  0  0  0  0  0  0  0
    9.4060   -5.8190   26.5060 C   0  0  0  0  0  0  0  0  0  0  0  0
    8.2830   -5.3450   27.1800 C   0  0  0  0  0  0  0  0  0  0  0  0
   12.1560   -0.1000   23.8780 C   0  0  0  0  0  0  0  0  0  0  0  0
   11.7870   -2.0680   22.8350 C   0  0  0  0  0  0  0  0  0  0  0  0
    7.3760   -6.0510   28.4410 Cl  0  0  0  0  0  0  0  0  0  0  0  0
   13.1280   -0.0030   22.9050 C   0  0  0  0  0  0  0  0  0  0  0  0
   13.0870   -1.4030   21.9340 S   0  0  0  0  0  0  0  0  0  0  0  0
  1  2  1  0
  1  3  2  0
  1  4  1  0
  4  5  1  0
  4  6  1  0
  5  7  1  0
  6  8  1  0
  6  9  1  1
  7 10  1  0
  8 10  1  0
  9 11  1  0
  9 12  1  0
 11 12  1  0
 10 13  1  0
 13 14  1  6
 13 15  1  0
 15 16  2  0
 15 17  1  0
 14 18  1  0
 16 19  1  0
 17 20  1  0
 19 20  2  0
 18 21  1  0
 18 22  2  0
 20 23  1  0
 21 24  2  0
 22 25  1  0
 24 25  1  0
M  END
