x1334_0-x0426_1-x1334_1
     RDKit          3D

 28 31  0  0  0  0  0  0  0  0999 V2000
    6.3490   -3.3340   19.9040 C   0  0  0  0  0  0  0  0  0  0  0  0
    7.3630   -3.0180   18.8170 C   0  0  0  0  0  0  0  0  0  0  0  0
    5.3980   -4.1030   19.7250 O   0  0  0  0  0  0  0  0  0  0  0  0
    6.5590   -2.7410   21.1500 N   0  0  0  0  0  0  0  0  0  0  0  0
    7.5010   -1.6210   21.3820 C   0  0  2  0  0  0  0  0  0  0  0  0
    6.3160   -3.5790   22.3280 C   0  0  0  0  0  0  0  0  0  0  0  0
    8.7850   -2.0780   22.0650 C   0  0  0  0  0  0  0  0  0  0  0  0
    7.6340   -3.9260   23.0540 C   0  0  0  0  0  0  0  0  0  0  0  0
    6.9070   -0.5200   22.2970 C   0  0  0  0  0  0  0  0  0  0  0  0
    8.4980   -2.7540   23.3240 N   0  0  0  0  0  0  0  0  0  0  0  0
    6.8330    0.8990   21.7180 C   0  0  2  0  0  0  0  0  0  0  0  0
    9.6430   -3.1100   24.0590 C   0  0  0  0  0  0  0  0  0  0  0  0
    6.0820    1.9260   22.6590 C   0  0  0  0  0  0  0  0  0  0  0  0
    6.1920    0.9190   20.3530 C   0  0  0  0  0  0  0  0  0  0  0  0
    9.3020   -4.1000   25.1320 C   0  0  0  0  0  0  0  0  0  0  0  0
    4.5650    1.7500   22.4900 C   0  0  1  0  0  0  0  0  0  0  0  0
    4.9520    1.5190   20.1410 C   0  0  0  0  0  0  0  0  0  0  0  0
    6.8240    0.3450   19.2590 C   0  0  0  0  0  0  0  0  0  0  0  0
    9.8410   -5.3530   25.3970 C   0  0  0  0  0  0  0  0  0  0  0  0
    8.0650   -3.7920   26.2900 S   0  0  0  0  0  0  0  0  0  0  0  0
    3.8490    2.5730   23.4800 N   0  0  0  0  0  0  0  0  0  0  0  0
    4.1620    2.1550   21.2400 C   0  0  0  0  0  0  0  0  0  0  0  0
    4.4280    1.5350   18.8840 C   0  0  0  0  0  0  0  0  0  0  0  0
    6.3430    0.3400   18.0130 N   0  0  0  0  0  0  0  0  0  0  0  0
    9.3270   -6.0570   26.4570 C   0  0  0  0  0  0  0  0  0  0  0  0
    8.3170   -5.3520   27.0900 C   0  0  0  0  0  0  0  0  0  0  0  0
    5.1670    0.9340   17.8570 C   0  0  0  0  0  0  0  0  0  0  0  0
    7.3710   -5.8000   28.4410 Cl  0  0  0  0  0  0  0  0  0  0  0  0
  1  2  1  0
  1  3  2  0
  1  4  1  0
  4  5  1  0
  4  6  1  0
  5  7  1  0
  6  8  1  0
  5  9  1  1
  7 10  1  0
  8 10  1  0
 11  9  1  1
 10 12  1  0
 11 13  1  0
 11 14  1  0
 12 15  1  0
 13 16  1  0
 14 17  2  0
 14 18  1  0
 15 19  2  0
 15 20  1  0
 16 21  1  1
 16 22  1  0
 17 22  1  0
 17 23  1  0
 18 24  2  0
 19 25  1  0
 20 26  1  0
 25 26  2  0
 23 27  2  0
 24 27  1  0
 26 28  1  0
M  END
