x1334_1-x1374_1-x0770_1-x0397_0-x1412_1-x0692_1-x1386_1-x0831_0-x0426_1-x0434_2-x1418_1-x1334_0
     RDKit          3D

 45 51  0  0  0  0  0  0  0  0999 V2000
    2.6340   -7.6760   23.3990 O   0  0  0  0  0  0  0  0  0  0  0  0
    3.2980   -7.0240   24.4600 C   0  0  0  0  0  0  0  0  0  0  0  0
    4.4520   -7.7300   24.8770 O   0  0  0  0  0  0  0  0  0  0  0  0
    5.5610   -7.4580   24.0230 C   0  0  0  0  0  0  0  0  0  0  0  0
    6.0680   -6.2190   24.2480 C   0  0  0  0  0  0  0  0  0  0  0  0
    6.3810   -5.6290   22.9080 C   0  0  2  0  0  0  0  0  0  0  0  0
    5.9260   -4.4730   22.4310 C   0  0  2  0  0  0  0  0  0  0  0  0
    5.6830   -6.0000   21.8530 C   0  0  0  0  0  0  0  0  0  0  0  0
    7.1590   -3.6530   22.0310 C   0  0  1  0  0  0  0  0  0  0  0  0
    6.8050   -2.7960   21.0390 N   0  0  0  0  0  0  0  0  0  0  0  0
    7.8460   -3.2240   23.1740 C   0  0  0  0  0  0  0  0  0  0  0  0
    6.4070   -3.3750   19.8400 C   0  0  0  0  0  0  0  0  0  0  0  0
    8.7380   -2.0900   22.9380 N   0  0  0  0  0  0  0  0  0  0  0  0
    7.6990   -1.7570   20.7660 C   0  0  1  0  0  0  0  0  0  0  0  0
    7.3180   -3.0640   18.6820 C   0  0  0  0  0  0  0  0  0  0  0  0
    5.4230   -4.1220   19.7020 O   0  0  0  0  0  0  0  0  0  0  0  0
   10.1310   -2.2560   23.3360 C   0  0  2  0  0  0  0  0  0  0  0  0
    7.0120   -0.5840   21.0000 N   0  0  0  0  0  0  0  0  0  0  0  0
    8.9820   -1.8600   21.5190 C   0  0  0  0  0  0  0  0  0  0  0  0
   10.5620   -3.1810   24.4410 C   0  0  0  0  0  0  0  0  0  0  0  0
    6.1770   -0.5900   22.2130 C   0  0  0  0  0  0  0  0  0  0  0  0
    6.3250    0.1490   19.9750 C   0  0  0  0  0  0  0  0  0  0  0  0
   10.8710   -0.9140   23.3810 C   0  0  0  0  0  0  0  0  0  0  0  0
    5.4660    0.7070   22.0850 C   0  0  1  0  0  0  0  0  0  0  0  0
    6.4690    0.1750   18.5890 N   0  0  0  0  0  0  0  0  0  0  0  0
    5.4040    0.9050   20.5840 C   0  0  0  0  0  0  0  0  0  0  0  0
   10.1600    0.3120   23.9380 C   0  0  0  0  0  0  0  0  0  0  0  0
   12.1960   -0.8150   22.8960 C   0  0  0  0  0  0  0  0  0  0  0  0
    9.7530   -3.9640   25.4260 C   0  0  0  0  0  0  0  0  0  0  0  0
    4.0760    0.8980   22.6170 C   0  0  0  0  0  0  0  0  0  0  0  0
   12.9140   -1.9920   22.3260 C   0  0  0  0  0  0  0  0  0  0  0  0
    4.4870    1.7730   20.0020 C   0  0  0  0  0  0  0  0  0  0  0  0
    5.6430    0.9960   17.9140 C   0  0  0  0  0  0  0  0  0  0  0  0
   10.7790    1.5620   23.9950 C   0  0  0  0  0  0  0  0  0  0  0  0
   12.8710    0.3650   22.9180 C   0  0  0  0  0  0  0  0  0  0  0  0
   10.2070   -5.0770   25.9470 C   0  0  0  0  0  0  0  0  0  0  0  0
    8.2030   -3.5960   26.0680 S   0  0  0  0  0  0  0  0  0  0  0  0
    3.6860    2.3390   22.3940 C   0  0  1  0  0  0  0  0  0  0  0  0
    3.5110    2.5210   20.8760 C   0  0  0  0  0  0  0  0  0  0  0  0
    4.5870    1.8520   18.5940 C   0  0  0  0  0  0  0  0  0  0  0  0
   12.2140    1.6260   23.4600 C   0  0  0  0  0  0  0  0  0  0  0  0
    9.4030   -5.6490   26.8660 C   0  0  0  0  0  0  0  0  0  0  0  0
    8.2390   -4.9580   27.0850 C   0  0  0  0  0  0  0  0  0  0  0  0
    2.5230    2.7160   23.1630 N   0  0  0  0  0  0  0  0  0  0  0  0
    6.9740   -5.3120   28.1860 Cl  0  0  0  0  0  0  0  0  0  0  0  0
  1  2  1  0
  2  3  1  0
  3  4  1  0
  4  5  1  0
  6  5  1  1
  6  7  1  0
  6  8  1  0
  7  8  1  6
  7  9  1  0
  9 10  1  0
  9 11  1  1
 10 12  1  0
 11 13  1  0
 10 14  1  0
 12 15  1  0
 12 16  2  0
 13 17  1  0
 14 18  1  1
 13 19  1  0
 14 19  1  0
 17 20  1  1
 18 21  1  0
 18 22  1  0
 17 23  1  0
 24 21  1  6
 22 25  2  0
 22 26  1  0
 24 26  1  0
 23 27  2  0
 23 28  1  0
 20 29  1  0
 24 30  1  0
 28 31  1  0
 26 32  2  0
 25 33  1  0
 27 34  1  0
 28 35  2  0
 29 36  2  0
 29 37  1  0
 30 38  1  0
 32 39  1  0
 38 39  1  0
 32 40  1  0
 33 40  2  0
 34 41  2  0
 35 41  1  0
 36 42  1  0
 37 43  1  0
 42 43  2  0
 38 44  1  1
 43 45  1  0
M  END
