x1334_1-x1334_0-x0831_0-x0692_1-x1375_1-x0397_0-x0770_1-x0831_1-x0426_1
     RDKit          3D

 43 48  0  0  0  0  0  0  0  0999 V2000
    2.0250   -7.1620   24.3970 O   0  0  0  0  0  0  0  0  0  0  0  0
    3.1140   -7.4050   25.2830 C   0  0  0  0  0  0  0  0  0  0  0  0
    4.3190   -7.5270   24.5620 O   0  0  0  0  0  0  0  0  0  0  0  0
    4.3000   -6.4700   23.6090 C   0  0  0  0  0  0  0  0  0  0  0  0
    5.6480   -6.0290   23.1100 C   0  0  2  0  0  0  0  0  0  0  0  0
    5.7130   -4.8700   22.3230 C   0  0  2  0  0  0  0  0  0  0  0  0
    6.0580   -6.3170   21.7390 C   0  0  0  0  0  0  0  0  0  0  0  0
    6.8760   -3.9050   22.2800 C   0  0  1  0  0  0  0  0  0  0  0  0
    6.6400   -2.8640   21.3010 N   0  0  0  0  0  0  0  0  0  0  0  0
    7.2490   -3.4120   23.5270 C   0  0  0  0  0  0  0  0  0  0  0  0
    6.3560   -3.3150   19.9950 C   0  0  0  0  0  0  0  0  0  0  0  0
    8.4900   -2.5990   23.6020 N   0  0  0  0  0  0  0  0  0  0  0  0
    7.3750   -1.6980   21.7570 C   0  0  1  0  0  0  0  0  0  0  0  0
    7.2500   -2.9490   18.8250 C   0  0  0  0  0  0  0  0  0  0  0  0
    5.4050   -4.0790   19.7440 O   0  0  0  0  0  0  0  0  0  0  0  0
    9.6060   -3.3840   24.0260 C   0  0  1  0  0  0  0  0  0  0  0  0
    8.7540   -2.1230   22.2880 C   0  0  0  0  0  0  0  0  0  0  0  0
    7.3950   -0.5540   20.8400 C   0  0  0  0  0  0  0  0  0  0  0  0
   10.9190   -2.7150   24.3520 C   0  0  0  0  0  0  0  0  0  0  0  0
    9.1810   -4.2520   25.1690 C   0  0  0  0  0  0  0  0  0  0  0  0
    6.4510    0.5780   21.2010 C   0  0  2  0  0  0  0  0  0  0  0  0
    9.8250   -5.4160   25.4690 C   0  0  0  0  0  0  0  0  0  0  0  0
    7.8990   -3.9740   26.2360 S   0  0  0  0  0  0  0  0  0  0  0  0
   11.1370   -1.2940   24.0650 C   0  0  0  0  0  0  0  0  0  0  0  0
    5.2760    0.3040   22.0100 C   0  0  0  0  0  0  0  0  0  0  0  0
    5.8940    0.9920   19.9510 C   0  0  0  0  0  0  0  0  0  0  0  0
    9.3070   -6.0590   26.5240 C   0  0  0  0  0  0  0  0  0  0  0  0
    8.2240   -5.4220   27.1030 C   0  0  0  0  0  0  0  0  0  0  0  0
   10.3360   -0.3590   24.5940 C   0  0  0  0  0  0  0  0  0  0  0  0
   12.2990   -0.9040   23.1710 C   0  0  0  0  0  0  0  0  0  0  0  0
    4.5740    1.6650   22.2480 C   0  0  2  0  0  0  0  0  0  0  0  0
    4.7080    1.6620   19.8730 C   0  0  0  0  0  0  0  0  0  0  0  0
    6.6050    0.6880   18.8370 C   0  0  0  0  0  0  0  0  0  0  0  0
    7.2740   -5.8810   28.4510 Cl  0  0  0  0  0  0  0  0  0  0  0  0
   13.1910   -1.9220   22.5460 C   0  0  0  0  0  0  0  0  0  0  0  0
   10.5270    1.1300   24.3640 C   0  0  0  0  0  0  0  0  0  0  0  0
   12.5280    0.5930   22.9310 C   0  0  0  0  0  0  0  0  0  0  0  0
    3.7070    1.6500   23.2960 N   0  0  0  0  0  0  0  0  0  0  0  0
    3.8800    1.9900   21.1020 C   0  0  0  0  0  0  0  0  0  0  0  0
    4.2560    2.0570   18.6340 C   0  0  0  0  0  0  0  0  0  0  0  0
    6.2670    1.0010   17.6230 N   0  0  0  0  0  0  0  0  0  0  0  0
   11.5980    1.5870   23.5610 C   0  0  0  0  0  0  0  0  0  0  0  0
    5.0810    1.7070   17.5650 C   0  0  0  0  0  0  0  0  0  0  0  0
  1  2  1  0
  2  3  1  0
  3  4  1  0
  5  4  1  6
  5  6  1  0
  5  7  1  0
  6  7  1  6
  6  8  1  0
  8  9  1  0
  8 10  1  1
  9 11  1  0
 10 12  1  0
  9 13  1  0
 11 14  1  0
 11 15  2  0
 12 16  1  0
 12 17  1  0
 13 17  1  0
 13 18  1  6
 16 19  1  1
 16 20  1  0
 21 18  1  6
 20 22  2  0
 20 23  1  0
 19 24  1  0
 21 25  1  0
 21 26  1  0
 22 27  1  0
 23 28  1  0
 27 28  2  0
 24 29  2  0
 24 30  1  0
 25 31  1  0
 26 32  2  0
 26 33  1  0
 28 34  1  0
 30 35  1  0
 29 36  1  0
 30 37  2  0
 31 38  1  1
 31 39  1  0
 32 39  1  0
 32 40  1  0
 33 41  2  0
 36 42  2  0
 37 42  1  0
 40 43  2  0
 41 43  1  0
M  END
