x1334_0-x1374_1-x0770_1-x1386_1-x0831_0-x0426_1-x1334_1-x1418_1-x0831_1-x1385_1-x0397_0-x0692_1
     RDKit          3D

 43 48  0  0  0  0  0  0  0  0999 V2000
    1.9880   -7.3060   23.6950 O   0  0  0  0  0  0  0  0  0  0  0  0
    2.3680   -8.0700   24.8250 C   0  0  0  0  0  0  0  0  0  0  0  0
    3.7840   -8.1150   24.8440 O   0  0  0  0  0  0  0  0  0  0  0  0
    4.3660   -7.2830   23.8510 C   0  0  0  0  0  0  0  0  0  0  0  0
    4.8590   -6.0120   24.3850 C   0  0  0  0  0  0  0  0  0  0  0  0
    5.9070   -5.5710   23.4210 C   0  0  2  0  0  0  0  0  0  0  0  0
    5.5180   -4.6820   22.5010 C   0  0  2  0  0  0  0  0  0  0  0  0
    6.0820   -6.1520   22.0920 C   0  0  0  0  0  0  0  0  0  0  0  0
    6.2730   -3.4060   22.4630 C   0  0  2  0  0  0  0  0  0  0  0  0
    6.2130   -2.6980   21.1940 N   0  0  0  0  0  0  0  0  0  0  0  0
    7.6000   -3.6220   22.7850 C   0  0  0  0  0  0  0  0  0  0  0  0
    6.1450   -3.4020   19.9830 C   0  0  0  0  0  0  0  0  0  0  0  0
    8.0660   -2.3830   23.3280 N   0  0  0  0  0  0  0  0  0  0  0  0
    6.9160   -1.4220   21.2450 C   0  0  1  0  0  0  0  0  0  0  0  0
    7.1340   -3.0330   18.8810 C   0  0  0  0  0  0  0  0  0  0  0  0
    5.3350   -4.3080   19.7950 O   0  0  0  0  0  0  0  0  0  0  0  0
    5.8150   -0.3300   21.3390 C   0  0  1  0  0  0  0  0  0  0  0  0
    9.2190   -2.5420   24.1460 C   0  0  2  0  0  0  0  0  0  0  0  0
    8.1850   -1.4280   22.1980 C   0  0  0  0  0  0  0  0  0  0  0  0
    5.8220    0.7060   22.4740 C   0  0  0  0  0  0  0  0  0  0  0  0
   10.4700   -2.4970   23.3170 C   0  0  0  0  0  0  0  0  0  0  0  0
    5.6180    0.3670   20.0510 C   0  0  0  0  0  0  0  0  0  0  0  0
    9.0610   -3.7250   25.1450 C   0  0  0  0  0  0  0  0  0  0  0  0
    4.6480    1.7540   22.4250 C   0  0  2  0  0  0  0  0  0  0  0  0
    4.6730    1.3490   19.9360 C   0  0  0  0  0  0  0  0  0  0  0  0
    6.4480    0.0190   18.8160 C   0  0  0  0  0  0  0  0  0  0  0  0
    9.8130   -4.8720   25.2910 C   0  0  0  0  0  0  0  0  0  0  0  0
    7.7660   -3.8100   26.3990 S   0  0  0  0  0  0  0  0  0  0  0  0
   11.0830   -1.1040   23.3550 C   0  0  0  0  0  0  0  0  0  0  0  0
    3.7830    1.6330   23.5760 N   0  0  0  0  0  0  0  0  0  0  0  0
    3.8440    1.7350   21.1140 C   0  0  0  0  0  0  0  0  0  0  0  0
    4.5120    1.9730   18.7100 C   0  0  0  0  0  0  0  0  0  0  0  0
    6.2650    0.6440   17.6540 N   0  0  0  0  0  0  0  0  0  0  0  0
    9.4270   -5.7290   26.2790 C   0  0  0  0  0  0  0  0  0  0  0  0
    8.3120   -5.3140   27.0160 C   0  0  0  0  0  0  0  0  0  0  0  0
   10.3660   -0.0430   23.9320 C   0  0  0  0  0  0  0  0  0  0  0  0
   12.3470   -0.8630   22.8280 C   0  0  0  0  0  0  0  0  0  0  0  0
    7.4850   -6.0270   28.3250 Cl  0  0  0  0  0  0  0  0  0  0  0  0
   13.1460   -1.9370   22.1850 C   0  0  0  0  0  0  0  0  0  0  0  0
    5.3060    1.5940   17.6440 C   0  0  0  0  0  0  0  0  0  0  0  0
   10.9160    1.2460   23.9890 C   0  0  0  0  0  0  0  0  0  0  0  0
   12.8690    0.4210   22.9000 C   0  0  0  0  0  0  0  0  0  0  0  0
   12.1720    1.4550   23.4670 C   0  0  0  0  0  0  0  0  0  0  0  0
  1  2  1  0
  2  3  1  0
  3  4  1  0
  4  5  1  0
  6  5  1  1
  6  7  1  0
  6  8  1  0
  7  8  1  6
  7  9  1  0
  9 10  1  0
  9 11  1  6
 10 12  1  0
 11 13  1  0
 10 14  1  0
 12 15  1  0
 12 16  2  0
 14 17  1  0
 13 18  1  0
 13 19  1  0
 14 19  1  1
 17 20  1  1
 18 21  1  6
 17 22  1  0
 18 23  1  0
 20 24  1  0
 22 25  2  0
 22 26  1  0
 23 27  2  0
 23 28  1  0
 21 29  1  0
 24 30  1  1
 24 31  1  0
 25 31  1  0
 25 32  1  0
 26 33  2  0
 27 34  1  0
 28 35  1  0
 34 35  2  0
 29 36  2  0
 29 37  1  0
 35 38  1  0
 37 39  1  0
 32 40  2  0
 33 40  1  0
 36 41  1  0
 37 42  2  0
 41 43  2  0
 42 43  1  0
M  END
