x1334_1-x0831_1-x1418_1-x1385_1-x0831_0-x0397_0-x0770_1-x0434_2-x0692_1-x1334_0-x1374_1-x1412_1-x1386_1
     RDKit          3D

 39 43  0  0  0  0  0  0  0  0999 V2000
    2.3300   -7.6270   23.2310 O   0  0  0  0  0  0  0  0  0  0  0  0
    2.6620   -7.8230   24.5890 C   0  0  0  0  0  0  0  0  0  0  0  0
    4.0610   -7.8690   24.7490 O   0  0  0  0  0  0  0  0  0  0  0  0
    4.6910   -7.0720   23.7420 C   0  0  0  0  0  0  0  0  0  0  0  0
    5.1760   -5.9310   24.3600 C   0  0  0  0  0  0  0  0  0  0  0  0
    6.1840   -5.4280   23.3710 C   0  0  2  0  0  0  0  0  0  0  0  0
    5.7400   -4.4330   22.4890 C   0  0  2  0  0  0  0  0  0  0  0  0
    6.2550   -5.8690   21.9630 C   0  0  0  0  0  0  0  0  0  0  0  0
    6.5410   -3.1440   22.3540 C   0  0  2  0  0  0  0  0  0  0  0  0
    6.7350   -2.6050   20.9910 N   0  0  0  0  0  0  0  0  0  0  0  0
    7.7600   -3.2410   22.9930 C   0  0  0  0  0  0  0  0  0  0  0  0
    6.4100   -3.3040   19.8360 C   0  0  0  0  0  0  0  0  0  0  0  0
    8.5890   -2.0090   22.9730 N   0  0  0  0  0  0  0  0  0  0  0  0
    7.6930   -1.5830   20.8110 C   0  0  1  0  0  0  0  0  0  0  0  0
    7.3450   -3.0480   18.6750 C   0  0  0  0  0  0  0  0  0  0  0  0
    5.4660   -4.1040   19.7240 O   0  0  0  0  0  0  0  0  0  0  0  0
    9.5950   -2.0210   23.8660 C   0  0  1  0  0  0  0  0  0  0  0  0
    6.9430   -0.3990   21.1170 N   0  0  0  0  0  0  0  0  0  0  0  0
    9.0120   -1.7360   21.6400 C   0  0  0  0  0  0  0  0  0  0  0  0
   10.1180   -3.3740   24.0860 C   0  0  0  0  0  0  0  0  0  0  0  0
   10.5850   -0.8420   23.6630 C   0  0  0  0  0  0  0  0  0  0  0  0
    6.3240    0.2520   19.9980 C   0  0  0  0  0  0  0  0  0  0  0  0
   10.1450    0.4170   24.0650 C   0  0  0  0  0  0  0  0  0  0  0  0
   11.9020   -0.9550   23.1000 C   0  0  0  0  0  0  0  0  0  0  0  0
    9.5110   -4.2220   25.1540 C   0  0  0  0  0  0  0  0  0  0  0  0
    6.8410    0.2050   18.7330 C   0  0  0  0  0  0  0  0  0  0  0  0
    5.1400    0.9660   20.2020 C   0  0  0  0  0  0  0  0  0  0  0  0
   12.4380   -2.2690   22.6340 C   0  0  0  0  0  0  0  0  0  0  0  0
   10.9510    1.5290   23.9360 C   0  0  0  0  0  0  0  0  0  0  0  0
   12.7120    0.1580   22.9700 C   0  0  0  0  0  0  0  0  0  0  0  0
    9.9450   -5.5270   25.4140 C   0  0  0  0  0  0  0  0  0  0  0  0
    8.2530   -3.7170   26.1610 S   0  0  0  0  0  0  0  0  0  0  0  0
    6.3500    0.7750   17.6420 N   0  0  0  0  0  0  0  0  0  0  0  0
    4.5590    1.5940   19.1010 C   0  0  0  0  0  0  0  0  0  0  0  0
   12.2290    1.3960   23.3910 C   0  0  0  0  0  0  0  0  0  0  0  0
    9.2990   -6.1400   26.4290 C   0  0  0  0  0  0  0  0  0  0  0  0
    8.2640   -5.2030   26.9890 C   0  0  0  0  0  0  0  0  0  0  0  0
    5.1820    1.4820   17.8650 C   0  0  0  0  0  0  0  0  0  0  0  0
    7.1930   -5.5120   28.2890 Cl  0  0  0  0  0  0  0  0  0  0  0  0
  1  2  1  0
  2  3  1  0
  3  4  1  0
  4  5  1  0
  6  5  1  1
  6  7  1  0
  6  8  1  0
  7  8  1  6
  7  9  1  0
  9 10  1  0
  9 11  1  6
 10 12  1  0
 11 13  1  0
 10 14  1  0
 12 15  1  0
 12 16  2  0
 13 17  1  0
 14 18  1  1
 13 19  1  0
 14 19  1  0
 17 20  1  6
 17 21  1  0
 18 22  1  0
 21 23  2  0
 21 24  1  0
 20 25  1  0
 22 26  2  0
 22 27  1  0
 24 28  1  0
 23 29  1  0
 24 30  2  0
 25 31  2  0
 25 32  1  0
 26 33  1  0
 27 34  2  0
 29 35  2  0
 30 35  1  0
 31 36  1  0
 32 37  1  0
 36 37  2  0
 33 38  2  0
 34 38  1  0
 37 39  1  0
M  END
