x1334_1-x0831_0-x0770_1-x1412_1-x1375_1-x0831_1-x0692_1-x1386_1-x0397_0-x1418_1-x1385_1-x1334_0-x0434_2
     RDKit          3D

 38 42  0  0  0  0  0  0  0  0999 V2000
    1.8630   -7.0900   24.3250 O   0  0  0  0  0  0  0  0  0  0  0  0
    3.0170   -7.2470   23.5420 C   0  0  0  0  0  0  0  0  0  0  0  0
    3.8580   -6.1290   23.7260 O   0  0  0  0  0  0  0  0  0  0  0  0
    5.2000   -6.4870   23.9120 C   0  0  0  0  0  0  0  0  0  0  0  0
    6.1090   -5.7170   22.9990 C   0  0  2  0  0  0  0  0  0  0  0  0
    5.6730   -4.5060   22.3330 C   0  0  2  0  0  0  0  0  0  0  0  0
    6.1390   -5.9760   21.6680 C   0  0  0  0  0  0  0  0  0  0  0  0
    6.5570   -3.2480   22.3610 C   0  0  2  0  0  0  0  0  0  0  0  0
    6.5870   -2.5750   21.0390 N   0  0  0  0  0  0  0  0  0  0  0  0
    7.8240   -3.4330   22.9250 C   0  0  0  0  0  0  0  0  0  0  0  0
    6.3620   -3.3220   19.8810 C   0  0  0  0  0  0  0  0  0  0  0  0
    8.5780   -2.1600   22.9240 N   0  0  0  0  0  0  0  0  0  0  0  0
    7.6900   -1.5950   20.7880 C   0  0  1  0  0  0  0  0  0  0  0  0
    7.3250   -3.0630   18.7350 C   0  0  0  0  0  0  0  0  0  0  0  0
    5.4630   -4.1710   19.7660 O   0  0  0  0  0  0  0  0  0  0  0  0
    9.4900   -1.9650   23.8940 C   0  0  1  0  0  0  0  0  0  0  0  0
    7.0910   -0.3170   21.1140 N   0  0  0  0  0  0  0  0  0  0  0  0
    8.9710   -1.7430   21.6260 C   0  0  0  0  0  0  0  0  0  0  0  0
   10.2680   -3.1940   24.2200 C   0  0  0  0  0  0  0  0  0  0  0  0
   10.4240   -0.7320   23.7360 C   0  0  0  0  0  0  0  0  0  0  0  0
    6.4720    0.2690   20.0430 C   0  0  0  0  0  0  0  0  0  0  0  0
   10.0950    0.5590   24.1460 C   0  0  0  0  0  0  0  0  0  0  0  0
   11.7050   -0.9830   23.1210 C   0  0  0  0  0  0  0  0  0  0  0  0
    9.5750   -4.1120   25.2300 C   0  0  0  0  0  0  0  0  0  0  0  0
    6.9040    0.1330   18.7240 C   0  0  0  0  0  0  0  0  0  0  0  0
    5.2370    1.1210   20.2080 C   0  0  0  0  0  0  0  0  0  0  0  0
   12.2000   -2.3010   22.6170 C   0  0  0  0  0  0  0  0  0  0  0  0
   10.9730    1.6060   23.9810 C   0  0  0  0  0  0  0  0  0  0  0  0
   12.6400    0.0380   22.9290 C   0  0  0  0  0  0  0  0  0  0  0  0
    9.9930   -5.5260   25.4830 C   0  0  0  0  0  0  0  0  0  0  0  0
    8.2560   -3.7270   26.2240 S   0  0  0  0  0  0  0  0  0  0  0  0
    6.2260    0.7660   17.6200 N   0  0  0  0  0  0  0  0  0  0  0  0
    4.6700    1.6710   19.1430 C   0  0  0  0  0  0  0  0  0  0  0  0
   12.3420    1.3360   23.3310 C   0  0  0  0  0  0  0  0  0  0  0  0
    9.1390   -6.0840   26.5220 C   0  0  0  0  0  0  0  0  0  0  0  0
    8.2140   -5.2690   26.9950 C   0  0  0  0  0  0  0  0  0  0  0  0
    5.1540    1.5040   17.8630 C   0  0  0  0  0  0  0  0  0  0  0  0
    7.0700   -5.6080   28.2210 Cl  0  0  0  0  0  0  0  0  0  0  0  0
  1  2  1  0
  2  3  1  0
  3  4  1  0
  5  4  1  1
  5  6  1  0
  5  7  1  0
  6  7  1  6
  6  8  1  0
  8  9  1  0
  8 10  1  6
  9 11  1  0
 10 12  1  0
  9 13  1  0
 11 14  1  0
 11 15  2  0
 12 16  1  0
 13 17  1  1
 12 18  1  0
 13 18  1  0
 16 19  1  6
 16 20  1  0
 17 21  1  0
 20 22  2  0
 20 23  1  0
 19 24  1  0
 21 25  2  0
 21 26  1  0
 23 27  1  0
 22 28  1  0
 23 29  2  0
 24 30  2  0
 24 31  1  0
 25 32  1  0
 26 33  2  0
 28 34  2  0
 29 34  1  0
 30 35  1  0
 31 36  1  0
 35 36  2  0
 32 37  2  0
 33 37  1  0
 36 38  1  0
M  END
