x1334_1-x1412_1-x1334_0-x0770_1-x0397_0-x1418_1-x1374_1-x0831_1-x0692_1-x0831_0-x0434_2-x1385_1
     RDKit          3D

 39 43  0  0  0  0  0  0  0  0999 V2000
    2.1540   -6.6930   24.0580 O   0  0  0  0  0  0  0  0  0  0  0  0
    2.5440   -8.0440   24.1340 C   0  0  0  0  0  0  0  0  0  0  0  0
    3.7760   -8.1970   24.8310 O   0  0  0  0  0  0  0  0  0  0  0  0
    4.7590   -7.2080   24.5500 C   0  0  0  0  0  0  0  0  0  0  0  0
    4.3330   -6.4660   23.5360 C   0  0  0  0  0  0  0  0  0  0  0  0
    5.5450   -5.8490   22.9270 C   0  0  2  0  0  0  0  0  0  0  0  0
    5.4300   -4.6110   22.2090 C   0  0  2  0  0  0  0  0  0  0  0  0
    5.8710   -6.1180   21.6380 C   0  0  0  0  0  0  0  0  0  0  0  0
    6.4390   -3.5210   22.4290 C   0  0  2  0  0  0  0  0  0  0  0  0
    6.4510   -2.6130   21.2810 N   0  0  0  0  0  0  0  0  0  0  0  0
    7.6650   -4.0730   22.7590 C   0  0  0  0  0  0  0  0  0  0  0  0
    6.3490   -3.2450   19.9900 C   0  0  0  0  0  0  0  0  0  0  0  0
    8.7760   -3.1180   22.8500 N   0  0  0  0  0  0  0  0  0  0  0  0
    7.4470   -1.5320   21.5700 C   0  0  2  0  0  0  0  0  0  0  0  0
    7.2930   -2.9350   18.8330 C   0  0  0  0  0  0  0  0  0  0  0  0
    5.4760   -4.1130   19.7760 O   0  0  0  0  0  0  0  0  0  0  0  0
    9.1780   -2.8140   24.0790 C   0  0  2  0  0  0  0  0  0  0  0  0
    7.7200   -0.6940   20.4540 N   0  0  0  0  0  0  0  0  0  0  0  0
    8.8530   -2.0490   21.9100 C   0  0  0  0  0  0  0  0  0  0  0  0
   10.6840   -2.6180   23.8300 C   0  0  0  0  0  0  0  0  0  0  0  0
    9.0780   -3.8710   25.1550 C   0  0  0  0  0  0  0  0  0  0  0  0
    6.7960    0.0040   19.7410 C   0  0  0  0  0  0  0  0  0  0  0  0
    9.8300   -5.0230   25.4190 C   0  0  0  0  0  0  0  0  0  0  0  0
    7.8000   -3.6770   26.3120 S   0  0  0  0  0  0  0  0  0  0  0  0
   11.0860   -1.1550   23.6730 C   0  0  0  0  0  0  0  0  0  0  0  0
    7.0210    0.2460   18.4350 C   0  0  0  0  0  0  0  0  0  0  0  0
    5.4910    0.5710   20.2760 C   0  0  0  0  0  0  0  0  0  0  0  0
    9.4440   -5.7520   26.5110 C   0  0  0  0  0  0  0  0  0  0  0  0
    8.2370   -5.1270   27.2280 C   0  0  0  0  0  0  0  0  0  0  0  0
   10.2110    0.0140   24.0490 C   0  0  0  0  0  0  0  0  0  0  0  0
   12.3950   -0.8440   23.1300 C   0  0  0  0  0  0  0  0  0  0  0  0
    6.1280    0.9790   17.5870 N   0  0  0  0  0  0  0  0  0  0  0  0
    4.7000    1.2480   19.4440 C   0  0  0  0  0  0  0  0  0  0  0  0
    7.3400   -5.5590   28.6140 Cl  0  0  0  0  0  0  0  0  0  0  0  0
   13.2620   -1.9800   22.7210 C   0  0  0  0  0  0  0  0  0  0  0  0
   10.7610    1.4040   23.8660 C   0  0  0  0  0  0  0  0  0  0  0  0
   12.9100    0.3890   22.9520 C   0  0  0  0  0  0  0  0  0  0  0  0
    5.0110    1.4570   18.1150 C   0  0  0  0  0  0  0  0  0  0  0  0
   12.1790    1.5970   23.2930 C   0  0  0  0  0  0  0  0  0  0  0  0
  1  2  1  0
  2  3  1  0
  3  4  1  0
  4  5  1  0
  6  5  1  6
  6  7  1  0
  6  8  1  0
  7  8  1  6
  7  9  1  0
  9 10  1  0
  9 11  1  6
 10 12  1  0
 11 13  1  0
 10 14  1  0
 12 15  1  0
 12 16  2  0
 13 17  1  0
 14 18  1  6
 13 19  1  0
 14 19  1  0
 17 20  1  6
 17 21  1  0
 18 22  1  0
 21 23  2  0
 21 24  1  0
 20 25  1  0
 22 26  2  0
 22 27  1  0
 23 28  1  0
 24 29  1  0
 28 29  2  0
 25 30  2  0
 25 31  1  0
 26 32  1  0
 27 33  2  0
 29 34  1  0
 31 35  1  0
 30 36  1  0
 31 37  2  0
 32 38  2  0
 33 38  1  0
 36 39  2  0
 37 39  1  0
M  END
