x1334_1-x0831_1-x1385_1-x1374_1-x0831_0-x0434_2-x1334_0-x1412_1-x0692_1-x0397_0-x0770_1
     RDKit          3D

 39 43  0  0  0  0  0  0  0  0999 V2000
    2.3000   -7.6380   23.2400 O   0  0  0  0  0  0  0  0  0  0  0  0
    2.5490   -7.9060   24.6020 C   0  0  0  0  0  0  0  0  0  0  0  0
    3.9430   -7.9080   24.8210 O   0  0  0  0  0  0  0  0  0  0  0  0
    4.6250   -7.1640   23.8210 C   0  0  0  0  0  0  0  0  0  0  0  0
    5.0020   -5.9840   24.2750 C   0  0  0  0  0  0  0  0  0  0  0  0
    6.0720   -5.5800   23.3050 C   0  0  2  0  0  0  0  0  0  0  0  0
    5.8750   -4.5220   22.3410 C   0  0  2  0  0  0  0  0  0  0  0  0
    6.1100   -6.1470   22.0620 C   0  0  0  0  0  0  0  0  0  0  0  0
    6.9760   -3.4990   22.1260 C   0  0  1  0  0  0  0  0  0  0  0  0
    6.5980   -2.6010   21.0400 N   0  0  0  0  0  0  0  0  0  0  0  0
    7.3710   -2.8690   23.2940 C   0  0  0  0  0  0  0  0  0  0  0  0
    6.3440   -3.2760   19.8500 C   0  0  0  0  0  0  0  0  0  0  0  0
    8.3890   -1.8090   23.0900 N   0  0  0  0  0  0  0  0  0  0  0  0
    7.6320   -1.5640   20.8110 C   0  0  1  0  0  0  0  0  0  0  0  0
    7.3130   -3.0310   18.7150 C   0  0  0  0  0  0  0  0  0  0  0  0
    5.4090   -4.0830   19.7120 O   0  0  0  0  0  0  0  0  0  0  0  0
    9.4240   -1.9060   23.9300 C   0  0  1  0  0  0  0  0  0  0  0  0
    6.9770   -0.3140   21.1270 N   0  0  0  0  0  0  0  0  0  0  0  0
    8.8480   -1.6690   21.7320 C   0  0  0  0  0  0  0  0  0  0  0  0
    9.9110   -3.3230   23.8410 C   0  0  0  0  0  0  0  0  0  0  0  0
   10.4410   -0.7590   23.7350 C   0  0  0  0  0  0  0  0  0  0  0  0
    6.3970    0.2780   20.0420 C   0  0  0  0  0  0  0  0  0  0  0  0
   10.2470    0.4880   24.3080 C   0  0  0  0  0  0  0  0  0  0  0  0
   11.6140   -1.0030   22.9230 C   0  0  0  0  0  0  0  0  0  0  0  0
    9.3830   -4.1780   24.9960 C   0  0  0  0  0  0  0  0  0  0  0  0
    6.8840    0.1630   18.7430 C   0  0  0  0  0  0  0  0  0  0  0  0
    5.1520    1.1140   20.1710 C   0  0  0  0  0  0  0  0  0  0  0  0
   11.9620   -2.2760   22.2220 C   0  0  0  0  0  0  0  0  0  0  0  0
   11.1520    1.4990   24.1170 C   0  0  0  0  0  0  0  0  0  0  0  0
   12.5760   -0.0160   22.7100 C   0  0  0  0  0  0  0  0  0  0  0  0
    9.8950   -5.5540   25.3240 C   0  0  0  0  0  0  0  0  0  0  0  0
    8.1500   -3.7440   26.0970 S   0  0  0  0  0  0  0  0  0  0  0  0
    6.2480    0.8020   17.6210 N   0  0  0  0  0  0  0  0  0  0  0  0
    4.6230    1.6740   19.0930 C   0  0  0  0  0  0  0  0  0  0  0  0
   12.4090    1.2440   23.2700 C   0  0  0  0  0  0  0  0  0  0  0  0
    9.1700   -6.0470   26.4840 C   0  0  0  0  0  0  0  0  0  0  0  0
    8.2550   -5.2320   26.9800 C   0  0  0  0  0  0  0  0  0  0  0  0
    5.1590    1.5280   17.8320 C   0  0  0  0  0  0  0  0  0  0  0  0
    7.2520   -5.5370   28.3300 Cl  0  0  0  0  0  0  0  0  0  0  0  0
  1  2  1  0
  2  3  1  0
  3  4  1  0
  4  5  1  0
  6  5  1  1
  6  7  1  0
  6  8  1  0
  7  8  1  6
  7  9  1  0
  9 10  1  0
  9 11  1  1
 10 12  1  0
 11 13  1  0
 10 14  1  0
 12 15  1  0
 12 16  2  0
 13 17  1  0
 14 18  1  1
 13 19  1  0
 14 19  1  0
 17 20  1  6
 17 21  1  0
 18 22  1  0
 21 23  2  0
 21 24  1  0
 20 25  1  0
 22 26  2  0
 22 27  1  0
 24 28  1  0
 23 29  1  0
 24 30  2  0
 25 31  2  0
 25 32  1  0
 26 33  1  0
 27 34  2  0
 29 35  2  0
 30 35  1  0
 31 36  1  0
 32 37  1  0
 36 37  2  0
 33 38  2  0
 34 38  1  0
 37 39  1  0
M  END
