x1336_1-x0981_0
     RDKit          3D

 18 18  0  0  0  0  0  0  0  0999 V2000
    7.4730   -1.6840   25.2730 S   0  0  0  0  0  0  0  0  0  0  0  0
    7.5360   -2.2940   23.6950 C   0  0  0  0  0  0  0  0  0  0  0  0
    6.8330   -3.6250   23.4470 C   0  0  0  0  0  0  0  0  0  0  0  0
    8.6120   -0.8040   25.4150 O   0  0  0  0  0  0  0  0  0  0  0  0
    6.1150   -1.2720   25.5720 O   0  0  0  0  0  0  0  0  0  0  0  0
    7.8040   -3.1860   26.1920 C   0  0  0  0  0  0  0  0  0  0  0  0
    6.8800   -3.6250   27.1520 C   0  0  0  0  0  0  0  0  0  0  0  0
    8.9790   -3.9510   26.0070 C   0  0  0  0  0  0  0  0  0  0  0  0
   10.0800   -3.6310   25.0380 C   0  0  0  0  0  0  0  0  0  0  0  0
    7.5230   -4.4980   22.7380 C   0  0  0  0  0  0  0  0  0  0  0  0
    7.0660   -4.8710   28.0050 C   0  0  0  0  0  0  0  0  0  0  0  0
    9.1940   -5.0970   26.7540 C   0  0  0  0  0  0  0  0  0  0  0  0
    6.0330   -5.2660   29.0130 C   0  0  0  0  0  0  0  0  0  0  0  0
    6.6430   -5.4660   21.9120 C   0  0  1  0  0  0  0  0  0  0  0  0
    8.3720   -5.5950   27.6940 C   0  0  0  0  0  0  0  0  0  0  0  0
    5.3350   -5.6660   22.6000 N   0  0  0  0  0  0  0  0  0  0  0  0
    6.4620   -5.2520   20.3990 C   0  0  0  0  0  0  0  0  0  0  0  0
    5.6780   -6.1700   19.8730 C   0  0  0  0  0  0  0  0  0  0  0  0
  1  2  1  0
  2  3  1  0
  1  4  2  0
  1  5  2  0
  1  6  1  0
  6  7  2  0
  6  8  1  0
  8  9  1  0
  3 10  1  0
  7 11  1  0
  8 12  2  0
 11 13  1  0
 10 14  1  0
 11 15  2  0
 12 15  1  0
 14 16  1  1
 14 17  1  0
 17 18  2  3
M  END
