x1334_1-x0426_1-x1334_0-x0831_1-x1374_1-x0692_1-x1385_1-x0397_0-x1375_1-x0831_0
     RDKit          3D

 44 49  0  0  0  0  0  0  0  0999 V2000
    1.9580   -7.4400   23.8000 O   0  0  0  0  0  0  0  0  0  0  0  0
    2.4130   -8.0740   24.9860 C   0  0  0  0  0  0  0  0  0  0  0  0
    3.8230   -7.9970   24.9790 O   0  0  0  0  0  0  0  0  0  0  0  0
    4.3220   -7.2350   23.8920 C   0  0  0  0  0  0  0  0  0  0  0  0
    4.8790   -6.0490   24.2910 C   0  0  0  0  0  0  0  0  0  0  0  0
    5.9870   -5.6360   23.3810 C   0  0  2  0  0  0  0  0  0  0  0  0
    5.8560   -4.6550   22.3900 C   0  0  2  0  0  0  0  0  0  0  0  0
    6.1020   -6.1390   21.8870 C   0  0  0  0  0  0  0  0  0  0  0  0
    6.9420   -3.6730   22.1950 C   0  0  1  0  0  0  0  0  0  0  0  0
    6.7650   -2.7550   21.1040 N   0  0  0  0  0  0  0  0  0  0  0  0
    7.3390   -2.9280   23.4570 C   0  0  0  0  0  0  0  0  0  0  0  0
    6.4350   -3.2600   19.8510 C   0  0  0  0  0  0  0  0  0  0  0  0
    8.6710   -2.3640   23.4110 N   0  0  0  0  0  0  0  0  0  0  0  0
    7.7720   -1.6580   21.1950 C   0  0  2  0  0  0  0  0  0  0  0  0
    7.4090   -2.9930   18.7330 C   0  0  0  0  0  0  0  0  0  0  0  0
    5.4320   -3.9660   19.6660 O   0  0  0  0  0  0  0  0  0  0  0  0
    9.6430   -3.2940   23.9490 C   0  0  1  0  0  0  0  0  0  0  0  0
    9.0170   -2.1280   21.9820 C   0  0  0  0  0  0  0  0  0  0  0  0
    7.2450   -0.4140   21.9330 C   0  0  0  0  0  0  0  0  0  0  0  0
   10.9540   -2.6510   24.3080 C   0  0  0  0  0  0  0  0  0  0  0  0
    9.1940   -4.1470   25.1120 C   0  0  0  0  0  0  0  0  0  0  0  0
    5.7840   -0.0600   21.6500 C   0  0  1  0  0  0  0  0  0  0  0  0
    9.7580   -5.3840   25.3670 C   0  0  0  0  0  0  0  0  0  0  0  0
    8.0010   -3.8390   26.2940 S   0  0  0  0  0  0  0  0  0  0  0  0
   11.2030   -1.1840   24.0110 C   0  0  0  0  0  0  0  0  0  0  0  0
    5.4570    1.0730   22.4030 C   0  0  0  0  0  0  0  0  0  0  0  0
    5.6350    0.4530   20.2610 C   0  0  0  0  0  0  0  0  0  0  0  0
    9.2530   -6.0140   26.4320 C   0  0  0  0  0  0  0  0  0  0  0  0
    8.2690   -5.3490   27.0960 C   0  0  0  0  0  0  0  0  0  0  0  0
   10.4180   -0.1860   24.5590 C   0  0  0  0  0  0  0  0  0  0  0  0
   12.2760   -0.8430   23.1630 C   0  0  0  0  0  0  0  0  0  0  0  0
    3.9480    1.3810   22.2890 C   0  0  1  0  0  0  0  0  0  0  0  0
    4.6130    1.2590   19.9560 C   0  0  0  0  0  0  0  0  0  0  0  0
    6.5420    0.1190   19.2540 C   0  0  0  0  0  0  0  0  0  0  0  0
    7.3750   -5.8020   28.4770 Cl  0  0  0  0  0  0  0  0  0  0  0  0
   13.1220   -1.9100   22.5420 C   0  0  0  0  0  0  0  0  0  0  0  0
   10.7040    1.3180   24.2610 C   0  0  0  0  0  0  0  0  0  0  0  0
   12.5770    0.4670   22.8810 C   0  0  0  0  0  0  0  0  0  0  0  0
    3.5850    2.3960   23.1220 N   0  0  0  0  0  0  0  0  0  0  0  0
    3.5570    1.6770   20.9820 C   0  0  0  0  0  0  0  0  0  0  0  0
    4.4510    1.7680   18.6790 C   0  0  0  0  0  0  0  0  0  0  0  0
    6.4620    0.5580   17.9920 N   0  0  0  0  0  0  0  0  0  0  0  0
   11.8300    1.5310   23.4020 C   0  0  0  0  0  0  0  0  0  0  0  0
    5.3840    1.4080   17.7290 C   0  0  0  0  0  0  0  0  0  0  0  0
  1  2  1  0
  2  3  1  0
  3  4  1  0
  4  5  1  0
  6  5  1  6
  6  7  1  0
  6  8  1  0
  7  8  1  6
  7  9  1  0
  9 10  1  0
  9 11  1  1
 10 12  1  0
 11 13  1  0
 10 14  1  0
 12 15  1  0
 12 16  2  0
 13 17  1  0
 13 18  1  0
 14 18  1  0
 14 19  1  1
 17 20  1  1
 17 21  1  0
 22 19  1  6
 21 23  2  0
 21 24  1  0
 20 25  1  0
 22 26  1  0
 22 27  1  0
 23 28  1  0
 24 29  1  0
 28 29  2  0
 25 30  2  0
 25 31  1  0
 26 32  1  0
 27 33  2  0
 27 34  1  0
 29 35  1  0
 31 36  1  0
 30 37  1  0
 31 38  2  0
 32 39  1  1
 32 40  1  0
 33 40  1  0
 33 41  1  0
 34 42  2  0
 37 43  2  0
 38 43  1  0
 41 44  2  0
 42 44  1  0
M  END
