x1334_0-x0831_0-x0426_1-x1334_1
     RDKit          3D

 36 40  0  0  0  0  0  0  0  0999 V2000
    6.3350   -3.3270   19.9120 C   0  0  0  0  0  0  0  0  0  0  0  0
    7.2920   -2.9790   18.7810 C   0  0  0  0  0  0  0  0  0  0  0  0
    5.3980   -4.1200   19.7480 O   0  0  0  0  0  0  0  0  0  0  0  0
    6.5860   -2.7370   21.1620 N   0  0  0  0  0  0  0  0  0  0  0  0
    7.4840   -1.5810   21.3990 C   0  0  2  0  0  0  0  0  0  0  0  0
    6.2750   -3.3750   22.4590 C   0  0  0  0  0  0  0  0  0  0  0  0
    8.7490   -2.0530   22.1290 C   0  0  0  0  0  0  0  0  0  0  0  0
    7.4510   -3.8380   23.0860 C   0  0  0  0  0  0  0  0  0  0  0  0
    6.8550   -0.4600   22.2830 C   0  0  0  0  0  0  0  0  0  0  0  0
    8.4330   -2.7650   23.3780 N   0  0  0  0  0  0  0  0  0  0  0  0
    6.8520    0.9780   21.7310 C   0  0  2  0  0  0  0  0  0  0  0  0
    9.6140   -3.3490   23.8520 C   0  0  1  0  0  0  0  0  0  0  0  0
    6.1430    1.8480   22.5780 C   0  0  0  0  0  0  0  0  0  0  0  0
    6.1470    0.9950   20.3600 C   0  0  0  0  0  0  0  0  0  0  0  0
   10.7800   -2.6120   24.1820 C   0  0  0  0  0  0  0  0  0  0  0  0
    9.2640   -4.2340   24.9990 C   0  0  0  0  0  0  0  0  0  0  0  0
    4.6300    1.6550   22.4360 C   0  0  1  0  0  0  0  0  0  0  0  0
    4.8510    1.6200   20.1370 C   0  0  0  0  0  0  0  0  0  0  0  0
    6.8450    0.3380   19.2220 C   0  0  0  0  0  0  0  0  0  0  0  0
    9.7920   -5.4560   25.3260 C   0  0  0  0  0  0  0  0  0  0  0  0
    8.0660   -3.8230   26.1640 S   0  0  0  0  0  0  0  0  0  0  0  0
   11.0520   -1.1520   23.9590 C   0  0  0  0  0  0  0  0  0  0  0  0
    4.0330    2.3040   23.4620 N   0  0  0  0  0  0  0  0  0  0  0  0
    4.1460    2.2500   21.2760 C   0  0  0  0  0  0  0  0  0  0  0  0
    4.3540    1.5850   18.8640 C   0  0  0  0  0  0  0  0  0  0  0  0
    6.3250    0.3270   17.9980 N   0  0  0  0  0  0  0  0  0  0  0  0
    9.2780   -6.0370   26.4320 C   0  0  0  0  0  0  0  0  0  0  0  0
    8.3120   -5.2840   27.0290 C   0  0  0  0  0  0  0  0  0  0  0  0
   10.2340    0.0230   24.5630 C   0  0  0  0  0  0  0  0  0  0  0  0
   12.1480   -0.8030   23.1550 C   0  0  0  0  0  0  0  0  0  0  0  0
    5.1320    0.9360   17.8540 C   0  0  0  0  0  0  0  0  0  0  0  0
    7.4030   -5.6420   28.4300 Cl  0  0  0  0  0  0  0  0  0  0  0  0
   13.0020   -1.8460   22.5020 C   0  0  0  0  0  0  0  0  0  0  0  0
   10.6980    1.2820   24.2360 C   0  0  0  0  0  0  0  0  0  0  0  0
   12.5140    0.5130   22.9130 C   0  0  0  0  0  0  0  0  0  0  0  0
   11.8010    1.5750   23.4450 C   0  0  0  0  0  0  0  0  0  0  0  0
  1  2  1  0
  1  3  2  0
  1  4  1  0
  4  5  1  0
  4  6  1  0
  5  7  1  0
  6  8  1  0
  5  9  1  1
  7 10  1  0
  8 10  1  0
 11  9  1  1
 10 12  1  0
 11 13  1  0
 11 14  1  0
 12 15  1  1
 12 16  1  0
 13 17  1  0
 14 18  2  0
 14 19  1  0
 16 20  2  0
 16 21  1  0
 15 22  1  0
 17 23  1  1
 17 24  1  0
 18 24  1  0
 18 25  1  0
 19 26  2  0
 20 27  1  0
 21 28  1  0
 27 28  2  0
 22 29  2  0
 22 30  1  0
 25 31  2  0
 26 31  1  0
 28 32  1  0
 30 33  1  0
 29 34  1  0
 30 35  2  0
 34 36  2  0
 35 36  1  0
M  END
