x1334_0-x1386_1-x0426_1-x1374_1-x1412_1-x1385_1-x1334_1-x0397_0-x0770_1-x0434_2-x0692_1-x0831_0
     RDKit          3D

 45 50  0  0  0  0  0  0  0  0999 V2000
    1.9710   -6.7720   24.3000 O   0  0  0  0  0  0  0  0  0  0  0  0
    2.9260   -7.5570   23.6260 C   0  0  0  0  0  0  0  0  0  0  0  0
    3.9640   -7.9430   24.5170 O   0  0  0  0  0  0  0  0  0  0  0  0
    4.8030   -6.8440   24.8440 C   0  0  0  0  0  0  0  0  0  0  0  0
    5.9840   -6.9820   24.2300 C   0  0  0  0  0  0  0  0  0  0  0  0
    6.1330   -5.8570   23.2410 C   0  0  2  0  0  0  0  0  0  0  0  0
    5.0110   -5.1140   22.6520 C   0  0  2  0  0  0  0  0  0  0  0  0
    6.0880   -6.1760   21.9350 C   0  0  0  0  0  0  0  0  0  0  0  0
    5.1370   -3.6600   22.4210 C   0  0  0  0  0  0  0  0  0  0  0  0
    6.5810   -3.3960   22.0980 C   0  0  1  0  0  0  0  0  0  0  0  0
    6.7140   -2.5180   21.0010 N   0  0  0  0  0  0  0  0  0  0  0  0
    7.3230   -2.9170   23.2920 C   0  0  0  0  0  0  0  0  0  0  0  0
    6.4670   -3.0890   19.7490 C   0  0  0  0  0  0  0  0  0  0  0  0
    8.7370   -2.9530   23.0220 N   0  0  0  0  0  0  0  0  0  0  0  0
    7.8110   -1.5270   21.1790 C   0  0  2  0  0  0  0  0  0  0  0  0
    7.4840   -2.9420   18.6530 C   0  0  0  0  0  0  0  0  0  0  0  0
    5.4510   -3.7800   19.5500 O   0  0  0  0  0  0  0  0  0  0  0  0
    9.4830   -2.7670   24.2240 C   0  0  2  0  0  0  0  0  0  0  0  0
    9.0990   -2.1730   21.8260 C   0  0  0  0  0  0  0  0  0  0  0  0
    7.3520   -0.4010   22.1360 C   0  0  0  0  0  0  0  0  0  0  0  0
   10.9220   -2.5710   23.8890 C   0  0  0  0  0  0  0  0  0  0  0  0
    9.2030   -3.8000   25.2860 C   0  0  0  0  0  0  0  0  0  0  0  0
    6.0840    0.4110   21.8320 C   0  0  2  0  0  0  0  0  0  0  0  0
    9.8830   -5.0270   25.5310 C   0  0  0  0  0  0  0  0  0  0  0  0
    7.9260   -3.5730   26.4060 S   0  0  0  0  0  0  0  0  0  0  0  0
   11.2770   -1.1180   23.7680 C   0  0  0  0  0  0  0  0  0  0  0  0
    4.8530    0.0650   22.4660 C   0  0  0  0  0  0  0  0  0  0  0  0
    5.8090    0.7000   20.4260 C   0  0  0  0  0  0  0  0  0  0  0  0
    9.3920   -5.7170   26.5870 C   0  0  0  0  0  0  0  0  0  0  0  0
    8.3300   -5.1080   27.2180 C   0  0  0  0  0  0  0  0  0  0  0  0
   10.5280   -0.1290   24.3750 C   0  0  0  0  0  0  0  0  0  0  0  0
   12.3940   -0.7640   23.0220 C   0  0  0  0  0  0  0  0  0  0  0  0
    3.8450    1.2330   22.4340 C   0  0  1  0  0  0  0  0  0  0  0  0
    4.5660    1.3440   20.0910 C   0  0  0  0  0  0  0  0  0  0  0  0
    6.7990    0.3390   19.3650 C   0  0  0  0  0  0  0  0  0  0  0  0
    7.3900   -5.5560   28.5730 Cl  0  0  0  0  0  0  0  0  0  0  0  0
   13.1850   -1.8370   22.3490 C   0  0  0  0  0  0  0  0  0  0  0  0
   10.8950    1.1920   24.2310 C   0  0  0  0  0  0  0  0  0  0  0  0
   12.8050    0.5290   22.8680 C   0  0  0  0  0  0  0  0  0  0  0  0
    4.3000    2.2340   23.4000 N   0  0  0  0  0  0  0  0  0  0  0  0
    3.5190    1.6960   21.1370 C   0  0  0  0  0  0  0  0  0  0  0  0
    4.3760    1.6530   18.6270 C   0  0  0  0  0  0  0  0  0  0  0  0
    6.5480    0.6340   18.0630 N   0  0  0  0  0  0  0  0  0  0  0  0
   12.0240    1.5070   23.4900 C   0  0  0  0  0  0  0  0  0  0  0  0
    5.3330    1.3020   17.7540 C   0  0  0  0  0  0  0  0  0  0  0  0
  1  2  1  0
  2  3  1  0
  3  4  1  0
  4  5  1  0
  6  5  1  1
  6  7  1  0
  6  8  1  0
  7  8  1  0
  7  9  1  6
 10  9  1  1
 10 11  1  0
 10 12  1  0
 11 13  1  0
 12 14  1  0
 11 15  1  0
 13 16  1  0
 13 17  2  0
 14 18  1  0
 14 19  1  0
 15 19  1  0
 15 20  1  1
 18 21  1  6
 18 22  1  0
 23 20  1  6
 22 24  2  0
 22 25  1  0
 21 26  1  0
 23 27  1  0
 23 28  1  0
 24 29  1  0
 25 30  1  0
 29 30  2  0
 26 31  2  0
 26 32  1  0
 27 33  1  0
 28 34  2  0
 28 35  1  0
 30 36  1  0
 32 37  1  0
 31 38  1  0
 32 39  2  0
 33 40  1  1
 33 41  1  0
 34 41  1  0
 34 42  1  0
 35 43  2  0
 38 44  2  0
 39 44  1  0
 42 45  2  0
 43 45  1  0
M  END
