x1334_1-x0770_1-x0397_0-x1334_0-x0426_1-x0692_1-x0831_0-x1385_1-x1374_1-x1418_1-x0434_2-x1412_1
     RDKit          3D

 45 51  0  0  0  0  0  0  0  0999 V2000
    1.9560   -7.2000   23.6260 O   0  0  0  0  0  0  0  0  0  0  0  0
    2.4250   -7.6000   24.9030 C   0  0  0  0  0  0  0  0  0  0  0  0
    3.8100   -7.8810   24.8340 O   0  0  0  0  0  0  0  0  0  0  0  0
    4.4240   -7.1850   23.7670 C   0  0  0  0  0  0  0  0  0  0  0  0
    4.9480   -5.8710   24.1920 C   0  0  0  0  0  0  0  0  0  0  0  0
    5.9020   -5.5160   23.1030 C   0  0  2  0  0  0  0  0  0  0  0  0
    5.5130   -4.5070   22.2110 C   0  0  2  0  0  0  0  0  0  0  0  0
    5.9230   -6.1150   21.9360 C   0  0  0  0  0  0  0  0  0  0  0  0
    6.3830   -3.3230   22.4260 C   0  0  2  0  0  0  0  0  0  0  0  0
    6.5940   -2.6130   21.1660 N   0  0  0  0  0  0  0  0  0  0  0  0
    7.6240   -3.6670   23.0410 C   0  0  0  0  0  0  0  0  0  0  0  0
    6.3750   -3.2130   19.8860 C   0  0  0  0  0  0  0  0  0  0  0  0
    8.6410   -2.6380   23.2960 N   0  0  0  0  0  0  0  0  0  0  0  0
    7.5590   -1.5090   21.4440 C   0  0  2  0  0  0  0  0  0  0  0  0
    7.3630   -2.9460   18.7840 C   0  0  0  0  0  0  0  0  0  0  0  0
    5.4250   -3.9910   19.6840 O   0  0  0  0  0  0  0  0  0  0  0  0
    9.7320   -3.2330   23.9290 C   0  0  1  0  0  0  0  0  0  0  0  0
    7.7460   -0.3290   20.5810 N   0  0  0  0  0  0  0  0  0  0  0  0
    8.9040   -2.0790   21.9450 C   0  0  0  0  0  0  0  0  0  0  0  0
   10.6870   -2.3190   24.7470 C   0  0  0  0  0  0  0  0  0  0  0  0
    7.9130    0.8110   21.5140 C   0  0  0  0  0  0  0  0  0  0  0  0
    6.7070    0.0800   19.7780 C   0  0  0  0  0  0  0  0  0  0  0  0
    9.2760   -4.1810   25.0520 C   0  0  0  0  0  0  0  0  0  0  0  0
    6.4740    1.3220   21.8200 C   0  0  1  0  0  0  0  0  0  0  0  0
    6.3500   -0.2450   18.4910 N   0  0  0  0  0  0  0  0  0  0  0  0
    5.9110    0.9990   20.5010 C   0  0  0  0  0  0  0  0  0  0  0  0
    9.8090   -5.4160   25.3150 C   0  0  0  0  0  0  0  0  0  0  0  0
    7.9570   -3.8100   26.2620 S   0  0  0  0  0  0  0  0  0  0  0  0
   11.1100   -0.9970   24.2400 C   0  0  0  0  0  0  0  0  0  0  0  0
    5.3940    0.9350   22.8190 C   0  0  0  0  0  0  0  0  0  0  0  0
    4.7780    1.5770   20.1210 C   0  0  0  0  0  0  0  0  0  0  0  0
    5.2220    0.3280   18.0090 C   0  0  0  0  0  0  0  0  0  0  0  0
    9.2530   -6.0560   26.3880 C   0  0  0  0  0  0  0  0  0  0  0  0
    8.2430   -5.3300   27.0120 C   0  0  0  0  0  0  0  0  0  0  0  0
   10.5060    0.1610   24.5800 C   0  0  0  0  0  0  0  0  0  0  0  0
   12.3180   -0.8630   23.2840 C   0  0  0  0  0  0  0  0  0  0  0  0
    4.0260    1.6450   22.5070 C   0  0  2  0  0  0  0  0  0  0  0  0
    4.1560    2.4330   21.1610 C   0  0  0  0  0  0  0  0  0  0  0  0
    7.3220   -5.7930   28.3740 Cl  0  0  0  0  0  0  0  0  0  0  0  0
   13.0870   -2.0470   22.7940 C   0  0  0  0  0  0  0  0  0  0  0  0
    4.4220    1.1900   18.7190 C   0  0  0  0  0  0  0  0  0  0  0  0
   11.0230    1.4930   24.0480 C   0  0  0  0  0  0  0  0  0  0  0  0
   12.7450    0.5060   22.8340 C   0  0  0  0  0  0  0  0  0  0  0  0
    3.6410    2.5780   23.5500 N   0  0  0  0  0  0  0  0  0  0  0  0
   12.0800    1.6210   23.2340 C   0  0  0  0  0  0  0  0  0  0  0  0
  1  2  1  0
  2  3  1  0
  3  4  1  0
  4  5  1  0
  6  5  1  1
  6  7  1  0
  6  8  1  0
  7  8  1  6
  7  9  1  0
  9 10  1  0
  9 11  1  6
 10 12  1  0
 11 13  1  0
 10 14  1  0
 12 15  1  0
 12 16  2  0
 13 17  1  0
 14 18  1  6
 13 19  1  0
 14 19  1  0
 17 20  1  1
 18 21  1  0
 18 22  1  0
 17 23  1  0
 24 21  1  1
 22 25  2  0
 22 26  1  0
 24 26  1  0
 23 27  2  0
 23 28  1  0
 20 29  1  0
 24 30  1  0
 26 31  2  0
 25 32  1  0
 27 33  1  0
 28 34  1  0
 33 34  2  0
 29 35  2  0
 29 36  1  0
 30 37  1  0
 31 38  1  0
 37 38  1  0
 34 39  1  0
 36 40  1  0
 31 41  1  0
 32 41  2  0
 35 42  1  0
 36 43  2  0
 37 44  1  1
 42 45  2  0
 43 45  1  0
M  END
