x1334_0-x0831_0-x1334_1-x1385_1-x1375_1-x0397_0-x0692_1-x0434_2-x1412_1-x1374_1-x0426_1-x0770_1-x1418_1-x0831_1
     RDKit          3D

 44 50  0  0  0  0  0  0  0  0999 V2000
    2.3450   -7.8640   23.3550 O   0  0  0  0  0  0  0  0  0  0  0  0
    2.9710   -7.6230   24.5850 C   0  0  0  0  0  0  0  0  0  0  0  0
    4.3610   -7.5630   24.3920 O   0  0  0  0  0  0  0  0  0  0  0  0
    4.6430   -6.1580   24.2460 C   0  0  0  0  0  0  0  0  0  0  0  0
    5.7280   -5.7470   23.2670 C   0  0  2  0  0  0  0  0  0  0  0  0
    5.5760   -4.6870   22.4510 C   0  0  2  0  0  0  0  0  0  0  0  0
    5.9290   -6.2300   21.9360 C   0  0  0  0  0  0  0  0  0  0  0  0
    6.5270   -3.4970   22.4190 C   0  0  2  0  0  0  0  0  0  0  0  0
    6.6800   -2.7650   21.1240 N   0  0  0  0  0  0  0  0  0  0  0  0
    7.7450   -3.8820   22.9290 C   0  0  0  0  0  0  0  0  0  0  0  0
    6.3840   -3.4030   19.9030 C   0  0  0  0  0  0  0  0  0  0  0  0
    8.4080   -2.6510   23.1910 N   0  0  0  0  0  0  0  0  0  0  0  0
    7.8430   -1.7890   20.9940 C   0  0  1  0  0  0  0  0  0  0  0  0
    7.3580   -3.0840   18.7660 C   0  0  0  0  0  0  0  0  0  0  0  0
    5.4360   -4.1840   19.7580 O   0  0  0  0  0  0  0  0  0  0  0  0
    9.3690   -2.6760   24.2810 C   0  0  2  0  0  0  0  0  0  0  0  0
    7.4260   -0.4160   21.1250 N   0  0  0  0  0  0  0  0  0  0  0  0
    8.8760   -2.1010   21.8810 C   0  0  0  0  0  0  0  0  0  0  0  0
   10.6920   -2.5190   23.8220 C   0  0  0  0  0  0  0  0  0  0  0  0
    6.8610    0.0730   22.4070 C   0  0  0  0  0  0  0  0  0  0  0  0
    6.6040    0.1540   20.0950 C   0  0  0  0  0  0  0  0  0  0  0  0
    9.1070   -3.8300   25.2760 C   0  0  0  0  0  0  0  0  0  0  0  0
    5.6130    0.9200   22.1390 C   0  0  1  0  0  0  0  0  0  0  0  0
    6.6460    0.1070   18.7040 N   0  0  0  0  0  0  0  0  0  0  0  0
    5.5900    0.8830   20.6320 C   0  0  0  0  0  0  0  0  0  0  0  0
    9.8300   -4.9970   25.3130 C   0  0  0  0  0  0  0  0  0  0  0  0
    7.8800   -3.8270   26.4850 S   0  0  0  0  0  0  0  0  0  0  0  0
   11.1830   -1.0920   23.7060 C   0  0  0  0  0  0  0  0  0  0  0  0
    4.1930    0.5310   22.5980 C   0  0  0  0  0  0  0  0  0  0  0  0
    4.5210    1.6150   19.9770 C   0  0  0  0  0  0  0  0  0  0  0  0
    5.6570    0.8080   18.0330 C   0  0  0  0  0  0  0  0  0  0  0  0
    9.3360   -5.9290   26.4100 C   0  0  0  0  0  0  0  0  0  0  0  0
    8.2810   -5.3580   27.0880 C   0  0  0  0  0  0  0  0  0  0  0  0
   10.4750   -0.0820   24.3260 C   0  0  0  0  0  0  0  0  0  0  0  0
   12.3030   -0.8430   22.9940 C   0  0  0  0  0  0  0  0  0  0  0  0
    3.2320    1.6650   22.2110 C   0  0  2  0  0  0  0  0  0  0  0  0
    3.5070    2.3200   20.8200 C   0  0  0  0  0  0  0  0  0  0  0  0
    7.3770   -5.9790   28.3970 Cl  0  0  0  0  0  0  0  0  0  0  0  0
   13.0600   -1.9310   22.3060 C   0  0  0  0  0  0  0  0  0  0  0  0
    4.6200    1.5410   18.6040 C   0  0  0  0  0  0  0  0  0  0  0  0
   10.9530    1.2200   24.1950 C   0  0  0  0  0  0  0  0  0  0  0  0
   12.7660    0.4450   22.8870 C   0  0  0  0  0  0  0  0  0  0  0  0
    3.2910    2.6020   23.3560 N   0  0  0  0  0  0  0  0  0  0  0  0
   12.1090    1.5010   23.4760 C   0  0  0  0  0  0  0  0  0  0  0  0
  1  2  1  0
  2  3  1  0
  3  4  1  0
  5  4  1  6
  5  6  1  0
  5  7  1  0
  6  7  1  6
  6  8  1  0
  8  9  1  0
  8 10  1  6
  9 11  1  0
 10 12  1  0
  9 13  1  0
 11 14  1  0
 11 15  2  0
 12 16  1  0
 13 17  1  1
 12 18  1  0
 13 18  1  0
 16 19  1  6
 17 20  1  0
 17 21  1  0
 16 22  1  0
 23 20  1  1
 21 24  2  0
 21 25  1  0
 23 25  1  0
 22 26  2  0
 22 27  1  0
 19 28  1  0
 23 29  1  0
 25 30  2  0
 24 31  1  0
 26 32  1  0
 27 33  1  0
 32 33  2  0
 28 34  2  0
 28 35  1  0
 29 36  1  0
 30 37  1  0
 36 37  1  0
 33 38  1  0
 35 39  1  0
 30 40  1  0
 31 40  2  0
 34 41  1  0
 35 42  2  0
 36 43  1  1
 41 44  2  0
 42 44  1  0
M  END
