x1334_0-x0831_0-x1385_1
     RDKit          3D

 24 26  0  0  0  0  0  0  0  0999 V2000
    6.3530   -3.2030   19.8640 C   0  0  0  0  0  0  0  0  0  0  0  0
    7.3940   -2.9670   18.7780 C   0  0  0  0  0  0  0  0  0  0  0  0
    5.4850   -4.0760   19.7180 O   0  0  0  0  0  0  0  0  0  0  0  0
    6.4010   -2.4370   21.0130 N   0  0  0  0  0  0  0  0  0  0  0  0
    5.8040   -2.8410   22.2660 C   0  0  0  0  0  0  0  0  0  0  0  0
    7.4090   -1.3930   21.1540 C   0  0  0  0  0  0  0  0  0  0  0  0
    6.8590   -3.1970   23.3150 C   0  0  0  0  0  0  0  0  0  0  0  0
    8.4380   -1.7750   21.9460 C   0  0  0  0  0  0  0  0  0  0  0  0
    8.1510   -2.4820   23.2250 N   0  0  0  0  0  0  0  0  0  0  0  0
    9.2100   -3.4220   23.4840 C   0  0  1  0  0  0  0  0  0  0  0  0
   10.6020   -2.8180   23.1850 C   0  0  0  0  0  0  0  0  0  0  0  0
    9.0510   -4.2490   24.8030 C   0  0  0  0  0  0  0  0  0  0  0  0
    9.7840   -5.4870   25.1550 C   0  0  0  0  0  0  0  0  0  0  0  0
    7.9270   -3.8360   26.0680 S   0  0  0  0  0  0  0  0  0  0  0  0
   10.9490   -1.3480   23.3540 C   0  0  0  0  0  0  0  0  0  0  0  0
    9.3970   -6.0310   26.3980 C   0  0  0  0  0  0  0  0  0  0  0  0
    8.3180   -5.1710   27.0230 C   0  0  0  0  0  0  0  0  0  0  0  0
   10.0450   -0.3760   24.1870 C   0  0  0  0  0  0  0  0  0  0  0  0
   12.1110   -0.8750   22.7630 C   0  0  0  0  0  0  0  0  0  0  0  0
    7.5190   -5.4320   28.5050 Cl  0  0  0  0  0  0  0  0  0  0  0  0
   12.9750   -1.7920   21.9640 C   0  0  0  0  0  0  0  0  0  0  0  0
   10.5190    1.0940   24.2960 C   0  0  0  0  0  0  0  0  0  0  0  0
   12.5840    0.5740   22.8830 C   0  0  0  0  0  0  0  0  0  0  0  0
   11.7290    1.5400   23.6730 C   0  0  0  0  0  0  0  0  0  0  0  0
  1  2  1  0
  1  3  2  0
  1  4  1  0
  4  5  1  0
  4  6  1  0
  5  7  1  0
  6  8  1  0
  7  9  1  0
  8  9  1  0
  9 10  1  0
 10 11  1  1
 10 12  1  0
 12 13  2  0
 12 14  1  0
 11 15  1  0
 13 16  1  0
 14 17  1  0
 16 17  2  0
 15 18  2  0
 15 19  1  0
 17 20  1  0
 19 21  1  0
 18 22  1  0
 19 23  2  0
 22 24  2  0
 23 24  1  0
M  END
