x1334_0-x1412_1-x1385_1-x0770_1-x1386_1-x1374_1-x0397_0-x1375_1-x0692_1-x1334_1-x0434_2-x0831_0
     RDKit          3D

 39 43  0  0  0  0  0  0  0  0999 V2000
    2.2840   -7.6360   23.2800 O   0  0  0  0  0  0  0  0  0  0  0  0
    2.5220   -7.9710   24.6310 C   0  0  0  0  0  0  0  0  0  0  0  0
    3.9170   -7.9450   24.8220 O   0  0  0  0  0  0  0  0  0  0  0  0
    4.5400   -7.2120   23.7680 C   0  0  0  0  0  0  0  0  0  0  0  0
    4.9000   -5.9740   24.2700 C   0  0  0  0  0  0  0  0  0  0  0  0
    5.9330   -5.5150   23.2910 C   0  0  2  0  0  0  0  0  0  0  0  0
    5.4460   -4.5720   22.3410 C   0  0  2  0  0  0  0  0  0  0  0  0
    6.0150   -5.9560   21.7920 C   0  0  0  0  0  0  0  0  0  0  0  0
    6.2300   -3.3120   22.4070 C   0  0  2  0  0  0  0  0  0  0  0  0
    6.6230   -2.7710   21.0930 N   0  0  0  0  0  0  0  0  0  0  0  0
    7.4760   -3.6550   23.2110 C   0  0  0  0  0  0  0  0  0  0  0  0
    6.3480   -3.3810   19.8900 C   0  0  0  0  0  0  0  0  0  0  0  0
    8.2790   -2.4890   23.3630 N   0  0  0  0  0  0  0  0  0  0  0  0
    7.6590   -1.7140   21.1310 C   0  0  1  0  0  0  0  0  0  0  0  0
    7.3250   -3.0730   18.7640 C   0  0  0  0  0  0  0  0  0  0  0  0
    5.3990   -4.1560   19.7210 O   0  0  0  0  0  0  0  0  0  0  0  0
    9.2360   -2.6750   24.2720 C   0  0  2  0  0  0  0  0  0  0  0  0
    6.9910   -0.4460   21.3570 N   0  0  0  0  0  0  0  0  0  0  0  0
    8.7370   -2.0020   22.1700 C   0  0  0  0  0  0  0  0  0  0  0  0
   10.4610   -2.5160   23.4420 C   0  0  0  0  0  0  0  0  0  0  0  0
    9.0340   -3.8570   25.2270 C   0  0  0  0  0  0  0  0  0  0  0  0
    6.3540    0.1700   20.2940 C   0  0  0  0  0  0  0  0  0  0  0  0
    9.7530   -5.0300   25.1750 C   0  0  0  0  0  0  0  0  0  0  0  0
    7.8390   -3.8530   26.5540 S   0  0  0  0  0  0  0  0  0  0  0  0
   11.0490   -1.1370   23.4360 C   0  0  0  0  0  0  0  0  0  0  0  0
    6.8880    0.1050   18.9110 C   0  0  0  0  0  0  0  0  0  0  0  0
    5.0590    0.9730   20.4030 C   0  0  0  0  0  0  0  0  0  0  0  0
    9.3120   -5.9770   26.2800 C   0  0  0  0  0  0  0  0  0  0  0  0
    8.2080   -5.3920   27.1300 C   0  0  0  0  0  0  0  0  0  0  0  0
   10.3930   -0.1000   24.1110 C   0  0  0  0  0  0  0  0  0  0  0  0
   12.3540   -0.8430   22.7230 C   0  0  0  0  0  0  0  0  0  0  0  0
    6.4020    0.6520   17.7980 N   0  0  0  0  0  0  0  0  0  0  0  0
    4.4720    1.6040   19.1650 C   0  0  0  0  0  0  0  0  0  0  0  0
    7.3610   -6.0190   28.4720 Cl  0  0  0  0  0  0  0  0  0  0  0  0
   13.0990   -1.8940   21.9710 C   0  0  0  0  0  0  0  0  0  0  0  0
   10.8800    1.1850   24.1560 C   0  0  0  0  0  0  0  0  0  0  0  0
   12.8380    0.6210   22.8410 C   0  0  0  0  0  0  0  0  0  0  0  0
    5.2220    1.4050   17.8290 C   0  0  0  0  0  0  0  0  0  0  0  0
   12.0530    1.5230   23.5470 C   0  0  0  0  0  0  0  0  0  0  0  0
  1  2  1  0
  2  3  1  0
  3  4  1  0
  4  5  1  0
  6  5  1  1
  6  7  1  0
  6  8  1  0
  7  8  1  6
  7  9  1  0
  9 10  1  0
  9 11  1  1
 10 12  1  0
 11 13  1  0
 10 14  1  0
 12 15  1  0
 12 16  2  0
 13 17  1  0
 14 18  1  1
 13 19  1  0
 14 19  1  0
 17 20  1  6
 17 21  1  0
 18 22  1  0
 21 23  2  0
 21 24  1  0
 20 25  1  0
 22 26  2  0
 22 27  1  0
 23 28  1  0
 24 29  1  0
 28 29  2  0
 25 30  2  0
 25 31  1  0
 26 32  1  0
 27 33  2  0
 29 34  1  0
 31 35  1  0
 30 36  1  0
 31 37  2  0
 32 38  2  0
 33 38  1  0
 36 39  2  0
 37 39  1  0
M  END
