x1334_1-x0874_0-x0387_0-x1385_1-x1412_0-x0736_1
     RDKit          3D

 22 24  0  0  0  0  0  0  0  0999 V2000
    6.3380   -3.3030   19.9060 C   0  0  0  0  0  0  0  0  0  0  0  0
    7.2890   -2.9890   18.7660 C   0  0  0  0  0  0  0  0  0  0  0  0
    5.3930   -4.0880   19.7140 O   0  0  0  0  0  0  0  0  0  0  0  0
    6.5840   -2.7220   21.1510 N   0  0  0  0  0  0  0  0  0  0  0  0
    7.4900   -1.5690   21.3200 C   0  0  0  0  0  0  0  0  0  0  0  0
    6.3280   -3.3020   22.3480 C   0  0  0  0  0  0  0  0  0  0  0  0
    8.8100   -1.9380   22.0940 C   0  0  0  0  0  0  0  0  0  0  0  0
    7.6310   -3.9010   22.9360 C   0  0  0  0  0  0  0  0  0  0  0  0
    8.6910   -2.9000   23.1750 N   0  0  0  0  0  0  0  0  0  0  0  0
    8.7940   -2.4290   24.5760 C   0  0  2  0  0  0  0  0  0  0  0  0
    7.6490   -1.6540   24.9360 O   0  0  0  0  0  0  0  0  0  0  0  0
   10.0600   -1.5170   24.8460 C   0  0  0  0  0  0  0  0  0  0  0  0
    8.8360   -3.6300   25.5470 C   0  0  0  0  0  0  0  0  0  0  0  0
    9.7480   -4.8610   25.4820 C   0  0  0  0  0  0  0  0  0  0  0  0
    7.8130   -3.8190   26.9340 S   0  0  0  0  0  0  0  0  0  0  0  0
   11.1950   -1.3150   23.8670 C   0  0  0  0  0  0  0  0  0  0  0  0
    9.4530   -5.8010   26.6230 C   0  0  0  0  0  0  0  0  0  0  0  0
    8.4660   -5.3340   27.4260 C   0  0  0  0  0  0  0  0  0  0  0  0
   12.0700   -0.0910   23.9120 C   0  0  0  0  0  0  0  0  0  0  0  0
   11.6360   -2.1250   22.8330 C   0  0  0  0  0  0  0  0  0  0  0  0
   13.0550   -0.0660   22.9700 C   0  0  0  0  0  0  0  0  0  0  0  0
   12.9920   -1.4770   21.9990 S   0  0  0  0  0  0  0  0  0  0  0  0
  1  2  1  0
  1  3  2  0
  1  4  1  0
  4  5  1  0
  4  6  1  0
  5  7  1  0
  6  8  1  0
  7  9  1  0
  8  9  1  0
  9 10  1  0
 10 11  1  1
 10 12  1  0
 10 13  1  0
 13 14  2  0
 13 15  1  0
 12 16  1  0
 14 17  1  0
 15 18  1  0
 17 18  2  0
 16 19  1  0
 16 20  2  0
 19 21  2  0
 20 22  1  0
 21 22  1  0
M  END
