x1334_0-x1334_1-x1385_1-x1418_1-x0831_0-x0770_1-x0397_0-x1374_1-x0434_2-x0831_1-x1412_1-x1386_1-x0692_1
     RDKit          3D

 39 43  0  0  0  0  0  0  0  0999 V2000
    2.1580   -7.7770   23.2540 O   0  0  0  0  0  0  0  0  0  0  0  0
    2.4000   -8.1090   24.6050 C   0  0  0  0  0  0  0  0  0  0  0  0
    3.7800   -8.0340   24.8670 O   0  0  0  0  0  0  0  0  0  0  0  0
    4.4310   -7.3010   23.8430 C   0  0  0  0  0  0  0  0  0  0  0  0
    4.6160   -6.0210   24.2630 C   0  0  0  0  0  0  0  0  0  0  0  0
    5.6970   -5.5480   23.3490 C   0  0  2  0  0  0  0  0  0  0  0  0
    5.4840   -4.6970   22.4660 C   0  0  2  0  0  0  0  0  0  0  0  0
    5.9600   -6.1610   22.0400 C   0  0  0  0  0  0  0  0  0  0  0  0
    6.4160   -3.4870   22.5020 C   0  0  2  0  0  0  0  0  0  0  0  0
    6.5420   -2.7240   21.2720 N   0  0  0  0  0  0  0  0  0  0  0  0
    7.7480   -3.9190   22.9780 C   0  0  0  0  0  0  0  0  0  0  0  0
    6.3130   -3.3280   19.9820 C   0  0  0  0  0  0  0  0  0  0  0  0
    8.4420   -2.7190   23.3850 N   0  0  0  0  0  0  0  0  0  0  0  0
    7.3450   -1.5210   21.5710 C   0  0  2  0  0  0  0  0  0  0  0  0
    7.2650   -2.9760   18.8380 C   0  0  0  0  0  0  0  0  0  0  0  0
    5.4000   -4.1460   19.7830 O   0  0  0  0  0  0  0  0  0  0  0  0
    9.3870   -2.7750   24.3530 C   0  0  2  0  0  0  0  0  0  0  0  0
    7.6910   -0.7250   20.4440 N   0  0  0  0  0  0  0  0  0  0  0  0
    8.6960   -1.9080   22.2090 C   0  0  0  0  0  0  0  0  0  0  0  0
   10.8170   -2.5750   23.9180 C   0  0  0  0  0  0  0  0  0  0  0  0
    9.1120   -3.8940   25.3300 C   0  0  0  0  0  0  0  0  0  0  0  0
    6.7630    0.0100   19.7630 C   0  0  0  0  0  0  0  0  0  0  0  0
    9.7860   -5.0930   25.4280 C   0  0  0  0  0  0  0  0  0  0  0  0
    7.8720   -3.8740   26.5390 S   0  0  0  0  0  0  0  0  0  0  0  0
   11.2680   -1.1560   23.7470 C   0  0  0  0  0  0  0  0  0  0  0  0
    7.0120    0.2490   18.4710 C   0  0  0  0  0  0  0  0  0  0  0  0
    5.4780    0.6050   20.2570 C   0  0  0  0  0  0  0  0  0  0  0  0
    9.3300   -5.9200   26.4110 C   0  0  0  0  0  0  0  0  0  0  0  0
    8.2700   -5.4090   27.1360 C   0  0  0  0  0  0  0  0  0  0  0  0
   10.5710   -0.1150   24.3380 C   0  0  0  0  0  0  0  0  0  0  0  0
   12.3880   -0.8350   22.9960 C   0  0  0  0  0  0  0  0  0  0  0  0
    6.2780    0.9390   17.6000 N   0  0  0  0  0  0  0  0  0  0  0  0
    4.6380    1.3800   19.3100 C   0  0  0  0  0  0  0  0  0  0  0  0
    7.3760   -6.0520   28.4360 Cl  0  0  0  0  0  0  0  0  0  0  0  0
   13.1620   -1.9090   22.3200 C   0  0  0  0  0  0  0  0  0  0  0  0
   10.9220    1.2270   24.2260 C   0  0  0  0  0  0  0  0  0  0  0  0
   12.7680    0.4960   22.8830 C   0  0  0  0  0  0  0  0  0  0  0  0
    5.0630    1.5380   17.9830 C   0  0  0  0  0  0  0  0  0  0  0  0
   12.0590    1.5380   23.4790 C   0  0  0  0  0  0  0  0  0  0  0  0
  1  2  1  0
  2  3  1  0
  3  4  1  0
  4  5  1  0
  6  5  1  6
  6  7  1  0
  6  8  1  0
  7  8  1  6
  7  9  1  0
  9 10  1  0
  9 11  1  6
 10 12  1  0
 11 13  1  0
 10 14  1  0
 12 15  1  0
 12 16  2  0
 13 17  1  0
 14 18  1  6
 13 19  1  0
 14 19  1  0
 17 20  1  6
 17 21  1  0
 18 22  1  0
 21 23  2  0
 21 24  1  0
 20 25  1  0
 22 26  2  0
 22 27  1  0
 23 28  1  0
 24 29  1  0
 28 29  2  0
 25 30  2  0
 25 31  1  0
 26 32  1  0
 27 33  2  0
 29 34  1  0
 31 35  1  0
 30 36  1  0
 31 37  2  0
 32 38  2  0
 33 38  1  0
 36 39  2  0
 37 39  1  0
M  END
