x1336_0-x0434_2-x1386_0-x1412_0-x0692_1
     RDKit          3D

 29 32  0  0  0  0  0  0  0  0999 V2000
    6.3440   -3.4750   19.9120 C   0  0  0  0  0  0  0  0  0  0  0  0
    7.3230   -3.0790   18.8120 C   0  0  0  0  0  0  0  0  0  0  0  0
    5.3510   -4.1660   19.7080 O   0  0  0  0  0  0  0  0  0  0  0  0
    6.6670   -3.0580   21.1810 N   0  0  0  0  0  0  0  0  0  0  0  0
    6.8460   -4.1540   22.1540 C   0  0  0  0  0  0  0  0  0  0  0  0
    7.6260   -1.9550   21.3740 C   0  0  1  0  0  0  0  0  0  0  0  0
    6.9220   -0.6470   21.4010 N   0  0  0  0  0  0  0  0  0  0  0  0
    6.8910   -3.6000   23.5880 C   0  0  0  0  0  0  0  0  0  0  0  0
    8.4760   -2.2610   22.4290 C   0  0  0  0  0  0  0  0  0  0  0  0
    7.7990   -2.4550   23.7160 N   0  0  0  0  0  0  0  0  0  0  0  0
    6.3260    0.0390   20.2120 C   0  0  0  0  0  0  0  0  0  0  0  0
    8.8410   -2.5660   24.7250 C   0  0  2  0  0  0  0  0  0  0  0  0
    6.9680   -0.0880   18.9930 C   0  0  0  0  0  0  0  0  0  0  0  0
    5.0590    0.8760   20.2470 C   0  0  0  0  0  0  0  0  0  0  0  0
    8.7080   -1.3420   25.4160 O   0  0  0  0  0  0  0  0  0  0  0  0
   10.2840   -2.7500   24.1720 C   0  0  0  0  0  0  0  0  0  0  0  0
    8.7770   -3.7660   25.7000 C   0  0  0  0  0  0  0  0  0  0  0  0
    6.4500    0.5740   17.7780 N   0  0  0  0  0  0  0  0  0  0  0  0
    4.5810    1.4900   19.0990 C   0  0  0  0  0  0  0  0  0  0  0  0
    9.6360   -5.0330   25.5910 C   0  0  0  0  0  0  0  0  0  0  0  0
    7.7510   -3.8990   27.0770 S   0  0  0  0  0  0  0  0  0  0  0  0
    5.2140    1.3870   17.8620 C   0  0  0  0  0  0  0  0  0  0  0  0
   11.1180   -1.5320   23.8590 C   0  0  0  0  0  0  0  0  0  0  0  0
    9.3680   -5.9170   26.5990 C   0  0  0  0  0  0  0  0  0  0  0  0
    8.3670   -5.4440   27.4960 C   0  0  0  0  0  0  0  0  0  0  0  0
   12.1440   -1.5000   22.9620 C   0  0  0  0  0  0  0  0  0  0  0  0
   11.0110   -0.2600   24.3990 C   0  0  0  0  0  0  0  0  0  0  0  0
   12.8450   -0.3480   22.7440 C   0  0  0  0  0  0  0  0  0  0  0  0
   12.1690    0.8430   23.7510 S   0  0  0  0  0  0  0  0  0  0  0  0
  1  2  1  0
  1  3  2  0
  1  4  1  0
  4  5  1  0
  4  6  1  0
  6  7  1  1
  5  8  1  0
  6  9  1  0
  8 10  1  0
  9 10  1  0
  7 11  1  0
 10 12  1  0
 11 13  2  0
 11 14  1  0
 12 15  1  1
 12 16  1  0
 12 17  1  0
 13 18  1  0
 14 19  2  0
 17 20  2  0
 17 21  1  0
 18 22  2  0
 19 22  1  0
 16 23  1  0
 20 24  1  0
 21 25  1  0
 24 25  2  0
 23 26  1  0
 23 27  2  0
 26 28  2  0
 27 29  1  0
 28 29  1  0
M  END
