x1334_0-x0981_1-x1412_0-x1412_1
     RDKit          3D

 30 31  0  0  0  0  0  0  0  0999 V2000
    4.0430   -5.3300   23.3130 C   0  0  0  0  0  0  0  0  0  0  0  0
    2.7080   -6.0390   23.6180 C   0  0  1  0  0  0  0  0  0  0  0  0
    2.5680   -7.2020   22.7270 N   0  0  0  0  0  0  0  0  0  0  0  0
    4.3580   -4.1250   23.6730 N   0  0  0  0  0  0  0  0  0  0  0  0
    2.6820   -6.2640   25.0140 C   0  0  0  0  0  0  0  0  0  0  0  0
    5.6060   -3.3880   23.4160 C   0  0  0  0  0  0  0  0  0  0  0  0
    1.3490   -7.4520   22.1140 C   0  0  0  0  0  0  0  0  0  0  0  0
    3.1120   -7.6950   25.2670 C   0  0  0  0  0  0  0  0  0  0  0  0
    6.4680   -4.0390   22.3130 C   0  0  1  0  0  0  0  0  0  0  0  0
    1.2640   -8.7390   21.3340 C   0  0  0  0  0  0  0  0  0  0  0  0
    0.4060   -6.6700   22.1760 O   0  0  0  0  0  0  0  0  0  0  0  0
    2.5160   -8.3820   26.2780 N   0  0  0  0  0  0  0  0  0  0  0  0
    3.9720   -8.1850   24.5740 O   0  0  0  0  0  0  0  0  0  0  0  0
    6.7010   -3.0720   21.2180 N   0  0  0  0  0  0  0  0  0  0  0  0
    7.7140   -4.3620   22.9530 C   0  0  0  0  0  0  0  0  0  0  0  0
    6.3880   -3.4080   19.9220 C   0  0  0  0  0  0  0  0  0  0  0  0
    8.4110   -3.0570   23.1460 N   0  0  0  0  0  0  0  0  0  0  0  0
    7.4460   -1.8260   21.5080 C   0  0  0  0  0  0  0  0  0  0  0  0
    7.3700   -3.0230   18.8300 C   0  0  0  0  0  0  0  0  0  0  0  0
    5.3670   -4.0410   19.6560 O   0  0  0  0  0  0  0  0  0  0  0  0
    9.3620   -3.0020   24.2430 C   0  0  1  0  0  0  0  0  0  0  0  0
    8.6910   -2.1580   22.0500 C   0  0  0  0  0  0  0  0  0  0  0  0
    9.2590   -1.7700   24.9440 C   0  0  0  0  0  0  0  0  0  0  0  0
    9.1580   -4.1030   25.2450 C   0  0  0  0  0  0  0  0  0  0  0  0
    8.1540   -1.2320   25.1210 O   0  0  0  0  0  0  0  0  0  0  0  0
    9.7850   -5.3240   25.4220 C   0  0  0  0  0  0  0  0  0  0  0  0
    7.9520   -3.8420   26.3750 S   0  0  0  0  0  0  0  0  0  0  0  0
    9.2990   -6.0600   26.4750 C   0  0  0  0  0  0  0  0  0  0  0  0
    8.2720   -5.3550   27.0940 C   0  0  0  0  0  0  0  0  0  0  0  0
    7.4320   -6.0320   28.4760 Cl  0  0  0  0  0  0  0  0  0  0  0  0
  2  1  1  6
  2  3  1  0
  1  4  2  3
  2  5  1  0
  4  6  1  0
  3  7  1  0
  5  8  1  0
  9  6  1  1
  7 10  1  0
  7 11  2  0
  8 12  1  0
  8 13  2  0
  9 14  1  0
  9 15  1  0
 14 16  1  0
 15 17  1  0
 14 18  1  0
 16 19  1  0
 16 20  2  0
 17 21  1  0
 17 22  1  0
 18 22  1  0
 21 23  1  1
 21 24  1  0
 23 25  2  0
 24 26  2  0
 24 27  1  0
 26 28  1  0
 27 29  1  0
 28 29  2  0
 29 30  1  0
M  END
