x1334_1-x1385_1-x0831_0-x0397_0-x0770_1-x1374_1-x0426_1-x1412_1-x1418_1-x1334_0
     RDKit          3D

 44 49  0  0  0  0  0  0  0  0999 V2000
    1.7690   -6.8200   24.1970 O   0  0  0  0  0  0  0  0  0  0  0  0
    2.8340   -7.4830   23.5510 C   0  0  0  0  0  0  0  0  0  0  0  0
    3.6930   -7.9510   24.5760 O   0  0  0  0  0  0  0  0  0  0  0  0
    5.0080   -7.4340   24.4930 C   0  0  0  0  0  0  0  0  0  0  0  0
    5.0400   -6.0880   24.3220 C   0  0  0  0  0  0  0  0  0  0  0  0
    6.0070   -5.7330   23.2650 C   0  0  2  0  0  0  0  0  0  0  0  0
    5.8610   -4.6440   22.4270 C   0  0  2  0  0  0  0  0  0  0  0  0
    5.7780   -6.0660   21.7430 C   0  0  0  0  0  0  0  0  0  0  0  0
    7.0310   -3.8360   22.0830 C   0  0  1  0  0  0  0  0  0  0  0  0
    6.6570   -2.8800   21.0820 N   0  0  0  0  0  0  0  0  0  0  0  0
    7.8040   -3.2980   23.2990 C   0  0  0  0  0  0  0  0  0  0  0  0
    6.3390   -3.3060   19.8230 C   0  0  0  0  0  0  0  0  0  0  0  0
    8.6700   -2.1430   23.1190 N   0  0  0  0  0  0  0  0  0  0  0  0
    7.1880   -1.5490   21.2810 C   0  0  2  0  0  0  0  0  0  0  0  0
    7.3230   -2.9750   18.7240 C   0  0  0  0  0  0  0  0  0  0  0  0
    5.3360   -3.9880   19.6310 O   0  0  0  0  0  0  0  0  0  0  0  0
   10.0820   -2.3400   23.2650 C   0  0  2  0  0  0  0  0  0  0  0  0
    8.6290   -1.6660   21.7320 C   0  0  0  0  0  0  0  0  0  0  0  0
    6.4130   -0.8210   22.3770 C   0  0  0  0  0  0  0  0  0  0  0  0
   10.6380   -3.1270   24.3960 C   0  0  0  0  0  0  0  0  0  0  0  0
   10.8560   -1.0330   23.3170 C   0  0  0  0  0  0  0  0  0  0  0  0
    5.8420    0.5280   21.9730 C   0  0  2  0  0  0  0  0  0  0  0  0
   10.2520    0.1200   23.8780 C   0  0  0  0  0  0  0  0  0  0  0  0
   12.1760   -0.8670   22.8260 C   0  0  0  0  0  0  0  0  0  0  0  0
    9.7430   -3.8760   25.3980 C   0  0  0  0  0  0  0  0  0  0  0  0
    4.5210    0.5660   22.4050 C   0  0  0  0  0  0  0  0  0  0  0  0
    5.7240    0.7570   20.4770 C   0  0  0  0  0  0  0  0  0  0  0  0
   12.9820   -1.9420   22.1850 C   0  0  0  0  0  0  0  0  0  0  0  0
   10.8880    1.3440   23.9600 C   0  0  0  0  0  0  0  0  0  0  0  0
   12.7620    0.4040   22.9430 C   0  0  0  0  0  0  0  0  0  0  0  0
   10.2130   -5.0680   25.9520 C   0  0  0  0  0  0  0  0  0  0  0  0
    8.1790   -3.5220   26.0620 S   0  0  0  0  0  0  0  0  0  0  0  0
    4.0270    2.0030   22.2410 C   0  0  2  0  0  0  0  0  0  0  0  0
    4.7380    1.5480   20.0040 C   0  0  0  0  0  0  0  0  0  0  0  0
    6.6030    0.1930   19.5370 C   0  0  0  0  0  0  0  0  0  0  0  0
   12.1590    1.5100   23.4920 C   0  0  0  0  0  0  0  0  0  0  0  0
    9.4070   -5.6450   26.8600 C   0  0  0  0  0  0  0  0  0  0  0  0
    8.2300   -4.9050   27.0550 C   0  0  0  0  0  0  0  0  0  0  0  0
    2.9830    2.3000   23.0550 N   0  0  0  0  0  0  0  0  0  0  0  0
    3.7090    2.2280   20.9070 C   0  0  0  0  0  0  0  0  0  0  0  0
    4.5930    1.8080   18.6510 C   0  0  0  0  0  0  0  0  0  0  0  0
    6.5290    0.3910   18.2060 N   0  0  0  0  0  0  0  0  0  0  0  0
    6.9550   -5.2620   28.1370 Cl  0  0  0  0  0  0  0  0  0  0  0  0
    5.4940    1.2260   17.7900 C   0  0  0  0  0  0  0  0  0  0  0  0
  1  2  1  0
  2  3  1  0
  3  4  1  0
  4  5  1  0
  6  5  1  1
  6  7  1  0
  6  8  1  0
  7  8  1  6
  7  9  1  0
  9 10  1  0
  9 11  1  1
 10 12  1  0
 11 13  1  0
 10 14  1  0
 12 15  1  0
 12 16  2  0
 13 17  1  0
 13 18  1  0
 14 18  1  0
 14 19  1  1
 17 20  1  1
 17 21  1  0
 22 19  1  6
 21 23  2  0
 21 24  1  0
 20 25  1  0
 22 26  1  0
 22 27  1  0
 24 28  1  0
 23 29  1  0
 24 30  2  0
 25 31  2  0
 25 32  1  0
 26 33  1  0
 27 34  2  0
 27 35  1  0
 29 36  2  0
 30 36  1  0
 31 37  1  0
 32 38  1  0
 37 38  2  0
 33 39  1  1
 33 40  1  0
 34 40  1  0
 34 41  1  0
 35 42  2  0
 38 43  1  0
 41 44  2  0
 42 44  1  0
M  END
