x1334_1-x1385_1-x0770_1-x0831_0-x0426_1-x1334_0-x1386_1-x0434_2-x0692_1-x1412_1-x1374_1-x0397_0
     RDKit          3D

 45 51  0  0  0  0  0  0  0  0999 V2000
    2.3480   -7.6740   23.2300 O   0  0  0  0  0  0  0  0  0  0  0  0
    2.6830   -7.7510   24.5970 C   0  0  0  0  0  0  0  0  0  0  0  0
    4.0850   -7.8180   24.7260 O   0  0  0  0  0  0  0  0  0  0  0  0
    4.7160   -7.0680   23.6840 C   0  0  0  0  0  0  0  0  0  0  0  0
    5.1360   -5.8990   24.1270 C   0  0  0  0  0  0  0  0  0  0  0  0
    6.0820   -5.2940   23.1220 C   0  0  2  0  0  0  0  0  0  0  0  0
    5.6680   -4.4480   22.2490 C   0  0  2  0  0  0  0  0  0  0  0  0
    6.2620   -5.9590   22.0130 C   0  0  0  0  0  0  0  0  0  0  0  0
    6.5100   -3.1590   22.3070 C   0  0  2  0  0  0  0  0  0  0  0  0
    6.5660   -2.5530   20.9820 N   0  0  0  0  0  0  0  0  0  0  0  0
    7.8710   -3.4660   23.0110 C   0  0  0  0  0  0  0  0  0  0  0  0
    6.3550   -3.3010   19.8340 C   0  0  0  0  0  0  0  0  0  0  0  0
    8.7510   -2.2950   22.9880 N   0  0  0  0  0  0  0  0  0  0  0  0
    7.7610   -1.7010   20.7740 C   0  0  1  0  0  0  0  0  0  0  0  0
    7.2940   -3.0530   18.6660 C   0  0  0  0  0  0  0  0  0  0  0  0
    5.4620   -4.1610   19.7450 O   0  0  0  0  0  0  0  0  0  0  0  0
   10.0430   -2.3260   23.4180 C   0  0  2  0  0  0  0  0  0  0  0  0
    7.5010   -0.2750   20.7630 N   0  0  0  0  0  0  0  0  0  0  0  0
    9.0140   -1.9610   21.5840 C   0  0  0  0  0  0  0  0  0  0  0  0
   10.5350   -3.2350   24.5070 C   0  0  0  0  0  0  0  0  0  0  0  0
    7.1940    0.3830   22.0490 C   0  0  0  0  0  0  0  0  0  0  0  0
    6.5930    0.3050   19.8370 C   0  0  0  0  0  0  0  0  0  0  0  0
   10.7070   -0.9710   23.4600 C   0  0  0  0  0  0  0  0  0  0  0  0
    5.6650    0.4660   22.0620 C   0  0  2  0  0  0  0  0  0  0  0  0
    6.6790    0.4490   18.4620 N   0  0  0  0  0  0  0  0  0  0  0  0
    5.4770    0.7700   20.6390 C   0  0  0  0  0  0  0  0  0  0  0  0
   10.0770    0.2720   23.9610 C   0  0  0  0  0  0  0  0  0  0  0  0
   12.1630   -0.8440   22.9330 C   0  0  0  0  0  0  0  0  0  0  0  0
    9.6180   -4.0670   25.4010 C   0  0  0  0  0  0  0  0  0  0  0  0
    5.0340    1.5310   22.8960 C   0  0  0  0  0  0  0  0  0  0  0  0
   12.9240   -2.0050   22.3800 C   0  0  0  0  0  0  0  0  0  0  0  0
    4.3860    1.4180   20.1390 C   0  0  0  0  0  0  0  0  0  0  0  0
    5.6390    1.0930   17.8880 C   0  0  0  0  0  0  0  0  0  0  0  0
   10.8860    1.5130   23.9230 C   0  0  0  0  0  0  0  0  0  0  0  0
   12.7920    0.3580   22.9540 C   0  0  0  0  0  0  0  0  0  0  0  0
   10.0230   -5.4780   25.7270 C   0  0  0  0  0  0  0  0  0  0  0  0
    8.0360   -3.6280   26.2240 S   0  0  0  0  0  0  0  0  0  0  0  0
    3.5460    1.6250   22.5660 C   0  0  2  0  0  0  0  0  0  0  0  0
    3.2750    1.8660   21.0610 C   0  0  0  0  0  0  0  0  0  0  0  0
    4.4830    1.5990   18.6400 C   0  0  0  0  0  0  0  0  0  0  0  0
   12.2830    1.5700   23.4070 C   0  0  0  0  0  0  0  0  0  0  0  0
    9.1070   -6.0490   26.5740 C   0  0  0  0  0  0  0  0  0  0  0  0
    8.0220   -5.2730   26.9640 C   0  0  0  0  0  0  0  0  0  0  0  0
    2.9860    2.6940   23.3580 N   0  0  0  0  0  0  0  0  0  0  0  0
    6.7710   -5.7500   28.0300 Cl  0  0  0  0  0  0  0  0  0  0  0  0
  1  2  1  0
  2  3  1  0
  3  4  1  0
  4  5  1  0
  6  5  1  1
  6  7  1  0
  6  8  1  0
  7  8  1  6
  7  9  1  0
  9 10  1  0
  9 11  1  6
 10 12  1  0
 11 13  1  0
 10 14  1  0
 12 15  1  0
 12 16  2  0
 13 17  1  0
 14 18  1  1
 13 19  1  0
 14 19  1  0
 17 20  1  1
 18 21  1  0
 18 22  1  0
 17 23  1  0
 24 21  1  6
 22 25  2  0
 22 26  1  0
 24 26  1  0
 23 27  2  0
 23 28  1  0
 20 29  1  0
 24 30  1  0
 28 31  1  0
 26 32  2  0
 25 33  1  0
 27 34  1  0
 28 35  2  0
 29 36  2  0
 29 37  1  0
 30 38  1  0
 32 39  1  0
 38 39  1  0
 32 40  1  0
 33 40  2  0
 34 41  2  0
 35 41  1  0
 36 42  1  0
 37 43  1  0
 42 43  2  0
 38 44  1  1
 43 45  1  0
M  END
