x1334_0-x0831_0-x0770_1-x0397_0-x1375_1-x0831_1-x1412_1-x0426_1-x0692_1-x1374_1-x1418_1-x1334_1-x1385_1
     RDKit          3D

 42 47  0  0  0  0  0  0  0  0999 V2000
    2.4110   -7.7420   23.3350 O   0  0  0  0  0  0  0  0  0  0  0  0
    2.9300   -7.6660   24.6370 C   0  0  0  0  0  0  0  0  0  0  0  0
    4.3340   -7.6700   24.5420 O   0  0  0  0  0  0  0  0  0  0  0  0
    4.7990   -6.3050   24.5720 C   0  0  0  0  0  0  0  0  0  0  0  0
    5.7410   -5.8970   23.4670 C   0  0  2  0  0  0  0  0  0  0  0  0
    5.5350   -4.7380   22.6030 C   0  0  2  0  0  0  0  0  0  0  0  0
    5.6990   -6.3420   22.2150 C   0  0  0  0  0  0  0  0  0  0  0  0
    6.6540   -3.7540   22.3400 C   0  0  1  0  0  0  0  0  0  0  0  0
    6.4010   -2.8360   21.2640 N   0  0  0  0  0  0  0  0  0  0  0  0
    6.7850   -2.9430   23.6050 C   0  0  0  0  0  0  0  0  0  0  0  0
    6.2590   -3.3680   19.9860 C   0  0  0  0  0  0  0  0  0  0  0  0
    8.0500   -2.2340   23.6440 N   0  0  0  0  0  0  0  0  0  0  0  0
    7.0250   -1.5000   21.3840 C   0  0  1  0  0  0  0  0  0  0  0  0
    7.2720   -3.0440   18.9060 C   0  0  0  0  0  0  0  0  0  0  0  0
    5.3370   -4.1500   19.7350 O   0  0  0  0  0  0  0  0  0  0  0  0
    5.8610   -0.4820   21.4660 C   0  0  1  0  0  0  0  0  0  0  0  0
    9.0800   -3.2550   23.6680 C   0  0  1  0  0  0  0  0  0  0  0  0
    8.1410   -1.3260   22.4550 C   0  0  0  0  0  0  0  0  0  0  0  0
    5.6980    0.5130   22.6640 C   0  0  0  0  0  0  0  0  0  0  0  0
   10.4770   -2.7580   23.3270 C   0  0  0  0  0  0  0  0  0  0  0  0
    5.6840    0.2140   20.1600 C   0  0  0  0  0  0  0  0  0  0  0  0
    8.9760   -4.1140   24.8490 C   0  0  0  0  0  0  0  0  0  0  0  0
    4.2870    1.2210   22.6030 C   0  0  1  0  0  0  0  0  0  0  0  0
    4.6340    1.1220   20.0480 C   0  0  0  0  0  0  0  0  0  0  0  0
    6.6010   -0.0200   18.9370 C   0  0  0  0  0  0  0  0  0  0  0  0
    9.6970   -5.3530   25.2300 C   0  0  0  0  0  0  0  0  0  0  0  0
    7.8760   -3.8410   26.1390 S   0  0  0  0  0  0  0  0  0  0  0  0
   10.9220   -1.2990   23.4520 C   0  0  0  0  0  0  0  0  0  0  0  0
    4.2130    2.4590   23.3420 N   0  0  0  0  0  0  0  0  0  0  0  0
    3.6940    1.4060   21.1900 C   0  0  0  0  0  0  0  0  0  0  0  0
    4.4690    1.8220   18.7120 C   0  0  0  0  0  0  0  0  0  0  0  0
    6.3650    0.7080   17.6660 N   0  0  0  0  0  0  0  0  0  0  0  0
    9.3660   -5.9330   26.3510 C   0  0  0  0  0  0  0  0  0  0  0  0
    8.3610   -5.2430   26.9950 C   0  0  0  0  0  0  0  0  0  0  0  0
   10.2180   -0.3230   24.1770 C   0  0  0  0  0  0  0  0  0  0  0  0
   12.2190   -0.7490   22.7990 C   0  0  0  0  0  0  0  0  0  0  0  0
    7.5950   -5.6290   28.4700 Cl  0  0  0  0  0  0  0  0  0  0  0  0
   13.0750   -1.6720   21.9920 C   0  0  0  0  0  0  0  0  0  0  0  0
    5.2430    1.6520   17.6100 C   0  0  0  0  0  0  0  0  0  0  0  0
   10.6770    0.9780   24.2610 C   0  0  0  0  0  0  0  0  0  0  0  0
   12.6000    0.5630   22.9460 C   0  0  0  0  0  0  0  0  0  0  0  0
   11.8010    1.4180   23.6860 C   0  0  0  0  0  0  0  0  0  0  0  0
  1  2  1  0
  2  3  1  0
  3  4  1  0
  5  4  1  1
  5  6  1  0
  5  7  1  0
  6  7  1  6
  6  8  1  0
  8  9  1  0
  8 10  1  1
  9 11  1  0
 10 12  1  0
  9 13  1  0
 11 14  1  0
 11 15  2  0
 13 16  1  0
 12 17  1  0
 12 18  1  0
 13 18  1  1
 16 19  1  1
 17 20  1  1
 16 21  1  0
 17 22  1  0
 19 23  1  0
 21 24  2  0
 21 25  1  0
 22 26  2  0
 22 27  1  0
 20 28  1  0
 23 29  1  6
 23 30  1  0
 24 30  1  0
 24 31  1  0
 25 32  2  0
 26 33  1  0
 27 34  1  0
 33 34  2  0
 28 35  2  0
 28 36  1  0
 34 37  1  0
 36 38  1  0
 31 39  2  0
 32 39  1  0
 35 40  1  0
 36 41  2  0
 40 42  2  0
 41 42  1  0
M  END
