x1334_1-x0397_0-x1412_1-x1412_0-x0387_0-x0434_2-x1386_0
     RDKit          3D

 36 42  0  0  0  0  0  0  0  0999 V2000
    6.3010   -3.4120   19.8980 C   0  0  0  0  0  0  0  0  0  0  0  0
    7.2410   -3.0450   18.7580 C   0  0  0  0  0  0  0  0  0  0  0  0
    5.3530   -4.1780   19.7380 O   0  0  0  0  0  0  0  0  0  0  0  0
    6.6010   -2.8640   21.1310 N   0  0  0  0  0  0  0  0  0  0  0  0
    7.7070   -1.8830   21.2810 C   0  0  1  0  0  0  0  0  0  0  0  0
    6.0300   -3.4940   22.3690 C   0  0  2  0  0  0  0  0  0  0  0  0
    7.0580   -0.5830   21.3200 N   0  0  0  0  0  0  0  0  0  0  0  0
    8.5440   -2.1730   22.5410 C   0  0  1  0  0  0  0  0  0  0  0  0
    7.0520   -3.6870   23.4480 C   0  0  0  0  0  0  0  0  0  0  0  0
    5.3690   -4.8130   22.2140 C   0  0  0  0  0  0  0  0  0  0  0  0
    9.5500   -1.1580   23.0970 C   0  0  0  0  0  0  0  0  0  0  0  0
    7.6560   -2.4190   23.6780 N   0  0  0  0  0  0  0  0  0  0  0  0
    5.9550   -6.0080   22.8650 C   0  0  0  0  0  0  0  0  0  0  0  0
    6.0910   -6.0680   21.6190 C   0  0  0  0  0  0  0  0  0  0  0  0
    6.4550    0.0270   20.2210 C   0  0  0  0  0  0  0  0  0  0  0  0
    8.2740   -2.1750   24.9660 C   0  0  1  0  0  0  0  0  0  0  0  0
    9.5270   -1.3590   24.6180 C   0  0  1  0  0  0  0  0  0  0  0  0
    6.9460   -0.0050   18.8870 C   0  0  0  0  0  0  0  0  0  0  0  0
    5.2620    0.7390   20.4360 C   0  0  0  0  0  0  0  0  0  0  0  0
    7.3820   -1.4480   25.7880 O   0  0  0  0  0  0  0  0  0  0  0  0
    8.5730   -3.4810   25.7250 C   0  0  0  0  0  0  0  0  0  0  0  0
    6.4060    0.5850   17.7790 N   0  0  0  0  0  0  0  0  0  0  0  0
    4.6600    1.3550   19.3670 C   0  0  0  0  0  0  0  0  0  0  0  0
   10.8410   -1.8680   25.0850 C   0  0  2  0  0  0  0  0  0  0  0  0
    9.5630   -4.4970   25.5190 C   0  0  0  0  0  0  0  0  0  0  0  0
    7.5970   -3.9160   27.1140 S   0  0  0  0  0  0  0  0  0  0  0  0
    5.2740    1.2740   17.9480 C   0  0  0  0  0  0  0  0  0  0  0  0
   11.7200   -0.7870   25.0720 C   0  0  0  0  0  0  0  0  0  0  0  0
   11.4510   -2.9710   24.2340 C   0  0  0  0  0  0  0  0  0  0  0  0
    9.4850   -5.5180   26.4320 C   0  0  0  0  0  0  0  0  0  0  0  0
    8.4850   -5.3920   27.3890 C   0  0  0  0  0  0  0  0  0  0  0  0
   12.8080   -2.4670   23.8470 C   0  0  2  0  0  0  0  0  0  0  0  0
   12.9240   -1.1970   24.3180 C   0  0  1  0  0  0  0  0  0  0  0  0
   13.1640   -0.2060   23.4020 C   0  0  0  0  0  0  0  0  0  0  0  0
   13.0290   -2.3370   22.3490 C   0  0  0  0  0  0  0  0  0  0  0  0
   13.3060   -0.7960   21.8800 S   0  0  0  0  0  0  0  0  0  0  0  0
  1  2  1  0
  1  3  2  0
  1  4  1  0
  4  5  1  0
  4  6  1  0
  5  7  1  1
  5  8  1  0
  6  9  1  0
  6 10  1  6
  8 11  1  1
  8 12  1  0
  9 12  1  0
 10 13  1  0
 10 14  1  0
 13 14  1  0
  7 15  1  0
 12 16  1  0
 17 11  1  6
 16 17  1  0
 15 18  2  0
 15 19  1  0
 16 20  1  1
 16 21  1  0
 18 22  1  0
 19 23  2  0
 17 24  1  0
 21 25  2  0
 21 26  1  0
 22 27  2  0
 23 27  1  0
 24 28  1  6
 24 29  1  0
 25 30  1  0
 26 31  1  0
 30 31  2  0
 32 29  1  6
 33 28  1  6
 32 33  1  0
 33 34  1  0
 32 35  1  0
 34 36  2  0
 35 36  2  0
M  END
