x1334_1-x1385_1-x0831_0-x0831_1-x0434_2-x1418_1-x1412_1-x0770_1-x0397_0-x1334_0-x0426_1
     RDKit          3D

 40 46  0  0  0  0  0  0  0  0999 V2000
    6.3820   -3.3180   19.8470 C   0  0  0  0  0  0  0  0  0  0  0  0
    7.2990   -3.0250   18.6490 C   0  0  0  0  0  0  0  0  0  0  0  0
    5.5000   -4.1900   19.7760 O   0  0  0  0  0  0  0  0  0  0  0  0
    6.6310   -2.5390   20.9830 N   0  0  0  0  0  0  0  0  0  0  0  0
    7.8270   -1.6540   20.7960 C   0  0  1  0  0  0  0  0  0  0  0  0
    6.5770   -3.2100   22.3240 C   0  0  2  0  0  0  0  0  0  0  0  0
    7.5870   -0.2300   20.9170 N   0  0  0  0  0  0  0  0  0  0  0  0
    8.9160   -2.0260   21.5460 C   0  0  0  0  0  0  0  0  0  0  0  0
    7.7810   -3.4850   22.9880 C   0  0  0  0  0  0  0  0  0  0  0  0
    6.9350   -4.6810   22.3440 C   0  0  0  0  0  0  0  0  0  0  0  0
    7.2020    0.3550   22.1890 C   0  0  0  0  0  0  0  0  0  0  0  0
    8.6940   -2.3080   22.9500 N   0  0  0  0  0  0  0  0  0  0  0  0
    6.2810   -5.4640   23.1430 C   0  0  0  0  0  0  0  0  0  0  0  0
    5.8430   -5.9010   22.0080 C   0  0  0  0  0  0  0  0  0  0  0  0
    6.6490    0.3010   19.9540 C   0  0  0  0  0  0  0  0  0  0  0  0
    5.6520    0.4580   22.1160 C   0  0  2  0  0  0  0  0  0  0  0  0
   10.1060   -2.4230   23.4220 C   0  0  2  0  0  0  0  0  0  0  0  0
    6.7130    0.4640   18.4550 N   0  0  0  0  0  0  0  0  0  0  0  0
    5.5460    0.7090   20.6390 C   0  0  0  0  0  0  0  0  0  0  0  0
    5.0470    1.4920   22.8060 C   0  0  0  0  0  0  0  0  0  0  0  0
   10.5100   -3.2260   24.6480 C   0  0  0  0  0  0  0  0  0  0  0  0
    4.4470    1.2950   20.0660 C   0  0  0  0  0  0  0  0  0  0  0  0
    5.5330    1.0910   17.9030 C   0  0  0  0  0  0  0  0  0  0  0  0
   10.8000   -1.0310   23.4260 C   0  0  0  0  0  0  0  0  0  0  0  0
    3.5410    1.6380   22.4440 C   0  0  2  0  0  0  0  0  0  0  0  0
    3.2850    1.7190   20.9140 C   0  0  0  0  0  0  0  0  0  0  0  0
    4.4460    1.4880   18.6910 C   0  0  0  0  0  0  0  0  0  0  0  0
   10.1030    0.0540   23.9720 C   0  0  0  0  0  0  0  0  0  0  0  0
   12.1110   -0.8480   22.9000 C   0  0  0  0  0  0  0  0  0  0  0  0
    9.6550   -4.1350   25.4630 C   0  0  0  0  0  0  0  0  0  0  0  0
    3.0090    2.7360   23.0770 N   0  0  0  0  0  0  0  0  0  0  0  0
   12.8810   -1.9820   22.2950 C   0  0  0  0  0  0  0  0  0  0  0  0
   10.6670    1.3240   24.0220 C   0  0  0  0  0  0  0  0  0  0  0  0
   12.7760    0.4660   22.9190 C   0  0  0  0  0  0  0  0  0  0  0  0
   10.0280   -5.4140   25.7500 C   0  0  0  0  0  0  0  0  0  0  0  0
    8.0980   -3.7560   26.2220 S   0  0  0  0  0  0  0  0  0  0  0  0
   12.0800    1.5320   23.4630 C   0  0  0  0  0  0  0  0  0  0  0  0
    9.1580   -6.0680   26.5430 C   0  0  0  0  0  0  0  0  0  0  0  0
    8.0610   -5.3290   26.9120 C   0  0  0  0  0  0  0  0  0  0  0  0
    6.7780   -5.8210   27.9300 Cl  0  0  0  0  0  0  0  0  0  0  0  0
  1  2  1  0
  1  3  2  0
  1  4  1  0
  4  5  1  0
  4  6  1  0
  5  7  1  1
  5  8  1  0
  6  9  1  0
  6 10  1  6
  7 11  1  0
  8 12  1  0
  9 12  1  0
 10 13  1  0
 10 14  1  0
 13 14  1  0
  7 15  1  0
 16 11  1  1
 12 17  1  0
 15 18  2  0
 15 19  1  0
 16 19  1  0
 16 20  1  0
 17 21  1  1
 19 22  2  0
 18 23  1  0
 17 24  1  0
 20 25  1  0
 22 26  1  0
 25 26  1  0
 22 27  1  0
 23 27  2  0
 24 28  2  0
 24 29  1  0
 21 30  1  0
 25 31  1  1
 29 32  1  0
 28 33  1  0
 29 34  2  0
 30 35  2  0
 30 36  1  0
 33 37  2  0
 34 37  1  0
 35 38  1  0
 36 39  1  0
 38 39  2  0
 39 40  1  0
M  END
