x1334_0-x1334_1-x0831_0-x0434_2-x0397_0-x0692_1
     RDKit          3D

 34 38  0  0  0  0  0  0  0  0999 V2000
    6.3980   -3.3060   19.8410 C   0  0  0  0  0  0  0  0  0  0  0  0
    7.3370   -3.0120   18.6880 C   0  0  0  0  0  0  0  0  0  0  0  0
    5.4020   -4.0240   19.6630 O   0  0  0  0  0  0  0  0  0  0  0  0
    6.7310   -2.8090   21.0980 N   0  0  0  0  0  0  0  0  0  0  0  0
    7.7220   -1.7130   21.0790 C   0  0  1  0  0  0  0  0  0  0  0  0
    6.9560   -3.7040   22.2050 C   0  0  1  0  0  0  0  0  0  0  0  0
    6.9220   -0.5160   21.2540 N   0  0  0  0  0  0  0  0  0  0  0  0
    8.9110   -1.8250   22.0820 C   0  0  0  0  0  0  0  0  0  0  0  0
    7.2370   -2.8760   23.4530 C   0  0  0  0  0  0  0  0  0  0  0  0
    5.8200   -4.7110   22.3690 C   0  0  0  0  0  0  0  0  0  0  0  0
    8.5640   -2.2830   23.3600 N   0  0  0  0  0  0  0  0  0  0  0  0
    6.0010   -6.0410   23.1730 C   0  0  0  0  0  0  0  0  0  0  0  0
    6.0230   -6.2110   21.9420 C   0  0  0  0  0  0  0  0  0  0  0  0
    6.3770    0.1030   20.1240 C   0  0  0  0  0  0  0  0  0  0  0  0
    9.5660   -3.1850   23.9510 C   0  0  1  0  0  0  0  0  0  0  0  0
    6.8910    0.0640   18.8900 C   0  0  0  0  0  0  0  0  0  0  0  0
    5.2020    0.8130   20.3160 C   0  0  0  0  0  0  0  0  0  0  0  0
   10.8460   -2.5230   24.5210 C   0  0  0  0  0  0  0  0  0  0  0  0
    9.1440   -4.1080   25.0920 C   0  0  0  0  0  0  0  0  0  0  0  0
    6.3950    0.6550   17.7820 N   0  0  0  0  0  0  0  0  0  0  0  0
    4.5750    1.5110   19.0960 C   0  0  0  0  0  0  0  0  0  0  0  0
    9.7770   -5.4250   25.3500 C   0  0  0  0  0  0  0  0  0  0  0  0
    7.9110   -3.8300   26.2970 S   0  0  0  0  0  0  0  0  0  0  0  0
   11.2400   -1.1140   24.0650 C   0  0  0  0  0  0  0  0  0  0  0  0
    5.2570    1.3640   17.8990 C   0  0  0  0  0  0  0  0  0  0  0  0
    9.3010   -6.0930   26.3940 C   0  0  0  0  0  0  0  0  0  0  0  0
    8.1790   -5.3330   27.1080 C   0  0  0  0  0  0  0  0  0  0  0  0
   10.5230   -0.0300   24.5700 C   0  0  0  0  0  0  0  0  0  0  0  0
   12.2770   -0.8220   23.1920 C   0  0  0  0  0  0  0  0  0  0  0  0
    7.2640   -5.7860   28.4780 Cl  0  0  0  0  0  0  0  0  0  0  0  0
   13.1430   -1.8520   22.5300 C   0  0  0  0  0  0  0  0  0  0  0  0
   10.8200    1.2820   24.2350 C   0  0  0  0  0  0  0  0  0  0  0  0
   12.6100    0.4780   22.8480 C   0  0  0  0  0  0  0  0  0  0  0  0
   11.8810    1.5500   23.3690 C   0  0  0  0  0  0  0  0  0  0  0  0
  1  2  1  0
  1  3  2  0
  1  4  1  0
  4  5  1  0
  4  6  1  0
  5  7  1  1
  5  8  1  0
  6  9  1  0
  6 10  1  1
  8 11  1  0
  9 11  1  0
 10 12  1  0
 10 13  1  0
 12 13  1  0
  7 14  1  0
 11 15  1  0
 14 16  2  0
 14 17  1  0
 15 18  1  1
 15 19  1  0
 16 20  1  0
 17 21  2  0
 19 22  2  0
 19 23  1  0
 18 24  1  0
 20 25  2  0
 21 25  1  0
 22 26  1  0
 23 27  1  0
 26 27  2  0
 24 28  2  0
 24 29  1  0
 27 30  1  0
 29 31  1  0
 28 32  1  0
 29 33  2  0
 32 34  2  0
 33 34  1  0
M  END
