x1336_0-x0434_2-x1386_0-x0397_0-x1412_0
     RDKit          3D

 32 36  0  0  0  0  0  0  0  0999 V2000
    6.3550   -3.4390   19.9360 C   0  0  0  0  0  0  0  0  0  0  0  0
    7.3340   -3.0930   18.8240 C   0  0  0  0  0  0  0  0  0  0  0  0
    5.3880   -4.1850   19.7450 O   0  0  0  0  0  0  0  0  0  0  0  0
    6.6430   -2.8880   21.1700 N   0  0  0  0  0  0  0  0  0  0  0  0
    6.8660   -3.8970   22.2080 C   0  0  1  0  0  0  0  0  0  0  0  0
    7.6400   -1.8200   21.2940 C   0  0  1  0  0  0  0  0  0  0  0  0
    6.9090   -0.5570   21.3590 N   0  0  0  0  0  0  0  0  0  0  0  0
    6.9090   -3.2510   23.5750 C   0  0  0  0  0  0  0  0  0  0  0  0
    8.5350   -2.1600   22.4430 C   0  0  0  0  0  0  0  0  0  0  0  0
    5.7460   -4.8960   22.2790 C   0  0  0  0  0  0  0  0  0  0  0  0
    7.8650   -2.3040   23.6590 N   0  0  0  0  0  0  0  0  0  0  0  0
    5.8130   -5.9770   23.2520 C   0  0  0  0  0  0  0  0  0  0  0  0
    6.0310   -6.2830   21.7860 C   0  0  0  0  0  0  0  0  0  0  0  0
    6.2600    0.1100   20.2190 C   0  0  0  0  0  0  0  0  0  0  0  0
    8.8610   -2.4840   24.6910 C   0  0  2  0  0  0  0  0  0  0  0  0
    6.9800   -0.1010   19.0240 C   0  0  0  0  0  0  0  0  0  0  0  0
    5.0810    0.8550   20.3500 C   0  0  0  0  0  0  0  0  0  0  0  0
    9.0720   -1.5010   25.3650 O   0  0  0  0  0  0  0  0  0  0  0  0
   10.2600   -2.7430   24.0930 C   0  0  0  0  0  0  0  0  0  0  0  0
    8.7030   -3.6510   25.6540 C   0  0  0  0  0  0  0  0  0  0  0  0
    6.4630    0.5170   17.8150 N   0  0  0  0  0  0  0  0  0  0  0  0
    4.5970    1.4360   19.1780 C   0  0  0  0  0  0  0  0  0  0  0  0
    9.5620   -4.9030   25.5370 C   0  0  0  0  0  0  0  0  0  0  0  0
    7.6490   -3.8500   26.9950 S   0  0  0  0  0  0  0  0  0  0  0  0
    5.2530    1.2780   17.9840 C   0  0  0  0  0  0  0  0  0  0  0  0
   11.1090   -1.5440   23.7770 C   0  0  0  0  0  0  0  0  0  0  0  0
    9.3110   -5.8900   26.5200 C   0  0  0  0  0  0  0  0  0  0  0  0
    8.2950   -5.4180   27.3600 C   0  0  0  0  0  0  0  0  0  0  0  0
   12.1670   -1.4990   22.8870 C   0  0  0  0  0  0  0  0  0  0  0  0
   10.9610   -0.1560   24.3790 C   0  0  0  0  0  0  0  0  0  0  0  0
   12.8590   -0.3070   22.6990 C   0  0  0  0  0  0  0  0  0  0  0  0
   12.2410    0.9670   23.6540 S   0  0  0  0  0  0  0  0  0  0  0  0
  1  2  1  0
  1  3  2  0
  1  4  1  0
  4  5  1  0
  4  6  1  0
  6  7  1  1
  5  8  1  0
  6  9  1  0
  5 10  1  1
  8 11  1  0
  9 11  1  0
 10 12  1  0
 10 13  1  0
 12 13  1  0
  7 14  1  0
 11 15  1  0
 14 16  2  0
 14 17  1  0
 15 18  1  1
 15 19  1  0
 15 20  1  0
 16 21  1  0
 17 22  2  0
 20 23  2  0
 20 24  1  0
 21 25  2  0
 22 25  1  0
 19 26  1  0
 23 27  1  0
 24 28  1  0
 27 28  2  0
 26 29  1  0
 26 30  2  0
 29 31  2  0
 30 32  1  0
 31 32  1  0
M  END
