x1334_0-x0770_1-x0397_0-x1385_1-x1418_1-x1334_1-x0831_0-x0434_2-x1412_1
     RDKit          3D

 34 38  0  0  0  0  0  0  0  0999 V2000
    6.3250   -3.3230   19.7860 C   0  0  0  0  0  0  0  0  0  0  0  0
    7.3330   -3.0290   18.6850 C   0  0  0  0  0  0  0  0  0  0  0  0
    5.3310   -4.0370   19.6450 O   0  0  0  0  0  0  0  0  0  0  0  0
    6.6570   -2.7500   21.0010 N   0  0  0  0  0  0  0  0  0  0  0  0
    7.6470   -1.6600   21.0140 C   0  0  2  0  0  0  0  0  0  0  0  0
    6.9640   -3.7520   22.0200 C   0  0  1  0  0  0  0  0  0  0  0  0
    8.6090   -1.6350   22.2020 C   0  0  0  0  0  0  0  0  0  0  0  0
    6.9980   -3.1170   23.3780 C   0  0  0  0  0  0  0  0  0  0  0  0
    6.0340   -4.9670   21.8560 C   0  0  0  0  0  0  0  0  0  0  0  0
    7.0830   -0.2750   20.7190 C   0  0  0  0  0  0  0  0  0  0  0  0
    8.0240   -2.1200   23.4830 N   0  0  0  0  0  0  0  0  0  0  0  0
    6.6580   -6.1350   22.6520 C   0  0  0  0  0  0  0  0  0  0  0  0
    5.4820   -5.9080   23.0360 C   0  0  0  0  0  0  0  0  0  0  0  0
    6.9610    0.0780   19.3910 C   0  0  0  0  0  0  0  0  0  0  0  0
    9.1160   -2.5030   24.3520 C   0  0  2  0  0  0  0  0  0  0  0  0
    5.8690    0.4440   20.2580 C   0  0  0  0  0  0  0  0  0  0  0  0
    6.5340    0.5710   18.1530 N   0  0  0  0  0  0  0  0  0  0  0  0
   10.3760   -2.5810   23.4470 C   0  0  0  0  0  0  0  0  0  0  0  0
    8.8870   -3.6560   25.2790 C   0  0  0  0  0  0  0  0  0  0  0  0
    5.3190    1.2760   17.8540 C   0  0  0  0  0  0  0  0  0  0  0  0
    4.6680    1.1140   20.0280 C   0  0  0  0  0  0  0  0  0  0  0  0
    9.7280   -4.8940   25.1300 C   0  0  0  0  0  0  0  0  0  0  0  0
    7.7740   -3.7670   26.5550 S   0  0  0  0  0  0  0  0  0  0  0  0
   10.9910   -1.1770   23.4280 C   0  0  0  0  0  0  0  0  0  0  0  0
    4.3140    1.5620   18.8780 C   0  0  0  0  0  0  0  0  0  0  0  0
    9.3490   -5.8900   26.1680 C   0  0  0  0  0  0  0  0  0  0  0  0
    8.2190   -5.3330   27.0520 C   0  0  0  0  0  0  0  0  0  0  0  0
   10.2670   -0.0530   24.1900 C   0  0  0  0  0  0  0  0  0  0  0  0
   12.2840   -0.9450   22.6850 C   0  0  0  0  0  0  0  0  0  0  0  0
    7.4060   -6.0280   28.3810 Cl  0  0  0  0  0  0  0  0  0  0  0  0
   13.0260   -1.9760   21.9190 C   0  0  0  0  0  0  0  0  0  0  0  0
   10.8170    1.2120   24.1990 C   0  0  0  0  0  0  0  0  0  0  0  0
   12.7220    0.3160   22.7780 C   0  0  0  0  0  0  0  0  0  0  0  0
   12.0360    1.4400   23.5150 C   0  0  0  0  0  0  0  0  0  0  0  0
  1  2  1  0
  1  3  2  0
  1  4  1  0
  4  5  1  0
  4  6  1  0
  5  7  1  0
  6  8  1  0
  6  9  1  1
  5 10  1  1
  7 11  1  0
  8 11  1  0
  9 12  1  0
  9 13  1  0
 12 13  1  0
 10 14  1  0
 11 15  1  0
 14 16  2  0
 14 17  1  0
 15 18  1  6
 15 19  1  0
 17 20  2  0
 16 21  1  0
 19 22  2  0
 19 23  1  0
 18 24  1  0
 20 25  1  0
 21 25  2  0
 22 26  1  0
 23 27  1  0
 26 27  2  0
 24 28  2  0
 24 29  1  0
 27 30  1  0
 29 31  1  0
 28 32  1  0
 29 33  2  0
 32 34  2  0
 33 34  1  0
M  END
