x1334_0-x1418_1-x0692_1-x0397_0-x1334_1-x0426_1-x0831_0-x1385_1-x1375_1
     RDKit          3D

 42 47  0  0  0  0  0  0  0  0999 V2000
    2.3920   -7.1430   24.3040 O   0  0  0  0  0  0  0  0  0  0  0  0
    3.5420   -7.1070   25.1220 C   0  0  0  0  0  0  0  0  0  0  0  0
    4.7240   -7.1910   24.3560 O   0  0  0  0  0  0  0  0  0  0  0  0
    5.3580   -5.9200   24.1390 C   0  0  0  0  0  0  0  0  0  0  0  0
    6.1130   -5.9680   22.8520 C   0  0  2  0  0  0  0  0  0  0  0  0
    6.5280   -4.9470   22.1490 C   0  0  1  0  0  0  0  0  0  0  0  0
    5.3810   -6.0580   21.7840 C   0  0  0  0  0  0  0  0  0  0  0  0
    6.2650   -3.5020   22.4820 C   0  0  1  0  0  0  0  0  0  0  0  0
    7.0900   -3.1240   23.5430 C   0  0  0  0  0  0  0  0  0  0  0  0
    6.4300   -2.6650   21.3260 N   0  0  0  0  0  0  0  0  0  0  0  0
    6.3060   -3.2140   19.9820 C   0  0  0  0  0  0  0  0  0  0  0  0
    8.4340   -2.5010   23.2480 N   0  0  0  0  0  0  0  0  0  0  0  0
    7.0540   -1.5160   21.7550 C   0  0  2  0  0  0  0  0  0  0  0  0
    7.3330   -2.9000   18.8900 C   0  0  0  0  0  0  0  0  0  0  0  0
    5.3850   -4.0080   19.7190 O   0  0  0  0  0  0  0  0  0  0  0  0
    6.5510   -0.0540   21.5570 C   0  0  2  0  0  0  0  0  0  0  0  0
    9.6330   -3.2720   23.7150 C   0  0  1  0  0  0  0  0  0  0  0  0
    8.4030   -1.7600   21.9490 C   0  0  0  0  0  0  0  0  0  0  0  0
    5.5330    0.2610   22.7220 C   0  0  0  0  0  0  0  0  0  0  0  0
   10.6940   -2.5410   24.3030 C   0  0  0  0  0  0  0  0  0  0  0  0
    6.1080    0.4230   20.1840 C   0  0  0  0  0  0  0  0  0  0  0  0
    9.2360   -4.1690   24.8920 C   0  0  0  0  0  0  0  0  0  0  0  0
    4.7750    1.5910   22.5340 C   0  0  2  0  0  0  0  0  0  0  0  0
    4.9680    1.2320   20.0240 C   0  0  0  0  0  0  0  0  0  0  0  0
    6.8510    0.0700   19.0780 C   0  0  0  0  0  0  0  0  0  0  0  0
    9.7830   -5.4080   25.2310 C   0  0  0  0  0  0  0  0  0  0  0  0
    7.8990   -3.6870   26.1240 S   0  0  0  0  0  0  0  0  0  0  0  0
   11.0890   -1.1370   23.9700 C   0  0  0  0  0  0  0  0  0  0  0  0
    3.7070    1.6910   23.5540 N   0  0  0  0  0  0  0  0  0  0  0  0
    4.1150    1.6470   21.1630 C   0  0  0  0  0  0  0  0  0  0  0  0
    4.6000    1.6880   18.7960 C   0  0  0  0  0  0  0  0  0  0  0  0
    6.4150    0.5900   17.7620 N   0  0  0  0  0  0  0  0  0  0  0  0
    9.3140   -6.0740   26.3380 C   0  0  0  0  0  0  0  0  0  0  0  0
    8.2120   -5.3210   27.0620 C   0  0  0  0  0  0  0  0  0  0  0  0
   10.3660    0.0780   24.5050 C   0  0  0  0  0  0  0  0  0  0  0  0
   12.2740   -0.7680   23.0720 C   0  0  0  0  0  0  0  0  0  0  0  0
    7.3310   -5.7410   28.4610 Cl  0  0  0  0  0  0  0  0  0  0  0  0
   13.1250   -1.7940   22.4100 C   0  0  0  0  0  0  0  0  0  0  0  0
    5.3110    1.3870   17.6610 C   0  0  0  0  0  0  0  0  0  0  0  0
   10.7180    1.3820   24.2360 C   0  0  0  0  0  0  0  0  0  0  0  0
   12.5750    0.5530   22.8620 C   0  0  0  0  0  0  0  0  0  0  0  0
   11.8350    1.6090   23.4140 C   0  0  0  0  0  0  0  0  0  0  0  0
  1  2  1  0
  2  3  1  0
  3  4  1  0
  5  4  1  1
  5  6  1  0
  5  7  1  0
  6  7  1  6
  6  8  1  0
  8  9  1  1
  8 10  1  0
 10 11  1  0
  9 12  1  0
 10 13  1  0
 11 14  1  0
 11 15  2  0
 13 16  1  0
 12 17  1  0
 12 18  1  0
 13 18  1  6
 16 19  1  1
 17 20  1  1
 16 21  1  0
 17 22  1  0
 19 23  1  0
 21 24  2  0
 21 25  1  0
 22 26  2  0
 22 27  1  0
 20 28  1  0
 23 29  1  1
 23 30  1  0
 24 30  1  0
 24 31  1  0
 25 32  2  0
 26 33  1  0
 27 34  1  0
 33 34  2  0
 28 35  2  0
 28 36  1  0
 34 37  1  0
 36 38  1  0
 31 39  2  0
 32 39  1  0
 35 40  1  0
 36 41  2  0
 40 42  2  0
 41 42  1  0
M  END
