x1334_1-x0426_1-x0831_0-x1418_1-x1375_1-x1385_1-x0692_1-x1334_0-x0397_0-x0434_2
     RDKit          3D

 44 50  0  0  0  0  0  0  0  0999 V2000
    2.7550   -7.5670   23.7810 O   0  0  0  0  0  0  0  0  0  0  0  0
    3.4170   -7.3210   25.0070 C   0  0  0  0  0  0  0  0  0  0  0  0
    4.6520   -6.6670   24.7750 O   0  0  0  0  0  0  0  0  0  0  0  0
    5.0760   -6.8120   23.4250 C   0  0  0  0  0  0  0  0  0  0  0  0
    6.0910   -5.8130   23.0040 C   0  0  2  0  0  0  0  0  0  0  0  0
    5.7880   -4.5510   22.3580 C   0  0  2  0  0  0  0  0  0  0  0  0
    6.4530   -5.8940   21.6380 C   0  0  0  0  0  0  0  0  0  0  0  0
    6.5880   -3.2680   22.3250 C   0  0  2  0  0  0  0  0  0  0  0  0
    6.6670   -2.5660   20.9970 N   0  0  0  0  0  0  0  0  0  0  0  0
    7.9530   -3.4890   23.0180 C   0  0  0  0  0  0  0  0  0  0  0  0
    6.4130   -3.3270   19.8480 C   0  0  0  0  0  0  0  0  0  0  0  0
    8.7770   -2.4280   22.9420 N   0  0  0  0  0  0  0  0  0  0  0  0
    7.8520   -1.6810   20.7670 C   0  0  1  0  0  0  0  0  0  0  0  0
    7.3200   -3.0410   18.6440 C   0  0  0  0  0  0  0  0  0  0  0  0
    5.5210   -4.1880   19.7710 O   0  0  0  0  0  0  0  0  0  0  0  0
   10.0300   -2.4310   23.6900 C   0  0  2  0  0  0  0  0  0  0  0  0
    7.5040   -0.4100   20.9640 N   0  0  0  0  0  0  0  0  0  0  0  0
    9.0410   -2.1040   21.5690 C   0  0  0  0  0  0  0  0  0  0  0  0
    9.7090   -2.5560   25.1300 C   0  0  0  0  0  0  0  0  0  0  0  0
    6.9180   -0.0390   22.2950 C   0  0  0  0  0  0  0  0  0  0  0  0
    6.6990    0.2270   19.9430 C   0  0  0  0  0  0  0  0  0  0  0  0
   10.8090   -1.1320   23.5600 C   0  0  0  0  0  0  0  0  0  0  0  0
    5.4700    0.3830   22.0280 C   0  0  2  0  0  0  0  0  0  0  0  0
    6.7590    0.4780   18.6270 N   0  0  0  0  0  0  0  0  0  0  0  0
    5.4800    0.7510   20.5460 C   0  0  0  0  0  0  0  0  0  0  0  0
   10.2330    0.1760   24.2120 C   0  0  0  0  0  0  0  0  0  0  0  0
   12.1460   -0.9910   22.8280 C   0  0  0  0  0  0  0  0  0  0  0  0
    9.3990   -3.8640   25.7540 C   0  0  0  0  0  0  0  0  0  0  0  0
    4.9660    1.5080   22.9060 C   0  0  0  0  0  0  0  0  0  0  0  0
   12.8980   -2.0600   22.1170 C   0  0  0  0  0  0  0  0  0  0  0  0
    4.5130    1.4490   19.9250 C   0  0  0  0  0  0  0  0  0  0  0  0
    5.6670    1.2540   18.0150 C   0  0  0  0  0  0  0  0  0  0  0  0
   10.8310    1.4050   24.1680 C   0  0  0  0  0  0  0  0  0  0  0  0
   12.7170    0.4390   22.8630 C   0  0  0  0  0  0  0  0  0  0  0  0
    9.9660   -5.1440   25.6760 C   0  0  0  0  0  0  0  0  0  0  0  0
    8.0690   -3.9050   26.8550 S   0  0  0  0  0  0  0  0  0  0  0  0
    3.8380    2.3390   22.2400 C   0  0  1  0  0  0  0  0  0  0  0  0
    3.4010    1.8380   20.8450 C   0  0  0  0  0  0  0  0  0  0  0  0
    4.4890    1.8470   18.4210 C   0  0  0  0  0  0  0  0  0  0  0  0
   12.1590    1.5880   23.4590 C   0  0  0  0  0  0  0  0  0  0  0  0
    9.2700   -6.1320   26.5730 C   0  0  0  0  0  0  0  0  0  0  0  0
    8.2290   -5.5400   27.2610 C   0  0  0  0  0  0  0  0  0  0  0  0
    2.8360    2.3480   23.0350 N   0  0  0  0  0  0  0  0  0  0  0  0
    7.1290   -6.1690   28.4080 Cl  0  0  0  0  0  0  0  0  0  0  0  0
  1  2  1  0
  2  3  1  0
  3  4  1  0
  5  4  1  6
  5  6  1  0
  5  7  1  0
  6  7  1  6
  6  8  1  0
  8  9  1  0
  8 10  1  6
  9 11  1  0
 10 12  1  0
  9 13  1  0
 11 14  1  0
 11 15  2  0
 12 16  1  0
 13 17  1  1
 12 18  1  0
 13 18  1  0
 16 19  1  1
 17 20  1  0
 17 21  1  0
 16 22  1  0
 23 20  1  1
 21 24  2  0
 21 25  1  0
 23 25  1  0
 22 26  2  0
 22 27  1  0
 19 28  1  0
 23 29  1  0
 27 30  1  0
 25 31  2  0
 24 32  1  0
 26 33  1  0
 27 34  2  0
 28 35  2  0
 28 36  1  0
 29 37  1  0
 31 38  1  0
 37 38  1  0
 31 39  1  0
 32 39  2  0
 33 40  2  0
 34 40  1  0
 35 41  1  0
 36 42  1  0
 41 42  2  0
 37 43  1  1
 42 44  1  0
M  END
