x1336_1-x0981_1-x0874_0-x0434_2-x1348_0
     RDKit          3D

 46 48  0  0  0  0  0  0  0  0999 V2000
    3.9130   -5.2130   23.3730 C   0  0  0  0  0  0  0  0  0  0  0  0
    2.6690   -6.0570   23.5570 C   0  0  1  0  0  0  0  0  0  0  0  0
    2.4960   -7.2350   22.8350 N   0  0  0  0  0  0  0  0  0  0  0  0
    3.8870   -3.8230   24.0110 C   0  0  0  0  0  0  0  0  0  0  0  0
    2.4790   -6.3540   25.0390 C   0  0  0  0  0  0  0  0  0  0  0  0
    4.2250   -2.4090   24.4880 C   0  0  0  0  0  0  0  0  0  0  0  0
    5.2930   -3.6410   23.4380 C   0  0  0  0  0  0  0  0  0  0  0  0
    1.2670   -7.4750   22.0730 C   0  0  0  0  0  0  0  0  0  0  0  0
    2.9930   -7.6950   25.3890 C   0  0  0  0  0  0  0  0  0  0  0  0
    5.0240   -2.2160   25.7520 C   0  0  0  0  0  0  0  0  0  0  0  0
    5.3250   -2.9810   22.1820 C   0  0  0  0  0  0  0  0  0  0  0  0
    1.2200   -8.7570   21.2810 C   0  0  0  0  0  0  0  0  0  0  0  0
    0.3350   -6.6820   22.0580 O   0  0  0  0  0  0  0  0  0  0  0  0
    2.3430   -8.3970   26.4930 N   0  0  0  0  0  0  0  0  0  0  0  0
    4.0620   -8.2270   24.6620 O   0  0  0  0  0  0  0  0  0  0  0  0
    6.1370   -1.2560   25.5400 N   0  0  0  0  0  0  0  0  0  0  0  0
    6.5460   -3.3070   21.4140 N   0  0  0  0  0  0  0  0  0  0  0  0
    7.6430   -2.0510   25.2090 S   0  0  1  0  0  0  0  0  0  0  0  0
    6.3480   -3.6330   20.0930 C   0  0  0  0  0  0  0  0  0  0  0  0
    7.6760   -2.4670   21.8160 C   0  0  0  0  0  0  0  0  0  0  0  0
    8.8570   -1.0640   25.2340 N   0  0  0  0  0  0  0  0  0  0  0  0
    5.3870   -4.3330   19.8000 O   0  0  0  0  0  0  0  0  0  0  0  0
    7.3270   -3.1270   19.0290 C   0  0  0  0  0  0  0  0  0  0  0  0
    7.2300   -1.1760   21.8450 C   0  0  0  0  0  0  0  0  0  0  0  0
    7.9150   -3.4010   26.1860 C   0  0  0  0  0  0  0  0  0  0  0  0
    7.7990   -0.4420   20.8700 N   0  0  0  0  0  0  0  0  0  0  0  0
    8.9590    0.0030   24.2190 C   0  0  0  0  0  0  0  0  0  0  0  0
    6.9780   -3.7230   27.1840 C   0  0  0  0  0  0  0  0  0  0  0  0
    9.0540   -4.1810   26.0080 C   0  0  0  0  0  0  0  0  0  0  0  0
   10.0890   -3.8750   24.9660 C   0  0  0  0  0  0  0  0  0  0  0  0
    9.4010   -0.5040   23.0000 C   0  0  0  0  0  0  0  0  0  0  0  0
    7.1500   -4.8290   28.0210 C   0  0  0  0  0  0  0  0  0  0  0  0
    9.2510   -5.3880   26.9110 C   0  0  0  0  0  0  0  0  0  0  0  0
    6.8560    0.1510   20.0270 C   0  0  0  0  0  0  0  0  0  0  0  0
    6.0710   -5.1230   29.1000 C   0  0  0  0  0  0  0  0  0  0  0  0
    8.2800   -5.6430   27.8720 C   0  0  0  0  0  0  0  0  0  0  0  0
    7.0170    0.0630   18.6250 C   0  0  0  0  0  0  0  0  0  0  0  0
    5.7340    0.8510   20.4900 C   0  0  0  0  0  0  0  0  0  0  0  0
   10.8880   -0.5200   22.7890 C   0  0  0  0  0  0  0  0  0  0  0  0
    6.2090    0.5950   17.6890 N   0  0  0  0  0  0  0  0  0  0  0  0
    4.8930    1.3980   19.6100 C   0  0  0  0  0  0  0  0  0  0  0  0
   11.7400    0.4470   23.1640 C   0  0  0  0  0  0  0  0  0  0  0  0
   11.5210   -1.5840   22.1540 C   0  0  0  0  0  0  0  0  0  0  0  0
    5.1470    1.2650   18.1480 C   0  0  0  0  0  0  0  0  0  0  0  0
   13.1280    0.1150   22.7900 C   0  0  0  0  0  0  0  0  0  0  0  0
   13.2060   -1.3980   22.0050 S   0  0  0  0  0  0  0  0  0  0  0  0
  2  1  1  1
  2  3  1  0
  1  4  2  3
  2  5  1  0
  4  6  1  0
  4  7  1  0
  3  8  1  0
  5  9  1  0
  6 10  1  0
  7 11  1  0
  8 12  1  0
  8 13  2  0
  9 14  1  0
  9 15  2  0
 10 16  1  0
 11 17  1  0
 16 18  2  0
 17 19  1  0
 17 20  1  0
 18 21  2  0
 19 22  2  0
 19 23  1  0
 20 24  1  0
 18 25  1  1
 24 26  1  0
 21 27  1  0
 25 28  2  0
 25 29  1  0
 29 30  1  0
 27 31  1  0
 28 32  1  0
 29 33  2  0
 26 34  1  0
 32 35  1  0
 32 36  2  0
 33 36  1  0
 34 37  2  0
 34 38  1  0
 31 39  1  0
 37 40  1  0
 38 41  2  0
 39 42  1  0
 39 43  2  0
 40 44  2  0
 41 44  1  0
 42 45  2  0
 43 46  1  0
 45 46  1  0
M  END
