x1334_1-x1334_0-x0831_0-x1385_1-x0397_0-x1374_1-x0831_1-x0692_1-x0770_1
     RDKit          3D

 32 35  0  0  0  0  0  0  0  0999 V2000
    1.9330   -7.1990   23.6820 O   0  0  0  0  0  0  0  0  0  0  0  0
    2.3750   -7.5550   24.9830 C   0  0  0  0  0  0  0  0  0  0  0  0
    3.7580   -7.8740   24.9570 O   0  0  0  0  0  0  0  0  0  0  0  0
    4.3390   -7.2520   23.8280 C   0  0  0  0  0  0  0  0  0  0  0  0
    4.8890   -5.9150   24.2160 C   0  0  0  0  0  0  0  0  0  0  0  0
    5.9750   -5.6560   23.2300 C   0  0  2  0  0  0  0  0  0  0  0  0
    5.8330   -4.6260   22.2440 C   0  0  2  0  0  0  0  0  0  0  0  0
    5.9920   -6.2460   21.9190 C   0  0  0  0  0  0  0  0  0  0  0  0
    6.9100   -3.6200   22.1760 C   0  0  1  0  0  0  0  0  0  0  0  0
    6.6740   -2.6560   21.0900 N   0  0  0  0  0  0  0  0  0  0  0  0
    7.0800   -3.0290   23.4000 C   0  0  0  0  0  0  0  0  0  0  0  0
    6.3720   -3.2580   19.8630 C   0  0  0  0  0  0  0  0  0  0  0  0
    8.3240   -2.3190   23.4020 N   0  0  0  0  0  0  0  0  0  0  0  0
    7.5690   -1.5900   21.1570 C   0  0  0  0  0  0  0  0  0  0  0  0
    7.3310   -2.9740   18.7250 C   0  0  0  0  0  0  0  0  0  0  0  0
    5.4130   -4.0290   19.7060 O   0  0  0  0  0  0  0  0  0  0  0  0
    9.2460   -2.6040   24.3750 C   0  0  2  0  0  0  0  0  0  0  0  0
    8.7720   -1.9250   22.0570 C   0  0  0  0  0  0  0  0  0  0  0  0
   10.6330   -2.5880   23.8300 C   0  0  0  0  0  0  0  0  0  0  0  0
    9.0980   -3.8260   25.2360 C   0  0  0  0  0  0  0  0  0  0  0  0
    9.7290   -5.0450   25.3240 C   0  0  0  0  0  0  0  0  0  0  0  0
    7.8760   -3.8160   26.4790 S   0  0  0  0  0  0  0  0  0  0  0  0
   11.1070   -1.1710   23.7250 C   0  0  0  0  0  0  0  0  0  0  0  0
    9.2720   -5.8800   26.3110 C   0  0  0  0  0  0  0  0  0  0  0  0
    8.2460   -5.3770   27.0650 C   0  0  0  0  0  0  0  0  0  0  0  0
   10.3830   -0.1160   24.3200 C   0  0  0  0  0  0  0  0  0  0  0  0
   12.4040   -0.8580   22.9540 C   0  0  0  0  0  0  0  0  0  0  0  0
    7.3710   -6.0260   28.3790 Cl  0  0  0  0  0  0  0  0  0  0  0  0
   13.1790   -1.9520   22.2970 C   0  0  0  0  0  0  0  0  0  0  0  0
   10.7880    1.2020   24.2390 C   0  0  0  0  0  0  0  0  0  0  0  0
   12.9070    0.5830   22.8510 C   0  0  0  0  0  0  0  0  0  0  0  0
   12.0510    1.6380   23.5170 C   0  0  0  0  0  0  0  0  0  0  0  0
  1  2  1  0
  2  3  1  0
  3  4  1  0
  4  5  1  0
  6  5  1  1
  6  7  1  0
  6  8  1  0
  7  8  1  6
  7  9  1  0
  9 10  1  0
  9 11  1  1
 10 12  1  0
 11 13  1  0
 10 14  1  0
 12 15  1  0
 12 16  2  0
 13 17  1  0
 13 18  1  0
 14 18  1  0
 17 19  1  6
 17 20  1  0
 20 21  2  0
 20 22  1  0
 19 23  1  0
 21 24  1  0
 22 25  1  0
 24 25  2  0
 23 26  2  0
 23 27  1  0
 25 28  1  0
 27 29  1  0
 26 30  1  0
 27 31  2  0
 30 32  2  0
 31 32  1  0
M  END
