x1334_1-x0692_1-x0831_0-x1334_0-x0397_0-x1412_1-x0434_2-x1385_1
     RDKit          3D

 34 38  0  0  0  0  0  0  0  0999 V2000
    6.3630   -3.3080   19.9620 C   0  0  0  0  0  0  0  0  0  0  0  0
    7.2880   -2.9780   18.7990 C   0  0  0  0  0  0  0  0  0  0  0  0
    5.3970   -4.0570   19.7270 O   0  0  0  0  0  0  0  0  0  0  0  0
    6.6640   -2.8150   21.2700 N   0  0  0  0  0  0  0  0  0  0  0  0
    7.3340   -1.5370   21.4870 C   0  0  2  0  0  0  0  0  0  0  0  0
    7.0180   -3.8130   22.1310 C   0  0  1  0  0  0  0  0  0  0  0  0
    7.5310   -0.9590   20.2200 N   0  0  0  0  0  0  0  0  0  0  0  0
    8.6310   -1.6700   22.2130 C   0  0  0  0  0  0  0  0  0  0  0  0
    7.7950   -3.5020   23.4400 C   0  0  0  0  0  0  0  0  0  0  0  0
    5.8590   -4.7220   22.4340 C   0  0  0  0  0  0  0  0  0  0  0  0
    8.3390   -2.1270   23.5640 N   0  0  0  0  0  0  0  0  0  0  0  0
    6.0540   -5.9080   23.2550 C   0  0  0  0  0  0  0  0  0  0  0  0
    5.8890   -6.2430   22.0610 C   0  0  0  0  0  0  0  0  0  0  0  0
    6.6770   -0.1350   19.5770 C   0  0  0  0  0  0  0  0  0  0  0  0
    9.6170   -1.9800   24.2760 C   0  0  1  0  0  0  0  0  0  0  0  0
    6.9270    0.2960   18.3900 C   0  0  0  0  0  0  0  0  0  0  0  0
    5.3590    0.3670   20.1430 C   0  0  0  0  0  0  0  0  0  0  0  0
   10.3140   -3.2730   24.3280 C   0  0  0  0  0  0  0  0  0  0  0  0
   10.5460   -0.8080   23.9180 C   0  0  0  0  0  0  0  0  0  0  0  0
    6.2780    1.0830   17.5600 N   0  0  0  0  0  0  0  0  0  0  0  0
    4.4720    1.2810   19.3520 C   0  0  0  0  0  0  0  0  0  0  0  0
   10.1620    0.6100   24.3630 C   0  0  0  0  0  0  0  0  0  0  0  0
   11.8790   -0.9090   23.1350 C   0  0  0  0  0  0  0  0  0  0  0  0
    9.6480   -4.1680   25.3040 C   0  0  0  0  0  0  0  0  0  0  0  0
    5.0280    1.6080   18.0120 C   0  0  0  0  0  0  0  0  0  0  0  0
   12.4430   -2.1900   22.5950 C   0  0  0  0  0  0  0  0  0  0  0  0
   11.1250    1.7470   23.9910 C   0  0  0  0  0  0  0  0  0  0  0  0
   12.6690    0.3360   22.8890 C   0  0  0  0  0  0  0  0  0  0  0  0
    9.9720   -5.5940   25.5410 C   0  0  0  0  0  0  0  0  0  0  0  0
    8.3370   -3.7540   26.3900 S   0  0  0  0  0  0  0  0  0  0  0  0
   12.3120    1.5690   23.2900 C   0  0  0  0  0  0  0  0  0  0  0  0
    9.1030   -6.1120   26.5930 C   0  0  0  0  0  0  0  0  0  0  0  0
    8.2190   -5.3050   27.1340 C   0  0  0  0  0  0  0  0  0  0  0  0
    7.0920   -5.6390   28.3730 Cl  0  0  0  0  0  0  0  0  0  0  0  0
  1  2  1  0
  1  3  2  0
  1  4  1  0
  4  5  1  0
  4  6  1  0
  5  7  1  6
  5  8  1  0
  6  9  1  0
  6 10  1  1
  8 11  1  0
  9 11  1  0
 10 12  1  0
 10 13  1  0
 12 13  1  0
  7 14  1  0
 11 15  1  0
 14 16  2  0
 14 17  1  0
 15 18  1  6
 15 19  1  0
 16 20  1  0
 17 21  2  0
 19 22  2  0
 19 23  1  0
 18 24  1  0
 20 25  2  0
 21 25  1  0
 23 26  1  0
 22 27  1  0
 23 28  2  0
 24 29  2  0
 24 30  1  0
 27 31  2  0
 28 31  1  0
 29 32  1  0
 30 33  1  0
 32 33  2  0
 33 34  1  0
M  END
