x1334_0-x1334_1-x1386_1-x1374_1-x0831_0-x0692_1-x1375_1-x0426_1-x0434_2
     RDKit          3D

 47 53  0  0  0  0  0  0  0  0999 V2000
    6.4600   -3.2870   19.8610 C   0  0  0  0  0  0  0  0  0  0  0  0
    7.3660   -3.0080   18.6810 C   0  0  0  0  0  0  0  0  0  0  0  0
    5.4890   -4.0570   19.7190 O   0  0  0  0  0  0  0  0  0  0  0  0
    6.8320   -2.6500   21.0830 N   0  0  0  0  0  0  0  0  0  0  0  0
    7.9390   -1.6620   20.9360 C   0  0  1  0  0  0  0  0  0  0  0  0
    7.2660   -3.5620   22.0160 C   0  0  2  0  0  0  0  0  0  0  0  0
    6.6310   -4.9630   22.1260 C   0  0  0  0  0  0  0  0  0  0  0  0
    7.6080   -0.3620   20.8700 N   0  0  0  0  0  0  0  0  0  0  0  0
    9.0150   -1.8580   22.0780 C   0  0  0  0  0  0  0  0  0  0  0  0
    7.3050   -2.9710   23.2580 C   0  0  0  0  0  0  0  0  0  0  0  0
    7.4030    0.3710   22.1020 C   0  0  0  0  0  0  0  0  0  0  0  0
    8.5810   -2.3450   23.3960 N   0  0  0  0  0  0  0  0  0  0  0  0
    6.6430    0.2040   19.9210 C   0  0  0  0  0  0  0  0  0  0  0  0
    5.1950   -4.9740   22.4920 C   0  0  2  0  0  0  0  0  0  0  0  0
    5.9120    0.6220   22.1980 C   0  0  2  0  0  0  0  0  0  0  0  0
    9.6090   -3.2400   23.8910 C   0  0  1  0  0  0  0  0  0  0  0  0
    6.6480    0.2200   18.5170 N   0  0  0  0  0  0  0  0  0  0  0  0
    5.6910    0.7710   20.7290 C   0  0  0  0  0  0  0  0  0  0  0  0
    4.9020   -4.3560   23.6890 C   0  0  0  0  0  0  0  0  0  0  0  0
    4.8500   -6.4710   22.5710 C   0  0  0  0  0  0  0  0  0  0  0  0
    5.3010    1.8490   22.8920 C   0  0  0  0  0  0  0  0  0  0  0  0
   10.9690   -2.5430   24.2170 C   0  0  0  0  0  0  0  0  0  0  0  0
    4.4840    1.5280   20.1490 C   0  0  0  0  0  0  0  0  0  0  0  0
    5.6340    0.8660   17.8930 C   0  0  0  0  0  0  0  0  0  0  0  0
    9.2330   -4.1740   25.0280 C   0  0  0  0  0  0  0  0  0  0  0  0
    4.0920   -5.0810   24.6130 C   0  0  0  0  0  0  0  0  0  0  0  0
    3.6720   -6.7080   23.8920 S   0  0  0  0  0  0  0  0  0  0  0  0
    3.8070    1.8890   22.5890 C   0  0  2  0  0  0  0  0  0  0  0  0
    3.4740    2.1420   21.0620 C   0  0  0  0  0  0  0  0  0  0  0  0
    2.2160   -6.8180   23.2880 O   0  0  0  0  0  0  0  0  0  0  0  0
    4.0930   -7.9110   24.8190 O   0  0  0  0  0  0  0  0  0  0  0  0
    4.5340    1.5350   18.6560 C   0  0  0  0  0  0  0  0  0  0  0  0
    9.7640   -5.3420   25.4030 C   0  0  0  0  0  0  0  0  0  0  0  0
    7.9450   -3.8460   26.1320 S   0  0  0  0  0  0  0  0  0  0  0  0
   11.2500   -1.0930   23.9460 C   0  0  0  0  0  0  0  0  0  0  0  0
    3.1840    2.9510   23.3710 N   0  0  0  0  0  0  0  0  0  0  0  0
    9.2970   -6.0430   26.4690 C   0  0  0  0  0  0  0  0  0  0  0  0
    8.2490   -5.3830   27.0600 C   0  0  0  0  0  0  0  0  0  0  0  0
   10.4610   -0.1040   24.5290 C   0  0  0  0  0  0  0  0  0  0  0  0
   12.3410   -0.7530   23.0940 C   0  0  0  0  0  0  0  0  0  0  0  0
    1.3560   -7.4330   24.2700 O   0  0  0  0  0  0  0  0  0  0  0  0
    4.5700   -7.3440   26.0530 O   0  0  0  0  0  0  0  0  0  0  0  0
    7.3110   -5.8190   28.4210 Cl  0  0  0  0  0  0  0  0  0  0  0  0
   13.1880   -1.7860   22.4340 C   0  0  0  0  0  0  0  0  0  0  0  0
   10.8010    1.2650   24.2440 C   0  0  0  0  0  0  0  0  0  0  0  0
   12.5980    0.5610   22.8930 C   0  0  0  0  0  0  0  0  0  0  0  0
   11.8820    1.5310   23.4280 C   0  0  0  0  0  0  0  0  0  0  0  0
  1  2  1  0
  1  3  2  0
  1  4  1  0
  4  5  1  0
  4  6  1  0
  6  7  1  1
  5  8  1  1
  5  9  1  0
  6 10  1  0
  8 11  1  0
  9 12  1  0
 10 12  1  0
  8 13  1  0
 14  7  1  1
 15 11  1  6
 12 16  1  0
 13 17  2  0
 13 18  1  0
 15 18  1  0
 14 19  1  0
 14 20  1  0
 15 21  1  0
 16 22  1  1
 18 23  2  0
 17 24  1  0
 16 25  1  0
 19 26  2  0
 20 27  1  0
 26 27  1  0
 21 28  1  0
 23 29  1  0
 28 29  1  0
 27 30  1  0
 27 31  1  0
 23 32  1  0
 24 32  2  0
 25 33  2  0
 25 34  1  0
 22 35  1  0
 28 36  1  1
 33 37  1  0
 34 38  1  0
 37 38  2  0
 35 39  2  0
 35 40  1  0
 30 41  1  0
 31 42  1  0
 38 43  1  0
 40 44  1  0
 39 45  1  0
 40 46  2  0
 45 47  2  0
 46 47  1  0
M  END
