x1334_1-x0770_1-x1375_1-x0831_0-x1418_1-x0831_1-x1334_0-x0692_1-x0397_0-x1386_1-x0426_1
     RDKit          3D

 43 48  0  0  0  0  0  0  0  0999 V2000
    2.6550   -7.5400   23.6030 O   0  0  0  0  0  0  0  0  0  0  0  0
    3.3370   -7.3050   24.8170 C   0  0  0  0  0  0  0  0  0  0  0  0
    4.7140   -7.2470   24.5330 O   0  0  0  0  0  0  0  0  0  0  0  0
    5.2450   -5.9230   24.5780 C   0  0  0  0  0  0  0  0  0  0  0  0
    6.0220   -5.6460   23.3230 C   0  0  2  0  0  0  0  0  0  0  0  0
    5.7010   -4.6280   22.4560 C   0  0  2  0  0  0  0  0  0  0  0  0
    5.5260   -6.1970   22.1460 C   0  0  0  0  0  0  0  0  0  0  0  0
    7.0280   -3.8740   22.0410 C   0  0  1  0  0  0  0  0  0  0  0  0
    6.6940   -2.8360   21.1080 N   0  0  0  0  0  0  0  0  0  0  0  0
    7.8220   -3.3580   23.2490 C   0  0  0  0  0  0  0  0  0  0  0  0
    6.3920   -3.3030   19.8510 C   0  0  0  0  0  0  0  0  0  0  0  0
    9.1010   -2.7340   22.9090 N   0  0  0  0  0  0  0  0  0  0  0  0
    7.5890   -1.6570   21.2080 C   0  0  2  0  0  0  0  0  0  0  0  0
    7.2970   -2.9850   18.6950 C   0  0  0  0  0  0  0  0  0  0  0  0
    5.4090   -4.0320   19.6680 O   0  0  0  0  0  0  0  0  0  0  0  0
    9.6900   -2.1030   23.9350 C   0  0  1  0  0  0  0  0  0  0  0  0
    9.0140   -2.0100   21.6810 C   0  0  0  0  0  0  0  0  0  0  0  0
    6.8970   -0.6320   22.1140 C   0  0  0  0  0  0  0  0  0  0  0  0
   10.5320   -3.0650   24.6530 C   0  0  0  0  0  0  0  0  0  0  0  0
   10.5770   -0.8530   23.6870 C   0  0  0  0  0  0  0  0  0  0  0  0
    5.5390   -0.2430   21.6130 C   0  0  1  0  0  0  0  0  0  0  0  0
    9.9480    0.4940   24.1210 C   0  0  0  0  0  0  0  0  0  0  0  0
   11.9020   -0.8930   23.1160 C   0  0  0  0  0  0  0  0  0  0  0  0
    9.7880   -4.0680   25.4660 C   0  0  0  0  0  0  0  0  0  0  0  0
    4.9620    0.7520   22.6010 C   0  0  0  0  0  0  0  0  0  0  0  0
    5.5410    0.3340   20.2060 C   0  0  0  0  0  0  0  0  0  0  0  0
   12.4900   -2.2020   22.6920 C   0  0  0  0  0  0  0  0  0  0  0  0
   10.8160    1.7760   23.9190 C   0  0  0  0  0  0  0  0  0  0  0  0
   12.7450    0.1590   22.8950 C   0  0  0  0  0  0  0  0  0  0  0  0
   10.1530   -5.4320   25.7280 C   0  0  0  0  0  0  0  0  0  0  0  0
    8.2690   -3.7950   26.3190 S   0  0  0  0  0  0  0  0  0  0  0  0
    4.1350    1.9630   22.0810 C   0  0  2  0  0  0  0  0  0  0  0  0
    4.5190    1.3170   19.8780 C   0  0  0  0  0  0  0  0  0  0  0  0
    6.4590   -0.0200   19.2050 C   0  0  0  0  0  0  0  0  0  0  0  0
   12.2880    1.5460   23.2710 C   0  0  0  0  0  0  0  0  0  0  0  0
    9.1750   -6.1270   26.6130 C   0  0  0  0  0  0  0  0  0  0  0  0
    8.1350   -5.3520   27.0060 C   0  0  0  0  0  0  0  0  0  0  0  0
    3.1570    2.2340   22.9850 N   0  0  0  0  0  0  0  0  0  0  0  0
    3.5180    1.7390   20.8690 C   0  0  0  0  0  0  0  0  0  0  0  0
    4.4540    1.8670   18.6770 C   0  0  0  0  0  0  0  0  0  0  0  0
    6.4490    0.4980   17.9580 N   0  0  0  0  0  0  0  0  0  0  0  0
    6.8390   -5.7850   28.0360 Cl  0  0  0  0  0  0  0  0  0  0  0  0
    5.4920    1.4000   17.7100 C   0  0  0  0  0  0  0  0  0  0  0  0
  1  2  1  0
  2  3  1  0
  3  4  1  0
  5  4  1  1
  5  6  1  0
  5  7  1  0
  6  7  1  6
  6  8  1  0
  8  9  1  0
  8 10  1  1
  9 11  1  0
 10 12  1  0
  9 13  1  0
 11 14  1  0
 11 15  2  0
 12 16  1  0
 12 17  1  0
 13 17  1  0
 13 18  1  1
 16 19  1  6
 16 20  1  0
 21 18  1  1
 20 22  2  0
 20 23  1  0
 19 24  1  0
 21 25  1  0
 21 26  1  0
 23 27  1  0
 22 28  1  0
 23 29  2  0
 24 30  2  0
 24 31  1  0
 25 32  1  0
 26 33  2  0
 26 34  1  0
 28 35  2  0
 29 35  1  0
 30 36  1  0
 31 37  1  0
 36 37  2  0
 32 38  1  1
 32 39  1  0
 33 39  1  0
 33 40  1  0
 34 41  2  0
 37 42  1  0
 40 43  2  0
 41 43  1  0
M  END
