x1334_1-x1412_1-x0692_1-x1374_1-x0397_0-x0831_0-x0770_1-x0426_1-x1334_0-x0434_2-x1418_1-x1385_1
     RDKit          3D

 45 51  0  0  0  0  0  0  0  0999 V2000
    2.0720   -6.7430   23.9890 O   0  0  0  0  0  0  0  0  0  0  0  0
    2.5720   -7.5010   25.0790 C   0  0  0  0  0  0  0  0  0  0  0  0
    3.9450   -7.8240   24.9290 O   0  0  0  0  0  0  0  0  0  0  0  0
    4.5050   -7.1290   23.8220 C   0  0  0  0  0  0  0  0  0  0  0  0
    4.9330   -5.8860   24.1950 C   0  0  0  0  0  0  0  0  0  0  0  0
    6.0430   -5.5100   23.2690 C   0  0  2  0  0  0  0  0  0  0  0  0
    6.0810   -4.5290   22.4060 C   0  0  2  0  0  0  0  0  0  0  0  0
    6.0530   -6.1660   22.1360 C   0  0  0  0  0  0  0  0  0  0  0  0
    7.1760   -3.6900   22.0130 C   0  0  1  0  0  0  0  0  0  0  0  0
    6.6920   -2.6740   21.0200 N   0  0  0  0  0  0  0  0  0  0  0  0
    7.8340   -3.1930   23.1930 C   0  0  0  0  0  0  0  0  0  0  0  0
    6.3580   -3.3040   19.8450 C   0  0  0  0  0  0  0  0  0  0  0  0
    8.8150   -2.0720   23.0300 N   0  0  0  0  0  0  0  0  0  0  0  0
    7.8110   -1.7260   20.7290 C   0  0  1  0  0  0  0  0  0  0  0  0
    7.3270   -3.0410   18.7020 C   0  0  0  0  0  0  0  0  0  0  0  0
    5.3940   -4.0730   19.6890 O   0  0  0  0  0  0  0  0  0  0  0  0
   10.2090   -2.2150   23.4380 C   0  0  2  0  0  0  0  0  0  0  0  0
    7.5090   -0.3150   20.8610 N   0  0  0  0  0  0  0  0  0  0  0  0
    9.0620   -1.9090   21.5860 C   0  0  0  0  0  0  0  0  0  0  0  0
   10.6270   -3.1280   24.5630 C   0  0  0  0  0  0  0  0  0  0  0  0
    7.2010    0.3540   22.1470 C   0  0  0  0  0  0  0  0  0  0  0  0
    6.6140    0.2490   19.8800 C   0  0  0  0  0  0  0  0  0  0  0  0
   10.8110   -0.8890   23.4810 C   0  0  0  0  0  0  0  0  0  0  0  0
    5.6820    0.4280   22.0790 C   0  0  2  0  0  0  0  0  0  0  0  0
    6.7100    0.3810   18.4830 N   0  0  0  0  0  0  0  0  0  0  0  0
    5.5090    0.7120   20.6040 C   0  0  0  0  0  0  0  0  0  0  0  0
   10.1270    0.2110   23.9470 C   0  0  0  0  0  0  0  0  0  0  0  0
   12.1170   -0.8780   23.0030 C   0  0  0  0  0  0  0  0  0  0  0  0
    9.7580   -3.9770   25.3600 C   0  0  0  0  0  0  0  0  0  0  0  0
    4.9850    1.5860   22.8000 C   0  0  0  0  0  0  0  0  0  0  0  0
   12.8450   -2.0730   22.4890 C   0  0  0  0  0  0  0  0  0  0  0  0
    4.3950    1.3590   20.0740 C   0  0  0  0  0  0  0  0  0  0  0  0
    5.6350    1.0140   17.9580 C   0  0  0  0  0  0  0  0  0  0  0  0
   10.8000    1.4410   23.9470 C   0  0  0  0  0  0  0  0  0  0  0  0
   12.8190    0.4300   23.0080 C   0  0  0  0  0  0  0  0  0  0  0  0
   10.0890   -5.4010   25.7440 C   0  0  0  0  0  0  0  0  0  0  0  0
    8.2210   -3.6600   26.1040 S   0  0  0  0  0  0  0  0  0  0  0  0
    3.4850    1.7070   22.4870 C   0  0  2  0  0  0  0  0  0  0  0  0
    3.2690    1.8170   20.9640 C   0  0  0  0  0  0  0  0  0  0  0  0
    4.4940    1.4940   18.7680 C   0  0  0  0  0  0  0  0  0  0  0  0
   12.1230    1.5600   23.4880 C   0  0  0  0  0  0  0  0  0  0  0  0
    9.1800   -6.0060   26.5280 C   0  0  0  0  0  0  0  0  0  0  0  0
    8.0850   -5.2100   26.8500 C   0  0  0  0  0  0  0  0  0  0  0  0
    2.9080    2.8120   23.2170 N   0  0  0  0  0  0  0  0  0  0  0  0
    6.7560   -5.6400   27.8420 Cl  0  0  0  0  0  0  0  0  0  0  0  0
  1  2  1  0
  2  3  1  0
  3  4  1  0
  4  5  1  0
  6  5  1  6
  6  7  1  0
  6  8  1  0
  7  8  1  6
  7  9  1  0
  9 10  1  0
  9 11  1  1
 10 12  1  0
 11 13  1  0
 10 14  1  0
 12 15  1  0
 12 16  2  0
 13 17  1  0
 14 18  1  1
 13 19  1  0
 14 19  1  0
 17 20  1  1
 18 21  1  0
 18 22  1  0
 17 23  1  0
 24 21  1  6
 22 25  2  0
 22 26  1  0
 24 26  1  0
 23 27  2  0
 23 28  1  0
 20 29  1  0
 24 30  1  0
 28 31  1  0
 26 32  2  0
 25 33  1  0
 27 34  1  0
 28 35  2  0
 29 36  2  0
 29 37  1  0
 30 38  1  0
 32 39  1  0
 38 39  1  0
 32 40  1  0
 33 40  2  0
 34 41  2  0
 35 41  1  0
 36 42  1  0
 37 43  1  0
 42 43  2  0
 38 44  1  1
 43 45  1  0
M  END
