x1334_0-x0770_1-x0831_0-x1385_1-x1334_1-x0831_1-x0692_1-x1374_1-x0397_0
     RDKit          3D

 32 35  0  0  0  0  0  0  0  0999 V2000
    1.8950   -6.5740   23.7540 O   0  0  0  0  0  0  0  0  0  0  0  0
    2.3060   -7.9190   23.8040 C   0  0  0  0  0  0  0  0  0  0  0  0
    3.4420   -8.0550   24.6420 O   0  0  0  0  0  0  0  0  0  0  0  0
    4.5350   -7.2460   24.2390 C   0  0  0  0  0  0  0  0  0  0  0  0
    4.1590   -6.1280   23.5480 C   0  0  0  0  0  0  0  0  0  0  0  0
    5.4280   -5.5320   23.0020 C   0  0  2  0  0  0  0  0  0  0  0  0
    5.3640   -4.3210   22.2300 C   0  0  2  0  0  0  0  0  0  0  0  0
    5.8340   -5.8610   21.7480 C   0  0  0  0  0  0  0  0  0  0  0  0
    6.3560   -3.1860   22.4070 C   0  0  2  0  0  0  0  0  0  0  0  0
    6.5050   -2.5220   21.1130 N   0  0  0  0  0  0  0  0  0  0  0  0
    7.5670   -3.6470   22.8590 C   0  0  0  0  0  0  0  0  0  0  0  0
    6.3370   -3.2450   19.9000 C   0  0  0  0  0  0  0  0  0  0  0  0
    8.4990   -2.5480   23.2150 N   0  0  0  0  0  0  0  0  0  0  0  0
    7.5440   -1.4580   21.0850 C   0  0  0  0  0  0  0  0  0  0  0  0
    7.3080   -2.9750   18.7690 C   0  0  0  0  0  0  0  0  0  0  0  0
    5.4480   -4.1070   19.7540 O   0  0  0  0  0  0  0  0  0  0  0  0
    9.6680   -3.1730   23.8560 C   0  0  1  0  0  0  0  0  0  0  0  0
    8.8250   -1.8170   21.9370 C   0  0  0  0  0  0  0  0  0  0  0  0
   10.4920   -2.2670   24.7930 C   0  0  0  0  0  0  0  0  0  0  0  0
    9.3360   -4.1770   24.9580 C   0  0  0  0  0  0  0  0  0  0  0  0
    9.8510   -5.4400   25.2300 C   0  0  0  0  0  0  0  0  0  0  0  0
    8.1120   -3.7670   26.1400 S   0  0  0  0  0  0  0  0  0  0  0  0
   11.0470   -0.9910   24.2140 C   0  0  0  0  0  0  0  0  0  0  0  0
    9.3500   -6.1050   26.3070 C   0  0  0  0  0  0  0  0  0  0  0  0
    8.2750   -5.3060   27.0330 C   0  0  0  0  0  0  0  0  0  0  0  0
   10.3550    0.2760   24.5940 C   0  0  0  0  0  0  0  0  0  0  0  0
   12.2270   -0.9020   23.3230 C   0  0  0  0  0  0  0  0  0  0  0  0
    7.3490   -5.6880   28.4160 Cl  0  0  0  0  0  0  0  0  0  0  0  0
   12.9620   -2.1340   22.8880 C   0  0  0  0  0  0  0  0  0  0  0  0
   10.9060    1.5680   24.0590 C   0  0  0  0  0  0  0  0  0  0  0  0
   12.7300    0.2540   22.8430 C   0  0  0  0  0  0  0  0  0  0  0  0
   12.1540    1.5550   23.1470 C   0  0  0  0  0  0  0  0  0  0  0  0
  1  2  1  0
  2  3  1  0
  3  4  1  0
  4  5  1  0
  6  5  1  6
  6  7  1  0
  6  8  1  0
  7  8  1  6
  7  9  1  0
  9 10  1  0
  9 11  1  6
 10 12  1  0
 11 13  1  0
 10 14  1  0
 12 15  1  0
 12 16  2  0
 13 17  1  0
 13 18  1  0
 14 18  1  0
 17 19  1  1
 17 20  1  0
 20 21  2  0
 20 22  1  0
 19 23  1  0
 21 24  1  0
 22 25  1  0
 24 25  2  0
 23 26  2  0
 23 27  1  0
 25 28  1  0
 27 29  1  0
 26 30  1  0
 27 31  2  0
 30 32  2  0
 31 32  1  0
M  END
