x1334_1-x0770_1-x0434_2-x1334_0-x0692_1-x1412_1-x0689_0-x0397_0-x0831_0
     RDKit          3D

 43 48  0  0  0  0  0  0  0  0999 V2000
    6.3240   -3.2880   19.8000 C   0  0  0  0  0  0  0  0  0  0  0  0
    7.3420   -3.0180   18.7120 C   0  0  0  0  0  0  0  0  0  0  0  0
    5.3240   -3.9810   19.6080 O   0  0  0  0  0  0  0  0  0  0  0  0
    6.6150   -2.7830   21.0560 N   0  0  0  0  0  0  0  0  0  0  0  0
    7.6790   -1.7520   21.0390 C   0  0  1  0  0  0  0  0  0  0  0  0
    6.8650   -3.8610   22.0060 C   0  0  1  0  0  0  0  0  0  0  0  0
    7.1300   -0.4220   21.2450 N   0  0  0  0  0  0  0  0  0  0  0  0
    8.9130   -1.9510   22.0060 C   0  0  0  0  0  0  0  0  0  0  0  0
    7.4940   -3.4470   23.2980 C   0  0  0  0  0  0  0  0  0  0  0  0
    5.6730   -4.7170   22.2120 C   0  0  2  0  0  0  0  0  0  0  0  0
    8.8390   -3.1870   22.8280 N   0  0  0  0  0  0  0  0  0  0  0  0
    5.6100   -5.6940   23.1340 C   0  0  2  0  0  0  0  0  0  0  0  0
    5.9080   -6.3380   22.0050 C   0  0  0  0  0  0  0  0  0  0  0  0
    6.4650    0.1760   20.1720 C   0  0  0  0  0  0  0  0  0  0  0  0
    4.3740   -6.0670   23.8780 C   0  0  0  0  0  0  0  0  0  0  0  0
    9.7720   -3.1230   23.8940 C   0  0  1  0  0  0  0  0  0  0  0  0
    6.9260    0.0900   18.8640 C   0  0  0  0  0  0  0  0  0  0  0  0
    5.1790    0.9800   20.2820 C   0  0  0  0  0  0  0  0  0  0  0  0
    4.3950   -5.3870   25.6250 S   0  0  0  0  0  0  0  0  0  0  0  0
    9.6780   -1.7370   24.5000 C   0  0  0  0  0  0  0  0  0  0  0  0
    9.3110   -4.0320   25.0190 C   0  0  0  0  0  0  0  0  0  0  0  0
    6.3710    0.6350   17.7680 N   0  0  0  0  0  0  0  0  0  0  0  0
    4.6150    1.5330   19.1420 C   0  0  0  0  0  0  0  0  0  0  0  0
    3.7140   -6.4300   26.6100 O   0  0  0  0  0  0  0  0  0  0  0  0
    5.7990   -4.8240   26.1230 O   0  0  0  0  0  0  0  0  0  0  0  0
    3.3050   -4.0810   25.6020 C   0  0  0  0  0  0  0  0  0  0  0  0
    9.8270   -5.2410   25.2590 C   0  0  0  0  0  0  0  0  0  0  0  0
    8.0530   -3.7180   26.2290 S   0  0  0  0  0  0  0  0  0  0  0  0
   10.6780   -0.7150   23.9360 C   0  0  0  0  0  0  0  0  0  0  0  0
    5.2450    1.3370   17.9130 C   0  0  0  0  0  0  0  0  0  0  0  0
    3.9300   -2.4900   25.8880 S   0  0  0  0  0  0  0  0  0  0  0  0
    1.7800   -4.0730   25.3670 C   0  0  0  0  0  0  0  0  0  0  0  0
    9.4100   -6.1960   26.3950 C   0  0  0  0  0  0  0  0  0  0  0  0
    8.3640   -5.2430   26.9310 C   0  0  0  0  0  0  0  0  0  0  0  0
   10.4500    0.7170   24.3590 C   0  0  0  0  0  0  0  0  0  0  0  0
   11.7620   -0.8300   23.1170 C   0  0  0  0  0  0  0  0  0  0  0  0
    7.4070   -5.6360   28.2950 Cl  0  0  0  0  0  0  0  0  0  0  0  0
   12.2010   -2.1490   22.5360 C   0  0  0  0  0  0  0  0  0  0  0  0
    2.4180   -1.6880   25.7590 C   0  0  0  0  0  0  0  0  0  0  0  0
    1.2500   -2.5790   25.4730 C   0  0  0  0  0  0  0  0  0  0  0  0
   11.3190    1.8130   23.9270 C   0  0  0  0  0  0  0  0  0  0  0  0
   12.6690    0.4030   22.7010 C   0  0  0  0  0  0  0  0  0  0  0  0
   12.3980    1.6370   23.1260 C   0  0  0  0  0  0  0  0  0  0  0  0
  1  2  1  0
  1  3  2  0
  1  4  1  0
  4  5  1  0
  4  6  1  0
  5  7  1  1
  5  8  1  0
  6  9  1  1
  6 10  1  0
  8 11  1  0
  9 11  1  0
 10 12  1  0
 10 13  1  6
 12 13  1  0
  7 14  1  0
 12 15  1  6
 11 16  1  0
 14 17  2  0
 14 18  1  0
 19 15  1  0
 16 20  1  1
 16 21  1  0
 17 22  1  0
 18 23  2  0
 19 24  2  0
 19 25  2  0
 19 26  1  0
 21 27  2  0
 21 28  1  0
 20 29  1  0
 22 30  2  0
 23 30  1  0
 26 31  1  0
 26 32  2  0
 27 33  1  0
 28 34  1  0
 33 34  2  0
 29 35  2  0
 29 36  1  0
 34 37  1  0
 36 38  1  0
 31 39  1  0
 32 40  1  0
 39 40  2  0
 35 41  1  0
 36 42  2  0
 41 43  2  0
 42 43  1  0
M  END
