x1334_1-x0397_0-x1386_1-x1334_0-x0831_0-x0434_2-x0426_1-x0770_1-x0692_1-x1412_1-x1375_1
     RDKit          3D

 44 50  0  0  0  0  0  0  0  0999 V2000
    3.1520   -8.0540   24.4340 O   0  0  0  0  0  0  0  0  0  0  0  0
    3.5730   -7.1450   25.4300 C   0  0  0  0  0  0  0  0  0  0  0  0
    4.7680   -6.5640   24.9560 O   0  0  0  0  0  0  0  0  0  0  0  0
    4.9780   -6.7590   23.5620 C   0  0  0  0  0  0  0  0  0  0  0  0
    5.9380   -5.7580   23.0030 C   0  0  2  0  0  0  0  0  0  0  0  0
    5.5240   -4.6050   22.2700 C   0  0  2  0  0  0  0  0  0  0  0  0
    6.3040   -5.9640   21.7350 C   0  0  0  0  0  0  0  0  0  0  0  0
    6.1470   -3.2460   22.4540 C   0  0  2  0  0  0  0  0  0  0  0  0
    6.4600   -2.5480   21.1660 N   0  0  0  0  0  0  0  0  0  0  0  0
    7.1630   -3.2190   23.4730 C   0  0  0  0  0  0  0  0  0  0  0  0
    6.3500   -3.2810   19.9400 C   0  0  0  0  0  0  0  0  0  0  0  0
    8.5110   -2.5480   23.3570 N   0  0  0  0  0  0  0  0  0  0  0  0
    7.4800   -1.5520   21.4470 C   0  0  2  0  0  0  0  0  0  0  0  0
    7.3480   -2.9700   18.8320 C   0  0  0  0  0  0  0  0  0  0  0  0
    5.4850   -4.1530   19.7770 O   0  0  0  0  0  0  0  0  0  0  0  0
    9.5610   -3.4320   23.8360 C   0  0  1  0  0  0  0  0  0  0  0  0
    7.7860   -0.4380   20.5360 N   0  0  0  0  0  0  0  0  0  0  0  0
    8.7590   -2.1350   21.9780 C   0  0  0  0  0  0  0  0  0  0  0  0
   10.8510   -2.6770   24.2140 C   0  0  0  0  0  0  0  0  0  0  0  0
    8.0760    0.6450   21.5010 C   0  0  0  0  0  0  0  0  0  0  0  0
    6.7120    0.1070   19.6820 C   0  0  0  0  0  0  0  0  0  0  0  0
    9.1890   -4.2940   25.0450 C   0  0  0  0  0  0  0  0  0  0  0  0
    6.7260    1.3890   21.7180 C   0  0  1  0  0  0  0  0  0  0  0  0
    6.2470   -0.1610   18.4440 N   0  0  0  0  0  0  0  0  0  0  0  0
    6.1010    1.0870   20.4100 C   0  0  0  0  0  0  0  0  0  0  0  0
    9.7670   -5.5100   25.3360 C   0  0  0  0  0  0  0  0  0  0  0  0
    7.9930   -3.8790   26.2220 S   0  0  0  0  0  0  0  0  0  0  0  0
   11.0670   -1.2090   24.0200 C   0  0  0  0  0  0  0  0  0  0  0  0
    5.5850    1.1650   22.7460 C   0  0  0  0  0  0  0  0  0  0  0  0
    4.9390    1.8720   20.0640 C   0  0  0  0  0  0  0  0  0  0  0  0
    5.1530    0.5720   18.0370 C   0  0  0  0  0  0  0  0  0  0  0  0
    9.2440   -6.0670   26.4740 C   0  0  0  0  0  0  0  0  0  0  0  0
    8.2630   -5.3140   27.0850 C   0  0  0  0  0  0  0  0  0  0  0  0
   10.3660   -0.0970   24.5320 C   0  0  0  0  0  0  0  0  0  0  0  0
   12.2530   -0.7470   23.1320 C   0  0  0  0  0  0  0  0  0  0  0  0
    4.6160    2.3790   22.5400 C   0  0  1  0  0  0  0  0  0  0  0  0
    4.4170    2.8580   21.0720 C   0  0  0  0  0  0  0  0  0  0  0  0
    7.3740   -5.6680   28.5000 Cl  0  0  0  0  0  0  0  0  0  0  0  0
   13.1290   -1.7590   22.4580 C   0  0  0  0  0  0  0  0  0  0  0  0
    4.3910    1.5750   18.6740 C   0  0  0  0  0  0  0  0  0  0  0  0
   10.7240    1.2290   24.2630 C   0  0  0  0  0  0  0  0  0  0  0  0
   12.5770    0.5520   22.9040 C   0  0  0  0  0  0  0  0  0  0  0  0
    3.3330    2.0970   23.1490 N   0  0  0  0  0  0  0  0  0  0  0  0
   11.8060    1.5340   23.4740 C   0  0  0  0  0  0  0  0  0  0  0  0
  1  2  1  0
  2  3  1  0
  3  4  1  0
  5  4  1  6
  5  6  1  0
  5  7  1  0
  6  7  1  6
  6  8  1  0
  8  9  1  0
  8 10  1  6
  9 11  1  0
 10 12  1  0
  9 13  1  0
 11 14  1  0
 11 15  2  0
 12 16  1  0
 13 17  1  6
 12 18  1  0
 13 18  1  0
 16 19  1  1
 17 20  1  0
 17 21  1  0
 16 22  1  0
 23 20  1  1
 21 24  2  0
 21 25  1  0
 23 25  1  0
 22 26  2  0
 22 27  1  0
 19 28  1  0
 23 29  1  0
 25 30  2  0
 24 31  1  0
 26 32  1  0
 27 33  1  0
 32 33  2  0
 28 34  2  0
 28 35  1  0
 29 36  1  0
 30 37  1  0
 36 37  1  0
 33 38  1  0
 35 39  1  0
 30 40  1  0
 31 40  2  0
 34 41  1  0
 35 42  2  0
 36 43  1  6
 41 44  2  0
 42 44  1  0
M  END
