x1334_0-x0395_1-x0397_0
     RDKit          3D

 23 25  0  0  0  0  0  0  0  0999 V2000
    5.8660   -3.1950   20.6280 C   0  0  0  0  0  0  0  0  0  0  0  0
    6.5820   -3.4500   21.6850 N   0  0  0  0  0  0  0  0  0  0  0  0
    7.6950   -2.5180   21.9840 C   0  0  0  0  0  0  0  0  0  0  0  0
    5.3930   -4.0370   19.8640 O   0  0  0  0  0  0  0  0  0  0  0  0
    6.8050   -4.8130   22.2370 C   0  0  0  0  0  0  0  0  0  0  0  0
    7.9130   -2.3960   23.4850 C   0  0  0  0  0  0  0  0  0  0  0  0
    5.9220   -5.2220   23.2360 C   0  0  0  0  0  0  0  0  0  0  0  0
    5.7890   -5.9410   21.8030 C   0  0  0  0  0  0  0  0  0  0  0  0
    9.2380   -3.0470   23.9510 C   0  0  1  0  0  0  0  0  0  0  0  0
   10.3440   -2.0150   24.2920 C   0  0  0  0  0  0  0  0  0  0  0  0
    8.9800   -4.0100   25.1070 C   0  0  0  0  0  0  0  0  0  0  0  0
    9.7950   -5.2620   25.2580 C   0  0  0  0  0  0  0  0  0  0  0  0
    7.8070   -3.8550   26.3380 S   0  0  0  0  0  0  0  0  0  0  0  0
   10.4800   -0.9560   23.4490 N   0  0  0  0  0  0  0  0  0  0  0  0
    9.3000   -5.9950   26.4660 C   0  0  0  0  0  0  0  0  0  0  0  0
    8.2590   -5.3420   27.0960 C   0  0  0  0  0  0  0  0  0  0  0  0
   11.2130   -1.4480   22.2470 C   0  0  0  0  0  0  0  0  0  0  0  0
   11.1430    0.1590   24.1720 C   0  0  0  0  0  0  0  0  0  0  0  0
    7.4100   -5.8380   28.4900 Cl  0  0  0  0  0  0  0  0  0  0  0  0
   12.5040   -0.9640   22.2430 C   0  0  0  0  0  0  0  0  0  0  0  0
   11.7010    1.1200   23.3270 C   0  0  0  0  0  0  0  0  0  0  0  0
   13.4900   -1.7030   21.7220 F   0  0  0  0  0  0  0  0  0  0  0  0
   12.7870    0.4140   22.8170 C   0  0  0  0  0  0  0  0  0  0  0  0
  1  2  1  0
  2  3  1  0
  1  4  2  0
  2  5  1  0
  3  6  1  0
  5  7  1  0
  5  8  1  0
  7  8  1  0
  9  6  1  1
  9 10  1  0
  9 11  1  0
 11 12  2  0
 11 13  1  0
 10 14  1  0
 12 15  1  0
 13 16  1  0
 15 16  2  0
 14 17  1  0
 14 18  1  0
 16 19  1  0
 17 20  1  0
 18 21  1  0
 20 22  1  0
 20 23  2  0
 21 23  1  0
M  END
