x1334_0-x0831_0-x0831_1-x1385_1-x1418_1-x0397_0
     RDKit          3D

 28 31  0  0  0  0  0  0  0  0999 V2000
    6.1990   -3.3270   19.8440 C   0  0  0  0  0  0  0  0  0  0  0  0
    7.2930   -3.0370   18.8200 C   0  0  0  0  0  0  0  0  0  0  0  0
    5.2400   -4.0410   19.5830 O   0  0  0  0  0  0  0  0  0  0  0  0
    6.3080   -2.8230   21.0850 N   0  0  0  0  0  0  0  0  0  0  0  0
    6.1260   -1.3960   21.3130 C   0  0  0  0  0  0  0  0  0  0  0  0
    7.0310   -3.6130   22.0340 C   0  0  1  0  0  0  0  0  0  0  0  0
    7.4700   -0.6580   21.4770 C   0  0  0  0  0  0  0  0  0  0  0  0
    7.0370   -3.1270   23.3370 C   0  0  0  0  0  0  0  0  0  0  0  0
    6.1530   -4.5220   22.8420 C   0  0  0  0  0  0  0  0  0  0  0  0
    8.0870   -2.1300   23.4530 N   0  0  0  0  0  0  0  0  0  0  0  0
    8.5550   -1.5550   22.1410 C   0  0  0  0  0  0  0  0  0  0  0  0
    6.5400   -5.8000   23.3520 C   0  0  0  0  0  0  0  0  0  0  0  0
    5.7400   -5.9640   22.2230 C   0  0  0  0  0  0  0  0  0  0  0  0
    9.2200   -2.5280   24.2490 C   0  0  2  0  0  0  0  0  0  0  0  0
   10.4480   -2.5720   23.3140 C   0  0  0  0  0  0  0  0  0  0  0  0
    9.0560   -3.7670   25.1420 C   0  0  0  0  0  0  0  0  0  0  0  0
    9.6690   -4.9920   25.1770 C   0  0  0  0  0  0  0  0  0  0  0  0
    7.8650   -3.7640   26.4880 S   0  0  0  0  0  0  0  0  0  0  0  0
   11.0610   -1.1940   23.3270 C   0  0  0  0  0  0  0  0  0  0  0  0
    9.2510   -5.8410   26.1720 C   0  0  0  0  0  0  0  0  0  0  0  0
    8.2590   -5.3470   27.0020 C   0  0  0  0  0  0  0  0  0  0  0  0
   10.3370   -0.0350   24.0840 C   0  0  0  0  0  0  0  0  0  0  0  0
   12.2640   -0.9290   22.6920 C   0  0  0  0  0  0  0  0  0  0  0  0
    7.4360   -6.0460   28.3650 Cl  0  0  0  0  0  0  0  0  0  0  0  0
   13.0310   -1.9510   21.9350 C   0  0  0  0  0  0  0  0  0  0  0  0
   10.8160    1.2680   24.1680 C   0  0  0  0  0  0  0  0  0  0  0  0
   12.7700    0.4950   22.8130 C   0  0  0  0  0  0  0  0  0  0  0  0
   12.0490    1.6160   23.5470 C   0  0  0  0  0  0  0  0  0  0  0  0
  1  2  1  0
  1  3  2  0
  1  4  1  0
  4  5  1  0
  4  6  1  0
  5  7  1  0
  6  8  1  0
  6  9  1  1
  8 10  1  0
  7 11  1  0
 10 11  1  0
  9 12  1  0
  9 13  1  0
 12 13  1  0
 10 14  1  0
 14 15  1  6
 14 16  1  0
 16 17  2  0
 16 18  1  0
 15 19  1  0
 17 20  1  0
 18 21  1  0
 20 21  2  0
 19 22  2  0
 19 23  1  0
 21 24  1  0
 23 25  1  0
 22 26  1  0
 23 27  2  0
 26 28  2  0
 27 28  1  0
M  END
