x1336_1-x1348_0
     RDKit          3D

 18 18  0  0  0  0  0  0  0  0999 V2000
    7.4670   -1.7480   25.3810 S   0  0  0  0  0  0  0  0  0  0  0  0
    7.2620   -2.3110   23.7330 C   0  0  0  0  0  0  0  0  0  0  0  0
    8.1420   -1.7520   22.8280 C   0  0  0  0  0  0  0  0  0  0  0  0
    8.6880   -0.9780   25.3810 O   0  0  0  0  0  0  0  0  0  0  0  0
    6.2210   -1.1490   25.8080 O   0  0  0  0  0  0  0  0  0  0  0  0
    7.7570   -3.2440   26.3050 C   0  0  0  0  0  0  0  0  0  0  0  0
    6.7540   -3.7950   27.2910 C   0  0  0  0  0  0  0  0  0  0  0  0
    8.9820   -3.9540   26.1160 C   0  0  0  0  0  0  0  0  0  0  0  0
   10.0510   -3.4970   25.1670 C   0  0  0  0  0  0  0  0  0  0  0  0
    8.0130   -2.3010   21.4350 C   0  0  0  0  0  0  0  0  0  0  0  0
    7.0320   -5.0630   28.0650 C   0  0  0  0  0  0  0  0  0  0  0  0
    9.2580   -5.1290   26.8230 C   0  0  0  0  0  0  0  0  0  0  0  0
    6.0520   -5.6140   29.0360 C   0  0  0  0  0  0  0  0  0  0  0  0
    6.8470   -3.1980   21.3150 N   0  0  0  0  0  0  0  0  0  0  0  0
    8.2400   -5.7040   27.8380 C   0  0  0  0  0  0  0  0  0  0  0  0
    6.4600   -3.5670   20.0290 C   0  0  0  0  0  0  0  0  0  0  0  0
    5.4520   -4.2470   19.7950 O   0  0  0  0  0  0  0  0  0  0  0  0
    7.3680   -3.1000   18.9010 C   0  0  0  0  0  0  0  0  0  0  0  0
  1  2  1  0
  2  3  1  0
  1  4  2  0
  1  5  2  0
  1  6  1  0
  6  7  2  0
  6  8  1  0
  8  9  1  0
  3 10  1  0
  7 11  1  0
  8 12  2  0
 11 13  1  0
 10 14  1  0
 11 15  2  0
 12 15  1  0
 14 16  1  0
 16 17  2  0
 16 18  1  0
M  END
