x1334_1-x1374_1-x0692_1-x0397_0-x0426_1-x1412_1-x0434_2-x1386_1-x0770_1-x1418_1-x1334_0-x0831_0
     RDKit          3D

 45 51  0  0  0  0  0  0  0  0999 V2000
    2.0390   -6.6840   24.4690 O   0  0  0  0  0  0  0  0  0  0  0  0
    2.7680   -7.6970   23.8110 C   0  0  0  0  0  0  0  0  0  0  0  0
    3.9290   -8.0290   24.5690 O   0  0  0  0  0  0  0  0  0  0  0  0
    5.0660   -7.2210   24.2890 C   0  0  0  0  0  0  0  0  0  0  0  0
    4.6210   -6.1270   23.5580 C   0  0  0  0  0  0  0  0  0  0  0  0
    5.7710   -5.5290   22.8100 C   0  0  2  0  0  0  0  0  0  0  0  0
    5.5270   -4.4570   22.0940 C   0  0  2  0  0  0  0  0  0  0  0  0
    6.0280   -5.9460   21.6080 C   0  0  0  0  0  0  0  0  0  0  0  0
    6.4260   -3.2650   22.2040 C   0  0  2  0  0  0  0  0  0  0  0  0
    6.6510   -2.5940   20.9240 N   0  0  0  0  0  0  0  0  0  0  0  0
    7.5630   -3.7480   22.7970 C   0  0  0  0  0  0  0  0  0  0  0  0
    6.3640   -3.3530   19.7990 C   0  0  0  0  0  0  0  0  0  0  0  0
    8.3580   -2.5730   23.1180 N   0  0  0  0  0  0  0  0  0  0  0  0
    7.8340   -1.7310   20.8460 C   0  0  1  0  0  0  0  0  0  0  0  0
    7.3220   -3.0880   18.6450 C   0  0  0  0  0  0  0  0  0  0  0  0
    5.4480   -4.1760   19.7370 O   0  0  0  0  0  0  0  0  0  0  0  0
    9.2960   -2.6640   24.1880 C   0  0  2  0  0  0  0  0  0  0  0  0
    7.6000   -0.3170   20.8640 N   0  0  0  0  0  0  0  0  0  0  0  0
    8.9170   -1.9940   21.8880 C   0  0  0  0  0  0  0  0  0  0  0  0
   10.6910   -2.4510   23.7000 C   0  0  0  0  0  0  0  0  0  0  0  0
    7.1500    0.2970   22.1460 C   0  0  0  0  0  0  0  0  0  0  0  0
    6.7360    0.2380   19.8810 C   0  0  0  0  0  0  0  0  0  0  0  0
    9.1190   -3.7550   25.2100 C   0  0  0  0  0  0  0  0  0  0  0  0
    5.6140    0.3230   22.0550 C   0  0  2  0  0  0  0  0  0  0  0  0
    6.6370    0.5470   18.4050 N   0  0  0  0  0  0  0  0  0  0  0  0
    5.4840    0.6670   20.5920 C   0  0  0  0  0  0  0  0  0  0  0  0
    9.8860   -5.0250   25.4270 C   0  0  0  0  0  0  0  0  0  0  0  0
    7.8790   -3.6590   26.4020 S   0  0  0  0  0  0  0  0  0  0  0  0
   11.1800   -1.0100   23.5820 C   0  0  0  0  0  0  0  0  0  0  0  0
    4.7720    1.1910   23.0080 C   0  0  0  0  0  0  0  0  0  0  0  0
    4.3160    1.3130   20.0390 C   0  0  0  0  0  0  0  0  0  0  0  0
    5.5440    1.1450   17.9240 C   0  0  0  0  0  0  0  0  0  0  0  0
    9.4200   -5.7310   26.5020 C   0  0  0  0  0  0  0  0  0  0  0  0
    8.3270   -5.1180   27.1610 C   0  0  0  0  0  0  0  0  0  0  0  0
   10.4100    0.0340   23.9940 C   0  0  0  0  0  0  0  0  0  0  0  0
   12.3880   -0.8450   23.0610 C   0  0  0  0  0  0  0  0  0  0  0  0
    3.8850    2.2030   22.2750 C   0  0  1  0  0  0  0  0  0  0  0  0
    3.2240    1.6440   21.0010 C   0  0  0  0  0  0  0  0  0  0  0  0
    7.4300   -5.5870   28.5370 Cl  0  0  0  0  0  0  0  0  0  0  0  0
   13.1670   -2.0310   22.6090 C   0  0  0  0  0  0  0  0  0  0  0  0
    4.4380    1.5160   18.6950 C   0  0  0  0  0  0  0  0  0  0  0  0
   10.9100    1.3950   23.8910 C   0  0  0  0  0  0  0  0  0  0  0  0
   12.9550    0.3810   22.9150 C   0  0  0  0  0  0  0  0  0  0  0  0
    2.9130    2.7280   23.2020 N   0  0  0  0  0  0  0  0  0  0  0  0
   12.3070    1.6480   23.3050 C   0  0  0  0  0  0  0  0  0  0  0  0
  1  2  1  0
  2  3  1  0
  3  4  1  0
  4  5  1  0
  6  5  1  6
  6  7  1  0
  6  8  1  0
  7  8  1  6
  7  9  1  0
  9 10  1  0
  9 11  1  6
 10 12  1  0
 11 13  1  0
 10 14  1  0
 12 15  1  0
 12 16  2  0
 13 17  1  0
 14 18  1  1
 13 19  1  0
 14 19  1  0
 17 20  1  6
 18 21  1  0
 18 22  1  0
 17 23  1  0
 24 21  1  1
 22 25  2  0
 22 26  1  0
 24 26  1  0
 23 27  2  0
 23 28  1  0
 20 29  1  0
 24 30  1  0
 26 31  2  0
 25 32  1  0
 27 33  1  0
 28 34  1  0
 33 34  2  0
 29 35  2  0
 29 36  1  0
 30 37  1  0
 31 38  1  0
 37 38  1  0
 34 39  1  0
 36 40  1  0
 31 41  1  0
 32 41  2  0
 35 42  1  0
 36 43  2  0
 37 44  1  1
 42 45  2  0
 43 45  1  0
M  END
