x1334_0-x1386_1-x1374_1-x1418_1-x0692_1-x1334_1-x0426_1-x0770_1-x0831_1-x0831_0-x1385_1-x0397_0
     RDKit          3D

 45 50  0  0  0  0  0  0  0  0999 V2000
    1.9640   -7.3210   23.6340 O   0  0  0  0  0  0  0  0  0  0  0  0
    2.4910   -7.7660   24.8790 C   0  0  0  0  0  0  0  0  0  0  0  0
    3.8960   -7.9140   24.8080 O   0  0  0  0  0  0  0  0  0  0  0  0
    4.3700   -6.8550   24.0000 C   0  0  0  0  0  0  0  0  0  0  0  0
    5.6820   -6.7460   24.2060 C   0  0  0  0  0  0  0  0  0  0  0  0
    6.1740   -5.6670   23.3020 C   0  0  2  0  0  0  0  0  0  0  0  0
    5.2160   -5.0110   22.4340 C   0  0  2  0  0  0  0  0  0  0  0  0
    6.4500   -6.0150   21.9290 C   0  0  0  0  0  0  0  0  0  0  0  0
    5.3400   -3.6520   22.4910 C   0  0  0  0  0  0  0  0  0  0  0  0
    6.7770   -3.2390   22.1840 C   0  0  1  0  0  0  0  0  0  0  0  0
    6.8480   -2.4570   20.9620 N   0  0  0  0  0  0  0  0  0  0  0  0
    7.2480   -2.5790   23.2960 C   0  0  0  0  0  0  0  0  0  0  0  0
    6.5240   -3.1270   19.7890 C   0  0  0  0  0  0  0  0  0  0  0  0
    8.6400   -2.1620   23.2770 N   0  0  0  0  0  0  0  0  0  0  0  0
    7.7660   -1.3210   21.0790 C   0  0  2  0  0  0  0  0  0  0  0  0
    7.4820   -2.9960   18.6470 C   0  0  0  0  0  0  0  0  0  0  0  0
    5.5300   -3.8720   19.6420 O   0  0  0  0  0  0  0  0  0  0  0  0
    9.5540   -3.2070   23.6830 C   0  0  1  0  0  0  0  0  0  0  0  0
    9.0130   -1.7240   21.9390 C   0  0  0  0  0  0  0  0  0  0  0  0
    6.9960   -0.1450   21.6810 C   0  0  0  0  0  0  0  0  0  0  0  0
   10.9110   -2.7000   24.0530 C   0  0  0  0  0  0  0  0  0  0  0  0
    9.1620   -3.9740   24.9420 C   0  0  0  0  0  0  0  0  0  0  0  0
    5.4870   -0.2120   21.3670 C   0  0  1  0  0  0  0  0  0  0  0  0
    9.8520   -5.2050   25.3380 C   0  0  0  0  0  0  0  0  0  0  0  0
    7.9520   -3.6440   26.1210 S   0  0  0  0  0  0  0  0  0  0  0  0
   11.2150   -1.1920   23.8890 C   0  0  0  0  0  0  0  0  0  0  0  0
    4.6770    0.3720   22.4910 C   0  0  0  0  0  0  0  0  0  0  0  0
    5.4700    0.3120   20.1640 C   0  0  0  0  0  0  0  0  0  0  0  0
    9.3880   -5.7610   26.5080 C   0  0  0  0  0  0  0  0  0  0  0  0
    8.3350   -5.0210   27.0660 C   0  0  0  0  0  0  0  0  0  0  0  0
   10.4170   -0.2110   24.4950 C   0  0  0  0  0  0  0  0  0  0  0  0
   12.3290   -0.8210   23.1100 C   0  0  0  0  0  0  0  0  0  0  0  0
    4.2070    1.7940   22.1350 C   0  0  2  0  0  0  0  0  0  0  0  0
    4.4840    1.3670   19.8960 C   0  0  0  0  0  0  0  0  0  0  0  0
    6.3400   -0.0840   19.1570 C   0  0  0  0  0  0  0  0  0  0  0  0
    7.4660   -5.3430   28.4940 Cl  0  0  0  0  0  0  0  0  0  0  0  0
   13.1600   -1.8700   22.4470 C   0  0  0  0  0  0  0  0  0  0  0  0
   10.7500    1.1440   24.3140 C   0  0  0  0  0  0  0  0  0  0  0  0
   12.7120    0.4950   22.9130 C   0  0  0  0  0  0  0  0  0  0  0  0
    3.5220    2.2970   23.1910 N   0  0  0  0  0  0  0  0  0  0  0  0
    3.6380    1.7590   20.8520 C   0  0  0  0  0  0  0  0  0  0  0  0
    4.4630    1.9390   18.6320 C   0  0  0  0  0  0  0  0  0  0  0  0
    6.3130    0.4730   17.9390 N   0  0  0  0  0  0  0  0  0  0  0  0
   11.9610    1.4630   23.4850 C   0  0  0  0  0  0  0  0  0  0  0  0
    5.4060    1.4440   17.7070 C   0  0  0  0  0  0  0  0  0  0  0  0
  1  2  1  0
  2  3  1  0
  3  4  1  0
  4  5  1  0
  6  5  1  1
  6  7  1  0
  6  8  1  0
  7  8  1  0
  7  9  1  6
 10  9  1  1
 10 11  1  0
 10 12  1  0
 11 13  1  0
 12 14  1  0
 11 15  1  0
 13 16  1  0
 13 17  2  0
 14 18  1  0
 14 19  1  0
 15 19  1  0
 15 20  1  1
 18 21  1  1
 18 22  1  0
 23 20  1  1
 22 24  2  0
 22 25  1  0
 21 26  1  0
 23 27  1  0
 23 28  1  0
 24 29  1  0
 25 30  1  0
 29 30  2  0
 26 31  2  0
 26 32  1  0
 27 33  1  0
 28 34  2  0
 28 35  1  0
 30 36  1  0
 32 37  1  0
 31 38  1  0
 32 39  2  0
 33 40  1  1
 33 41  1  0
 34 41  1  0
 34 42  1  0
 35 43  2  0
 38 44  2  0
 39 44  1  0
 42 45  2  0
 43 45  1  0
M  END
