x1334_0-x1375_1-x1334_1-x1418_1-x1412_1-x0831_0-x0434_2-x0692_1-x0831_1-x0770_1-x0397_0-x0426_1-x1374_1-x1385_1
     RDKit          3D

 44 50  0  0  0  0  0  0  0  0999 V2000
    2.4620   -7.2460   24.3060 O   0  0  0  0  0  0  0  0  0  0  0  0
    3.3710   -7.1200   25.3800 C   0  0  0  0  0  0  0  0  0  0  0  0
    4.6010   -6.5560   24.9670 O   0  0  0  0  0  0  0  0  0  0  0  0
    4.8000   -6.7500   23.5770 C   0  0  0  0  0  0  0  0  0  0  0  0
    5.8150   -5.8260   22.9740 C   0  0  2  0  0  0  0  0  0  0  0  0
    5.5830   -4.6610   22.3400 C   0  0  2  0  0  0  0  0  0  0  0  0
    6.2250   -6.0130   21.6300 C   0  0  0  0  0  0  0  0  0  0  0  0
    6.4040   -3.3930   22.4690 C   0  0  2  0  0  0  0  0  0  0  0  0
    6.6150   -2.6380   21.2020 N   0  0  0  0  0  0  0  0  0  0  0  0
    7.5980   -3.7690   23.1020 C   0  0  0  0  0  0  0  0  0  0  0  0
    6.4160   -3.2840   19.9330 C   0  0  0  0  0  0  0  0  0  0  0  0
    8.5570   -2.6870   23.2670 N   0  0  0  0  0  0  0  0  0  0  0  0
    7.6440   -1.5620   21.4400 C   0  0  2  0  0  0  0  0  0  0  0  0
    7.3740   -2.9780   18.7940 C   0  0  0  0  0  0  0  0  0  0  0  0
    5.4960   -4.1040   19.7650 O   0  0  0  0  0  0  0  0  0  0  0  0
    9.7190   -3.2730   23.9140 C   0  0  1  0  0  0  0  0  0  0  0  0
    7.8130   -0.3560   20.6120 N   0  0  0  0  0  0  0  0  0  0  0  0
    8.8150   -2.1030   21.9240 C   0  0  0  0  0  0  0  0  0  0  0  0
   10.8710   -2.5220   24.2780 C   0  0  0  0  0  0  0  0  0  0  0  0
    7.8550    0.8410   21.4720 C   0  0  0  0  0  0  0  0  0  0  0  0
    6.7330    0.0780   19.8030 C   0  0  0  0  0  0  0  0  0  0  0  0
    9.2640   -4.1620   25.0810 C   0  0  0  0  0  0  0  0  0  0  0  0
    6.3810    0.9660   21.9410 C   0  0  2  0  0  0  0  0  0  0  0  0
    6.4540   -0.1100   18.4800 N   0  0  0  0  0  0  0  0  0  0  0  0
    5.8510    0.8310   20.5250 C   0  0  0  0  0  0  0  0  0  0  0  0
    9.8220   -5.3880   25.2790 C   0  0  0  0  0  0  0  0  0  0  0  0
    8.0660   -3.8210   26.2770 S   0  0  0  0  0  0  0  0  0  0  0  0
   11.1560   -1.0670   23.9770 C   0  0  0  0  0  0  0  0  0  0  0  0
    5.7880    2.2510   22.5810 C   0  0  0  0  0  0  0  0  0  0  0  0
    4.6010    1.4620   20.0920 C   0  0  0  0  0  0  0  0  0  0  0  0
    5.3000    0.4770   18.0250 C   0  0  0  0  0  0  0  0  0  0  0  0
    9.2340   -6.0840   26.4790 C   0  0  0  0  0  0  0  0  0  0  0  0
    8.2760   -5.3070   27.0780 C   0  0  0  0  0  0  0  0  0  0  0  0
   10.3800   -0.0800   24.5380 C   0  0  0  0  0  0  0  0  0  0  0  0
   12.2070   -0.7810   23.1640 C   0  0  0  0  0  0  0  0  0  0  0  0
    4.2630    2.1460   22.5010 C   0  0  2  0  0  0  0  0  0  0  0  0
    3.7510    2.2360   21.0430 C   0  0  0  0  0  0  0  0  0  0  0  0
    7.3410   -5.6850   28.4580 Cl  0  0  0  0  0  0  0  0  0  0  0  0
   13.0530   -1.8460   22.5300 C   0  0  0  0  0  0  0  0  0  0  0  0
    4.3800    1.2320   18.7520 C   0  0  0  0  0  0  0  0  0  0  0  0
   10.7110    1.2460   24.2480 C   0  0  0  0  0  0  0  0  0  0  0  0
   12.5240    0.5280   22.9030 C   0  0  0  0  0  0  0  0  0  0  0  0
    3.7110    3.1440   23.4400 N   0  0  0  0  0  0  0  0  0  0  0  0
   11.7900    1.5680   23.4340 C   0  0  0  0  0  0  0  0  0  0  0  0
  1  2  1  0
  2  3  1  0
  3  4  1  0
  5  4  1  6
  5  6  1  0
  5  7  1  0
  6  7  1  6
  6  8  1  0
  8  9  1  0
  8 10  1  6
  9 11  1  0
 10 12  1  0
  9 13  1  0
 11 14  1  0
 11 15  2  0
 12 16  1  0
 13 17  1  6
 12 18  1  0
 13 18  1  0
 16 19  1  1
 17 20  1  0
 17 21  1  0
 16 22  1  0
 23 20  1  6
 21 24  2  0
 21 25  1  0
 23 25  1  0
 22 26  2  0
 22 27  1  0
 19 28  1  0
 23 29  1  0
 25 30  2  0
 24 31  1  0
 26 32  1  0
 27 33  1  0
 32 33  2  0
 28 34  2  0
 28 35  1  0
 29 36  1  0
 30 37  1  0
 36 37  1  0
 33 38  1  0
 35 39  1  0
 30 40  1  0
 31 40  2  0
 34 41  1  0
 35 42  2  0
 36 43  1  1
 41 44  2  0
 42 44  1  0
M  END
