x1334_1-x1385_1-x0770_1-x0831_0-x0831_1-x0692_1-x1375_1-x1418_1-x1374_1-x0397_0-x0540_3-x1412_1-x1334_0
     RDKit          3D

 37 40  0  0  0  0  0  0  0  0999 V2000
    2.4360   -7.7680   23.3300 O   0  0  0  0  0  0  0  0  0  0  0  0
    3.0390   -7.4520   24.5560 C   0  0  0  0  0  0  0  0  0  0  0  0
    4.4320   -7.5050   24.3510 O   0  0  0  0  0  0  0  0  0  0  0  0
    4.9590   -6.1660   24.4690 C   0  0  0  0  0  0  0  0  0  0  0  0
    5.8850   -5.6220   23.4020 C   0  0  2  0  0  0  0  0  0  0  0  0
    5.5370   -4.6590   22.5390 C   0  0  2  0  0  0  0  0  0  0  0  0
    6.0400   -6.1430   22.0490 C   0  0  0  0  0  0  0  0  0  0  0  0
    6.2890   -3.3380   22.4810 C   0  0  2  0  0  0  0  0  0  0  0  0
    6.1260   -2.6410   21.1770 N   0  0  0  0  0  0  0  0  0  0  0  0
    7.6560   -3.4440   22.7680 C   0  0  0  0  0  0  0  0  0  0  0  0
    6.1570   -3.3660   19.9830 C   0  0  0  0  0  0  0  0  0  0  0  0
    8.3090   -2.1080   22.9320 N   0  0  0  0  0  0  0  0  0  0  0  0
    6.7990   -1.2950   21.1720 C   0  0  1  0  0  0  0  0  0  0  0  0
    7.1650   -3.0170   18.8880 C   0  0  0  0  0  0  0  0  0  0  0  0
    5.3790   -4.3010   19.8010 O   0  0  0  0  0  0  0  0  0  0  0  0
    6.1980   -0.2800   22.1560 C   0  0  0  0  0  0  0  0  0  0  0  0
    9.7350   -2.3320   23.1310 C   0  0  2  0  0  0  0  0  0  0  0  0
    8.2370   -1.4210   21.6530 C   0  0  0  0  0  0  0  0  0  0  0  0
    4.9720    0.5350   21.7080 C   0  0  0  0  0  0  0  0  0  0  0  0
   10.0780   -3.6530   23.7960 C   0  0  0  0  0  0  0  0  0  0  0  0
   10.5270   -1.0620   23.3180 C   0  0  0  0  0  0  0  0  0  0  0  0
    5.0880    1.9670   22.2420 C   0  0  0  0  0  0  0  0  0  0  0  0
   10.0310    0.2020   24.0640 C   0  0  0  0  0  0  0  0  0  0  0  0
   11.9760   -0.8520   22.7410 C   0  0  0  0  0  0  0  0  0  0  0  0
    9.4230   -4.2680   24.9920 C   0  0  0  0  0  0  0  0  0  0  0  0
    3.7830    2.5820   22.3620 N   0  0  0  0  0  0  0  0  0  0  0  0
   12.7150   -1.8980   21.9690 C   0  0  0  0  0  0  0  0  0  0  0  0
   10.8580    1.4350   24.1730 C   0  0  0  0  0  0  0  0  0  0  0  0
   12.6910    0.3450   22.8980 C   0  0  0  0  0  0  0  0  0  0  0  0
    9.7730   -5.5580   25.4740 C   0  0  0  0  0  0  0  0  0  0  0  0
    8.1180   -3.6550   26.0850 S   0  0  0  0  0  0  0  0  0  0  0  0
    2.8560    2.2190   23.4480 C   0  0  0  0  0  0  0  0  0  0  0  0
   12.2000    1.4480   23.5580 C   0  0  0  0  0  0  0  0  0  0  0  0
    9.1800   -6.0540   26.5150 C   0  0  0  0  0  0  0  0  0  0  0  0
    8.1710   -5.0980   27.0330 C   0  0  0  0  0  0  0  0  0  0  0  0
    2.9550    1.2440   24.1780 O   0  0  0  0  0  0  0  0  0  0  0  0
    7.1560   -5.3390   28.3890 Cl  0  0  0  0  0  0  0  0  0  0  0  0
  1  2  1  0
  2  3  1  0
  3  4  1  0
  5  4  1  1
  5  6  1  0
  5  7  1  0
  6  7  1  6
  6  8  1  0
  8  9  1  0
  8 10  1  6
  9 11  1  0
 10 12  1  0
  9 13  1  0
 11 14  1  0
 11 15  2  0
 13 16  1  1
 12 17  1  0
 12 18  1  0
 13 18  1  0
 16 19  1  0
 17 20  1  1
 17 21  1  0
 19 22  1  0
 21 23  2  0
 21 24  1  0
 20 25  1  0
 22 26  1  0
 24 27  1  0
 23 28  1  0
 24 29  2  0
 25 30  2  0
 25 31  1  0
 26 32  1  0
 28 33  2  0
 29 33  1  0
 30 34  1  0
 31 35  1  0
 34 35  2  0
 32 36  2  0
 35 37  1  0
M  END
