x1334_1-x1418_1-x0397_0-x0426_1-x1385_1-x0831_0-x0434_2-x1375_1-x1412_1-x1334_0-x0770_1-x0692_1
     RDKit          3D

 44 50  0  0  0  0  0  0  0  0999 V2000
    2.1890   -7.1420   24.1600 O   0  0  0  0  0  0  0  0  0  0  0  0
    3.1730   -7.5900   25.0710 C   0  0  0  0  0  0  0  0  0  0  0  0
    4.4060   -7.5570   24.3830 O   0  0  0  0  0  0  0  0  0  0  0  0
    4.8570   -6.1840   24.3790 C   0  0  0  0  0  0  0  0  0  0  0  0
    5.8440   -5.7520   23.3020 C   0  0  2  0  0  0  0  0  0  0  0  0
    5.5130   -4.6500   22.4420 C   0  0  2  0  0  0  0  0  0  0  0  0
    5.8400   -6.2280   22.0410 C   0  0  0  0  0  0  0  0  0  0  0  0
    6.4140   -3.4360   22.3940 C   0  0  2  0  0  0  0  0  0  0  0  0
    6.3600   -2.6040   21.1350 N   0  0  0  0  0  0  0  0  0  0  0  0
    7.7430   -3.6480   22.8410 C   0  0  0  0  0  0  0  0  0  0  0  0
    6.2710   -3.3050   19.9070 C   0  0  0  0  0  0  0  0  0  0  0  0
    8.5210   -2.3940   23.0660 N   0  0  0  0  0  0  0  0  0  0  0  0
    7.2520   -1.4520   21.3410 C   0  0  2  0  0  0  0  0  0  0  0  0
    7.2890   -2.9760   18.8230 C   0  0  0  0  0  0  0  0  0  0  0  0
    5.4080   -4.1720   19.7480 O   0  0  0  0  0  0  0  0  0  0  0  0
    9.9100   -2.4970   23.3220 C   0  0  2  0  0  0  0  0  0  0  0  0
    7.5650   -0.3850   20.3860 N   0  0  0  0  0  0  0  0  0  0  0  0
    8.6040   -1.8470   21.7600 C   0  0  0  0  0  0  0  0  0  0  0  0
   10.1690   -3.7300   24.0990 C   0  0  0  0  0  0  0  0  0  0  0  0
    7.8210    0.7490   21.2850 C   0  0  0  0  0  0  0  0  0  0  0  0
    6.5250    0.2030   19.5740 C   0  0  0  0  0  0  0  0  0  0  0  0
   10.6410   -1.1410   23.4780 C   0  0  0  0  0  0  0  0  0  0  0  0
    6.3780    0.9110   21.8500 C   0  0  2  0  0  0  0  0  0  0  0  0
    6.2120    0.1450   18.2750 N   0  0  0  0  0  0  0  0  0  0  0  0
    5.7870    0.9530   20.4600 C   0  0  0  0  0  0  0  0  0  0  0  0
   10.1240   -0.0440   24.1830 C   0  0  0  0  0  0  0  0  0  0  0  0
   11.9940   -0.8790   22.8420 C   0  0  0  0  0  0  0  0  0  0  0  0
    9.4940   -4.2790   25.1030 C   0  0  0  0  0  0  0  0  0  0  0  0
    5.9010    2.1750   22.6330 C   0  0  0  0  0  0  0  0  0  0  0  0
   12.6970   -1.9360   22.0430 C   0  0  0  0  0  0  0  0  0  0  0  0
    4.5900    1.7320   20.1440 C   0  0  0  0  0  0  0  0  0  0  0  0
    5.1100    0.8760   17.9260 C   0  0  0  0  0  0  0  0  0  0  0  0
   10.8640    1.1580   24.2310 C   0  0  0  0  0  0  0  0  0  0  0  0
   12.6850    0.3050   22.9220 C   0  0  0  0  0  0  0  0  0  0  0  0
    9.8020   -5.5240   25.5080 C   0  0  0  0  0  0  0  0  0  0  0  0
    8.2000   -3.6940   26.0830 S   0  0  0  0  0  0  0  0  0  0  0  0
    4.3620    2.1670   22.5750 C   0  0  2  0  0  0  0  0  0  0  0  0
    3.8400    2.4960   21.1870 C   0  0  0  0  0  0  0  0  0  0  0  0
    4.2210    1.6790   18.6680 C   0  0  0  0  0  0  0  0  0  0  0  0
   12.1090    1.3290   23.6160 C   0  0  0  0  0  0  0  0  0  0  0  0
    9.0860   -6.0570   26.5660 C   0  0  0  0  0  0  0  0  0  0  0  0
    8.1640   -5.1610   26.9990 C   0  0  0  0  0  0  0  0  0  0  0  0
    3.7920    3.0890   23.5380 N   0  0  0  0  0  0  0  0  0  0  0  0
    7.0750   -5.4130   28.2930 Cl  0  0  0  0  0  0  0  0  0  0  0  0
  1  2  1  0
  2  3  1  0
  3  4  1  0
  5  4  1  1
  5  6  1  0
  5  7  1  0
  6  7  1  6
  6  8  1  0
  8  9  1  0
  8 10  1  6
  9 11  1  0
 10 12  1  0
  9 13  1  0
 11 14  1  0
 11 15  2  0
 12 16  1  0
 13 17  1  6
 12 18  1  0
 13 18  1  0
 16 19  1  1
 17 20  1  0
 17 21  1  0
 16 22  1  0
 23 20  1  6
 21 24  2  0
 21 25  1  0
 23 25  1  0
 22 26  2  0
 22 27  1  0
 19 28  1  0
 23 29  1  0
 27 30  1  0
 25 31  2  0
 24 32  1  0
 26 33  1  0
 27 34  2  0
 28 35  2  0
 28 36  1  0
 29 37  1  0
 31 38  1  0
 37 38  1  0
 31 39  1  0
 32 39  2  0
 33 40  2  0
 34 40  1  0
 35 41  1  0
 36 42  1  0
 41 42  2  0
 37 43  1  1
 42 44  1  0
M  END
