x1334_1-x0426_1-x0692_1-x0831_1-x1374_1-x1386_1-x0831_0-x1375_1-x1334_0-x0434_2-x1385_1-x1418_1-x1412_1-x0770_1-x0397_0
     RDKit          3D

 45 51  0  0  0  0  0  0  0  0999 V2000
    2.4460   -7.0010   23.5110 O   0  0  0  0  0  0  0  0  0  0  0  0
    2.9570   -7.1100   24.8270 C   0  0  0  0  0  0  0  0  0  0  0  0
    4.1360   -7.9020   24.9160 O   0  0  0  0  0  0  0  0  0  0  0  0
    5.2920   -7.3430   24.3060 C   0  0  0  0  0  0  0  0  0  0  0  0
    4.9960   -5.9330   23.9160 C   0  0  0  0  0  0  0  0  0  0  0  0
    6.0240   -5.4360   22.9610 C   0  0  2  0  0  0  0  0  0  0  0  0
    5.8700   -4.4450   22.1240 C   0  0  2  0  0  0  0  0  0  0  0  0
    6.0440   -6.0260   21.6920 C   0  0  0  0  0  0  0  0  0  0  0  0
    7.0210   -3.4660   21.9920 C   0  0  1  0  0  0  0  0  0  0  0  0
    6.7410   -2.5580   20.8780 N   0  0  0  0  0  0  0  0  0  0  0  0
    7.4230   -2.8630   23.1720 C   0  0  0  0  0  0  0  0  0  0  0  0
    6.3680   -3.2960   19.7640 C   0  0  0  0  0  0  0  0  0  0  0  0
    8.5700   -1.9930   22.9360 N   0  0  0  0  0  0  0  0  0  0  0  0
    7.8680   -1.6240   20.7180 C   0  0  1  0  0  0  0  0  0  0  0  0
    7.3110   -3.0770   18.6040 C   0  0  0  0  0  0  0  0  0  0  0  0
    5.4180   -4.0860   19.6780 O   0  0  0  0  0  0  0  0  0  0  0  0
    9.5810   -1.9520   23.8490 C   0  0  1  0  0  0  0  0  0  0  0  0
    7.4840   -0.3010   20.9420 N   0  0  0  0  0  0  0  0  0  0  0  0
    9.0030   -2.0040   21.6600 C   0  0  0  0  0  0  0  0  0  0  0  0
   10.1500   -3.3180   23.9760 C   0  0  0  0  0  0  0  0  0  0  0  0
    7.0670    0.1920   22.3050 C   0  0  0  0  0  0  0  0  0  0  0  0
    6.6390    0.2760   19.9410 C   0  0  0  0  0  0  0  0  0  0  0  0
   10.6080   -0.8050   23.6460 C   0  0  0  0  0  0  0  0  0  0  0  0
    5.6330    0.6850   22.1280 C   0  0  2  0  0  0  0  0  0  0  0  0
    6.6640    0.3790   18.5720 N   0  0  0  0  0  0  0  0  0  0  0  0
    5.5010    0.8850   20.6670 C   0  0  0  0  0  0  0  0  0  0  0  0
   10.2420    0.4710   24.0490 C   0  0  0  0  0  0  0  0  0  0  0  0
   11.9280   -0.9290   23.0660 C   0  0  0  0  0  0  0  0  0  0  0  0
    9.6110   -4.0830   25.1420 C   0  0  0  0  0  0  0  0  0  0  0  0
    5.3250    2.0630   22.7480 C   0  0  0  0  0  0  0  0  0  0  0  0
   12.4960   -2.2180   22.5610 C   0  0  0  0  0  0  0  0  0  0  0  0
    4.4270    1.5880   20.0480 C   0  0  0  0  0  0  0  0  0  0  0  0
    5.6390    1.0670   17.9540 C   0  0  0  0  0  0  0  0  0  0  0  0
   11.0400    1.5750   23.9320 C   0  0  0  0  0  0  0  0  0  0  0  0
   12.7500    0.2130   22.9490 C   0  0  0  0  0  0  0  0  0  0  0  0
   10.1170   -5.2110   25.7320 C   0  0  0  0  0  0  0  0  0  0  0  0
    8.1770   -3.6670   26.0190 S   0  0  0  0  0  0  0  0  0  0  0  0
    3.9270    2.6170   22.3250 C   0  0  1  0  0  0  0  0  0  0  0  0
    3.3850    2.1190   20.9720 C   0  0  0  0  0  0  0  0  0  0  0  0
    4.5310    1.6840   18.5520 C   0  0  0  0  0  0  0  0  0  0  0  0
   12.3230    1.4570   23.3730 C   0  0  0  0  0  0  0  0  0  0  0  0
    9.4640   -5.7170   26.7920 C   0  0  0  0  0  0  0  0  0  0  0  0
    8.3530   -4.9790   27.0980 C   0  0  0  0  0  0  0  0  0  0  0  0
    2.9560    2.3340   23.3820 N   0  0  0  0  0  0  0  0  0  0  0  0
    7.2360   -5.2550   28.3650 Cl  0  0  0  0  0  0  0  0  0  0  0  0
  1  2  1  0
  2  3  1  0
  3  4  1  0
  4  5  1  0
  6  5  1  1
  6  7  1  0
  6  8  1  0
  7  8  1  6
  7  9  1  0
  9 10  1  0
  9 11  1  1
 10 12  1  0
 11 13  1  0
 10 14  1  0
 12 15  1  0
 12 16  2  0
 13 17  1  0
 14 18  1  1
 13 19  1  0
 14 19  1  0
 17 20  1  6
 18 21  1  0
 18 22  1  0
 17 23  1  0
 24 21  1  6
 22 25  2  0
 22 26  1  0
 24 26  1  0
 23 27  2  0
 23 28  1  0
 20 29  1  0
 24 30  1  0
 28 31  1  0
 26 32  2  0
 25 33  1  0
 27 34  1  0
 28 35  2  0
 29 36  2  0
 29 37  1  0
 30 38  1  0
 32 39  1  0
 38 39  1  0
 32 40  1  0
 33 40  2  0
 34 41  2  0
 35 41  1  0
 36 42  1  0
 37 43  1  0
 42 43  2  0
 38 44  1  1
 43 45  1  0
M  END
