x1334_0-x0831_0-x1334_1-x0434_2
     RDKit          3D

 31 34  0  0  0  0  0  0  0  0999 V2000
    6.3350   -3.2880   19.8160 C   0  0  0  0  0  0  0  0  0  0  0  0
    7.2980   -3.0200   18.6780 C   0  0  0  0  0  0  0  0  0  0  0  0
    5.3930   -4.0760   19.6770 O   0  0  0  0  0  0  0  0  0  0  0  0
    6.5680   -2.6580   21.0180 N   0  0  0  0  0  0  0  0  0  0  0  0
    7.6820   -1.6880   21.0140 C   0  0  1  0  0  0  0  0  0  0  0  0
    6.2910   -3.3140   22.2950 C   0  0  0  0  0  0  0  0  0  0  0  0
    7.0330   -0.4050   21.2570 N   0  0  0  0  0  0  0  0  0  0  0  0
    8.8230   -1.9740   22.0050 C   0  0  0  0  0  0  0  0  0  0  0  0
    7.5390   -3.7570   23.0180 C   0  0  0  0  0  0  0  0  0  0  0  0
    8.4030   -2.6950   23.2080 N   0  0  0  0  0  0  0  0  0  0  0  0
    6.4560    0.1700   20.1420 C   0  0  0  0  0  0  0  0  0  0  0  0
    9.2430   -2.7200   24.3880 C   0  0  2  0  0  0  0  0  0  0  0  0
    6.9460    0.0490   18.8330 C   0  0  0  0  0  0  0  0  0  0  0  0
    5.2960    0.9370   20.2760 C   0  0  0  0  0  0  0  0  0  0  0  0
   10.7180   -2.5970   24.0710 C   0  0  0  0  0  0  0  0  0  0  0  0
    9.0440   -3.8670   25.3670 C   0  0  0  0  0  0  0  0  0  0  0  0
    6.3170    0.6780   17.6740 N   0  0  0  0  0  0  0  0  0  0  0  0
    4.6680    1.5490   19.1950 C   0  0  0  0  0  0  0  0  0  0  0  0
    9.8210   -5.1710   25.4620 C   0  0  0  0  0  0  0  0  0  0  0  0
    7.8110   -3.8130   26.5600 S   0  0  0  0  0  0  0  0  0  0  0  0
   11.1820   -1.1940   23.8320 C   0  0  0  0  0  0  0  0  0  0  0  0
    5.2180    1.3860   17.9480 C   0  0  0  0  0  0  0  0  0  0  0  0
    9.3510   -5.9890   26.4800 C   0  0  0  0  0  0  0  0  0  0  0  0
    8.2840   -5.4200   27.1680 C   0  0  0  0  0  0  0  0  0  0  0  0
   10.4270    0.0070   24.4380 C   0  0  0  0  0  0  0  0  0  0  0  0
   12.3040   -0.9260   23.0560 C   0  0  0  0  0  0  0  0  0  0  0  0
    7.3880   -6.0440   28.4760 Cl  0  0  0  0  0  0  0  0  0  0  0  0
   13.1070   -1.9880   22.3960 C   0  0  0  0  0  0  0  0  0  0  0  0
   10.8410    1.3750   24.2320 C   0  0  0  0  0  0  0  0  0  0  0  0
   12.6720    0.3770   22.8950 C   0  0  0  0  0  0  0  0  0  0  0  0
   11.9940    1.5590   23.4470 C   0  0  0  0  0  0  0  0  0  0  0  0
  1  2  1  0
  1  3  2  0
  1  4  1  0
  4  5  1  0
  4  6  1  0
  5  7  1  1
  5  8  1  0
  6  9  1  0
  8 10  1  0
  9 10  1  0
  7 11  1  0
 10 12  1  0
 11 13  2  0
 11 14  1  0
 12 15  1  6
 12 16  1  0
 13 17  1  0
 14 18  2  0
 16 19  2  0
 16 20  1  0
 15 21  1  0
 17 22  2  0
 18 22  1  0
 19 23  1  0
 20 24  1  0
 23 24  2  0
 21 25  2  0
 21 26  1  0
 24 27  1  0
 26 28  1  0
 25 29  1  0
 26 30  2  0
 29 31  2  0
 30 31  1  0
M  END
