x1334_1-x0692_1-x1412_1-x0770_1-x1334_0-x0434_2-x0397_0-x0831_0-x1418_1-x1385_1
     RDKit          3D

 34 38  0  0  0  0  0  0  0  0999 V2000
    6.1950   -3.2590   19.9340 C   0  0  0  0  0  0  0  0  0  0  0  0
    7.2230   -2.9530   18.8500 C   0  0  0  0  0  0  0  0  0  0  0  0
    5.2910   -4.0640   19.6880 O   0  0  0  0  0  0  0  0  0  0  0  0
    6.2730   -2.6930   21.2260 N   0  0  0  0  0  0  0  0  0  0  0  0
    7.0790   -1.4980   21.4990 C   0  0  2  0  0  0  0  0  0  0  0  0
    6.1470   -3.5560   22.4200 C   0  0  2  0  0  0  0  0  0  0  0  0
    7.5050   -0.7770   20.3520 N   0  0  0  0  0  0  0  0  0  0  0  0
    8.3540   -1.8120   22.2810 C   0  0  0  0  0  0  0  0  0  0  0  0
    6.7680   -2.9860   23.7010 C   0  0  0  0  0  0  0  0  0  0  0  0
    6.7110   -4.9450   22.0430 C   0  0  0  0  0  0  0  0  0  0  0  0
    8.1450   -2.4520   23.5800 N   0  0  0  0  0  0  0  0  0  0  0  0
    6.5110   -5.7200   23.2210 C   0  0  0  0  0  0  0  0  0  0  0  0
    5.8860   -6.4060   22.2730 C   0  0  0  0  0  0  0  0  0  0  0  0
    6.5910   -0.0060   19.6930 C   0  0  0  0  0  0  0  0  0  0  0  0
    9.1330   -3.3560   23.5840 C   0  0  1  0  0  0  0  0  0  0  0  0
    6.9280    0.2880   18.4350 C   0  0  0  0  0  0  0  0  0  0  0  0
    5.3900    0.4700   20.2180 C   0  0  0  0  0  0  0  0  0  0  0  0
   10.5070   -2.8830   23.1780 C   0  0  0  0  0  0  0  0  0  0  0  0
    9.0340   -4.2450   24.8180 C   0  0  0  0  0  0  0  0  0  0  0  0
    6.2320    1.0130   17.5810 N   0  0  0  0  0  0  0  0  0  0  0  0
    4.5900    1.2660   19.3370 C   0  0  0  0  0  0  0  0  0  0  0  0
    9.7250   -5.3800   25.1820 C   0  0  0  0  0  0  0  0  0  0  0  0
    7.8570   -3.9080   26.0910 S   0  0  0  0  0  0  0  0  0  0  0  0
   10.8630   -1.4150   23.3550 C   0  0  0  0  0  0  0  0  0  0  0  0
    5.0720    1.5000   18.0330 C   0  0  0  0  0  0  0  0  0  0  0  0
    9.3580   -6.0660   26.4690 C   0  0  0  0  0  0  0  0  0  0  0  0
    8.2220   -5.3450   27.1920 C   0  0  0  0  0  0  0  0  0  0  0  0
   10.0820   -0.3590   24.1350 C   0  0  0  0  0  0  0  0  0  0  0  0
   12.1660   -0.8450   22.7160 C   0  0  0  0  0  0  0  0  0  0  0  0
    7.3880   -5.6620   28.6410 Cl  0  0  0  0  0  0  0  0  0  0  0  0
   13.0490   -1.7470   21.9120 C   0  0  0  0  0  0  0  0  0  0  0  0
   10.4440    1.1430   24.3330 C   0  0  0  0  0  0  0  0  0  0  0  0
   12.5300    0.4770   22.8720 C   0  0  0  0  0  0  0  0  0  0  0  0
   11.7270    1.5460   23.6610 C   0  0  0  0  0  0  0  0  0  0  0  0
  1  2  1  0
  1  3  2  0
  1  4  1  0
  4  5  1  0
  4  6  1  0
  5  7  1  6
  5  8  1  0
  6  9  1  0
  6 10  1  6
  8 11  1  0
  9 11  1  0
 10 12  1  0
 10 13  1  0
 12 13  1  0
  7 14  1  0
 11 15  1  0
 14 16  2  0
 14 17  1  0
 15 18  1  1
 15 19  1  0
 16 20  1  0
 17 21  2  0
 19 22  2  0
 19 23  1  0
 18 24  1  0
 20 25  2  0
 21 25  1  0
 22 26  1  0
 23 27  1  0
 26 27  2  0
 24 28  2  0
 24 29  1  0
 27 30  1  0
 29 31  1  0
 28 32  1  0
 29 33  2  0
 32 34  2  0
 33 34  1  0
M  END
