x1334_1-x0434_2-x0397_0-x0831_0-x1374_1-x0692_1-x1385_1-x1412_1
     RDKit          3D

 32 35  0  0  0  0  0  0  0  0999 V2000
    2.7130   -7.4510   23.3910 O   0  0  0  0  0  0  0  0  0  0  0  0
    3.2720   -7.1240   24.6500 C   0  0  0  0  0  0  0  0  0  0  0  0
    4.4800   -7.8100   24.9060 O   0  0  0  0  0  0  0  0  0  0  0  0
    5.4980   -7.4690   23.9630 C   0  0  0  0  0  0  0  0  0  0  0  0
    6.1270   -6.3100   24.3160 C   0  0  0  0  0  0  0  0  0  0  0  0
    6.4200   -5.6930   23.0010 C   0  0  2  0  0  0  0  0  0  0  0  0
    5.8250   -4.4450   22.5180 C   0  0  2  0  0  0  0  0  0  0  0  0
    5.5120   -5.9700   21.9100 C   0  0  0  0  0  0  0  0  0  0  0  0
    7.0700   -3.6480   22.1680 C   0  0  1  0  0  0  0  0  0  0  0  0
    6.8030   -2.6960   21.0890 N   0  0  0  0  0  0  0  0  0  0  0  0
    7.8820   -3.1350   23.2220 C   0  0  0  0  0  0  0  0  0  0  0  0
    6.4150   -3.3070   19.8710 C   0  0  0  0  0  0  0  0  0  0  0  0
    9.1720   -2.6530   22.7620 N   0  0  0  0  0  0  0  0  0  0  0  0
    7.7320   -1.5270   21.0300 C   0  0  1  0  0  0  0  0  0  0  0  0
    7.3730   -3.0340   18.7330 C   0  0  0  0  0  0  0  0  0  0  0  0
    5.4290   -4.0480   19.7260 O   0  0  0  0  0  0  0  0  0  0  0  0
   10.1030   -2.4140   23.7400 C   0  0  0  0  0  0  0  0  0  0  0  0
    6.8770   -0.3710   21.2290 N   0  0  0  0  0  0  0  0  0  0  0  0
    9.0260   -1.4940   21.8990 C   0  0  0  0  0  0  0  0  0  0  0  0
   10.7260   -1.0440   23.7230 C   0  0  0  0  0  0  0  0  0  0  0  0
    6.2750    0.2700   20.0810 C   0  0  0  0  0  0  0  0  0  0  0  0
   10.2510    0.1370   24.2760 C   0  0  0  0  0  0  0  0  0  0  0  0
   11.9760   -1.0180   23.0200 C   0  0  0  0  0  0  0  0  0  0  0  0
    6.9150    0.0990   18.8570 C   0  0  0  0  0  0  0  0  0  0  0  0
    5.1150    1.0170   20.1950 C   0  0  0  0  0  0  0  0  0  0  0  0
   12.6010   -2.2150   22.3670 C   0  0  0  0  0  0  0  0  0  0  0  0
   10.9500    1.3270   24.1600 C   0  0  0  0  0  0  0  0  0  0  0  0
   12.6550    0.1970   22.9320 C   0  0  0  0  0  0  0  0  0  0  0  0
    6.3710    0.7290   17.6670 N   0  0  0  0  0  0  0  0  0  0  0  0
    4.5770    1.6230   19.0620 C   0  0  0  0  0  0  0  0  0  0  0  0
   12.1570    1.3600   23.4880 C   0  0  0  0  0  0  0  0  0  0  0  0
    5.1500    1.5190   17.8040 C   0  0  0  0  0  0  0  0  0  0  0  0
  1  2  1  0
  2  3  1  0
  3  4  1  0
  4  5  1  0
  6  5  1  1
  6  7  1  0
  6  8  1  0
  7  8  1  6
  7  9  1  0
  9 10  1  0
  9 11  1  1
 10 12  1  0
 11 13  1  0
 10 14  1  0
 12 15  1  0
 12 16  2  0
 13 17  1  0
 14 18  1  1
 13 19  1  0
 14 19  1  0
 17 20  1  0
 18 21  1  0
 20 22  2  0
 20 23  1  0
 21 24  2  0
 21 25  1  0
 23 26  1  0
 22 27  1  0
 23 28  2  0
 24 29  1  0
 25 30  2  0
 27 31  2  0
 28 31  1  0
 29 32  2  0
 30 32  1  0
M  END
