x1334_1-x0831_1-x1385_1-x0397_0-x1374_1-x0831_0-x1412_1-x0692_1-x1386_1-x1418_1-x0770_1-x0426_1-x1334_0-x0434_2-x1375_1
     RDKit          3D

 45 51  0  0  0  0  0  0  0  0999 V2000
    2.4560   -7.5770   23.0860 O   0  0  0  0  0  0  0  0  0  0  0  0
    2.6710   -7.6860   24.4770 C   0  0  0  0  0  0  0  0  0  0  0  0
    4.0150   -8.0540   24.7200 O   0  0  0  0  0  0  0  0  0  0  0  0
    4.8760   -6.9530   24.9630 C   0  0  0  0  0  0  0  0  0  0  0  0
    4.6690   -6.0550   23.9600 C   0  0  0  0  0  0  0  0  0  0  0  0
    5.8950   -5.6810   23.1750 C   0  0  2  0  0  0  0  0  0  0  0  0
    5.8710   -4.5230   22.2520 C   0  0  2  0  0  0  0  0  0  0  0  0
    6.0310   -6.0940   21.7970 C   0  0  0  0  0  0  0  0  0  0  0  0
    7.0650   -3.5500   22.0770 C   0  0  1  0  0  0  0  0  0  0  0  0
    6.8030   -2.6190   20.9730 N   0  0  0  0  0  0  0  0  0  0  0  0
    7.6150   -2.9940   23.1970 C   0  0  0  0  0  0  0  0  0  0  0  0
    6.4570   -3.2490   19.7850 C   0  0  0  0  0  0  0  0  0  0  0  0
    8.7660   -2.1340   22.8690 N   0  0  0  0  0  0  0  0  0  0  0  0
    7.8980   -1.6920   20.7300 C   0  0  1  0  0  0  0  0  0  0  0  0
    7.3910   -3.0460   18.6120 C   0  0  0  0  0  0  0  0  0  0  0  0
    5.4760   -4.0060   19.6570 O   0  0  0  0  0  0  0  0  0  0  0  0
   10.0070   -2.2570   23.6200 C   0  0  2  0  0  0  0  0  0  0  0  0
    7.6000   -0.2930   20.9080 N   0  0  0  0  0  0  0  0  0  0  0  0
    9.0290   -2.0330   21.4460 C   0  0  0  0  0  0  0  0  0  0  0  0
    9.6160   -2.3120   25.0210 C   0  0  0  0  0  0  0  0  0  0  0  0
    7.2410    0.3060   22.2090 C   0  0  0  0  0  0  0  0  0  0  0  0
    6.6460    0.2690   19.9480 C   0  0  0  0  0  0  0  0  0  0  0  0
   10.8270   -1.0580   23.5240 C   0  0  0  0  0  0  0  0  0  0  0  0
    5.7170    0.3200   22.1100 C   0  0  2  0  0  0  0  0  0  0  0  0
    6.7400    0.4660   18.4590 N   0  0  0  0  0  0  0  0  0  0  0  0
    5.5360    0.6490   20.6380 C   0  0  0  0  0  0  0  0  0  0  0  0
   10.3010    0.0330   24.1380 C   0  0  0  0  0  0  0  0  0  0  0  0
   12.0890   -0.9530   22.8620 C   0  0  0  0  0  0  0  0  0  0  0  0
    9.3890   -3.6270   25.6720 C   0  0  0  0  0  0  0  0  0  0  0  0
    5.0130    1.3720   23.0030 C   0  0  0  0  0  0  0  0  0  0  0  0
   12.7520   -2.0810   22.1510 C   0  0  0  0  0  0  0  0  0  0  0  0
    4.3940    1.2580   20.1040 C   0  0  0  0  0  0  0  0  0  0  0  0
    5.6500    1.0570   17.9340 C   0  0  0  0  0  0  0  0  0  0  0  0
   10.9590    1.2570   24.1360 C   0  0  0  0  0  0  0  0  0  0  0  0
   12.7550    0.2570   22.8630 C   0  0  0  0  0  0  0  0  0  0  0  0
    9.9940   -4.8470   25.5780 C   0  0  0  0  0  0  0  0  0  0  0  0
    8.1150   -3.6600   26.8220 S   0  0  0  0  0  0  0  0  0  0  0  0
    3.5590    1.6600   22.5410 C   0  0  2  0  0  0  0  0  0  0  0  0
    3.2530    1.6180   21.0250 C   0  0  0  0  0  0  0  0  0  0  0  0
    4.3990    1.4930   18.7510 C   0  0  0  0  0  0  0  0  0  0  0  0
   12.1910    1.3360   23.4880 C   0  0  0  0  0  0  0  0  0  0  0  0
    9.3750   -5.8230   26.5650 C   0  0  0  0  0  0  0  0  0  0  0  0
    8.3460   -5.2290   27.3040 C   0  0  0  0  0  0  0  0  0  0  0  0
    3.0840    2.9030   23.0900 N   0  0  0  0  0  0  0  0  0  0  0  0
    7.2950   -5.7150   28.5650 Cl  0  0  0  0  0  0  0  0  0  0  0  0
  1  2  1  0
  2  3  1  0
  3  4  1  0
  4  5  1  0
  6  5  1  6
  6  7  1  0
  6  8  1  0
  7  8  1  6
  7  9  1  0
  9 10  1  0
  9 11  1  1
 10 12  1  0
 11 13  1  0
 10 14  1  0
 12 15  1  0
 12 16  2  0
 13 17  1  0
 14 18  1  1
 13 19  1  0
 14 19  1  0
 17 20  1  1
 18 21  1  0
 18 22  1  0
 17 23  1  0
 24 21  1  1
 22 25  2  0
 22 26  1  0
 24 26  1  0
 23 27  2  0
 23 28  1  0
 20 29  1  0
 24 30  1  0
 28 31  1  0
 26 32  2  0
 25 33  1  0
 27 34  1  0
 28 35  2  0
 29 36  2  0
 29 37  1  0
 30 38  1  0
 32 39  1  0
 38 39  1  0
 32 40  1  0
 33 40  2  0
 34 41  2  0
 35 41  1  0
 36 42  1  0
 37 43  1  0
 42 43  2  0
 38 44  1  6
 43 45  1  0
M  END
