x1334_0-x0691_0
     RDKit          3D

 18 19  0  0  0  0  0  0  0  0999 V2000
    6.5320   -4.3440   20.6480 C   0  0  0  0  0  0  0  0  0  0  0  0
    7.9530   -3.7720   20.4520 C   0  0  0  0  0  0  0  0  0  0  0  0
    5.5990   -4.2720   19.8400 O   0  0  0  0  0  0  0  0  0  0  0  0
    6.3280   -4.9780   21.8700 N   0  0  0  0  0  0  0  0  0  0  0  0
    5.6360   -6.2550   22.0200 C   0  0  0  0  0  0  0  0  0  0  0  0
    7.1380   -4.6340   23.0430 C   0  0  1  0  0  0  0  0  0  0  0  0
    7.5980   -3.1760   22.9950 C   0  0  0  0  0  0  0  0  0  0  0  0
    4.6580   -6.1750   23.0120 C   0  0  0  0  0  0  0  0  0  0  0  0
    6.4780   -5.0250   24.2070 C   0  0  0  0  0  0  0  0  0  0  0  0
    9.1170   -3.0520   22.8950 C   0  0  0  0  0  0  0  0  0  0  0  0
    5.0320   -5.1950   24.0680 N   0  0  0  0  0  0  0  0  0  0  0  0
    9.8470   -2.9320   24.2310 C   0  0  0  0  0  0  0  0  0  0  0  0
    9.4280   -3.9980   25.1940 C   0  0  0  0  0  0  0  0  0  0  0  0
    9.8660   -5.2600   25.3360 C   0  0  0  0  0  0  0  0  0  0  0  0
    8.2040   -3.7220   26.3810 S   0  0  0  0  0  0  0  0  0  0  0  0
    9.2990   -6.0060   26.3400 C   0  0  0  0  0  0  0  0  0  0  0  0
    8.3460   -5.2970   27.0300 C   0  0  0  0  0  0  0  0  0  0  0  0
    7.4150   -5.8800   28.3460 Cl  0  0  0  0  0  0  0  0  0  0  0  0
  1  2  1  0
  1  3  2  0
  1  4  1  0
  4  5  1  0
  4  6  1  0
  6  7  1  1
  5  8  1  0
  6  9  1  0
  7 10  1  0
  8 11  1  0
  9 11  1  0
 10 12  1  0
 12 13  1  0
 13 14  2  0
 13 15  1  0
 14 16  1  0
 15 17  1  0
 16 17  2  0
 17 18  1  0
M  END
