x1334_0-x0981_1-x1418_1-x1418_0
     RDKit          3D

 34 36  0  0  0  0  0  0  0  0999 V2000
    4.1480   -5.2510   23.1520 C   0  0  0  0  0  0  0  0  0  0  0  0
    2.8220   -5.9550   23.5500 C   0  0  1  0  0  0  0  0  0  0  0  0
    2.5850   -7.1830   22.7640 N   0  0  0  0  0  0  0  0  0  0  0  0
    4.2950   -4.0050   23.5280 N   0  0  0  0  0  0  0  0  0  0  0  0
    2.7970   -6.2320   25.0510 C   0  0  0  0  0  0  0  0  0  0  0  0
    5.5010   -3.2000   23.1960 C   0  0  0  0  0  0  0  0  0  0  0  0
    1.3650   -7.4040   22.1590 C   0  0  0  0  0  0  0  0  0  0  0  0
    3.1850   -7.6570   25.2570 C   0  0  0  0  0  0  0  0  0  0  0  0
    6.4240   -3.5730   22.2160 C   0  0  2  0  0  0  0  0  0  0  0  0
    1.2350   -8.7040   21.4040 C   0  0  0  0  0  0  0  0  0  0  0  0
    0.4500   -6.5890   22.2080 O   0  0  0  0  0  0  0  0  0  0  0  0
    2.5370   -8.3260   26.2600 N   0  0  0  0  0  0  0  0  0  0  0  0
    4.0340   -8.1760   24.5710 O   0  0  0  0  0  0  0  0  0  0  0  0
    7.6870   -3.6230   22.7920 C   0  0  0  0  0  0  0  0  0  0  0  0
    6.4320   -2.6030   21.0890 N   0  0  0  0  0  0  0  0  0  0  0  0
    6.2520   -3.2120   19.8340 C   0  0  0  0  0  0  0  0  0  0  0  0
    8.3080   -2.3670   23.1940 N   0  0  0  0  0  0  0  0  0  0  0  0
    7.2780   -1.4090   21.2450 C   0  0  0  0  0  0  0  0  0  0  0  0
    7.3210   -2.9840   18.7730 C   0  0  0  0  0  0  0  0  0  0  0  0
    5.2960   -3.9480   19.5980 O   0  0  0  0  0  0  0  0  0  0  0  0
    9.5570   -2.6700   23.8750 C   0  0  2  0  0  0  0  0  0  0  0  0
    8.5380   -1.6230   22.0810 C   0  0  0  0  0  0  0  0  0  0  0  0
   10.1950   -3.4560   23.0150 C   0  0  0  0  0  0  0  0  0  0  0  0
    9.2790   -3.6800   24.9970 C   0  0  0  0  0  0  0  0  0  0  0  0
   10.5940   -1.6320   23.8370 C   0  0  0  0  0  0  0  0  0  0  0  0
    9.9630   -5.0320   25.1430 C   0  0  0  0  0  0  0  0  0  0  0  0
    8.1170   -3.5070   26.2600 S   0  0  0  0  0  0  0  0  0  0  0  0
   11.7620   -1.5960   23.0360 C   0  0  0  0  0  0  0  0  0  0  0  0
   10.5720   -0.2020   24.7690 S   0  0  0  0  0  0  0  0  0  0  0  0
    9.3880   -5.7380   26.3440 C   0  0  0  0  0  0  0  0  0  0  0  0
    8.4080   -5.0370   27.0090 C   0  0  0  0  0  0  0  0  0  0  0  0
   12.5510   -0.4870   23.1800 C   0  0  0  0  0  0  0  0  0  0  0  0
   12.0390    0.3940   24.0950 C   0  0  0  0  0  0  0  0  0  0  0  0
    7.5350   -5.5340   28.3900 Cl  0  0  0  0  0  0  0  0  0  0  0  0
  2  1  1  6
  2  3  1  0
  1  4  2  3
  2  5  1  0
  4  6  1  0
  3  7  1  0
  5  8  1  0
  9  6  1  1
  7 10  1  0
  7 11  2  0
  8 12  1  0
  8 13  2  0
  9 14  1  0
  9 15  1  0
 15 16  1  0
 14 17  1  0
 15 18  1  0
 16 19  1  0
 16 20  2  0
 17 21  1  0
 17 22  1  0
 18 22  1  0
 21 23  1  6
 21 24  1  0
 21 25  1  0
 24 26  2  0
 24 27  1  0
 25 28  2  0
 25 29  1  0
 26 30  1  0
 27 31  1  0
 30 31  2  0
 28 32  1  0
 29 33  1  0
 32 33  2  0
 31 34  1  0
M  END
