x1334_0-x1334_1-x0397_0-x0831_0-x1385_1-x1418_1-x1374_1-x1412_1-x1386_1
     RDKit          3D

 32 35  0  0  0  0  0  0  0  0999 V2000
    1.9490   -7.1740   23.6250 O   0  0  0  0  0  0  0  0  0  0  0  0
    2.3530   -7.5640   24.9270 C   0  0  0  0  0  0  0  0  0  0  0  0
    3.7310   -7.8710   24.9570 O   0  0  0  0  0  0  0  0  0  0  0  0
    4.4410   -7.2880   23.8860 C   0  0  0  0  0  0  0  0  0  0  0  0
    4.7910   -5.8600   24.1310 C   0  0  0  0  0  0  0  0  0  0  0  0
    5.9310   -5.5670   23.2150 C   0  0  2  0  0  0  0  0  0  0  0  0
    5.7690   -4.6500   22.2440 C   0  0  2  0  0  0  0  0  0  0  0  0
    6.0650   -6.1260   21.8390 C   0  0  0  0  0  0  0  0  0  0  0  0
    6.7730   -3.5690   22.1400 C   0  0  1  0  0  0  0  0  0  0  0  0
    6.4350   -2.6430   21.0740 N   0  0  0  0  0  0  0  0  0  0  0  0
    6.9750   -2.8930   23.5560 C   0  0  0  0  0  0  0  0  0  0  0  0
    6.2440   -3.2550   19.8460 C   0  0  0  0  0  0  0  0  0  0  0  0
    8.1450   -2.0430   23.5070 N   0  0  0  0  0  0  0  0  0  0  0  0
    7.2900   -1.4380   21.1840 C   0  0  0  0  0  0  0  0  0  0  0  0
    7.2510   -2.9730   18.7600 C   0  0  0  0  0  0  0  0  0  0  0  0
    5.3110   -4.0490   19.6550 O   0  0  0  0  0  0  0  0  0  0  0  0
    9.2060   -2.5600   24.1690 C   0  0  2  0  0  0  0  0  0  0  0  0
    8.5050   -1.7340   22.0880 C   0  0  0  0  0  0  0  0  0  0  0  0
   10.3720   -2.5940   23.2320 C   0  0  0  0  0  0  0  0  0  0  0  0
    9.0490   -3.7690   25.1160 C   0  0  0  0  0  0  0  0  0  0  0  0
    9.7550   -4.9500   25.1260 C   0  0  0  0  0  0  0  0  0  0  0  0
    7.8320   -3.7570   26.4390 S   0  0  0  0  0  0  0  0  0  0  0  0
   10.9770   -1.2090   23.3080 C   0  0  0  0  0  0  0  0  0  0  0  0
    9.3450   -5.8980   26.2060 C   0  0  0  0  0  0  0  0  0  0  0  0
    8.2260   -5.3230   27.0500 C   0  0  0  0  0  0  0  0  0  0  0  0
   10.2750   -0.0080   24.0850 C   0  0  0  0  0  0  0  0  0  0  0  0
   12.3300   -0.8090   22.6790 C   0  0  0  0  0  0  0  0  0  0  0  0
    7.3940   -5.9690   28.3940 Cl  0  0  0  0  0  0  0  0  0  0  0  0
   13.0370   -1.8850   21.9190 C   0  0  0  0  0  0  0  0  0  0  0  0
   10.9720    1.2190   24.0850 C   0  0  0  0  0  0  0  0  0  0  0  0
   12.8970    0.4860   22.7910 C   0  0  0  0  0  0  0  0  0  0  0  0
   12.1470    1.3590   23.4820 C   0  0  0  0  0  0  0  0  0  0  0  0
  1  2  1  0
  2  3  1  0
  3  4  1  0
  4  5  1  0
  6  5  1  6
  6  7  1  0
  6  8  1  0
  7  8  1  6
  7  9  1  0
  9 10  1  0
  9 11  1  1
 10 12  1  0
 11 13  1  0
 10 14  1  0
 12 15  1  0
 12 16  2  0
 13 17  1  0
 13 18  1  0
 14 18  1  0
 17 19  1  6
 17 20  1  0
 20 21  2  0
 20 22  1  0
 19 23  1  0
 21 24  1  0
 22 25  1  0
 24 25  2  0
 23 26  2  0
 23 27  1  0
 25 28  1  0
 27 29  1  0
 26 30  1  0
 27 31  2  0
 30 32  2  0
 31 32  1  0
M  END
