x1334_1-x0770_1-x0397_0-x1412_1-x1334_0-x0831_0-x0831_1-x0434_2
     RDKit          3D

 34 38  0  0  0  0  0  0  0  0999 V2000
    6.3620   -3.3260   19.8610 C   0  0  0  0  0  0  0  0  0  0  0  0
    7.3210   -2.9940   18.7280 C   0  0  0  0  0  0  0  0  0  0  0  0
    5.3700   -4.0310   19.6510 O   0  0  0  0  0  0  0  0  0  0  0  0
    6.6950   -2.8630   21.1370 N   0  0  0  0  0  0  0  0  0  0  0  0
    7.7070   -1.7970   21.2190 C   0  0  1  0  0  0  0  0  0  0  0  0
    6.9410   -3.9520   21.9500 C   0  0  1  0  0  0  0  0  0  0  0  0
    6.9890   -0.5180   21.3420 N   0  0  0  0  0  0  0  0  0  0  0  0
    8.8290   -2.0090   22.2830 C   0  0  0  0  0  0  0  0  0  0  0  0
    7.6440   -3.7360   23.2740 C   0  0  0  0  0  0  0  0  0  0  0  0
    5.7370   -4.7910   22.1990 C   0  0  0  0  0  0  0  0  0  0  0  0
    8.2280   -2.4280   23.4630 N   0  0  0  0  0  0  0  0  0  0  0  0
    5.6250   -5.7810   23.3370 C   0  0  0  0  0  0  0  0  0  0  0  0
    5.8250   -6.2740   21.9370 C   0  0  0  0  0  0  0  0  0  0  0  0
    6.4400    0.0670   20.1890 C   0  0  0  0  0  0  0  0  0  0  0  0
    9.2960   -2.6250   24.4470 C   0  0  2  0  0  0  0  0  0  0  0  0
    6.9560    0.0020   18.8590 C   0  0  0  0  0  0  0  0  0  0  0  0
    5.2580    0.8020   20.3160 C   0  0  0  0  0  0  0  0  0  0  0  0
   10.6400   -2.5360   23.7030 C   0  0  0  0  0  0  0  0  0  0  0  0
    9.0620   -3.8130   25.3810 C   0  0  0  0  0  0  0  0  0  0  0  0
    6.3980    0.5910   17.7820 N   0  0  0  0  0  0  0  0  0  0  0  0
    4.6620    1.4150   19.2090 C   0  0  0  0  0  0  0  0  0  0  0  0
    9.7750   -5.0210   25.4250 C   0  0  0  0  0  0  0  0  0  0  0  0
    7.8280   -3.8380   26.5830 S   0  0  0  0  0  0  0  0  0  0  0  0
   11.1850   -1.1120   23.6050 C   0  0  0  0  0  0  0  0  0  0  0  0
    5.2670    1.2830   17.9800 C   0  0  0  0  0  0  0  0  0  0  0  0
    9.3110   -5.8720   26.3950 C   0  0  0  0  0  0  0  0  0  0  0  0
    8.2480   -5.3920   27.1360 C   0  0  0  0  0  0  0  0  0  0  0  0
   10.4070    0.0070   24.2740 C   0  0  0  0  0  0  0  0  0  0  0  0
   12.3550   -0.8460   22.9230 C   0  0  0  0  0  0  0  0  0  0  0  0
    7.3640   -6.0800   28.4190 Cl  0  0  0  0  0  0  0  0  0  0  0  0
   13.1240   -1.9250   22.2420 C   0  0  0  0  0  0  0  0  0  0  0  0
   10.8650    1.2650   24.1970 C   0  0  0  0  0  0  0  0  0  0  0  0
   12.8530    0.5510   22.8630 C   0  0  0  0  0  0  0  0  0  0  0  0
   12.1710    1.5930   23.4540 C   0  0  0  0  0  0  0  0  0  0  0  0
  1  2  1  0
  1  3  2  0
  1  4  1  0
  4  5  1  0
  4  6  1  0
  5  7  1  1
  5  8  1  0
  6  9  1  0
  6 10  1  1
  8 11  1  0
  9 11  1  0
 10 12  1  0
 10 13  1  0
 12 13  1  0
  7 14  1  0
 11 15  1  0
 14 16  2  0
 14 17  1  0
 15 18  1  6
 15 19  1  0
 16 20  1  0
 17 21  2  0
 19 22  2  0
 19 23  1  0
 18 24  1  0
 20 25  2  0
 21 25  1  0
 22 26  1  0
 23 27  1  0
 26 27  2  0
 24 28  2  0
 24 29  1  0
 27 30  1  0
 29 31  1  0
 28 32  1  0
 29 33  2  0
 32 34  2  0
 33 34  1  0
M  END
