x1334_1-x0434_2-x0426_1-x1334_0-x0770_1-x1385_1-x0692_1-x0831_0-x1412_1-x0397_0-x1418_1
     RDKit          3D

 40 46  0  0  0  0  0  0  0  0999 V2000
    6.3860   -3.2980   19.8080 C   0  0  0  0  0  0  0  0  0  0  0  0
    7.3130   -3.0540   18.6400 C   0  0  0  0  0  0  0  0  0  0  0  0
    5.4570   -4.1190   19.7200 O   0  0  0  0  0  0  0  0  0  0  0  0
    6.6640   -2.5770   20.9500 N   0  0  0  0  0  0  0  0  0  0  0  0
    7.8820   -1.7130   20.9840 C   0  0  1  0  0  0  0  0  0  0  0  0
    6.3700   -3.3540   22.1640 C   0  0  2  0  0  0  0  0  0  0  0  0
    7.6760   -0.2510   20.9380 N   0  0  0  0  0  0  0  0  0  0  0  0
    9.0700   -2.2430   21.8740 C   0  0  0  0  0  0  0  0  0  0  0  0
    7.5940   -3.8060   23.0030 C   0  0  0  0  0  0  0  0  0  0  0  0
    6.6860   -4.8330   22.2030 C   0  0  0  0  0  0  0  0  0  0  0  0
    7.3040    0.3900   22.1990 C   0  0  0  0  0  0  0  0  0  0  0  0
    8.6170   -2.7660   23.1660 N   0  0  0  0  0  0  0  0  0  0  0  0
    6.1110   -5.4800   23.1740 C   0  0  0  0  0  0  0  0  0  0  0  0
    5.6510   -6.1090   22.0950 C   0  0  0  0  0  0  0  0  0  0  0  0
    6.7110    0.2830   19.9950 C   0  0  0  0  0  0  0  0  0  0  0  0
    5.7760    0.3890   22.2040 C   0  0  2  0  0  0  0  0  0  0  0  0
    9.6710   -3.1600   24.0840 C   0  0  1  0  0  0  0  0  0  0  0  0
    6.7740    0.4480   18.4860 N   0  0  0  0  0  0  0  0  0  0  0  0
    5.6350    0.6810   20.6880 C   0  0  0  0  0  0  0  0  0  0  0  0
    4.9980    1.3980   23.0530 C   0  0  0  0  0  0  0  0  0  0  0  0
   10.2870   -2.0070   24.8180 C   0  0  0  0  0  0  0  0  0  0  0  0
    4.5380    1.2840   20.1110 C   0  0  0  0  0  0  0  0  0  0  0  0
    5.6280    1.0680   17.9580 C   0  0  0  0  0  0  0  0  0  0  0  0
    9.2220   -4.1290   25.1910 C   0  0  0  0  0  0  0  0  0  0  0  0
    3.9890    2.3050   22.3470 C   0  0  1  0  0  0  0  0  0  0  0  0
    3.4270    1.6950   21.0070 C   0  0  0  0  0  0  0  0  0  0  0  0
    4.5020    1.5170   18.6220 C   0  0  0  0  0  0  0  0  0  0  0  0
    9.8500   -5.2950   25.3070 C   0  0  0  0  0  0  0  0  0  0  0  0
    7.9690   -3.8790   26.3580 S   0  0  0  0  0  0  0  0  0  0  0  0
   11.0950   -0.9040   24.1450 C   0  0  0  0  0  0  0  0  0  0  0  0
    2.8810    2.6460   23.2420 N   0  0  0  0  0  0  0  0  0  0  0  0
    9.3270   -6.1010   26.4140 C   0  0  0  0  0  0  0  0  0  0  0  0
    8.2210   -5.3820   27.1120 C   0  0  0  0  0  0  0  0  0  0  0  0
   10.4010    0.3770   24.5600 C   0  0  0  0  0  0  0  0  0  0  0  0
   12.2340   -0.9470   23.3280 C   0  0  0  0  0  0  0  0  0  0  0  0
    7.2780   -5.8710   28.4480 Cl  0  0  0  0  0  0  0  0  0  0  0  0
   12.9350   -2.1980   22.8910 C   0  0  0  0  0  0  0  0  0  0  0  0
   11.0990    1.6220   23.9930 C   0  0  0  0  0  0  0  0  0  0  0  0
   12.7800    0.3600   22.8750 C   0  0  0  0  0  0  0  0  0  0  0  0
   12.2460    1.5940   23.1880 C   0  0  0  0  0  0  0  0  0  0  0  0
  1  2  1  0
  1  3  2  0
  1  4  1  0
  4  5  1  0
  4  6  1  0
  5  7  1  1
  5  8  1  0
  6  9  1  0
  6 10  1  6
  7 11  1  0
  8 12  1  0
  9 12  1  0
 10 13  1  0
 10 14  1  0
 13 14  1  0
  7 15  1  0
 16 11  1  1
 12 17  1  0
 15 18  2  0
 15 19  1  0
 16 19  1  0
 16 20  1  0
 17 21  1  1
 19 22  2  0
 18 23  1  0
 17 24  1  0
 20 25  1  0
 22 26  1  0
 25 26  1  0
 22 27  1  0
 23 27  2  0
 24 28  2  0
 24 29  1  0
 21 30  1  0
 25 31  1  1
 28 32  1  0
 29 33  1  0
 32 33  2  0
 30 34  2  0
 30 35  1  0
 33 36  1  0
 35 37  1  0
 34 38  1  0
 35 39  2  0
 38 40  2  0
 39 40  1  0
M  END
