x1334_1-x1385_1-x1386_1-x0434_2-x0397_0-x0831_1-x0770_1-x0831_0-x1412_1-x1334_0-x0692_1
     RDKit          3D

 34 38  0  0  0  0  0  0  0  0999 V2000
    6.4560   -3.3160   19.8850 C   0  0  0  0  0  0  0  0  0  0  0  0
    7.3620   -3.0270   18.7050 C   0  0  0  0  0  0  0  0  0  0  0  0
    5.4540   -4.0440   19.7030 O   0  0  0  0  0  0  0  0  0  0  0  0
    6.8780   -2.7780   21.1050 N   0  0  0  0  0  0  0  0  0  0  0  0
    7.7540   -1.6420   20.8780 C   0  0  1  0  0  0  0  0  0  0  0  0
    7.0180   -3.6850   22.1240 C   0  0  1  0  0  0  0  0  0  0  0  0
    7.0190   -0.4430   21.1600 N   0  0  0  0  0  0  0  0  0  0  0  0
    8.8810   -1.7250   21.8790 C   0  0  0  0  0  0  0  0  0  0  0  0
    7.5510   -3.0820   23.4490 C   0  0  0  0  0  0  0  0  0  0  0  0
    5.8400   -4.5770   22.4820 C   0  0  0  0  0  0  0  0  0  0  0  0
    8.4250   -1.8820   23.2980 N   0  0  0  0  0  0  0  0  0  0  0  0
    6.0350   -5.7580   23.2790 C   0  0  0  0  0  0  0  0  0  0  0  0
    5.8150   -6.1910   21.8960 C   0  0  0  0  0  0  0  0  0  0  0  0
    6.3740    0.1900   20.1090 C   0  0  0  0  0  0  0  0  0  0  0  0
    9.6530   -1.8380   24.0960 C   0  0  1  0  0  0  0  0  0  0  0  0
    6.8980    0.1050   18.8820 C   0  0  0  0  0  0  0  0  0  0  0  0
    5.1970    0.9170   20.2630 C   0  0  0  0  0  0  0  0  0  0  0  0
   10.1490   -3.2180   24.0800 C   0  0  0  0  0  0  0  0  0  0  0  0
   10.6620   -0.7170   23.7610 C   0  0  0  0  0  0  0  0  0  0  0  0
    6.3760    0.7030   17.6960 N   0  0  0  0  0  0  0  0  0  0  0  0
    4.6510    1.5070   19.1660 C   0  0  0  0  0  0  0  0  0  0  0  0
   10.1000    0.6380   24.2920 C   0  0  0  0  0  0  0  0  0  0  0  0
   11.8380   -0.9820   23.0960 C   0  0  0  0  0  0  0  0  0  0  0  0
    9.5710   -4.1220   25.1220 C   0  0  0  0  0  0  0  0  0  0  0  0
    5.2030    1.4300   17.8760 C   0  0  0  0  0  0  0  0  0  0  0  0
   12.3290   -2.3020   22.5950 C   0  0  0  0  0  0  0  0  0  0  0  0
   10.9660    1.8970   24.0490 C   0  0  0  0  0  0  0  0  0  0  0  0
   12.5970    0.0850   22.8870 C   0  0  0  0  0  0  0  0  0  0  0  0
    9.9300   -5.5390   25.4200 C   0  0  0  0  0  0  0  0  0  0  0  0
    8.3100   -3.7250   26.2640 S   0  0  0  0  0  0  0  0  0  0  0  0
   12.2800    1.5700   23.3080 C   0  0  0  0  0  0  0  0  0  0  0  0
    9.1800   -6.1150   26.5110 C   0  0  0  0  0  0  0  0  0  0  0  0
    8.2720   -5.2520   27.0640 C   0  0  0  0  0  0  0  0  0  0  0  0
    7.2050   -5.5590   28.3630 Cl  0  0  0  0  0  0  0  0  0  0  0  0
  1  2  1  0
  1  3  2  0
  1  4  1  0
  4  5  1  0
  4  6  1  0
  5  7  1  1
  5  8  1  0
  6  9  1  0
  6 10  1  1
  8 11  1  0
  9 11  1  0
 10 12  1  0
 10 13  1  0
 12 13  1  0
  7 14  1  0
 11 15  1  0
 14 16  2  0
 14 17  1  0
 15 18  1  6
 15 19  1  0
 16 20  1  0
 17 21  2  0
 19 22  2  0
 19 23  1  0
 18 24  1  0
 20 25  2  0
 21 25  1  0
 23 26  1  0
 22 27  1  0
 23 28  2  0
 24 29  2  0
 24 30  1  0
 27 31  2  0
 28 31  1  0
 29 32  1  0
 30 33  1  0
 32 33  2  0
 33 34  1  0
M  END
