x1334_0-x0981_1-x1334_1
     RDKit          3D

 28 29  0  0  0  0  0  0  0  0999 V2000
    4.1480   -5.3390   23.2550 C   0  0  0  0  0  0  0  0  0  0  0  0
    2.7790   -5.9770   23.5350 C   0  0  1  0  0  0  0  0  0  0  0  0
    2.5640   -7.1900   22.7260 N   0  0  0  0  0  0  0  0  0  0  0  0
    4.3120   -4.1120   23.6700 N   0  0  0  0  0  0  0  0  0  0  0  0
    2.6720   -6.2790   25.0360 C   0  0  0  0  0  0  0  0  0  0  0  0
    5.5610   -3.3400   23.4840 C   0  0  0  0  0  0  0  0  0  0  0  0
    1.3520   -7.4370   22.1250 C   0  0  0  0  0  0  0  0  0  0  0  0
    3.1050   -7.7000   25.2900 C   0  0  0  0  0  0  0  0  0  0  0  0
    6.4710   -3.8610   22.3490 C   0  0  1  0  0  0  0  0  0  0  0  0
    1.2420   -8.7190   21.3310 C   0  0  0  0  0  0  0  0  0  0  0  0
    0.4120   -6.6490   22.1960 O   0  0  0  0  0  0  0  0  0  0  0  0
    2.4620   -8.3610   26.2940 N   0  0  0  0  0  0  0  0  0  0  0  0
    3.9800   -8.2060   24.6260 O   0  0  0  0  0  0  0  0  0  0  0  0
    6.6070   -2.9140   21.1960 N   0  0  0  0  0  0  0  0  0  0  0  0
    7.7180   -4.0980   22.9190 C   0  0  0  0  0  0  0  0  0  0  0  0
    6.3740   -3.3430   19.9020 C   0  0  0  0  0  0  0  0  0  0  0  0
    8.4710   -2.8650   23.1620 N   0  0  0  0  0  0  0  0  0  0  0  0
    7.4700   -1.7270   21.3960 C   0  0  0  0  0  0  0  0  0  0  0  0
    7.3750   -3.0170   18.8050 C   0  0  0  0  0  0  0  0  0  0  0  0
    5.3750   -4.0370   19.6730 O   0  0  0  0  0  0  0  0  0  0  0  0
    9.4510   -2.9480   24.1620 C   0  0  0  0  0  0  0  0  0  0  0  0
    8.7030   -2.0730   21.9600 C   0  0  0  0  0  0  0  0  0  0  0  0
    9.2070   -3.9830   25.1540 C   0  0  0  0  0  0  0  0  0  0  0  0
    9.8600   -5.3640   25.3610 C   0  0  0  0  0  0  0  0  0  0  0  0
    8.0120   -3.7530   26.3560 S   0  0  0  0  0  0  0  0  0  0  0  0
    9.2960   -5.9970   26.4460 C   0  0  0  0  0  0  0  0  0  0  0  0
    8.3010   -5.2750   27.0830 C   0  0  0  0  0  0  0  0  0  0  0  0
    7.3770   -5.7420   28.4510 Cl  0  0  0  0  0  0  0  0  0  0  0  0
  2  1  1  1
  2  3  1  0
  1  4  2  3
  2  5  1  0
  4  6  1  0
  3  7  1  0
  5  8  1  0
  9  6  1  1
  7 10  1  0
  7 11  2  0
  8 12  1  0
  8 13  2  0
  9 14  1  0
  9 15  1  0
 14 16  1  0
 15 17  1  0
 14 18  1  0
 16 19  1  0
 16 20  2  0
 17 21  1  0
 17 22  1  0
 18 22  1  0
 21 23  1  0
 23 24  2  0
 23 25  1  0
 24 26  1  0
 25 27  1  0
 26 27  2  0
 27 28  1  0
M  END
