x1336_1-x0981_1-x0874_0-x0395_1-x0731_0
     RDKit          3D

 40 42  0  0  0  0  0  0  0  0999 V2000
    3.3170   -6.1030   23.3290 C   0  0  1  0  0  0  0  0  0  0  0  0
    2.9150   -7.1980   22.7490 N   0  0  0  0  0  0  0  0  0  0  0  0
    1.5450   -7.4080   22.2160 C   0  0  0  0  0  0  0  0  0  0  0  0
    2.8270   -6.2640   24.7640 C   0  0  0  0  0  0  0  0  0  0  0  0
    4.9240   -5.9470   23.4120 C   0  0  2  0  0  0  0  0  0  0  0  0
    3.1360   -7.6420   25.2780 C   0  0  0  0  0  0  0  0  0  0  0  0
    5.1960   -4.4890   23.4270 N   0  0  0  0  0  0  0  0  0  0  0  0
    5.6650   -6.4480   22.3380 C   0  0  0  0  0  0  0  0  0  0  0  0
    4.4520   -4.0500   24.5930 O   0  0  0  0  0  0  0  0  0  0  0  0
    1.2480   -8.6950   21.4480 C   0  0  0  0  0  0  0  0  0  0  0  0
    0.5320   -6.4230   22.3750 O   0  0  0  0  0  0  0  0  0  0  0  0
    2.5230   -8.1620   26.3880 N   0  0  0  0  0  0  0  0  0  0  0  0
    3.9580   -8.2760   24.6580 O   0  0  0  0  0  0  0  0  0  0  0  0
    6.5990   -4.1960   23.7540 C   0  0  0  0  0  0  0  0  0  0  0  0
    6.6330   -5.4620   21.8140 N   0  0  0  0  0  0  0  0  0  0  0  0
    4.2530   -2.6390   24.6340 C   0  0  0  0  0  0  0  0  0  0  0  0
    6.2120   -4.8610   20.6130 C   0  0  0  0  0  0  0  0  0  0  0  0
    7.4420   -4.7680   22.8360 C   0  0  0  0  0  0  0  0  0  0  0  0
    5.0080   -2.1480   25.6880 C   0  0  0  0  0  0  0  0  0  0  0  0
    5.2800   -5.2910   19.9770 O   0  0  0  0  0  0  0  0  0  0  0  0
    6.9340   -3.6300   20.0530 C   0  0  0  0  0  0  0  0  0  0  0  0
    6.0890   -1.3090   25.1900 N   0  0  0  0  0  0  0  0  0  0  0  0
    7.5660   -1.7500   25.5070 S   0  0  2  0  0  0  0  0  0  0  0  0
    8.4330   -1.5560   24.2190 N   0  0  0  0  0  0  0  0  0  0  0  0
    7.8320   -3.2920   26.3840 C   0  0  0  0  0  0  0  0  0  0  0  0
    9.7350   -0.9150   24.4600 C   0  0  0  0  0  0  0  0  0  0  0  0
    6.9040   -3.6820   27.3600 C   0  0  0  0  0  0  0  0  0  0  0  0
    8.9580   -4.1240   26.1310 C   0  0  0  0  0  0  0  0  0  0  0  0
    9.9820   -3.7420   25.1060 C   0  0  0  0  0  0  0  0  0  0  0  0
    6.9730   -4.8250   28.1180 C   0  0  0  0  0  0  0  0  0  0  0  0
    9.1860   -5.3990   26.8600 C   0  0  0  0  0  0  0  0  0  0  0  0
   10.3000   -0.4190   23.1860 N   0  0  0  0  0  0  0  0  0  0  0  0
    5.9370   -5.2260   29.1830 C   0  0  0  0  0  0  0  0  0  0  0  0
    8.1630   -5.7780   27.8980 C   0  0  0  0  0  0  0  0  0  0  0  0
   10.7040    0.8700   23.1200 C   0  0  0  0  0  0  0  0  0  0  0  0
   11.1190   -1.4060   22.4450 C   0  0  0  0  0  0  0  0  0  0  0  0
   12.6300   -1.1670   22.6560 C   0  0  1  0  0  0  0  0  0  0  0  0
   12.0380    1.1760   23.0390 C   0  0  0  0  0  0  0  0  0  0  0  0
   13.2840   -1.4340   21.4890 F   0  0  0  0  0  0  0  0  0  0  0  0
   12.9990    0.1520   23.0240 C   0  0  0  0  0  0  0  0  0  0  0  0
  1  2  1  0
  2  3  1  0
  1  4  1  1
  1  5  1  0
  4  6  1  0
  5  7  1  0
  5  8  1  6
  7  9  1  0
  3 10  1  0
  3 11  2  0
  6 12  1  0
  6 13  2  0
  7 14  1  0
  8 15  1  0
  9 16  1  0
 15 17  1  0
 14 18  1  0
 15 18  1  0
 16 19  1  0
 17 20  2  0
 17 21  1  0
 19 22  1  0
 22 23  2  0
 23 24  2  0
 23 25  1  6
 24 26  1  0
 25 27  2  0
 25 28  1  0
 28 29  1  0
 27 30  1  0
 28 31  2  0
 26 32  1  0
 30 33  1  0
 30 34  2  0
 31 34  1  0
 32 35  1  0
 32 36  1  0
 36 37  1  0
 35 38  2  0
 37 39  1  6
 37 40  1  0
 38 40  1  0
M  END
