x1334_1-x1385_1-x0434_2-x1412_1-x1334_0-x0831_0-x0397_0-x0770_1-x1374_1-x0692_1
     RDKit          3D

 39 43  0  0  0  0  0  0  0  0999 V2000
    2.0040   -7.1830   23.5960 O   0  0  0  0  0  0  0  0  0  0  0  0
    2.4010   -7.5480   24.9050 C   0  0  0  0  0  0  0  0  0  0  0  0
    3.7800   -7.8760   24.9140 O   0  0  0  0  0  0  0  0  0  0  0  0
    4.4500   -7.2280   23.8550 C   0  0  0  0  0  0  0  0  0  0  0  0
    4.7980   -5.9670   24.2380 C   0  0  0  0  0  0  0  0  0  0  0  0
    5.9640   -5.6540   23.3600 C   0  0  2  0  0  0  0  0  0  0  0  0
    5.8150   -4.6200   22.3400 C   0  0  2  0  0  0  0  0  0  0  0  0
    6.0430   -6.2350   22.0150 C   0  0  0  0  0  0  0  0  0  0  0  0
    6.9240   -3.6140   22.1280 C   0  0  1  0  0  0  0  0  0  0  0  0
    6.6600   -2.6670   21.0690 N   0  0  0  0  0  0  0  0  0  0  0  0
    7.2710   -2.9080   23.3980 C   0  0  0  0  0  0  0  0  0  0  0  0
    6.3720   -3.2640   19.8430 C   0  0  0  0  0  0  0  0  0  0  0  0
    8.6050   -2.3350   23.3660 N   0  0  0  0  0  0  0  0  0  0  0  0
    7.7290   -1.6400   21.0590 C   0  0  1  0  0  0  0  0  0  0  0  0
    7.3190   -2.9900   18.6850 C   0  0  0  0  0  0  0  0  0  0  0  0
    5.4160   -4.0400   19.6920 O   0  0  0  0  0  0  0  0  0  0  0  0
    9.5950   -3.1070   23.9090 C   0  0  1  0  0  0  0  0  0  0  0  0
    7.0520   -0.3920   21.3680 N   0  0  0  0  0  0  0  0  0  0  0  0
    8.9360   -1.9080   21.9900 C   0  0  0  0  0  0  0  0  0  0  0  0
   10.9220   -2.5060   24.2680 C   0  0  0  0  0  0  0  0  0  0  0  0
    9.1340   -4.0140   25.0580 C   0  0  0  0  0  0  0  0  0  0  0  0
    6.2960    0.2560   20.2860 C   0  0  0  0  0  0  0  0  0  0  0  0
    9.7910   -5.3500   25.3010 C   0  0  0  0  0  0  0  0  0  0  0  0
    7.8580   -3.7350   26.2800 S   0  0  0  0  0  0  0  0  0  0  0  0
   11.2960   -1.0880   23.8630 C   0  0  0  0  0  0  0  0  0  0  0  0
    6.9280    0.0830   18.8620 C   0  0  0  0  0  0  0  0  0  0  0  0
    5.0000    1.0700   20.3260 C   0  0  0  0  0  0  0  0  0  0  0  0
    9.2150   -6.1400   26.5310 C   0  0  0  0  0  0  0  0  0  0  0  0
    8.0970   -5.3050   27.1720 C   0  0  0  0  0  0  0  0  0  0  0  0
   10.4280    0.0070   24.4790 C   0  0  0  0  0  0  0  0  0  0  0  0
   12.3480   -0.8440   23.0130 C   0  0  0  0  0  0  0  0  0  0  0  0
    6.3940    0.6160   17.7550 N   0  0  0  0  0  0  0  0  0  0  0  0
    4.5640    1.5580   19.0740 C   0  0  0  0  0  0  0  0  0  0  0  0
    7.1430   -5.7050   28.5310 Cl  0  0  0  0  0  0  0  0  0  0  0  0
   13.2350   -1.8360   22.3380 C   0  0  0  0  0  0  0  0  0  0  0  0
   10.4100    1.5560   24.3980 C   0  0  0  0  0  0  0  0  0  0  0  0
   12.4890    0.4860   22.8560 C   0  0  0  0  0  0  0  0  0  0  0  0
    5.2560    1.3200   17.8930 C   0  0  0  0  0  0  0  0  0  0  0  0
   11.6000    1.5850   23.4900 C   0  0  0  0  0  0  0  0  0  0  0  0
  1  2  1  0
  2  3  1  0
  3  4  1  0
  4  5  1  0
  6  5  1  1
  6  7  1  0
  6  8  1  0
  7  8  1  6
  7  9  1  0
  9 10  1  0
  9 11  1  1
 10 12  1  0
 11 13  1  0
 10 14  1  0
 12 15  1  0
 12 16  2  0
 13 17  1  0
 14 18  1  1
 13 19  1  0
 14 19  1  0
 17 20  1  1
 17 21  1  0
 18 22  1  0
 21 23  2  0
 21 24  1  0
 20 25  1  0
 22 26  2  0
 22 27  1  0
 23 28  1  0
 24 29  1  0
 28 29  2  0
 25 30  2  0
 25 31  1  0
 26 32  1  0
 27 33  2  0
 29 34  1  0
 31 35  1  0
 30 36  1  0
 31 37  2  0
 32 38  2  0
 33 38  1  0
 36 39  2  0
 37 39  1  0
M  END
