x1334_1-x1385_1-x1334_0-x0434_2-x1412_1-x1418_1-x0831_0-x0692_1-x0397_0-x0770_1-x0426_1
     RDKit          3D

 40 46  0  0  0  0  0  0  0  0999 V2000
    6.3640   -3.2950   19.8150 C   0  0  0  0  0  0  0  0  0  0  0  0
    7.3230   -3.0400   18.6570 C   0  0  0  0  0  0  0  0  0  0  0  0
    5.4580   -4.1350   19.6990 O   0  0  0  0  0  0  0  0  0  0  0  0
    6.5850   -2.5570   20.9890 N   0  0  0  0  0  0  0  0  0  0  0  0
    7.8570   -1.7720   20.9210 C   0  0  1  0  0  0  0  0  0  0  0  0
    6.0840   -3.2580   22.1510 C   0  0  2  0  0  0  0  0  0  0  0  0
    7.6660   -0.3370   20.9760 N   0  0  0  0  0  0  0  0  0  0  0  0
    8.8950   -2.1040   22.0680 C   0  0  0  0  0  0  0  0  0  0  0  0
    7.0110   -3.1980   23.3330 C   0  0  0  0  0  0  0  0  0  0  0  0
    6.6450   -4.6130   22.5530 C   0  0  0  0  0  0  0  0  0  0  0  0
    7.1900    0.2070   22.2420 C   0  0  0  0  0  0  0  0  0  0  0  0
    8.4620   -3.0730   23.0870 N   0  0  0  0  0  0  0  0  0  0  0  0
    5.6030   -5.4520   23.1520 C   0  0  0  0  0  0  0  0  0  0  0  0
    6.0770   -6.0330   21.9050 C   0  0  0  0  0  0  0  0  0  0  0  0
    6.6970    0.2160   20.0120 C   0  0  0  0  0  0  0  0  0  0  0  0
    5.6810    0.4830   22.0890 C   0  0  2  0  0  0  0  0  0  0  0  0
    9.2220   -2.8930   24.3160 C   0  0  2  0  0  0  0  0  0  0  0  0
    6.6960    0.3700   18.5080 N   0  0  0  0  0  0  0  0  0  0  0  0
    5.6060    0.6770   20.6790 C   0  0  0  0  0  0  0  0  0  0  0  0
    5.2340    1.7440   22.8220 C   0  0  0  0  0  0  0  0  0  0  0  0
   10.6950   -2.7340   23.9790 C   0  0  0  0  0  0  0  0  0  0  0  0
    4.4610    1.3140   20.0460 C   0  0  0  0  0  0  0  0  0  0  0  0
    5.5890    0.9950   17.8900 C   0  0  0  0  0  0  0  0  0  0  0  0
    8.9890   -3.9970   25.3360 C   0  0  0  0  0  0  0  0  0  0  0  0
    3.9050    2.3700   22.2800 C   0  0  1  0  0  0  0  0  0  0  0  0
    3.3580    1.7690   20.9170 C   0  0  0  0  0  0  0  0  0  0  0  0
    4.5520    1.4260   18.6770 C   0  0  0  0  0  0  0  0  0  0  0  0
    9.7210   -5.1130   25.3740 C   0  0  0  0  0  0  0  0  0  0  0  0
    7.7650   -3.9220   26.5480 S   0  0  0  0  0  0  0  0  0  0  0  0
   11.1720   -1.2780   23.7690 C   0  0  0  0  0  0  0  0  0  0  0  0
    2.8820    2.3110   23.3310 N   0  0  0  0  0  0  0  0  0  0  0  0
    9.2440   -5.9750   26.4820 C   0  0  0  0  0  0  0  0  0  0  0  0
    8.2240   -5.4340   27.1500 C   0  0  0  0  0  0  0  0  0  0  0  0
   10.3220   -0.2180   24.5060 C   0  0  0  0  0  0  0  0  0  0  0  0
   12.3600   -0.8710   22.9240 C   0  0  0  0  0  0  0  0  0  0  0  0
    7.3550   -6.0470   28.4820 Cl  0  0  0  0  0  0  0  0  0  0  0  0
   13.2320   -1.7890   22.1510 C   0  0  0  0  0  0  0  0  0  0  0  0
   10.8060    1.2190   24.2930 C   0  0  0  0  0  0  0  0  0  0  0  0
   12.6510    0.6110   22.8870 C   0  0  0  0  0  0  0  0  0  0  0  0
   11.9290    1.5970   23.5190 C   0  0  0  0  0  0  0  0  0  0  0  0
  1  2  1  0
  1  3  2  0
  1  4  1  0
  4  5  1  0
  4  6  1  0
  5  7  1  1
  5  8  1  0
  6  9  1  0
  6 10  1  6
  7 11  1  0
  8 12  1  0
  9 12  1  0
 10 13  1  0
 10 14  1  0
 13 14  1  0
  7 15  1  0
 16 11  1  6
 12 17  1  0
 15 18  2  0
 15 19  1  0
 16 19  1  0
 16 20  1  0
 17 21  1  6
 19 22  2  0
 18 23  1  0
 17 24  1  0
 20 25  1  0
 22 26  1  0
 25 26  1  0
 22 27  1  0
 23 27  2  0
 24 28  2  0
 24 29  1  0
 21 30  1  0
 25 31  1  1
 28 32  1  0
 29 33  1  0
 32 33  2  0
 30 34  2  0
 30 35  1  0
 33 36  1  0
 35 37  1  0
 34 38  1  0
 35 39  2  0
 38 40  2  0
 39 40  1  0
M  END
