x1334_1-x1386_1-x0434_2-x0426_1-x0397_0-x1412_1-x0831_0-x1374_1-x0692_1-x1334_0-x1418_1-x0770_1-x0831_1-x1385_1
     RDKit          3D

 45 51  0  0  0  0  0  0  0  0999 V2000
    2.1080   -6.7070   24.3570 O   0  0  0  0  0  0  0  0  0  0  0  0
    3.0310   -7.4810   23.6240 C   0  0  0  0  0  0  0  0  0  0  0  0
    4.1200   -7.8740   24.4570 O   0  0  0  0  0  0  0  0  0  0  0  0
    5.3530   -7.2290   24.1390 C   0  0  0  0  0  0  0  0  0  0  0  0
    5.0850   -5.8810   23.9590 C   0  0  0  0  0  0  0  0  0  0  0  0
    6.0800   -5.3030   22.9870 C   0  0  2  0  0  0  0  0  0  0  0  0
    5.6930   -4.2900   22.2430 C   0  0  2  0  0  0  0  0  0  0  0  0
    6.1840   -5.7950   21.7860 C   0  0  0  0  0  0  0  0  0  0  0  0
    6.5310   -3.0270   22.2070 C   0  0  2  0  0  0  0  0  0  0  0  0
    6.6830   -2.4830   20.8540 N   0  0  0  0  0  0  0  0  0  0  0  0
    7.7190   -3.3070   22.8630 C   0  0  0  0  0  0  0  0  0  0  0  0
    6.3770   -3.3210   19.7880 C   0  0  0  0  0  0  0  0  0  0  0  0
    8.5230   -2.0570   22.9060 N   0  0  0  0  0  0  0  0  0  0  0  0
    7.8410   -1.6120   20.6420 C   0  0  1  0  0  0  0  0  0  0  0  0
    7.3200   -3.0890   18.6200 C   0  0  0  0  0  0  0  0  0  0  0  0
    5.4770   -4.1730   19.7540 O   0  0  0  0  0  0  0  0  0  0  0  0
    9.5960   -1.9780   23.8520 C   0  0  1  0  0  0  0  0  0  0  0  0
    7.6280   -0.2020   20.6930 N   0  0  0  0  0  0  0  0  0  0  0  0
    9.0160   -1.8370   21.5660 C   0  0  0  0  0  0  0  0  0  0  0  0
   10.1430   -3.3220   24.0340 C   0  0  0  0  0  0  0  0  0  0  0  0
    7.3160    0.4470   21.9950 C   0  0  0  0  0  0  0  0  0  0  0  0
    6.7180    0.3390   19.7720 C   0  0  0  0  0  0  0  0  0  0  0  0
   10.5740   -0.8180   23.6620 C   0  0  0  0  0  0  0  0  0  0  0  0
    5.7860    0.6160   22.0100 C   0  0  2  0  0  0  0  0  0  0  0  0
    6.5220    0.5660   18.3020 N   0  0  0  0  0  0  0  0  0  0  0  0
    5.5490    0.8660   20.5530 C   0  0  0  0  0  0  0  0  0  0  0  0
   10.1560    0.5710   24.0930 C   0  0  0  0  0  0  0  0  0  0  0  0
   12.0000   -0.9490   23.0420 C   0  0  0  0  0  0  0  0  0  0  0  0
    9.5860   -4.0560   25.2050 C   0  0  0  0  0  0  0  0  0  0  0  0
    5.1110    1.7060   22.8330 C   0  0  0  0  0  0  0  0  0  0  0  0
   12.6080   -2.2180   22.5390 C   0  0  0  0  0  0  0  0  0  0  0  0
    4.3570    1.5300   20.0570 C   0  0  0  0  0  0  0  0  0  0  0  0
    5.4270    1.1860   17.8800 C   0  0  0  0  0  0  0  0  0  0  0  0
   10.9920    1.6370   23.9460 C   0  0  0  0  0  0  0  0  0  0  0  0
   12.7580    0.2340   22.9520 C   0  0  0  0  0  0  0  0  0  0  0  0
   10.2400   -5.2200   25.9050 C   0  0  0  0  0  0  0  0  0  0  0  0
    7.9680   -3.6550   26.0240 S   0  0  0  0  0  0  0  0  0  0  0  0
    3.6210    1.7270   22.5020 C   0  0  2  0  0  0  0  0  0  0  0  0
    3.2870    1.9950   21.0140 C   0  0  0  0  0  0  0  0  0  0  0  0
    4.3990    1.6460   18.7010 C   0  0  0  0  0  0  0  0  0  0  0  0
   12.2560    1.4670   23.3920 C   0  0  0  0  0  0  0  0  0  0  0  0
    9.3970   -5.6700   27.0390 C   0  0  0  0  0  0  0  0  0  0  0  0
    8.1590   -4.9460   27.2370 C   0  0  0  0  0  0  0  0  0  0  0  0
    2.9740    2.6880   23.3590 N   0  0  0  0  0  0  0  0  0  0  0  0
    6.9940   -5.2340   28.4510 Cl  0  0  0  0  0  0  0  0  0  0  0  0
  1  2  1  0
  2  3  1  0
  3  4  1  0
  4  5  1  0
  6  5  1  1
  6  7  1  0
  6  8  1  0
  7  8  1  6
  7  9  1  0
  9 10  1  0
  9 11  1  6
 10 12  1  0
 11 13  1  0
 10 14  1  0
 12 15  1  0
 12 16  2  0
 13 17  1  0
 14 18  1  1
 13 19  1  0
 14 19  1  0
 17 20  1  6
 18 21  1  0
 18 22  1  0
 17 23  1  0
 24 21  1  6
 22 25  2  0
 22 26  1  0
 24 26  1  0
 23 27  2  0
 23 28  1  0
 20 29  1  0
 24 30  1  0
 28 31  1  0
 26 32  2  0
 25 33  1  0
 27 34  1  0
 28 35  2  0
 29 36  2  0
 29 37  1  0
 30 38  1  0
 32 39  1  0
 38 39  1  0
 32 40  1  0
 33 40  2  0
 34 41  2  0
 35 41  1  0
 36 42  1  0
 37 43  1  0
 42 43  2  0
 38 44  1  1
 43 45  1  0
M  END
