x1334_0-x1334_1-x0692_1-x1385_1-x0397_0-x0831_0-x1374_1-x0831_1-x1412_1-x0770_1
     RDKit          3D

 32 35  0  0  0  0  0  0  0  0999 V2000
    2.0570   -6.9870   23.8650 O   0  0  0  0  0  0  0  0  0  0  0  0
    2.4590   -7.8810   24.8830 C   0  0  0  0  0  0  0  0  0  0  0  0
    3.8700   -7.9440   24.9390 O   0  0  0  0  0  0  0  0  0  0  0  0
    4.4490   -7.2540   23.8450 C   0  0  0  0  0  0  0  0  0  0  0  0
    4.8280   -5.9890   24.1980 C   0  0  0  0  0  0  0  0  0  0  0  0
    5.9770   -5.6450   23.2940 C   0  0  2  0  0  0  0  0  0  0  0  0
    5.8390   -4.6440   22.2660 C   0  0  2  0  0  0  0  0  0  0  0  0
    6.1340   -6.2710   22.0940 C   0  0  0  0  0  0  0  0  0  0  0  0
    6.9070   -3.5830   22.2050 C   0  0  1  0  0  0  0  0  0  0  0  0
    6.6120   -2.6640   21.1120 N   0  0  0  0  0  0  0  0  0  0  0  0
    7.0270   -2.9430   23.4110 C   0  0  0  0  0  0  0  0  0  0  0  0
    6.3540   -3.2560   19.8550 C   0  0  0  0  0  0  0  0  0  0  0  0
    8.2620   -2.1320   23.4570 N   0  0  0  0  0  0  0  0  0  0  0  0
    7.6330   -1.5940   21.0620 C   0  0  0  0  0  0  0  0  0  0  0  0
    7.3040   -2.9640   18.7120 C   0  0  0  0  0  0  0  0  0  0  0  0
    5.4020   -4.0370   19.6920 O   0  0  0  0  0  0  0  0  0  0  0  0
    9.2590   -2.5180   24.4700 C   0  0  2  0  0  0  0  0  0  0  0  0
    8.7980   -1.9250   22.0610 C   0  0  0  0  0  0  0  0  0  0  0  0
   10.6520   -2.6320   23.8460 C   0  0  0  0  0  0  0  0  0  0  0  0
    9.1210   -3.7760   25.3190 C   0  0  0  0  0  0  0  0  0  0  0  0
    9.8300   -4.9910   25.3760 C   0  0  0  0  0  0  0  0  0  0  0  0
    7.8420   -3.7620   26.4970 S   0  0  0  0  0  0  0  0  0  0  0  0
   11.1400   -1.2120   23.7150 C   0  0  0  0  0  0  0  0  0  0  0  0
    9.4060   -5.9010   26.3150 C   0  0  0  0  0  0  0  0  0  0  0  0
    8.2150   -5.3790   27.1260 C   0  0  0  0  0  0  0  0  0  0  0  0
   10.3790   -0.0830   24.3600 C   0  0  0  0  0  0  0  0  0  0  0  0
   12.3480   -0.8820   22.9700 C   0  0  0  0  0  0  0  0  0  0  0  0
    7.2990   -6.0540   28.3990 Cl  0  0  0  0  0  0  0  0  0  0  0  0
   13.1100   -1.9770   22.3060 C   0  0  0  0  0  0  0  0  0  0  0  0
   10.9220    1.3080   24.1850 C   0  0  0  0  0  0  0  0  0  0  0  0
   12.8520    0.3550   22.8180 C   0  0  0  0  0  0  0  0  0  0  0  0
   12.2210    1.5350   23.3810 C   0  0  0  0  0  0  0  0  0  0  0  0
  1  2  1  0
  2  3  1  0
  3  4  1  0
  4  5  1  0
  6  5  1  6
  6  7  1  0
  6  8  1  0
  7  8  1  6
  7  9  1  0
  9 10  1  0
  9 11  1  1
 10 12  1  0
 11 13  1  0
 10 14  1  0
 12 15  1  0
 12 16  2  0
 13 17  1  0
 13 18  1  0
 14 18  1  0
 17 19  1  6
 17 20  1  0
 20 21  2  0
 20 22  1  0
 19 23  1  0
 21 24  1  0
 22 25  1  0
 24 25  2  0
 23 26  2  0
 23 27  1  0
 25 28  1  0
 27 29  1  0
 26 30  1  0
 27 31  2  0
 30 32  2  0
 31 32  1  0
M  END
