x1334_0-x1412_1-x0692_1-x0434_2-x1334_1-x0831_0-x1375_1
     RDKit          3D

 39 43  0  0  0  0  0  0  0  0999 V2000
    6.4230   -3.2010   19.8400 C   0  0  0  0  0  0  0  0  0  0  0  0
    7.4430   -2.9400   18.7400 C   0  0  0  0  0  0  0  0  0  0  0  0
    5.3960   -3.8360   19.5610 O   0  0  0  0  0  0  0  0  0  0  0  0
    6.6990   -2.8010   21.1840 N   0  0  0  0  0  0  0  0  0  0  0  0
    7.4660   -1.5950   21.5970 C   0  0  2  0  0  0  0  0  0  0  0  0
    6.5280   -3.7200   22.2890 C   0  0  1  0  0  0  0  0  0  0  0  0
    5.5950   -4.8210   21.8540 C   0  0  0  0  0  0  0  0  0  0  0  0
    7.7440   -0.7770   20.4560 N   0  0  0  0  0  0  0  0  0  0  0  0
    8.7800   -1.9800   22.2640 C   0  0  0  0  0  0  0  0  0  0  0  0
    7.8560   -4.1110   22.8650 C   0  0  0  0  0  0  0  0  0  0  0  0
    8.5930   -2.9460   23.3190 N   0  0  0  0  0  0  0  0  0  0  0  0
    4.5430   -4.9810   22.8750 C   0  0  2  0  0  0  0  0  0  0  0  0
    6.8000   -0.0600   19.7550 C   0  0  0  0  0  0  0  0  0  0  0  0
    9.6440   -3.1510   24.1210 C   0  0  1  0  0  0  0  0  0  0  0  0
    4.6410   -4.4830   24.2140 C   0  0  0  0  0  0  0  0  0  0  0  0
    4.4310   -6.4160   23.0380 C   0  0  0  0  0  0  0  0  0  0  0  0
    7.0020    0.2290   18.4600 C   0  0  0  0  0  0  0  0  0  0  0  0
    5.6150    0.4030   20.3270 C   0  0  0  0  0  0  0  0  0  0  0  0
   10.2100   -1.9210   24.8410 C   0  0  0  0  0  0  0  0  0  0  0  0
    9.2330   -4.1440   25.1960 C   0  0  0  0  0  0  0  0  0  0  0  0
    4.1100   -5.3830   25.3270 C   0  0  0  0  0  0  0  0  0  0  0  0
    3.5150   -6.8500   24.4980 S   0  0  0  0  0  0  0  0  0  0  0  0
    6.2100    0.9160   17.6340 N   0  0  0  0  0  0  0  0  0  0  0  0
    4.6350    1.2070   19.4580 C   0  0  0  0  0  0  0  0  0  0  0  0
    1.9670   -6.8700   24.1500 O   0  0  0  0  0  0  0  0  0  0  0  0
    4.0740   -8.1890   25.0760 O   0  0  0  0  0  0  0  0  0  0  0  0
    9.8370   -5.5380   25.3390 C   0  0  0  0  0  0  0  0  0  0  0  0
    8.0500   -3.8680   26.4080 S   0  0  0  0  0  0  0  0  0  0  0  0
   10.9840   -0.8040   24.1840 C   0  0  0  0  0  0  0  0  0  0  0  0
    5.0600    1.3920   18.1300 C   0  0  0  0  0  0  0  0  0  0  0  0
    9.1730   -6.1760   26.5190 C   0  0  0  0  0  0  0  0  0  0  0  0
    8.2500   -5.4510   27.1550 C   0  0  0  0  0  0  0  0  0  0  0  0
   10.3900    0.6650   24.4820 C   0  0  0  0  0  0  0  0  0  0  0  0
   12.2870   -0.8600   23.2690 C   0  0  0  0  0  0  0  0  0  0  0  0
    7.3070   -5.8710   28.5140 Cl  0  0  0  0  0  0  0  0  0  0  0  0
   12.9890   -2.1260   22.8530 C   0  0  0  0  0  0  0  0  0  0  0  0
   11.1280    1.8600   23.8870 C   0  0  0  0  0  0  0  0  0  0  0  0
   12.8370    0.3480   22.8120 C   0  0  0  0  0  0  0  0  0  0  0  0
   12.3560    1.6510   23.0610 C   0  0  0  0  0  0  0  0  0  0  0  0
  1  2  1  0
  1  3  2  0
  1  4  1  0
  4  5  1  0
  4  6  1  0
  6  7  1  6
  5  8  1  6
  5  9  1  0
  6 10  1  0
  9 11  1  0
 10 11  1  0
 12  7  1  6
  8 13  1  0
 11 14  1  0
 12 15  1  0
 12 16  1  0
 13 17  2  0
 13 18  1  0
 14 19  1  1
 14 20  1  0
 15 21  2  0
 16 22  1  0
 21 22  1  0
 17 23  1  0
 18 24  2  0
 22 25  1  0
 22 26  1  0
 20 27  2  0
 20 28  1  0
 19 29  1  0
 23 30  2  0
 24 30  1  0
 27 31  1  0
 28 32  1  0
 31 32  2  0
 29 33  2  0
 29 34  1  0
 32 35  1  0
 34 36  1  0
 33 37  1  0
 34 38  2  0
 37 39  2  0
 38 39  1  0
M  END
