x1334_1-x1418_1-x0692_1-x1412_1-x1386_1-x0434_2-x0770_1-x0831_1-x0831_0-x1374_1-x1334_0-x0397_0-x0426_1
     RDKit          3D

 45 51  0  0  0  0  0  0  0  0999 V2000
    2.4910   -7.5840   23.1400 O   0  0  0  0  0  0  0  0  0  0  0  0
    2.6460   -7.7630   24.5320 C   0  0  0  0  0  0  0  0  0  0  0  0
    3.9760   -8.1160   24.8620 O   0  0  0  0  0  0  0  0  0  0  0  0
    4.9190   -7.0550   24.7810 C   0  0  0  0  0  0  0  0  0  0  0  0
    4.5770   -6.0870   23.6480 C   0  0  0  0  0  0  0  0  0  0  0  0
    5.7880   -5.4630   23.0460 C   0  0  2  0  0  0  0  0  0  0  0  0
    5.5500   -4.2740   22.1340 C   0  0  2  0  0  0  0  0  0  0  0  0
    6.1760   -5.7530   21.6330 C   0  0  0  0  0  0  0  0  0  0  0  0
    6.3800   -2.9930   22.2200 C   0  0  2  0  0  0  0  0  0  0  0  0
    6.5800   -2.4660   20.8530 N   0  0  0  0  0  0  0  0  0  0  0  0
    7.7380   -3.2810   22.8740 C   0  0  0  0  0  0  0  0  0  0  0  0
    6.3390   -3.2930   19.7960 C   0  0  0  0  0  0  0  0  0  0  0  0
    8.6200   -2.1010   22.8280 N   0  0  0  0  0  0  0  0  0  0  0  0
    7.7340   -1.5940   20.5940 C   0  0  1  0  0  0  0  0  0  0  0  0
    7.3040   -3.1100   18.6390 C   0  0  0  0  0  0  0  0  0  0  0  0
    5.4510   -4.1620   19.7220 O   0  0  0  0  0  0  0  0  0  0  0  0
    9.8220   -2.2980   23.3270 C   0  0  2  0  0  0  0  0  0  0  0  0
    7.4540   -0.2000   20.7550 N   0  0  0  0  0  0  0  0  0  0  0  0
    8.9640   -1.8300   21.4620 C   0  0  0  0  0  0  0  0  0  0  0  0
   10.0910   -3.6450   23.8860 C   0  0  0  0  0  0  0  0  0  0  0  0
    7.1870    0.4140   22.0470 C   0  0  0  0  0  0  0  0  0  0  0  0
    6.5690    0.3900   19.8170 C   0  0  0  0  0  0  0  0  0  0  0  0
   10.6620   -0.9920   23.4290 C   0  0  0  0  0  0  0  0  0  0  0  0
    5.6640    0.5410   22.0480 C   0  0  2  0  0  0  0  0  0  0  0  0
    6.5690    0.5830   18.4450 N   0  0  0  0  0  0  0  0  0  0  0  0
    5.4860    0.8490   20.5800 C   0  0  0  0  0  0  0  0  0  0  0  0
   10.0730    0.2130   24.1830 C   0  0  0  0  0  0  0  0  0  0  0  0
   11.9510   -0.8550   22.8240 C   0  0  0  0  0  0  0  0  0  0  0  0
    9.4840   -4.2490   25.0960 C   0  0  0  0  0  0  0  0  0  0  0  0
    4.9880    1.6410   22.8670 C   0  0  0  0  0  0  0  0  0  0  0  0
   12.6180   -1.9640   22.0580 C   0  0  0  0  0  0  0  0  0  0  0  0
    4.3010    1.5560   20.0960 C   0  0  0  0  0  0  0  0  0  0  0  0
    5.5020    1.2500   17.9140 C   0  0  0  0  0  0  0  0  0  0  0  0
   10.9290    1.4230   24.1800 C   0  0  0  0  0  0  0  0  0  0  0  0
   12.7400    0.2350   22.8290 C   0  0  0  0  0  0  0  0  0  0  0  0
    9.9470   -5.3760   25.7060 C   0  0  0  0  0  0  0  0  0  0  0  0
    8.0990   -3.6940   26.0040 S   0  0  0  0  0  0  0  0  0  0  0  0
    3.5180    1.7610   22.5450 C   0  0  2  0  0  0  0  0  0  0  0  0
    3.2210    1.9860   21.0470 C   0  0  0  0  0  0  0  0  0  0  0  0
    4.4110    1.7410   18.5940 C   0  0  0  0  0  0  0  0  0  0  0  0
   12.2550    1.4870   23.5240 C   0  0  0  0  0  0  0  0  0  0  0  0
    9.2730   -5.7710   26.8350 C   0  0  0  0  0  0  0  0  0  0  0  0
    8.2310   -4.9690   27.1330 C   0  0  0  0  0  0  0  0  0  0  0  0
    2.9300    2.8320   23.3120 N   0  0  0  0  0  0  0  0  0  0  0  0
    7.1530   -5.1480   28.4550 Cl  0  0  0  0  0  0  0  0  0  0  0  0
  1  2  1  0
  2  3  1  0
  3  4  1  0
  4  5  1  0
  6  5  1  6
  6  7  1  0
  6  8  1  0
  7  8  1  6
  7  9  1  0
  9 10  1  0
  9 11  1  6
 10 12  1  0
 11 13  1  0
 10 14  1  0
 12 15  1  0
 12 16  2  0
 13 17  1  0
 14 18  1  1
 13 19  1  0
 14 19  1  0
 17 20  1  1
 18 21  1  0
 18 22  1  0
 17 23  1  0
 24 21  1  1
 22 25  2  0
 22 26  1  0
 24 26  1  0
 23 27  2  0
 23 28  1  0
 20 29  1  0
 24 30  1  0
 28 31  1  0
 26 32  2  0
 25 33  1  0
 27 34  1  0
 28 35  2  0
 29 36  2  0
 29 37  1  0
 30 38  1  0
 32 39  1  0
 38 39  1  0
 32 40  1  0
 33 40  2  0
 34 41  2  0
 35 41  1  0
 36 42  1  0
 37 43  1  0
 42 43  2  0
 38 44  1  1
 43 45  1  0
M  END
