x1334_0-x0981_1-x1412_1
     RDKit          3D

 28 29  0  0  0  0  0  0  0  0999 V2000
    4.0910   -5.2590   23.2190 C   0  0  0  0  0  0  0  0  0  0  0  0
    2.7840   -5.9720   23.5800 C   0  0  1  0  0  0  0  0  0  0  0  0
    2.6260   -7.1840   22.7760 N   0  0  0  0  0  0  0  0  0  0  0  0
    4.2030   -4.0260   23.6180 N   0  0  0  0  0  0  0  0  0  0  0  0
    2.6660   -6.3100   25.0740 C   0  0  0  0  0  0  0  0  0  0  0  0
    5.3920   -3.1870   23.3460 C   0  0  0  0  0  0  0  0  0  0  0  0
    1.3110   -7.4630   22.0990 C   0  0  0  0  0  0  0  0  0  0  0  0
    3.0930   -7.7370   25.3000 C   0  0  0  0  0  0  0  0  0  0  0  0
    6.3400   -3.7510   22.2750 C   0  0  1  0  0  0  0  0  0  0  0  0
    1.2220   -8.7520   21.3290 C   0  0  0  0  0  0  0  0  0  0  0  0
    0.3720   -6.6710   22.1540 O   0  0  0  0  0  0  0  0  0  0  0  0
    2.4520   -8.4140   26.2940 N   0  0  0  0  0  0  0  0  0  0  0  0
    3.9680   -8.2100   24.6090 O   0  0  0  0  0  0  0  0  0  0  0  0
    6.5000   -2.8140   21.1280 N   0  0  0  0  0  0  0  0  0  0  0  0
    7.6100   -4.0630   22.8440 C   0  0  0  0  0  0  0  0  0  0  0  0
    6.2960   -3.3550   19.8760 C   0  0  0  0  0  0  0  0  0  0  0  0
    8.3260   -2.8650   23.2730 N   0  0  0  0  0  0  0  0  0  0  0  0
    7.3980   -1.6490   21.3300 C   0  0  0  0  0  0  0  0  0  0  0  0
    7.3530   -3.0400   18.8270 C   0  0  0  0  0  0  0  0  0  0  0  0
    5.3280   -4.0790   19.6720 O   0  0  0  0  0  0  0  0  0  0  0  0
    9.4810   -3.1010   24.1060 C   0  0  0  0  0  0  0  0  0  0  0  0
    8.6570   -2.0070   22.1440 C   0  0  0  0  0  0  0  0  0  0  0  0
    9.2110   -4.1410   25.1360 C   0  0  0  0  0  0  0  0  0  0  0  0
    9.8050   -5.3540   25.2930 C   0  0  0  0  0  0  0  0  0  0  0  0
    7.9990   -3.8760   26.3500 S   0  0  0  0  0  0  0  0  0  0  0  0
    9.3070   -6.1600   26.4390 C   0  0  0  0  0  0  0  0  0  0  0  0
    8.2280   -5.3840   27.1400 C   0  0  0  0  0  0  0  0  0  0  0  0
    7.2960   -5.8190   28.5110 Cl  0  0  0  0  0  0  0  0  0  0  0  0
  2  1  1  1
  2  3  1  0
  1  4  2  3
  2  5  1  0
  4  6  1  0
  3  7  1  0
  5  8  1  0
  9  6  1  1
  7 10  1  0
  7 11  2  0
  8 12  1  0
  8 13  2  0
  9 14  1  0
  9 15  1  0
 14 16  1  0
 15 17  1  0
 14 18  1  0
 16 19  1  0
 16 20  2  0
 17 21  1  0
 17 22  1  0
 18 22  1  0
 21 23  1  0
 23 24  2  0
 23 25  1  0
 24 26  1  0
 25 27  1  0
 26 27  2  0
 27 28  1  0
M  END
