x1334_0-x0387_0-x1418_1-x0981_1
     RDKit          3D

 34 36  0  0  0  0  0  0  0  0999 V2000
    3.9020   -5.7170   22.9880 C   0  0  0  0  0  0  0  0  0  0  0  0
    2.5810   -6.1840   23.5760 C   0  0  1  0  0  0  0  0  0  0  0  0
    2.3450   -7.4600   22.9210 N   0  0  0  0  0  0  0  0  0  0  0  0
    4.6260   -4.4730   22.9490 N   0  0  0  0  0  0  0  0  0  0  0  0
    2.6480   -6.3200   25.0860 C   0  0  0  0  0  0  0  0  0  0  0  0
    5.8550   -4.6020   22.1900 C   0  0  0  0  0  0  0  0  0  0  0  0
    1.1780   -7.5520   22.0590 C   0  0  0  0  0  0  0  0  0  0  0  0
    3.0860   -7.7230   25.3170 C   0  0  0  0  0  0  0  0  0  0  0  0
    6.6490   -3.4890   22.4050 C   0  0  1  0  0  0  0  0  0  0  0  0
    1.1400   -8.7750   21.1980 C   0  0  0  0  0  0  0  0  0  0  0  0
    0.3060   -6.6850   22.0320 O   0  0  0  0  0  0  0  0  0  0  0  0
    2.4690   -8.3990   26.3260 N   0  0  0  0  0  0  0  0  0  0  0  0
    3.9530   -8.2020   24.6210 O   0  0  0  0  0  0  0  0  0  0  0  0
    7.9140   -3.9030   22.7940 C   0  0  0  0  0  0  0  0  0  0  0  0
    6.7570   -2.7150   21.1330 N   0  0  0  0  0  0  0  0  0  0  0  0
    6.4620   -3.2460   19.8670 C   0  0  0  0  0  0  0  0  0  0  0  0
    8.5130   -2.6470   23.1740 N   0  0  0  0  0  0  0  0  0  0  0  0
    7.6580   -1.5420   21.1940 C   0  0  0  0  0  0  0  0  0  0  0  0
    7.4040   -2.9770   18.7220 C   0  0  0  0  0  0  0  0  0  0  0  0
    5.4690   -3.9700   19.6720 O   0  0  0  0  0  0  0  0  0  0  0  0
    9.5260   -2.7680   23.9620 C   0  0  1  0  0  0  0  0  0  0  0  0
    8.7970   -1.7590   22.0000 C   0  0  0  0  0  0  0  0  0  0  0  0
   10.1850   -1.5700   24.6280 C   0  0  0  0  0  0  0  0  0  0  0  0
    9.1680   -3.7960   25.0450 C   0  0  0  0  0  0  0  0  0  0  0  0
    9.7850   -5.0470   25.2290 C   0  0  0  0  0  0  0  0  0  0  0  0
    7.9350   -3.6370   26.2740 S   0  0  0  0  0  0  0  0  0  0  0  0
   11.3500   -1.1830   23.7840 C   0  0  0  0  0  0  0  0  0  0  0  0
    9.2920   -5.7730   26.2690 C   0  0  0  0  0  0  0  0  0  0  0  0
    8.2840   -5.1580   26.9450 C   0  0  0  0  0  0  0  0  0  0  0  0
   12.0880   -0.0530   23.8710 C   0  0  0  0  0  0  0  0  0  0  0  0
   11.9100   -1.9950   22.6750 C   0  0  0  0  0  0  0  0  0  0  0  0
    7.5020   -5.9330   28.3310 Cl  0  0  0  0  0  0  0  0  0  0  0  0
   13.1340    0.1220   22.9950 C   0  0  0  0  0  0  0  0  0  0  0  0
   13.2420   -1.2340   21.9480 S   0  0  0  0  0  0  0  0  0  0  0  0
  2  1  1  6
  2  3  1  0
  1  4  2  3
  2  5  1  0
  4  6  1  0
  3  7  1  0
  5  8  1  0
  9  6  1  6
  7 10  1  0
  7 11  2  0
  8 12  1  0
  8 13  2  0
  9 14  1  0
  9 15  1  0
 15 16  1  0
 14 17  1  0
 15 18  1  0
 16 19  1  0
 16 20  2  0
 17 21  1  0
 17 22  1  0
 18 22  1  0
 21 23  1  1
 21 24  1  0
 24 25  2  0
 24 26  1  0
 23 27  1  0
 25 28  1  0
 26 29  1  0
 28 29  2  0
 27 30  1  0
 27 31  2  0
 29 32  1  0
 30 33  2  0
 31 34  1  0
 33 34  1  0
M  END
