x1334_1-x0434_2-x0397_0-x1412_0-x1412_1-x1386_0-x0831_0-x0736_1-x0692_1-x0770_1
     RDKit          3D

 36 41  0  0  0  0  0  0  0  0999 V2000
    6.3560   -3.2700   19.9470 C   0  0  0  0  0  0  0  0  0  0  0  0
    7.2970   -2.9870   18.7860 C   0  0  0  0  0  0  0  0  0  0  0  0
    5.4970   -4.1580   19.7780 O   0  0  0  0  0  0  0  0  0  0  0  0
    6.5080   -2.5460   21.1300 N   0  0  0  0  0  0  0  0  0  0  0  0
    7.6380   -1.6090   21.2680 C   0  0  1  0  0  0  0  0  0  0  0  0
    6.2290   -3.1690   22.4280 C   0  0  2  0  0  0  0  0  0  0  0  0
    6.9420   -0.3490   21.1570 N   0  0  0  0  0  0  0  0  0  0  0  0
    8.1950   -1.4100   22.6990 C   0  0  0  0  0  0  0  0  0  0  0  0
    7.3500   -3.8410   22.9150 C   0  0  0  0  0  0  0  0  0  0  0  0
    5.7680   -4.6260   22.5240 C   0  0  0  0  0  0  0  0  0  0  0  0
    8.3900   -2.7600   23.3670 C   0  0  2  0  0  0  0  0  0  0  0  0
    6.6790   -5.5270   23.1940 C   0  0  0  0  0  0  0  0  0  0  0  0
    6.5320   -6.0090   21.9860 C   0  0  0  0  0  0  0  0  0  0  0  0
    6.4030    0.1980   20.0390 C   0  0  0  0  0  0  0  0  0  0  0  0
    8.4050   -2.7200   24.9440 C   0  0  2  0  0  0  0  0  0  0  0  0
    9.8650   -3.1080   23.1640 C   0  0  0  0  0  0  0  0  0  0  0  0
    6.9130    0.1140   18.7500 C   0  0  0  0  0  0  0  0  0  0  0  0
    5.0870    1.0060   20.1780 C   0  0  0  0  0  0  0  0  0  0  0  0
    7.4970   -1.7230   25.4030 O   0  0  0  0  0  0  0  0  0  0  0  0
   10.7130   -2.2900   24.1780 C   0  0  2  0  0  0  0  0  0  0  0  0
    9.7700   -2.1500   25.2680 C   0  0  0  0  0  0  0  0  0  0  0  0
    8.4330   -3.9160   25.8900 C   0  0  0  0  0  0  0  0  0  0  0  0
    6.3650    0.6790   17.6700 N   0  0  0  0  0  0  0  0  0  0  0  0
    4.5700    1.5580   19.0390 C   0  0  0  0  0  0  0  0  0  0  0  0
    9.3680   -4.8720   25.5370 C   0  0  0  0  0  0  0  0  0  0  0  0
    7.4760   -4.1380   27.2800 S   0  0  0  0  0  0  0  0  0  0  0  0
   11.2040   -0.9300   23.8590 C   0  0  0  0  0  0  0  0  0  0  0  0
    5.2300    1.3760   17.8380 C   0  0  0  0  0  0  0  0  0  0  0  0
    9.3310   -5.9880   26.5410 C   0  0  0  0  0  0  0  0  0  0  0  0
    8.2790   -5.7190   27.6370 C   0  0  0  0  0  0  0  0  0  0  0  0
   10.5800    0.2650   24.3300 C   0  0  0  0  0  0  0  0  0  0  0  0
   12.3590   -0.7990   23.0670 C   0  0  0  0  0  0  0  0  0  0  0  0
   13.0690   -1.9950   22.5150 C   0  0  0  0  0  0  0  0  0  0  0  0
   11.1420    1.4600   23.9940 C   0  0  0  0  0  0  0  0  0  0  0  0
   12.8600    0.4000   22.7850 C   0  0  0  0  0  0  0  0  0  0  0  0
   12.2580    1.5580   23.2450 C   0  0  0  0  0  0  0  0  0  0  0  0
  1  2  1  0
  1  3  2  0
  1  4  1  0
  4  5  1  0
  4  6  1  0
  5  7  1  1
  5  8  1  0
  6  9  1  0
  6 10  1  6
 11  8  1  6
  9 11  1  0
 10 12  1  0
 10 13  1  0
 12 13  1  0
  7 14  1  0
 11 15  1  0
 11 16  1  0
 14 17  2  0
 14 18  1  0
 15 19  1  1
 16 20  1  0
 15 21  1  0
 20 21  1  0
 15 22  1  0
 17 23  1  0
 18 24  2  0
 22 25  2  0
 22 26  1  0
 20 27  1  6
 23 28  2  0
 24 28  1  0
 25 29  1  0
 26 30  1  0
 29 30  2  0
 27 31  2  0
 27 32  1  0
 32 33  1  0
 31 34  1  0
 32 35  2  0
 34 36  2  0
 35 36  1  0
M  END
