x1334_1-x0397_0-x1374_1-x0692_1-x0831_0-x0434_2-x0770_1-x0831_1-x1418_1
     RDKit          3D

 32 35  0  0  0  0  0  0  0  0999 V2000
    2.1410   -6.9220   23.7340 O   0  0  0  0  0  0  0  0  0  0  0  0
    2.5550   -7.8590   24.7090 C   0  0  0  0  0  0  0  0  0  0  0  0
    3.9650   -7.9510   24.7950 O   0  0  0  0  0  0  0  0  0  0  0  0
    4.5980   -7.1830   23.7750 C   0  0  0  0  0  0  0  0  0  0  0  0
    4.9620   -5.9660   24.2980 C   0  0  0  0  0  0  0  0  0  0  0  0
    6.0300   -5.4460   23.3780 C   0  0  2  0  0  0  0  0  0  0  0  0
    5.6960   -4.4250   22.4890 C   0  0  2  0  0  0  0  0  0  0  0  0
    6.3320   -5.9400   22.1880 C   0  0  0  0  0  0  0  0  0  0  0  0
    6.6790   -3.2200   22.3690 C   0  0  2  0  0  0  0  0  0  0  0  0
    6.8310   -2.6480   21.0270 N   0  0  0  0  0  0  0  0  0  0  0  0
    8.0200   -3.6370   23.0700 C   0  0  0  0  0  0  0  0  0  0  0  0
    6.4480   -3.3240   19.8690 C   0  0  0  0  0  0  0  0  0  0  0  0
    9.1610   -2.7850   22.6910 N   0  0  0  0  0  0  0  0  0  0  0  0
    7.7380   -1.4890   21.0410 C   0  0  1  0  0  0  0  0  0  0  0  0
    7.3210   -3.0460   18.6760 C   0  0  0  0  0  0  0  0  0  0  0  0
    5.4950   -4.1270   19.7590 O   0  0  0  0  0  0  0  0  0  0  0  0
   10.1190   -2.6200   23.6550 C   0  0  0  0  0  0  0  0  0  0  0  0
    6.9930   -0.2800   21.2180 N   0  0  0  0  0  0  0  0  0  0  0  0
    8.7630   -1.4970   22.1530 C   0  0  0  0  0  0  0  0  0  0  0  0
   10.7900   -1.2470   23.6260 C   0  0  0  0  0  0  0  0  0  0  0  0
    6.3480    0.3240   20.0830 C   0  0  0  0  0  0  0  0  0  0  0  0
   10.2230   -0.0960   24.2660 C   0  0  0  0  0  0  0  0  0  0  0  0
   12.0280   -1.0220   22.9490 C   0  0  0  0  0  0  0  0  0  0  0  0
    6.9290    0.1300   18.8850 C   0  0  0  0  0  0  0  0  0  0  0  0
    5.1760    1.0750   20.2470 C   0  0  0  0  0  0  0  0  0  0  0  0
   12.7110   -2.1470   22.2330 C   0  0  0  0  0  0  0  0  0  0  0  0
   10.8480    1.1840   24.2240 C   0  0  0  0  0  0  0  0  0  0  0  0
   12.5820    0.2610   22.9610 C   0  0  0  0  0  0  0  0  0  0  0  0
    6.3730    0.7150   17.6750 N   0  0  0  0  0  0  0  0  0  0  0  0
    4.6050    1.6350   19.1870 C   0  0  0  0  0  0  0  0  0  0  0  0
   12.0360    1.3680   23.5700 C   0  0  0  0  0  0  0  0  0  0  0  0
    5.1780    1.4990   17.7930 C   0  0  0  0  0  0  0  0  0  0  0  0
  1  2  1  0
  2  3  1  0
  3  4  1  0
  4  5  1  0
  6  5  1  6
  6  7  1  0
  6  8  1  0
  7  8  1  6
  7  9  1  0
  9 10  1  0
  9 11  1  6
 10 12  1  0
 11 13  1  0
 10 14  1  0
 12 15  1  0
 12 16  2  0
 13 17  1  0
 14 18  1  1
 13 19  1  0
 14 19  1  0
 17 20  1  0
 18 21  1  0
 20 22  2  0
 20 23  1  0
 21 24  2  0
 21 25  1  0
 23 26  1  0
 22 27  1  0
 23 28  2  0
 24 29  1  0
 25 30  2  0
 27 31  2  0
 28 31  1  0
 29 32  2  0
 30 32  1  0
M  END
