x1334_1-x1374_1-x0426_1-x1385_1-x0831_0-x0770_1
     RDKit          3D

 37 41  0  0  0  0  0  0  0  0999 V2000
    6.2960   -3.3990   20.1040 C   0  0  0  0  0  0  0  0  0  0  0  0
    7.2770   -2.9900   19.0140 C   0  0  0  0  0  0  0  0  0  0  0  0
    5.3720   -4.1660   19.7870 O   0  0  0  0  0  0  0  0  0  0  0  0
    6.4260   -2.9710   21.4690 N   0  0  0  0  0  0  0  0  0  0  0  0
    6.7650   -1.7270   22.1840 C   0  0  1  0  0  0  0  0  0  0  0  0
    6.8260   -3.9530   22.4650 C   0  0  1  0  0  0  0  0  0  0  0  0
    6.3150   -5.3410   22.2300 C   0  0  0  0  0  0  0  0  0  0  0  0
    8.2950   -1.4980   22.2560 C   0  0  0  0  0  0  0  0  0  0  0  0
    8.3180   -3.8360   22.7100 C   0  0  0  0  0  0  0  0  0  0  0  0
    5.7450   -0.6050   22.0180 C   0  0  0  0  0  0  0  0  0  0  0  0
    8.7490   -2.5280   23.2350 N   0  0  0  0  0  0  0  0  0  0  0  0
    4.9200   -5.3630   22.8110 C   0  0  2  0  0  0  0  0  0  0  0  0
    6.3160    0.4940   21.6440 C   0  0  2  0  0  0  0  0  0  0  0  0
   10.2070   -2.5210   23.4370 C   0  0  0  0  0  0  0  0  0  0  0  0
    4.8700   -4.7430   24.1940 C   0  0  0  0  0  0  0  0  0  0  0  0
    4.4500   -6.7710   22.9610 C   0  0  0  0  0  0  0  0  0  0  0  0
    5.9500    1.5940   22.4350 C   0  0  0  0  0  0  0  0  0  0  0  0
    5.9890    0.7770   20.2380 C   0  0  0  0  0  0  0  0  0  0  0  0
    4.1820   -5.3950   25.1460 C   0  0  0  0  0  0  0  0  0  0  0  0
    3.5620   -6.7780   24.4510 S   0  0  0  0  0  0  0  0  0  0  0  0
   10.8350   -1.1510   23.4810 C   0  0  0  0  0  0  0  0  0  0  0  0
    4.5280    2.2200   22.2930 C   0  0  2  0  0  0  0  0  0  0  0  0
    4.7390    1.5030   19.9270 C   0  0  0  0  0  0  0  0  0  0  0  0
    6.7940    0.3970   19.1610 C   0  0  0  0  0  0  0  0  0  0  0  0
    2.0230   -6.6950   24.0790 O   0  0  0  0  0  0  0  0  0  0  0  0
    3.9130   -8.1150   25.2120 O   0  0  0  0  0  0  0  0  0  0  0  0
   10.1290   -0.1230   24.1350 C   0  0  0  0  0  0  0  0  0  0  0  0
   12.0940   -0.9230   22.8720 C   0  0  0  0  0  0  0  0  0  0  0  0
    3.8130    2.0810   23.5740 N   0  0  0  0  0  0  0  0  0  0  0  0
    3.8250    1.9070   21.0280 C   0  0  0  0  0  0  0  0  0  0  0  0
    4.4680    1.7830   18.6330 C   0  0  0  0  0  0  0  0  0  0  0  0
    6.4940    0.6800   17.8860 N   0  0  0  0  0  0  0  0  0  0  0  0
   12.8190   -2.0330   22.1760 C   0  0  0  0  0  0  0  0  0  0  0  0
   10.7030    1.3070   24.2000 C   0  0  0  0  0  0  0  0  0  0  0  0
   12.8040    0.4690   22.8680 C   0  0  0  0  0  0  0  0  0  0  0  0
    5.3550    1.3650   17.6950 C   0  0  0  0  0  0  0  0  0  0  0  0
   12.0550    1.6020   23.5550 C   0  0  0  0  0  0  0  0  0  0  0  0
  1  2  1  0
  1  3  2  0
  1  4  1  0
  4  5  1  0
  4  6  1  0
  6  7  1  6
  5  8  1  0
  6  9  1  0
  5 10  1  6
  8 11  1  0
  9 11  1  0
 12  7  1  1
 13 10  1  1
 11 14  1  0
 12 15  1  0
 12 16  1  0
 13 17  1  0
 13 18  1  0
 15 19  2  0
 16 20  1  0
 19 20  1  0
 14 21  1  0
 17 22  1  0
 18 23  2  0
 18 24  1  0
 20 25  1  0
 20 26  1  0
 21 27  2  0
 21 28  1  0
 22 29  1  1
 22 30  1  0
 23 30  1  0
 23 31  1  0
 24 32  2  0
 28 33  1  0
 27 34  1  0
 28 35  2  0
 31 36  2  0
 32 36  1  0
 34 37  2  0
 35 37  1  0
M  END
