x1334_1-x1412_1-x1385_1-x1334_0-x0426_1-x1386_1-x1418_1-x0770_1-x0831_1-x0692_1-x0397_0-x1374_1-x0831_0-x0434_2
     RDKit          3D

 45 51  0  0  0  0  0  0  0  0999 V2000
    1.6680   -6.9630   23.6300 O   0  0  0  0  0  0  0  0  0  0  0  0
    2.2100   -7.9370   24.4960 C   0  0  0  0  0  0  0  0  0  0  0  0
    3.6050   -7.8250   24.3820 O   0  0  0  0  0  0  0  0  0  0  0  0
    3.9480   -6.7250   23.5210 C   0  0  0  0  0  0  0  0  0  0  0  0
    5.3200   -6.7070   23.5560 C   0  0  0  0  0  0  0  0  0  0  0  0
    6.0580   -5.7040   22.7450 C   0  0  2  0  0  0  0  0  0  0  0  0
    5.4530   -4.5260   22.2840 C   0  0  2  0  0  0  0  0  0  0  0  0
    6.0840   -5.7950   21.4560 C   0  0  0  0  0  0  0  0  0  0  0  0
    6.2850   -3.1920   22.3620 C   0  0  2  0  0  0  0  0  0  0  0  0
    6.4820   -2.5340   21.1430 N   0  0  0  0  0  0  0  0  0  0  0  0
    7.5210   -3.6980   22.8560 C   0  0  0  0  0  0  0  0  0  0  0  0
    6.3740   -3.2480   19.9300 C   0  0  0  0  0  0  0  0  0  0  0  0
    8.5160   -2.7060   23.2540 N   0  0  0  0  0  0  0  0  0  0  0  0
    7.5310   -1.4990   21.3510 C   0  0  2  0  0  0  0  0  0  0  0  0
    7.2940   -2.9630   18.7610 C   0  0  0  0  0  0  0  0  0  0  0  0
    5.5200   -4.1460   19.7820 O   0  0  0  0  0  0  0  0  0  0  0  0
    9.6460   -3.2170   23.8600 C   0  0  1  0  0  0  0  0  0  0  0  0
    7.7280   -0.4360   20.5430 N   0  0  0  0  0  0  0  0  0  0  0  0
    8.8400   -2.0500   21.9500 C   0  0  0  0  0  0  0  0  0  0  0  0
   10.6610   -2.3660   24.6080 C   0  0  0  0  0  0  0  0  0  0  0  0
    7.7780    0.6620   21.5240 C   0  0  0  0  0  0  0  0  0  0  0  0
    6.6720    0.0990   19.7640 C   0  0  0  0  0  0  0  0  0  0  0  0
    9.2550   -4.1770   24.9850 C   0  0  0  0  0  0  0  0  0  0  0  0
    6.2760    0.9010   21.8250 C   0  0  2  0  0  0  0  0  0  0  0  0
    6.3840   -0.0190   18.3210 N   0  0  0  0  0  0  0  0  0  0  0  0
    5.7680    0.8650   20.4220 C   0  0  0  0  0  0  0  0  0  0  0  0
    9.8620   -5.3530   25.3420 C   0  0  0  0  0  0  0  0  0  0  0  0
    7.9100   -3.9420   26.0790 S   0  0  0  0  0  0  0  0  0  0  0  0
   11.1390   -1.0150   24.1030 C   0  0  0  0  0  0  0  0  0  0  0  0
    5.8850    2.2630   22.4310 C   0  0  0  0  0  0  0  0  0  0  0  0
    4.6340    1.5120   19.9620 C   0  0  0  0  0  0  0  0  0  0  0  0
    5.2680    0.6530   17.9530 C   0  0  0  0  0  0  0  0  0  0  0  0
    9.3130   -5.9790   26.3840 C   0  0  0  0  0  0  0  0  0  0  0  0
    8.1980   -5.3850   26.9890 C   0  0  0  0  0  0  0  0  0  0  0  0
   10.4540    0.0810   24.5040 C   0  0  0  0  0  0  0  0  0  0  0  0
   12.2690   -0.9140   23.2650 C   0  0  0  0  0  0  0  0  0  0  0  0
    4.3810    2.6200   22.3390 C   0  0  1  0  0  0  0  0  0  0  0  0
    3.8010    2.2820   20.9530 C   0  0  0  0  0  0  0  0  0  0  0  0
    7.2410   -5.8630   28.3260 Cl  0  0  0  0  0  0  0  0  0  0  0  0
   13.0280   -2.1090   22.7980 C   0  0  0  0  0  0  0  0  0  0  0  0
    4.3540    1.4150   18.6650 C   0  0  0  0  0  0  0  0  0  0  0  0
   10.8440    1.3650   24.1140 C   0  0  0  0  0  0  0  0  0  0  0  0
   12.6850    0.2710   22.8740 C   0  0  0  0  0  0  0  0  0  0  0  0
    3.6000    2.0080   23.4250 N   0  0  0  0  0  0  0  0  0  0  0  0
   11.9840    1.5200   23.2850 C   0  0  0  0  0  0  0  0  0  0  0  0
  1  2  1  0
  2  3  1  0
  3  4  1  0
  4  5  1  0
  6  5  1  1
  6  7  1  0
  6  8  1  0
  7  8  1  6
  7  9  1  0
  9 10  1  0
  9 11  1  6
 10 12  1  0
 11 13  1  0
 10 14  1  0
 12 15  1  0
 12 16  2  0
 13 17  1  0
 14 18  1  6
 13 19  1  0
 14 19  1  0
 17 20  1  1
 18 21  1  0
 18 22  1  0
 17 23  1  0
 24 21  1  6
 22 25  2  0
 22 26  1  0
 24 26  1  0
 23 27  2  0
 23 28  1  0
 20 29  1  0
 24 30  1  0
 26 31  2  0
 25 32  1  0
 27 33  1  0
 28 34  1  0
 33 34  2  0
 29 35  2  0
 29 36  1  0
 30 37  1  0
 31 38  1  0
 37 38  1  0
 34 39  1  0
 36 40  1  0
 31 41  1  0
 32 41  2  0
 35 42  1  0
 36 43  2  0
 37 44  1  1
 42 45  2  0
 43 45  1  0
M  END
