x1334_0-x0770_1-x0397_0-x0831_1-x1412_1-x0831_0
     RDKit          3D

 27 30  0  0  0  0  0  0  0  0999 V2000
    6.1940   -3.3200   19.9250 C   0  0  0  0  0  0  0  0  0  0  0  0
    7.1950   -2.9950   18.8360 C   0  0  0  0  0  0  0  0  0  0  0  0
    5.3420   -4.1910   19.7440 O   0  0  0  0  0  0  0  0  0  0  0  0
    6.3100   -2.6050   21.1330 N   0  0  0  0  0  0  0  0  0  0  0  0
    7.1520   -1.4410   21.3160 C   0  0  0  0  0  0  0  0  0  0  0  0
    6.1680   -3.4760   22.3350 C   0  0  2  0  0  0  0  0  0  0  0  0
    8.4260   -1.8570   22.0840 C   0  0  0  0  0  0  0  0  0  0  0  0
    6.8610   -3.0230   23.6200 C   0  0  0  0  0  0  0  0  0  0  0  0
    6.4250   -4.9060   21.9620 C   0  0  0  0  0  0  0  0  0  0  0  0
    8.1090   -2.2390   23.4680 N   0  0  0  0  0  0  0  0  0  0  0  0
    6.3740   -6.1170   23.1030 C   0  0  0  0  0  0  0  0  0  0  0  0
    5.4560   -5.9920   22.0220 C   0  0  0  0  0  0  0  0  0  0  0  0
    9.1900   -2.6310   24.1910 C   0  0  2  0  0  0  0  0  0  0  0  0
   10.4320   -2.6530   23.2770 C   0  0  0  0  0  0  0  0  0  0  0  0
    8.9950   -3.8070   25.1610 C   0  0  0  0  0  0  0  0  0  0  0  0
    9.7350   -5.0210   25.2130 C   0  0  0  0  0  0  0  0  0  0  0  0
    7.7960   -3.8210   26.4320 S   0  0  0  0  0  0  0  0  0  0  0  0
   11.0210   -1.2650   23.2920 C   0  0  0  0  0  0  0  0  0  0  0  0
    9.3610   -6.0210   26.2900 C   0  0  0  0  0  0  0  0  0  0  0  0
    8.1700   -5.3690   27.0980 C   0  0  0  0  0  0  0  0  0  0  0  0
   10.4180   -0.0530   23.9960 C   0  0  0  0  0  0  0  0  0  0  0  0
   12.1840   -0.9370   22.6790 C   0  0  0  0  0  0  0  0  0  0  0  0
    7.2920   -5.9710   28.4340 Cl  0  0  0  0  0  0  0  0  0  0  0  0
   12.9770   -1.9370   21.9090 C   0  0  0  0  0  0  0  0  0  0  0  0
   10.8590    1.1780   24.0660 C   0  0  0  0  0  0  0  0  0  0  0  0
   12.7160    0.5190   22.7680 C   0  0  0  0  0  0  0  0  0  0  0  0
   12.1300    1.8060   23.4670 C   0  0  0  0  0  0  0  0  0  0  0  0
  1  2  1  0
  1  3  2  0
  1  4  1  0
  4  5  1  0
  4  6  1  0
  5  7  1  0
  6  8  1  0
  6  9  1  6
  7 10  1  0
  8 10  1  0
  9 11  1  0
  9 12  1  0
 11 12  1  0
 10 13  1  0
 13 14  1  6
 13 15  1  0
 15 16  2  0
 15 17  1  0
 14 18  1  0
 16 19  1  0
 17 20  1  0
 19 20  2  0
 18 21  2  0
 18 22  1  0
 20 23  1  0
 22 24  1  0
 21 25  1  0
 22 26  2  0
 25 27  2  0
 26 27  1  0
M  END
