x1334_0-x1418_1-x0981_1-x0874_0
     RDKit          3D

 34 36  0  0  0  0  0  0  0  0999 V2000
    3.9820   -5.8220   22.9780 C   0  0  0  0  0  0  0  0  0  0  0  0
    2.6100   -6.1450   23.5100 C   0  0  1  0  0  0  0  0  0  0  0  0
    2.3310   -7.4120   22.8400 N   0  0  0  0  0  0  0  0  0  0  0  0
    4.4310   -4.7330   22.5000 N   0  0  0  0  0  0  0  0  0  0  0  0
    2.6590   -6.2950   25.0390 C   0  0  0  0  0  0  0  0  0  0  0  0
    5.7950   -4.7500   22.0390 C   0  0  0  0  0  0  0  0  0  0  0  0
    1.2030   -7.5190   22.0780 C   0  0  0  0  0  0  0  0  0  0  0  0
    3.0880   -7.7100   25.3430 C   0  0  0  0  0  0  0  0  0  0  0  0
    6.4560   -3.3680   22.3060 C   0  0  1  0  0  0  0  0  0  0  0  0
    1.1380   -8.7630   21.2360 C   0  0  0  0  0  0  0  0  0  0  0  0
    0.3210   -6.6680   22.0650 O   0  0  0  0  0  0  0  0  0  0  0  0
    2.4770   -8.3510   26.3740 N   0  0  0  0  0  0  0  0  0  0  0  0
    3.9540   -8.2130   24.6600 O   0  0  0  0  0  0  0  0  0  0  0  0
    7.7110   -3.6830   23.1120 C   0  0  0  0  0  0  0  0  0  0  0  0
    6.7700   -2.6310   21.0730 N   0  0  0  0  0  0  0  0  0  0  0  0
    6.4990   -3.1610   19.7820 C   0  0  0  0  0  0  0  0  0  0  0  0
    8.4480   -2.4600   23.2330 N   0  0  0  0  0  0  0  0  0  0  0  0
    7.7170   -1.4910   21.2230 C   0  0  0  0  0  0  0  0  0  0  0  0
    7.4500   -2.9600   18.6350 C   0  0  0  0  0  0  0  0  0  0  0  0
    5.4870   -3.8630   19.5930 O   0  0  0  0  0  0  0  0  0  0  0  0
    9.4710   -2.4960   24.2980 C   0  0  2  0  0  0  0  0  0  0  0  0
    8.8570   -1.8490   21.9590 C   0  0  0  0  0  0  0  0  0  0  0  0
   10.8840   -2.6810   23.8680 C   0  0  0  0  0  0  0  0  0  0  0  0
    9.1450   -3.6590   25.2760 C   0  0  0  0  0  0  0  0  0  0  0  0
    9.8590   -4.9970   25.3060 C   0  0  0  0  0  0  0  0  0  0  0  0
    7.9400   -3.6980   26.5150 S   0  0  0  0  0  0  0  0  0  0  0  0
   11.4480   -1.3130   23.8270 C   0  0  0  0  0  0  0  0  0  0  0  0
    9.3550   -5.8170   26.2890 C   0  0  0  0  0  0  0  0  0  0  0  0
    8.3120   -5.2930   27.0530 C   0  0  0  0  0  0  0  0  0  0  0  0
   12.0640   -0.0500   23.6840 C   0  0  0  0  0  0  0  0  0  0  0  0
   12.1510   -1.9240   22.7790 C   0  0  0  0  0  0  0  0  0  0  0  0
    7.4310   -5.9830   28.3490 Cl  0  0  0  0  0  0  0  0  0  0  0  0
   13.0230    0.2850   22.7780 C   0  0  0  0  0  0  0  0  0  0  0  0
   13.3800   -1.0260   21.8190 S   0  0  0  0  0  0  0  0  0  0  0  0
  2  1  1  6
  2  3  1  0
  1  4  2  3
  2  5  1  0
  4  6  1  0
  3  7  1  0
  5  8  1  0
  9  6  1  6
  7 10  1  0
  7 11  2  0
  8 12  1  0
  8 13  2  0
  9 14  1  0
  9 15  1  0
 15 16  1  0
 14 17  1  0
 15 18  1  0
 16 19  1  0
 16 20  2  0
 17 21  1  0
 17 22  1  0
 18 22  1  0
 21 23  1  6
 21 24  1  0
 24 25  2  0
 24 26  1  0
 23 27  1  0
 25 28  1  0
 26 29  1  0
 28 29  2  0
 27 30  1  0
 27 31  2  0
 29 32  1  0
 30 33  2  0
 31 34  1  0
 33 34  1  0
M  END
