x1334_1-x1412_0
     RDKit          3D

 16 17  0  0  0  0  0  0  0  0999 V2000
    6.3730   -3.3170   19.9390 C   0  0  0  0  0  0  0  0  0  0  0  0
    7.3370   -2.9850   18.8120 C   0  0  0  0  0  0  0  0  0  0  0  0
    5.4200   -4.0800   19.7190 O   0  0  0  0  0  0  0  0  0  0  0  0
    6.6420   -2.7570   21.2140 N   0  0  0  0  0  0  0  0  0  0  0  0
    7.6750   -1.7090   21.3930 C   0  0  0  0  0  0  0  0  0  0  0  0
    6.2120   -3.4960   22.3880 C   0  0  0  0  0  0  0  0  0  0  0  0
    8.8050   -2.1840   22.1100 C   0  0  0  0  0  0  0  0  0  0  0  0
    7.4830   -4.1700   22.9280 C   0  0  0  0  0  0  0  0  0  0  0  0
    8.4900   -3.1510   23.2160 N   0  0  0  0  0  0  0  0  0  0  0  0
    8.4790   -2.6630   24.6170 C   0  0  0  0  0  0  0  0  0  0  0  0
    8.3700   -1.3270   25.1120 O   0  0  0  0  0  0  0  0  0  0  0  0
    8.6030   -3.7600   25.5090 C   0  0  0  0  0  0  0  0  0  0  0  0
    9.4540   -4.9820   25.2910 C   0  0  0  0  0  0  0  0  0  0  0  0
    7.7600   -3.8610   27.0600 S   0  0  0  0  0  0  0  0  0  0  0  0
    9.3050   -5.8010   26.3840 C   0  0  0  0  0  0  0  0  0  0  0  0
    8.4410   -5.3150   27.3730 C   0  0  0  0  0  0  0  0  0  0  0  0
  1  2  1  0
  1  3  2  0
  1  4  1  0
  4  5  1  0
  4  6  1  0
  5  7  1  0
  6  8  1  0
  7  9  1  0
  8  9  1  0
  9 10  1  0
 10 11  2  0
 10 12  1  0
 12 13  2  0
 12 14  1  0
 13 15  1  0
 14 16  1  0
 15 16  2  0
M  END
