x1334_1-x1412_1-x1386_0-x1412_0-x0692_1
     RDKit          3D

 22 24  0  0  0  0  0  0  0  0999 V2000
    6.2440   -3.3080   19.8630 C   0  0  0  0  0  0  0  0  0  0  0  0
    7.2070   -2.9940   18.7380 C   0  0  0  0  0  0  0  0  0  0  0  0
    5.3060   -4.0850   19.6750 O   0  0  0  0  0  0  0  0  0  0  0  0
    6.4770   -2.7390   21.0880 N   0  0  0  0  0  0  0  0  0  0  0  0
    7.4340   -1.6240   21.2550 C   0  0  0  0  0  0  0  0  0  0  0  0
    6.1050   -3.4630   22.3150 C   0  0  0  0  0  0  0  0  0  0  0  0
    8.5630   -1.9590   22.2370 C   0  0  0  0  0  0  0  0  0  0  0  0
    7.3200   -3.7720   23.2020 C   0  0  0  0  0  0  0  0  0  0  0  0
    8.0540   -2.5410   23.4960 N   0  0  0  0  0  0  0  0  0  0  0  0
    9.0100   -2.5740   24.6050 C   0  0  2  0  0  0  0  0  0  0  0  0
    8.8370   -1.3300   25.2940 O   0  0  0  0  0  0  0  0  0  0  0  0
   10.4950   -2.6900   24.1190 C   0  0  0  0  0  0  0  0  0  0  0  0
    8.8560   -3.7090   25.6370 C   0  0  0  0  0  0  0  0  0  0  0  0
    9.7850   -4.8990   25.8040 C   0  0  0  0  0  0  0  0  0  0  0  0
    7.5880   -3.8310   26.8090 S   0  0  0  0  0  0  0  0  0  0  0  0
   11.2690   -1.4470   23.8100 C   0  0  0  0  0  0  0  0  0  0  0  0
    9.3580   -5.7570   26.8420 C   0  0  0  0  0  0  0  0  0  0  0  0
    8.1820   -5.2960   27.4720 C   0  0  0  0  0  0  0  0  0  0  0  0
   12.3360   -1.4280   22.9200 C   0  0  0  0  0  0  0  0  0  0  0  0
   11.0700   -0.1850   24.3300 C   0  0  0  0  0  0  0  0  0  0  0  0
   12.9390   -0.2180   22.7480 C   0  0  0  0  0  0  0  0  0  0  0  0
   12.1810    0.9600   23.7060 S   0  0  0  0  0  0  0  0  0  0  0  0
  1  2  1  0
  1  3  2  0
  1  4  1  0
  4  5  1  0
  4  6  1  0
  5  7  1  0
  6  8  1  0
  7  9  1  0
  8  9  1  0
  9 10  1  0
 10 11  1  1
 10 12  1  0
 10 13  1  0
 13 14  2  0
 13 15  1  0
 12 16  1  0
 14 17  1  0
 15 18  1  0
 17 18  2  0
 16 19  1  0
 16 20  2  0
 19 21  2  0
 20 22  1  0
 21 22  1  0
M  END
