x1334_1-x0397_0-x0770_1-x0434_2-x0426_1-x1385_1-x1386_1-x1375_1-x1418_1-x0692_1-x1374_1-x0831_0-x1334_0
     RDKit          3D

 44 50  0  0  0  0  0  0  0  0999 V2000
    2.7380   -7.6620   23.8300 O   0  0  0  0  0  0  0  0  0  0  0  0
    3.3730   -7.2810   25.0390 C   0  0  0  0  0  0  0  0  0  0  0  0
    4.6490   -6.7190   24.8010 O   0  0  0  0  0  0  0  0  0  0  0  0
    5.0170   -6.7620   23.4320 C   0  0  0  0  0  0  0  0  0  0  0  0
    6.0180   -5.7270   23.0490 C   0  0  2  0  0  0  0  0  0  0  0  0
    5.6680   -4.4670   22.2480 C   0  0  2  0  0  0  0  0  0  0  0  0
    6.4280   -5.8130   21.6190 C   0  0  0  0  0  0  0  0  0  0  0  0
    6.4570   -3.1490   22.3300 C   0  0  2  0  0  0  0  0  0  0  0  0
    6.7070   -2.6160   20.9600 N   0  0  0  0  0  0  0  0  0  0  0  0
    7.8100   -3.3740   23.0440 C   0  0  0  0  0  0  0  0  0  0  0  0
    6.3960   -3.3480   19.8470 C   0  0  0  0  0  0  0  0  0  0  0  0
    8.6790   -2.1830   22.9470 N   0  0  0  0  0  0  0  0  0  0  0  0
    7.8390   -1.6930   20.7370 C   0  0  1  0  0  0  0  0  0  0  0  0
    7.3240   -3.0930   18.6740 C   0  0  0  0  0  0  0  0  0  0  0  0
    5.4730   -4.1810   19.7390 O   0  0  0  0  0  0  0  0  0  0  0  0
    9.6410   -2.0360   23.8810 C   0  0  1  0  0  0  0  0  0  0  0  0
    7.4150   -0.3380   20.9990 N   0  0  0  0  0  0  0  0  0  0  0  0
    9.1060   -1.9650   21.5900 C   0  0  0  0  0  0  0  0  0  0  0  0
   10.3410   -3.2850   24.3090 C   0  0  0  0  0  0  0  0  0  0  0  0
    6.8800    0.0180   22.3210 C   0  0  0  0  0  0  0  0  0  0  0  0
    6.6070    0.2740   19.9680 C   0  0  0  0  0  0  0  0  0  0  0  0
   10.5890   -0.7980   23.6720 C   0  0  0  0  0  0  0  0  0  0  0  0
    5.6500    0.9080   22.1050 C   0  0  1  0  0  0  0  0  0  0  0  0
    6.6200    0.3120   18.5710 N   0  0  0  0  0  0  0  0  0  0  0  0
    5.5900    0.9770   20.6150 C   0  0  0  0  0  0  0  0  0  0  0  0
   10.0650    0.5840   24.1150 C   0  0  0  0  0  0  0  0  0  0  0  0
   11.9060   -0.8570   23.1030 C   0  0  0  0  0  0  0  0  0  0  0  0
    9.6630   -4.2030   25.2840 C   0  0  0  0  0  0  0  0  0  0  0  0
    4.2420    0.5310   22.5720 C   0  0  0  0  0  0  0  0  0  0  0  0
   12.5430   -2.1300   22.6180 C   0  0  0  0  0  0  0  0  0  0  0  0
    4.5040    1.7540   20.0250 C   0  0  0  0  0  0  0  0  0  0  0  0
    5.6470    1.0400   17.9330 C   0  0  0  0  0  0  0  0  0  0  0  0
   10.9870    1.7260   23.9100 C   0  0  0  0  0  0  0  0  0  0  0  0
   12.7550    0.1780   22.9150 C   0  0  0  0  0  0  0  0  0  0  0  0
    9.9690   -5.5000   25.5860 C   0  0  0  0  0  0  0  0  0  0  0  0
    8.2990   -3.7810   26.2730 S   0  0  0  0  0  0  0  0  0  0  0  0
    3.2550    1.6510   22.2760 C   0  0  2  0  0  0  0  0  0  0  0  0
    3.5110    2.4030   20.9430 C   0  0  0  0  0  0  0  0  0  0  0  0
    4.6240    1.7430   18.5130 C   0  0  0  0  0  0  0  0  0  0  0  0
   12.3330    1.5810   23.3200 C   0  0  0  0  0  0  0  0  0  0  0  0
    9.1850   -6.1220   26.5600 C   0  0  0  0  0  0  0  0  0  0  0  0
    8.2290   -5.2970   27.0390 C   0  0  0  0  0  0  0  0  0  0  0  0
    3.2410    2.6160   23.3530 N   0  0  0  0  0  0  0  0  0  0  0  0
    7.0630   -5.6410   28.2490 Cl  0  0  0  0  0  0  0  0  0  0  0  0
  1  2  1  0
  2  3  1  0
  3  4  1  0
  5  4  1  6
  5  6  1  0
  5  7  1  0
  6  7  1  6
  6  8  1  0
  8  9  1  0
  8 10  1  6
  9 11  1  0
 10 12  1  0
  9 13  1  0
 11 14  1  0
 11 15  2  0
 12 16  1  0
 13 17  1  1
 12 18  1  0
 13 18  1  0
 16 19  1  6
 17 20  1  0
 17 21  1  0
 16 22  1  0
 23 20  1  6
 21 24  2  0
 21 25  1  0
 23 25  1  0
 22 26  2  0
 22 27  1  0
 19 28  1  0
 23 29  1  0
 27 30  1  0
 25 31  2  0
 24 32  1  0
 26 33  1  0
 27 34  2  0
 28 35  2  0
 28 36  1  0
 29 37  1  0
 31 38  1  0
 37 38  1  0
 31 39  1  0
 32 39  2  0
 33 40  2  0
 34 40  1  0
 35 41  1  0
 36 42  1  0
 41 42  2  0
 37 43  1  1
 42 44  1  0
M  END
