x1334_0-x0426_1-x0692_1-x0831_0-x1418_1-x0831_1-x0434_2-x1334_1-x1385_1-x0770_1-x0397_0
     RDKit          3D

 39 44  0  0  0  0  0  0  0  0999 V2000
    6.3220   -3.3110   19.8770 C   0  0  0  0  0  0  0  0  0  0  0  0
    7.2740   -3.0280   18.7310 C   0  0  0  0  0  0  0  0  0  0  0  0
    5.4320   -4.1690   19.7510 O   0  0  0  0  0  0  0  0  0  0  0  0
    6.5350   -2.5690   21.0400 N   0  0  0  0  0  0  0  0  0  0  0  0
    7.6350   -1.5530   21.1120 C   0  0  1  0  0  0  0  0  0  0  0  0
    6.1340   -3.0250   22.3840 C   0  0  2  0  0  0  0  0  0  0  0  0
    7.0430   -0.2860   21.7700 C   0  0  0  0  0  0  0  0  0  0  0  0
    8.8050   -2.1230   21.9680 C   0  0  0  0  0  0  0  0  0  0  0  0
    7.3180   -3.6260   23.2030 C   0  0  0  0  0  0  0  0  0  0  0  0
    5.7580   -4.4690   22.7300 C   0  0  0  0  0  0  0  0  0  0  0  0
    5.5040   -0.2900   21.6860 C   0  0  1  0  0  0  0  0  0  0  0  0
    8.4620   -2.6760   23.2910 N   0  0  0  0  0  0  0  0  0  0  0  0
    6.7290   -5.3120   22.9650 C   0  0  0  0  0  0  0  0  0  0  0  0
    6.1100   -5.8770   21.9330 C   0  0  0  0  0  0  0  0  0  0  0  0
    4.6730    0.4810   22.7440 C   0  0  0  0  0  0  0  0  0  0  0  0
    9.5770   -3.1610   24.0850 C   0  0  1  0  0  0  0  0  0  0  0  0
    5.4130    0.3880   20.2850 C   0  0  0  0  0  0  0  0  0  0  0  0
    4.2210    1.9080   22.4560 C   0  0  2  0  0  0  0  0  0  0  0  0
   10.2830   -2.0370   24.8030 C   0  0  0  0  0  0  0  0  0  0  0  0
    4.5610    1.4470   19.9550 C   0  0  0  0  0  0  0  0  0  0  0  0
    6.2250   -0.0810   19.2980 C   0  0  0  0  0  0  0  0  0  0  0  0
    9.1730   -4.1400   25.1970 C   0  0  0  0  0  0  0  0  0  0  0  0
    3.1050    2.3720   23.2830 N   0  0  0  0  0  0  0  0  0  0  0  0
    3.6750    1.9840   21.0060 C   0  0  0  0  0  0  0  0  0  0  0  0
    4.5590    2.0290   18.5670 C   0  0  0  0  0  0  0  0  0  0  0  0
    6.3490    0.3260   18.0060 N   0  0  0  0  0  0  0  0  0  0  0  0
    9.8230   -5.2930   25.3150 C   0  0  0  0  0  0  0  0  0  0  0  0
    7.9250   -3.9130   26.3720 S   0  0  0  0  0  0  0  0  0  0  0  0
   11.0720   -0.9120   24.1350 C   0  0  0  0  0  0  0  0  0  0  0  0
    5.5580    1.3290   17.6610 C   0  0  0  0  0  0  0  0  0  0  0  0
    9.3280   -6.1100   26.4270 C   0  0  0  0  0  0  0  0  0  0  0  0
    8.2100   -5.4090   27.1290 C   0  0  0  0  0  0  0  0  0  0  0  0
   10.3620    0.3530   24.5740 C   0  0  0  0  0  0  0  0  0  0  0  0
   12.2050   -0.9480   23.3110 C   0  0  0  0  0  0  0  0  0  0  0  0
    7.2830   -5.9040   28.4730 Cl  0  0  0  0  0  0  0  0  0  0  0  0
   12.8890   -2.2090   22.8760 C   0  0  0  0  0  0  0  0  0  0  0  0
   11.0620    1.5960   24.0030 C   0  0  0  0  0  0  0  0  0  0  0  0
   12.7860    0.3400   22.8330 C   0  0  0  0  0  0  0  0  0  0  0  0
   12.2040    1.5420   23.1910 C   0  0  0  0  0  0  0  0  0  0  0  0
  1  2  1  0
  1  3  2  0
  1  4  1  0
  4  5  1  0
  4  6  1  0
  5  7  1  1
  5  8  1  0
  6  9  1  0
  6 10  1  6
 11  7  1  1
  8 12  1  0
  9 12  1  0
 10 13  1  0
 10 14  1  0
 13 14  1  0
 11 15  1  0
 12 16  1  0
 11 17  1  0
 15 18  1  0
 16 19  1  1
 17 20  2  0
 17 21  1  0
 16 22  1  0
 18 23  1  1
 18 24  1  0
 20 24  1  0
 20 25  1  0
 21 26  2  0
 22 27  2  0
 22 28  1  0
 19 29  1  0
 25 30  2  0
 26 30  1  0
 27 31  1  0
 28 32  1  0
 31 32  2  0
 29 33  2  0
 29 34  1  0
 32 35  1  0
 34 36  1  0
 33 37  1  0
 34 38  2  0
 37 39  2  0
 38 39  1  0
M  END
