x1334_1-x1385_1-x1334_0-x1412_1-x0770_1-x1386_1-x1418_1-x0397_0-x0434_2-x0831_0-x0692_1-x0540_3
     RDKit          3D

 40 45  0  0  0  0  0  0  0  0999 V2000
    6.2380   -3.3720   19.9360 C   0  0  0  0  0  0  0  0  0  0  0  0
    7.2250   -3.0060   18.8240 C   0  0  0  0  0  0  0  0  0  0  0  0
    5.3550   -4.2210   19.7760 O   0  0  0  0  0  0  0  0  0  0  0  0
    6.4380   -2.6660   21.1680 N   0  0  0  0  0  0  0  0  0  0  0  0
    7.5060   -1.6630   21.3620 C   0  0  1  0  0  0  0  0  0  0  0  0
    6.0870   -3.4120   22.4180 C   0  0  2  0  0  0  0  0  0  0  0  0
    7.0670   -0.2870   21.8500 C   0  0  2  0  0  0  0  0  0  0  0  0
    8.7190   -2.1860   22.1270 C   0  0  0  0  0  0  0  0  0  0  0  0
    7.3250   -3.8510   23.2330 C   0  0  0  0  0  0  0  0  0  0  0  0
    6.5160   -4.8350   22.1930 C   0  0  0  0  0  0  0  0  0  0  0  0
    5.5980    0.2260   21.8140 C   0  0  1  0  0  0  0  0  0  0  0  0
    7.7760    0.4480   20.7690 N   0  0  0  0  0  0  0  0  0  0  0  0
    8.2820   -2.7630   23.3540 N   0  0  0  0  0  0  0  0  0  0  0  0
    6.3580   -5.7960   23.0250 C   0  0  0  0  0  0  0  0  0  0  0  0
    5.5000   -6.1450   22.1160 C   0  0  0  0  0  0  0  0  0  0  0  0
    5.4030    1.5390   22.6650 C   0  0  0  0  0  0  0  0  0  0  0  0
    9.2800   -2.7760   24.3990 C   0  0  2  0  0  0  0  0  0  0  0  0
    6.7350    0.5370   19.8070 C   0  0  0  0  0  0  0  0  0  0  0  0
    5.5040    0.4500   20.3390 C   0  0  0  0  0  0  0  0  0  0  0  0
    4.1300    2.1890   22.4360 N   0  0  0  0  0  0  0  0  0  0  0  0
   10.6880   -2.6280   23.8280 C   0  0  0  0  0  0  0  0  0  0  0  0
    9.0630   -3.9300   25.3760 C   0  0  0  0  0  0  0  0  0  0  0  0
    6.9660    0.6920   18.5330 C   0  0  0  0  0  0  0  0  0  0  0  0
    4.4000    0.5400   19.6100 C   0  0  0  0  0  0  0  0  0  0  0  0
    3.0640    2.2090   23.4370 C   0  0  0  0  0  0  0  0  0  0  0  0
    9.7770   -5.1100   25.4440 C   0  0  0  0  0  0  0  0  0  0  0  0
    7.8400   -3.9160   26.5840 S   0  0  0  0  0  0  0  0  0  0  0  0
   11.1130   -1.1910   23.7420 C   0  0  0  0  0  0  0  0  0  0  0  0
    5.9530    0.7860   17.7060 N   0  0  0  0  0  0  0  0  0  0  0  0
    4.7280    0.7140   18.2600 C   0  0  0  0  0  0  0  0  0  0  0  0
    2.9670    1.4870   24.4110 O   0  0  0  0  0  0  0  0  0  0  0  0
    9.3240   -5.9350   26.4450 C   0  0  0  0  0  0  0  0  0  0  0  0
    8.2660   -5.4480   27.1770 C   0  0  0  0  0  0  0  0  0  0  0  0
   10.4330   -0.1050   24.3100 C   0  0  0  0  0  0  0  0  0  0  0  0
   12.2900   -0.8780   23.0260 C   0  0  0  0  0  0  0  0  0  0  0  0
    7.3860   -6.1020   28.4830 Cl  0  0  0  0  0  0  0  0  0  0  0  0
   13.0810   -1.9520   22.3620 C   0  0  0  0  0  0  0  0  0  0  0  0
   10.8540    1.3900   24.2210 C   0  0  0  0  0  0  0  0  0  0  0  0
   12.7530    0.3690   22.8980 C   0  0  0  0  0  0  0  0  0  0  0  0
   12.1550    1.5040   23.4190 C   0  0  0  0  0  0  0  0  0  0  0  0
  1  2  1  0
  1  3  2  0
  1  4  1  0
  4  5  1  0
  4  6  1  0
  5  7  1  0
  5  8  1  1
  6  9  1  0
  6 10  1  6
  7 11  1  0
  7 12  1  6
  8 13  1  0
  9 13  1  0
 10 14  1  0
 10 15  1  0
 14 15  1  0
 11 16  1  1
 13 17  1  0
 12 18  1  0
 11 19  1  0
 18 19  2  0
 16 20  1  0
 17 21  1  6
 17 22  1  0
 18 23  1  0
 19 24  1  0
 20 25  1  0
 22 26  2  0
 22 27  1  0
 21 28  1  0
 23 29  2  0
 24 30  2  0
 29 30  1  0
 25 31  2  0
 26 32  1  0
 27 33  1  0
 32 33  2  0
 28 34  2  0
 28 35  1  0
 33 36  1  0
 35 37  1  0
 34 38  1  0
 35 39  2  0
 38 40  2  0
 39 40  1  0
M  END
