x1334_0-x0831_0
     RDKit          3D

 16 17  0  0  0  0  0  0  0  0999 V2000
    9.5920   -3.2760   23.6150 C   0  0  0  0  0  0  0  0  0  0  0  0
    9.1580   -4.0600   24.8650 C   0  0  0  0  0  0  0  0  0  0  0  0
    9.8320   -5.3540   25.2340 C   0  0  0  0  0  0  0  0  0  0  0  0
    9.0770   -1.8290   23.4930 C   0  0  0  0  0  0  0  0  0  0  0  0
    7.8480   -3.6000   26.0230 S   0  0  0  0  0  0  0  0  0  0  0  0
    9.3210   -1.1350   24.6800 C   0  0  0  0  0  0  0  0  0  0  0  0
    9.2480   -5.9450   26.4630 C   0  0  0  0  0  0  0  0  0  0  0  0
    8.1280   -5.1160   27.0460 C   0  0  0  0  0  0  0  0  0  0  0  0
   10.0660    0.1720   24.4680 C   0  0  0  0  0  0  0  0  0  0  0  0
    7.3010   -5.6930   28.5280 Cl  0  0  0  0  0  0  0  0  0  0  0  0
   10.8420   -0.8200   23.7280 C   0  0  0  0  0  0  0  0  0  0  0  0
   10.9810    1.3930   24.1270 C   0  0  0  0  0  0  0  0  0  0  0  0
   12.1490    1.5270   23.3980 C   0  0  0  0  0  0  0  0  0  0  0  0
   12.0370   -0.8010   22.9440 C   0  0  0  0  0  0  0  0  0  0  0  0
   12.5810   -2.0720   22.2830 C   0  0  0  0  0  0  0  0  0  0  0  0
   12.7390    0.3270   22.7510 C   0  0  0  0  0  0  0  0  0  0  0  0
  1  2  1  0
  2  3  2  0
  1  4  1  0
  2  5  1  0
  4  6  1  0
  3  7  1  0
  5  8  1  0
  7  8  2  0
  6  9  1  0
  8 10  1  0
  9 11  2  0
  9 12  1  0
 12 13  2  0
 11 14  1  0
 14 15  1  0
 13 16  1  0
 14 16  2  0
M  END
