x1334_1-x0692_1-x0831_0-x0434_2-x0770_1-x1385_1-x1334_0-x0397_0-x1374_1-x0426_1-x0831_1
     RDKit          3D

 45 51  0  0  0  0  0  0  0  0999 V2000
    2.0670   -7.1140   23.6530 O   0  0  0  0  0  0  0  0  0  0  0  0
    2.5850   -7.3930   24.9450 C   0  0  0  0  0  0  0  0  0  0  0  0
    3.9510   -7.7620   24.8880 O   0  0  0  0  0  0  0  0  0  0  0  0
    4.5690   -7.1630   23.7660 C   0  0  0  0  0  0  0  0  0  0  0  0
    5.0530   -5.8060   24.1630 C   0  0  0  0  0  0  0  0  0  0  0  0
    6.0180   -5.2520   23.1600 C   0  0  2  0  0  0  0  0  0  0  0  0
    5.7180   -4.3300   22.2680 C   0  0  2  0  0  0  0  0  0  0  0  0
    6.1510   -5.8860   21.9110 C   0  0  0  0  0  0  0  0  0  0  0  0
    6.6480   -3.1230   22.2570 C   0  0  2  0  0  0  0  0  0  0  0  0
    6.7410   -2.5120   20.9060 N   0  0  0  0  0  0  0  0  0  0  0  0
    7.8880   -3.4000   22.8330 C   0  0  0  0  0  0  0  0  0  0  0  0
    6.3830   -3.3220   19.8240 C   0  0  0  0  0  0  0  0  0  0  0  0
    8.6560   -2.1810   22.8580 N   0  0  0  0  0  0  0  0  0  0  0  0
    7.9070   -1.6010   20.7190 C   0  0  1  0  0  0  0  0  0  0  0  0
    7.3100   -3.0760   18.6560 C   0  0  0  0  0  0  0  0  0  0  0  0
    5.4710   -4.1660   19.7500 O   0  0  0  0  0  0  0  0  0  0  0  0
    9.5790   -1.9760   23.8510 C   0  0  1  0  0  0  0  0  0  0  0  0
    7.5690   -0.2590   20.8920 N   0  0  0  0  0  0  0  0  0  0  0  0
    9.0960   -1.9290   21.6230 C   0  0  0  0  0  0  0  0  0  0  0  0
   10.2610   -3.2580   24.1530 C   0  0  0  0  0  0  0  0  0  0  0  0
    7.2180    0.3030   22.2440 C   0  0  0  0  0  0  0  0  0  0  0  0
    6.6800    0.2970   19.9150 C   0  0  0  0  0  0  0  0  0  0  0  0
   10.5760   -0.7970   23.6580 C   0  0  0  0  0  0  0  0  0  0  0  0
    5.7220    0.5540   22.1280 C   0  0  2  0  0  0  0  0  0  0  0  0
    6.6870    0.4360   18.5510 N   0  0  0  0  0  0  0  0  0  0  0  0
    5.5220    0.8200   20.6770 C   0  0  0  0  0  0  0  0  0  0  0  0
   10.2010    0.4700   24.0610 C   0  0  0  0  0  0  0  0  0  0  0  0
   11.9000   -0.9120   23.0750 C   0  0  0  0  0  0  0  0  0  0  0  0
    9.6130   -4.1380   25.1810 C   0  0  0  0  0  0  0  0  0  0  0  0
    5.1280    1.7810   22.8200 C   0  0  0  0  0  0  0  0  0  0  0  0
   12.4780   -2.1910   22.5690 C   0  0  0  0  0  0  0  0  0  0  0  0
    4.3940    1.4950   20.0930 C   0  0  0  0  0  0  0  0  0  0  0  0
    5.6210    1.0860   17.9660 C   0  0  0  0  0  0  0  0  0  0  0  0
   10.9900    1.5850   23.9460 C   0  0  0  0  0  0  0  0  0  0  0  0
   12.7110    0.2400   22.9590 C   0  0  0  0  0  0  0  0  0  0  0  0
    9.9750   -5.4090   25.5190 C   0  0  0  0  0  0  0  0  0  0  0  0
    8.2580   -3.7350   26.1750 S   0  0  0  0  0  0  0  0  0  0  0  0
    3.6110    1.7860   22.5130 C   0  0  2  0  0  0  0  0  0  0  0  0
    3.3090    1.9710   21.0140 C   0  0  0  0  0  0  0  0  0  0  0  0
    4.4890    1.6310   18.5910 C   0  0  0  0  0  0  0  0  0  0  0  0
   12.2790    1.4750   23.3830 C   0  0  0  0  0  0  0  0  0  0  0  0
    9.2840   -6.0490   26.4870 C   0  0  0  0  0  0  0  0  0  0  0  0
    8.2840   -5.2480   26.9760 C   0  0  0  0  0  0  0  0  0  0  0  0
    2.9640    2.8450   23.2880 N   0  0  0  0  0  0  0  0  0  0  0  0
    7.1640   -5.6240   28.2140 Cl  0  0  0  0  0  0  0  0  0  0  0  0
  1  2  1  0
  2  3  1  0
  3  4  1  0
  4  5  1  0
  6  5  1  1
  6  7  1  0
  6  8  1  0
  7  8  1  6
  7  9  1  0
  9 10  1  0
  9 11  1  6
 10 12  1  0
 11 13  1  0
 10 14  1  0
 12 15  1  0
 12 16  2  0
 13 17  1  0
 14 18  1  1
 13 19  1  0
 14 19  1  0
 17 20  1  6
 18 21  1  0
 18 22  1  0
 17 23  1  0
 24 21  1  6
 22 25  2  0
 22 26  1  0
 24 26  1  0
 23 27  2  0
 23 28  1  0
 20 29  1  0
 24 30  1  0
 28 31  1  0
 26 32  2  0
 25 33  1  0
 27 34  1  0
 28 35  2  0
 29 36  2  0
 29 37  1  0
 30 38  1  0
 32 39  1  0
 38 39  1  0
 32 40  1  0
 33 40  2  0
 34 41  2  0
 35 41  1  0
 36 42  1  0
 37 43  1  0
 42 43  2  0
 38 44  1  1
 43 45  1  0
M  END
