x1334_0-x1412_1-x1385_1-x0831_0
     RDKit          3D

 24 26  0  0  0  0  0  0  0  0999 V2000
    6.3340   -3.3400   19.8940 C   0  0  0  0  0  0  0  0  0  0  0  0
    7.3680   -3.0370   18.8210 C   0  0  0  0  0  0  0  0  0  0  0  0
    5.3510   -4.0390   19.6510 O   0  0  0  0  0  0  0  0  0  0  0  0
    6.5360   -2.8610   21.1590 N   0  0  0  0  0  0  0  0  0  0  0  0
    7.4510   -1.7080   21.2630 C   0  0  0  0  0  0  0  0  0  0  0  0
    6.3410   -3.7060   22.3490 C   0  0  0  0  0  0  0  0  0  0  0  0
    8.6510   -1.9470   22.1770 C   0  0  0  0  0  0  0  0  0  0  0  0
    7.6590   -3.9500   23.0630 C   0  0  0  0  0  0  0  0  0  0  0  0
    8.2760   -2.6720   23.3900 N   0  0  0  0  0  0  0  0  0  0  0  0
    9.2380   -2.6360   24.4630 C   0  0  2  0  0  0  0  0  0  0  0  0
   10.7230   -2.6430   24.0130 C   0  0  0  0  0  0  0  0  0  0  0  0
    9.0260   -3.8160   25.4100 C   0  0  0  0  0  0  0  0  0  0  0  0
    9.8270   -5.0940   25.3820 C   0  0  0  0  0  0  0  0  0  0  0  0
    7.8550   -3.8680   26.6310 S   0  0  0  0  0  0  0  0  0  0  0  0
   11.1830   -1.2050   23.8170 C   0  0  0  0  0  0  0  0  0  0  0  0
    9.3760   -5.9420   26.3740 C   0  0  0  0  0  0  0  0  0  0  0  0
    8.3210   -5.4090   27.1200 C   0  0  0  0  0  0  0  0  0  0  0  0
   10.5050   -0.1760   24.4190 C   0  0  0  0  0  0  0  0  0  0  0  0
   12.2900   -0.9020   23.0270 C   0  0  0  0  0  0  0  0  0  0  0  0
    7.4530   -6.0790   28.4260 Cl  0  0  0  0  0  0  0  0  0  0  0  0
   13.0560   -1.9690   22.3270 C   0  0  0  0  0  0  0  0  0  0  0  0
   10.9050    1.1510   24.2530 C   0  0  0  0  0  0  0  0  0  0  0  0
   12.7000    0.4170   22.8700 C   0  0  0  0  0  0  0  0  0  0  0  0
   12.0560    1.4980   23.4520 C   0  0  0  0  0  0  0  0  0  0  0  0
  1  2  1  0
  1  3  2  0
  1  4  1  0
  4  5  1  0
  4  6  1  0
  5  7  1  0
  6  8  1  0
  7  9  1  0
  8  9  1  0
  9 10  1  0
 10 11  1  6
 10 12  1  0
 12 13  2  0
 12 14  1  0
 11 15  1  0
 13 16  1  0
 14 17  1  0
 16 17  2  0
 15 18  2  0
 15 19  1  0
 17 20  1  0
 19 21  1  0
 18 22  1  0
 19 23  2  0
 22 24  2  0
 23 24  1  0
M  END
