x1348
     RDKit          3D

 16 17  0  0  0  0  0  0  0  0999 V2000
    7.1940   -3.8280   21.2540 N   0  0  0  0  0  0  0  0  0  0  0  0
    7.7760   -4.7420   27.6010 C   0  0  0  0  0  0  0  0  0  0  0  0
    7.6140   -4.8140   26.1840 O   0  0  0  0  0  0  0  0  0  0  0  0
    6.5060   -5.4280   25.6880 C   0  0  0  0  0  0  0  0  0  0  0  0
    7.1570   -4.5990   23.4500 N   0  0  0  0  0  0  0  0  0  0  0  0
    5.6710   -4.2490   19.6330 O   0  0  0  0  0  0  0  0  0  0  0  0
    5.5900   -6.1580   26.4410 C   0  0  0  0  0  0  0  0  0  0  0  0
    4.4880   -6.7500   25.8190 C   0  0  0  0  0  0  0  0  0  0  0  0
    4.2820   -6.6300   24.4620 C   0  0  0  0  0  0  0  0  0  0  0  0
    5.2070   -5.9010   23.7230 C   0  0  0  0  0  0  0  0  0  0  0  0
    6.6330   -4.5910   22.2580 C   0  0  0  0  0  0  0  0  0  0  0  0
    6.6940   -3.6860   19.9870 C   0  0  0  0  0  0  0  0  0  0  0  0
    7.4990   -2.7930   19.0740 C   0  0  0  0  0  0  0  0  0  0  0  0
    6.3250   -5.2930   24.3140 C   0  0  0  0  0  0  0  0  0  0  0  0
    5.2140   -5.5800   22.0090 S   0  0  0  0  0  0  0  0  0  0  0  0
    8.9970   -3.5760   18.4100 R   0  0  0  0  0  0  0  0  0  0  0  0
  2  3  1  0
  3  4  1  0
  4  7  2  0
  7  8  1  0
  8  9  2  0
  9 10  1  0
  1 11  1  0
  5 11  2  0
  1 12  1  0
  6 12  2  0
 12 13  1  0
  4 14  1  0
  5 14  1  0
 10 14  2  0
 10 15  1  0
 11 15  1  0
 13 16  1  0
M  END
