x1348_0-x0749_1-x0978_0
     RDKit          3D

  9  9  0  0  0  0  0  0  0  0999 V2000
    6.4460   -3.8570   20.0940 C   0  0  0  0  0  0  0  0  0  0  0  0
    7.4130   -3.1310   19.1590 C   0  0  0  0  0  0  0  0  0  0  0  0
    5.3050   -4.0870   19.7010 O   0  0  0  0  0  0  0  0  0  0  0  0
    6.8330   -4.3540   21.3390 N   0  0  0  0  0  0  0  0  0  0  0  0
    8.0650   -3.8070   21.9880 C   0  0  0  0  0  0  0  0  0  0  0  0
    6.2350   -5.4400   21.9990 C   0  0  0  0  0  0  0  0  0  0  0  0
    8.3520   -4.3390   23.3710 C   0  0  0  0  0  0  0  0  0  0  0  0
    6.9780   -6.3280   22.9750 C   0  0  0  0  0  0  0  0  0  0  0  0
    8.3820   -5.8540   23.3540 C   0  0  0  0  0  0  0  0  0  0  0  0
  1  2  1  0
  1  3  2  0
  1  4  1  0
  4  5  1  0
  4  6  1  0
  5  7  1  0
  6  8  1  0
  7  9  1  0
  8  9  1  0
M  END
