x1348_1-x1382_1
     RDKit          3D

 23 26  0  0  0  0  0  0  0  0999 V2000
    7.4540   -4.9880   26.4710 N   0  0  0  0  0  0  0  0  0  0  0  0
    7.7180   -5.3180   27.8720 C   0  0  0  0  0  0  0  0  0  0  0  0
    8.5320   -4.8020   25.5180 C   0  0  0  0  0  0  0  0  0  0  0  0
    6.2230   -5.2080   25.7230 C   0  0  1  0  0  0  0  0  0  0  0  0
    8.0610   -3.8980   24.3800 C   0  0  2  0  0  0  0  0  0  0  0  0
    6.5910   -5.5890   24.3140 C   0  0  2  0  0  0  0  0  0  0  0  0
    5.4450   -6.1620   26.3500 C   0  0  0  0  0  0  0  0  0  0  0  0
    7.9710   -2.4710   24.9100 C   0  0  0  0  0  0  0  0  0  0  0  0
    6.9590   -4.4730   23.8560 N   0  0  0  0  0  0  0  0  0  0  0  0
    5.5050   -6.0860   23.5770 C   0  0  2  0  0  0  0  0  0  0  0  0
    4.4320   -6.7220   25.5720 C   0  0  0  0  0  0  0  0  0  0  0  0
    7.7730   -1.3050   23.9220 C   0  0  0  0  0  0  0  0  0  0  0  0
    6.5610   -4.3820   22.4950 C   0  0  0  0  0  0  0  0  0  0  0  0
    5.3420   -5.5170   21.8060 S   0  0  0  0  0  0  0  0  0  0  0  0
    4.2840   -6.2920   24.2790 C   0  0  0  0  0  0  0  0  0  0  0  0
    8.5890   -1.4650   22.6880 C   0  0  0  0  0  0  0  0  0  0  0  0
   10.0020   -1.0010   22.8130 C   0  0  0  0  0  0  0  0  0  0  0  0
   10.9400   -1.6530   22.0610 C   0  0  0  0  0  0  0  0  0  0  0  0
   10.3780    0.0620   23.6580 C   0  0  0  0  0  0  0  0  0  0  0  0
   12.2480   -1.2940   22.1020 C   0  0  0  0  0  0  0  0  0  0  0  0
   11.7280    0.4450   23.7120 C   0  0  0  0  0  0  0  0  0  0  0  0
   13.2910   -2.1550   21.1270 Cl  0  0  0  0  0  0  0  0  0  0  0  0
   12.6320   -0.2520   22.9230 C   0  0  0  0  0  0  0  0  0  0  0  0
  1  2  1  0
  1  3  1  0
  1  4  1  0
  3  5  1  0
  4  6  1  0
  4  7  1  1
  5  8  1  1
  5  9  1  0
  6  9  1  6
  6 10  1  0
  7 11  2  0
  8 12  1  0
  9 13  1  0
 10 14  1  0
 13 14  2  0
 10 15  1  1
 11 15  1  0
 12 16  1  0
 16 17  1  0
 17 18  2  0
 17 19  1  0
 18 20  1  0
 19 21  2  0
 20 22  1  0
 20 23  2  0
 21 23  1  0
M  END
