x1348_0-x0831_1-x1418_0
     RDKit          3D

 16 17  0  0  0  0  0  0  0  0999 V2000
    6.1710   -3.5280   20.0250 C   0  0  0  0  0  0  0  0  0  0  0  0
    7.1630   -3.0410   18.9590 C   0  0  0  0  0  0  0  0  0  0  0  0
    5.2630   -4.3100   19.7890 O   0  0  0  0  0  0  0  0  0  0  0  0
    6.3820   -3.0120   21.3170 N   0  0  0  0  0  0  0  0  0  0  0  0
    6.1150   -1.5640   21.4220 C   0  0  0  0  0  0  0  0  0  0  0  0
    7.1430   -3.6830   22.3800 C   0  0  0  0  0  0  0  0  0  0  0  0
    7.4060   -0.6880   21.2390 C   0  0  0  0  0  0  0  0  0  0  0  0
    7.5620   -2.8150   23.3860 C   0  0  0  0  0  0  0  0  0  0  0  0
    8.6850   -1.9200   23.0480 N   0  0  0  0  0  0  0  0  0  0  0  0
    8.7060   -1.4180   21.6780 C   0  0  0  0  0  0  0  0  0  0  0  0
    9.9110   -2.4570   23.4360 C   0  0  0  0  0  0  0  0  0  0  0  0
   10.9490   -1.3810   23.4290 C   0  0  0  0  0  0  0  0  0  0  0  0
   12.1140   -1.4180   22.6300 C   0  0  0  0  0  0  0  0  0  0  0  0
   10.8500    0.0600   24.3820 S   0  0  0  0  0  0  0  0  0  0  0  0
   12.8950   -0.1740   22.8570 C   0  0  0  0  0  0  0  0  0  0  0  0
   12.3260    0.6870   23.7560 C   0  0  0  0  0  0  0  0  0  0  0  0
  1  2  1  0
  1  3  2  0
  1  4  1  0
  4  5  1  0
  4  6  1  0
  5  7  1  0
  6  8  1  0
  8  9  1  0
  7 10  1  0
  9 10  1  0
  9 11  1  0
 11 12  1  0
 12 13  2  0
 12 14  1  0
 13 15  1  0
 14 16  1  0
 15 16  2  0
M  END
