x1348_0-x0831_0-x1493_0-x0072_0
     RDKit          3D

 26 28  0  0  0  0  0  0  0  0999 V2000
    4.6900   -6.3560   25.8270 C   0  0  0  0  0  0  0  0  0  0  0  0
    5.9060   -5.5310   25.4670 C   0  0  0  0  0  0  0  0  0  0  0  0
    6.8360   -5.3290   26.5450 N   0  0  0  0  0  0  0  0  0  0  0  0
    6.0530   -5.0460   24.1680 N   0  0  0  0  0  0  0  0  0  0  0  0
    8.2350   -4.3860   26.1790 S   0  0  0  0  0  0  0  0  0  0  0  0
    7.4250   -4.7170   23.7390 C   0  0  2  0  0  0  0  0  0  0  0  0
    5.2160   -5.6090   23.0970 C   0  0  0  0  0  0  0  0  0  0  0  0
    7.9640   -3.6790   24.6400 N   0  0  0  0  0  0  0  0  0  0  0  0
    9.3520   -5.3100   26.0660 O   0  0  0  0  0  0  0  0  0  0  0  0
    8.2480   -3.2960   27.1220 O   0  0  0  0  0  0  0  0  0  0  0  0
    7.5290   -4.5300   22.3730 C   0  0  2  0  0  0  0  0  0  0  0  0
    5.9340   -6.3410   22.1360 C   0  0  0  0  0  0  0  0  0  0  0  0
    6.6570   -3.5550   21.6890 N   0  0  0  0  0  0  0  0  0  0  0  0
    8.6360   -2.4180   24.2400 C   0  0  0  0  0  0  0  0  0  0  0  0
    7.1580   -5.7080   21.6050 N   0  0  0  0  0  0  0  0  0  0  0  0
    6.4080   -3.8070   20.3100 C   0  0  0  0  0  0  0  0  0  0  0  0
    9.9330   -2.5030   23.3690 C   0  0  0  0  0  0  0  0  0  0  0  0
    5.4880   -4.5490   19.9430 O   0  0  0  0  0  0  0  0  0  0  0  0
    7.2980   -3.1400   19.2500 C   0  0  0  0  0  0  0  0  0  0  0  0
   10.7020   -1.1790   23.3840 C   0  0  0  0  0  0  0  0  0  0  0  0
   10.1030    0.0300   24.1210 C   0  0  0  0  0  0  0  0  0  0  0  0
   11.9690   -0.9600   22.7580 C   0  0  0  0  0  0  0  0  0  0  0  0
   12.7260   -2.0510   21.9630 C   0  0  0  0  0  0  0  0  0  0  0  0
   10.8210    1.3820   24.1750 C   0  0  0  0  0  0  0  0  0  0  0  0
   12.5700    0.2880   22.8530 C   0  0  0  0  0  0  0  0  0  0  0  0
   12.0410    1.3970   23.5130 C   0  0  0  0  0  0  0  0  0  0  0  0
  1  2  1  0
  2  3  2  0
  2  4  1  0
  5  3  1  0
  4  6  1  0
  4  7  1  0
  5  8  1  0
  6  8  1  1
  5  9  2  0
  5 10  2  0
  6 11  1  0
  7 12  1  0
 11 13  1  6
  8 14  1  0
 11 15  1  0
 12 15  1  0
 13 16  1  0
 14 17  1  0
 16 18  2  0
 16 19  1  0
 17 20  1  0
 20 21  2  0
 20 22  1  0
 22 23  1  0
 21 24  1  0
 22 25  2  0
 24 26  2  0
 25 26  1  0
M  END
