x1348_0-x1348_1-x1418_0
     RDKit          3D

 23 25  0  0  0  0  0  0  0  0999 V2000
    6.8720   -3.3550   21.3950 N   0  0  0  0  0  0  0  0  0  0  0  0
    6.4530   -3.5710   20.0700 C   0  0  0  0  0  0  0  0  0  0  0  0
    5.4110   -4.1770   19.7790 O   0  0  0  0  0  0  0  0  0  0  0  0
    7.7290   -2.3420   21.7870 C   0  0  0  0  0  0  0  0  0  0  0  0
    6.3620   -4.2100   22.4310 C   0  0  0  0  0  0  0  0  0  0  0  0
    7.3560   -3.0790   18.9610 C   0  0  0  0  0  0  0  0  0  0  0  0
    9.0070   -2.9170   22.4100 C   0  0  0  0  0  0  0  0  0  0  0  0
    6.8460   -4.2040   23.6410 N   0  0  0  0  0  0  0  0  0  0  0  0
    5.0710   -5.2850   22.1720 S   0  0  0  0  0  0  0  0  0  0  0  0
    9.5030   -2.2840   23.7030 C   0  0  0  0  0  0  0  0  0  0  0  0
    6.1370   -5.1160   24.5350 C   0  0  0  0  0  0  0  0  0  0  0  0
    5.1100   -5.7910   23.8740 C   0  0  0  0  0  0  0  0  0  0  0  0
    6.4290   -5.3080   25.9240 C   0  0  0  0  0  0  0  0  0  0  0  0
    4.1870   -6.7980   24.5660 C   0  0  0  0  0  0  0  0  0  0  0  0
   10.6950   -1.4100   23.4840 C   0  0  0  0  0  0  0  0  0  0  0  0
    7.4790   -4.5760   26.4280 O   0  0  0  0  0  0  0  0  0  0  0  0
    5.5760   -6.2940   26.7820 C   0  0  0  0  0  0  0  0  0  0  0  0
    4.4400   -7.0230   26.0210 C   0  0  0  0  0  0  0  0  0  0  0  0
   11.7920   -1.5500   22.6190 C   0  0  0  0  0  0  0  0  0  0  0  0
   10.8190    0.0400   24.4100 S   0  0  0  0  0  0  0  0  0  0  0  0
    8.0080   -4.9610   27.6960 C   0  0  0  0  0  0  0  0  0  0  0  0
   12.7640   -0.4050   22.7250 C   0  0  0  0  0  0  0  0  0  0  0  0
   12.3000    0.5800   23.7260 C   0  0  0  0  0  0  0  0  0  0  0  0
  1  2  1  0
  2  3  2  0
  1  4  1  0
  1  5  1  0
  2  6  1  0
  4  7  1  0
  5  8  2  0
  5  9  1  0
  7 10  1  0
  8 11  1  0
  9 12  1  0
 11 12  2  0
 11 13  1  0
 12 14  1  0
 10 15  1  0
 13 16  1  0
 13 17  2  0
 14 18  2  0
 17 18  1  0
 15 19  2  0
 15 20  1  0
 16 21  1  0
 19 22  1  0
 20 23  1  0
 22 23  2  0
M  END
