x1348_0-x1418_0-x0981_1
     RDKit          3D

 25 25  0  0  0  0  0  0  0  0999 V2000
    4.1630   -5.5190   23.2090 C   0  0  0  0  0  0  0  0  0  0  0  0
    2.8050   -6.0730   23.5590 C   0  0  1  0  0  0  0  0  0  0  0  0
    2.4440   -7.2360   22.7380 N   0  0  0  0  0  0  0  0  0  0  0  0
    4.6690   -4.5540   23.8990 N   0  0  0  0  0  0  0  0  0  0  0  0
    2.6370   -6.2890   25.0690 C   0  0  0  0  0  0  0  0  0  0  0  0
    5.9780   -4.0900   23.4470 C   0  0  0  0  0  0  0  0  0  0  0  0
    1.3040   -7.5160   22.0660 C   0  0  0  0  0  0  0  0  0  0  0  0
    3.0680   -7.7040   25.3600 C   0  0  0  0  0  0  0  0  0  0  0  0
    5.8720   -2.9970   22.3770 C   0  0  0  0  0  0  0  0  0  0  0  0
    1.2130   -8.7840   21.2440 C   0  0  0  0  0  0  0  0  0  0  0  0
    0.3570   -6.7350   22.0990 O   0  0  0  0  0  0  0  0  0  0  0  0
    2.4380   -8.3410   26.3870 N   0  0  0  0  0  0  0  0  0  0  0  0
    3.9390   -8.2150   24.6880 O   0  0  0  0  0  0  0  0  0  0  0  0
    6.9240   -3.1210   21.3780 N   0  0  0  0  0  0  0  0  0  0  0  0
    6.5780   -3.5000   20.0720 C   0  0  0  0  0  0  0  0  0  0  0  0
    8.1040   -2.3080   21.7470 C   0  0  0  0  0  0  0  0  0  0  0  0
    5.5680   -4.1780   19.8100 O   0  0  0  0  0  0  0  0  0  0  0  0
    7.5020   -3.0730   18.9410 C   0  0  0  0  0  0  0  0  0  0  0  0
    9.3100   -3.1490   22.1970 C   0  0  0  0  0  0  0  0  0  0  0  0
    9.9350   -2.7570   23.5370 C   0  0  0  0  0  0  0  0  0  0  0  0
   10.8280   -1.7000   23.4950 C   0  0  0  0  0  0  0  0  0  0  0  0
   12.0320   -1.5820   22.5100 C   0  0  0  0  0  0  0  0  0  0  0  0
   10.7610   -0.2290   24.5980 S   0  0  0  0  0  0  0  0  0  0  0  0
   12.7600   -0.2690   22.7920 C   0  0  0  0  0  0  0  0  0  0  0  0
   12.1470    0.4630   23.8460 C   0  0  0  0  0  0  0  0  0  0  0  0
  2  1  1  1
  2  3  1  0
  1  4  2  3
  2  5  1  0
  4  6  1  0
  3  7  1  0
  5  8  1  0
  6  9  1  0
  7 10  1  0
  7 11  2  0
  8 12  1  0
  8 13  2  0
  9 14  1  0
 14 15  1  0
 14 16  1  0
 15 17  2  0
 15 18  1  0
 16 19  1  0
 19 20  1  0
 20 21  1  0
 21 22  2  0
 21 23  1  0
 22 24  1  0
 23 25  1  0
 24 25  2  0
M  END
