x1358_1-x0540_3-x0107_0
     RDKit          3D

 28 29  0  0  0  0  0  0  0  0999 V2000
    6.0030   -3.2110   25.1470 C   0  0  0  0  0  0  0  0  0  0  0  0
    6.1390   -3.5150   23.6640 C   0  0  2  0  0  0  0  0  0  0  0  0
    6.1630   -5.0520   23.4780 C   0  0  0  0  0  0  0  0  0  0  0  0
    4.9410   -3.3320   25.7480 O   0  0  0  0  0  0  0  0  0  0  0  0
    7.3550   -2.7940   23.0300 C   0  0  2  0  0  0  0  0  0  0  0  0
    6.9790   -1.3430   22.5990 C   0  0  0  0  0  0  0  0  0  0  0  0
    7.8070   -3.6090   22.0370 C   0  0  0  0  0  0  0  0  0  0  0  0
    6.2280   -5.4140   22.1250 C   0  0  0  0  0  0  0  0  0  0  0  0
    7.6070   -0.8340   21.3640 N   0  0  0  0  0  0  0  0  0  0  0  0
    6.8320   -4.3010   21.3990 N   0  0  0  0  0  0  0  0  0  0  0  0
    6.4000   -3.9170   20.1300 C   0  0  0  0  0  0  0  0  0  0  0  0
    8.8440   -0.2680   21.6100 C   0  0  0  0  0  0  0  0  0  0  0  0
    6.7270   -0.2690   20.3090 C   0  0  0  0  0  0  0  0  0  0  0  0
    5.2720   -4.2270   19.7540 O   0  0  0  0  0  0  0  0  0  0  0  0
    7.3300   -3.1740   19.1710 C   0  0  0  0  0  0  0  0  0  0  0  0
    9.9640   -1.1550   22.1740 C   0  0  0  0  0  0  0  0  0  0  0  0
    9.0660    0.9300   21.3970 O   0  0  0  0  0  0  0  0  0  0  0  0
    5.3460    0.3100   20.4550 C   0  0  0  0  0  0  0  0  0  0  0  0
    7.1090   -0.1900   18.8510 C   0  0  0  0  0  0  0  0  0  0  0  0
    4.6360    0.3570   21.7690 C   0  0  0  0  0  0  0  0  0  0  0  0
    4.6420    0.8400   19.3380 C   0  0  0  0  0  0  0  0  0  0  0  0
    6.3970    0.3310   17.8240 N   0  0  0  0  0  0  0  0  0  0  0  0
    5.3970    0.9000   22.9610 C   0  0  0  0  0  0  0  0  0  0  0  0
    5.2000    0.8350   18.0740 C   0  0  0  0  0  0  0  0  0  0  0  0
    5.3490    2.2730   23.0270 C   0  0  0  0  0  0  0  0  0  0  0  0
    4.0190    2.7460   22.6070 N   0  0  0  0  0  0  0  0  0  0  0  0
    2.9380    2.2090   23.4730 C   0  0  0  0  0  0  0  0  0  0  0  0
    3.0290    1.4530   24.4610 O   0  0  0  0  0  0  0  0  0  0  0  0
  2  1  1  1
  2  3  1  0
  1  4  2  0
  2  5  1  0
  5  6  1  6
  5  7  1  0
  3  8  1  0
  6  9  1  0
  7 10  1  0
  8 10  1  0
 10 11  1  0
  9 12  1  0
  9 13  1  0
 11 14  2  0
 11 15  1  0
 12 16  1  0
 12 17  2  0
 13 18  2  0
 13 19  1  0
 18 20  1  0
 18 21  1  0
 19 22  2  0
 20 23  1  0
 21 24  2  0
 22 24  1  0
 23 25  1  0
 25 26  1  0
 26 27  1  0
 27 28  2  0
M  END
