x1358_1-x1351_1-x0395_1
     RDKit          3D

 20 21  0  0  0  0  0  0  0  0999 V2000
    6.1920   -3.1760   25.2550 C   0  0  0  0  0  0  0  0  0  0  0  0
    6.3800   -3.3840   23.7690 C   0  0  2  0  0  0  0  0  0  0  0  0
    6.2160   -4.8510   23.3720 C   0  0  0  0  0  0  0  0  0  0  0  0
    5.1190   -3.3950   25.8130 O   0  0  0  0  0  0  0  0  0  0  0  0
    7.6680   -2.7130   23.2470 C   0  0  1  0  0  0  0  0  0  0  0  0
    9.0130   -3.1500   23.8630 C   0  0  0  0  0  0  0  0  0  0  0  0
    7.7510   -2.8920   21.7580 C   0  0  0  0  0  0  0  0  0  0  0  0
    6.5590   -5.0790   21.9870 C   0  0  0  0  0  0  0  0  0  0  0  0
   10.0120   -2.0450   24.2600 C   0  0  0  0  0  0  0  0  0  0  0  0
    6.7210   -3.7970   21.2750 N   0  0  0  0  0  0  0  0  0  0  0  0
    6.2980   -3.7430   19.9640 C   0  0  0  0  0  0  0  0  0  0  0  0
   10.1960   -0.9890   23.2510 N   0  0  0  0  0  0  0  0  0  0  0  0
    5.1990   -4.1800   19.6750 O   0  0  0  0  0  0  0  0  0  0  0  0
    7.3020   -3.1420   18.9650 C   0  0  0  0  0  0  0  0  0  0  0  0
   11.0890   -1.4220   22.1430 C   0  0  0  0  0  0  0  0  0  0  0  0
   10.5400    0.3310   23.8280 C   0  0  0  0  0  0  0  0  0  0  0  0
   12.4550   -1.0440   22.2780 C   0  0  0  0  0  0  0  0  0  0  0  0
   11.5850    1.0060   23.3220 C   0  0  0  0  0  0  0  0  0  0  0  0
   13.4440   -1.8320   21.8360 F   0  0  0  0  0  0  0  0  0  0  0  0
   12.7010    0.1370   22.8510 C   0  0  0  0  0  0  0  0  0  0  0  0
  2  1  1  1
  2  3  1  0
  1  4  2  0
  2  5  1  0
  5  6  1  1
  5  7  1  0
  3  8  1  0
  6  9  1  0
  7 10  1  0
  8 10  1  0
 10 11  1  0
  9 12  1  0
 11 13  2  0
 11 14  1  0
 12 15  1  0
 12 16  1  0
 15 17  1  0
 16 18  1  0
 17 19  1  0
 17 20  2  0
 18 20  1  0
M  END
