x1358_0-x1385_1
     RDKit          3D

 18 19  0  0  0  0  0  0  0  0999 V2000
    6.3440   -3.2710   19.9060 C   0  0  0  0  0  0  0  0  0  0  0  0
    7.3170   -2.9640   18.7920 C   0  0  0  0  0  0  0  0  0  0  0  0
    5.4180   -4.0770   19.7310 O   0  0  0  0  0  0  0  0  0  0  0  0
    6.5480   -2.6260   21.1440 N   0  0  0  0  0  0  0  0  0  0  0  0
    6.1630   -3.2190   22.4210 C   0  0  0  0  0  0  0  0  0  0  0  0
    7.6210   -1.6150   21.2470 C   0  0  0  0  0  0  0  0  0  0  0  0
    7.3740   -3.7650   23.1830 C   0  0  0  0  0  0  0  0  0  0  0  0
    8.8300   -2.0490   22.1430 C   0  0  0  0  0  0  0  0  0  0  0  0
    8.4390   -2.7530   23.3900 N   0  0  0  0  0  0  0  0  0  0  0  0
    8.1060   -1.8160   24.4750 C   0  0  0  0  0  0  0  0  0  0  0  0
    7.3220   -2.2860   25.6310 N   0  0  0  0  0  0  0  0  0  0  0  0
    7.0540   -1.3470   26.7290 C   0  0  0  0  0  0  0  0  0  0  0  0
    7.6840   -1.4020   27.9840 C   0  0  0  0  0  0  0  0  0  0  0  0
    6.1130   -0.3150   26.5360 C   0  0  0  0  0  0  0  0  0  0  0  0
    5.4560   -0.2060   25.3340 O   0  0  0  0  0  0  0  0  0  0  0  0
    7.4490   -0.5340   29.0020 C   0  0  0  0  0  0  0  0  0  0  0  0
    5.8710    0.5880   27.5980 C   0  0  0  0  0  0  0  0  0  0  0  0
    6.5280    0.5070   28.8520 C   0  0  0  0  0  0  0  0  0  0  0  0
  1  2  1  0
  1  3  2  0
  1  4  1  0
  4  5  1  0
  4  6  1  0
  5  7  1  0
  6  8  1  0
  7  9  1  0
  8  9  1  0
  9 10  1  0
 10 11  1  0
 11 12  1  0
 12 13  2  0
 12 14  1  0
 14 15  1  0
 13 16  1  0
 14 17  2  0
 16 18  2  0
 17 18  1  0
M  END
