x1358_1-x0395_1-x1458_1-x0434_2
     RDKit          3D

 28 30  0  0  0  0  0  0  0  0999 V2000
    6.1000   -2.7520   25.0180 C   0  0  0  0  0  0  0  0  0  0  0  0
    6.5540   -3.8060   24.0380 C   0  0  1  0  0  0  0  0  0  0  0  0
    5.3810   -4.3270   23.1900 C   0  0  0  0  0  0  0  0  0  0  0  0
    5.0700   -2.8470   25.6810 O   0  0  0  0  0  0  0  0  0  0  0  0
    7.8080   -3.3860   23.2120 C   0  0  2  0  0  0  0  0  0  0  0  0
    8.1550   -1.9300   22.8650 C   0  0  2  0  0  0  0  0  0  0  0  0
    7.9770   -4.0490   22.0900 C   0  0  0  0  0  0  0  0  0  0  0  0
    5.8770   -5.0200   22.1580 C   0  0  0  0  0  0  0  0  0  0  0  0
    9.1210   -1.2320   23.8250 C   0  0  0  0  0  0  0  0  0  0  0  0
    6.9740   -1.1200   22.4080 C   0  0  0  0  0  0  0  0  0  0  0  0
    6.7030   -4.1040   21.4020 N   0  0  0  0  0  0  0  0  0  0  0  0
    6.3510   -3.8570   20.0740 C   0  0  0  0  0  0  0  0  0  0  0  0
    7.4200   -0.6280   21.0990 N   0  0  0  0  0  0  0  0  0  0  0  0
   10.2070   -0.6340   23.2260 N   0  0  0  0  0  0  0  0  0  0  0  0
    5.2480   -4.2310   19.7180 O   0  0  0  0  0  0  0  0  0  0  0  0
    7.3430   -3.1560   19.1240 C   0  0  0  0  0  0  0  0  0  0  0  0
   11.1260   -1.6540   22.5710 C   0  0  0  0  0  0  0  0  0  0  0  0
   10.8810    0.0930   24.1460 C   0  0  0  0  0  0  0  0  0  0  0  0
    6.6400    0.0100   20.1430 C   0  0  0  0  0  0  0  0  0  0  0  0
   12.3330   -1.0890   22.3090 C   0  0  0  0  0  0  0  0  0  0  0  0
   11.7890    0.9360   23.4950 C   0  0  0  0  0  0  0  0  0  0  0  0
    6.9610   -0.0130   18.6720 C   0  0  0  0  0  0  0  0  0  0  0  0
    5.4910    0.7340   20.4630 C   0  0  0  0  0  0  0  0  0  0  0  0
   13.2600   -1.7520   21.5900 F   0  0  0  0  0  0  0  0  0  0  0  0
   12.6330    0.2210   22.7900 C   0  0  0  0  0  0  0  0  0  0  0  0
    6.2540    0.5940   17.7050 N   0  0  0  0  0  0  0  0  0  0  0  0
    4.7570    1.3670   19.4460 C   0  0  0  0  0  0  0  0  0  0  0  0
    5.1690    1.2750   18.1060 C   0  0  0  0  0  0  0  0  0  0  0  0
  2  1  1  6
  2  3  1  0
  1  4  2  0
  2  5  1  0
  5  6  1  0
  5  7  1  6
  3  8  1  0
  6  9  1  1
  6 10  1  0
  7 11  1  0
  8 11  1  0
 11 12  1  0
 10 13  1  0
  9 14  1  0
 12 15  2  0
 12 16  1  0
 14 17  1  0
 14 18  1  0
 13 19  1  0
 17 20  1  0
 18 21  1  0
 19 22  2  0
 19 23  1  0
 20 24  1  0
 20 25  2  0
 21 25  1  0
 22 26  1  0
 23 27  2  0
 26 28  2  0
 27 28  1  0
M  END
