x1358_0-x1412_1
     RDKit          3D

 18 19  0  0  0  0  0  0  0  0999 V2000
    6.3540   -3.3750   19.9500 C   0  0  0  0  0  0  0  0  0  0  0  0
    7.2900   -3.0030   18.8160 C   0  0  0  0  0  0  0  0  0  0  0  0
    5.3850   -4.1130   19.7230 O   0  0  0  0  0  0  0  0  0  0  0  0
    6.6380   -2.9150   21.2250 N   0  0  0  0  0  0  0  0  0  0  0  0
    7.4750   -1.8730   21.5270 C   0  0  0  0  0  0  0  0  0  0  0  0
    6.2360   -3.7770   22.3210 C   0  0  0  0  0  0  0  0  0  0  0  0
    8.6470   -2.2200   22.4480 C   0  0  0  0  0  0  0  0  0  0  0  0
    7.3850   -3.9730   23.3660 C   0  0  0  0  0  0  0  0  0  0  0  0
    8.1870   -2.7730   23.6110 N   0  0  0  0  0  0  0  0  0  0  0  0
    7.6210   -1.8010   24.5580 C   0  0  0  0  0  0  0  0  0  0  0  0
    6.8600   -2.2780   25.7190 N   0  0  0  0  0  0  0  0  0  0  0  0
    6.7220   -1.3740   26.7780 C   0  0  0  0  0  0  0  0  0  0  0  0
    7.2560   -1.5710   28.2010 C   0  0  0  0  0  0  0  0  0  0  0  0
    6.0330   -0.1820   26.4980 C   0  0  0  0  0  0  0  0  0  0  0  0
    5.5450   -0.0130   25.2250 O   0  0  0  0  0  0  0  0  0  0  0  0
    7.0790   -0.6030   29.1730 C   0  0  0  0  0  0  0  0  0  0  0  0
    5.8180    0.9170   27.5670 C   0  0  0  0  0  0  0  0  0  0  0  0
    6.3270    0.7130   28.8600 C   0  0  0  0  0  0  0  0  0  0  0  0
  1  2  1  0
  1  3  2  0
  1  4  1  0
  4  5  1  0
  4  6  1  0
  5  7  1  0
  6  8  1  0
  7  9  1  0
  8  9  1  0
  9 10  1  0
 10 11  1  0
 11 12  1  0
 12 13  2  0
 12 14  1  0
 14 15  1  0
 13 16  1  0
 14 17  2  0
 16 18  2  0
 17 18  1  0
M  END
