x1358_1-x1386_0-x0540_3
     RDKit          3D

 25 26  0  0  0  0  0  0  0  0999 V2000
    5.9610   -3.2060   25.1930 C   0  0  0  0  0  0  0  0  0  0  0  0
    6.6730   -3.8080   23.9930 C   0  0  1  0  0  0  0  0  0  0  0  0
    5.7190   -4.7190   23.1620 C   0  0  0  0  0  0  0  0  0  0  0  0
    4.7630   -3.3340   25.4200 O   0  0  0  0  0  0  0  0  0  0  0  0
    7.2340   -2.8350   23.1470 C   0  0  1  0  0  0  0  0  0  0  0  0
    6.0980   -1.7540   23.0040 C   0  0  0  0  0  0  0  0  0  0  0  0
    8.4400   -2.2150   23.8990 C   0  0  0  0  0  0  0  0  0  0  0  0
    7.7900   -3.3280   21.9840 C   0  0  0  0  0  0  0  0  0  0  0  0
    6.3570   -5.1560   21.9950 C   0  0  0  0  0  0  0  0  0  0  0  0
    6.0120   -0.9680   21.6750 C   0  0  0  0  0  0  0  0  0  0  0  0
    9.7240   -2.6570   23.5450 C   0  0  0  0  0  0  0  0  0  0  0  0
    6.7490   -4.1240   21.3300 N   0  0  0  0  0  0  0  0  0  0  0  0
    6.3210   -3.8320   20.0490 C   0  0  0  0  0  0  0  0  0  0  0  0
    4.8960    0.1140   21.6660 C   0  0  0  0  0  0  0  0  0  0  0  0
   10.7560   -1.5270   23.3730 C   0  0  0  0  0  0  0  0  0  0  0  0
    5.1980   -4.1520   19.6850 O   0  0  0  0  0  0  0  0  0  0  0  0
    7.2830   -3.1530   19.0780 C   0  0  0  0  0  0  0  0  0  0  0  0
    5.2970    1.4180   22.3790 C   0  0  0  0  0  0  0  0  0  0  0  0
   12.1450   -1.8330   22.9760 C   0  0  0  0  0  0  0  0  0  0  0  0
   10.7170    0.0050   23.5140 C   0  0  0  0  0  0  0  0  0  0  0  0
    4.2640    2.4510   22.6460 N   0  0  0  0  0  0  0  0  0  0  0  0
   13.0530   -0.7570   22.8280 C   0  0  0  0  0  0  0  0  0  0  0  0
   12.3110    0.6990   23.1580 S   0  0  0  0  0  0  0  0  0  0  0  0
    3.0410    2.1270   23.3850 C   0  0  0  0  0  0  0  0  0  0  0  0
    2.9610    1.4660   24.4160 O   0  0  0  0  0  0  0  0  0  0  0  0
  2  1  1  1
  2  3  1  0
  1  4  2  0
  2  5  1  0
  5  6  1  6
  5  7  1  0
  5  8  1  0
  3  9  1  0
  6 10  1  0
  7 11  1  0
  8 12  1  0
  9 12  1  0
 12 13  1  0
 10 14  1  0
 11 15  1  0
 13 16  2  0
 13 17  1  0
 14 18  1  0
 15 19  1  0
 15 20  2  0
 18 21  1  0
 19 22  2  0
 20 23  1  0
 22 23  1  0
 21 24  1  0
 24 25  2  0
M  END
