x1358_1-x0395_1-x1458_1
     RDKit          3D

 20 21  0  0  0  0  0  0  0  0999 V2000
    6.0990   -3.3160   25.2430 C   0  0  0  0  0  0  0  0  0  0  0  0
    6.8760   -3.9740   24.1110 C   0  0  1  0  0  0  0  0  0  0  0  0
    5.8620   -4.7330   23.2320 C   0  0  0  0  0  0  0  0  0  0  0  0
    4.8800   -3.4150   25.4150 O   0  0  0  0  0  0  0  0  0  0  0  0
    7.7570   -2.9640   23.3440 C   0  0  1  0  0  0  0  0  0  0  0  0
    9.2730   -3.1840   23.6110 C   0  0  0  0  0  0  0  0  0  0  0  0
    7.5180   -2.7740   21.8480 C   0  0  0  0  0  0  0  0  0  0  0  0
    6.4740   -5.0730   22.0290 C   0  0  0  0  0  0  0  0  0  0  0  0
   10.0250   -1.9880   24.2070 C   0  0  0  0  0  0  0  0  0  0  0  0
    6.6810   -3.8270   21.2830 N   0  0  0  0  0  0  0  0  0  0  0  0
    6.2470   -3.7640   19.9850 C   0  0  0  0  0  0  0  0  0  0  0  0
   10.2850   -0.9130   23.2440 N   0  0  0  0  0  0  0  0  0  0  0  0
    5.1530   -4.1900   19.6680 O   0  0  0  0  0  0  0  0  0  0  0  0
    7.2690   -3.1370   19.0180 C   0  0  0  0  0  0  0  0  0  0  0  0
   11.1770   -1.3790   22.1750 C   0  0  0  0  0  0  0  0  0  0  0  0
   10.6820    0.3530   23.9040 C   0  0  0  0  0  0  0  0  0  0  0  0
   12.4970   -0.9880   22.2690 C   0  0  0  0  0  0  0  0  0  0  0  0
   11.7050    1.0430   23.2560 C   0  0  0  0  0  0  0  0  0  0  0  0
   13.4720   -1.7680   21.8310 F   0  0  0  0  0  0  0  0  0  0  0  0
   12.7410    0.2430   22.8190 C   0  0  0  0  0  0  0  0  0  0  0  0
  2  1  1  1
  2  3  1  0
  1  4  2  0
  2  5  1  0
  5  6  1  6
  5  7  1  0
  3  8  1  0
  6  9  1  0
  7 10  1  0
  8 10  1  0
 10 11  1  0
  9 12  1  0
 11 13  2  0
 11 14  1  0
 12 15  1  0
 12 16  1  0
 15 17  1  0
 16 18  1  0
 17 19  1  0
 17 20  2  0
 18 20  1  0
M  END
