x1351_1-x0395_1-x0434_2
     RDKit          3D

 27 29  0  0  0  0  0  0  0  0999 V2000
    6.0140   -2.3740   25.0670 N   0  0  0  0  0  0  0  0  0  0  0  0
    6.5600   -3.3860   24.1430 C   0  0  1  0  0  0  0  0  0  0  0  0
    5.4960   -4.4350   23.7490 C   0  0  0  0  0  0  0  0  0  0  0  0
    7.1570   -2.7880   22.8710 C   0  0  1  0  0  0  0  0  0  0  0  0
    8.1420   -1.5860   22.7270 C   0  0  2  0  0  0  0  0  0  0  0  0
    7.7760   -3.9630   22.2090 C   0  0  0  0  0  0  0  0  0  0  0  0
    5.7570   -5.2430   22.4530 C   0  0  0  0  0  0  0  0  0  0  0  0
    9.1700   -1.2510   23.7980 C   0  0  0  0  0  0  0  0  0  0  0  0
    7.4700   -0.3830   22.1360 C   0  0  0  0  0  0  0  0  0  0  0  0
    6.7460   -4.6900   21.5290 N   0  0  0  0  0  0  0  0  0  0  0  0
    6.2510   -4.2560   20.2860 C   0  0  0  0  0  0  0  0  0  0  0  0
    6.5300   -0.8720   21.1330 N   0  0  0  0  0  0  0  0  0  0  0  0
   10.3360   -0.6150   23.1860 N   0  0  0  0  0  0  0  0  0  0  0  0
    7.1030   -3.3160   19.4040 C   0  0  0  0  0  0  0  0  0  0  0  0
    5.1680   -4.6460   19.8910 O   0  0  0  0  0  0  0  0  0  0  0  0
   11.2430   -1.5820   22.5210 C   0  0  0  0  0  0  0  0  0  0  0  0
   11.0900    0.1880   24.1330 C   0  0  0  0  0  0  0  0  0  0  0  0
    6.1530   -0.1050   20.0310 C   0  0  0  0  0  0  0  0  0  0  0  0
   12.4810   -1.0860   22.2700 C   0  0  0  0  0  0  0  0  0  0  0  0
   12.0750    1.0850   23.3970 C   0  0  0  0  0  0  0  0  0  0  0  0
    6.8170   -0.0870   18.7960 C   0  0  0  0  0  0  0  0  0  0  0  0
    5.0210    0.7040   20.1530 C   0  0  0  0  0  0  0  0  0  0  0  0
   13.3600   -1.8380   21.5880 F   0  0  0  0  0  0  0  0  0  0  0  0
   12.9250    0.3180   22.7320 C   0  0  0  0  0  0  0  0  0  0  0  0
    6.4320    0.6530   17.7390 N   0  0  0  0  0  0  0  0  0  0  0  0
    4.6120    1.4720   19.0700 C   0  0  0  0  0  0  0  0  0  0  0  0
    5.3390    1.4140   17.8990 C   0  0  0  0  0  0  0  0  0  0  0  0
  2  1  1  1
  2  3  1  0
  2  4  1  0
  4  5  1  0
  4  6  1  1
  3  7  1  0
  5  8  1  1
  5  9  1  0
  6 10  1  0
  7 10  1  0
 10 11  1  0
  9 12  1  0
  8 13  1  0
 11 14  1  0
 11 15  2  0
 13 16  1  0
 13 17  1  0
 12 18  1  0
 16 19  1  0
 17 20  1  0
 18 21  2  0
 18 22  1  0
 19 23  1  0
 19 24  2  0
 20 24  1  0
 21 25  1  0
 22 26  2  0
 25 27  2  0
 26 27  1  0
M  END
