x1358_1-x0395_1-x1336_1-x0434_2
     RDKit          3D

 37 40  0  0  0  0  0  0  0  0999 V2000
    6.5860   -2.8260   25.1310 C   0  0  2  0  0  0  0  0  0  0  0  0
    5.4260   -2.6130   25.4920 O   0  0  0  0  0  0  0  0  0  0  0  0
    7.4350   -1.2820   25.2800 S   0  0  0  0  0  0  0  0  0  0  0  0
    6.8230   -3.4340   23.7590 C   0  0  2  0  0  0  0  0  0  0  0  0
    7.3000   -3.7350   26.0990 C   0  0  0  0  0  0  0  0  0  0  0  0
    8.8760   -1.7620   24.9750 N   0  0  0  0  0  0  0  0  0  0  0  0
    7.3980   -2.6210   22.8010 C   0  0  2  0  0  0  0  0  0  0  0  0
    5.6430   -4.2440   23.2060 C   0  0  0  0  0  0  0  0  0  0  0  0
    6.5420   -4.2050   27.1950 C   0  0  0  0  0  0  0  0  0  0  0  0
    8.7530   -4.2460   26.0500 C   0  0  0  0  0  0  0  0  0  0  0  0
    9.8250   -3.9490   25.0310 C   0  0  0  0  0  0  0  0  0  0  0  0
    9.9590   -0.7910   24.7520 C   0  0  0  0  0  0  0  0  0  0  0  0
    6.4630   -1.5250   22.2970 C   0  0  0  0  0  0  0  0  0  0  0  0
    7.9610   -3.3950   21.8040 C   0  0  0  0  0  0  0  0  0  0  0  0
    6.0510   -5.0150   22.0330 C   0  0  0  0  0  0  0  0  0  0  0  0
    7.0560   -5.0670   28.1440 C   0  0  0  0  0  0  0  0  0  0  0  0
    9.1700   -5.0860   27.0240 C   0  0  0  0  0  0  0  0  0  0  0  0
    6.1470   -5.4980   29.2440 C   0  0  0  0  0  0  0  0  0  0  0  0
    7.1880   -0.7880   21.2450 N   0  0  0  0  0  0  0  0  0  0  0  0
    6.9280   -4.2460   21.1520 N   0  0  0  0  0  0  0  0  0  0  0  0
    8.3850   -5.5140   28.0560 C   0  0  0  0  0  0  0  0  0  0  0  0
   10.2550   -0.5410   23.3260 N   0  0  0  0  0  0  0  0  0  0  0  0
    6.3800   -3.8490   19.9320 C   0  0  0  0  0  0  0  0  0  0  0  0
   11.0830   -1.4200   22.6850 C   0  0  0  0  0  0  0  0  0  0  0  0
   10.5350    0.7480   23.0630 C   0  0  0  0  0  0  0  0  0  0  0  0
    6.5410   -0.1070   20.1940 C   0  0  0  0  0  0  0  0  0  0  0  0
    5.2170   -4.0960   19.6600 O   0  0  0  0  0  0  0  0  0  0  0  0
    7.3670   -3.1630   18.9810 C   0  0  0  0  0  0  0  0  0  0  0  0
   12.3970   -0.9700   22.4360 C   0  0  0  0  0  0  0  0  0  0  0  0
   11.8310    1.1310   23.4060 C   0  0  0  0  0  0  0  0  0  0  0  0
    6.9400   -0.0320   18.8630 C   0  0  0  0  0  0  0  0  0  0  0  0
    5.2410    0.6930   20.4010 C   0  0  0  0  0  0  0  0  0  0  0  0
   13.2950   -1.7770   21.8340 F   0  0  0  0  0  0  0  0  0  0  0  0
   12.7870    0.3140   22.8010 C   0  0  0  0  0  0  0  0  0  0  0  0
    6.4080    0.6010   17.7780 N   0  0  0  0  0  0  0  0  0  0  0  0
    4.6200    1.4000   19.2450 C   0  0  0  0  0  0  0  0  0  0  0  0
    5.1790    1.3570   18.0030 C   0  0  0  0  0  0  0  0  0  0  0  0
  1  2  1  1
  1  3  1  0
  1  4  1  0
  1  5  1  0
  3  6  2  3
  4  7  1  0
  4  8  1  6
  5  9  2  0
  5 10  1  0
 10 11  1  0
  6 12  1  0
  7 13  1  6
  7 14  1  0
  8 15  1  0
  9 16  1  0
 10 17  2  0
 16 18  1  0
 13 19  1  0
 14 20  1  0
 15 20  1  0
 16 21  2  0
 17 21  1  0
 12 22  1  0
 20 23  1  0
 22 24  1  0
 22 25  1  0
 19 26  1  0
 23 27  2  0
 23 28  1  0
 24 29  1  0
 25 30  1  0
 26 31  2  0
 26 32  1  0
 29 33  1  0
 29 34  2  0
 30 34  1  0
 31 35  1  0
 32 36  2  0
 35 37  2  0
 36 37  1  0
M  END
