x1351_1-x0395_1
     RDKit          3D

 19 20  0  0  0  0  0  0  0  0999 V2000
    5.9530   -3.1570   25.4860 N   0  0  0  0  0  0  0  0  0  0  0  0
    6.4350   -3.6260   24.2100 C   0  0  1  0  0  0  0  0  0  0  0  0
    5.2070   -4.1130   23.4050 C   0  0  0  0  0  0  0  0  0  0  0  0
    7.3180   -2.6550   23.3930 C   0  0  1  0  0  0  0  0  0  0  0  0
    8.5670   -1.9270   23.7170 C   0  0  0  0  0  0  0  0  0  0  0  0
    7.7680   -3.5640   22.2410 C   0  0  0  0  0  0  0  0  0  0  0  0
    5.8800   -5.0460   22.4440 C   0  0  0  0  0  0  0  0  0  0  0  0
    8.8210   -0.8800   22.6310 C   0  0  0  0  0  0  0  0  0  0  0  0
    6.6720   -4.2580   21.5540 N   0  0  0  0  0  0  0  0  0  0  0  0
    6.2390   -4.0500   20.2400 C   0  0  0  0  0  0  0  0  0  0  0  0
   10.1300   -0.4950   22.5610 N   0  0  0  0  0  0  0  0  0  0  0  0
    7.1140   -3.2290   19.2760 C   0  0  0  0  0  0  0  0  0  0  0  0
    5.1940   -4.5400   19.8590 O   0  0  0  0  0  0  0  0  0  0  0  0
   11.0930   -1.5610   22.3400 C   0  0  0  0  0  0  0  0  0  0  0  0
   10.5860    0.3550   23.6670 C   0  0  0  0  0  0  0  0  0  0  0  0
   12.5160   -1.0610   22.2340 C   0  0  0  0  0  0  0  0  0  0  0  0
   11.7920    0.9990   23.4320 C   0  0  0  0  0  0  0  0  0  0  0  0
   13.4610   -1.7710   21.6320 F   0  0  0  0  0  0  0  0  0  0  0  0
   12.7920    0.3170   22.8470 C   0  0  0  0  0  0  0  0  0  0  0  0
  2  1  1  1
  2  3  1  0
  2  4  1  0
  4  5  1  1
  4  6  1  0
  3  7  1  0
  5  8  1  0
  6  9  1  0
  7  9  1  0
  9 10  1  0
  8 11  1  0
 10 12  1  0
 10 13  2  0
 11 14  1  0
 11 15  1  0
 14 16  1  0
 15 17  1  0
 16 18  1  0
 16 19  2  0
 17 19  1  0
M  END
