x1358_1-x0831_0-x0540_3
     RDKit          3D

 27 28  0  0  0  0  0  0  0  0999 V2000
    6.4160   -3.0590   25.1210 C   0  0  0  0  0  0  0  0  0  0  0  0
    6.6240   -3.3270   23.6420 C   0  0  2  0  0  0  0  0  0  0  0  0
    6.4400   -4.8250   23.3730 C   0  0  0  0  0  0  0  0  0  0  0  0
    5.3670   -3.2930   25.7230 O   0  0  0  0  0  0  0  0  0  0  0  0
    7.6510   -2.5940   23.0380 C   0  0  1  0  0  0  0  0  0  0  0  0
    7.3550   -1.0400   23.0820 C   0  0  0  0  0  0  0  0  0  0  0  0
    9.1330   -2.9180   23.4640 C   0  0  0  0  0  0  0  0  0  0  0  0
    7.7060   -2.9000   21.6850 C   0  0  0  0  0  0  0  0  0  0  0  0
    6.5130   -5.0810   22.0150 C   0  0  0  0  0  0  0  0  0  0  0  0
    6.7030   -0.5210   21.9390 C   0  0  0  0  0  0  0  0  0  0  0  0
    9.9650   -2.0630   24.4250 C   0  0  0  0  0  0  0  0  0  0  0  0
    6.6120   -3.7890   21.2920 N   0  0  0  0  0  0  0  0  0  0  0  0
    6.1860   -3.7890   19.9910 C   0  0  0  0  0  0  0  0  0  0  0  0
    5.3270    0.1430   22.1980 C   0  0  0  0  0  0  0  0  0  0  0  0
   10.7860   -0.8790   23.9640 C   0  0  0  0  0  0  0  0  0  0  0  0
    5.1250   -4.3010   19.7120 O   0  0  0  0  0  0  0  0  0  0  0  0
    7.1440   -3.1460   18.9720 C   0  0  0  0  0  0  0  0  0  0  0  0
    5.4350    1.6260   22.6010 C   0  0  0  0  0  0  0  0  0  0  0  0
   10.3120    0.3630   24.3730 C   0  0  0  0  0  0  0  0  0  0  0  0
   11.9760   -0.9540   23.1860 C   0  0  0  0  0  0  0  0  0  0  0  0
    4.1870    2.4200   22.5630 N   0  0  0  0  0  0  0  0  0  0  0  0
   12.5780   -2.2340   22.6870 C   0  0  0  0  0  0  0  0  0  0  0  0
   10.9820    1.5260   24.0360 C   0  0  0  0  0  0  0  0  0  0  0  0
   12.6530    0.2280   22.8580 C   0  0  0  0  0  0  0  0  0  0  0  0
    2.9890    2.1410   23.3600 C   0  0  0  0  0  0  0  0  0  0  0  0
   12.1600    1.4630   23.2800 C   0  0  0  0  0  0  0  0  0  0  0  0
    3.0080    1.4610   24.3830 O   0  0  0  0  0  0  0  0  0  0  0  0
  2  1  1  1
  2  3  1  0
  1  4  2  0
  2  5  1  0
  5  6  1  6
  5  7  1  0
  5  8  1  0
  3  9  1  0
  6 10  1  0
  7 11  1  0
  8 12  1  0
  9 12  1  0
 12 13  1  0
 10 14  1  0
 11 15  1  0
 13 16  2  0
 13 17  1  0
 14 18  1  0
 15 19  2  0
 15 20  1  0
 18 21  1  0
 20 22  1  0
 19 23  1  0
 20 24  2  0
 21 25  1  0
 23 26  2  0
 24 26  1  0
 25 27  2  0
M  END
