x1351_1-x0831_0
     RDKit          3D

 19 20  0  0  0  0  0  0  0  0999 V2000
    6.5110   -2.8470   25.4630 N   0  0  0  0  0  0  0  0  0  0  0  0
    6.8960   -3.4110   24.2220 C   0  0  1  0  0  0  0  0  0  0  0  0
    5.9310   -4.2460   23.6160 C   0  0  0  0  0  0  0  0  0  0  0  0
    7.4070   -2.3240   23.2270 C   0  0  1  0  0  0  0  0  0  0  0  0
    8.8740   -2.6810   22.9060 C   0  0  0  0  0  0  0  0  0  0  0  0
    6.6350   -2.3480   21.9170 C   0  0  0  0  0  0  0  0  0  0  0  0
    6.3610   -4.7510   22.4230 C   0  0  0  0  0  0  0  0  0  0  0  0
    9.8620   -2.2900   24.0120 C   0  0  0  0  0  0  0  0  0  0  0  0
    6.4740   -3.6930   21.4220 N   0  0  0  0  0  0  0  0  0  0  0  0
    6.1020   -3.9190   20.1450 C   0  0  0  0  0  0  0  0  0  0  0  0
   10.6890   -1.0310   23.7800 C   0  0  0  0  0  0  0  0  0  0  0  0
    6.9660   -3.2100   19.1130 C   0  0  0  0  0  0  0  0  0  0  0  0
    5.1740   -4.6400   19.8620 O   0  0  0  0  0  0  0  0  0  0  0  0
   10.1830    0.1730   24.3030 C   0  0  0  0  0  0  0  0  0  0  0  0
   11.9340   -1.0260   23.0750 C   0  0  0  0  0  0  0  0  0  0  0  0
   12.5550   -2.2460   22.4750 C   0  0  0  0  0  0  0  0  0  0  0  0
   10.8260    1.3840   24.1730 C   0  0  0  0  0  0  0  0  0  0  0  0
   12.6450    0.1640   22.9150 C   0  0  0  0  0  0  0  0  0  0  0  0
   12.1260    1.3280   23.4350 C   0  0  0  0  0  0  0  0  0  0  0  0
  2  1  1  1
  2  3  1  0
  2  4  1  0
  4  5  1  6
  4  6  1  0
  3  7  1  0
  5  8  1  0
  6  9  1  0
  7  9  1  0
  9 10  1  0
  8 11  1  0
 10 12  1  0
 10 13  2  0
 11 14  2  0
 11 15  1  0
 15 16  1  0
 14 17  1  0
 15 18  2  0
 17 19  2  0
 18 19  1  0
M  END
