x1358_1-x0395_1-x0434_2
     RDKit          3D

 28 30  0  0  0  0  0  0  0  0999 V2000
    6.1850   -2.9520   25.1150 C   0  0  0  0  0  0  0  0  0  0  0  0
    6.6110   -3.6420   23.8810 C   0  0  1  0  0  0  0  0  0  0  0  0
    5.8260   -4.6540   23.2780 C   0  0  0  0  0  0  0  0  0  0  0  0
    5.0580   -3.0580   25.5960 O   0  0  0  0  0  0  0  0  0  0  0  0
    7.0230   -2.7100   22.9010 C   0  0  1  0  0  0  0  0  0  0  0  0
    7.7940   -1.4570   23.4140 C   0  0  1  0  0  0  0  0  0  0  0  0
    7.7450   -3.3120   21.9000 C   0  0  0  0  0  0  0  0  0  0  0  0
    6.2210   -5.2440   22.0560 C   0  0  0  0  0  0  0  0  0  0  0  0
    9.3000   -1.7290   23.6350 C   0  0  0  0  0  0  0  0  0  0  0  0
    7.6080   -0.3220   22.4200 C   0  0  0  0  0  0  0  0  0  0  0  0
    6.9110   -4.2830   21.2040 N   0  0  0  0  0  0  0  0  0  0  0  0
    6.3460   -3.8980   19.9950 C   0  0  0  0  0  0  0  0  0  0  0  0
    7.2630   -0.7870   21.0770 N   0  0  0  0  0  0  0  0  0  0  0  0
   10.1720   -0.8520   23.0410 N   0  0  0  0  0  0  0  0  0  0  0  0
    5.1940   -4.1830   19.7170 O   0  0  0  0  0  0  0  0  0  0  0  0
    7.2970   -3.1710   19.0370 C   0  0  0  0  0  0  0  0  0  0  0  0
   11.2700   -1.6630   22.4180 C   0  0  0  0  0  0  0  0  0  0  0  0
   10.6730    0.0680   24.0680 C   0  0  0  0  0  0  0  0  0  0  0  0
    6.5470   -0.0800   20.1180 C   0  0  0  0  0  0  0  0  0  0  0  0
   12.5120   -1.0510   22.2230 C   0  0  0  0  0  0  0  0  0  0  0  0
   11.6120    0.9090   23.5060 C   0  0  0  0  0  0  0  0  0  0  0  0
    6.9880   -0.0800   18.8050 C   0  0  0  0  0  0  0  0  0  0  0  0
    5.3850    0.6560   20.3650 C   0  0  0  0  0  0  0  0  0  0  0  0
   13.4700   -1.6880   21.5350 F   0  0  0  0  0  0  0  0  0  0  0  0
   12.7540    0.2480   22.7490 C   0  0  0  0  0  0  0  0  0  0  0  0
    6.3880    0.5750   17.7820 N   0  0  0  0  0  0  0  0  0  0  0  0
    4.7280    1.3470   19.3270 C   0  0  0  0  0  0  0  0  0  0  0  0
    5.2770    1.2730   18.0530 C   0  0  0  0  0  0  0  0  0  0  0  0
  2  1  1  1
  2  3  1  0
  1  4  2  0
  2  5  1  0
  5  6  1  0
  5  7  1  6
  3  8  1  0
  6  9  1  6
  6 10  1  0
  7 11  1  0
  8 11  1  0
 11 12  1  0
 10 13  1  0
  9 14  1  0
 12 15  2  0
 12 16  1  0
 14 17  1  0
 14 18  1  0
 13 19  1  0
 17 20  1  0
 18 21  1  0
 19 22  2  0
 19 23  1  0
 20 24  1  0
 20 25  2  0
 21 25  1  0
 22 26  1  0
 23 27  2  0
 26 28  2  0
 27 28  1  0
M  END
