x1358_0-x1348_1
     RDKit          3D

 20 22  0  0  0  0  0  0  0  0999 V2000
    7.6510   -4.5930   26.4970 N   0  0  0  0  0  0  0  0  0  0  0  0
    7.9400   -4.9420   27.8850 C   0  0  0  0  0  0  0  0  0  0  0  0
    7.8400   -3.2930   26.0000 C   0  0  0  0  0  0  0  0  0  0  0  0
    6.5340   -5.2790   25.8600 C   0  0  0  0  0  0  0  0  0  0  0  0
    6.8670   -2.6620   25.9950 N   0  0  0  0  0  0  0  0  0  0  0  0
    6.3400   -5.1910   24.3840 C   0  0  0  0  0  0  0  0  0  0  0  0
    5.5020   -6.1140   26.6060 C   0  0  0  0  0  0  0  0  0  0  0  0
    7.1410   -4.4760   23.4070 N   0  0  0  0  0  0  0  0  0  0  0  0
    5.1590   -5.9350   23.7800 C   0  0  0  0  0  0  0  0  0  0  0  0
    4.4590   -6.7460   25.9110 C   0  0  0  0  0  0  0  0  0  0  0  0
    6.7800   -1.4950   26.8860 C   0  0  0  0  0  0  0  0  0  0  0  0
    6.4930   -4.7340   22.1470 C   0  0  0  0  0  0  0  0  0  0  0  0
    5.0920   -5.7270   22.0830 S   0  0  0  0  0  0  0  0  0  0  0  0
    4.2230   -6.7080   24.5240 C   0  0  0  0  0  0  0  0  0  0  0  0
    7.4630   -1.5140   28.1040 C   0  0  0  0  0  0  0  0  0  0  0  0
    6.0320   -0.3660   26.5480 C   0  0  0  0  0  0  0  0  0  0  0  0
    5.3380   -0.2760   25.3670 O   0  0  0  0  0  0  0  0  0  0  0  0
    7.4470   -0.4650   29.0240 C   0  0  0  0  0  0  0  0  0  0  0  0
    6.0250    0.6780   27.4770 C   0  0  0  0  0  0  0  0  0  0  0  0
    6.7000    0.6790   28.7020 C   0  0  0  0  0  0  0  0  0  0  0  0
  1  2  1  0
  1  3  1  0
  1  4  1  0
  3  5  1  0
  4  6  1  0
  4  7  2  0
  6  8  1  0
  6  9  2  0
  7 10  1  0
  5 11  1  0
  8 12  2  0
  9 13  1  0
 12 13  1  0
  9 14  1  0
 10 14  2  0
 11 15  2  0
 11 16  1  0
 16 17  1  0
 15 18  1  0
 16 19  2  0
 18 20  2  0
 19 20  1  0
M  END
