x1351_1-x0967_2
     RDKit          3D

 21 22  0  0  0  0  0  0  0  0999 V2000
    6.3730    0.6630   22.2550 C   0  0  0  0  0  0  0  0  0  0  0  0
    7.7260    1.1590   22.7590 C   0  0  1  0  0  0  0  0  0  0  0  0
    8.8380    0.2780   22.1860 C   0  0  0  0  0  0  0  0  0  0  0  0
    6.2370   -0.8620   22.3300 C   0  0  0  0  0  0  0  0  0  0  0  0
    8.0430    2.4900   22.4640 N   0  0  0  0  0  0  0  0  0  0  0  0
    6.8260   -1.3970   23.6690 C   0  0  1  0  0  0  0  0  0  0  0  0
    9.9960    0.6420   22.0460 O   0  0  0  0  0  0  0  0  0  0  0  0
    7.1970    3.6000   22.9150 C   0  0  0  0  0  0  0  0  0  0  0  0
    5.9160   -1.4460   24.7080 C   0  0  0  0  0  0  0  0  0  0  0  0
    7.2990   -2.8360   23.4690 C   0  0  1  0  0  0  0  0  0  0  0  0
    7.6710    4.9780   22.4350 C   0  0  0  0  0  0  0  0  0  0  0  0
    6.2000    3.4600   23.6130 O   0  0  0  0  0  0  0  0  0  0  0  0
    5.8670   -2.8220   25.1300 N   0  0  0  0  0  0  0  0  0  0  0  0
    6.4630   -3.6880   24.2060 C   0  0  1  0  0  0  0  0  0  0  0  0
    7.4850   -3.1480   22.0970 C   0  0  0  0  0  0  0  0  0  0  0  0
    6.6700   -4.2320   21.5280 N   0  0  0  0  0  0  0  0  0  0  0  0
    5.3830   -4.4190   23.4430 C   0  0  0  0  0  0  0  0  0  0  0  0
    6.2250   -4.0310   20.2300 C   0  0  0  0  0  0  0  0  0  0  0  0
    6.0240   -5.1110   22.4380 C   0  0  0  0  0  0  0  0  0  0  0  0
    7.0770   -3.2250   19.2510 C   0  0  0  0  0  0  0  0  0  0  0  0
    5.1730   -4.5280   19.8550 O   0  0  0  0  0  0  0  0  0  0  0  0
  2  1  1  6
  2  3  1  0
  1  4  1  0
  2  5  1  0
  6  4  1  6
  3  7  2  0
  5  8  1  0
  6  9  1  0
  6 10  1  0
  8 11  1  0
  8 12  2  0
  9 13  1  0
 10 14  1  0
 13 14  1  0
 10 15  1  6
 15 16  1  0
 14 17  1  6
 16 18  1  0
 16 19  1  0
 17 19  1  0
 18 20  1  0
 18 21  2  0
M  END
