x1358_0-x0691_0
     RDKit          3D

 18 19  0  0  0  0  0  0  0  0999 V2000
    6.3560   -4.4980   20.6360 C   0  0  0  0  0  0  0  0  0  0  0  0
    7.4390   -3.5180   20.1890 C   0  0  0  0  0  0  0  0  0  0  0  0
    5.3600   -4.6850   19.9430 O   0  0  0  0  0  0  0  0  0  0  0  0
    6.5210   -5.1710   21.8450 N   0  0  0  0  0  0  0  0  0  0  0  0
    5.6310   -6.2610   22.2160 C   0  0  0  0  0  0  0  0  0  0  0  0
    7.2360   -4.6320   23.0070 C   0  0  0  0  0  0  0  0  0  0  0  0
    4.6800   -5.8370   23.1390 C   0  0  0  0  0  0  0  0  0  0  0  0
    6.4200   -4.4890   24.3250 C   0  0  1  0  0  0  0  0  0  0  0  0
    6.1560   -3.0130   24.7600 C   0  0  0  0  0  0  0  0  0  0  0  0
    5.3190   -5.4710   24.4120 N   0  0  0  0  0  0  0  0  0  0  0  0
    7.2270   -2.5070   25.6800 N   0  0  0  0  0  0  0  0  0  0  0  0
    6.9960   -1.5210   26.6750 C   0  0  0  0  0  0  0  0  0  0  0  0
    7.6850   -1.5900   28.0460 C   0  0  0  0  0  0  0  0  0  0  0  0
    6.1220   -0.4480   26.4140 C   0  0  0  0  0  0  0  0  0  0  0  0
    5.4960   -0.3740   25.1920 O   0  0  0  0  0  0  0  0  0  0  0  0
    7.4070   -0.5780   28.9630 C   0  0  0  0  0  0  0  0  0  0  0  0
    5.8980    0.5280   27.3920 C   0  0  0  0  0  0  0  0  0  0  0  0
    6.5330    0.4550   28.6360 C   0  0  0  0  0  0  0  0  0  0  0  0
  1  2  1  0
  1  3  2  0
  1  4  1  0
  4  5  1  0
  4  6  1  0
  5  7  1  0
  6  8  1  0
  8  9  1  6
  7 10  1  0
  8 10  1  0
  9 11  1  0
 11 12  1  0
 12 13  2  0
 12 14  1  0
 14 15  1  0
 13 16  1  0
 14 17  2  0
 16 18  2  0
 17 18  1  0
M  END
