x1351_1-x1458_1
     RDKit          3D

 11 11  0  0  0  0  0  0  0  0999 V2000
    6.0730   -3.5160   25.3670 C   0  0  0  0  0  0  0  0  0  0  0  0
    6.7490   -3.9670   24.0820 C   0  0  0  0  0  0  0  0  0  0  0  0
    5.8650   -5.0020   23.3510 C   0  0  0  0  0  0  0  0  0  0  0  0
    4.8680   -3.4670   25.5770 O   0  0  0  0  0  0  0  0  0  0  0  0
    7.0900   -2.7550   23.2260 C   0  0  0  0  0  0  0  0  0  0  0  0
    7.7980   -3.4850   22.1110 C   0  0  0  0  0  0  0  0  0  0  0  0
    6.4510   -5.5440   22.2120 C   0  0  0  0  0  0  0  0  0  0  0  0
    6.8720   -4.3960   21.4100 N   0  0  0  0  0  0  0  0  0  0  0  0
    6.3650   -4.1450   20.2280 C   0  0  0  0  0  0  0  0  0  0  0  0
    5.2900   -4.6450   19.9210 O   0  0  0  0  0  0  0  0  0  0  0  0
    7.2010   -3.2860   19.2840 C   0  0  0  0  0  0  0  0  0  0  0  0
  1  2  1  0
  2  3  1  0
  1  4  2  0
  2  5  1  0
  5  6  1  0
  3  7  1  0
  6  8  1  0
  7  8  1  0
  8  9  1  0
  9 10  2  0
  9 11  1  0
M  END
