x1358_0-x0874_0
     RDKit          3D

 16 17  0  0  0  0  0  0  0  0999 V2000
    7.2080   -2.2430   25.7820 N   0  0  0  0  0  0  0  0  0  0  0  0
    8.2750   -2.1840   25.0320 C   0  0  0  0  0  0  0  0  0  0  0  0
    9.0090   -0.8100   24.8650 C   0  0  0  0  0  0  0  0  0  0  0  0
    7.0280   -1.3700   26.8920 C   0  0  0  0  0  0  0  0  0  0  0  0
    7.7790   -1.7060   28.1780 C   0  0  0  0  0  0  0  0  0  0  0  0
    6.1610   -0.3230   26.5770 C   0  0  0  0  0  0  0  0  0  0  0  0
    5.5670   -0.2180   25.2870 O   0  0  0  0  0  0  0  0  0  0  0  0
    9.3140   -0.4210   23.4040 C   0  0  0  0  0  0  0  0  0  0  0  0
    7.3380   -0.5390   29.1270 C   0  0  0  0  0  0  0  0  0  0  0  0
    5.7780    0.7500   27.5040 C   0  0  0  0  0  0  0  0  0  0  0  0
    6.3790    0.5970   28.7270 C   0  0  0  0  0  0  0  0  0  0  0  0
   10.7600   -0.5010   23.0030 C   0  0  0  0  0  0  0  0  0  0  0  0
   11.8380    0.5180   23.3160 C   0  0  0  0  0  0  0  0  0  0  0  0
   11.3630   -1.5240   22.2700 C   0  0  0  0  0  0  0  0  0  0  0  0
   13.1920    0.1390   22.7620 C   0  0  0  0  0  0  0  0  0  0  0  0
   13.1080   -1.4110   21.9090 S   0  0  0  0  0  0  0  0  0  0  0  0
  1  2  1  0
  2  3  1  0
  1  4  1  0
  4  5  2  0
  4  6  1  0
  6  7  1  0
  3  8  1  0
  5  9  1  0
  6 10  2  0
  9 11  2  0
 10 11  1  0
  8 12  1  0
 12 13  1  0
 12 14  2  0
 13 15  2  0
 14 16  1  0
 15 16  1  0
M  END
