x1358_0-x0736_1
     RDKit          3D

 18 19  0  0  0  0  0  0  0  0999 V2000
    6.3580   -3.3650   19.9630 C   0  0  0  0  0  0  0  0  0  0  0  0
    7.3190   -3.0080   18.8390 C   0  0  0  0  0  0  0  0  0  0  0  0
    5.4040   -4.1170   19.7290 O   0  0  0  0  0  0  0  0  0  0  0  0
    6.5800   -2.8660   21.2420 N   0  0  0  0  0  0  0  0  0  0  0  0
    7.5740   -1.8830   21.4300 C   0  0  0  0  0  0  0  0  0  0  0  0
    6.1520   -3.5820   22.4490 C   0  0  0  0  0  0  0  0  0  0  0  0
    8.6390   -2.2630   22.4750 C   0  0  0  0  0  0  0  0  0  0  0  0
    7.2950   -3.9150   23.4090 C   0  0  0  0  0  0  0  0  0  0  0  0
    8.0860   -2.8660   23.6970 N   0  0  0  0  0  0  0  0  0  0  0  0
    7.3730   -1.8760   24.4510 C   0  0  0  0  0  0  0  0  0  0  0  0
    7.2380   -2.3710   25.8280 N   0  0  0  0  0  0  0  0  0  0  0  0
    6.9670   -1.3500   26.8450 C   0  0  0  0  0  0  0  0  0  0  0  0
    7.6080   -1.4590   27.9860 C   0  0  0  0  0  0  0  0  0  0  0  0
    6.0860   -0.2720   26.6910 C   0  0  0  0  0  0  0  0  0  0  0  0
    5.3810   -0.1540   25.4430 O   0  0  0  0  0  0  0  0  0  0  0  0
    7.4240   -0.4870   29.0850 C   0  0  0  0  0  0  0  0  0  0  0  0
    5.8900    0.6710   27.7160 C   0  0  0  0  0  0  0  0  0  0  0  0
    6.5470    0.5860   28.9240 C   0  0  0  0  0  0  0  0  0  0  0  0
  1  2  1  0
  1  3  2  0
  1  4  1  0
  4  5  1  0
  4  6  1  0
  5  7  1  0
  6  8  1  0
  7  9  1  0
  8  9  1  0
  9 10  1  0
 10 11  1  0
 11 12  1  0
 12 13  2  0
 12 14  1  0
 14 15  1  0
 13 16  1  0
 14 17  2  0
 16 18  2  0
 17 18  1  0
M  END
