x1374_1-x1334_1-x0540_3-x1385_1-x0770_1-x0831_0-x0692_1
     RDKit          3D

 31 33  0  0  0  0  0  0  0  0999 V2000
    6.3510   -3.3580   19.9270 C   0  0  0  0  0  0  0  0  0  0  0  0
    7.3170   -2.9890   18.8100 C   0  0  0  0  0  0  0  0  0  0  0  0
    5.3640   -4.0590   19.6830 O   0  0  0  0  0  0  0  0  0  0  0  0
    6.6230   -2.9600   21.2380 N   0  0  0  0  0  0  0  0  0  0  0  0
    6.9750   -1.6640   21.4320 C   0  0  1  0  0  0  0  0  0  0  0  0
    7.4120   -3.8550   22.1660 C   0  0  2  0  0  0  0  0  0  0  0  0
    5.9490   -0.9030   22.3140 C   0  0  0  0  0  0  0  0  0  0  0  0
    6.7700   -5.2230   22.4060 C   0  0  0  0  0  0  0  0  0  0  0  0
    8.4290   -1.5640   22.0040 C   0  0  0  0  0  0  0  0  0  0  0  0
    7.8330   -3.2180   23.5190 C   0  0  0  0  0  0  0  0  0  0  0  0
    5.1350    0.1880   21.6070 C   0  0  0  0  0  0  0  0  0  0  0  0
    8.6390   -2.1460   23.3460 N   0  0  0  0  0  0  0  0  0  0  0  0
    5.2930   -5.1660   22.7780 C   0  0  2  0  0  0  0  0  0  0  0  0
    5.3290    1.5070   22.4430 C   0  0  0  0  0  0  0  0  0  0  0  0
   10.0700   -2.4560   23.5480 C   0  0  0  0  0  0  0  0  0  0  0  0
    5.0450   -4.5650   24.0210 C   0  0  0  0  0  0  0  0  0  0  0  0
    4.7750   -6.6250   22.8020 C   0  0  0  0  0  0  0  0  0  0  0  0
    4.1280    2.3610   22.4160 N   0  0  0  0  0  0  0  0  0  0  0  0
    4.1830   -5.2970   25.0570 C   0  0  0  0  0  0  0  0  0  0  0  0
    3.7460   -6.8260   24.2460 S   0  0  0  0  0  0  0  0  0  0  0  0
   10.8640   -1.1490   23.5040 C   0  0  0  0  0  0  0  0  0  0  0  0
    3.0730    2.1860   23.2840 C   0  0  0  0  0  0  0  0  0  0  0  0
    2.2660   -6.8110   23.6640 O   0  0  0  0  0  0  0  0  0  0  0  0
    4.2300   -7.9730   24.9470 O   0  0  0  0  0  0  0  0  0  0  0  0
   10.2780    0.0090   24.1410 C   0  0  0  0  0  0  0  0  0  0  0  0
   12.1840   -0.9680   22.8480 C   0  0  0  0  0  0  0  0  0  0  0  0
    2.9500    1.2930   24.1160 O   0  0  0  0  0  0  0  0  0  0  0  0
   12.9230   -2.0480   22.1350 C   0  0  0  0  0  0  0  0  0  0  0  0
   10.7290    1.2800   24.2420 C   0  0  0  0  0  0  0  0  0  0  0  0
   12.8430    0.4280   22.8850 C   0  0  0  0  0  0  0  0  0  0  0  0
   12.0620    1.5240   23.5930 C   0  0  0  0  0  0  0  0  0  0  0  0
  1  2  1  0
  1  3  2  0
  1  4  1  0
  4  5  1  0
  4  6  1  0
  5  7  1  1
  6  8  1  1
  5  9  1  0
  6 10  1  0
  7 11  1  0
  9 12  1  0
 10 12  1  0
 13  8  1  1
 11 14  1  0
 12 15  1  0
 13 16  1  0
 13 17  1  0
 14 18  1  0
 16 19  2  0
 17 20  1  0
 19 20  1  0
 15 21  1  0
 18 22  1  0
 20 23  1  0
 20 24  1  0
 21 25  2  0
 21 26  1  0
 22 27  2  0
 26 28  1  0
 25 29  1  0
 26 30  2  0
 29 31  2  0
 30 31  1  0
M  END
