x1375_1-x1385_1-x0434_2-x0426_1-x0831_0-x1418_1-x0692_1-x1334_1
     RDKit          3D

 37 41  0  0  0  0  0  0  0  0999 V2000
    6.4370   -3.0420   19.8280 C   0  0  0  0  0  0  0  0  0  0  0  0
    7.3780   -2.9450   18.6560 C   0  0  0  0  0  0  0  0  0  0  0  0
    5.5370   -3.9150   19.7040 O   0  0  0  0  0  0  0  0  0  0  0  0
    6.6510   -2.1330   21.1170 C   0  0  1  0  0  0  0  0  0  0  0  0
    5.8040   -0.7560   21.1840 C   0  0  2  0  0  0  0  0  0  0  0  0
    6.3440   -2.9940   22.1740 C   0  0  0  0  0  0  0  0  0  0  0  0
    8.0320   -1.4490   20.9940 C   0  0  0  0  0  0  0  0  0  0  0  0
    4.6640   -0.6240   22.1820 C   0  0  0  0  0  0  0  0  0  0  0  0
    7.6290   -3.5690   22.7350 C   0  0  2  0  0  0  0  0  0  0  0  0
    9.0910   -1.9840   21.6570 C   0  0  0  0  0  0  0  0  0  0  0  0
    5.5830    0.1240   19.9770 C   0  0  0  0  0  0  0  0  0  0  0  0
    4.7590    0.6180   23.0760 C   0  0  0  0  0  0  0  0  0  0  0  0
    7.3910   -4.6250   23.8760 C   0  0  0  0  0  0  0  0  0  0  0  0
    8.6570   -2.5300   22.8880 N   0  0  0  0  0  0  0  0  0  0  0  0
    4.6610    1.1890   19.8750 C   0  0  0  0  0  0  0  0  0  0  0  0
    6.3670   -0.1440   18.8760 C   0  0  0  0  0  0  0  0  0  0  0  0
    4.1220    1.8490   22.4310 C   0  0  1  0  0  0  0  0  0  0  0  0
    3.6990    1.6930   20.9200 C   0  0  0  0  0  0  0  0  0  0  0  0
    9.6550   -2.3800   23.9430 C   0  0  0  0  0  0  0  0  0  0  0  0
    4.5610    1.9120   18.7040 C   0  0  0  0  0  0  0  0  0  0  0  0
    6.3470    0.4960   17.7100 N   0  0  0  0  0  0  0  0  0  0  0  0
    5.9930   -5.1560   24.1520 C   0  0  1  0  0  0  0  0  0  0  0  0
    2.9550    2.2570   23.2100 N   0  0  0  0  0  0  0  0  0  0  0  0
    5.4840    1.4890   17.6010 C   0  0  0  0  0  0  0  0  0  0  0  0
    4.8700   -4.4430   24.5060 C   0  0  0  0  0  0  0  0  0  0  0  0
    5.4700   -6.1810   23.0880 C   0  0  0  0  0  0  0  0  0  0  0  0
   10.5850   -1.1500   23.7710 C   0  0  0  0  0  0  0  0  0  0  0  0
    3.6500   -5.0550   24.4680 C   0  0  0  0  0  0  0  0  0  0  0  0
    3.9640   -6.6340   23.9080 S   0  0  0  0  0  0  0  0  0  0  0  0
   10.0980    0.0080   24.3510 C   0  0  0  0  0  0  0  0  0  0  0  0
   11.8360   -1.1310   23.0830 C   0  0  0  0  0  0  0  0  0  0  0  0
    3.0120   -7.1570   22.9670 O   0  0  0  0  0  0  0  0  0  0  0  0
    4.3210   -7.7480   25.0800 O   0  0  0  0  0  0  0  0  0  0  0  0
   12.4900   -2.2930   22.3980 C   0  0  0  0  0  0  0  0  0  0  0  0
   10.8570    1.1910   24.2400 C   0  0  0  0  0  0  0  0  0  0  0  0
   12.5520    0.0530   23.0080 C   0  0  0  0  0  0  0  0  0  0  0  0
   12.0780    1.2150   23.5760 C   0  0  0  0  0  0  0  0  0  0  0  0
  1  2  1  0
  1  3  2  0
  4  1  1  6
  4  5  1  0
  4  6  1  0
  4  7  1  0
  5  8  1  6
  6  9  1  0
  7 10  1  0
  5 11  1  0
  8 12  1  0
  9 13  1  1
  9 14  1  0
 10 14  1  0
 11 15  2  0
 11 16  1  0
 12 17  1  0
 15 18  1  0
 17 18  1  0
 14 19  1  0
 15 20  1  0
 16 21  2  0
 22 13  1  6
 17 23  1  1
 20 24  2  0
 21 24  1  0
 22 25  1  0
 22 26  1  0
 19 27  1  0
 25 28  2  0
 26 29  1  0
 28 29  1  0
 27 30  2  0
 27 31  1  0
 29 32  1  0
 29 33  1  0
 31 34  1  0
 30 35  1  0
 31 36  2  0
 35 37  2  0
 36 37  1  0
M  END
