x1375_1-x1334_1-x0426_1-x0831_0-x0692_1-x0770_1-x1385_1-x1334_0-x0397_0
     RDKit          3D

 43 48  0  0  0  0  0  0  0  0999 V2000
    2.9450   -7.3100   24.0320 O   0  0  0  0  0  0  0  0  0  0  0  0
    3.9380   -6.5400   23.3830 C   0  0  0  0  0  0  0  0  0  0  0  0
    5.2020   -6.7070   24.0100 O   0  0  0  0  0  0  0  0  0  0  0  0
    6.3770   -6.6640   23.1650 C   0  0  0  0  0  0  0  0  0  0  0  0
    6.4270   -5.5550   22.2360 C   0  0  2  0  0  0  0  0  0  0  0  0
    5.6320   -4.3880   22.4360 C   0  0  2  0  0  0  0  0  0  0  0  0
    5.5840   -5.5510   21.2250 C   0  0  0  0  0  0  0  0  0  0  0  0
    6.4700   -3.1120   22.4870 C   0  0  2  0  0  0  0  0  0  0  0  0
    6.7680   -2.6580   21.1080 N   0  0  0  0  0  0  0  0  0  0  0  0
    7.6880   -3.3890   23.1430 C   0  0  0  0  0  0  0  0  0  0  0  0
    6.4210   -3.2700   19.8730 C   0  0  0  0  0  0  0  0  0  0  0  0
    8.5150   -2.1340   23.1580 N   0  0  0  0  0  0  0  0  0  0  0  0
    7.6740   -1.4960   21.0470 C   0  0  2  0  0  0  0  0  0  0  0  0
    7.3640   -3.0180   18.7250 C   0  0  0  0  0  0  0  0  0  0  0  0
    5.4340   -4.0050   19.7030 O   0  0  0  0  0  0  0  0  0  0  0  0
    9.5950   -1.9340   24.1250 C   0  0  1  0  0  0  0  0  0  0  0  0
    8.9620   -1.8950   21.7720 C   0  0  0  0  0  0  0  0  0  0  0  0
    6.9910   -0.3410   21.7830 C   0  0  0  0  0  0  0  0  0  0  0  0
   10.3270   -3.2240   24.2530 C   0  0  0  0  0  0  0  0  0  0  0  0
   10.5220   -0.7350   23.8770 C   0  0  0  0  0  0  0  0  0  0  0  0
    5.4990   -0.1920   21.5010 C   0  0  1  0  0  0  0  0  0  0  0  0
   10.2140    0.5520   24.3100 C   0  0  0  0  0  0  0  0  0  0  0  0
   11.7500   -0.9890   23.1580 C   0  0  0  0  0  0  0  0  0  0  0  0
    9.6430   -4.1430   25.2650 C   0  0  0  0  0  0  0  0  0  0  0  0
    4.9010    0.6040   22.5240 C   0  0  0  0  0  0  0  0  0  0  0  0
    5.4480    0.3960   20.1480 C   0  0  0  0  0  0  0  0  0  0  0  0
   12.2240   -2.2990   22.6150 C   0  0  0  0  0  0  0  0  0  0  0  0
   11.0610    1.6130   24.0670 C   0  0  0  0  0  0  0  0  0  0  0  0
   12.6300    0.0550   22.9030 C   0  0  0  0  0  0  0  0  0  0  0  0
    9.9620   -5.5900   25.4740 C   0  0  0  0  0  0  0  0  0  0  0  0
    8.4020   -3.7010   26.3400 S   0  0  0  0  0  0  0  0  0  0  0  0
    4.2290    1.9110   22.0280 C   0  0  2  0  0  0  0  0  0  0  0  0
    4.4470    1.3990   19.8510 C   0  0  0  0  0  0  0  0  0  0  0  0
    6.3940    0.0180   19.0340 C   0  0  0  0  0  0  0  0  0  0  0  0
   12.3760    1.3550   23.3070 C   0  0  0  0  0  0  0  0  0  0  0  0
    9.1250   -6.1170   26.5350 C   0  0  0  0  0  0  0  0  0  0  0  0
    8.2800   -5.2590   27.0730 C   0  0  0  0  0  0  0  0  0  0  0  0
    3.2550    2.2230   22.9210 N   0  0  0  0  0  0  0  0  0  0  0  0
    3.5860    1.7690   20.7890 C   0  0  0  0  0  0  0  0  0  0  0  0
    4.4760    1.8990   18.5840 C   0  0  0  0  0  0  0  0  0  0  0  0
    6.3190    0.5860   17.8170 N   0  0  0  0  0  0  0  0  0  0  0  0
    7.1670   -5.5590   28.3370 Cl  0  0  0  0  0  0  0  0  0  0  0  0
    5.3490    1.5070   17.6700 C   0  0  0  0  0  0  0  0  0  0  0  0
  1  2  1  0
  2  3  1  0
  3  4  1  0
  5  4  1  1
  5  6  1  0
  5  7  1  0
  6  7  1  6
  6  8  1  0
  8  9  1  0
  8 10  1  6
  9 11  1  0
 10 12  1  0
  9 13  1  0
 11 14  1  0
 11 15  2  0
 12 16  1  0
 12 17  1  0
 13 17  1  0
 13 18  1  1
 16 19  1  6
 16 20  1  0
 21 18  1  1
 20 22  2  0
 20 23  1  0
 19 24  1  0
 21 25  1  0
 21 26  1  0
 23 27  1  0
 22 28  1  0
 23 29  2  0
 24 30  2  0
 24 31  1  0
 25 32  1  0
 26 33  2  0
 26 34  1  0
 28 35  2  0
 29 35  1  0
 30 36  1  0
 31 37  1  0
 36 37  2  0
 32 38  1  1
 32 39  1  0
 33 39  1  0
 33 40  1  0
 34 41  2  0
 37 42  1  0
 40 43  2  0
 41 43  1  0
M  END
