x1374_1-x0397_0-x0770_1-x0434_2-x1412_1-x0831_0-x1334_1-x0692_1
     RDKit          3D

 32 35  0  0  0  0  0  0  0  0999 V2000
    6.3150   -3.2990   19.9130 C   0  0  0  0  0  0  0  0  0  0  0  0
    7.3350   -2.9930   18.8290 C   0  0  0  0  0  0  0  0  0  0  0  0
    5.3310   -4.0170   19.6890 O   0  0  0  0  0  0  0  0  0  0  0  0
    6.5820   -2.7990   21.2000 N   0  0  0  0  0  0  0  0  0  0  0  0
    7.2240   -1.4620   21.3590 C   0  0  1  0  0  0  0  0  0  0  0  0
    7.0850   -3.7380   22.2100 C   0  0  1  0  0  0  0  0  0  0  0  0
    8.6310   -1.6650   21.9600 C   0  0  0  0  0  0  0  0  0  0  0  0
    7.6570   -3.1400   23.5120 C   0  0  0  0  0  0  0  0  0  0  0  0
    6.0040   -4.7150   22.4810 C   0  0  2  0  0  0  0  0  0  0  0  0
    7.7110   -0.5690   20.2300 C   0  0  0  0  0  0  0  0  0  0  0  0
    8.6790   -2.1400   23.3100 N   0  0  0  0  0  0  0  0  0  0  0  0
    6.1400   -5.6320   23.3350 C   0  0  2  0  0  0  0  0  0  0  0  0
    6.1040   -6.2320   21.9890 C   0  0  0  0  0  0  0  0  0  0  0  0
    6.9490   -0.2350   18.9750 C   0  0  0  0  0  0  0  0  0  0  0  0
   10.0710   -2.3890   23.6600 C   0  0  0  0  0  0  0  0  0  0  0  0
    6.4090    0.4220   20.1140 C   0  0  0  0  0  0  0  0  0  0  0  0
    6.1020    0.2310   17.9970 N   0  0  0  0  0  0  0  0  0  0  0  0
    4.9660   -5.9500   24.2420 C   0  0  0  0  0  0  0  0  0  0  0  0
   10.8550   -1.0890   23.5760 C   0  0  0  0  0  0  0  0  0  0  0  0
    5.0570    1.0650   18.0040 C   0  0  0  0  0  0  0  0  0  0  0  0
    5.3570    1.2960   20.3540 C   0  0  0  0  0  0  0  0  0  0  0  0
    4.4680   -7.1480   23.8120 C   0  0  0  0  0  0  0  0  0  0  0  0
   10.1940    0.1350   24.2370 C   0  0  0  0  0  0  0  0  0  0  0  0
   12.1090   -0.9750   22.9290 C   0  0  0  0  0  0  0  0  0  0  0  0
    4.5220    1.7260   19.2040 C   0  0  0  0  0  0  0  0  0  0  0  0
    4.0040   -7.9040   24.9130 O   0  0  0  0  0  0  0  0  0  0  0  0
   12.7800   -2.1280   22.2620 C   0  0  0  0  0  0  0  0  0  0  0  0
   10.8630    1.4110   24.1860 C   0  0  0  0  0  0  0  0  0  0  0  0
   12.7530    0.2500   22.8940 C   0  0  0  0  0  0  0  0  0  0  0  0
    2.5980   -8.0460   24.9150 C   0  0  0  0  0  0  0  0  0  0  0  0
   12.0740    1.4270   23.5430 C   0  0  0  0  0  0  0  0  0  0  0  0
    2.0260   -7.3830   23.8020 O   0  0  0  0  0  0  0  0  0  0  0  0
  1  2  1  0
  1  3  2  0
  1  4  1  0
  4  5  1  0
  4  6  1  0
  5  7  1  0
  6  8  1  1
  6  9  1  0
  5 10  1  6
  7 11  1  0
  8 11  1  0
  9 12  1  0
  9 13  1  6
 12 13  1  0
 10 14  1  0
 11 15  1  0
 14 16  2  0
 14 17  1  0
 12 18  1  1
 15 19  1  0
 17 20  2  0
 16 21  1  0
 18 22  1  0
 19 23  2  0
 19 24  1  0
 20 25  1  0
 21 25  2  0
 22 26  1  0
 24 27  1  0
 23 28  1  0
 24 29  2  0
 26 30  1  0
 28 31  2  0
 29 31  1  0
 30 32  1  0
M  END
