x1374_1-x1334_1-x1412_1-x0831_0-x0770_1-x1386_1-x1385_1-x0397_0-x1375_1-x0434_2-x1418_1
     RDKit          3D

 32 35  0  0  0  0  0  0  0  0999 V2000
    2.6710   -7.3840   23.2790 O   0  0  0  0  0  0  0  0  0  0  0  0
    3.0280   -7.4370   24.6460 C   0  0  0  0  0  0  0  0  0  0  0  0
    4.3540   -7.8880   24.8450 O   0  0  0  0  0  0  0  0  0  0  0  0
    5.2470   -7.3720   23.8570 C   0  0  0  0  0  0  0  0  0  0  0  0
    5.8920   -6.2660   24.3630 C   0  0  0  0  0  0  0  0  0  0  0  0
    6.4650   -5.5610   23.1730 C   0  0  2  0  0  0  0  0  0  0  0  0
    5.7720   -4.4960   22.5900 C   0  0  2  0  0  0  0  0  0  0  0  0
    6.3260   -5.9180   21.9160 C   0  0  0  0  0  0  0  0  0  0  0  0
    6.6280   -3.2100   22.3900 C   0  0  2  0  0  0  0  0  0  0  0  0
    6.7840   -2.6770   21.0260 N   0  0  0  0  0  0  0  0  0  0  0  0
    7.9810   -3.4830   23.1310 C   0  0  0  0  0  0  0  0  0  0  0  0
    6.4200   -3.3730   19.8820 C   0  0  0  0  0  0  0  0  0  0  0  0
    8.8180   -2.2860   23.1770 N   0  0  0  0  0  0  0  0  0  0  0  0
    7.7240   -1.5480   20.9710 C   0  0  1  0  0  0  0  0  0  0  0  0
    7.3040   -3.0770   18.6970 C   0  0  0  0  0  0  0  0  0  0  0  0
    5.4800   -4.1870   19.7770 O   0  0  0  0  0  0  0  0  0  0  0  0
   10.0930   -2.4650   23.6420 C   0  0  0  0  0  0  0  0  0  0  0  0
    7.0680   -0.3000   21.2290 N   0  0  0  0  0  0  0  0  0  0  0  0
    8.9430   -1.6630   21.8680 C   0  0  0  0  0  0  0  0  0  0  0  0
   10.8280   -1.1400   23.6060 C   0  0  0  0  0  0  0  0  0  0  0  0
    6.3850    0.3210   20.1110 C   0  0  0  0  0  0  0  0  0  0  0  0
   10.2890    0.0330   24.2250 C   0  0  0  0  0  0  0  0  0  0  0  0
   12.0820   -0.9760   22.9490 C   0  0  0  0  0  0  0  0  0  0  0  0
    6.9390    0.1280   18.8990 C   0  0  0  0  0  0  0  0  0  0  0  0
    5.2150    1.0770   20.2970 C   0  0  0  0  0  0  0  0  0  0  0  0
   12.7260   -2.1400   22.2600 C   0  0  0  0  0  0  0  0  0  0  0  0
   10.9610    1.2820   24.1790 C   0  0  0  0  0  0  0  0  0  0  0  0
   12.6810    0.2800   22.9550 C   0  0  0  0  0  0  0  0  0  0  0  0
    6.3580    0.7140   17.6980 N   0  0  0  0  0  0  0  0  0  0  0  0
    4.6220    1.6390   19.2420 C   0  0  0  0  0  0  0  0  0  0  0  0
   12.1650    1.4130   23.5430 C   0  0  0  0  0  0  0  0  0  0  0  0
    5.1680    1.4980   17.8350 C   0  0  0  0  0  0  0  0  0  0  0  0
  1  2  1  0
  2  3  1  0
  3  4  1  0
  4  5  1  0
  6  5  1  1
  6  7  1  0
  6  8  1  0
  7  8  1  6
  7  9  1  0
  9 10  1  0
  9 11  1  6
 10 12  1  0
 11 13  1  0
 10 14  1  0
 12 15  1  0
 12 16  2  0
 13 17  1  0
 14 18  1  1
 13 19  1  0
 14 19  1  0
 17 20  1  0
 18 21  1  0
 20 22  2  0
 20 23  1  0
 21 24  2  0
 21 25  1  0
 23 26  1  0
 22 27  1  0
 23 28  2  0
 24 29  1  0
 25 30  2  0
 27 31  2  0
 28 31  1  0
 29 32  2  0
 30 32  1  0
M  END
