x1375_1-x1334_1-x1386_1-x1374_1-x0426_1-x1334_0-x0831_0-x0692_1
     RDKit          3D

 46 51  0  0  0  0  0  0  0  0999 V2000
    6.4150   -3.2660   19.8890 C   0  0  0  0  0  0  0  0  0  0  0  0
    7.3670   -2.9700   18.7440 C   0  0  0  0  0  0  0  0  0  0  0  0
    5.4440   -4.0120   19.6810 O   0  0  0  0  0  0  0  0  0  0  0  0
    6.6670   -2.7250   21.1550 N   0  0  0  0  0  0  0  0  0  0  0  0
    7.6510   -1.6250   21.2740 C   0  0  2  0  0  0  0  0  0  0  0  0
    6.6010   -3.6790   22.2660 C   0  0  1  0  0  0  0  0  0  0  0  0
    5.6820   -4.7800   21.8750 C   0  0  0  0  0  0  0  0  0  0  0  0
    9.0350   -2.1030   21.8280 C   0  0  0  0  0  0  0  0  0  0  0  0
    7.8810   -4.0120   22.6320 C   0  0  0  0  0  0  0  0  0  0  0  0
    7.1690   -0.4120   22.0990 C   0  0  0  0  0  0  0  0  0  0  0  0
    8.6680   -2.8170   23.0250 N   0  0  0  0  0  0  0  0  0  0  0  0
    4.7650   -4.9820   22.7920 C   0  0  2  0  0  0  0  0  0  0  0  0
    5.7520    0.1190   21.7460 C   0  0  1  0  0  0  0  0  0  0  0  0
    9.7530   -3.2070   23.9300 C   0  0  1  0  0  0  0  0  0  0  0  0
    5.0210   -4.4910   24.1890 C   0  0  0  0  0  0  0  0  0  0  0  0
    4.5280   -6.4690   22.9470 C   0  0  0  0  0  0  0  0  0  0  0  0
    5.5810    1.3900   22.3450 C   0  0  0  0  0  0  0  0  0  0  0  0
    5.6820    0.5010   20.3140 C   0  0  0  0  0  0  0  0  0  0  0  0
   10.1520   -2.0640   24.8650 C   0  0  0  0  0  0  0  0  0  0  0  0
    4.5800   -5.2600   25.2900 C   0  0  0  0  0  0  0  0  0  0  0  0
    3.8490   -6.6480   24.5250 S   0  0  0  0  0  0  0  0  0  0  0  0
    9.3520   -4.1710   25.0240 C   0  0  0  0  0  0  0  0  0  0  0  0
    4.3340    1.9740   22.2920 C   0  0  2  0  0  0  0  0  0  0  0  0
    4.6110    1.2770   19.9310 C   0  0  0  0  0  0  0  0  0  0  0  0
    6.6290    0.1320   19.3530 C   0  0  0  0  0  0  0  0  0  0  0  0
    2.2740   -6.5620   24.4790 O   0  0  0  0  0  0  0  0  0  0  0  0
    4.3380   -7.9610   25.1930 O   0  0  0  0  0  0  0  0  0  0  0  0
    9.8310   -5.4010   25.2880 C   0  0  0  0  0  0  0  0  0  0  0  0
    8.0630   -3.8510   26.3040 S   0  0  0  0  0  0  0  0  0  0  0  0
   10.8430   -0.8730   24.2810 C   0  0  0  0  0  0  0  0  0  0  0  0
    3.7070    1.6950   23.4530 N   0  0  0  0  0  0  0  0  0  0  0  0
    3.6100    1.6460   20.9590 C   0  0  0  0  0  0  0  0  0  0  0  0
    4.4770    1.6870   18.6860 C   0  0  0  0  0  0  0  0  0  0  0  0
    6.5590    0.4980   18.0560 N   0  0  0  0  0  0  0  0  0  0  0  0
    9.2040   -6.0810   26.4780 C   0  0  0  0  0  0  0  0  0  0  0  0
    8.2710   -5.3660   27.0830 C   0  0  0  0  0  0  0  0  0  0  0  0
   10.3960    0.5530   24.4760 C   0  0  0  0  0  0  0  0  0  0  0  0
   12.1600   -0.9090   23.3800 C   0  0  0  0  0  0  0  0  0  0  0  0
    1.7690   -6.9830   23.1960 O   0  0  0  0  0  0  0  0  0  0  0  0
    3.2330   -8.8950   25.2690 O   0  0  0  0  0  0  0  0  0  0  0  0
    5.5140    1.2690   17.7280 C   0  0  0  0  0  0  0  0  0  0  0  0
    7.3220   -5.7850   28.4650 Cl  0  0  0  0  0  0  0  0  0  0  0  0
   12.8640   -2.1730   22.9800 C   0  0  0  0  0  0  0  0  0  0  0  0
   11.0760    1.7960   23.9280 C   0  0  0  0  0  0  0  0  0  0  0  0
   12.7750    0.3770   22.8810 C   0  0  0  0  0  0  0  0  0  0  0  0
   12.3020    1.6030   23.1200 C   0  0  0  0  0  0  0  0  0  0  0  0
  1  2  1  0
  1  3  2  0
  1  4  1  0
  4  5  1  0
  4  6  1  0
  6  7  1  6
  5  8  1  0
  6  9  1  0
  5 10  1  1
  8 11  1  0
  9 11  1  0
 12  7  1  6
 13 10  1  6
 11 14  1  0
 12 15  1  0
 12 16  1  0
 13 17  1  0
 13 18  1  0
 14 19  1  1
 15 20  2  0
 16 21  1  0
 20 21  1  0
 14 22  1  0
 17 23  1  0
 18 24  2  0
 18 25  1  0
 21 26  1  0
 21 27  1  0
 22 28  2  0
 22 29  1  0
 19 30  1  0
 23 31  1  1
 23 32  1  0
 24 32  1  0
 24 33  1  0
 25 34  2  0
 28 35  1  0
 29 36  1  0
 35 36  2  0
 30 37  2  0
 30 38  1  0
 26 39  1  0
 27 40  1  0
 33 41  2  0
 34 41  1  0
 36 42  1  0
 38 43  1  0
 37 44  1  0
 38 45  2  0
 44 46  2  0
 45 46  1  0
M  END
