x1374_1-x1386_1-x1334_0-x0831_1-x0831_0-x0692_1-x0397_0-x1334_1-x0540_3-x1385_1-x0434_2-x1418_1-x1412_1-x0770_1
     RDKit          3D

 46 50  0  0  0  0  0  0  0  0999 V2000
    2.1910   -6.6660   24.3590 O   0  0  0  0  0  0  0  0  0  0  0  0
    3.0580   -7.5610   23.7140 C   0  0  0  0  0  0  0  0  0  0  0  0
    4.1770   -7.8270   24.5590 O   0  0  0  0  0  0  0  0  0  0  0  0
    5.3920   -7.4190   23.9280 C   0  0  0  0  0  0  0  0  0  0  0  0
    5.9760   -6.3300   24.4900 C   0  0  0  0  0  0  0  0  0  0  0  0
    6.2280   -5.3190   23.4140 C   0  0  2  0  0  0  0  0  0  0  0  0
    5.2780   -4.8900   22.6160 C   0  0  2  0  0  0  0  0  0  0  0  0
    6.3960   -5.7900   21.9370 C   0  0  0  0  0  0  0  0  0  0  0  0
    5.0730   -3.4520   22.1980 C   0  0  0  0  0  0  0  0  0  0  0  0
    6.2820   -2.5710   22.2420 C   0  0  2  0  0  0  0  0  0  0  0  0
    6.7500   -2.1690   20.9200 N   0  0  0  0  0  0  0  0  0  0  0  0
    7.4400   -3.2900   22.9410 C   0  0  0  0  0  0  0  0  0  0  0  0
    6.5450   -3.0500   19.7930 C   0  0  0  0  0  0  0  0  0  0  0  0
    8.6600   -2.4760   23.1510 N   0  0  0  0  0  0  0  0  0  0  0  0
    8.0100   -1.3900   21.0010 C   0  0  2  0  0  0  0  0  0  0  0  0
    7.4920   -2.9430   18.6230 C   0  0  0  0  0  0  0  0  0  0  0  0
    5.6450   -3.9210   19.7020 O   0  0  0  0  0  0  0  0  0  0  0  0
    9.5720   -3.2970   23.7350 C   0  0  1  0  0  0  0  0  0  0  0  0
    9.1310   -2.1630   21.7810 C   0  0  0  0  0  0  0  0  0  0  0  0
    7.9600   -0.0410   21.7330 C   0  0  0  0  0  0  0  0  0  0  0  0
   10.9100   -2.6330   24.0100 C   0  0  0  0  0  0  0  0  0  0  0  0
    9.2280   -4.0890   24.9630 C   0  0  0  0  0  0  0  0  0  0  0  0
    6.6990    0.8000   21.5810 C   0  0  2  0  0  0  0  0  0  0  0  0
    9.8400   -5.2320   25.4980 C   0  0  0  0  0  0  0  0  0  0  0  0
    7.7810   -3.6890   26.1950 S   0  0  0  0  0  0  0  0  0  0  0  0
   11.1890   -1.1770   23.8300 C   0  0  0  0  0  0  0  0  0  0  0  0
    5.5320    0.3640   22.4900 C   0  0  0  0  0  0  0  0  0  0  0  0
    6.3240    0.8320   20.2730 C   0  0  0  0  0  0  0  0  0  0  0  0
    9.2970   -5.7210   26.6690 C   0  0  0  0  0  0  0  0  0  0  0  0
    8.2020   -5.0320   27.1800 C   0  0  0  0  0  0  0  0  0  0  0  0
   10.4130   -0.0530   24.4480 C   0  0  0  0  0  0  0  0  0  0  0  0
   12.2600   -0.7600   23.0350 C   0  0  0  0  0  0  0  0  0  0  0  0
    5.1260    1.4490   23.2840 C   0  0  0  0  0  0  0  0  0  0  0  0
    6.8760    0.2720   19.1160 C   0  0  0  0  0  0  0  0  0  0  0  0
    5.0800    1.6290   20.0770 C   0  0  0  0  0  0  0  0  0  0  0  0
    7.2990   -5.3690   28.5910 Cl  0  0  0  0  0  0  0  0  0  0  0  0
   13.1990   -1.7000   22.2680 C   0  0  0  0  0  0  0  0  0  0  0  0
   10.7250    1.3240   24.2600 C   0  0  0  0  0  0  0  0  0  0  0  0
   12.5530    0.5930   22.8810 C   0  0  0  0  0  0  0  0  0  0  0  0
    4.1600    2.2830   22.8290 N   0  0  0  0  0  0  0  0  0  0  0  0
    6.3590    0.4310   17.8880 N   0  0  0  0  0  0  0  0  0  0  0  0
    4.5510    1.7880   18.8270 C   0  0  0  0  0  0  0  0  0  0  0  0
   11.8200    1.6180   23.4670 C   0  0  0  0  0  0  0  0  0  0  0  0
    2.9560    2.1880   23.4270 C   0  0  0  0  0  0  0  0  0  0  0  0
    5.1900    1.2030   17.7810 C   0  0  0  0  0  0  0  0  0  0  0  0
    2.7830    1.5130   24.4450 O   0  0  0  0  0  0  0  0  0  0  0  0
  1  2  1  0
  2  3  1  0
  3  4  1  0
  4  5  1  0
  6  5  1  1
  6  7  1  0
  6  8  1  0
  7  8  1  0
  7  9  1  6
 10  9  1  6
 10 11  1  0
 10 12  1  0
 11 13  1  0
 12 14  1  0
 11 15  1  0
 13 16  1  0
 13 17  2  0
 14 18  1  0
 14 19  1  0
 15 19  1  0
 15 20  1  1
 18 21  1  1
 18 22  1  0
 23 20  1  6
 22 24  2  0
 22 25  1  0
 21 26  1  0
 23 27  1  0
 23 28  1  0
 24 29  1  0
 25 30  1  0
 29 30  2  0
 26 31  2  0
 26 32  1  0
 27 33  1  0
 28 34  2  0
 28 35  1  0
 30 36  1  0
 32 37  1  0
 31 38  1  0
 32 39  2  0
 33 40  1  0
 34 41  1  0
 35 42  2  0
 38 43  2  0
 39 43  1  0
 40 44  1  0
 41 45  2  0
 42 45  1  0
 44 46  2  0
M  END
