x1375_1-x0770_1-x1334_1-x0831_1-x1386_1-x1385_1-x0831_0-x0434_2-x0397_0-x1418_1-x1412_1-x0692_1
     RDKit          3D

 31 34  0  0  0  0  0  0  0  0999 V2000
    2.6190   -7.2790   24.2850 O   0  0  0  0  0  0  0  0  0  0  0  0
    3.3640   -6.5050   25.2040 C   0  0  0  0  0  0  0  0  0  0  0  0
    4.7380   -6.6380   24.8940 O   0  0  0  0  0  0  0  0  0  0  0  0
    4.9800   -6.7630   23.4940 C   0  0  0  0  0  0  0  0  0  0  0  0
    5.9820   -5.7890   22.9680 C   0  0  2  0  0  0  0  0  0  0  0  0
    5.6470   -4.5960   22.2470 C   0  0  2  0  0  0  0  0  0  0  0  0
    6.2690   -6.0370   21.7320 C   0  0  0  0  0  0  0  0  0  0  0  0
    6.4550   -3.3280   22.4340 C   0  0  2  0  0  0  0  0  0  0  0  0
    6.6860   -2.6000   21.1410 N   0  0  0  0  0  0  0  0  0  0  0  0
    7.8110   -3.6850   23.1250 C   0  0  0  0  0  0  0  0  0  0  0  0
    6.3890   -3.2880   19.9490 C   0  0  0  0  0  0  0  0  0  0  0  0
    8.6100   -2.4960   23.4120 N   0  0  0  0  0  0  0  0  0  0  0  0
    7.6840   -1.6330   21.2570 C   0  0  2  0  0  0  0  0  0  0  0  0
    7.3080   -3.0190   18.7710 C   0  0  0  0  0  0  0  0  0  0  0  0
    5.4690   -4.1200   19.7800 O   0  0  0  0  0  0  0  0  0  0  0  0
   10.0680   -2.6040   23.4890 C   0  0  0  0  0  0  0  0  0  0  0  0
    8.1430   -1.3410   22.6920 C   0  0  0  0  0  0  0  0  0  0  0  0
    7.3340   -0.2440   20.7170 C   0  0  0  0  0  0  0  0  0  0  0  0
   10.7710   -1.2650   23.5260 C   0  0  0  0  0  0  0  0  0  0  0  0
    7.0830   -0.0030   19.3590 C   0  0  0  0  0  0  0  0  0  0  0  0
   10.2100   -0.0540   24.2310 C   0  0  0  0  0  0  0  0  0  0  0  0
   12.1360   -0.9920   22.8290 C   0  0  0  0  0  0  0  0  0  0  0  0
    6.0570    0.4750   20.2450 C   0  0  0  0  0  0  0  0  0  0  0  0
    6.4280    0.4620   18.0890 N   0  0  0  0  0  0  0  0  0  0  0  0
   12.8820   -2.0350   22.0580 C   0  0  0  0  0  0  0  0  0  0  0  0
   10.8170    1.1650   24.2600 C   0  0  0  0  0  0  0  0  0  0  0  0
   12.7390    0.3700   22.9160 C   0  0  0  0  0  0  0  0  0  0  0  0
    5.2680    1.1220   17.8680 C   0  0  0  0  0  0  0  0  0  0  0  0
    4.8410    1.1470   20.0600 C   0  0  0  0  0  0  0  0  0  0  0  0
   12.1660    1.3810   23.5560 C   0  0  0  0  0  0  0  0  0  0  0  0
    4.4720    1.4600   18.8690 C   0  0  0  0  0  0  0  0  0  0  0  0
  1  2  1  0
  2  3  1  0
  3  4  1  0
  5  4  1  6
  5  6  1  0
  5  7  1  0
  6  7  1  6
  6  8  1  0
  8  9  1  0
  8 10  1  6
  9 11  1  0
 10 12  1  0
  9 13  1  0
 11 14  1  0
 11 15  2  0
 12 16  1  0
 12 17  1  0
 13 17  1  0
 13 18  1  1
 16 19  1  0
 18 20  1  0
 19 21  2  0
 19 22  1  0
 20 23  2  0
 20 24  1  0
 22 25  1  0
 21 26  1  0
 22 27  2  0
 24 28  2  0
 23 29  1  0
 26 30  2  0
 27 30  1  0
 28 31  1  0
 29 31  2  0
M  END
