x1374_1-x0397_0-x1334_0-x1386_1-x0434_2-x0831_1-x1334_1-x0831_0-x1412_1-x0426_1-x0770_1-x0692_1-x1418_1
     RDKit          3D

 45 50  0  0  0  0  0  0  0  0999 V2000
    2.5740   -7.5000   23.1250 O   0  0  0  0  0  0  0  0  0  0  0  0
    2.7300   -7.7960   24.4940 C   0  0  0  0  0  0  0  0  0  0  0  0
    4.1090   -7.9640   24.7560 O   0  0  0  0  0  0  0  0  0  0  0  0
    4.7800   -6.7000   24.8020 C   0  0  0  0  0  0  0  0  0  0  0  0
    6.0680   -6.8270   24.2420 C   0  0  0  0  0  0  0  0  0  0  0  0
    6.3070   -5.7940   23.1740 C   0  0  2  0  0  0  0  0  0  0  0  0
    5.2460   -5.2840   22.3720 C   0  0  2  0  0  0  0  0  0  0  0  0
    6.4610   -6.2960   21.9800 C   0  0  0  0  0  0  0  0  0  0  0  0
    5.3000   -3.7690   22.3910 C   0  0  0  0  0  0  0  0  0  0  0  0
    6.6740   -3.1980   22.2720 C   0  0  1  0  0  0  0  0  0  0  0  0
    6.8040   -2.4840   21.0170 N   0  0  0  0  0  0  0  0  0  0  0  0
    7.2670   -2.3820   23.4390 C   0  0  0  0  0  0  0  0  0  0  0  0
    6.4730   -3.1390   19.8130 C   0  0  0  0  0  0  0  0  0  0  0  0
    8.7110   -2.2270   23.3040 N   0  0  0  0  0  0  0  0  0  0  0  0
    7.8580   -1.4530   21.1080 C   0  0  2  0  0  0  0  0  0  0  0  0
    7.4760   -2.9740   18.7120 C   0  0  0  0  0  0  0  0  0  0  0  0
    5.4720   -3.8650   19.6220 O   0  0  0  0  0  0  0  0  0  0  0  0
    9.6810   -3.2060   23.7330 C   0  0  1  0  0  0  0  0  0  0  0  0
    9.0410   -1.9670   21.8940 C   0  0  0  0  0  0  0  0  0  0  0  0
    7.3190   -0.1730   21.8050 C   0  0  0  0  0  0  0  0  0  0  0  0
   11.0170   -2.6390   24.1200 C   0  0  0  0  0  0  0  0  0  0  0  0
    9.2520   -3.9670   24.9600 C   0  0  0  0  0  0  0  0  0  0  0  0
    5.8160    0.0960   21.6560 C   0  0  1  0  0  0  0  0  0  0  0  0
    9.9050   -5.2190   25.4330 C   0  0  0  0  0  0  0  0  0  0  0  0
    7.9880   -3.6430   26.1140 S   0  0  0  0  0  0  0  0  0  0  0  0
   11.2680   -1.1710   23.9020 C   0  0  0  0  0  0  0  0  0  0  0  0
    5.4150    1.0730   22.4900 C   0  0  0  0  0  0  0  0  0  0  0  0
    5.6170    0.5740   20.2760 C   0  0  0  0  0  0  0  0  0  0  0  0
    9.3260   -5.7490   26.6610 C   0  0  0  0  0  0  0  0  0  0  0  0
    8.3070   -5.0200   27.1270 C   0  0  0  0  0  0  0  0  0  0  0  0
   10.3610   -0.1150   24.5770 C   0  0  0  0  0  0  0  0  0  0  0  0
   12.3270   -0.8200   23.0940 C   0  0  0  0  0  0  0  0  0  0  0  0
    3.9160    1.3960   22.3330 C   0  0  1  0  0  0  0  0  0  0  0  0
    4.5790    1.4270   19.9920 C   0  0  0  0  0  0  0  0  0  0  0  0
    6.5160    0.1770   19.1630 C   0  0  0  0  0  0  0  0  0  0  0  0
    7.3590   -5.3000   28.5220 Cl  0  0  0  0  0  0  0  0  0  0  0  0
   13.1790   -1.8950   22.4260 C   0  0  0  0  0  0  0  0  0  0  0  0
   10.7060    1.2310   24.3030 C   0  0  0  0  0  0  0  0  0  0  0  0
   12.6480    0.4870   22.8590 C   0  0  0  0  0  0  0  0  0  0  0  0
    3.5600    2.1560   23.4030 N   0  0  0  0  0  0  0  0  0  0  0  0
    3.6210    1.8730   21.0630 C   0  0  0  0  0  0  0  0  0  0  0  0
    4.4040    1.9000   18.7000 C   0  0  0  0  0  0  0  0  0  0  0  0
    6.4380    0.5640   17.8980 N   0  0  0  0  0  0  0  0  0  0  0  0
   11.7930    1.5870   23.4940 C   0  0  0  0  0  0  0  0  0  0  0  0
    5.4190    1.4020   17.6810 C   0  0  0  0  0  0  0  0  0  0  0  0
  1  2  1  0
  2  3  1  0
  3  4  1  0
  4  5  1  0
  6  5  1  1
  6  7  1  0
  6  8  1  0
  7  8  1  0
  7  9  1  6
 10  9  1  1
 10 11  1  0
 10 12  1  0
 11 13  1  0
 12 14  1  0
 11 15  1  0
 13 16  1  0
 13 17  2  0
 14 18  1  0
 14 19  1  0
 15 19  1  0
 15 20  1  1
 18 21  1  1
 18 22  1  0
 23 20  1  6
 22 24  2  0
 22 25  1  0
 21 26  1  0
 23 27  1  0
 23 28  1  0
 24 29  1  0
 25 30  1  0
 29 30  2  0
 26 31  2  0
 26 32  1  0
 27 33  1  0
 28 34  2  0
 28 35  1  0
 30 36  1  0
 32 37  1  0
 31 38  1  0
 32 39  2  0
 33 40  1  1
 33 41  1  0
 34 41  1  0
 34 42  1  0
 35 43  2  0
 38 44  2  0
 39 44  1  0
 42 45  2  0
 43 45  1  0
M  END
