x1374_1-x0831_0-x0692_1-x0397_0-x1418_1-x0770_1-x0831_1-x1334_1-x0426_1-x1334_0
     RDKit          3D

 44 49  0  0  0  0  0  0  0  0999 V2000
    2.2290   -7.7780   23.2750 O   0  0  0  0  0  0  0  0  0  0  0  0
    2.4500   -8.0760   24.6370 C   0  0  0  0  0  0  0  0  0  0  0  0
    3.8430   -7.9890   24.8520 O   0  0  0  0  0  0  0  0  0  0  0  0
    4.4640   -7.1780   23.8660 C   0  0  0  0  0  0  0  0  0  0  0  0
    5.0080   -5.9980   24.3410 C   0  0  0  0  0  0  0  0  0  0  0  0
    6.1260   -5.6610   23.4160 C   0  0  2  0  0  0  0  0  0  0  0  0
    5.9360   -4.6580   22.4520 C   0  0  2  0  0  0  0  0  0  0  0  0
    6.2460   -6.2720   22.2250 C   0  0  0  0  0  0  0  0  0  0  0  0
    6.9570   -3.6120   22.0620 C   0  0  1  0  0  0  0  0  0  0  0  0
    6.4400   -2.6720   21.0900 N   0  0  0  0  0  0  0  0  0  0  0  0
    7.5220   -2.9210   23.3090 C   0  0  0  0  0  0  0  0  0  0  0  0
    6.2150   -3.2640   19.8370 C   0  0  0  0  0  0  0  0  0  0  0  0
    8.5080   -1.8170   23.0690 N   0  0  0  0  0  0  0  0  0  0  0  0
    7.1420   -1.3990   21.1500 C   0  0  2  0  0  0  0  0  0  0  0  0
    5.3030   -4.0740   19.6720 O   0  0  0  0  0  0  0  0  0  0  0  0
    7.1580   -2.9540   18.6940 C   0  0  0  0  0  0  0  0  0  0  0  0
    9.7750   -2.1510   23.2860 C   0  0  2  0  0  0  0  0  0  0  0  0
    8.5740   -1.6100   21.6260 C   0  0  0  0  0  0  0  0  0  0  0  0
    6.5020   -0.4280   22.1250 C   0  0  0  0  0  0  0  0  0  0  0  0
   10.1630   -3.4940   23.7430 C   0  0  0  0  0  0  0  0  0  0  0  0
   10.6410   -0.8930   23.3980 C   0  0  0  0  0  0  0  0  0  0  0  0
    5.1620    0.0290   21.6600 C   0  0  1  0  0  0  0  0  0  0  0  0
   10.1590    0.2270   24.0550 C   0  0  0  0  0  0  0  0  0  0  0  0
   11.9320   -0.8090   22.8210 C   0  0  0  0  0  0  0  0  0  0  0  0
    9.4900   -4.1600   24.9310 C   0  0  0  0  0  0  0  0  0  0  0  0
    4.7340    1.0860   22.4690 C   0  0  0  0  0  0  0  0  0  0  0  0
    5.2650    0.5170   20.2580 C   0  0  0  0  0  0  0  0  0  0  0  0
   12.5600   -1.9400   22.0850 C   0  0  0  0  0  0  0  0  0  0  0  0
   10.9640    1.4660   24.1290 C   0  0  0  0  0  0  0  0  0  0  0  0
   12.7010    0.3470   22.8950 C   0  0  0  0  0  0  0  0  0  0  0  0
    9.8490   -5.4650   25.3990 C   0  0  0  0  0  0  0  0  0  0  0  0
    8.1930   -3.6060   25.9950 S   0  0  0  0  0  0  0  0  0  0  0  0
    3.3920    1.6940   22.0220 C   0  0  1  0  0  0  0  0  0  0  0  0
    4.4570    1.6440   19.8140 C   0  0  0  0  0  0  0  0  0  0  0  0
    6.1420   -0.1000   19.3710 C   0  0  0  0  0  0  0  0  0  0  0  0
   12.2560    1.4890   23.5220 C   0  0  0  0  0  0  0  0  0  0  0  0
    9.1560   -6.0310   26.5530 C   0  0  0  0  0  0  0  0  0  0  0  0
    8.1450   -5.0190   27.0050 C   0  0  0  0  0  0  0  0  0  0  0  0
    3.0420    2.5000   23.0600 N   0  0  0  0  0  0  0  0  0  0  0  0
    3.4780    2.3440   20.7920 C   0  0  0  0  0  0  0  0  0  0  0  0
    4.6150    2.0450   18.5090 C   0  0  0  0  0  0  0  0  0  0  0  0
    6.2800    0.3150   18.0900 N   0  0  0  0  0  0  0  0  0  0  0  0
    7.0780   -5.2040   28.3280 Cl  0  0  0  0  0  0  0  0  0  0  0  0
    5.5230    1.3610   17.7050 C   0  0  0  0  0  0  0  0  0  0  0  0
  1  2  1  0
  2  3  1  0
  3  4  1  0
  4  5  1  0
  6  5  1  6
  6  7  1  0
  6  8  1  0
  7  8  1  6
  7  9  1  0
  9 10  1  0
  9 11  1  1
 10 12  1  0
 11 13  1  0
 10 14  1  0
 12 15  2  0
 12 16  1  0
 13 17  1  0
 13 18  1  0
 14 18  1  0
 14 19  1  1
 17 20  1  1
 17 21  1  0
 22 19  1  1
 21 23  2  0
 21 24  1  0
 20 25  1  0
 22 26  1  0
 22 27  1  0
 24 28  1  0
 23 29  1  0
 24 30  2  0
 25 31  2  0
 25 32  1  0
 26 33  1  0
 27 34  2  0
 27 35  1  0
 29 36  2  0
 30 36  1  0
 31 37  1  0
 32 38  1  0
 37 38  2  0
 33 39  1  1
 33 40  1  0
 34 40  1  0
 34 41  1  0
 35 42  2  0
 38 43  1  0
 41 44  2  0
 42 44  1  0
M  END
