x1375_2-x0692_0
     RDKit          3D

 14 14  0  0  0  0  0  0  0  0999 V2000
    6.5840   -4.4890   22.1480 N   0  0  0  0  0  0  0  0  0  0  0  0
    6.6590   -4.3070   20.7730 C   0  0  0  0  0  0  0  0  0  0  0  0
    5.7380   -4.6610   19.9990 O   0  0  0  0  0  0  0  0  0  0  0  0
    7.7280   -4.2990   23.0580 C   0  0  0  0  0  0  0  0  0  0  0  0
    7.9550   -3.5970   20.3640 C   0  0  0  0  0  0  0  0  0  0  0  0
    8.6140   -3.0740   22.7240 C   0  0  0  0  0  0  0  0  0  0  0  0
    9.5060   -2.6930   23.9080 C   0  0  0  0  0  0  0  0  0  0  0  0
   10.5190   -1.5950   23.6530 C   0  0  0  0  0  0  0  0  0  0  0  0
   10.1200   -0.2720   23.8920 C   0  0  0  0  0  0  0  0  0  0  0  0
   11.8020   -1.9470   23.1990 C   0  0  0  0  0  0  0  0  0  0  0  0
   11.1870    0.8100   23.6190 C   0  0  0  0  0  0  0  0  0  0  0  0
   12.7950   -0.9990   22.9450 C   0  0  0  0  0  0  0  0  0  0  0  0
   10.7800    2.2540   23.8520 C   0  0  0  0  0  0  0  0  0  0  0  0
   12.5600    0.3520   23.1300 C   0  0  0  0  0  0  0  0  0  0  0  0
  1  2  1  0
  2  3  2  0
  1  4  1  0
  2  5  1  0
  4  6  1  0
  6  7  1  0
  7  8  1  0
  8  9  2  0
  8 10  1  0
  9 11  1  0
 10 12  2  0
 11 13  1  0
 11 14  2  0
 12 14  1  0
M  END
