x1374_1-x1334_0-x0434_2-x0831_0-x1375_1-x0692_1-x1418_1-x0426_1-x1386_1-x0831_1-x1385_1-x1412_1-x0770_1-x0397_0-x1334_1
     RDKit          3D

 44 49  0  0  0  0  0  0  0  0999 V2000
    1.9260   -6.8390   24.2650 O   0  0  0  0  0  0  0  0  0  0  0  0
    2.8880   -7.6010   23.5780 C   0  0  0  0  0  0  0  0  0  0  0  0
    3.9780   -7.8490   24.4590 O   0  0  0  0  0  0  0  0  0  0  0  0
    4.2760   -6.6680   25.2060 C   0  0  0  0  0  0  0  0  0  0  0  0
    4.3550   -5.6040   24.2860 C   0  0  0  0  0  0  0  0  0  0  0  0
    5.6420   -5.5220   23.4880 C   0  0  2  0  0  0  0  0  0  0  0  0
    5.6630   -4.5230   22.4150 C   0  0  2  0  0  0  0  0  0  0  0  0
    5.8100   -6.2180   22.3630 C   0  0  0  0  0  0  0  0  0  0  0  0
    6.8310   -3.6140   22.1940 C   0  0  1  0  0  0  0  0  0  0  0  0
    6.6210   -2.7110   21.1040 N   0  0  0  0  0  0  0  0  0  0  0  0
    7.1910   -2.8770   23.4470 C   0  0  0  0  0  0  0  0  0  0  0  0
    6.3620   -3.2540   19.8610 C   0  0  0  0  0  0  0  0  0  0  0  0
    8.5600   -2.3430   23.3510 N   0  0  0  0  0  0  0  0  0  0  0  0
    7.5190   -1.6570   21.1810 C   0  0  1  0  0  0  0  0  0  0  0  0
    5.3990   -4.0220   19.6800 O   0  0  0  0  0  0  0  0  0  0  0  0
    7.3070   -2.9730   18.7240 C   0  0  0  0  0  0  0  0  0  0  0  0
    9.5660   -3.2520   23.8970 C   0  0  1  0  0  0  0  0  0  0  0  0
    6.8800   -0.4660   21.9300 C   0  0  0  0  0  0  0  0  0  0  0  0
    8.8350   -1.9760   21.9630 C   0  0  0  0  0  0  0  0  0  0  0  0
    5.4000   -0.3630   21.6990 C   0  0  1  0  0  0  0  0  0  0  0  0
   10.8530   -2.5840   24.3760 C   0  0  0  0  0  0  0  0  0  0  0  0
    9.1520   -4.0650   25.0260 C   0  0  0  0  0  0  0  0  0  0  0  0
    4.5860    0.3850   22.7690 C   0  0  0  0  0  0  0  0  0  0  0  0
    5.3850    0.2910   20.3000 C   0  0  0  0  0  0  0  0  0  0  0  0
    9.7760   -5.3850   25.3090 C   0  0  0  0  0  0  0  0  0  0  0  0
    7.9510   -3.7390   26.2260 S   0  0  0  0  0  0  0  0  0  0  0  0
   11.1870   -1.1550   24.0200 C   0  0  0  0  0  0  0  0  0  0  0  0
    4.1460    1.8060   22.3690 C   0  0  2  0  0  0  0  0  0  0  0  0
    4.4730    1.3040   19.9890 C   0  0  0  0  0  0  0  0  0  0  0  0
    6.3360   -0.0940   19.1660 C   0  0  0  0  0  0  0  0  0  0  0  0
    9.2420   -5.9590   26.4090 C   0  0  0  0  0  0  0  0  0  0  0  0
    8.2450   -5.2220   27.0360 C   0  0  0  0  0  0  0  0  0  0  0  0
   10.3540   -0.0160   24.5890 C   0  0  0  0  0  0  0  0  0  0  0  0
   12.2700   -0.8700   23.1750 C   0  0  0  0  0  0  0  0  0  0  0  0
    3.3680    2.3950   23.4430 N   0  0  0  0  0  0  0  0  0  0  0  0
    3.4930    1.7810   20.9990 C   0  0  0  0  0  0  0  0  0  0  0  0
    7.3570   -5.6430   28.4360 Cl  0  0  0  0  0  0  0  0  0  0  0  0
   13.1180   -1.9340   22.5600 C   0  0  0  0  0  0  0  0  0  0  0  0
    4.5360    1.8850   18.6120 C   0  0  0  0  0  0  0  0  0  0  0  0
    6.4160    0.4010   17.9310 N   0  0  0  0  0  0  0  0  0  0  0  0
   10.6530    1.3300   24.2910 C   0  0  0  0  0  0  0  0  0  0  0  0
   12.5810    0.5290   22.8830 C   0  0  0  0  0  0  0  0  0  0  0  0
    5.4370    1.4710   17.6500 C   0  0  0  0  0  0  0  0  0  0  0  0
   11.8540    1.5780   23.3840 C   0  0  0  0  0  0  0  0  0  0  0  0
  1  2  1  0
  2  3  1  0
  3  4  1  0
  4  5  1  0
  6  5  1  6
  6  7  1  0
  6  8  1  0
  7  8  1  6
  7  9  1  0
  9 10  1  0
  9 11  1  1
 10 12  1  0
 11 13  1  0
 10 14  1  0
 12 15  2  0
 12 16  1  0
 13 17  1  0
 14 18  1  1
 13 19  1  0
 14 19  1  0
 20 18  1  1
 17 21  1  1
 17 22  1  0
 20 23  1  0
 20 24  1  0
 22 25  2  0
 22 26  1  0
 21 27  1  0
 23 28  1  0
 24 29  2  0
 24 30  1  0
 25 31  1  0
 26 32  1  0
 31 32  2  0
 27 33  2  0
 27 34  1  0
 28 35  1  1
 28 36  1  0
 29 36  1  0
 32 37  1  0
 34 38  1  0
 29 39  1  0
 30 40  2  0
 33 41  1  0
 34 42  2  0
 39 43  2  0
 40 43  1  0
 41 44  2  0
 42 44  1  0
M  END
