x1374_1-x1374_2
     RDKit          3D

 11 11  0  0  0  0  0  0  0  0999 V2000
    6.4090   -4.5780   22.1420 N   0  0  0  0  0  0  0  0  0  0  0  0
    6.4830   -4.3490   20.7860 C   0  0  0  0  0  0  0  0  0  0  0  0
    5.5780   -4.6880   19.9890 O   0  0  0  0  0  0  0  0  0  0  0  0
    5.1640   -4.9390   22.7590 C   0  0  2  0  0  0  0  0  0  0  0  0
    7.7820   -3.6230   20.3940 C   0  0  0  0  0  0  0  0  0  0  0  0
    5.0550   -4.4660   24.1890 C   0  0  0  0  0  0  0  0  0  0  0  0
    4.9280   -6.4200   22.6120 C   0  0  0  0  0  0  0  0  0  0  0  0
    4.3000   -5.4370   25.0410 C   0  0  0  0  0  0  0  0  0  0  0  0
    3.8020   -6.8200   24.0430 S   0  0  0  0  0  0  0  0  0  0  0  0
    2.4120   -6.7210   23.6480 O   0  0  0  0  0  0  0  0  0  0  0  0
    4.2820   -8.0400   24.5790 O   0  0  0  0  0  0  0  0  0  0  0  0
  1  2  1  0
  2  3  2  0
  4  1  1  1
  2  5  1  0
  4  6  1  0
  4  7  1  0
  6  8  2  0
  7  9  1  0
  8  9  1  0
  9 10  1  0
  9 11  1  0
M  END
