x1374_1-x1334_0-x0770_1-x1385_1-x1418_1-x0831_0-x1412_1-x1334_1-x0692_1-x0397_0-x0434_2-x0426_1
     RDKit          3D

 44 49  0  0  0  0  0  0  0  0999 V2000
    1.9970   -7.4520   23.7620 O   0  0  0  0  0  0  0  0  0  0  0  0
    2.4410   -8.0310   24.9710 C   0  0  0  0  0  0  0  0  0  0  0  0
    3.8530   -8.0110   24.9770 O   0  0  0  0  0  0  0  0  0  0  0  0
    4.3920   -7.2950   23.8800 C   0  0  0  0  0  0  0  0  0  0  0  0
    4.7800   -6.0460   24.2360 C   0  0  0  0  0  0  0  0  0  0  0  0
    5.7490   -5.4940   23.2380 C   0  0  2  0  0  0  0  0  0  0  0  0
    5.3280   -4.6150   22.3850 C   0  0  2  0  0  0  0  0  0  0  0  0
    6.0670   -5.9940   21.9250 C   0  0  0  0  0  0  0  0  0  0  0  0
    6.0330   -3.3140   22.4430 C   0  0  2  0  0  0  0  0  0  0  0  0
    6.1630   -2.6230   21.1560 N   0  0  0  0  0  0  0  0  0  0  0  0
    7.4040   -3.5840   22.9140 C   0  0  0  0  0  0  0  0  0  0  0  0
    6.1760   -3.3530   19.9740 C   0  0  0  0  0  0  0  0  0  0  0  0
    8.0770   -2.3870   23.2320 N   0  0  0  0  0  0  0  0  0  0  0  0
    7.0210   -1.4190   21.1580 C   0  0  1  0  0  0  0  0  0  0  0  0
    7.1840   -3.0010   18.8740 C   0  0  0  0  0  0  0  0  0  0  0  0
    5.3860   -4.2880   19.8150 O   0  0  0  0  0  0  0  0  0  0  0  0
    6.3170   -0.0750   21.5760 C   0  0  1  0  0  0  0  0  0  0  0  0
    9.1710   -2.5580   24.1690 C   0  0  2  0  0  0  0  0  0  0  0  0
    8.3550   -1.6620   21.9770 C   0  0  0  0  0  0  0  0  0  0  0  0
    5.0760   -0.2690   22.4740 C   0  0  0  0  0  0  0  0  0  0  0  0
   10.5400   -2.4700   23.5260 C   0  0  0  0  0  0  0  0  0  0  0  0
    7.3870    0.9050   22.1480 C   0  0  0  0  0  0  0  0  0  0  0  0
    5.8970    0.4830   20.2210 C   0  0  0  0  0  0  0  0  0  0  0  0
    9.0360   -3.7340   25.1610 C   0  0  0  0  0  0  0  0  0  0  0  0
    4.0770    0.9580   22.5600 C   0  0  1  0  0  0  0  0  0  0  0  0
    4.6960    1.1830   20.0320 C   0  0  0  0  0  0  0  0  0  0  0  0
    6.7750    0.2880   19.0310 C   0  0  0  0  0  0  0  0  0  0  0  0
    9.8730   -4.9640   25.2870 C   0  0  0  0  0  0  0  0  0  0  0  0
    7.8300   -3.8090   26.3360 S   0  0  0  0  0  0  0  0  0  0  0  0
   11.0640   -1.0570   23.5070 C   0  0  0  0  0  0  0  0  0  0  0  0
    4.5740    1.9930   23.4400 N   0  0  0  0  0  0  0  0  0  0  0  0
    3.7000    1.4390   21.1310 C   0  0  0  0  0  0  0  0  0  0  0  0
    4.4590    1.6570   18.7150 C   0  0  0  0  0  0  0  0  0  0  0  0
    6.4860    0.7780   17.7200 N   0  0  0  0  0  0  0  0  0  0  0  0
    9.4450   -5.8980   26.3820 C   0  0  0  0  0  0  0  0  0  0  0  0
    8.3280   -5.3240   27.0100 C   0  0  0  0  0  0  0  0  0  0  0  0
   10.3730    0.0550   23.9970 C   0  0  0  0  0  0  0  0  0  0  0  0
   12.3330   -0.8460   22.9570 C   0  0  0  0  0  0  0  0  0  0  0  0
    7.4260   -5.9390   28.3250 Cl  0  0  0  0  0  0  0  0  0  0  0  0
   13.1240   -1.9760   22.3950 C   0  0  0  0  0  0  0  0  0  0  0  0
    5.3310    1.4390   17.6840 C   0  0  0  0  0  0  0  0  0  0  0  0
   10.9960    1.4100   23.9360 C   0  0  0  0  0  0  0  0  0  0  0  0
   12.8800    0.4050   22.9160 C   0  0  0  0  0  0  0  0  0  0  0  0
   12.2560    1.5320   23.3860 C   0  0  0  0  0  0  0  0  0  0  0  0
  1  2  1  0
  2  3  1  0
  3  4  1  0
  4  5  1  0
  6  5  1  6
  6  7  1  0
  6  8  1  0
  7  8  1  6
  7  9  1  0
  9 10  1  0
  9 11  1  6
 10 12  1  0
 11 13  1  0
 10 14  1  0
 12 15  1  0
 12 16  2  0
 14 17  1  0
 13 18  1  0
 13 19  1  0
 14 19  1  1
 17 20  1  0
 18 21  1  6
 17 22  1  1
 17 23  1  0
 18 24  1  0
 20 25  1  0
 23 26  2  0
 23 27  1  0
 24 28  2  0
 24 29  1  0
 21 30  1  0
 25 31  1  1
 25 32  1  0
 26 32  1  0
 26 33  1  0
 27 34  2  0
 28 35  1  0
 29 36  1  0
 35 36  2  0
 30 37  2  0
 30 38  1  0
 36 39  1  0
 38 40  1  0
 33 41  2  0
 34 41  1  0
 37 42  1  0
 38 43  2  0
 42 44  2  0
 43 44  1  0
M  END
