x1374_1-x0831_1-x0831_0-x0770_1
     RDKit          3D

 26 28  0  0  0  0  0  0  0  0999 V2000
    6.3070   -3.5610   20.0320 C   0  0  0  0  0  0  0  0  0  0  0  0
    7.2450   -3.0790   18.9270 C   0  0  0  0  0  0  0  0  0  0  0  0
    5.4090   -4.3600   19.7960 O   0  0  0  0  0  0  0  0  0  0  0  0
    6.4550   -3.0470   21.4720 C   0  0  2  0  0  0  0  0  0  0  0  0
    5.1190   -3.3650   22.1520 C   0  0  0  0  0  0  0  0  0  0  0  0
    6.4990   -1.4900   21.4190 C   0  0  0  0  0  0  0  0  0  0  0  0
    7.5840   -3.7630   22.2530 C   0  0  0  0  0  0  0  0  0  0  0  0
    7.8460   -0.8170   21.2930 C   0  0  0  0  0  0  0  0  0  0  0  0
    8.0200   -3.1310   23.5550 C   0  0  0  0  0  0  0  0  0  0  0  0
    4.7300   -4.6240   22.9790 C   0  0  2  0  0  0  0  0  0  0  0  0
    8.9010   -2.0130   23.2260 N   0  0  0  0  0  0  0  0  0  0  0  0
    8.9970   -1.6680   21.8030 C   0  0  0  0  0  0  0  0  0  0  0  0
    4.8980   -4.5030   24.4750 C   0  0  0  0  0  0  0  0  0  0  0  0
    5.1610   -6.0620   22.6460 C   0  0  0  0  0  0  0  0  0  0  0  0
   10.2500   -2.2550   23.7030 C   0  0  0  0  0  0  0  0  0  0  0  0
    4.5690   -5.6070   25.1450 C   0  0  0  0  0  0  0  0  0  0  0  0
    4.1250   -6.6950   23.9600 S   0  0  0  0  0  0  0  0  0  0  0  0
    2.5800   -6.6680   23.5640 O   0  0  0  0  0  0  0  0  0  0  0  0
    4.5300   -8.1530   24.2900 O   0  0  0  0  0  0  0  0  0  0  0  0
   11.0030   -0.9620   23.6000 C   0  0  0  0  0  0  0  0  0  0  0  0
   10.4160    0.1670   24.1820 C   0  0  0  0  0  0  0  0  0  0  0  0
   12.2360   -0.8440   22.9440 C   0  0  0  0  0  0  0  0  0  0  0  0
   12.9170   -2.0080   22.2860 C   0  0  0  0  0  0  0  0  0  0  0  0
   11.0450    1.4000   24.1050 C   0  0  0  0  0  0  0  0  0  0  0  0
   12.8570    0.4020   22.8880 C   0  0  0  0  0  0  0  0  0  0  0  0
   12.2630    1.5170   23.4600 C   0  0  0  0  0  0  0  0  0  0  0  0
  1  2  1  0
  1  3  2  0
  4  1  1  0
  4  5  1  1
  4  6  1  0
  4  7  1  0
  6  8  1  0
  7  9  1  0
 10  5  1  6
  9 11  1  0
  8 12  1  0
 11 12  1  0
 10 13  1  0
 10 14  1  0
 11 15  1  0
 13 16  2  0
 14 17  1  0
 16 17  1  0
 17 18  1  0
 17 19  1  0
 15 20  1  0
 20 21  2  0
 20 22  1  0
 22 23  1  0
 21 24  1  0
 22 25  2  0
 24 26  2  0
 25 26  1  0
M  END
