x1374_1-x0770_1-x1386_0-x1412_0-x0692_1
     RDKit          3D

 30 33  0  0  0  0  0  0  0  0999 V2000
    6.2780   -3.2370   19.8550 C   0  0  0  0  0  0  0  0  0  0  0  0
    7.2360   -2.9710   18.7290 C   0  0  0  0  0  0  0  0  0  0  0  0
    5.2870   -3.9340   19.6000 O   0  0  0  0  0  0  0  0  0  0  0  0
    6.5860   -2.7620   21.1240 N   0  0  0  0  0  0  0  0  0  0  0  0
    7.2790   -1.4740   21.3590 C   0  0  0  0  0  0  0  0  0  0  0  0
    6.6140   -3.7050   22.2510 C   0  0  1  0  0  0  0  0  0  0  0  0
    5.9600   -4.9700   21.7760 C   0  0  0  0  0  0  0  0  0  0  0  0
    8.3810   -1.4920   22.4210 C   0  0  0  0  0  0  0  0  0  0  0  0
    7.8240   -3.7110   22.8800 C   0  0  0  0  0  0  0  0  0  0  0  0
    8.0170   -2.4500   23.5180 N   0  0  0  0  0  0  0  0  0  0  0  0
    4.8110   -5.3640   22.6330 C   0  0  2  0  0  0  0  0  0  0  0  0
    9.0360   -2.4940   24.5680 C   0  0  2  0  0  0  0  0  0  0  0  0
    4.1780   -4.5450   23.7660 C   0  0  0  0  0  0  0  0  0  0  0  0
    5.1480   -6.5430   23.2610 C   0  0  0  0  0  0  0  0  0  0  0  0
    8.8890   -1.2880   25.3040 O   0  0  0  0  0  0  0  0  0  0  0  0
   10.4320   -2.6140   23.9160 C   0  0  0  0  0  0  0  0  0  0  0  0
    3.4980   -5.4800   24.7430 C   0  0  0  0  0  0  0  0  0  0  0  0
    3.7410   -7.0580   24.1320 S   0  0  0  0  0  0  0  0  0  0  0  0
    8.8490   -3.6140   25.5550 C   0  0  0  0  0  0  0  0  0  0  0  0
    2.7500   -7.4160   23.1560 O   0  0  0  0  0  0  0  0  0  0  0  0
    4.1180   -7.9520   25.1760 O   0  0  0  0  0  0  0  0  0  0  0  0
    9.7020   -4.7270   25.6800 C   0  0  0  0  0  0  0  0  0  0  0  0
    7.5480   -3.7400   26.7400 S   0  0  0  0  0  0  0  0  0  0  0  0
   11.2240   -1.3620   23.7050 C   0  0  0  0  0  0  0  0  0  0  0  0
    9.2970   -5.6820   26.7340 C   0  0  0  0  0  0  0  0  0  0  0  0
    8.0870   -5.2410   27.4170 C   0  0  0  0  0  0  0  0  0  0  0  0
   12.3230   -1.3490   22.8510 C   0  0  0  0  0  0  0  0  0  0  0  0
   11.0560   -0.0990   24.2510 C   0  0  0  0  0  0  0  0  0  0  0  0
   12.9710   -0.1500   22.7330 C   0  0  0  0  0  0  0  0  0  0  0  0
   12.2170    1.0210   23.6950 S   0  0  0  0  0  0  0  0  0  0  0  0
  1  2  1  0
  1  3  2  0
  1  4  1  0
  4  5  1  0
  4  6  1  0
  6  7  1  6
  5  8  1  0
  6  9  1  0
  8 10  1  0
  9 10  1  0
 11  7  1  1
 10 12  1  0
 11 13  1  0
 11 14  1  0
 12 15  1  1
 12 16  1  0
 13 17  2  0
 14 18  1  0
 17 18  1  0
 12 19  1  0
 18 20  1  0
 18 21  1  0
 19 22  2  0
 19 23  1  0
 16 24  1  0
 22 25  1  0
 23 26  1  0
 25 26  2  0
 24 27  1  0
 24 28  2  0
 27 29  2  0
 28 30  1  0
 29 30  1  0
M  END
