x1374_1-x1334_1-x1385_1-x0434_2-x0770_1-x0831_1-x0831_0-x1386_1-x0397_0-x1412_1-x1418_1-x0692_1-x1334_0
     RDKit          3D

 39 43  0  0  0  0  0  0  0  0999 V2000
    2.0170   -7.1690   23.5410 O   0  0  0  0  0  0  0  0  0  0  0  0
    2.4490   -7.5610   24.8340 C   0  0  0  0  0  0  0  0  0  0  0  0
    3.8260   -7.8980   24.8330 O   0  0  0  0  0  0  0  0  0  0  0  0
    4.5330   -7.1620   23.8480 C   0  0  0  0  0  0  0  0  0  0  0  0
    5.0310   -5.8920   24.3950 C   0  0  0  0  0  0  0  0  0  0  0  0
    6.0660   -5.4440   23.4170 C   0  0  2  0  0  0  0  0  0  0  0  0
    5.7430   -4.5070   22.4170 C   0  0  2  0  0  0  0  0  0  0  0  0
    6.1840   -5.9480   21.8900 C   0  0  0  0  0  0  0  0  0  0  0  0
    6.5210   -3.2300   22.3870 C   0  0  2  0  0  0  0  0  0  0  0  0
    6.6120   -2.5740   21.0800 N   0  0  0  0  0  0  0  0  0  0  0  0
    7.9100   -3.4410   23.0190 C   0  0  0  0  0  0  0  0  0  0  0  0
    6.3460   -3.2940   19.9090 C   0  0  0  0  0  0  0  0  0  0  0  0
    8.7730   -2.2180   23.0110 N   0  0  0  0  0  0  0  0  0  0  0  0
    7.5700   -1.5870   20.9660 C   0  0  1  0  0  0  0  0  0  0  0  0
    7.2770   -3.0330   18.7430 C   0  0  0  0  0  0  0  0  0  0  0  0
    5.4420   -4.1430   19.7570 O   0  0  0  0  0  0  0  0  0  0  0  0
   10.0880   -2.4050   23.2850 C   0  0  2  0  0  0  0  0  0  0  0  0
    6.8900   -0.3570   21.3230 N   0  0  0  0  0  0  0  0  0  0  0  0
    8.8820   -1.7690   21.7230 C   0  0  0  0  0  0  0  0  0  0  0  0
   10.5850   -3.1470   24.4710 C   0  0  0  0  0  0  0  0  0  0  0  0
   10.7890   -1.0310   23.3490 C   0  0  0  0  0  0  0  0  0  0  0  0
    6.2720    0.2700   20.2620 C   0  0  0  0  0  0  0  0  0  0  0  0
    9.9770    0.1510   23.9280 C   0  0  0  0  0  0  0  0  0  0  0  0
   12.1150   -0.8500   22.8980 C   0  0  0  0  0  0  0  0  0  0  0  0
    9.7370   -4.0270   25.3420 C   0  0  0  0  0  0  0  0  0  0  0  0
    6.8200    0.2150   18.8190 C   0  0  0  0  0  0  0  0  0  0  0  0
    5.0170    1.0880   20.2620 C   0  0  0  0  0  0  0  0  0  0  0  0
   12.9100   -1.9680   22.3170 C   0  0  0  0  0  0  0  0  0  0  0  0
   10.7460    1.5010   23.9690 C   0  0  0  0  0  0  0  0  0  0  0  0
   12.8330    0.5060   22.9600 C   0  0  0  0  0  0  0  0  0  0  0  0
   10.0560   -5.4200   25.7220 C   0  0  0  0  0  0  0  0  0  0  0  0
    8.1520   -3.6640   26.1910 S   0  0  0  0  0  0  0  0  0  0  0  0
    6.3440    0.7700   17.7040 N   0  0  0  0  0  0  0  0  0  0  0  0
    4.5330    1.6850   18.9580 C   0  0  0  0  0  0  0  0  0  0  0  0
   12.1920    1.5520   23.4470 C   0  0  0  0  0  0  0  0  0  0  0  0
    9.1910   -6.0730   26.5630 C   0  0  0  0  0  0  0  0  0  0  0  0
    8.1200   -5.2290   26.9060 C   0  0  0  0  0  0  0  0  0  0  0  0
    5.2150    1.4860   17.8270 C   0  0  0  0  0  0  0  0  0  0  0  0
    6.8390   -5.6560   27.9590 Cl  0  0  0  0  0  0  0  0  0  0  0  0
  1  2  1  0
  2  3  1  0
  3  4  1  0
  4  5  1  0
  6  5  1  1
  6  7  1  0
  6  8  1  0
  7  8  1  6
  7  9  1  0
  9 10  1  0
  9 11  1  6
 10 12  1  0
 11 13  1  0
 10 14  1  0
 12 15  1  0
 12 16  2  0
 13 17  1  0
 14 18  1  1
 13 19  1  0
 14 19  1  0
 17 20  1  1
 17 21  1  0
 18 22  1  0
 21 23  2  0
 21 24  1  0
 20 25  1  0
 22 26  2  0
 22 27  1  0
 24 28  1  0
 23 29  1  0
 24 30  2  0
 25 31  2  0
 25 32  1  0
 26 33  1  0
 27 34  2  0
 29 35  2  0
 30 35  1  0
 31 36  1  0
 32 37  1  0
 36 37  2  0
 33 38  2  0
 34 38  1  0
 37 39  1  0
M  END
