x1374_1-x0397_0-x1334_1-x1334_0-x1412_1-x1385_1-x0434_2-x0831_0
     RDKit          3D

 39 43  0  0  0  0  0  0  0  0999 V2000
    1.8890   -7.2870   23.9090 O   0  0  0  0  0  0  0  0  0  0  0  0
    2.2970   -8.0660   25.0160 C   0  0  0  0  0  0  0  0  0  0  0  0
    3.7100   -8.0340   25.0600 O   0  0  0  0  0  0  0  0  0  0  0  0
    4.2610   -7.3710   23.9400 C   0  0  0  0  0  0  0  0  0  0  0  0
    4.6120   -6.0930   24.2470 C   0  0  0  0  0  0  0  0  0  0  0  0
    5.7240   -5.7650   23.3090 C   0  0  2  0  0  0  0  0  0  0  0  0
    5.6450   -4.7770   22.3190 C   0  0  2  0  0  0  0  0  0  0  0  0
    5.7990   -6.3980   22.1190 C   0  0  0  0  0  0  0  0  0  0  0  0
    6.7550   -3.8470   22.0110 C   0  0  1  0  0  0  0  0  0  0  0  0
    6.3870   -2.7290   21.1490 N   0  0  0  0  0  0  0  0  0  0  0  0
    7.4700   -3.6700   23.3300 C   0  0  0  0  0  0  0  0  0  0  0  0
    6.2430   -3.2280   19.8450 C   0  0  0  0  0  0  0  0  0  0  0  0
    8.3180   -2.5180   23.2530 N   0  0  0  0  0  0  0  0  0  0  0  0
    7.2240   -1.5670   21.4590 C   0  0  2  0  0  0  0  0  0  0  0  0
    7.2570   -2.9430   18.7430 C   0  0  0  0  0  0  0  0  0  0  0  0
    5.2940   -3.9790   19.6180 O   0  0  0  0  0  0  0  0  0  0  0  0
    9.3380   -2.6040   24.1840 C   0  0  2  0  0  0  0  0  0  0  0  0
    7.5780   -0.7420   20.3600 N   0  0  0  0  0  0  0  0  0  0  0  0
    8.5890   -1.9720   22.0630 C   0  0  0  0  0  0  0  0  0  0  0  0
   10.7600   -2.5490   23.6670 C   0  0  0  0  0  0  0  0  0  0  0  0
    9.1260   -3.7480   25.1950 C   0  0  0  0  0  0  0  0  0  0  0  0
    6.6320    0.0220   19.7350 C   0  0  0  0  0  0  0  0  0  0  0  0
    9.8810   -4.9010   25.3020 C   0  0  0  0  0  0  0  0  0  0  0  0
    7.8600   -3.8650   26.4500 S   0  0  0  0  0  0  0  0  0  0  0  0
   11.2530   -1.1200   23.5550 C   0  0  0  0  0  0  0  0  0  0  0  0
    6.9400    0.3110   18.4560 C   0  0  0  0  0  0  0  0  0  0  0  0
    5.4390    0.4860   20.3300 C   0  0  0  0  0  0  0  0  0  0  0  0
    9.4560   -5.8420   26.3590 C   0  0  0  0  0  0  0  0  0  0  0  0
    8.3260   -5.3790   27.0910 C   0  0  0  0  0  0  0  0  0  0  0  0
   10.5050   -0.0510   23.9920 C   0  0  0  0  0  0  0  0  0  0  0  0
   12.4580   -0.8830   23.0170 C   0  0  0  0  0  0  0  0  0  0  0  0
    6.2590    1.0270   17.5680 N   0  0  0  0  0  0  0  0  0  0  0  0
    4.4860    1.3220   19.5460 C   0  0  0  0  0  0  0  0  0  0  0  0
    7.4480   -6.0520   28.3920 Cl  0  0  0  0  0  0  0  0  0  0  0  0
   13.2540   -2.0260   22.5220 C   0  0  0  0  0  0  0  0  0  0  0  0
   10.7590    1.4970   24.0250 C   0  0  0  0  0  0  0  0  0  0  0  0
   12.8950    0.4100   22.9450 C   0  0  0  0  0  0  0  0  0  0  0  0
    5.0030    1.5630   18.0920 C   0  0  0  0  0  0  0  0  0  0  0  0
   12.1290    1.4840   23.4020 C   0  0  0  0  0  0  0  0  0  0  0  0
  1  2  1  0
  2  3  1  0
  3  4  1  0
  4  5  1  0
  6  5  1  6
  6  7  1  0
  6  8  1  0
  7  8  1  6
  7  9  1  0
  9 10  1  0
  9 11  1  1
 10 12  1  0
 11 13  1  0
 10 14  1  0
 12 15  1  0
 12 16  2  0
 13 17  1  0
 14 18  1  6
 13 19  1  0
 14 19  1  0
 17 20  1  6
 17 21  1  0
 18 22  1  0
 21 23  2  0
 21 24  1  0
 20 25  1  0
 22 26  2  0
 22 27  1  0
 23 28  1  0
 24 29  1  0
 28 29  2  0
 25 30  2  0
 25 31  1  0
 26 32  1  0
 27 33  2  0
 29 34  1  0
 31 35  1  0
 30 36  1  0
 31 37  2  0
 32 38  2  0
 33 38  1  0
 36 39  2  0
 37 39  1  0
M  END
