x1375_1-x0831_0-x1412_1-x0692_1-x1386_1-x1385_1-x0397_0-x1334_1-x0770_1-x0434_2-x0831_1
     RDKit          3D

 31 34  0  0  0  0  0  0  0  0999 V2000
    2.5300   -7.5900   23.7240 O   0  0  0  0  0  0  0  0  0  0  0  0
    3.1600   -7.0030   24.8510 C   0  0  0  0  0  0  0  0  0  0  0  0
    4.5420   -7.2700   24.8180 O   0  0  0  0  0  0  0  0  0  0  0  0
    5.0370   -7.0670   23.5010 C   0  0  0  0  0  0  0  0  0  0  0  0
    5.9230   -5.9250   23.2100 C   0  0  2  0  0  0  0  0  0  0  0  0
    5.6320   -4.7510   22.2830 C   0  0  2  0  0  0  0  0  0  0  0  0
    6.3530   -5.9400   21.7640 C   0  0  0  0  0  0  0  0  0  0  0  0
    6.3960   -3.4690   22.5800 C   0  0  2  0  0  0  0  0  0  0  0  0
    6.5490   -2.6970   21.3420 N   0  0  0  0  0  0  0  0  0  0  0  0
    7.7990   -3.7660   23.2570 C   0  0  0  0  0  0  0  0  0  0  0  0
    6.3640   -3.2910   20.0400 C   0  0  0  0  0  0  0  0  0  0  0  0
    8.6960   -2.5610   23.3380 N   0  0  0  0  0  0  0  0  0  0  0  0
    7.3770   -1.5140   21.6140 C   0  0  2  0  0  0  0  0  0  0  0  0
    7.3080   -2.9680   18.8900 C   0  0  0  0  0  0  0  0  0  0  0  0
    5.4560   -4.1210   19.7970 O   0  0  0  0  0  0  0  0  0  0  0  0
   10.0380   -2.6320   23.6690 C   0  0  0  0  0  0  0  0  0  0  0  0
    7.6980   -0.6810   20.5230 N   0  0  0  0  0  0  0  0  0  0  0  0
    8.7510   -2.0170   22.0110 C   0  0  0  0  0  0  0  0  0  0  0  0
   10.7550   -1.2710   23.6450 C   0  0  0  0  0  0  0  0  0  0  0  0
    6.6860    0.0570   19.8170 C   0  0  0  0  0  0  0  0  0  0  0  0
   10.1730   -0.1700   24.2960 C   0  0  0  0  0  0  0  0  0  0  0  0
   11.9970   -1.0650   22.9740 C   0  0  0  0  0  0  0  0  0  0  0  0
    6.9890    0.2970   18.3940 C   0  0  0  0  0  0  0  0  0  0  0  0
    5.4830    0.5570   20.3300 C   0  0  0  0  0  0  0  0  0  0  0  0
   12.7130   -2.1490   22.2350 C   0  0  0  0  0  0  0  0  0  0  0  0
   10.7830    1.0830   24.2840 C   0  0  0  0  0  0  0  0  0  0  0  0
   12.5950    0.2020   22.9840 C   0  0  0  0  0  0  0  0  0  0  0  0
    6.1990    0.9600   17.5700 N   0  0  0  0  0  0  0  0  0  0  0  0
    4.6440    1.2430   19.5280 C   0  0  0  0  0  0  0  0  0  0  0  0
   11.9960    1.2670   23.6290 C   0  0  0  0  0  0  0  0  0  0  0  0
    5.0230    1.4370   18.1500 C   0  0  0  0  0  0  0  0  0  0  0  0
  1  2  1  0
  2  3  1  0
  3  4  1  0
  5  4  1  6
  5  6  1  0
  5  7  1  0
  6  7  1  6
  6  8  1  0
  8  9  1  0
  8 10  1  6
  9 11  1  0
 10 12  1  0
  9 13  1  0
 11 14  1  0
 11 15  2  0
 12 16  1  0
 13 17  1  6
 12 18  1  0
 13 18  1  0
 16 19  1  0
 17 20  1  0
 19 21  2  0
 19 22  1  0
 20 23  2  0
 20 24  1  0
 22 25  1  0
 21 26  1  0
 22 27  2  0
 23 28  1  0
 24 29  2  0
 26 30  2  0
 27 30  1  0
 28 31  2  0
 29 31  1  0
M  END
