x1374_1-x1412_1-x1375_1-x1334_0-x0692_1-x0831_0-x0397_0-x0770_1-x0831_1
     RDKit          3D

 32 35  0  0  0  0  0  0  0  0999 V2000
    2.2670   -7.6520   23.2600 O   0  0  0  0  0  0  0  0  0  0  0  0
    2.4480   -8.0450   24.6020 C   0  0  0  0  0  0  0  0  0  0  0  0
    3.8390   -8.0220   24.8560 O   0  0  0  0  0  0  0  0  0  0  0  0
    4.4910   -7.2590   23.8490 C   0  0  0  0  0  0  0  0  0  0  0  0
    4.8800   -6.0860   24.3670 C   0  0  0  0  0  0  0  0  0  0  0  0
    5.8550   -5.5840   23.3470 C   0  0  2  0  0  0  0  0  0  0  0  0
    5.4650   -4.5920   22.4260 C   0  0  2  0  0  0  0  0  0  0  0  0
    5.9990   -6.1320   22.1210 C   0  0  0  0  0  0  0  0  0  0  0  0
    6.2430   -3.3080   22.3510 C   0  0  2  0  0  0  0  0  0  0  0  0
    6.4010   -2.5830   21.0940 N   0  0  0  0  0  0  0  0  0  0  0  0
    7.5920   -3.5590   22.9720 C   0  0  0  0  0  0  0  0  0  0  0  0
    6.3130   -3.3070   19.8940 C   0  0  0  0  0  0  0  0  0  0  0  0
    8.1790   -2.2810   23.3380 N   0  0  0  0  0  0  0  0  0  0  0  0
    7.3280   -1.4270   21.1500 C   0  0  0  0  0  0  0  0  0  0  0  0
    7.3170   -3.0160   18.7890 C   0  0  0  0  0  0  0  0  0  0  0  0
    5.4510   -4.1740   19.7470 O   0  0  0  0  0  0  0  0  0  0  0  0
    9.2260   -2.4510   24.1520 C   0  0  2  0  0  0  0  0  0  0  0  0
    8.5960   -1.7080   22.0420 C   0  0  0  0  0  0  0  0  0  0  0  0
   10.4810   -2.5160   23.2900 C   0  0  0  0  0  0  0  0  0  0  0  0
    9.0290   -3.6540   25.1030 C   0  0  0  0  0  0  0  0  0  0  0  0
    9.7060   -4.8640   25.0830 C   0  0  0  0  0  0  0  0  0  0  0  0
    7.8820   -3.7570   26.4750 S   0  0  0  0  0  0  0  0  0  0  0  0
   11.1060   -1.1340   23.3010 C   0  0  0  0  0  0  0  0  0  0  0  0
    9.3230   -5.8320   26.1340 C   0  0  0  0  0  0  0  0  0  0  0  0
    8.2990   -5.3360   26.9970 C   0  0  0  0  0  0  0  0  0  0  0  0
   10.4570   -0.1110   23.9570 C   0  0  0  0  0  0  0  0  0  0  0  0
   12.2930   -0.8830   22.6960 C   0  0  0  0  0  0  0  0  0  0  0  0
    7.5000   -6.0120   28.3480 Cl  0  0  0  0  0  0  0  0  0  0  0  0
   13.0150   -1.9560   21.9620 C   0  0  0  0  0  0  0  0  0  0  0  0
   10.8010    1.4000   24.1830 C   0  0  0  0  0  0  0  0  0  0  0  0
   12.7900    0.3870   22.7910 C   0  0  0  0  0  0  0  0  0  0  0  0
   12.1230    1.4140   23.4560 C   0  0  0  0  0  0  0  0  0  0  0  0
  1  2  1  0
  2  3  1  0
  3  4  1  0
  4  5  1  0
  6  5  1  1
  6  7  1  0
  6  8  1  0
  7  8  1  6
  7  9  1  0
  9 10  1  0
  9 11  1  6
 10 12  1  0
 11 13  1  0
 10 14  1  0
 12 15  1  0
 12 16  2  0
 13 17  1  0
 13 18  1  0
 14 18  1  0
 17 19  1  6
 17 20  1  0
 20 21  2  0
 20 22  1  0
 19 23  1  0
 21 24  1  0
 22 25  1  0
 24 25  2  0
 23 26  2  0
 23 27  1  0
 25 28  1  0
 27 29  1  0
 26 30  1  0
 27 31  2  0
 30 32  2  0
 31 32  1  0
M  END
