x1374_1-x0434_1
     RDKit          3D

 19 20  0  0  0  0  0  0  0  0999 V2000
    8.5790   -0.5610   21.3170 C   0  0  0  0  0  0  0  0  0  0  0  0
    7.2490   -0.8630   21.1880 N   0  0  0  0  0  0  0  0  0  0  0  0
    6.6680   -1.7790   22.1290 C   0  0  0  0  0  0  0  0  0  0  0  0
    9.0370    0.5690   21.4230 O   0  0  0  0  0  0  0  0  0  0  0  0
    6.4940   -0.1050   20.2220 C   0  0  0  0  0  0  0  0  0  0  0  0
    5.6000   -2.6720   21.5110 C   0  0  0  0  0  0  0  0  0  0  0  0
    7.0190   -0.1630   18.8030 C   0  0  0  0  0  0  0  0  0  0  0  0
    5.2350    0.7570   20.4010 C   0  0  0  0  0  0  0  0  0  0  0  0
    5.7780   -4.1760   21.7840 C   0  0  0  0  0  0  0  0  0  0  0  0
    6.3770    0.5570   17.7180 N   0  0  0  0  0  0  0  0  0  0  0  0
    4.6420    1.4360   19.3210 C   0  0  0  0  0  0  0  0  0  0  0  0
    5.1920    1.3430   18.0360 C   0  0  0  0  0  0  0  0  0  0  0  0
    4.7100   -4.7890   22.7290 C   0  0  2  0  0  0  0  0  0  0  0  0
    4.8590   -4.3630   24.2030 C   0  0  0  0  0  0  0  0  0  0  0  0
    4.8250   -6.1630   22.7330 C   0  0  0  0  0  0  0  0  0  0  0  0
    4.3910   -5.3000   25.1020 C   0  0  0  0  0  0  0  0  0  0  0  0
    3.8080   -6.6940   24.1900 S   0  0  0  0  0  0  0  0  0  0  0  0
    2.2460   -6.6430   23.8400 O   0  0  0  0  0  0  0  0  0  0  0  0
    4.2570   -8.0900   24.7770 O   0  0  0  0  0  0  0  0  0  0  0  0
  1  2  1  0
  2  3  1  0
  1  4  2  0
  2  5  1  0
  3  6  1  0
  5  7  2  0
  5  8  1  0
  6  9  1  0
  7 10  1  0
  8 11  2  0
 10 12  2  0
 11 12  1  0
 13  9  1  6
 13 14  1  0
 13 15  1  0
 14 16  2  0
 15 17  1  0
 16 17  1  0
 17 18  1  0
 17 19  1  0
M  END
