x1374_1-x1375_1-x0770_1-x1412_1-x1386_1-x0434_2-x0426_1-x0831_0-x1418_1-x1334_1-x0831_1-x1334_0-x0397_0-x0692_1-x1385_1
     RDKit          3D

 44 49  0  0  0  0  0  0  0  0999 V2000
    2.6150   -7.5050   23.2430 O   0  0  0  0  0  0  0  0  0  0  0  0
    3.1990   -7.0430   24.4420 C   0  0  0  0  0  0  0  0  0  0  0  0
    4.3740   -7.7740   24.7530 O   0  0  0  0  0  0  0  0  0  0  0  0
    5.6020   -7.2980   24.1860 C   0  0  0  0  0  0  0  0  0  0  0  0
    5.6350   -5.9510   23.9180 C   0  0  0  0  0  0  0  0  0  0  0  0
    6.2520   -5.8770   22.5630 C   0  0  2  0  0  0  0  0  0  0  0  0
    6.6500   -4.7630   22.0310 C   0  0  1  0  0  0  0  0  0  0  0  0
    5.4670   -5.8050   21.6020 C   0  0  0  0  0  0  0  0  0  0  0  0
    6.3850   -3.3350   22.4050 C   0  0  2  0  0  0  0  0  0  0  0  0
    6.3400   -2.5840   21.1400 N   0  0  0  0  0  0  0  0  0  0  0  0
    7.3270   -2.9580   23.3780 C   0  0  0  0  0  0  0  0  0  0  0  0
    6.2440   -3.2990   19.9390 C   0  0  0  0  0  0  0  0  0  0  0  0
    8.2680   -1.8520   23.0680 N   0  0  0  0  0  0  0  0  0  0  0  0
    7.0600   -1.3180   21.0450 C   0  0  1  0  0  0  0  0  0  0  0  0
    7.2710   -3.0180   18.8440 C   0  0  0  0  0  0  0  0  0  0  0  0
    5.3790   -4.1680   19.7590 O   0  0  0  0  0  0  0  0  0  0  0  0
    6.4220    0.0240   21.5020 C   0  0  1  0  0  0  0  0  0  0  0  0
    9.5110   -1.9320   23.8150 C   0  0  1  0  0  0  0  0  0  0  0  0
    8.4340   -1.5970   21.6490 C   0  0  0  0  0  0  0  0  0  0  0  0
    5.3680   -0.1110   22.6390 C   0  0  0  0  0  0  0  0  0  0  0  0
   10.0020   -3.3380   23.9150 C   0  0  0  0  0  0  0  0  0  0  0  0
    7.4610    0.9980   22.1070 C   0  0  0  0  0  0  0  0  0  0  0  0
    5.9420    0.5520   20.2560 C   0  0  0  0  0  0  0  0  0  0  0  0
   10.4610   -0.8280   23.6320 C   0  0  0  0  0  0  0  0  0  0  0  0
    4.1260    0.8670   22.5990 C   0  0  1  0  0  0  0  0  0  0  0  0
    4.6120    1.3340   20.1490 C   0  0  0  0  0  0  0  0  0  0  0  0
    6.7220    0.3270   19.1750 C   0  0  0  0  0  0  0  0  0  0  0  0
   10.1120    0.4570   24.0470 C   0  0  0  0  0  0  0  0  0  0  0  0
   11.7580   -0.9880   23.0460 C   0  0  0  0  0  0  0  0  0  0  0  0
    9.4030   -4.0080   25.0910 C   0  0  0  0  0  0  0  0  0  0  0  0
    4.2260    1.9050   23.6080 N   0  0  0  0  0  0  0  0  0  0  0  0
    3.7050    1.6010   21.2970 C   0  0  0  0  0  0  0  0  0  0  0  0
   12.2980   -2.2840   22.5340 C   0  0  0  0  0  0  0  0  0  0  0  0
    4.4120    1.7670   18.7310 C   0  0  0  0  0  0  0  0  0  0  0  0
    6.5440    0.7250   17.7800 N   0  0  0  0  0  0  0  0  0  0  0  0
   11.0650    1.6590   23.9000 C   0  0  0  0  0  0  0  0  0  0  0  0
   12.6740    0.1930   22.9140 C   0  0  0  0  0  0  0  0  0  0  0  0
   10.0540   -5.2300   25.5560 C   0  0  0  0  0  0  0  0  0  0  0  0
    7.9710   -3.6480   26.1640 S   0  0  0  0  0  0  0  0  0  0  0  0
    5.3760    1.4550   17.6150 C   0  0  0  0  0  0  0  0  0  0  0  0
   12.3160    1.4010   23.3210 C   0  0  0  0  0  0  0  0  0  0  0  0
    9.4200   -5.7280   26.6590 C   0  0  0  0  0  0  0  0  0  0  0  0
    8.3270   -5.0300   27.1090 C   0  0  0  0  0  0  0  0  0  0  0  0
    7.3370   -5.3940   28.4580 Cl  0  0  0  0  0  0  0  0  0  0  0  0
  1  2  1  0
  2  3  1  0
  3  4  1  0
  4  5  1  0
  6  5  1  1
  6  7  1  0
  6  8  1  0
  7  8  1  6
  7  9  1  0
  9 10  1  0
  9 11  1  1
 10 12  1  0
 11 13  1  0
 10 14  1  0
 12 15  1  0
 12 16  2  0
 14 17  1  0
 13 18  1  0
 13 19  1  0
 14 19  1  1
 17 20  1  0
 18 21  1  6
 17 22  1  1
 17 23  1  0
 18 24  1  0
 20 25  1  0
 23 26  2  0
 23 27  1  0
 24 28  2  0
 24 29  1  0
 21 30  1  0
 25 31  1  1
 25 32  1  0
 26 32  1  0
 29 33  1  0
 26 34  1  0
 27 35  2  0
 28 36  1  0
 29 37  2  0
 30 38  2  0
 30 39  1  0
 34 40  2  0
 35 40  1  0
 36 41  2  0
 37 41  1  0
 38 42  1  0
 39 43  1  0
 42 43  2  0
 43 44  1  0
M  END
