x1374_1-x0831_0-x1418_1-x1385_1-x1386_1-x1412_1-x0434_2-x1334_1-x0426_1-x0770_1-x0831_1-x0692_1-x0397_0-x1334_0
     RDKit          3D

 43 48  0  0  0  0  0  0  0  0999 V2000
    2.0120   -7.1910   23.5590 O   0  0  0  0  0  0  0  0  0  0  0  0
    2.4760   -7.5690   24.8460 C   0  0  0  0  0  0  0  0  0  0  0  0
    3.8540   -7.8970   24.8220 O   0  0  0  0  0  0  0  0  0  0  0  0
    4.5060   -7.2240   23.7640 C   0  0  0  0  0  0  0  0  0  0  0  0
    4.8910   -5.9910   24.1780 C   0  0  0  0  0  0  0  0  0  0  0  0
    5.9410   -5.4500   23.2650 C   0  0  2  0  0  0  0  0  0  0  0  0
    5.5640   -4.4940   22.4830 C   0  0  2  0  0  0  0  0  0  0  0  0
    6.1330   -5.9890   22.0730 C   0  0  0  0  0  0  0  0  0  0  0  0
    6.2930   -3.1630   22.4000 C   0  0  1  0  0  0  0  0  0  0  0  0
    7.7070   -3.2650   22.9490 C   0  0  0  0  0  0  0  0  0  0  0  0
    6.2680   -2.5490   21.1080 N   0  0  0  0  0  0  0  0  0  0  0  0
    6.2430   -3.3140   19.9450 C   0  0  0  0  0  0  0  0  0  0  0  0
    8.2550   -1.9250   23.0830 N   0  0  0  0  0  0  0  0  0  0  0  0
    7.0250   -1.2680   21.1010 C   0  0  1  0  0  0  0  0  0  0  0  0
    7.2950   -3.0260   18.8820 C   0  0  0  0  0  0  0  0  0  0  0  0
    5.4230   -4.2190   19.7690 O   0  0  0  0  0  0  0  0  0  0  0  0
    6.2790   -0.0200   21.4340 C   0  0  2  0  0  0  0  0  0  0  0  0
    9.4810   -1.9680   23.8600 C   0  0  1  0  0  0  0  0  0  0  0  0
    8.2810   -1.2840   21.7770 C   0  0  0  0  0  0  0  0  0  0  0  0
    5.0960   -0.1860   22.4340 C   0  0  0  0  0  0  0  0  0  0  0  0
    9.9270   -3.3940   23.8100 C   0  0  0  0  0  0  0  0  0  0  0  0
    5.8500    0.5630   20.1390 C   0  0  0  0  0  0  0  0  0  0  0  0
   10.5510   -0.8940   23.5990 C   0  0  0  0  0  0  0  0  0  0  0  0
    4.0970    1.0320   22.4820 C   0  0  1  0  0  0  0  0  0  0  0  0
    4.6610    1.2770   20.0010 C   0  0  0  0  0  0  0  0  0  0  0  0
    6.7760    0.3300   18.9770 C   0  0  0  0  0  0  0  0  0  0  0  0
   10.2970    0.4080   24.1780 C   0  0  0  0  0  0  0  0  0  0  0  0
   11.9350   -0.8900   22.8050 C   0  0  0  0  0  0  0  0  0  0  0  0
    9.4170   -4.2480   24.9530 C   0  0  0  0  0  0  0  0  0  0  0  0
    4.5360    2.0690   23.4220 N   0  0  0  0  0  0  0  0  0  0  0  0
    3.6810    1.5290   21.1020 C   0  0  0  0  0  0  0  0  0  0  0  0
   12.5220   -2.0460   22.0700 C   0  0  0  0  0  0  0  0  0  0  0  0
    4.3660    1.7720   18.8130 C   0  0  0  0  0  0  0  0  0  0  0  0
    6.4700    0.8630   17.6430 N   0  0  0  0  0  0  0  0  0  0  0  0
   11.1340    1.4750   24.0490 C   0  0  0  0  0  0  0  0  0  0  0  0
   12.6990    0.2710   22.7640 C   0  0  0  0  0  0  0  0  0  0  0  0
    9.8660   -5.5120   25.2620 C   0  0  0  0  0  0  0  0  0  0  0  0
    8.1720   -3.7810   26.0850 S   0  0  0  0  0  0  0  0  0  0  0  0
    5.2300    1.6080   17.5960 C   0  0  0  0  0  0  0  0  0  0  0  0
   12.3080    1.4240   23.3670 C   0  0  0  0  0  0  0  0  0  0  0  0
    9.2230   -6.0200   26.3630 C   0  0  0  0  0  0  0  0  0  0  0  0
    8.2780   -5.2400   26.9490 C   0  0  0  0  0  0  0  0  0  0  0  0
    7.3170   -5.5990   28.3190 Cl  0  0  0  0  0  0  0  0  0  0  0  0
  1  2  1  0
  2  3  1  0
  3  4  1  0
  4  5  1  0
  6  5  1  1
  6  7  1  0
  6  8  1  0
  7  8  1  6
  7  9  1  0
  9 10  1  6
  9 11  1  0
 11 12  1  0
 10 13  1  0
 11 14  1  0
 12 15  1  0
 12 16  2  0
 14 17  1  0
 13 18  1  0
 13 19  1  0
 14 19  1  1
 17 20  1  1
 18 21  1  6
 17 22  1  0
 18 23  1  0
 20 24  1  0
 22 25  2  0
 22 26  1  0
 23 27  2  0
 23 28  1  0
 21 29  1  0
 24 30  1  6
 24 31  1  0
 25 31  1  0
 28 32  1  0
 25 33  1  0
 26 34  2  0
 27 35  1  0
 28 36  2  0
 29 37  2  0
 29 38  1  0
 33 39  2  0
 34 39  1  0
 35 40  2  0
 36 40  1  0
 37 41  1  0
 38 42  1  0
 41 42  2  0
 42 43  1  0
M  END
