x1374_1-x1336_1
     RDKit          3D

 20 21  0  0  0  0  0  0  0  0999 V2000
    7.3860   -1.8720   25.2020 S   0  0  1  0  0  0  0  0  0  0  0  0
    5.8050   -1.4530   25.5980 N   0  0  0  0  0  0  0  0  0  0  0  0
    4.7700   -2.3050   25.1940 C   0  0  0  0  0  0  0  0  0  0  0  0
    8.5270   -0.9850   25.2000 O   0  0  0  0  0  0  0  0  0  0  0  0
    7.7820   -3.2950   26.1900 C   0  0  0  0  0  0  0  0  0  0  0  0
    6.8480   -3.7100   27.1670 C   0  0  0  0  0  0  0  0  0  0  0  0
    9.0550   -4.0710   26.0410 C   0  0  0  0  0  0  0  0  0  0  0  0
   10.1150   -3.7100   25.0520 C   0  0  0  0  0  0  0  0  0  0  0  0
    4.9840   -2.8110   23.7600 C   0  0  0  0  0  0  0  0  0  0  0  0
    6.9900   -4.8820   28.1020 C   0  0  0  0  0  0  0  0  0  0  0  0
    9.2850   -5.2760   26.9350 C   0  0  0  0  0  0  0  0  0  0  0  0
    6.0280   -5.2330   29.0470 C   0  0  0  0  0  0  0  0  0  0  0  0
    8.1860   -5.5830   27.9250 C   0  0  0  0  0  0  0  0  0  0  0  0
    4.7410   -4.2890   23.5770 C   0  0  0  0  0  0  0  0  0  0  0  0
    5.3980   -4.9440   22.5470 C   0  0  0  0  0  0  0  0  0  0  0  0
    3.8250   -5.1490   24.4210 C   0  0  0  0  0  0  0  0  0  0  0  0
    3.8620   -6.6990   23.8250 S   0  0  0  0  0  0  0  0  0  0  0  0
    5.1690   -6.4700   22.6340 C   0  0  0  0  0  0  0  0  0  0  0  0
    2.5390   -7.1090   23.0430 O   0  0  0  0  0  0  0  0  0  0  0  0
    4.2660   -7.8050   24.8980 O   0  0  0  0  0  0  0  0  0  0  0  0
  1  2  2  0
  2  3  1  0
  1  4  2  0
  1  5  1  1
  5  6  2  0
  5  7  1  0
  7  8  1  0
  3  9  1  0
  6 10  1  0
  7 11  2  0
 10 12  1  0
 10 13  2  0
 11 13  1  0
  9 14  1  0
 14 15  1  0
 14 16  2  0
 16 17  1  0
 15 18  1  0
 17 18  1  0
 17 19  1  0
 17 20  1  0
M  END
