x1374_1-x0397_0-x1334_0-x0831_0-x1385_1-x0692_1-x0434_2-x0770_1-x0831_1-x1418_1-x1334_1-x1386_1-x0426_1
     RDKit          3D

 44 49  0  0  0  0  0  0  0  0999 V2000
    2.4760   -7.5440   23.2180 O   0  0  0  0  0  0  0  0  0  0  0  0
    2.7790   -7.5990   24.6020 C   0  0  0  0  0  0  0  0  0  0  0  0
    4.1200   -8.0280   24.7350 O   0  0  0  0  0  0  0  0  0  0  0  0
    5.0630   -6.9670   24.6030 C   0  0  0  0  0  0  0  0  0  0  0  0
    4.6300   -6.1270   23.6580 C   0  0  0  0  0  0  0  0  0  0  0  0
    5.8200   -5.6430   22.8830 C   0  0  2  0  0  0  0  0  0  0  0  0
    5.7440   -4.5190   22.1910 C   0  0  2  0  0  0  0  0  0  0  0  0
    6.0010   -6.0540   21.6650 C   0  0  0  0  0  0  0  0  0  0  0  0
    6.8730   -3.5020   22.1840 C   0  0  2  0  0  0  0  0  0  0  0  0
    7.1210   -2.8250   23.5170 C   0  0  0  0  0  0  0  0  0  0  0  0
    6.9360   -2.3530   21.1860 C   0  0  1  0  0  0  0  0  0  0  0  0
    6.5850   -3.1310   19.8290 C   0  0  0  0  0  0  0  0  0  0  0  0
    6.0180   -1.0650   21.3560 C   0  0  2  0  0  0  0  0  0  0  0  0
    8.4790   -2.2430   23.5460 N   0  0  0  0  0  0  0  0  0  0  0  0
    8.2750   -1.9180   21.2140 C   0  0  0  0  0  0  0  0  0  0  0  0
    7.5200   -2.9610   18.6440 C   0  0  0  0  0  0  0  0  0  0  0  0
    5.6130   -3.9180   19.7150 O   0  0  0  0  0  0  0  0  0  0  0  0
    4.9340   -1.0390   22.4420 C   0  0  0  0  0  0  0  0  0  0  0  0
    9.4940   -3.2890   23.7190 C   0  0  1  0  0  0  0  0  0  0  0  0
    8.7220   -1.3240   22.3910 C   0  0  0  0  0  0  0  0  0  0  0  0
    5.6850   -0.1440   20.1520 C   0  0  0  0  0  0  0  0  0  0  0  0
    4.8670    0.3210   23.2060 C   0  0  0  0  0  0  0  0  0  0  0  0
   10.9330   -2.7420   23.8330 C   0  0  0  0  0  0  0  0  0  0  0  0
    4.5950    0.7900   20.0560 C   0  0  0  0  0  0  0  0  0  0  0  0
    6.5280   -0.2080   19.0320 C   0  0  0  0  0  0  0  0  0  0  0  0
    9.1800   -4.0880   24.9700 C   0  0  0  0  0  0  0  0  0  0  0  0
    3.7920    1.2460   22.5840 C   0  0  2  0  0  0  0  0  0  0  0  0
    3.5020    1.0960   21.0820 C   0  0  0  0  0  0  0  0  0  0  0  0
    4.5180    1.5260   18.8330 C   0  0  0  0  0  0  0  0  0  0  0  0
    6.4560    0.4840   17.8730 N   0  0  0  0  0  0  0  0  0  0  0  0
    9.8280   -5.2390   25.3730 C   0  0  0  0  0  0  0  0  0  0  0  0
    7.8890   -3.6860   26.1970 S   0  0  0  0  0  0  0  0  0  0  0  0
   11.1680   -1.2350   23.7730 C   0  0  0  0  0  0  0  0  0  0  0  0
    4.0780    2.6320   22.9200 N   0  0  0  0  0  0  0  0  0  0  0  0
    5.4310    1.3300   17.8430 C   0  0  0  0  0  0  0  0  0  0  0  0
    9.3600   -5.7560   26.5420 C   0  0  0  0  0  0  0  0  0  0  0  0
    8.3160   -5.0490   27.1180 C   0  0  0  0  0  0  0  0  0  0  0  0
   10.3960   -0.2870   24.4240 C   0  0  0  0  0  0  0  0  0  0  0  0
   12.2390   -0.8050   23.0150 C   0  0  0  0  0  0  0  0  0  0  0  0
    7.4630   -5.3760   28.5600 Cl  0  0  0  0  0  0  0  0  0  0  0  0
   13.1070   -1.7680   22.2660 C   0  0  0  0  0  0  0  0  0  0  0  0
   10.6750    1.0790   24.3340 C   0  0  0  0  0  0  0  0  0  0  0  0
   12.5280    0.5290   22.9330 C   0  0  0  0  0  0  0  0  0  0  0  0
   11.8040    1.5150   23.5530 C   0  0  0  0  0  0  0  0  0  0  0  0
  1  2  1  0
  2  3  1  0
  3  4  1  0
  4  5  1  0
  6  5  1  6
  6  7  1  0
  6  8  1  0
  7  8  1  6
  7  9  1  0
  9 10  1  1
  9 11  1  0
 11 12  1  6
 11 13  1  0
 10 14  1  0
 11 15  1  0
 12 16  1  0
 12 17  2  0
 13 18  1  6
 14 19  1  0
 14 20  1  0
 15 20  1  0
 13 21  1  0
 18 22  1  0
 19 23  1  1
 21 24  2  0
 21 25  1  0
 19 26  1  0
 22 27  1  0
 24 28  1  0
 27 28  1  0
 24 29  1  0
 25 30  2  0
 26 31  2  0
 26 32  1  0
 23 33  1  0
 27 34  1  6
 29 35  2  0
 30 35  1  0
 31 36  1  0
 32 37  1  0
 36 37  2  0
 33 38  2  0
 33 39  1  0
 37 40  1  0
 39 41  1  0
 38 42  1  0
 39 43  2  0
 42 44  2  0
 43 44  1  0
M  END
