x1375_1-x0692_1-x0770_1-x0831_1-x1334_1-x0434_2-x1334_0-x0831_0-x1386_1-x1412_1
     RDKit          3D

 39 43  0  0  0  0  0  0  0  0999 V2000
    6.2170   -3.1180   19.7370 C   0  0  0  0  0  0  0  0  0  0  0  0
    7.2850   -2.9250   18.6820 C   0  0  0  0  0  0  0  0  0  0  0  0
    5.2190   -3.7850   19.4550 O   0  0  0  0  0  0  0  0  0  0  0  0
    6.3940   -2.6460   21.0320 N   0  0  0  0  0  0  0  0  0  0  0  0
    6.9440   -1.3030   21.3290 C   0  0  1  0  0  0  0  0  0  0  0  0
    6.2110   -3.5200   22.1740 C   0  0  1  0  0  0  0  0  0  0  0  0
    5.5250   -4.7880   21.8550 C   0  0  0  0  0  0  0  0  0  0  0  0
    8.0090   -1.2770   22.4570 C   0  0  0  0  0  0  0  0  0  0  0  0
    7.5760   -3.5800   22.8410 C   0  0  0  0  0  0  0  0  0  0  0  0
    7.7410   -0.6440   20.2030 C   0  0  0  0  0  0  0  0  0  0  0  0
    7.9330   -2.3440   23.4600 N   0  0  0  0  0  0  0  0  0  0  0  0
    4.4750   -5.0100   22.9050 C   0  0  2  0  0  0  0  0  0  0  0  0
    7.0580   -0.1160   18.9640 C   0  0  0  0  0  0  0  0  0  0  0  0
    9.1100   -2.4910   24.2780 C   0  0  2  0  0  0  0  0  0  0  0  0
    4.6700   -4.5320   24.1620 C   0  0  0  0  0  0  0  0  0  0  0  0
    4.2680   -6.5080   22.9800 C   0  0  0  0  0  0  0  0  0  0  0  0
    6.3390    0.2460   20.1480 C   0  0  0  0  0  0  0  0  0  0  0  0
    6.2720    0.4600   17.9920 N   0  0  0  0  0  0  0  0  0  0  0  0
   10.3040   -2.5060   23.3650 C   0  0  0  0  0  0  0  0  0  0  0  0
    4.2670   -5.4110   25.2810 C   0  0  0  0  0  0  0  0  0  0  0  0
    3.6670   -6.8460   24.5820 S   0  0  0  0  0  0  0  0  0  0  0  0
    8.9800   -3.7090   25.2000 C   0  0  0  0  0  0  0  0  0  0  0  0
    5.1510    1.1750   18.0040 C   0  0  0  0  0  0  0  0  0  0  0  0
    5.0630    1.0430   20.2570 C   0  0  0  0  0  0  0  0  0  0  0  0
    2.0830   -6.9630   24.4870 O   0  0  0  0  0  0  0  0  0  0  0  0
    4.3170   -8.0330   24.9900 O   0  0  0  0  0  0  0  0  0  0  0  0
    9.7610   -5.0220   25.2070 C   0  0  0  0  0  0  0  0  0  0  0  0
    7.8380   -3.7730   26.4920 S   0  0  0  0  0  0  0  0  0  0  0  0
   10.9060   -1.1160   23.4250 C   0  0  0  0  0  0  0  0  0  0  0  0
    4.3830    1.5610   19.2020 C   0  0  0  0  0  0  0  0  0  0  0  0
    9.2900   -5.9130   26.3140 C   0  0  0  0  0  0  0  0  0  0  0  0
    8.2580   -5.3360   27.0650 C   0  0  0  0  0  0  0  0  0  0  0  0
   10.3590   -0.0100   24.0760 C   0  0  0  0  0  0  0  0  0  0  0  0
   12.2650   -0.8490   22.7180 C   0  0  0  0  0  0  0  0  0  0  0  0
    7.4140   -5.9670   28.4080 Cl  0  0  0  0  0  0  0  0  0  0  0  0
   12.9390   -1.9570   21.9790 C   0  0  0  0  0  0  0  0  0  0  0  0
   10.9490    1.2230   24.1010 C   0  0  0  0  0  0  0  0  0  0  0  0
   12.8440    0.3530   22.7550 C   0  0  0  0  0  0  0  0  0  0  0  0
   12.1480    1.5190   23.5000 C   0  0  0  0  0  0  0  0  0  0  0  0
  1  2  1  0
  1  3  2  0
  1  4  1  0
  4  5  1  0
  4  6  1  0
  6  7  1  6
  5  8  1  0
  6  9  1  0
  5 10  1  6
  8 11  1  0
  9 11  1  0
 12  7  1  6
 10 13  1  0
 11 14  1  0
 12 15  1  0
 12 16  1  0
 13 17  2  0
 13 18  1  0
 14 19  1  6
 15 20  2  0
 16 21  1  0
 20 21  1  0
 14 22  1  0
 18 23  2  0
 17 24  1  0
 21 25  1  0
 21 26  1  0
 22 27  2  0
 22 28  1  0
 19 29  1  0
 23 30  1  0
 24 30  2  0
 27 31  1  0
 28 32  1  0
 31 32  2  0
 29 33  2  0
 29 34  1  0
 32 35  1  0
 34 36  1  0
 33 37  1  0
 34 38  2  0
 37 39  2  0
 38 39  1  0
M  END
