x1374_1-x1334_0
     RDKit          3D

 17 18  0  0  0  0  0  0  0  0999 V2000
    2.8080   -7.3870   23.1140 O   0  0  0  0  0  0  0  0  0  0  0  0
    4.0070   -6.7800   23.9530 S   0  0  1  0  0  0  0  0  0  0  0  0
    3.6340   -5.0830   24.3540 C   0  0  0  0  0  0  0  0  0  0  0  0
    4.5060   -7.5160   25.0910 O   0  0  0  0  0  0  0  0  0  0  0  0
    5.3490   -6.4070   22.7550 C   0  0  0  0  0  0  0  0  0  0  0  0
    4.4000   -6.9420   26.3390 C   0  0  0  0  0  0  0  0  0  0  0  0
    5.4410   -4.8920   22.6400 C   0  0  0  0  0  0  0  0  0  0  0  0
    4.4480   -4.2770   23.6060 C   0  0  0  0  0  0  0  0  0  0  0  0
    5.4910   -6.1030   26.7000 C   0  0  0  0  0  0  0  0  0  0  0  0
    5.9150   -6.1180   28.0400 C   0  0  0  0  0  0  0  0  0  0  0  0
    7.3740   -5.7950   28.2570 C   0  0  0  0  0  0  0  0  0  0  0  0
    8.1510   -5.3530   27.0440 C   0  0  0  0  0  0  0  0  0  0  0  0
    9.1800   -6.0310   26.4260 C   0  0  0  0  0  0  0  0  0  0  0  0
    7.8530   -3.8460   26.2060 S   0  0  0  0  0  0  0  0  0  0  0  0
    9.1310   -4.1340   24.9910 C   0  0  0  0  0  0  0  0  0  0  0  0
    9.7400   -5.3270   25.2450 C   0  0  0  0  0  0  0  0  0  0  0  0
    9.4850   -3.1980   23.8600 C   0  0  0  0  0  0  0  0  0  0  0  0
  2  1  1  6
  2  3  1  0
  2  4  1  0
  2  5  1  0
  4  6  1  0
  5  7  1  0
  3  8  2  0
  7  8  1  0
  6  9  1  0
  9 10  1  0
 10 11  1  0
 11 12  1  0
 12 13  2  0
 12 14  1  0
 14 15  1  0
 13 16  1  0
 15 16  2  0
 15 17  1  0
M  END
