x1374_1-x1412_1-x0770_1-x1386_0-x1412_0
     RDKit          3D

 30 33  0  0  0  0  0  0  0  0999 V2000
    6.4170   -3.3520   19.8670 C   0  0  0  0  0  0  0  0  0  0  0  0
    7.3920   -2.9980   18.7670 C   0  0  0  0  0  0  0  0  0  0  0  0
    5.3890   -3.9980   19.6580 O   0  0  0  0  0  0  0  0  0  0  0  0
    6.7850   -2.9640   21.1490 N   0  0  0  0  0  0  0  0  0  0  0  0
    7.5540   -1.7180   21.3100 C   0  0  0  0  0  0  0  0  0  0  0  0
    6.7200   -3.8780   22.2870 C   0  0  1  0  0  0  0  0  0  0  0  0
    5.9640   -5.1140   21.8660 C   0  0  0  0  0  0  0  0  0  0  0  0
    8.5960   -1.7380   22.4270 C   0  0  0  0  0  0  0  0  0  0  0  0
    7.8710   -3.9170   22.9300 C   0  0  0  0  0  0  0  0  0  0  0  0
    8.2050   -2.6510   23.5030 N   0  0  0  0  0  0  0  0  0  0  0  0
    4.8090   -5.3500   22.7880 C   0  0  2  0  0  0  0  0  0  0  0  0
    9.0890   -2.6680   24.6390 C   0  0  2  0  0  0  0  0  0  0  0  0
    4.7580   -4.7640   24.0390 C   0  0  0  0  0  0  0  0  0  0  0  0
    4.4730   -6.6620   23.0160 C   0  0  0  0  0  0  0  0  0  0  0  0
    8.8990   -1.4550   25.3550 O   0  0  0  0  0  0  0  0  0  0  0  0
   10.5320   -2.7940   24.1660 C   0  0  0  0  0  0  0  0  0  0  0  0
    4.0690   -5.4800   25.0240 C   0  0  0  0  0  0  0  0  0  0  0  0
    3.4800   -6.9270   24.3780 S   0  0  0  0  0  0  0  0  0  0  0  0
    8.8810   -3.8040   25.6120 C   0  0  0  0  0  0  0  0  0  0  0  0
    2.1180   -6.8580   23.9040 O   0  0  0  0  0  0  0  0  0  0  0  0
    3.9590   -8.0910   25.0720 O   0  0  0  0  0  0  0  0  0  0  0  0
    9.6600   -5.0110   25.5870 C   0  0  0  0  0  0  0  0  0  0  0  0
    7.7070   -3.8320   26.9030 S   0  0  0  0  0  0  0  0  0  0  0  0
   11.2800   -1.5300   23.8240 C   0  0  0  0  0  0  0  0  0  0  0  0
    9.3090   -5.8700   26.5570 C   0  0  0  0  0  0  0  0  0  0  0  0
    8.1950   -5.3890   27.4440 C   0  0  0  0  0  0  0  0  0  0  0  0
   12.4270   -1.4030   22.9040 C   0  0  0  0  0  0  0  0  0  0  0  0
   11.0430   -0.1080   24.3330 C   0  0  0  0  0  0  0  0  0  0  0  0
   12.9750   -0.1070   22.7360 C   0  0  0  0  0  0  0  0  0  0  0  0
   12.1300    1.0500   23.6790 S   0  0  0  0  0  0  0  0  0  0  0  0
  1  2  1  0
  1  3  2  0
  1  4  1  0
  4  5  1  0
  4  6  1  0
  6  7  1  6
  5  8  1  0
  6  9  1  0
  8 10  1  0
  9 10  1  0
 11  7  1  1
 10 12  1  0
 11 13  1  0
 11 14  1  0
 12 15  1  1
 12 16  1  0
 13 17  2  0
 14 18  1  0
 17 18  1  0
 12 19  1  0
 18 20  1  0
 18 21  1  0
 19 22  2  0
 19 23  1  0
 16 24  1  0
 22 25  1  0
 23 26  1  0
 25 26  2  0
 24 27  1  0
 24 28  2  0
 27 29  2  0
 28 30  1  0
 29 30  1  0
M  END
