x1375_1-x0692_1
     RDKit          3D

 17 18  0  0  0  0  0  0  0  0999 V2000
    6.2960   -3.2380   19.8460 C   0  0  0  0  0  0  0  0  0  0  0  0
    7.2810   -2.9860   18.7130 C   0  0  0  0  0  0  0  0  0  0  0  0
    5.3450   -4.0190   19.6700 O   0  0  0  0  0  0  0  0  0  0  0  0
    6.5190   -2.6130   21.0730 N   0  0  0  0  0  0  0  0  0  0  0  0
    7.2310   -1.3340   21.1300 C   0  0  0  0  0  0  0  0  0  0  0  0
    7.0040   -3.5570   22.0730 C   0  0  2  0  0  0  0  0  0  0  0  0
    6.1890   -4.8580   22.1530 C   0  0  0  0  0  0  0  0  0  0  0  0
    8.5590   -1.5790   21.8880 C   0  0  0  0  0  0  0  0  0  0  0  0
    7.3790   -3.0500   23.3220 C   0  0  0  0  0  0  0  0  0  0  0  0
    8.4220   -2.0170   23.2070 N   0  0  0  0  0  0  0  0  0  0  0  0
    5.0310   -4.7790   22.9290 C   0  0  2  0  0  0  0  0  0  0  0  0
    4.9480   -4.5430   24.4660 C   0  0  0  0  0  0  0  0  0  0  0  0
    4.1770   -6.0210   22.6990 C   0  0  0  0  0  0  0  0  0  0  0  0
    4.3540   -5.4500   25.2960 C   0  0  0  0  0  0  0  0  0  0  0  0
    3.7880   -6.7550   24.3290 S   0  0  0  0  0  0  0  0  0  0  0  0
    2.3430   -6.8220   24.4260 O   0  0  0  0  0  0  0  0  0  0  0  0
    4.5370   -7.9610   24.4770 O   0  0  0  0  0  0  0  0  0  0  0  0
  1  2  1  0
  1  3  2  0
  1  4  1  0
  4  5  1  0
  4  6  1  0
  6  7  1  1
  5  8  1  0
  6  9  1  0
  8 10  1  0
  9 10  1  0
 11  7  1  1
 11 12  1  0
 11 13  1  0
 12 14  2  0
 13 15  1  0
 14 15  1  0
 15 16  1  0
 15 17  1  0
M  END
