x1375_1-x0770_1-x0397_0-x0831_0-x1412_1-x0692_1-x1334_1-x0426_1-x1334_0
     RDKit          3D

 42 47  0  0  0  0  0  0  0  0999 V2000
    2.4030   -7.1660   24.3380 O   0  0  0  0  0  0  0  0  0  0  0  0
    3.4750   -7.0930   25.2600 C   0  0  0  0  0  0  0  0  0  0  0  0
    4.7000   -7.3030   24.5820 O   0  0  0  0  0  0  0  0  0  0  0  0
    5.4080   -6.0540   24.3040 C   0  0  0  0  0  0  0  0  0  0  0  0
    4.9420   -5.4960   23.0220 C   0  0  1  0  0  0  0  0  0  0  0  0
    5.5860   -4.5560   22.2310 C   0  0  2  0  0  0  0  0  0  0  0  0
    5.7250   -6.1510   21.9980 C   0  0  0  0  0  0  0  0  0  0  0  0
    6.8330   -3.7150   22.2320 C   0  0  1  0  0  0  0  0  0  0  0  0
    6.7340   -2.7740   21.1140 N   0  0  0  0  0  0  0  0  0  0  0  0
    7.3080   -2.9990   23.3980 C   0  0  0  0  0  0  0  0  0  0  0  0
    6.3850   -3.3340   19.8820 C   0  0  0  0  0  0  0  0  0  0  0  0
    8.5500   -2.2330   23.0830 N   0  0  0  0  0  0  0  0  0  0  0  0
    7.0760   -1.3470   21.3540 C   0  0  1  0  0  0  0  0  0  0  0  0
    7.3090   -2.9960   18.7360 C   0  0  0  0  0  0  0  0  0  0  0  0
    5.4180   -4.0940   19.7240 O   0  0  0  0  0  0  0  0  0  0  0  0
    5.8240   -0.3780   21.4070 C   0  0  1  0  0  0  0  0  0  0  0  0
    9.4940   -1.9740   24.0560 C   0  0  1  0  0  0  0  0  0  0  0  0
    8.2280   -1.0650   22.3110 C   0  0  0  0  0  0  0  0  0  0  0  0
    5.7460    0.6750   22.5590 C   0  0  0  0  0  0  0  0  0  0  0  0
   10.2120   -3.2310   24.3050 C   0  0  0  0  0  0  0  0  0  0  0  0
    5.6560    0.2980   20.0620 C   0  0  0  0  0  0  0  0  0  0  0  0
   10.5280   -0.8610   23.7550 C   0  0  0  0  0  0  0  0  0  0  0  0
    4.6040    1.7400   22.4450 C   0  0  2  0  0  0  0  0  0  0  0  0
    4.6110    1.3220   19.9830 C   0  0  0  0  0  0  0  0  0  0  0  0
    6.4740    0.0010   18.8180 C   0  0  0  0  0  0  0  0  0  0  0  0
   10.0280    0.4860   24.3210 C   0  0  0  0  0  0  0  0  0  0  0  0
   11.7750   -0.9820   23.0660 C   0  0  0  0  0  0  0  0  0  0  0  0
    9.5970   -4.1710   25.2830 C   0  0  0  0  0  0  0  0  0  0  0  0
    3.7080    1.6590   23.5660 N   0  0  0  0  0  0  0  0  0  0  0  0
    3.7770    1.6760   21.1530 C   0  0  0  0  0  0  0  0  0  0  0  0
   12.3530   -2.2280   22.4720 C   0  0  0  0  0  0  0  0  0  0  0  0
    4.4820    1.9150   18.7480 C   0  0  0  0  0  0  0  0  0  0  0  0
    6.3030    0.6150   17.6380 N   0  0  0  0  0  0  0  0  0  0  0  0
   10.9740    1.6580   24.0730 C   0  0  0  0  0  0  0  0  0  0  0  0
   12.6070    0.1230   22.8750 C   0  0  0  0  0  0  0  0  0  0  0  0
    9.9630   -5.5140   25.4490 C   0  0  0  0  0  0  0  0  0  0  0  0
    8.3490   -3.6990   26.3360 S   0  0  0  0  0  0  0  0  0  0  0  0
    5.2400    1.6150   17.6500 C   0  0  0  0  0  0  0  0  0  0  0  0
   12.1760    1.5230   23.4090 C   0  0  0  0  0  0  0  0  0  0  0  0
    9.1960   -6.2160   26.5190 C   0  0  0  0  0  0  0  0  0  0  0  0
    8.2300   -5.2290   27.0990 C   0  0  0  0  0  0  0  0  0  0  0  0
    7.1120   -5.5110   28.3650 Cl  0  0  0  0  0  0  0  0  0  0  0  0
  1  2  1  0
  2  3  1  0
  3  4  1  0
  5  4  1  1
  5  6  1  0
  5  7  1  0
  6  7  1  6
  6  8  1  0
  8  9  1  0
  8 10  1  1
  9 11  1  0
 10 12  1  0
  9 13  1  0
 11 14  1  0
 11 15  2  0
 13 16  1  0
 12 17  1  0
 12 18  1  0
 13 18  1  1
 16 19  1  1
 17 20  1  6
 16 21  1  0
 17 22  1  0
 19 23  1  0
 21 24  2  0
 21 25  1  0
 22 26  2  0
 22 27  1  0
 20 28  1  0
 23 29  1  1
 23 30  1  0
 24 30  1  0
 27 31  1  0
 24 32  1  0
 25 33  2  0
 26 34  1  0
 27 35  2  0
 28 36  2  0
 28 37  1  0
 32 38  2  0
 33 38  1  0
 34 39  2  0
 35 39  1  0
 36 40  1  0
 37 41  1  0
 40 41  2  0
 41 42  1  0
M  END
