x1375_1-x0831_0-x1334_1-x1412_1-x1418_1-x1334_0-x1385_1-x0426_1-x0692_1-x0397_0
     RDKit          3D

 43 48  0  0  0  0  0  0  0  0999 V2000
    2.4550   -6.8570   24.1220 O   0  0  0  0  0  0  0  0  0  0  0  0
    3.2700   -6.4910   25.2180 C   0  0  0  0  0  0  0  0  0  0  0  0
    4.6400   -6.6930   24.9090 O   0  0  0  0  0  0  0  0  0  0  0  0
    4.9440   -6.7960   23.5280 C   0  0  0  0  0  0  0  0  0  0  0  0
    5.9930   -5.8460   23.0300 C   0  0  2  0  0  0  0  0  0  0  0  0
    5.6700   -4.5940   22.3610 C   0  0  2  0  0  0  0  0  0  0  0  0
    6.3490   -5.9790   21.7310 C   0  0  0  0  0  0  0  0  0  0  0  0
    6.5070   -3.3180   22.5380 C   0  0  2  0  0  0  0  0  0  0  0  0
    6.7330   -2.7730   21.1790 N   0  0  0  0  0  0  0  0  0  0  0  0
    7.7700   -3.5540   23.1150 C   0  0  0  0  0  0  0  0  0  0  0  0
    6.4130   -3.3680   19.9380 C   0  0  0  0  0  0  0  0  0  0  0  0
    8.4860   -2.2190   23.1950 N   0  0  0  0  0  0  0  0  0  0  0  0
    7.5040   -1.5180   21.1470 C   0  0  2  0  0  0  0  0  0  0  0  0
    7.3210   -3.0270   18.7710 C   0  0  0  0  0  0  0  0  0  0  0  0
    5.4670   -4.1610   19.7790 O   0  0  0  0  0  0  0  0  0  0  0  0
    9.5790   -1.9710   24.1410 C   0  0  1  0  0  0  0  0  0  0  0  0
    8.8480   -1.8090   21.8240 C   0  0  0  0  0  0  0  0  0  0  0  0
    6.6860   -0.4690   21.9060 C   0  0  0  0  0  0  0  0  0  0  0  0
   10.3380   -3.2380   24.2730 C   0  0  0  0  0  0  0  0  0  0  0  0
   10.4970   -0.7550   23.8930 C   0  0  0  0  0  0  0  0  0  0  0  0
    5.2270   -0.3830   21.4590 C   0  0  1  0  0  0  0  0  0  0  0  0
   10.1830    0.5350   24.3260 C   0  0  0  0  0  0  0  0  0  0  0  0
   11.7270   -0.9970   23.1750 C   0  0  0  0  0  0  0  0  0  0  0  0
    9.6530   -4.1620   25.2720 C   0  0  0  0  0  0  0  0  0  0  0  0
    4.4290    0.3160   22.4150 C   0  0  0  0  0  0  0  0  0  0  0  0
    5.2670    0.2780   20.1300 C   0  0  0  0  0  0  0  0  0  0  0  0
   12.2040   -2.3070   22.6370 C   0  0  0  0  0  0  0  0  0  0  0  0
   11.0270    1.6000   24.0810 C   0  0  0  0  0  0  0  0  0  0  0  0
   12.6050    0.0500   22.9180 C   0  0  0  0  0  0  0  0  0  0  0  0
    9.9620   -5.6100   25.4640 C   0  0  0  0  0  0  0  0  0  0  0  0
    8.4160   -3.7200   26.3500 S   0  0  0  0  0  0  0  0  0  0  0  0
    4.2790    1.8040   22.0490 C   0  0  2  0  0  0  0  0  0  0  0  0
    4.4140    1.4350   19.8670 C   0  0  0  0  0  0  0  0  0  0  0  0
    6.1630   -0.1750   18.9980 C   0  0  0  0  0  0  0  0  0  0  0  0
   12.3430    1.3490   23.3230 C   0  0  0  0  0  0  0  0  0  0  0  0
    9.1240   -6.1430   26.5210 C   0  0  0  0  0  0  0  0  0  0  0  0
    8.2860   -5.2850   27.0690 C   0  0  0  0  0  0  0  0  0  0  0  0
    3.5230    2.4160   22.9980 N   0  0  0  0  0  0  0  0  0  0  0  0
    3.6050    1.8950   20.8260 C   0  0  0  0  0  0  0  0  0  0  0  0
    4.5250    1.9710   18.6210 C   0  0  0  0  0  0  0  0  0  0  0  0
    6.1790    0.4480   17.8060 N   0  0  0  0  0  0  0  0  0  0  0  0
    7.1760   -5.5880   28.3340 Cl  0  0  0  0  0  0  0  0  0  0  0  0
    5.3440    1.4990   17.6900 C   0  0  0  0  0  0  0  0  0  0  0  0
  1  2  1  0
  2  3  1  0
  3  4  1  0
  5  4  1  6
  5  6  1  0
  5  7  1  0
  6  7  1  6
  6  8  1  0
  8  9  1  0
  8 10  1  6
  9 11  1  0
 10 12  1  0
  9 13  1  0
 11 14  1  0
 11 15  2  0
 12 16  1  0
 12 17  1  0
 13 17  1  0
 13 18  1  1
 16 19  1  6
 16 20  1  0
 21 18  1  1
 20 22  2  0
 20 23  1  0
 19 24  1  0
 21 25  1  0
 21 26  1  0
 23 27  1  0
 22 28  1  0
 23 29  2  0
 24 30  2  0
 24 31  1  0
 25 32  1  0
 26 33  2  0
 26 34  1  0
 28 35  2  0
 29 35  1  0
 30 36  1  0
 31 37  1  0
 36 37  2  0
 32 38  1  1
 32 39  1  0
 33 39  1  0
 33 40  1  0
 34 41  2  0
 37 42  1  0
 40 43  2  0
 41 43  1  0
M  END
