x1374_1-x1386_1-x1334_0-x1334_1-x0831_0-x0426_1
     RDKit          3D

 44 49  0  0  0  0  0  0  0  0999 V2000
    6.4790   -3.1030   19.7830 C   0  0  0  0  0  0  0  0  0  0  0  0
    7.4640   -2.9240   18.6680 C   0  0  0  0  0  0  0  0  0  0  0  0
    5.4540   -3.7810   19.5560 O   0  0  0  0  0  0  0  0  0  0  0  0
    6.7610   -2.5650   21.0500 N   0  0  0  0  0  0  0  0  0  0  0  0
    7.7840   -1.4900   21.2320 C   0  0  2  0  0  0  0  0  0  0  0  0
    6.6120   -3.4420   22.2020 C   0  0  1  0  0  0  0  0  0  0  0  0
    5.9930   -4.7990   21.7910 C   0  0  0  0  0  0  0  0  0  0  0  0
    9.0210   -2.0150   21.9440 C   0  0  0  0  0  0  0  0  0  0  0  0
    7.7350   -3.6150   23.0130 C   0  0  0  0  0  0  0  0  0  0  0  0
    7.2130   -0.5040   22.2700 C   0  0  0  0  0  0  0  0  0  0  0  0
    8.5280   -2.4410   23.2540 N   0  0  0  0  0  0  0  0  0  0  0  0
    4.7240   -5.1570   22.7210 C   0  0  2  0  0  0  0  0  0  0  0  0
    6.3640    0.7050   21.8690 C   0  0  2  0  0  0  0  0  0  0  0  0
    9.4610   -2.6290   24.3560 C   0  0  2  0  0  0  0  0  0  0  0  0
    4.9020   -4.7090   24.0230 C   0  0  0  0  0  0  0  0  0  0  0  0
    4.5540   -6.6290   22.8390 C   0  0  0  0  0  0  0  0  0  0  0  0
    5.0260    0.6230   22.6020 C   0  0  0  0  0  0  0  0  0  0  0  0
    5.8810    0.8440   20.4630 C   0  0  0  0  0  0  0  0  0  0  0  0
   10.8460   -2.5580   23.8150 C   0  0  0  0  0  0  0  0  0  0  0  0
    4.4120   -5.4170   25.0660 C   0  0  0  0  0  0  0  0  0  0  0  0
    3.6720   -6.7960   24.3760 S   0  0  0  0  0  0  0  0  0  0  0  0
    9.2120   -3.8450   25.2590 C   0  0  0  0  0  0  0  0  0  0  0  0
    4.3180    1.9170   22.3200 C   0  0  2  0  0  0  0  0  0  0  0  0
    4.6300    1.4020   20.1370 C   0  0  0  0  0  0  0  0  0  0  0  0
    6.7590    0.3970   19.4760 C   0  0  0  0  0  0  0  0  0  0  0  0
    2.1160   -6.6720   24.0780 O   0  0  0  0  0  0  0  0  0  0  0  0
    4.0460   -8.1590   25.0550 O   0  0  0  0  0  0  0  0  0  0  0  0
    9.8560   -5.0550   25.2700 C   0  0  0  0  0  0  0  0  0  0  0  0
    7.9910   -3.8170   26.4810 S   0  0  0  0  0  0  0  0  0  0  0  0
   11.2270   -1.1110   23.7350 C   0  0  0  0  0  0  0  0  0  0  0  0
    3.5080    2.1810   23.3800 N   0  0  0  0  0  0  0  0  0  0  0  0
    3.7480    1.8360   21.0500 C   0  0  0  0  0  0  0  0  0  0  0  0
    4.3290    1.4990   18.8140 C   0  0  0  0  0  0  0  0  0  0  0  0
    6.5670    0.4350   18.1630 N   0  0  0  0  0  0  0  0  0  0  0  0
    9.2930   -5.9290   26.3470 C   0  0  0  0  0  0  0  0  0  0  0  0
    8.2810   -5.3730   27.0730 C   0  0  0  0  0  0  0  0  0  0  0  0
   10.5500   -0.1040   24.3110 C   0  0  0  0  0  0  0  0  0  0  0  0
   12.3670   -0.8130   23.0030 C   0  0  0  0  0  0  0  0  0  0  0  0
    5.3600    0.9910   17.7980 C   0  0  0  0  0  0  0  0  0  0  0  0
    7.3490   -5.9960   28.3900 Cl  0  0  0  0  0  0  0  0  0  0  0  0
   13.1190   -1.9160   22.3390 C   0  0  0  0  0  0  0  0  0  0  0  0
   10.9640    1.2040   24.1900 C   0  0  0  0  0  0  0  0  0  0  0  0
   12.8010    0.4870   22.8840 C   0  0  0  0  0  0  0  0  0  0  0  0
   12.1410    1.4920   23.4470 C   0  0  0  0  0  0  0  0  0  0  0  0
  1  2  1  0
  1  3  2  0
  1  4  1  0
  4  5  1  0
  4  6  1  0
  6  7  1  6
  5  8  1  0
  6  9  1  0
  5 10  1  1
  8 11  1  0
  9 11  1  0
 12  7  1  6
 13 10  1  6
 11 14  1  0
 12 15  1  0
 12 16  1  0
 13 17  1  0
 13 18  1  0
 14 19  1  6
 15 20  2  0
 16 21  1  0
 20 21  1  0
 14 22  1  0
 17 23  1  0
 18 24  2  0
 18 25  1  0
 21 26  1  0
 21 27  1  0
 22 28  2  0
 22 29  1  0
 19 30  1  0
 23 31  1  1
 23 32  1  0
 24 32  1  0
 24 33  1  0
 25 34  2  0
 28 35  1  0
 29 36  1  0
 35 36  2  0
 30 37  2  0
 30 38  1  0
 33 39  2  0
 34 39  1  0
 36 40  1  0
 38 41  1  0
 37 42  1  0
 38 43  2  0
 42 44  2  0
 43 44  1  0
M  END
