x1374_1-x1334_1-x1386_1-x0434_2-x1375_1-x0397_0-x0692_1-x1334_0-x0831_1-x1412_1-x1418_1-x0426_1-x1385_1-x0831_0
     RDKit          3D

 45 51  0  0  0  0  0  0  0  0999 V2000
    2.2450   -7.7050   23.2910 O   0  0  0  0  0  0  0  0  0  0  0  0
    2.4780   -8.0060   24.6490 C   0  0  0  0  0  0  0  0  0  0  0  0
    3.8710   -7.9640   24.8590 O   0  0  0  0  0  0  0  0  0  0  0  0
    4.5120   -7.2500   23.8090 C   0  0  0  0  0  0  0  0  0  0  0  0
    4.9340   -5.9930   24.2060 C   0  0  0  0  0  0  0  0  0  0  0  0
    6.0640   -5.6140   23.2990 C   0  0  2  0  0  0  0  0  0  0  0  0
    5.8970   -4.5440   22.3220 C   0  0  2  0  0  0  0  0  0  0  0  0
    6.1500   -6.2070   22.1120 C   0  0  0  0  0  0  0  0  0  0  0  0
    7.0130   -3.5830   22.1400 C   0  0  1  0  0  0  0  0  0  0  0  0
    6.8440   -2.6700   21.0370 N   0  0  0  0  0  0  0  0  0  0  0  0
    7.2840   -2.8170   23.3840 C   0  0  0  0  0  0  0  0  0  0  0  0
    6.4480   -3.3040   19.8570 C   0  0  0  0  0  0  0  0  0  0  0  0
    8.6660   -2.3430   23.3740 N   0  0  0  0  0  0  0  0  0  0  0  0
    7.9050   -1.7100   20.9460 C   0  0  1  0  0  0  0  0  0  0  0  0
    7.3630   -3.0400   18.6910 C   0  0  0  0  0  0  0  0  0  0  0  0
    5.4710   -4.0670   19.7100 O   0  0  0  0  0  0  0  0  0  0  0  0
    9.5900   -3.2610   23.8480 C   0  0  1  0  0  0  0  0  0  0  0  0
    7.4980   -0.3160   20.8510 N   0  0  0  0  0  0  0  0  0  0  0  0
    9.0480   -2.0090   21.9940 C   0  0  0  0  0  0  0  0  0  0  0  0
   10.8690   -2.5980   24.3490 C   0  0  0  0  0  0  0  0  0  0  0  0
    7.2050    0.3690   22.1030 C   0  0  0  0  0  0  0  0  0  0  0  0
    6.6170    0.2590   19.9000 C   0  0  0  0  0  0  0  0  0  0  0  0
    9.1590   -4.0570   24.9770 C   0  0  0  0  0  0  0  0  0  0  0  0
    5.7270    0.4920   22.1100 C   0  0  2  0  0  0  0  0  0  0  0  0
    6.6720    0.3830   18.5230 N   0  0  0  0  0  0  0  0  0  0  0  0
    5.5670    0.7500   20.6170 C   0  0  0  0  0  0  0  0  0  0  0  0
    9.7560   -5.3700   25.2940 C   0  0  0  0  0  0  0  0  0  0  0  0
    7.9490   -3.7620   26.1960 S   0  0  0  0  0  0  0  0  0  0  0  0
   11.1950   -1.1600   24.0200 C   0  0  0  0  0  0  0  0  0  0  0  0
    5.0780    1.6170   22.8840 C   0  0  0  0  0  0  0  0  0  0  0  0
    4.4790    1.4150   20.0980 C   0  0  0  0  0  0  0  0  0  0  0  0
    5.6340    1.0420   17.9370 C   0  0  0  0  0  0  0  0  0  0  0  0
    9.2410   -5.9500   26.3720 C   0  0  0  0  0  0  0  0  0  0  0  0
    8.2430   -5.2570   27.0220 C   0  0  0  0  0  0  0  0  0  0  0  0
   10.3430   -0.0510   24.6050 C   0  0  0  0  0  0  0  0  0  0  0  0
   12.2830   -0.8690   23.1900 C   0  0  0  0  0  0  0  0  0  0  0  0
    3.6000    1.7370   22.4840 C   0  0  2  0  0  0  0  0  0  0  0  0
    3.3630    1.9240   20.9710 C   0  0  0  0  0  0  0  0  0  0  0  0
    7.3670   -5.7050   28.4200 Cl  0  0  0  0  0  0  0  0  0  0  0  0
   13.1280   -1.9310   22.5760 C   0  0  0  0  0  0  0  0  0  0  0  0
    4.5430    1.5700   18.6320 C   0  0  0  0  0  0  0  0  0  0  0  0
   10.6460    1.3000   24.3200 C   0  0  0  0  0  0  0  0  0  0  0  0
   12.6020    0.5310   22.9120 C   0  0  0  0  0  0  0  0  0  0  0  0
    3.0030    2.8190   23.2380 N   0  0  0  0  0  0  0  0  0  0  0  0
   11.8610    1.5600   23.4230 C   0  0  0  0  0  0  0  0  0  0  0  0
  1  2  1  0
  2  3  1  0
  3  4  1  0
  4  5  1  0
  6  5  1  1
  6  7  1  0
  6  8  1  0
  7  8  1  6
  7  9  1  0
  9 10  1  0
  9 11  1  1
 10 12  1  0
 11 13  1  0
 10 14  1  0
 12 15  1  0
 12 16  2  0
 13 17  1  0
 14 18  1  1
 13 19  1  0
 14 19  1  0
 17 20  1  1
 18 21  1  0
 18 22  1  0
 17 23  1  0
 24 21  1  6
 22 25  2  0
 22 26  1  0
 24 26  1  0
 23 27  2  0
 23 28  1  0
 20 29  1  0
 24 30  1  0
 26 31  2  0
 25 32  1  0
 27 33  1  0
 28 34  1  0
 33 34  2  0
 29 35  2  0
 29 36  1  0
 30 37  1  0
 31 38  1  0
 37 38  1  0
 34 39  1  0
 36 40  1  0
 31 41  1  0
 32 41  2  0
 35 42  1  0
 36 43  2  0
 37 44  1  1
 42 45  2  0
 43 45  1  0
M  END
