x1374_1-x1334_1-x1334_0-x1412_1-x0692_1-x0397_0-x1385_1-x0831_0-x0831_1-x0770_1-x1375_1-x0434_2-x1418_1
     RDKit          3D

 39 43  0  0  0  0  0  0  0  0999 V2000
    1.9870   -7.2750   23.8140 O   0  0  0  0  0  0  0  0  0  0  0  0
    2.4620   -7.9820   24.9440 C   0  0  0  0  0  0  0  0  0  0  0  0
    3.8730   -7.9830   24.8840 O   0  0  0  0  0  0  0  0  0  0  0  0
    4.3330   -7.2050   23.7860 C   0  0  0  0  0  0  0  0  0  0  0  0
    4.7600   -5.9850   24.2190 C   0  0  0  0  0  0  0  0  0  0  0  0
    5.9660   -5.6720   23.3880 C   0  0  2  0  0  0  0  0  0  0  0  0
    5.8760   -4.7200   22.2980 C   0  0  2  0  0  0  0  0  0  0  0  0
    6.0650   -6.1860   21.8420 C   0  0  0  0  0  0  0  0  0  0  0  0
    6.9250   -3.6770   22.1570 C   0  0  1  0  0  0  0  0  0  0  0  0
    6.6720   -2.7380   21.0920 N   0  0  0  0  0  0  0  0  0  0  0  0
    7.0310   -3.0690   23.3900 C   0  0  0  0  0  0  0  0  0  0  0  0
    6.3560   -3.3150   19.8770 C   0  0  0  0  0  0  0  0  0  0  0  0
    8.2110   -2.2450   23.4500 N   0  0  0  0  0  0  0  0  0  0  0  0
    7.6150   -1.7020   21.0510 C   0  0  1  0  0  0  0  0  0  0  0  0
    7.3030   -3.0070   18.7350 C   0  0  0  0  0  0  0  0  0  0  0  0
    5.3950   -4.0790   19.7030 O   0  0  0  0  0  0  0  0  0  0  0  0
    9.2520   -2.6280   24.2430 C   0  0  2  0  0  0  0  0  0  0  0  0
    6.8120   -0.5180   21.2410 N   0  0  0  0  0  0  0  0  0  0  0  0
    8.7390   -1.8740   22.0970 C   0  0  0  0  0  0  0  0  0  0  0  0
   10.4750   -2.5820   23.3770 C   0  0  0  0  0  0  0  0  0  0  0  0
    9.0360   -3.7980   25.1860 C   0  0  0  0  0  0  0  0  0  0  0  0
    6.3160    0.1050   20.1180 C   0  0  0  0  0  0  0  0  0  0  0  0
    9.7520   -5.0050   25.1940 C   0  0  0  0  0  0  0  0  0  0  0  0
    7.8220   -3.7510   26.4470 S   0  0  0  0  0  0  0  0  0  0  0  0
   11.0190   -1.1710   23.4120 C   0  0  0  0  0  0  0  0  0  0  0  0
    6.8760    0.0700   18.8550 C   0  0  0  0  0  0  0  0  0  0  0  0
    5.0190    0.9320   20.2040 C   0  0  0  0  0  0  0  0  0  0  0  0
    9.3160   -5.9810   26.2890 C   0  0  0  0  0  0  0  0  0  0  0  0
    8.1880   -5.3880   27.1110 C   0  0  0  0  0  0  0  0  0  0  0  0
   10.4180   -0.0410   24.0520 C   0  0  0  0  0  0  0  0  0  0  0  0
   12.2900   -0.9210   22.7460 C   0  0  0  0  0  0  0  0  0  0  0  0
    6.3560    0.7360   17.6710 N   0  0  0  0  0  0  0  0  0  0  0  0
    4.5580    1.5510   19.0360 C   0  0  0  0  0  0  0  0  0  0  0  0
    7.3180   -6.0100   28.4450 Cl  0  0  0  0  0  0  0  0  0  0  0  0
   12.9710   -2.0410   22.0420 C   0  0  0  0  0  0  0  0  0  0  0  0
   10.7960    1.2500   24.1680 C   0  0  0  0  0  0  0  0  0  0  0  0
   12.9140    0.4900   22.7750 C   0  0  0  0  0  0  0  0  0  0  0  0
    5.2260    1.4380   17.8350 C   0  0  0  0  0  0  0  0  0  0  0  0
   12.1170    1.5810   23.5060 C   0  0  0  0  0  0  0  0  0  0  0  0
  1  2  1  0
  2  3  1  0
  3  4  1  0
  4  5  1  0
  6  5  1  6
  6  7  1  0
  6  8  1  0
  7  8  1  6
  7  9  1  0
  9 10  1  0
  9 11  1  1
 10 12  1  0
 11 13  1  0
 10 14  1  0
 12 15  1  0
 12 16  2  0
 13 17  1  0
 14 18  1  1
 13 19  1  0
 14 19  1  0
 17 20  1  6
 17 21  1  0
 18 22  1  0
 21 23  2  0
 21 24  1  0
 20 25  1  0
 22 26  2  0
 22 27  1  0
 23 28  1  0
 24 29  1  0
 28 29  2  0
 25 30  2  0
 25 31  1  0
 26 32  1  0
 27 33  2  0
 29 34  1  0
 31 35  1  0
 30 36  1  0
 31 37  2  0
 32 38  2  0
 33 38  1  0
 36 39  2  0
 37 39  1  0
M  END
