x1374_1-x0831_0-x0434_2-x0692_1-x0397_0-x1334_1-x1385_1-x0770_1
     RDKit          3D

 32 35  0  0  0  0  0  0  0  0999 V2000
    6.3610   -3.2100   19.8250 C   0  0  0  0  0  0  0  0  0  0  0  0
    7.3250   -2.9680   18.6920 C   0  0  0  0  0  0  0  0  0  0  0  0
    5.4080   -3.9990   19.6930 O   0  0  0  0  0  0  0  0  0  0  0  0
    6.6670   -2.5200   21.0180 N   0  0  0  0  0  0  0  0  0  0  0  0
    7.7960   -1.5590   21.1090 C   0  0  2  0  0  0  0  0  0  0  0  0
    6.3760   -3.1690   22.3170 C   0  0  2  0  0  0  0  0  0  0  0  0
    8.1510   -1.2530   22.5810 C   0  0  0  0  0  0  0  0  0  0  0  0
    7.6780   -3.4880   23.1120 C   0  0  0  0  0  0  0  0  0  0  0  0
    5.5160   -4.4480   22.2220 C   0  0  2  0  0  0  0  0  0  0  0  0
    7.4800   -0.1850   20.5550 C   0  0  0  0  0  0  0  0  0  0  0  0
    8.4880   -2.3200   23.4440 N   0  0  0  0  0  0  0  0  0  0  0  0
    5.7740   -5.6510   23.0450 C   0  0  2  0  0  0  0  0  0  0  0  0
    6.0330   -5.8180   21.6750 C   0  0  0  0  0  0  0  0  0  0  0  0
    7.1340    0.1410   19.2530 C   0  0  0  0  0  0  0  0  0  0  0  0
    9.9640   -2.4820   23.4600 C   0  0  0  0  0  0  0  0  0  0  0  0
    6.1350    0.4650   20.2520 C   0  0  0  0  0  0  0  0  0  0  0  0
    6.3950    0.6510   18.0360 N   0  0  0  0  0  0  0  0  0  0  0  0
    4.6000   -6.3150   23.7620 C   0  0  0  0  0  0  0  0  0  0  0  0
   10.6890   -1.1400   23.5280 C   0  0  0  0  0  0  0  0  0  0  0  0
    5.2110    1.2460   17.8170 C   0  0  0  0  0  0  0  0  0  0  0  0
    4.8850    1.0510   20.2080 C   0  0  0  0  0  0  0  0  0  0  0  0
    4.9240   -7.1540   24.7820 C   0  0  0  0  0  0  0  0  0  0  0  0
   10.2690    0.0400   24.1370 C   0  0  0  0  0  0  0  0  0  0  0  0
   12.0650   -1.0090   22.8350 C   0  0  0  0  0  0  0  0  0  0  0  0
    4.2760    1.5260   18.9140 C   0  0  0  0  0  0  0  0  0  0  0  0
    3.9230   -8.1630   24.8040 O   0  0  0  0  0  0  0  0  0  0  0  0
   12.6990   -2.1620   22.1160 C   0  0  0  0  0  0  0  0  0  0  0  0
   10.9660    1.2540   24.1460 C   0  0  0  0  0  0  0  0  0  0  0  0
   12.8150    0.2560   22.8430 C   0  0  0  0  0  0  0  0  0  0  0  0
    2.5980   -7.6840   24.9190 C   0  0  0  0  0  0  0  0  0  0  0  0
   12.2370    1.4280   23.5180 C   0  0  0  0  0  0  0  0  0  0  0  0
    2.1950   -7.0110   23.7450 O   0  0  0  0  0  0  0  0  0  0  0  0
  1  2  1  0
  1  3  2  0
  1  4  1  0
  4  5  1  0
  4  6  1  0
  5  7  1  0
  6  8  1  6
  6  9  1  0
  5 10  1  6
  7 11  1  0
  8 11  1  0
  9 12  1  0
  9 13  1  6
 12 13  1  0
 10 14  1  0
 11 15  1  0
 14 16  2  0
 14 17  1  0
 12 18  1  6
 15 19  1  0
 17 20  2  0
 16 21  1  0
 18 22  1  0
 19 23  2  0
 19 24  1  0
 20 25  1  0
 21 25  2  0
 22 26  1  0
 24 27  1  0
 23 28  1  0
 24 29  2  0
 26 30  1  0
 28 31  2  0
 29 31  1  0
 30 32  1  0
M  END
