x1374_1-x0397_0-x1334_1-x0692_1-x0426_1-x0770_1-x0831_0-x1386_1-x1412_1-x1334_0-x0434_2-x1385_1-x1418_1
     RDKit          3D

 45 51  0  0  0  0  0  0  0  0999 V2000
    2.3450   -7.6810   23.2260 O   0  0  0  0  0  0  0  0  0  0  0  0
    2.6870   -7.7760   24.5910 C   0  0  0  0  0  0  0  0  0  0  0  0
    4.0920   -7.8500   24.6630 O   0  0  0  0  0  0  0  0  0  0  0  0
    4.6740   -7.0460   23.6340 C   0  0  0  0  0  0  0  0  0  0  0  0
    5.0320   -5.8800   24.1300 C   0  0  0  0  0  0  0  0  0  0  0  0
    6.0310   -5.2780   23.1840 C   0  0  2  0  0  0  0  0  0  0  0  0
    5.7130   -4.4340   22.3490 C   0  0  2  0  0  0  0  0  0  0  0  0
    6.2630   -5.8460   21.8710 C   0  0  0  0  0  0  0  0  0  0  0  0
    6.4930   -3.1140   22.3580 C   0  0  2  0  0  0  0  0  0  0  0  0
    6.6810   -2.5880   20.9750 N   0  0  0  0  0  0  0  0  0  0  0  0
    7.7320   -3.2660   22.9260 C   0  0  0  0  0  0  0  0  0  0  0  0
    6.3900   -3.3320   19.8570 C   0  0  0  0  0  0  0  0  0  0  0  0
    8.5680   -2.0440   22.8970 N   0  0  0  0  0  0  0  0  0  0  0  0
    7.8150   -1.7250   20.6270 C   0  0  1  0  0  0  0  0  0  0  0  0
    7.3490   -3.1000   18.6970 C   0  0  0  0  0  0  0  0  0  0  0  0
    5.4680   -4.1590   19.7360 O   0  0  0  0  0  0  0  0  0  0  0  0
    9.6220   -2.0010   23.8850 C   0  0  1  0  0  0  0  0  0  0  0  0
    7.4660   -0.3520   20.8580 N   0  0  0  0  0  0  0  0  0  0  0  0
    9.0410   -1.9000   21.5410 C   0  0  0  0  0  0  0  0  0  0  0  0
   10.1780   -3.3920   24.0170 C   0  0  0  0  0  0  0  0  0  0  0  0
    7.1330    0.2290   22.2150 C   0  0  0  0  0  0  0  0  0  0  0  0
    6.5780    0.2500   19.9200 C   0  0  0  0  0  0  0  0  0  0  0  0
   10.6030   -0.8090   23.6680 C   0  0  0  0  0  0  0  0  0  0  0  0
    5.6320    0.4000   22.1270 C   0  0  2  0  0  0  0  0  0  0  0  0
    6.6710    0.4250   18.4380 N   0  0  0  0  0  0  0  0  0  0  0  0
    5.5000    0.7070   20.6530 C   0  0  0  0  0  0  0  0  0  0  0  0
   10.1500    0.5430   24.0880 C   0  0  0  0  0  0  0  0  0  0  0  0
   11.8850   -0.9320   23.1020 C   0  0  0  0  0  0  0  0  0  0  0  0
    9.5630   -4.2230   25.1100 C   0  0  0  0  0  0  0  0  0  0  0  0
    4.9550    1.5120   22.8600 C   0  0  0  0  0  0  0  0  0  0  0  0
   12.4510   -2.2330   22.6280 C   0  0  0  0  0  0  0  0  0  0  0  0
    4.3360    1.4350   20.0490 C   0  0  0  0  0  0  0  0  0  0  0  0
    5.5930    1.0990   17.9370 C   0  0  0  0  0  0  0  0  0  0  0  0
   10.9160    1.6380   23.9520 C   0  0  0  0  0  0  0  0  0  0  0  0
   12.7070    0.1620   22.9430 C   0  0  0  0  0  0  0  0  0  0  0  0
    9.9390   -5.4850   25.4680 C   0  0  0  0  0  0  0  0  0  0  0  0
    8.2590   -3.7160   26.1120 S   0  0  0  0  0  0  0  0  0  0  0  0
    3.4940    1.7250   22.4430 C   0  0  2  0  0  0  0  0  0  0  0  0
    3.2210    1.8940   20.9360 C   0  0  0  0  0  0  0  0  0  0  0  0
    4.5280    1.5600   18.6820 C   0  0  0  0  0  0  0  0  0  0  0  0
   12.3130    1.5560   23.3490 C   0  0  0  0  0  0  0  0  0  0  0  0
    9.2530   -6.0570   26.5030 C   0  0  0  0  0  0  0  0  0  0  0  0
    8.2840   -5.2640   27.0200 C   0  0  0  0  0  0  0  0  0  0  0  0
    2.9820    2.8380   23.2170 N   0  0  0  0  0  0  0  0  0  0  0  0
    7.2140   -5.5990   28.3130 Cl  0  0  0  0  0  0  0  0  0  0  0  0
  1  2  1  0
  2  3  1  0
  3  4  1  0
  4  5  1  0
  6  5  1  6
  6  7  1  0
  6  8  1  0
  7  8  1  6
  7  9  1  0
  9 10  1  0
  9 11  1  6
 10 12  1  0
 11 13  1  0
 10 14  1  0
 12 15  1  0
 12 16  2  0
 13 17  1  0
 14 18  1  1
 13 19  1  0
 14 19  1  0
 17 20  1  6
 18 21  1  0
 18 22  1  0
 17 23  1  0
 24 21  1  1
 22 25  2  0
 22 26  1  0
 24 26  1  0
 23 27  2  0
 23 28  1  0
 20 29  1  0
 24 30  1  0
 28 31  1  0
 26 32  2  0
 25 33  1  0
 27 34  1  0
 28 35  2  0
 29 36  2  0
 29 37  1  0
 30 38  1  0
 32 39  1  0
 38 39  1  0
 32 40  1  0
 33 40  2  0
 34 41  2  0
 35 41  1  0
 36 42  1  0
 37 43  1  0
 42 43  2  0
 38 44  1  1
 43 45  1  0
M  END
