x1374_1-x0831_0-x1386_0-x1412_0-x0434_2-x1334_1-x0692_1-x1386_1
     RDKit          3D

 41 45  0  0  0  0  0  0  0  0999 V2000
    6.4050   -3.2530   19.8010 C   0  0  0  0  0  0  0  0  0  0  0  0
    7.3700   -3.0190   18.6620 C   0  0  0  0  0  0  0  0  0  0  0  0
    5.4070   -3.9770   19.6230 O   0  0  0  0  0  0  0  0  0  0  0  0
    6.7520   -2.6410   20.9940 N   0  0  0  0  0  0  0  0  0  0  0  0
    7.7110   -1.5100   20.8700 C   0  0  1  0  0  0  0  0  0  0  0  0
    6.7530   -3.4000   22.2430 C   0  0  1  0  0  0  0  0  0  0  0  0
    6.1180   -4.7720   22.0780 C   0  0  0  0  0  0  0  0  0  0  0  0
    7.0210   -0.2790   21.1090 N   0  0  0  0  0  0  0  0  0  0  0  0
    8.9280   -1.6400   21.5740 C   0  0  0  0  0  0  0  0  0  0  0  0
    8.1200   -3.3230   22.9610 C   0  0  0  0  0  0  0  0  0  0  0  0
    8.7330   -1.9850   22.9480 N   0  0  0  0  0  0  0  0  0  0  0  0
    4.8570   -5.0260   22.8580 C   0  0  2  0  0  0  0  0  0  0  0  0
    6.4120    0.3000   20.0310 C   0  0  0  0  0  0  0  0  0  0  0  0
    9.8670   -1.9210   23.6490 C   0  0  1  0  0  0  0  0  0  0  0  0
    4.7260   -4.4430   24.2810 C   0  0  0  0  0  0  0  0  0  0  0  0
    4.6790   -6.5870   22.9320 C   0  0  0  0  0  0  0  0  0  0  0  0
    6.9220    0.1070   18.7050 C   0  0  0  0  0  0  0  0  0  0  0  0
    5.2890    1.0770   20.2520 C   0  0  0  0  0  0  0  0  0  0  0  0
    9.5260   -2.1830   25.0560 C   0  0  0  0  0  0  0  0  0  0  0  0
   10.7450   -3.1220   23.2840 C   0  0  0  0  0  0  0  0  0  0  0  0
    3.9890   -5.4060   25.1760 C   0  0  0  0  0  0  0  0  0  0  0  0
    3.5600   -6.8690   24.2170 S   0  0  0  0  0  0  0  0  0  0  0  0
   10.7760   -0.7080   23.4750 C   0  0  0  0  0  0  0  0  0  0  0  0
    6.2230    0.7620   17.5970 N   0  0  0  0  0  0  0  0  0  0  0  0
    4.6740    1.6700   19.1610 C   0  0  0  0  0  0  0  0  0  0  0  0
    2.0790   -6.7800   23.6350 O   0  0  0  0  0  0  0  0  0  0  0  0
    3.8600   -8.2220   24.9730 O   0  0  0  0  0  0  0  0  0  0  0  0
    8.1410   -2.5240   25.4570 C   0  0  0  0  0  0  0  0  0  0  0  0
   10.2530    0.6370   24.0740 C   0  0  0  0  0  0  0  0  0  0  0  0
   12.1790   -0.7140   22.7630 C   0  0  0  0  0  0  0  0  0  0  0  0
    5.1530    1.5040   17.8720 C   0  0  0  0  0  0  0  0  0  0  0  0
   12.8200   -1.9170   22.1190 C   0  0  0  0  0  0  0  0  0  0  0  0
    7.1390   -1.8740   25.2480 O   0  0  0  0  0  0  0  0  0  0  0  0
   11.1250    1.8960   23.9420 C   0  0  0  0  0  0  0  0  0  0  0  0
   12.8420    0.4460   22.7330 C   0  0  0  0  0  0  0  0  0  0  0  0
    8.3160   -3.8310   26.1960 C   0  0  0  0  0  0  0  0  0  0  0  0
   12.4660    1.6760   23.2260 C   0  0  0  0  0  0  0  0  0  0  0  0
    9.0880   -4.8130   25.6400 C   0  0  0  0  0  0  0  0  0  0  0  0
    7.6530   -4.2250   27.7440 S   0  0  0  0  0  0  0  0  0  0  0  0
    9.2090   -6.0490   26.5160 C   0  0  0  0  0  0  0  0  0  0  0  0
    8.4010   -5.7660   27.7380 C   0  0  0  0  0  0  0  0  0  0  0  0
  1  2  1  0
  1  3  2  0
  1  4  1  0
  4  5  1  0
  4  6  1  0
  6  7  1  6
  5  8  1  1
  5  9  1  0
  6 10  1  0
  9 11  1  0
 10 11  1  0
 12  7  1  1
  8 13  1  0
 11 14  1  0
 12 15  1  0
 12 16  1  0
 13 17  2  0
 13 18  1  0
 14 19  1  0
 14 20  1  6
 15 21  2  0
 16 22  1  0
 21 22  1  0
 14 23  1  0
 17 24  1  0
 18 25  2  0
 22 26  1  0
 22 27  1  0
 19 28  1  0
 23 29  2  0
 23 30  1  0
 24 31  2  0
 25 31  1  0
 30 32  1  0
 28 33  2  0
 29 34  1  0
 30 35  2  0
 28 36  1  0
 34 37  2  0
 35 37  1  0
 36 38  2  0
 36 39  1  0
 38 40  1  0
 39 41  1  0
 40 41  2  0
M  END
