x1374_1-x0434_2-x1334_0-x0770_1-x1334_1-x0831_0-x0692_1-x1375_1-x0397_0-x0831_1-x0426_1-x1385_1
     RDKit          3D

 44 49  0  0  0  0  0  0  0  0999 V2000
    2.5760   -7.4450   23.1950 O   0  0  0  0  0  0  0  0  0  0  0  0
    2.7540   -7.8240   24.5410 C   0  0  0  0  0  0  0  0  0  0  0  0
    4.1420   -7.9830   24.7490 O   0  0  0  0  0  0  0  0  0  0  0  0
    4.8380   -6.7470   24.5770 C   0  0  0  0  0  0  0  0  0  0  0  0
    6.1030   -7.0170   24.1000 C   0  0  0  0  0  0  0  0  0  0  0  0
    6.4420   -6.1030   22.9680 C   0  0  2  0  0  0  0  0  0  0  0  0
    5.7840   -4.8290   22.6280 C   0  0  2  0  0  0  0  0  0  0  0  0
    5.7090   -6.2140   21.7480 C   0  0  0  0  0  0  0  0  0  0  0  0
    6.6850   -3.6420   22.3230 C   0  0  1  0  0  0  0  0  0  0  0  0
    6.2590   -2.7450   21.2380 N   0  0  0  0  0  0  0  0  0  0  0  0
    6.9070   -2.8350   23.6180 C   0  0  0  0  0  0  0  0  0  0  0  0
    6.1590   -3.3690   19.9860 C   0  0  0  0  0  0  0  0  0  0  0  0
    8.0610   -1.9150   23.5250 N   0  0  0  0  0  0  0  0  0  0  0  0
    7.0620   -1.4920   21.2790 C   0  0  1  0  0  0  0  0  0  0  0  0
    7.1530   -3.0170   18.8790 C   0  0  0  0  0  0  0  0  0  0  0  0
    5.3080   -4.2320   19.7730 O   0  0  0  0  0  0  0  0  0  0  0  0
    6.2420   -0.1380   21.5740 C   0  0  1  0  0  0  0  0  0  0  0  0
    9.2330   -2.4670   24.2230 C   0  0  2  0  0  0  0  0  0  0  0  0
    8.3060   -1.6790   22.1130 C   0  0  0  0  0  0  0  0  0  0  0  0
    4.9290   -0.3810   22.3660 C   0  0  0  0  0  0  0  0  0  0  0  0
   10.4180   -2.5180   23.3060 C   0  0  0  0  0  0  0  0  0  0  0  0
    7.1290    0.9110   22.2680 C   0  0  0  0  0  0  0  0  0  0  0  0
    5.8540    0.4620   20.2200 C   0  0  0  0  0  0  0  0  0  0  0  0
    9.0280   -3.6160   25.1810 C   0  0  0  0  0  0  0  0  0  0  0  0
    3.9260    0.8270   22.4700 C   0  0  1  0  0  0  0  0  0  0  0  0
    4.6850    1.2250   20.0770 C   0  0  0  0  0  0  0  0  0  0  0  0
    6.6640    0.2670   19.0850 C   0  0  0  0  0  0  0  0  0  0  0  0
    9.6600   -4.9180   25.2010 C   0  0  0  0  0  0  0  0  0  0  0  0
    7.9020   -3.5140   26.5710 S   0  0  0  0  0  0  0  0  0  0  0  0
   11.0270   -1.1510   23.3580 C   0  0  0  0  0  0  0  0  0  0  0  0
    4.3100    1.8090   23.4670 N   0  0  0  0  0  0  0  0  0  0  0  0
    3.6880    1.5410   21.1380 C   0  0  0  0  0  0  0  0  0  0  0  0
    4.4220    1.7790   18.7230 C   0  0  0  0  0  0  0  0  0  0  0  0
    6.5210    0.7090   17.8140 N   0  0  0  0  0  0  0  0  0  0  0  0
    9.3130   -5.7250   26.1870 C   0  0  0  0  0  0  0  0  0  0  0  0
    8.2980   -5.0770   27.1000 C   0  0  0  0  0  0  0  0  0  0  0  0
   10.4130   -0.0540   24.0500 C   0  0  0  0  0  0  0  0  0  0  0  0
   12.2450   -0.8900   22.7340 C   0  0  0  0  0  0  0  0  0  0  0  0
    7.5080   -5.6050   28.5190 Cl  0  0  0  0  0  0  0  0  0  0  0  0
   12.9680   -1.9550   21.9760 C   0  0  0  0  0  0  0  0  0  0  0  0
    5.3340    1.5250   17.6220 C   0  0  0  0  0  0  0  0  0  0  0  0
   10.9790    1.1890   24.1030 C   0  0  0  0  0  0  0  0  0  0  0  0
   12.8130    0.3790   22.8070 C   0  0  0  0  0  0  0  0  0  0  0  0
   12.1840    1.4090   23.4830 C   0  0  0  0  0  0  0  0  0  0  0  0
  1  2  1  0
  2  3  1  0
  3  4  1  0
  4  5  1  0
  6  5  1  1
  6  7  1  0
  6  8  1  0
  7  8  1  6
  7  9  1  0
  9 10  1  0
  9 11  1  1
 10 12  1  0
 11 13  1  0
 10 14  1  0
 12 15  1  0
 12 16  2  0
 14 17  1  0
 13 18  1  0
 13 19  1  0
 14 19  1  1
 17 20  1  0
 18 21  1  6
 17 22  1  1
 17 23  1  0
 18 24  1  0
 20 25  1  0
 23 26  2  0
 23 27  1  0
 24 28  2  0
 24 29  1  0
 21 30  1  0
 25 31  1  1
 25 32  1  0
 26 32  1  0
 26 33  1  0
 27 34  2  0
 28 35  1  0
 29 36  1  0
 35 36  2  0
 30 37  2  0
 30 38  1  0
 36 39  1  0
 38 40  1  0
 33 41  2  0
 34 41  1  0
 37 42  1  0
 38 43  2  0
 42 44  2  0
 43 44  1  0
M  END
