x1374_1-x1386_1-x0831_1-x1385_1-x0426_1-x1334_1-x1418_0-x1334_0-x1418_1-x0434_2-x0692_1-x0770_1-x0397_0-x1412_1-x0831_0
     RDKit          3D

 46 51  0  0  0  0  0  0  0  0999 V2000
    2.0780   -7.5530   24.0990 O   0  0  0  0  0  0  0  0  0  0  0  0
    3.3500   -6.9940   23.8820 C   0  0  0  0  0  0  0  0  0  0  0  0
    4.4050   -7.7060   24.5180 O   0  0  0  0  0  0  0  0  0  0  0  0
    5.6570   -7.4090   23.8940 C   0  0  0  0  0  0  0  0  0  0  0  0
    6.2080   -6.2080   24.4080 C   0  0  0  0  0  0  0  0  0  0  0  0
    6.3200   -5.2810   23.2390 C   0  0  2  0  0  0  0  0  0  0  0  0
    5.3300   -4.9890   22.6000 C   0  0  2  0  0  0  0  0  0  0  0  0
    6.3830   -5.8230   21.9060 C   0  0  0  0  0  0  0  0  0  0  0  0
    5.0730   -3.5820   22.1370 C   0  0  0  0  0  0  0  0  0  0  0  0
    6.3040   -2.6770   22.2430 C   0  0  2  0  0  0  0  0  0  0  0  0
    6.7810   -2.2300   20.9300 N   0  0  0  0  0  0  0  0  0  0  0  0
    7.4730   -3.2870   22.9990 C   0  0  0  0  0  0  0  0  0  0  0  0
    6.5630   -3.0700   19.8020 C   0  0  0  0  0  0  0  0  0  0  0  0
    8.6160   -2.3870   23.0520 N   0  0  0  0  0  0  0  0  0  0  0  0
    7.9730   -1.3760   21.0680 C   0  0  2  0  0  0  0  0  0  0  0  0
    7.5000   -2.9400   18.6380 C   0  0  0  0  0  0  0  0  0  0  0  0
    5.6560   -3.9370   19.6960 O   0  0  0  0  0  0  0  0  0  0  0  0
    9.6730   -3.0870   23.7430 C   0  0  1  0  0  0  0  0  0  0  0  0
    8.9950   -1.9800   21.6920 C   0  0  0  0  0  0  0  0  0  0  0  0
    7.5360   -0.1150   21.8400 C   0  0  0  0  0  0  0  0  0  0  0  0
   10.5590   -2.2200   24.5630 C   0  0  1  0  0  0  0  0  0  0  0  0
    9.3300   -3.9980   24.8960 C   0  0  0  0  0  0  0  0  0  0  0  0
    6.0400    0.1840   21.6750 C   0  0  1  0  0  0  0  0  0  0  0  0
   11.8080   -3.0120   24.8410 C   0  0  0  0  0  0  0  0  0  0  0  0
    9.8420   -5.1880   25.2470 C   0  0  0  0  0  0  0  0  0  0  0  0
    8.1200   -3.6440   26.1180 S   0  0  0  0  0  0  0  0  0  0  0  0
   11.0450   -0.8910   24.1040 C   0  0  0  0  0  0  0  0  0  0  0  0
    5.6160    1.2980   22.4220 C   0  0  0  0  0  0  0  0  0  0  0  0
    5.7930    0.6430   20.2870 C   0  0  0  0  0  0  0  0  0  0  0  0
    9.3820   -5.8190   26.3800 C   0  0  0  0  0  0  0  0  0  0  0  0
    8.3720   -5.0790   27.0360 C   0  0  0  0  0  0  0  0  0  0  0  0
   10.3780    0.4180   24.5070 C   0  0  0  0  0  0  0  0  0  0  0  0
   12.2000   -0.8200   23.2600 C   0  0  0  0  0  0  0  0  0  0  0  0
    4.2720    1.4030   22.2590 C   0  0  1  0  0  0  0  0  0  0  0  0
    4.7750    1.6280   19.9940 C   0  0  0  0  0  0  0  0  0  0  0  0
    6.5630    0.1180   19.2760 C   0  0  0  0  0  0  0  0  0  0  0  0
    7.4780   -5.3940   28.4590 Cl  0  0  0  0  0  0  0  0  0  0  0  0
   12.9340   -2.0350   22.7740 C   0  0  0  0  0  0  0  0  0  0  0  0
   10.9060    1.6070   24.0670 C   0  0  0  0  0  0  0  0  0  0  0  0
   12.7180    0.5200   22.8330 C   0  0  0  0  0  0  0  0  0  0  0  0
    3.6860    1.7190   23.4360 N   0  0  0  0  0  0  0  0  0  0  0  0
    3.9760    2.1570   21.1250 C   0  0  0  0  0  0  0  0  0  0  0  0
    4.6390    2.0290   18.5330 C   0  0  0  0  0  0  0  0  0  0  0  0
    6.4370    0.4780   17.9770 N   0  0  0  0  0  0  0  0  0  0  0  0
   12.1170    1.7070   23.2060 C   0  0  0  0  0  0  0  0  0  0  0  0
    5.5000    1.4080   17.6510 C   0  0  0  0  0  0  0  0  0  0  0  0
  1  2  1  0
  2  3  1  0
  3  4  1  0
  4  5  1  0
  6  5  1  1
  6  7  1  0
  6  8  1  0
  7  8  1  0
  7  9  1  6
 10  9  1  6
 10 11  1  0
 10 12  1  0
 11 13  1  0
 12 14  1  0
 11 15  1  0
 13 16  1  0
 13 17  2  0
 14 18  1  0
 14 19  1  0
 15 19  1  0
 15 20  1  1
 18 21  1  0
 18 22  1  1
 23 20  1  6
 21 24  1  6
 22 25  2  0
 22 26  1  0
 21 27  1  0
 23 28  1  0
 23 29  1  0
 25 30  1  0
 26 31  1  0
 30 31  2  0
 27 32  2  0
 27 33  1  0
 28 34  1  0
 29 35  2  0
 29 36  1  0
 31 37  1  0
 33 38  1  0
 32 39  1  0
 33 40  2  0
 34 41  1  1
 34 42  1  0
 35 42  1  0
 35 43  1  0
 36 44  2  0
 39 45  2  0
 40 45  1  0
 43 46  2  0
 44 46  1  0
M  END
