x1374_1-x0397_0-x1418_1-x0770_1-x0831_0-x1375_1-x0434_2-x0692_1-x1385_1-x1386_1-x1334_1-x1334_0-x0831_1
     RDKit          3D

 39 43  0  0  0  0  0  0  0  0999 V2000
    6.2870   -3.1900   19.7780 C   0  0  0  0  0  0  0  0  0  0  0  0
    7.2740   -2.9670   18.6510 C   0  0  0  0  0  0  0  0  0  0  0  0
    5.3580   -3.9920   19.6250 O   0  0  0  0  0  0  0  0  0  0  0  0
    6.5040   -2.5090   20.9710 N   0  0  0  0  0  0  0  0  0  0  0  0
    6.8830   -3.4330   22.0660 C   0  0  1  0  0  0  0  0  0  0  0  0
    7.1730   -1.2340   21.1560 C   0  0  1  0  0  0  0  0  0  0  0  0
    7.2390   -2.7720   23.4500 C   0  0  0  0  0  0  0  0  0  0  0  0
    8.4700   -1.5090   21.8920 C   0  0  0  0  0  0  0  0  0  0  0  0
    5.7700   -4.5180   22.1610 C   0  0  2  0  0  0  0  0  0  0  0  0
    7.6100   -0.5520   19.9480 C   0  0  0  0  0  0  0  0  0  0  0  0
    8.2350   -1.6950   23.3230 N   0  0  0  0  0  0  0  0  0  0  0  0
    6.1150   -5.3970   22.9790 C   0  0  2  0  0  0  0  0  0  0  0  0
    6.0090   -5.9730   21.6440 C   0  0  0  0  0  0  0  0  0  0  0  0
    6.8870   -0.1160   18.8460 C   0  0  0  0  0  0  0  0  0  0  0  0
    9.4130   -1.9570   23.9180 C   0  0  1  0  0  0  0  0  0  0  0  0
    6.2920    0.4830   20.1320 C   0  0  0  0  0  0  0  0  0  0  0  0
    6.0470    0.4360   17.9190 N   0  0  0  0  0  0  0  0  0  0  0  0
    5.2060   -5.9480   24.0330 C   0  0  0  0  0  0  0  0  0  0  0  0
    9.8490   -3.3530   23.7470 C   0  0  0  0  0  0  0  0  0  0  0  0
   10.5080   -0.8920   23.6310 C   0  0  0  0  0  0  0  0  0  0  0  0
    5.0170    1.2620   18.0250 C   0  0  0  0  0  0  0  0  0  0  0  0
    5.2140    1.3360   20.3010 C   0  0  0  0  0  0  0  0  0  0  0  0
    5.5370   -7.2290   24.1620 C   0  0  0  0  0  0  0  0  0  0  0  0
   10.2250    0.3350   24.2380 C   0  0  0  0  0  0  0  0  0  0  0  0
   11.7210   -0.9520   22.8760 C   0  0  0  0  0  0  0  0  0  0  0  0
    9.4560   -4.1880   24.9220 C   0  0  0  0  0  0  0  0  0  0  0  0
    4.5450    1.7480   19.1960 C   0  0  0  0  0  0  0  0  0  0  0  0
    4.4240   -7.9420   24.7210 O   0  0  0  0  0  0  0  0  0  0  0  0
   12.2010   -2.1620   22.1460 C   0  0  0  0  0  0  0  0  0  0  0  0
   11.0770    1.4120   24.1030 C   0  0  0  0  0  0  0  0  0  0  0  0
   12.5450    0.1840   22.7940 C   0  0  0  0  0  0  0  0  0  0  0  0
    9.9530   -5.3740   25.3360 C   0  0  0  0  0  0  0  0  0  0  0  0
    8.2020   -3.7140   26.0380 S   0  0  0  0  0  0  0  0  0  0  0  0
    3.1630   -7.3160   24.6060 C   0  0  0  0  0  0  0  0  0  0  0  0
   12.2210    1.3880   23.4130 C   0  0  0  0  0  0  0  0  0  0  0  0
    9.4260   -5.8790   26.4470 C   0  0  0  0  0  0  0  0  0  0  0  0
    8.4260   -5.1050   27.0020 C   0  0  0  0  0  0  0  0  0  0  0  0
    2.7690   -7.2960   23.2430 O   0  0  0  0  0  0  0  0  0  0  0  0
    7.4830   -5.3550   28.4090 Cl  0  0  0  0  0  0  0  0  0  0  0  0
  1  2  1  0
  1  3  2  0
  1  4  1  0
  4  5  1  0
  4  6  1  0
  5  7  1  1
  6  8  1  0
  5  9  1  0
  6 10  1  6
  7 11  1  0
  8 11  1  0
  9 12  1  0
  9 13  1  6
 12 13  1  0
 10 14  1  0
 11 15  1  0
 14 16  2  0
 14 17  1  0
 12 18  1  1
 15 19  1  6
 15 20  1  0
 17 21  2  0
 16 22  1  0
 18 23  1  0
 20 24  2  0
 20 25  1  0
 19 26  1  0
 21 27  1  0
 22 27  2  0
 23 28  1  0
 25 29  1  0
 24 30  1  0
 25 31  2  0
 26 32  2  0
 26 33  1  0
 28 34  1  0
 30 35  2  0
 31 35  1  0
 32 36  1  0
 33 37  1  0
 36 37  2  0
 34 38  1  0
 37 39  1  0
M  END
