x1374_1-x0770_1-x1385_1-x0426_1-x1386_1-x0692_1-x0434_2-x1334_1-x0831_0-x1418_1-x1412_1-x0397_0-x1334_0-x0831_1
     RDKit          3D

 44 49  0  0  0  0  0  0  0  0999 V2000
    2.2490   -7.6780   23.2940 O   0  0  0  0  0  0  0  0  0  0  0  0
    2.4590   -8.0460   24.6400 C   0  0  0  0  0  0  0  0  0  0  0  0
    3.8460   -7.9790   24.8780 O   0  0  0  0  0  0  0  0  0  0  0  0
    4.5020   -7.2190   23.8740 C   0  0  0  0  0  0  0  0  0  0  0  0
    5.0040   -6.0520   24.3610 C   0  0  0  0  0  0  0  0  0  0  0  0
    6.0310   -5.5240   23.4140 C   0  0  2  0  0  0  0  0  0  0  0  0
    5.6880   -4.6770   22.4920 C   0  0  2  0  0  0  0  0  0  0  0  0
    6.4220   -6.0940   22.1540 C   0  0  0  0  0  0  0  0  0  0  0  0
    6.4350   -3.3920   22.5070 C   0  0  2  0  0  0  0  0  0  0  0  0
    6.1610   -2.5690   21.3340 N   0  0  0  0  0  0  0  0  0  0  0  0
    7.9290   -3.6420   22.5760 C   0  0  0  0  0  0  0  0  0  0  0  0
    6.2210   -3.2300   20.0530 C   0  0  0  0  0  0  0  0  0  0  0  0
    8.8850   -2.5300   22.4050 N   0  0  0  0  0  0  0  0  0  0  0  0
    6.8900   -1.3370   21.7410 C   0  0  2  0  0  0  0  0  0  0  0  0
    7.2320   -2.9260   18.9490 C   0  0  0  0  0  0  0  0  0  0  0  0
    5.4080   -4.1490   19.8060 O   0  0  0  0  0  0  0  0  0  0  0  0
    6.3860    0.1370   21.6620 C   0  0  1  0  0  0  0  0  0  0  0  0
    9.5590   -2.0320   23.6180 C   0  0  1  0  0  0  0  0  0  0  0  0
    8.3940   -1.4940   21.4750 C   0  0  0  0  0  0  0  0  0  0  0  0
    5.2360    0.3030   22.6430 C   0  0  0  0  0  0  0  0  0  0  0  0
   10.2500   -3.2390   24.2280 C   0  0  0  0  0  0  0  0  0  0  0  0
    7.5940    1.0690   22.0060 C   0  0  0  0  0  0  0  0  0  0  0  0
    5.9760    0.5590   20.2540 C   0  0  0  0  0  0  0  0  0  0  0  0
   10.5250   -0.8230   23.5140 C   0  0  0  0  0  0  0  0  0  0  0  0
    4.5110    1.6850   22.5420 C   0  0  2  0  0  0  0  0  0  0  0  0
    4.7910    1.2960   20.0410 C   0  0  0  0  0  0  0  0  0  0  0  0
    6.8090    0.2280   19.0760 C   0  0  0  0  0  0  0  0  0  0  0  0
   10.0650    0.5330   23.9570 C   0  0  0  0  0  0  0  0  0  0  0  0
   11.9350   -0.8940   22.9920 C   0  0  0  0  0  0  0  0  0  0  0  0
    9.5260   -4.1250   25.2610 C   0  0  0  0  0  0  0  0  0  0  0  0
    3.5900    1.7910   23.6460 N   0  0  0  0  0  0  0  0  0  0  0  0
    3.8530    1.6790   21.1430 C   0  0  0  0  0  0  0  0  0  0  0  0
   12.5840   -2.1570   22.4910 C   0  0  0  0  0  0  0  0  0  0  0  0
    4.5320    1.6680   18.7010 C   0  0  0  0  0  0  0  0  0  0  0  0
    6.4930    0.6280   17.7410 N   0  0  0  0  0  0  0  0  0  0  0  0
   10.9460    1.7510   23.8950 C   0  0  0  0  0  0  0  0  0  0  0  0
   12.7240    0.2700   22.9550 C   0  0  0  0  0  0  0  0  0  0  0  0
    9.9330   -5.4100   25.5100 C   0  0  0  0  0  0  0  0  0  0  0  0
    8.1710   -3.7230   26.2500 S   0  0  0  0  0  0  0  0  0  0  0  0
    5.3630    1.3320   17.6850 C   0  0  0  0  0  0  0  0  0  0  0  0
   12.2270    1.5110   23.3890 C   0  0  0  0  0  0  0  0  0  0  0  0
    9.1970   -6.0850   26.4960 C   0  0  0  0  0  0  0  0  0  0  0  0
    8.2010   -5.3320   27.0280 C   0  0  0  0  0  0  0  0  0  0  0  0
    7.0850   -5.7480   28.2570 Cl  0  0  0  0  0  0  0  0  0  0  0  0
  1  2  1  0
  2  3  1  0
  3  4  1  0
  4  5  1  0
  6  5  1  6
  6  7  1  0
  6  8  1  0
  7  8  1  6
  7  9  1  0
  9 10  1  0
  9 11  1  6
 10 12  1  0
 11 13  1  0
 10 14  1  0
 12 15  1  0
 12 16  2  0
 14 17  1  0
 13 18  1  0
 13 19  1  0
 14 19  1  6
 17 20  1  0
 18 21  1  6
 17 22  1  1
 17 23  1  0
 18 24  1  0
 20 25  1  0
 23 26  2  0
 23 27  1  0
 24 28  2  0
 24 29  1  0
 21 30  1  0
 25 31  1  1
 25 32  1  0
 26 32  1  0
 29 33  1  0
 26 34  1  0
 27 35  2  0
 28 36  1  0
 29 37  2  0
 30 38  2  0
 30 39  1  0
 34 40  2  0
 35 40  1  0
 36 41  2  0
 37 41  1  0
 38 42  1  0
 39 43  1  0
 42 43  2  0
 43 44  1  0
M  END
