x1374_2-x1412_0
     RDKit          3D

 13 13  0  0  0  0  0  0  0  0999 V2000
    6.3580   -4.5610   22.0850 N   0  0  0  0  0  0  0  0  0  0  0  0
    6.5650   -4.2810   20.7540 C   0  0  0  0  0  0  0  0  0  0  0  0
    5.6700   -4.4370   19.9070 O   0  0  0  0  0  0  0  0  0  0  0  0
    7.4200   -4.4240   23.0440 C   0  0  0  0  0  0  0  0  0  0  0  0
    7.9950   -3.7360   20.4770 C   0  0  0  0  0  0  0  0  0  0  0  0
    7.9420   -3.1160   23.1490 C   0  0  0  0  0  0  0  0  0  0  0  0
    8.1960   -2.7700   24.6050 C   0  0  0  0  0  0  0  0  0  0  0  0
    8.1160   -1.6110   25.0070 O   0  0  0  0  0  0  0  0  0  0  0  0
    8.5250   -3.8780   25.4660 C   0  0  0  0  0  0  0  0  0  0  0  0
    9.3910   -5.1110   25.3610 C   0  0  0  0  0  0  0  0  0  0  0  0
    7.7780   -3.8650   27.0210 S   0  0  0  0  0  0  0  0  0  0  0  0
    9.3920   -5.9900   26.5810 C   0  0  0  0  0  0  0  0  0  0  0  0
    8.5600   -5.4130   27.5320 C   0  0  0  0  0  0  0  0  0  0  0  0
  1  2  1  0
  2  3  2  0
  1  4  1  0
  2  5  1  0
  4  6  1  0
  6  7  1  0
  7  8  2  0
  7  9  1  0
  9 10  2  0
  9 11  1  0
 10 12  1  0
 11 13  1  0
 12 13  2  0
M  END
