x1375_2-x1412_0
     RDKit          3D

 13 13  0  0  0  0  0  0  0  0999 V2000
    6.2020   -4.4250   22.1420 N   0  0  0  0  0  0  0  0  0  0  0  0
    6.5050   -4.3150   20.8030 C   0  0  0  0  0  0  0  0  0  0  0  0
    5.6350   -4.6000   19.9680 O   0  0  0  0  0  0  0  0  0  0  0  0
    6.5840   -3.4310   23.0930 C   0  0  0  0  0  0  0  0  0  0  0  0
    7.9460   -3.8010   20.5330 C   0  0  0  0  0  0  0  0  0  0  0  0
    8.0550   -3.1620   23.2840 C   0  0  0  0  0  0  0  0  0  0  0  0
    8.3200   -2.7140   24.7270 C   0  0  0  0  0  0  0  0  0  0  0  0
    8.3910   -1.5040   25.0120 O   0  0  0  0  0  0  0  0  0  0  0  0
    8.4710   -3.8280   25.7310 C   0  0  0  0  0  0  0  0  0  0  0  0
    9.3750   -5.0020   25.3570 C   0  0  0  0  0  0  0  0  0  0  0  0
    7.7330   -3.9220   27.2650 S   0  0  0  0  0  0  0  0  0  0  0  0
    9.3870   -5.8780   26.3600 C   0  0  0  0  0  0  0  0  0  0  0  0
    8.5850   -5.4780   27.4440 C   0  0  0  0  0  0  0  0  0  0  0  0
  1  2  1  0
  2  3  2  0
  1  4  1  0
  2  5  1  0
  4  6  1  0
  6  7  1  0
  7  8  2  0
  7  9  1  0
  9 10  2  0
  9 11  1  0
 10 12  1  0
 11 13  1  0
 12 13  2  0
M  END
