x1374_1-x0831_0-x1386_1-x0692_1-x0770_1-x0831_1-x0426_1-x1385_1-x0397_0-x1418_1-x0434_2-x1334_1-x1334_0-x1412_1
     RDKit          3D

 45 50  0  0  0  0  0  0  0  0999 V2000
    2.7160   -7.3450   23.2780 O   0  0  0  0  0  0  0  0  0  0  0  0
    2.9800   -7.4780   24.6600 C   0  0  0  0  0  0  0  0  0  0  0  0
    4.3200   -7.8960   24.8520 O   0  0  0  0  0  0  0  0  0  0  0  0
    5.2290   -7.3600   23.8810 C   0  0  0  0  0  0  0  0  0  0  0  0
    5.9290   -6.2590   24.3720 C   0  0  0  0  0  0  0  0  0  0  0  0
    6.2610   -5.3600   23.2130 C   0  0  2  0  0  0  0  0  0  0  0  0
    5.2280   -5.0070   22.2920 C   0  0  2  0  0  0  0  0  0  0  0  0
    6.5430   -5.9540   22.0710 C   0  0  0  0  0  0  0  0  0  0  0  0
    5.1090   -3.4820   22.2000 C   0  0  0  0  0  0  0  0  0  0  0  0
    6.3580   -2.6720   22.2590 C   0  0  2  0  0  0  0  0  0  0  0  0
    6.7230   -2.2480   20.9160 N   0  0  0  0  0  0  0  0  0  0  0  0
    7.6540   -3.1840   22.9440 C   0  0  0  0  0  0  0  0  0  0  0  0
    6.4680   -3.0730   19.7850 C   0  0  0  0  0  0  0  0  0  0  0  0
    8.6380   -2.1120   22.9880 N   0  0  0  0  0  0  0  0  0  0  0  0
    7.8240   -1.2610   20.9930 C   0  0  2  0  0  0  0  0  0  0  0  0
    7.4460   -2.9410   18.6520 C   0  0  0  0  0  0  0  0  0  0  0  0
    5.5390   -3.9080   19.6640 O   0  0  0  0  0  0  0  0  0  0  0  0
    9.7260   -2.0710   23.9080 C   0  0  1  0  0  0  0  0  0  0  0  0
    9.0440   -1.8750   21.6220 C   0  0  0  0  0  0  0  0  0  0  0  0
    7.4960   -0.1100   22.0110 C   0  0  0  0  0  0  0  0  0  0  0  0
   10.2760   -3.4460   24.0450 C   0  0  0  0  0  0  0  0  0  0  0  0
   10.6760   -0.9050   23.6520 C   0  0  0  0  0  0  0  0  0  0  0  0
    6.3350    0.8710   21.8020 C   0  0  2  0  0  0  0  0  0  0  0  0
   10.2200    0.5120   24.0560 C   0  0  0  0  0  0  0  0  0  0  0  0
   11.9790   -0.9890   23.0660 C   0  0  0  0  0  0  0  0  0  0  0  0
    9.6720   -4.1570   25.2230 C   0  0  0  0  0  0  0  0  0  0  0  0
    5.2490    0.6020   22.5340 C   0  0  0  0  0  0  0  0  0  0  0  0
    5.9000    0.9490   20.3950 C   0  0  0  0  0  0  0  0  0  0  0  0
   12.6190   -2.2460   22.5890 C   0  0  0  0  0  0  0  0  0  0  0  0
   11.0350    1.7800   23.8850 C   0  0  0  0  0  0  0  0  0  0  0  0
   12.7810    0.3280   22.9130 C   0  0  0  0  0  0  0  0  0  0  0  0
   10.2040   -5.2400   25.8650 C   0  0  0  0  0  0  0  0  0  0  0  0
    8.1690   -3.6900   25.9710 S   0  0  0  0  0  0  0  0  0  0  0  0
    4.2950    1.8130   22.4590 C   0  0  2  0  0  0  0  0  0  0  0  0
    4.6410    1.4330   20.1140 C   0  0  0  0  0  0  0  0  0  0  0  0
    6.7580    0.5380   19.2680 C   0  0  0  0  0  0  0  0  0  0  0  0
   12.2510    1.7130   23.3470 C   0  0  0  0  0  0  0  0  0  0  0  0
    9.4840   -5.6870   26.9050 C   0  0  0  0  0  0  0  0  0  0  0  0
    8.2620   -4.9310   27.1430 C   0  0  0  0  0  0  0  0  0  0  0  0
    3.5060    1.7880   23.5550 N   0  0  0  0  0  0  0  0  0  0  0  0
    3.7040    1.8550   21.2090 C   0  0  0  0  0  0  0  0  0  0  0  0
    4.2300    1.5390   18.8080 C   0  0  0  0  0  0  0  0  0  0  0  0
    6.4670    0.5900   17.9800 N   0  0  0  0  0  0  0  0  0  0  0  0
    7.0890   -5.1850   28.3630 Cl  0  0  0  0  0  0  0  0  0  0  0  0
    5.2450    1.0830   17.7760 C   0  0  0  0  0  0  0  0  0  0  0  0
  1  2  1  0
  2  3  1  0
  3  4  1  0
  4  5  1  0
  6  5  1  1
  6  7  1  0
  6  8  1  0
  7  8  1  0
  7  9  1  6
 10  9  1  6
 10 11  1  0
 10 12  1  0
 11 13  1  0
 12 14  1  0
 11 15  1  0
 13 16  1  0
 13 17  2  0
 14 18  1  0
 14 19  1  0
 15 19  1  0
 15 20  1  1
 18 21  1  6
 18 22  1  0
 23 20  1  6
 22 24  2  0
 22 25  1  0
 21 26  1  0
 23 27  1  0
 23 28  1  0
 25 29  1  0
 24 30  1  0
 25 31  2  0
 26 32  2  0
 26 33  1  0
 27 34  1  0
 28 35  2  0
 28 36  1  0
 30 37  2  0
 31 37  1  0
 32 38  1  0
 33 39  1  0
 38 39  2  0
 34 40  1  1
 34 41  1  0
 35 41  1  0
 35 42  1  0
 36 43  2  0
 39 44  1  0
 42 45  2  0
 43 45  1  0
M  END
