x1374_1-x1334_0-x1418_1-x0831_0-x1385_1-x1412_1-x0397_0-x0434_2-x0426_1-x0692_1-x1386_1-x1375_1-x0770_1-x1334_1
     RDKit          3D

 43 48  0  0  0  0  0  0  0  0999 V2000
    2.3440   -7.6660   23.2100 O   0  0  0  0  0  0  0  0  0  0  0  0
    2.6410   -7.7660   24.5850 C   0  0  0  0  0  0  0  0  0  0  0  0
    4.0440   -7.8930   24.7210 O   0  0  0  0  0  0  0  0  0  0  0  0
    4.7130   -7.1530   23.7040 C   0  0  0  0  0  0  0  0  0  0  0  0
    5.0250   -5.9820   24.2110 C   0  0  0  0  0  0  0  0  0  0  0  0
    6.0190   -5.3520   23.2910 C   0  0  2  0  0  0  0  0  0  0  0  0
    5.5840   -4.4970   22.4380 C   0  0  2  0  0  0  0  0  0  0  0  0
    6.4000   -5.9260   22.1390 C   0  0  0  0  0  0  0  0  0  0  0  0
    6.0170   -3.0490   22.3080 C   0  0  1  0  0  0  0  0  0  0  0  0
    6.7750   -2.6670   23.5750 C   0  0  0  0  0  0  0  0  0  0  0  0
    6.8650   -2.7950   21.1480 N   0  0  0  0  0  0  0  0  0  0  0  0
    6.4890   -3.3430   19.9100 C   0  0  0  0  0  0  0  0  0  0  0  0
    8.1220   -2.1180   23.3580 N   0  0  0  0  0  0  0  0  0  0  0  0
    7.2570   -1.3870   21.2010 C   0  0  1  0  0  0  0  0  0  0  0  0
    7.3930   -3.0200   18.7460 C   0  0  0  0  0  0  0  0  0  0  0  0
    5.5060   -4.0860   19.7510 O   0  0  0  0  0  0  0  0  0  0  0  0
    6.0040   -0.4700   21.3260 C   0  0  1  0  0  0  0  0  0  0  0  0
    9.1100   -3.1950   23.4380 C   0  0  1  0  0  0  0  0  0  0  0  0
    8.2170   -1.2010   22.2000 C   0  0  0  0  0  0  0  0  0  0  0  0
    5.9170    0.6440   22.4380 C   0  0  0  0  0  0  0  0  0  0  0  0
   10.5210   -2.6870   23.0910 C   0  0  0  0  0  0  0  0  0  0  0  0
    5.7420    0.2520   20.0490 C   0  0  0  0  0  0  0  0  0  0  0  0
    8.9870   -4.1010   24.7490 C   0  0  0  0  0  0  0  0  0  0  0  0
    4.4420    1.1620   22.5690 C   0  0  1  0  0  0  0  0  0  0  0  0
    4.6440    1.1230   19.9970 C   0  0  0  0  0  0  0  0  0  0  0  0
    6.5750    0.0570   18.9420 C   0  0  0  0  0  0  0  0  0  0  0  0
    9.6950   -5.3290   25.1620 C   0  0  0  0  0  0  0  0  0  0  0  0
    7.8730   -3.7960   26.0500 S   0  0  0  0  0  0  0  0  0  0  0  0
   10.8910   -1.3990   23.3110 C   0  0  0  0  0  0  0  0  0  0  0  0
    4.3440    2.4180   23.2860 N   0  0  0  0  0  0  0  0  0  0  0  0
    3.7520    1.3280   21.1830 C   0  0  0  0  0  0  0  0  0  0  0  0
    4.4230    1.7750   18.8280 C   0  0  0  0  0  0  0  0  0  0  0  0
    6.4450    0.6490   17.7360 N   0  0  0  0  0  0  0  0  0  0  0  0
    9.3580   -5.9070   26.3300 C   0  0  0  0  0  0  0  0  0  0  0  0
    8.3420   -5.1690   26.9460 C   0  0  0  0  0  0  0  0  0  0  0  0
   10.1300   -0.5330   24.1070 C   0  0  0  0  0  0  0  0  0  0  0  0
   12.1980   -0.8490   22.6880 C   0  0  0  0  0  0  0  0  0  0  0  0
    7.5730   -5.5130   28.4310 Cl  0  0  0  0  0  0  0  0  0  0  0  0
   13.0540   -1.7220   21.8310 C   0  0  0  0  0  0  0  0  0  0  0  0
    5.3270    1.5640   17.6300 C   0  0  0  0  0  0  0  0  0  0  0  0
   10.5530    0.7820   24.3160 C   0  0  0  0  0  0  0  0  0  0  0  0
   12.5590    0.4590   22.9410 C   0  0  0  0  0  0  0  0  0  0  0  0
   11.7400    1.2700   23.7460 C   0  0  0  0  0  0  0  0  0  0  0  0
  1  2  1  0
  2  3  1  0
  3  4  1  0
  4  5  1  0
  6  5  1  6
  6  7  1  0
  6  8  1  0
  7  8  1  6
  7  9  1  0
  9 10  1  1
  9 11  1  0
 11 12  1  0
 10 13  1  0
 11 14  1  0
 12 15  1  0
 12 16  2  0
 14 17  1  0
 13 18  1  0
 13 19  1  0
 14 19  1  1
 17 20  1  1
 18 21  1  1
 17 22  1  0
 18 23  1  0
 20 24  1  0
 22 25  2  0
 22 26  1  0
 23 27  2  0
 23 28  1  0
 21 29  1  0
 24 30  1  6
 24 31  1  0
 25 31  1  0
 25 32  1  0
 26 33  2  0
 27 34  1  0
 28 35  1  0
 34 35  2  0
 29 36  2  0
 29 37  1  0
 35 38  1  0
 37 39  1  0
 32 40  2  0
 33 40  1  0
 36 41  1  0
 37 42  2  0
 41 43  2  0
 42 43  1  0
M  END
