x1374_1-x0770_1-x0831_1-x1418_1-x0426_1-x0692_1-x1334_1-x1386_1-x0397_0-x0831_0-x1334_0
     RDKit          3D

 43 48  0  0  0  0  0  0  0  0999 V2000
    2.0230   -7.2000   23.5860 O   0  0  0  0  0  0  0  0  0  0  0  0
    2.3990   -7.5140   24.9150 C   0  0  0  0  0  0  0  0  0  0  0  0
    3.7770   -7.8520   24.9290 O   0  0  0  0  0  0  0  0  0  0  0  0
    4.4610   -7.1760   23.8970 C   0  0  0  0  0  0  0  0  0  0  0  0
    4.9950   -6.0270   24.4000 C   0  0  0  0  0  0  0  0  0  0  0  0
    6.1150   -5.7450   23.4510 C   0  0  2  0  0  0  0  0  0  0  0  0
    6.0160   -4.6060   22.5670 C   0  0  2  0  0  0  0  0  0  0  0  0
    6.0660   -6.2090   22.1940 C   0  0  0  0  0  0  0  0  0  0  0  0
    7.0060   -3.8700   22.1190 C   0  0  1  0  0  0  0  0  0  0  0  0
    6.4520   -2.8830   21.2370 N   0  0  0  0  0  0  0  0  0  0  0  0
    7.7510   -3.4160   23.1240 C   0  0  0  0  0  0  0  0  0  0  0  0
    6.2530   -3.1950   19.8960 C   0  0  0  0  0  0  0  0  0  0  0  0
    8.8250   -2.5180   22.6560 N   0  0  0  0  0  0  0  0  0  0  0  0
    6.7520   -1.5770   21.8590 C   0  0  2  0  0  0  0  0  0  0  0  0
    7.2860   -2.8970   18.8230 C   0  0  0  0  0  0  0  0  0  0  0  0
    5.2460   -3.8380   19.5600 O   0  0  0  0  0  0  0  0  0  0  0  0
    5.9170   -0.2060   21.7330 C   0  0  2  0  0  0  0  0  0  0  0  0
    9.5870   -2.0140   23.7750 C   0  0  1  0  0  0  0  0  0  0  0  0
    8.3140   -1.4690   21.7880 C   0  0  0  0  0  0  0  0  0  0  0  0
    4.5790   -0.2330   22.4520 C   0  0  0  0  0  0  0  0  0  0  0  0
   10.3290   -3.1830   24.3130 C   0  0  0  0  0  0  0  0  0  0  0  0
    5.7560    0.3350   20.3120 C   0  0  0  0  0  0  0  0  0  0  0  0
   10.4710   -0.8620   23.6210 C   0  0  0  0  0  0  0  0  0  0  0  0
    3.7680    1.0850   22.3320 C   0  0  1  0  0  0  0  0  0  0  0  0
    4.6800    1.1660   19.9700 C   0  0  0  0  0  0  0  0  0  0  0  0
    6.7510   -0.0020   19.2550 C   0  0  0  0  0  0  0  0  0  0  0  0
   10.1230    0.5700   24.0750 C   0  0  0  0  0  0  0  0  0  0  0  0
   11.9120   -0.9200   22.9750 C   0  0  0  0  0  0  0  0  0  0  0  0
    9.6340   -4.1190   25.2710 C   0  0  0  0  0  0  0  0  0  0  0  0
    4.2360    2.0630   23.3010 N   0  0  0  0  0  0  0  0  0  0  0  0
    3.5780    1.6020   20.9010 C   0  0  0  0  0  0  0  0  0  0  0  0
   12.5510   -2.1530   22.4230 C   0  0  0  0  0  0  0  0  0  0  0  0
    4.5740    1.6580   18.6920 C   0  0  0  0  0  0  0  0  0  0  0  0
    6.6060    0.5350   17.8980 N   0  0  0  0  0  0  0  0  0  0  0  0
   11.0340    1.7310   23.9230 C   0  0  0  0  0  0  0  0  0  0  0  0
   12.6540    0.2750   22.9090 C   0  0  0  0  0  0  0  0  0  0  0  0
   10.0310   -5.4090   25.5250 C   0  0  0  0  0  0  0  0  0  0  0  0
    8.2230   -3.7200   26.2250 S   0  0  0  0  0  0  0  0  0  0  0  0
    5.5680    1.3340   17.6400 C   0  0  0  0  0  0  0  0  0  0  0  0
   12.2450    1.5400   23.3570 C   0  0  0  0  0  0  0  0  0  0  0  0
    9.1540   -6.0460   26.5480 C   0  0  0  0  0  0  0  0  0  0  0  0
    8.1520   -5.2650   27.0260 C   0  0  0  0  0  0  0  0  0  0  0  0
    6.9760   -5.6530   28.2080 Cl  0  0  0  0  0  0  0  0  0  0  0  0
  1  2  1  0
  2  3  1  0
  3  4  1  0
  4  5  1  0
  6  5  1  1
  6  7  1  0
  6  8  1  0
  7  8  1  6
  7  9  1  0
  9 10  1  0
  9 11  1  1
 10 12  1  0
 11 13  1  0
 10 14  1  0
 12 15  1  0
 12 16  2  0
 14 17  1  0
 13 18  1  0
 13 19  1  0
 14 19  1  6
 17 20  1  6
 18 21  1  6
 17 22  1  0
 18 23  1  0
 20 24  1  0
 22 25  2  0
 22 26  1  0
 23 27  2  0
 23 28  1  0
 21 29  1  0
 24 30  1  1
 24 31  1  0
 25 31  1  0
 28 32  1  0
 25 33  1  0
 26 34  2  0
 27 35  1  0
 28 36  2  0
 29 37  2  0
 29 38  1  0
 33 39  2  0
 34 39  1  0
 35 40  2  0
 36 40  1  0
 37 41  1  0
 38 42  1  0
 41 42  2  0
 42 43  1  0
M  END
