x1374_1-x0107_0-x1336_1
     RDKit          3D

 33 35  0  0  0  0  0  0  0  0999 V2000
   10.4320   -0.7370   22.0880 C   0  0  0  0  0  0  0  0  0  0  0  0
    9.1510   -0.0610   21.5600 C   0  0  0  0  0  0  0  0  0  0  0  0
    9.1960    1.3770   21.3630 O   0  0  0  0  0  0  0  0  0  0  0  0
   10.2200   -1.6720   23.2560 C   0  0  0  0  0  0  0  0  0  0  0  0
    7.9090   -0.7440   21.1980 N   0  0  0  0  0  0  0  0  0  0  0  0
    9.3970   -0.9860   24.3460 C   0  0  0  0  0  0  0  0  0  0  0  0
    8.0220   -1.4560   24.3340 N   0  0  0  0  0  0  0  0  0  0  0  0
    6.9690   -0.1870   20.2220 C   0  0  0  0  0  0  0  0  0  0  0  0
    7.4340   -1.7840   25.7220 S   0  0  1  0  0  0  0  0  0  0  0  0
    5.8090    0.5360   20.6510 C   0  0  0  0  0  0  0  0  0  0  0  0
    7.1400   -0.3140   18.8500 C   0  0  0  0  0  0  0  0  0  0  0  0
    5.4950    0.7410   22.0830 C   0  0  0  0  0  0  0  0  0  0  0  0
    5.9440   -1.3390   25.7920 N   0  0  0  0  0  0  0  0  0  0  0  0
    4.8840    1.1080   19.5870 C   0  0  0  0  0  0  0  0  0  0  0  0
    6.2540    0.2350   17.8250 N   0  0  0  0  0  0  0  0  0  0  0  0
    7.7820   -3.3360   26.4700 C   0  0  0  0  0  0  0  0  0  0  0  0
    5.0650   -2.1000   24.9220 C   0  0  0  0  0  0  0  0  0  0  0  0
    5.1820    0.9140   18.2430 C   0  0  0  0  0  0  0  0  0  0  0  0
    6.8560   -3.7330   27.4070 C   0  0  0  0  0  0  0  0  0  0  0  0
    8.9150   -4.1120   26.1630 C   0  0  0  0  0  0  0  0  0  0  0  0
    9.9390   -3.7040   25.1550 C   0  0  0  0  0  0  0  0  0  0  0  0
    5.8030   -3.1130   24.0300 C   0  0  0  0  0  0  0  0  0  0  0  0
    7.0640   -4.9440   28.0640 C   0  0  0  0  0  0  0  0  0  0  0  0
    9.0890   -5.3150   26.8370 C   0  0  0  0  0  0  0  0  0  0  0  0
    6.0710   -5.3900   29.0850 C   0  0  0  0  0  0  0  0  0  0  0  0
    8.1750   -5.7440   27.7890 C   0  0  0  0  0  0  0  0  0  0  0  0
    5.1620   -4.4790   23.8390 C   0  0  0  0  0  0  0  0  0  0  0  0
    5.4130   -5.0880   22.6000 C   0  0  0  0  0  0  0  0  0  0  0  0
    4.3690   -5.2020   24.7260 C   0  0  0  0  0  0  0  0  0  0  0  0
    3.9500   -6.6560   24.0210 S   0  0  0  0  0  0  0  0  0  0  0  0
    5.0530   -6.5650   22.6510 C   0  0  0  0  0  0  0  0  0  0  0  0
    2.4410   -6.7180   23.4950 O   0  0  0  0  0  0  0  0  0  0  0  0
    4.2620   -7.9190   24.9380 O   0  0  0  0  0  0  0  0  0  0  0  0
  1  2  1  0
  2  3  2  0
  1  4  1  0
  2  5  1  0
  4  6  1  0
  6  7  1  0
  5  8  1  0
  7  9  2  0
  8 10  2  0
  8 11  1  0
 10 12  1  0
  9 13  2  0
 10 14  1  0
 11 15  2  0
  9 16  1  6
 13 17  1  0
 14 18  2  0
 15 18  1  0
 16 19  2  0
 16 20  1  0
 20 21  1  0
 17 22  1  0
 19 23  1  0
 20 24  2  0
 23 25  1  0
 23 26  2  0
 24 26  1  0
 22 27  1  0
 27 28  1  0
 27 29  2  0
 29 30  1  0
 28 31  1  0
 30 31  1  0
 30 32  1  0
 30 33  1  0
M  END
