x1374_1-x0397_0-x0770_1-x1334_0-x1334_1-x1412_1-x1418_1-x0831_0-x1385_1
     RDKit          3D

 32 35  0  0  0  0  0  0  0  0999 V2000
    2.2160   -7.7220   23.2480 O   0  0  0  0  0  0  0  0  0  0  0  0
    2.4310   -8.0330   24.6090 C   0  0  0  0  0  0  0  0  0  0  0  0
    3.8080   -7.9940   24.8990 O   0  0  0  0  0  0  0  0  0  0  0  0
    4.5000   -7.2950   23.8720 C   0  0  0  0  0  0  0  0  0  0  0  0
    4.8090   -6.0460   24.3000 C   0  0  0  0  0  0  0  0  0  0  0  0
    5.7410   -5.4240   23.3140 C   0  0  2  0  0  0  0  0  0  0  0  0
    5.3850   -4.5500   22.4910 C   0  0  2  0  0  0  0  0  0  0  0  0
    6.0030   -5.9280   21.9630 C   0  0  0  0  0  0  0  0  0  0  0  0
    6.1750   -3.2290   22.4030 C   0  0  2  0  0  0  0  0  0  0  0  0
    6.2760   -2.6200   21.0930 N   0  0  0  0  0  0  0  0  0  0  0  0
    7.4990   -3.5460   22.9460 C   0  0  0  0  0  0  0  0  0  0  0  0
    6.1840   -3.3010   19.8910 C   0  0  0  0  0  0  0  0  0  0  0  0
    8.0760   -2.3120   23.3230 N   0  0  0  0  0  0  0  0  0  0  0  0
    7.1890   -1.4050   21.1160 C   0  0  0  0  0  0  0  0  0  0  0  0
    7.2250   -3.0030   18.8130 C   0  0  0  0  0  0  0  0  0  0  0  0
    5.3110   -4.1520   19.7220 O   0  0  0  0  0  0  0  0  0  0  0  0
    9.2190   -2.5480   24.1840 C   0  0  2  0  0  0  0  0  0  0  0  0
    8.3850   -1.5220   22.1080 C   0  0  0  0  0  0  0  0  0  0  0  0
   10.4160   -2.4480   23.2610 C   0  0  0  0  0  0  0  0  0  0  0  0
    9.0250   -3.7280   25.1430 C   0  0  0  0  0  0  0  0  0  0  0  0
    9.7050   -4.9330   25.1830 C   0  0  0  0  0  0  0  0  0  0  0  0
    7.8610   -3.7580   26.4350 S   0  0  0  0  0  0  0  0  0  0  0  0
   11.0740   -1.0910   23.2930 C   0  0  0  0  0  0  0  0  0  0  0  0
    9.3180   -5.7950   26.1740 C   0  0  0  0  0  0  0  0  0  0  0  0
    8.3010   -5.3120   26.9740 C   0  0  0  0  0  0  0  0  0  0  0  0
   10.4570   -0.0530   23.9720 C   0  0  0  0  0  0  0  0  0  0  0  0
   12.2920   -0.8330   22.6810 C   0  0  0  0  0  0  0  0  0  0  0  0
    7.5000   -6.0020   28.3150 Cl  0  0  0  0  0  0  0  0  0  0  0  0
   13.0010   -1.9050   21.9250 C   0  0  0  0  0  0  0  0  0  0  0  0
   10.9720    1.2340   24.0830 C   0  0  0  0  0  0  0  0  0  0  0  0
   12.8340    0.4460   22.7890 C   0  0  0  0  0  0  0  0  0  0  0  0
   12.1970    1.4820   23.4710 C   0  0  0  0  0  0  0  0  0  0  0  0
  1  2  1  0
  2  3  1  0
  3  4  1  0
  4  5  1  0
  6  5  1  6
  6  7  1  0
  6  8  1  0
  7  8  1  6
  7  9  1  0
  9 10  1  0
  9 11  1  6
 10 12  1  0
 11 13  1  0
 10 14  1  0
 12 15  1  0
 12 16  2  0
 13 17  1  0
 13 18  1  0
 14 18  1  0
 17 19  1  6
 17 20  1  0
 20 21  2  0
 20 22  1  0
 19 23  1  0
 21 24  1  0
 22 25  1  0
 24 25  2  0
 23 26  2  0
 23 27  1  0
 25 28  1  0
 27 29  1  0
 26 30  1  0
 27 31  2  0
 30 32  2  0
 31 32  1  0
M  END
