x1374_1-x1418_1-x0831_0-x1334_1-x1385_1-x1386_1-x0692_1-x0397_0-x1334_0-x0770_1
     RDKit          3D

 32 35  0  0  0  0  0  0  0  0999 V2000
    2.2320   -7.7610   23.3370 O   0  0  0  0  0  0  0  0  0  0  0  0
    2.5110   -8.0240   24.6970 C   0  0  0  0  0  0  0  0  0  0  0  0
    3.9000   -7.9370   24.9110 O   0  0  0  0  0  0  0  0  0  0  0  0
    4.4960   -7.1530   23.8910 C   0  0  0  0  0  0  0  0  0  0  0  0
    5.2390   -5.9330   24.4780 C   0  0  0  0  0  0  0  0  0  0  0  0
    6.2450   -5.5040   23.4670 C   0  0  2  0  0  0  0  0  0  0  0  0
    6.0020   -4.6800   22.3510 C   0  0  2  0  0  0  0  0  0  0  0  0
    6.2650   -6.2030   22.0110 C   0  0  0  0  0  0  0  0  0  0  0  0
    7.1110   -3.5950   22.0370 C   0  0  2  0  0  0  0  0  0  0  0  0
    7.5870   -2.9380   23.3350 C   0  0  0  0  0  0  0  0  0  0  0  0
    6.6580   -2.6260   21.0300 N   0  0  0  0  0  0  0  0  0  0  0  0
    6.3960   -3.2000   19.8130 C   0  0  0  0  0  0  0  0  0  0  0  0
    8.5870   -1.9150   23.1250 N   0  0  0  0  0  0  0  0  0  0  0  0
    7.1500   -1.2590   21.1640 C   0  0  0  0  0  0  0  0  0  0  0  0
    7.3680   -2.9820   18.6800 C   0  0  0  0  0  0  0  0  0  0  0  0
    5.4140   -3.9450   19.6200 O   0  0  0  0  0  0  0  0  0  0  0  0
    9.9760   -2.2910   23.2090 C   0  0  2  0  0  0  0  0  0  0  0  0
    8.4910   -1.1400   21.8820 C   0  0  0  0  0  0  0  0  0  0  0  0
   10.5030   -3.1260   24.3350 C   0  0  0  0  0  0  0  0  0  0  0  0
   10.7940   -0.9920   23.2720 C   0  0  0  0  0  0  0  0  0  0  0  0
   10.0480    0.2240   23.8830 C   0  0  0  0  0  0  0  0  0  0  0  0
   12.1250   -0.8800   22.8130 C   0  0  0  0  0  0  0  0  0  0  0  0
    9.6820   -4.0090   25.2510 C   0  0  0  0  0  0  0  0  0  0  0  0
   12.8450   -2.0410   22.2100 C   0  0  0  0  0  0  0  0  0  0  0  0
   10.8900    1.5250   23.9360 C   0  0  0  0  0  0  0  0  0  0  0  0
   12.9110    0.4330   22.8900 C   0  0  0  0  0  0  0  0  0  0  0  0
    9.9800   -5.4260   25.5920 C   0  0  0  0  0  0  0  0  0  0  0  0
    8.1660   -3.6260   26.2080 S   0  0  0  0  0  0  0  0  0  0  0  0
   12.3310    1.5080   23.4010 C   0  0  0  0  0  0  0  0  0  0  0  0
    9.1530   -6.0720   26.4860 C   0  0  0  0  0  0  0  0  0  0  0  0
    8.1310   -5.1990   26.9070 C   0  0  0  0  0  0  0  0  0  0  0  0
    6.9070   -5.6000   28.0380 Cl  0  0  0  0  0  0  0  0  0  0  0  0
  1  2  1  0
  2  3  1  0
  3  4  1  0
  4  5  1  0
  6  5  1  1
  6  7  1  0
  6  8  1  0
  7  8  1  6
  7  9  1  0
  9 10  1  1
  9 11  1  0
 11 12  1  0
 10 13  1  0
 11 14  1  0
 12 15  1  0
 12 16  2  0
 13 17  1  0
 13 18  1  0
 14 18  1  0
 17 19  1  1
 17 20  1  0
 20 21  2  0
 20 22  1  0
 19 23  1  0
 22 24  1  0
 21 25  1  0
 22 26  2  0
 23 27  2  0
 23 28  1  0
 25 29  2  0
 26 29  1  0
 27 30  1  0
 28 31  1  0
 30 31  2  0
 31 32  1  0
M  END
