x1375_1-x0770_1-x1334_1-x0426_1-x0397_0-x0831_0-x0692_1
     RDKit          3D

 35 39  0  0  0  0  0  0  0  0999 V2000
    2.4900   -7.2390   24.4220 O   0  0  0  0  0  0  0  0  0  0  0  0
    3.3840   -7.0820   25.5090 C   0  0  0  0  0  0  0  0  0  0  0  0
    4.6610   -6.6380   25.0820 O   0  0  0  0  0  0  0  0  0  0  0  0
    4.8600   -6.8960   23.7060 C   0  0  0  0  0  0  0  0  0  0  0  0
    5.9550   -6.0450   23.1630 C   0  0  2  0  0  0  0  0  0  0  0  0
    5.6250   -4.8190   22.4210 C   0  0  2  0  0  0  0  0  0  0  0  0
    6.2860   -6.2140   21.9000 C   0  0  0  0  0  0  0  0  0  0  0  0
    6.4380   -3.5490   22.6230 C   0  0  2  0  0  0  0  0  0  0  0  0
    6.2870   -2.7420   21.4430 N   0  0  0  0  0  0  0  0  0  0  0  0
    7.7760   -3.6700   22.9420 C   0  0  0  0  0  0  0  0  0  0  0  0
    6.2370   -3.3210   20.1180 C   0  0  0  0  0  0  0  0  0  0  0  0
    8.5830   -2.4000   22.8950 N   0  0  0  0  0  0  0  0  0  0  0  0
    6.6380   -1.4780   21.8190 C   0  0  2  0  0  0  0  0  0  0  0  0
    7.2010   -2.9500   18.9970 C   0  0  0  0  0  0  0  0  0  0  0  0
    5.4000   -4.2040   19.8240 O   0  0  0  0  0  0  0  0  0  0  0  0
    5.6550   -0.3400   21.5040 C   0  0  1  0  0  0  0  0  0  0  0  0
   10.0260   -2.4840   23.2870 C   0  0  0  0  0  0  0  0  0  0  0  0
    8.1570   -1.4260   21.8380 C   0  0  0  0  0  0  0  0  0  0  0  0
    5.5780    0.8010   22.5600 C   0  0  0  0  0  0  0  0  0  0  0  0
    5.6410    0.2650   20.1550 C   0  0  0  0  0  0  0  0  0  0  0  0
   10.7590   -1.1440   23.4000 C   0  0  0  0  0  0  0  0  0  0  0  0
    4.4550    1.8690   22.3680 C   0  0  2  0  0  0  0  0  0  0  0  0
    4.6760    1.2300   19.9440 C   0  0  0  0  0  0  0  0  0  0  0  0
    6.5820   -0.1050   19.0600 C   0  0  0  0  0  0  0  0  0  0  0  0
   10.1480   -0.0860   24.0990 C   0  0  0  0  0  0  0  0  0  0  0  0
   12.0340   -0.9340   22.8170 C   0  0  0  0  0  0  0  0  0  0  0  0
    3.5230    1.8540   23.4720 N   0  0  0  0  0  0  0  0  0  0  0  0
    3.7310    1.6120   21.0390 C   0  0  0  0  0  0  0  0  0  0  0  0
   12.7390   -2.0120   22.0570 C   0  0  0  0  0  0  0  0  0  0  0  0
    4.6070    1.8220   18.7170 C   0  0  0  0  0  0  0  0  0  0  0  0
    6.5080    0.5280   17.7470 N   0  0  0  0  0  0  0  0  0  0  0  0
   10.8270    1.1290   24.1750 C   0  0  0  0  0  0  0  0  0  0  0  0
   12.6810    0.3000   22.9230 C   0  0  0  0  0  0  0  0  0  0  0  0
    5.4800    1.5330   17.5610 C   0  0  0  0  0  0  0  0  0  0  0  0
   12.0750    1.3290   23.5970 C   0  0  0  0  0  0  0  0  0  0  0  0
  1  2  1  0
  2  3  1  0
  3  4  1  0
  5  4  1  6
  5  6  1  0
  5  7  1  0
  6  7  1  6
  6  8  1  0
  8  9  1  0
  8 10  1  6
  9 11  1  0
 10 12  1  0
  9 13  1  0
 11 14  1  0
 11 15  2  0
 13 16  1  0
 12 17  1  0
 12 18  1  0
 13 18  1  6
 16 19  1  1
 16 20  1  0
 17 21  1  0
 19 22  1  0
 20 23  2  0
 20 24  1  0
 21 25  2  0
 21 26  1  0
 22 27  1  1
 22 28  1  0
 23 28  1  0
 26 29  1  0
 23 30  1  0
 24 31  2  0
 25 32  1  0
 26 33  2  0
 30 34  2  0
 31 34  1  0
 32 35  2  0
 33 35  1  0
M  END
