x1374_1-x1334_0-x0434_2-x0831_0-x0426_1-x0770_1-x1418_1-x1412_1-x1334_1-x0692_1-x0397_0
     RDKit          3D

 44 49  0  0  0  0  0  0  0  0999 V2000
    1.9820   -7.1930   23.6740 O   0  0  0  0  0  0  0  0  0  0  0  0
    2.4200   -7.5140   24.9850 C   0  0  0  0  0  0  0  0  0  0  0  0
    3.7960   -7.8460   24.9240 O   0  0  0  0  0  0  0  0  0  0  0  0
    4.3680   -7.2070   23.8090 C   0  0  0  0  0  0  0  0  0  0  0  0
    4.8860   -6.0150   24.2060 C   0  0  0  0  0  0  0  0  0  0  0  0
    5.9690   -5.6690   23.2340 C   0  0  2  0  0  0  0  0  0  0  0  0
    5.7800   -4.6930   22.3630 C   0  0  2  0  0  0  0  0  0  0  0  0
    6.1450   -6.2540   21.9040 C   0  0  0  0  0  0  0  0  0  0  0  0
    6.7080   -3.5630   22.2210 C   0  0  1  0  0  0  0  0  0  0  0  0
    6.2730   -2.6230   21.1930 N   0  0  0  0  0  0  0  0  0  0  0  0
    6.8710   -2.9140   23.6010 C   0  0  0  0  0  0  0  0  0  0  0  0
    6.1690   -3.3020   19.9490 C   0  0  0  0  0  0  0  0  0  0  0  0
    8.0470   -2.0360   23.5350 N   0  0  0  0  0  0  0  0  0  0  0  0
    7.1240   -1.3970   21.1930 C   0  0  1  0  0  0  0  0  0  0  0  0
    7.2160   -3.0230   18.8940 C   0  0  0  0  0  0  0  0  0  0  0  0
    5.2900   -4.1430   19.7320 O   0  0  0  0  0  0  0  0  0  0  0  0
    6.5080   -0.0520   21.4740 C   0  0  1  0  0  0  0  0  0  0  0  0
    9.2230   -2.5490   24.2540 C   0  0  2  0  0  0  0  0  0  0  0  0
    8.4090   -1.5900   22.1730 C   0  0  0  0  0  0  0  0  0  0  0  0
    5.3800   -0.0000   22.5130 C   0  0  0  0  0  0  0  0  0  0  0  0
   10.3990   -2.5280   23.3290 C   0  0  0  0  0  0  0  0  0  0  0  0
    7.5640    0.9800   21.9690 C   0  0  0  0  0  0  0  0  0  0  0  0
    6.0470    0.4890   20.1190 C   0  0  0  0  0  0  0  0  0  0  0  0
    9.0190   -3.7670   25.1900 C   0  0  0  0  0  0  0  0  0  0  0  0
    4.7010    1.3900   22.5620 C   0  0  2  0  0  0  0  0  0  0  0  0
    4.7790    1.3270   19.9980 C   0  0  0  0  0  0  0  0  0  0  0  0
    6.7730    0.2170   19.0770 C   0  0  0  0  0  0  0  0  0  0  0  0
    9.6750   -4.9780   25.2040 C   0  0  0  0  0  0  0  0  0  0  0  0
    7.8240   -3.7700   26.5190 S   0  0  0  0  0  0  0  0  0  0  0  0
   10.9770   -1.1430   23.3820 C   0  0  0  0  0  0  0  0  0  0  0  0
    3.6780    1.5330   23.6870 N   0  0  0  0  0  0  0  0  0  0  0  0
    3.9440    1.6200   21.2030 C   0  0  0  0  0  0  0  0  0  0  0  0
    4.2980    1.9060   18.6750 C   0  0  0  0  0  0  0  0  0  0  0  0
    6.4420    0.6890   17.7820 N   0  0  0  0  0  0  0  0  0  0  0  0
    9.3330   -5.8660   26.1380 C   0  0  0  0  0  0  0  0  0  0  0  0
    8.2590   -5.3190   26.9990 C   0  0  0  0  0  0  0  0  0  0  0  0
   10.3270   -0.1380   24.0400 C   0  0  0  0  0  0  0  0  0  0  0  0
   12.1990   -0.9020   22.7610 C   0  0  0  0  0  0  0  0  0  0  0  0
    7.4570   -6.0120   28.3360 Cl  0  0  0  0  0  0  0  0  0  0  0  0
   13.0040   -1.8970   22.0000 C   0  0  0  0  0  0  0  0  0  0  0  0
    5.3390    1.4270   17.7100 C   0  0  0  0  0  0  0  0  0  0  0  0
   10.8690    1.2790   24.1440 C   0  0  0  0  0  0  0  0  0  0  0  0
   12.8390    0.4420   22.8060 C   0  0  0  0  0  0  0  0  0  0  0  0
   12.2130    1.4760   23.4560 C   0  0  0  0  0  0  0  0  0  0  0  0
  1  2  1  0
  2  3  1  0
  3  4  1  0
  4  5  1  0
  6  5  1  6
  6  7  1  0
  6  8  1  0
  7  8  1  6
  7  9  1  0
  9 10  1  0
  9 11  1  1
 10 12  1  0
 11 13  1  0
 10 14  1  0
 12 15  1  0
 12 16  2  0
 14 17  1  0
 13 18  1  0
 13 19  1  0
 14 19  1  1
 17 20  1  0
 18 21  1  6
 17 22  1  1
 17 23  1  0
 18 24  1  0
 20 25  1  0
 23 26  2  0
 23 27  1  0
 24 28  2  0
 24 29  1  0
 21 30  1  0
 25 31  1  1
 25 32  1  0
 26 32  1  0
 26 33  1  0
 27 34  2  0
 28 35  1  0
 29 36  1  0
 35 36  2  0
 30 37  2  0
 30 38  1  0
 36 39  1  0
 38 40  1  0
 33 41  2  0
 34 41  1  0
 37 42  1  0
 38 43  2  0
 42 44  2  0
 43 44  1  0
M  END
