x1374_1-x0692_1-x1334_0-x1385_1-x0770_1-x1375_1-x1334_1-x0397_0-x0426_1-x1418_1-x0434_2-x1386_1-x0831_0
     RDKit          3D

 44 49  0  0  0  0  0  0  0  0999 V2000
    2.0310   -6.6870   24.5200 O   0  0  0  0  0  0  0  0  0  0  0  0
    2.7390   -7.7220   23.8620 C   0  0  0  0  0  0  0  0  0  0  0  0
    3.9020   -8.0710   24.6150 O   0  0  0  0  0  0  0  0  0  0  0  0
    5.0370   -7.2730   24.3230 C   0  0  0  0  0  0  0  0  0  0  0  0
    4.6090   -6.1440   23.6450 C   0  0  0  0  0  0  0  0  0  0  0  0
    5.7530   -5.5230   22.9120 C   0  0  2  0  0  0  0  0  0  0  0  0
    5.4440   -4.5090   22.1530 C   0  0  2  0  0  0  0  0  0  0  0  0
    6.0910   -5.9600   21.7370 C   0  0  0  0  0  0  0  0  0  0  0  0
    6.2100   -3.2410   22.3020 C   0  0  2  0  0  0  0  0  0  0  0  0
    6.3420   -2.5350   21.0250 N   0  0  0  0  0  0  0  0  0  0  0  0
    7.4560   -3.5500   22.7690 C   0  0  0  0  0  0  0  0  0  0  0  0
    6.2000   -3.2960   19.8690 C   0  0  0  0  0  0  0  0  0  0  0  0
    8.1280   -2.3310   23.2270 N   0  0  0  0  0  0  0  0  0  0  0  0
    7.4500   -1.5820   20.9350 C   0  0  1  0  0  0  0  0  0  0  0  0
    5.3350   -4.1620   19.7270 O   0  0  0  0  0  0  0  0  0  0  0  0
    7.2180   -3.0340   18.7670 C   0  0  0  0  0  0  0  0  0  0  0  0
    9.1400   -2.5190   24.1010 C   0  0  2  0  0  0  0  0  0  0  0  0
    7.3460   -0.3380   21.8130 C   0  0  0  0  0  0  0  0  0  0  0  0
    8.5150   -1.5580   22.0460 C   0  0  0  0  0  0  0  0  0  0  0  0
    5.8990    0.1390   21.8240 C   0  0  1  0  0  0  0  0  0  0  0  0
   10.4440   -2.4370   23.3810 C   0  0  0  0  0  0  0  0  0  0  0  0
    9.0060   -3.6530   25.0900 C   0  0  0  0  0  0  0  0  0  0  0  0
    5.4640    1.1970   22.8750 C   0  0  0  0  0  0  0  0  0  0  0  0
    5.7060    0.5700   20.3660 C   0  0  0  0  0  0  0  0  0  0  0  0
    9.6930   -4.9760   25.1940 C   0  0  0  0  0  0  0  0  0  0  0  0
    7.9130   -3.5540   26.4350 S   0  0  0  0  0  0  0  0  0  0  0  0
   11.0430   -1.0430   23.4090 C   0  0  0  0  0  0  0  0  0  0  0  0
    4.3510    2.1550   22.4120 C   0  0  2  0  0  0  0  0  0  0  0  0
    4.4760    1.3620   20.0810 C   0  0  0  0  0  0  0  0  0  0  0  0
    6.7210    0.2210   19.2200 C   0  0  0  0  0  0  0  0  0  0  0  0
    9.3130   -5.7170   26.2660 C   0  0  0  0  0  0  0  0  0  0  0  0
    8.3330   -5.0900   27.0760 C   0  0  0  0  0  0  0  0  0  0  0  0
   10.3960   -0.0470   24.0620 C   0  0  0  0  0  0  0  0  0  0  0  0
   12.2110   -0.8380   22.7840 C   0  0  0  0  0  0  0  0  0  0  0  0
    3.4590    2.4710   23.5010 N   0  0  0  0  0  0  0  0  0  0  0  0
    3.5550    1.6390   21.2160 C   0  0  0  0  0  0  0  0  0  0  0  0
    7.5440   -5.5760   28.5100 Cl  0  0  0  0  0  0  0  0  0  0  0  0
   12.8840   -1.9490   22.0640 C   0  0  0  0  0  0  0  0  0  0  0  0
    4.3390    1.7520   18.7880 C   0  0  0  0  0  0  0  0  0  0  0  0
    6.5030    0.6440   17.9490 N   0  0  0  0  0  0  0  0  0  0  0  0
   10.9170    1.2870   24.1230 C   0  0  0  0  0  0  0  0  0  0  0  0
   12.8550    0.3660   22.7550 C   0  0  0  0  0  0  0  0  0  0  0  0
    5.3380    1.4060   17.7310 C   0  0  0  0  0  0  0  0  0  0  0  0
   12.2540    1.5480   23.4250 C   0  0  0  0  0  0  0  0  0  0  0  0
  1  2  1  0
  2  3  1  0
  3  4  1  0
  4  5  1  0
  6  5  1  6
  6  7  1  0
  6  8  1  0
  7  8  1  6
  7  9  1  0
  9 10  1  0
  9 11  1  6
 10 12  1  0
 11 13  1  0
 10 14  1  0
 12 15  2  0
 12 16  1  0
 13 17  1  0
 14 18  1  1
 13 19  1  0
 14 19  1  0
 20 18  1  6
 17 21  1  6
 17 22  1  0
 20 23  1  0
 20 24  1  0
 22 25  2  0
 22 26  1  0
 21 27  1  0
 23 28  1  0
 24 29  2  0
 24 30  1  0
 25 31  1  0
 26 32  1  0
 31 32  2  0
 27 33  2  0
 27 34  1  0
 28 35  1  1
 28 36  1  0
 29 36  1  0
 32 37  1  0
 34 38  1  0
 29 39  1  0
 30 40  2  0
 33 41  1  0
 34 42  2  0
 39 43  2  0
 40 43  1  0
 41 44  2  0
 42 44  1  0
M  END
