x1374_1-x1418_1-x0692_1-x0831_1-x0831_0-x1334_1-x0434_2-x0770_1-x1385_1-x0397_0-x1334_0-x1412_1
     RDKit          3D

 39 43  0  0  0  0  0  0  0  0999 V2000
    6.4160   -3.2470   19.8680 C   0  0  0  0  0  0  0  0  0  0  0  0
    7.3820   -3.0350   18.7310 C   0  0  0  0  0  0  0  0  0  0  0  0
    5.4720   -4.0450   19.7240 O   0  0  0  0  0  0  0  0  0  0  0  0
    6.6960   -2.5380   21.0340 N   0  0  0  0  0  0  0  0  0  0  0  0
    6.5190   -3.1690   22.3240 C   0  0  2  0  0  0  0  0  0  0  0  0
    7.7060   -1.4340   20.9310 C   0  0  2  0  0  0  0  0  0  0  0  0
    7.9880   -3.4640   22.7210 C   0  0  0  0  0  0  0  0  0  0  0  0
    8.5600   -1.1810   22.1530 C   0  0  0  0  0  0  0  0  0  0  0  0
    5.7020   -4.4470   22.0670 C   0  0  2  0  0  0  0  0  0  0  0  0
    7.1300   -0.1370   20.6850 C   0  0  0  0  0  0  0  0  0  0  0  0
    8.7340   -2.2410   23.1380 N   0  0  0  0  0  0  0  0  0  0  0  0
    6.1350   -5.2980   23.1420 C   0  0  2  0  0  0  0  0  0  0  0  0
    6.3390   -6.0000   22.0150 C   0  0  0  0  0  0  0  0  0  0  0  0
    6.9330    0.1940   19.2390 C   0  0  0  0  0  0  0  0  0  0  0  0
   10.0560   -2.4060   23.3240 C   0  0  2  0  0  0  0  0  0  0  0  0
    5.9510    0.5470   20.1190 C   0  0  0  0  0  0  0  0  0  0  0  0
    6.3920    0.6660   18.0650 N   0  0  0  0  0  0  0  0  0  0  0  0
    5.1770   -5.8280   24.1670 C   0  0  0  0  0  0  0  0  0  0  0  0
   10.5430   -3.2410   24.4750 C   0  0  0  0  0  0  0  0  0  0  0  0
   10.7340   -1.0310   23.3800 C   0  0  0  0  0  0  0  0  0  0  0  0
    5.2340    1.3110   17.8350 C   0  0  0  0  0  0  0  0  0  0  0  0
    4.7420    1.1900   19.9710 C   0  0  0  0  0  0  0  0  0  0  0  0
    4.7690   -7.0320   23.6880 C   0  0  0  0  0  0  0  0  0  0  0  0
   10.1250    0.1400   23.8930 C   0  0  0  0  0  0  0  0  0  0  0  0
   12.0690   -0.9450   22.8700 C   0  0  0  0  0  0  0  0  0  0  0  0
    9.6520   -4.0610   25.3740 C   0  0  0  0  0  0  0  0  0  0  0  0
    4.3490    1.6120   18.7260 C   0  0  0  0  0  0  0  0  0  0  0  0
    4.1750   -7.7830   24.7490 O   0  0  0  0  0  0  0  0  0  0  0  0
   12.7910   -2.1120   22.2960 C   0  0  0  0  0  0  0  0  0  0  0  0
   10.8250    1.5340   23.9420 C   0  0  0  0  0  0  0  0  0  0  0  0
   12.8770    0.4570   22.8800 C   0  0  0  0  0  0  0  0  0  0  0  0
   10.0490   -5.4620   25.6360 C   0  0  0  0  0  0  0  0  0  0  0  0
    8.1810   -3.6720   26.2440 S   0  0  0  0  0  0  0  0  0  0  0  0
    2.7700   -7.8890   24.6260 C   0  0  0  0  0  0  0  0  0  0  0  0
   12.2620    1.7310   23.4180 C   0  0  0  0  0  0  0  0  0  0  0  0
    9.1420   -6.0990   26.5440 C   0  0  0  0  0  0  0  0  0  0  0  0
    8.0110   -5.2020   27.0050 C   0  0  0  0  0  0  0  0  0  0  0  0
    2.4380   -7.6300   23.2780 O   0  0  0  0  0  0  0  0  0  0  0  0
    6.7500   -5.5820   28.0970 Cl  0  0  0  0  0  0  0  0  0  0  0  0
  1  2  1  0
  1  3  2  0
  1  4  1  0
  4  5  1  0
  4  6  1  0
  5  7  1  6
  6  8  1  0
  5  9  1  0
  6 10  1  1
  7 11  1  0
  8 11  1  0
  9 12  1  0
  9 13  1  6
 12 13  1  0
 10 14  1  0
 11 15  1  0
 14 16  2  0
 14 17  1  0
 12 18  1  1
 15 19  1  1
 15 20  1  0
 17 21  2  0
 16 22  1  0
 18 23  1  0
 20 24  2  0
 20 25  1  0
 19 26  1  0
 21 27  1  0
 22 27  2  0
 23 28  1  0
 25 29  1  0
 24 30  1  0
 25 31  2  0
 26 32  2  0
 26 33  1  0
 28 34  1  0
 30 35  2  0
 31 35  1  0
 32 36  1  0
 33 37  1  0
 36 37  2  0
 34 38  1  0
 37 39  1  0
M  END
