x1374_1-x0397_0-x1412_1-x1385_1-x1334_0-x0770_1-x0831_1-x0831_0
     RDKit          3D

 32 35  0  0  0  0  0  0  0  0999 V2000
    2.1190   -7.1270   23.6030 O   0  0  0  0  0  0  0  0  0  0  0  0
    2.5720   -7.4030   24.9180 C   0  0  0  0  0  0  0  0  0  0  0  0
    3.9350   -7.7890   24.8490 O   0  0  0  0  0  0  0  0  0  0  0  0
    4.5810   -7.1230   23.7710 C   0  0  0  0  0  0  0  0  0  0  0  0
    5.0630   -5.9480   24.2340 C   0  0  0  0  0  0  0  0  0  0  0  0
    5.9930   -5.4230   23.1800 C   0  0  2  0  0  0  0  0  0  0  0  0
    5.5520   -4.7680   22.0710 C   0  0  2  0  0  0  0  0  0  0  0  0
    6.3360   -6.1840   22.0680 C   0  0  0  0  0  0  0  0  0  0  0  0
    6.1640   -3.3510   22.3350 C   0  0  2  0  0  0  0  0  0  0  0  0
    6.3350   -2.5930   21.1090 N   0  0  0  0  0  0  0  0  0  0  0  0
    7.4630   -3.5640   23.1160 C   0  0  0  0  0  0  0  0  0  0  0  0
    6.2840   -3.2870   19.9220 C   0  0  0  0  0  0  0  0  0  0  0  0
    8.1240   -2.3380   23.4390 N   0  0  0  0  0  0  0  0  0  0  0  0
    7.3400   -1.4980   21.1720 C   0  0  0  0  0  0  0  0  0  0  0  0
    7.3250   -3.0330   18.8550 C   0  0  0  0  0  0  0  0  0  0  0  0
    5.4120   -4.1380   19.7300 O   0  0  0  0  0  0  0  0  0  0  0  0
    9.1670   -2.5390   24.2630 C   0  0  2  0  0  0  0  0  0  0  0  0
    8.5130   -1.7740   22.1500 C   0  0  0  0  0  0  0  0  0  0  0  0
   10.4350   -2.5390   23.3320 C   0  0  0  0  0  0  0  0  0  0  0  0
    9.0110   -3.7570   25.1870 C   0  0  0  0  0  0  0  0  0  0  0  0
    9.8150   -5.0720   25.1310 C   0  0  0  0  0  0  0  0  0  0  0  0
    7.8410   -3.7720   26.4930 S   0  0  0  0  0  0  0  0  0  0  0  0
   11.0070   -1.1250   23.3750 C   0  0  0  0  0  0  0  0  0  0  0  0
    9.3580   -6.0280   26.2610 C   0  0  0  0  0  0  0  0  0  0  0  0
    8.1770   -5.3280   27.1220 C   0  0  0  0  0  0  0  0  0  0  0  0
   10.3330   -0.1600   24.0270 C   0  0  0  0  0  0  0  0  0  0  0  0
   12.3100   -0.8650   22.6980 C   0  0  0  0  0  0  0  0  0  0  0  0
    7.3110   -5.9250   28.4670 Cl  0  0  0  0  0  0  0  0  0  0  0  0
   13.0490   -1.9170   21.9640 C   0  0  0  0  0  0  0  0  0  0  0  0
   10.6630    1.3310   24.2470 C   0  0  0  0  0  0  0  0  0  0  0  0
   12.7720    0.3330   22.7800 C   0  0  0  0  0  0  0  0  0  0  0  0
   11.9950    1.4330   23.5260 C   0  0  0  0  0  0  0  0  0  0  0  0
  1  2  1  0
  2  3  1  0
  3  4  1  0
  4  5  1  0
  6  5  1  1
  6  7  1  0
  6  8  1  0
  7  8  1  6
  7  9  1  0
  9 10  1  0
  9 11  1  6
 10 12  1  0
 11 13  1  0
 10 14  1  0
 12 15  1  0
 12 16  2  0
 13 17  1  0
 13 18  1  0
 14 18  1  0
 17 19  1  6
 17 20  1  0
 20 21  2  0
 20 22  1  0
 19 23  1  0
 21 24  1  0
 22 25  1  0
 24 25  2  0
 23 26  2  0
 23 27  1  0
 25 28  1  0
 27 29  1  0
 26 30  1  0
 27 31  2  0
 30 32  2  0
 31 32  1  0
M  END
