x1374_1-x0692_1
     RDKit          3D

 17 18  0  0  0  0  0  0  0  0999 V2000
    6.2940   -3.2840   19.9000 C   0  0  0  0  0  0  0  0  0  0  0  0
    7.2870   -3.0180   18.7920 C   0  0  0  0  0  0  0  0  0  0  0  0
    5.3480   -4.0540   19.7060 O   0  0  0  0  0  0  0  0  0  0  0  0
    6.5470   -2.6500   21.1210 N   0  0  0  0  0  0  0  0  0  0  0  0
    7.1510   -1.3020   21.1050 C   0  0  0  0  0  0  0  0  0  0  0  0
    7.2540   -3.4790   22.1040 C   0  0  2  0  0  0  0  0  0  0  0  0
    6.7850   -4.9280   22.3050 C   0  0  0  0  0  0  0  0  0  0  0  0
    8.5430   -1.3160   21.8310 C   0  0  0  0  0  0  0  0  0  0  0  0
    7.4640   -2.7710   23.4310 C   0  0  0  0  0  0  0  0  0  0  0  0
    8.4500   -1.6910   23.2550 N   0  0  0  0  0  0  0  0  0  0  0  0
    5.3480   -5.1800   22.6020 C   0  0  2  0  0  0  0  0  0  0  0  0
    4.6230   -4.4360   23.7240 C   0  0  0  0  0  0  0  0  0  0  0  0
    4.9850   -6.5070   22.7500 C   0  0  0  0  0  0  0  0  0  0  0  0
    3.7160   -5.2930   24.5160 C   0  0  0  0  0  0  0  0  0  0  0  0
    3.7730   -6.8770   23.9290 S   0  0  0  0  0  0  0  0  0  0  0  0
    2.6490   -7.2910   23.1370 O   0  0  0  0  0  0  0  0  0  0  0  0
    4.3090   -7.7960   24.8940 O   0  0  0  0  0  0  0  0  0  0  0  0
  1  2  1  0
  1  3  2  0
  1  4  1  0
  4  5  1  0
  4  6  1  0
  6  7  1  1
  5  8  1  0
  6  9  1  0
  8 10  1  0
  9 10  1  0
 11  7  1  1
 11 12  1  0
 11 13  1  0
 12 14  2  0
 13 15  1  0
 14 15  1  0
 15 16  1  0
 15 17  1  0
M  END
