x1374_1-x1334_0-x0831_1-x0831_0-x0770_1-x1418_1-x1385_1-x0426_1-x0397_0-x1386_1-x0692_1-x1334_1
     RDKit          3D

 44 49  0  0  0  0  0  0  0  0999 V2000
    1.9200   -7.6470   23.6460 O   0  0  0  0  0  0  0  0  0  0  0  0
    3.1920   -7.0590   23.6330 C   0  0  0  0  0  0  0  0  0  0  0  0
    4.0580   -7.7790   24.5010 O   0  0  0  0  0  0  0  0  0  0  0  0
    5.4100   -7.4460   24.2110 C   0  0  0  0  0  0  0  0  0  0  0  0
    5.5400   -6.0890   24.3590 C   0  0  0  0  0  0  0  0  0  0  0  0
    6.2090   -5.5380   23.1480 C   0  0  2  0  0  0  0  0  0  0  0  0
    5.5050   -4.5210   22.3740 C   0  0  2  0  0  0  0  0  0  0  0  0
    6.0660   -6.0740   21.9490 C   0  0  0  0  0  0  0  0  0  0  0  0
    6.2770   -3.2650   22.2600 C   0  0  2  0  0  0  0  0  0  0  0  0
    6.7400   -2.8970   20.9840 N   0  0  0  0  0  0  0  0  0  0  0  0
    7.4790   -3.4070   23.0950 C   0  0  0  0  0  0  0  0  0  0  0  0
    6.4370   -3.5380   19.8700 C   0  0  0  0  0  0  0  0  0  0  0  0
    8.0040   -2.1220   23.4720 N   0  0  0  0  0  0  0  0  0  0  0  0
    6.4350   -1.6470   20.7500 C   0  0  0  0  0  0  0  0  0  0  0  0
    5.5160   -4.3570   19.7970 O   0  0  0  0  0  0  0  0  0  0  0  0
    7.3440   -3.1460   18.7380 C   0  0  0  0  0  0  0  0  0  0  0  0
    9.1640   -2.4000   24.2730 C   0  0  2  0  0  0  0  0  0  0  0  0
    8.4070   -1.2520   22.3480 C   0  0  0  0  0  0  0  0  0  0  0  0
    7.3410   -0.5990   21.4140 C   0  0  2  0  0  0  0  0  0  0  0  0
    6.1030    0.3100   21.7960 C   0  0  1  0  0  0  0  0  0  0  0  0
   10.4590   -2.4330   23.4880 C   0  0  0  0  0  0  0  0  0  0  0  0
    9.0210   -3.5200   25.1930 C   0  0  0  0  0  0  0  0  0  0  0  0
    6.1470    1.5500   22.6690 C   0  0  0  0  0  0  0  0  0  0  0  0
    5.7640    0.7670   20.3830 C   0  0  0  0  0  0  0  0  0  0  0  0
    9.8280   -4.7820   25.2840 C   0  0  0  0  0  0  0  0  0  0  0  0
    7.8140   -3.5280   26.4090 S   0  0  0  0  0  0  0  0  0  0  0  0
   11.0940   -1.0570   23.4330 C   0  0  0  0  0  0  0  0  0  0  0  0
    4.7380    2.2540   22.6650 C   0  0  2  0  0  0  0  0  0  0  0  0
    4.7580    1.6820   20.1770 C   0  0  0  0  0  0  0  0  0  0  0  0
    6.4990    0.2730   19.1260 C   0  0  0  0  0  0  0  0  0  0  0  0
    9.3880   -5.5590   26.3320 C   0  0  0  0  0  0  0  0  0  0  0  0
    8.3140   -5.0100   27.0540 C   0  0  0  0  0  0  0  0  0  0  0  0
   10.3310    0.1460   23.9750 C   0  0  0  0  0  0  0  0  0  0  0  0
   12.3590   -0.8760   22.8940 C   0  0  0  0  0  0  0  0  0  0  0  0
    3.9330    1.7510   23.7600 N   0  0  0  0  0  0  0  0  0  0  0  0
    3.9790    2.2350   21.3200 C   0  0  0  0  0  0  0  0  0  0  0  0
    7.4630   -5.5660   28.4320 Cl  0  0  0  0  0  0  0  0  0  0  0  0
   13.1310   -2.0110   22.3350 C   0  0  0  0  0  0  0  0  0  0  0  0
    4.5000    2.0900   18.7630 C   0  0  0  0  0  0  0  0  0  0  0  0
    6.3020    0.6060   17.8580 N   0  0  0  0  0  0  0  0  0  0  0  0
   10.8690    1.4460   23.9610 C   0  0  0  0  0  0  0  0  0  0  0  0
   12.9250    0.4780   22.8800 C   0  0  0  0  0  0  0  0  0  0  0  0
    5.2150    1.5970   17.6850 C   0  0  0  0  0  0  0  0  0  0  0  0
   12.2620    1.5720   23.3660 C   0  0  0  0  0  0  0  0  0  0  0  0
  1  2  1  0
  2  3  1  0
  3  4  1  0
  4  5  1  0
  6  5  1  1
  6  7  1  0
  6  8  1  0
  7  8  1  6
  7  9  1  0
  9 10  1  0
  9 11  1  1
 10 12  1  0
 11 13  1  0
 10 14  1  0
 12 15  2  0
 12 16  1  0
 13 17  1  0
 13 18  1  0
 19 14  1  1
 18 19  1  0
 19 20  1  0
 17 21  1  6
 17 22  1  0
 20 23  1  1
 20 24  1  0
 22 25  2  0
 22 26  1  0
 21 27  1  0
 23 28  1  0
 24 29  2  0
 24 30  1  0
 25 31  1  0
 26 32  1  0
 31 32  2  0
 27 33  2  0
 27 34  1  0
 28 35  1  1
 28 36  1  0
 29 36  1  0
 32 37  1  0
 34 38  1  0
 29 39  1  0
 30 40  2  0
 33 41  1  0
 34 42  2  0
 39 43  2  0
 40 43  1  0
 41 44  2  0
 42 44  1  0
M  END
