x1375_1-x0692_1-x0770_1-x0434_2-x1418_1-x0540_3-x0831_0-x1374_1-x1334_0-x1385_1-x1334_1-x0397_0-x1412_1
     RDKit          3D

 43 47  0  0  0  0  0  0  0  0999 V2000
    2.4690   -7.5860   23.2500 O   0  0  0  0  0  0  0  0  0  0  0  0
    3.0190   -7.5540   24.5390 C   0  0  0  0  0  0  0  0  0  0  0  0
    4.4250   -7.5950   24.4650 O   0  0  0  0  0  0  0  0  0  0  0  0
    4.9520   -6.2710   24.6940 C   0  0  0  0  0  0  0  0  0  0  0  0
    5.9460   -5.7260   23.6750 C   0  0  2  0  0  0  0  0  0  0  0  0
    5.6350   -4.7790   22.6080 C   0  0  2  0  0  0  0  0  0  0  0  0
    6.1860   -6.1610   22.3140 C   0  0  0  0  0  0  0  0  0  0  0  0
    6.3450   -3.3870   22.5470 C   0  0  2  0  0  0  0  0  0  0  0  0
    6.2520   -2.7200   21.2450 N   0  0  0  0  0  0  0  0  0  0  0  0
    7.6940   -3.3670   23.0610 C   0  0  0  0  0  0  0  0  0  0  0  0
    6.1770   -3.3170   19.9700 C   0  0  0  0  0  0  0  0  0  0  0  0
    8.2570   -1.9940   23.2450 N   0  0  0  0  0  0  0  0  0  0  0  0
    6.8260   -1.3680   21.3420 C   0  0  1  0  0  0  0  0  0  0  0  0
    5.3070   -4.1700   19.7420 O   0  0  0  0  0  0  0  0  0  0  0  0
    7.1740   -2.9700   18.8780 C   0  0  0  0  0  0  0  0  0  0  0  0
    6.0170   -0.4650   22.3760 C   0  0  0  0  0  0  0  0  0  0  0  0
    9.5320   -1.9820   24.0150 C   0  0  1  0  0  0  0  0  0  0  0  0
    8.2780   -1.3860   21.9060 C   0  0  0  0  0  0  0  0  0  0  0  0
    5.0970    0.5670   21.7100 C   0  0  1  0  0  0  0  0  0  0  0  0
   10.1310   -3.3290   24.1070 C   0  0  0  0  0  0  0  0  0  0  0  0
   10.5860   -0.8850   23.6980 C   0  0  0  0  0  0  0  0  0  0  0  0
    5.2770    1.8490   22.5080 C   0  0  0  0  0  0  0  0  0  0  0  0
   10.2320    0.4870   24.2170 C   0  0  0  0  0  0  0  0  0  0  0  0
   11.8460   -0.9740   22.9930 C   0  0  0  0  0  0  0  0  0  0  0  0
    9.5520   -4.2130   25.1680 C   0  0  0  0  0  0  0  0  0  0  0  0
    5.4520    0.7030   20.2650 C   0  0  0  0  0  0  0  0  0  0  0  0
    4.0420    2.6430   22.5830 N   0  0  0  0  0  0  0  0  0  0  0  0
   12.4570   -2.1880   22.3650 C   0  0  0  0  0  0  0  0  0  0  0  0
   10.9780    1.5690   24.0660 C   0  0  0  0  0  0  0  0  0  0  0  0
   12.5630    0.1570   22.8770 C   0  0  0  0  0  0  0  0  0  0  0  0
    9.9250   -5.4970   25.4530 C   0  0  0  0  0  0  0  0  0  0  0  0
    8.2760   -3.7280   26.2330 S   0  0  0  0  0  0  0  0  0  0  0  0
    6.7070    0.0470   19.7960 C   0  0  0  0  0  0  0  0  0  0  0  0
    4.6910    1.3980   19.3290 C   0  0  0  0  0  0  0  0  0  0  0  0
    2.8980    2.1790   23.4390 C   0  0  0  0  0  0  0  0  0  0  0  0
   12.1680    1.5250   23.4130 C   0  0  0  0  0  0  0  0  0  0  0  0
    9.2550   -6.1080   26.4830 C   0  0  0  0  0  0  0  0  0  0  0  0
    8.2990   -5.3290   27.0730 C   0  0  0  0  0  0  0  0  0  0  0  0
    7.0230    0.1630   18.4870 C   0  0  0  0  0  0  0  0  0  0  0  0
    5.1480    1.4360   18.0220 C   0  0  0  0  0  0  0  0  0  0  0  0
    2.9830    1.4660   24.4320 O   0  0  0  0  0  0  0  0  0  0  0  0
    7.2530   -5.7030   28.3730 Cl  0  0  0  0  0  0  0  0  0  0  0  0
    6.2810    0.8360   17.5940 N   0  0  0  0  0  0  0  0  0  0  0  0
  1  2  1  0
  2  3  1  0
  3  4  1  0
  5  4  1  6
  5  6  1  0
  5  7  1  0
  6  7  1  6
  6  8  1  0
  8  9  1  0
  8 10  1  6
  9 11  1  0
 10 12  1  0
  9 13  1  0
 11 14  2  0
 11 15  1  0
 13 16  1  1
 12 17  1  0
 12 18  1  0
 13 18  1  0
 19 16  1  1
 17 20  1  6
 17 21  1  0
 19 22  1  0
 21 23  2  0
 21 24  1  0
 20 25  1  0
 19 26  1  0
 22 27  1  0
 24 28  1  0
 23 29  1  0
 24 30  2  0
 25 31  2  0
 25 32  1  0
 26 33  2  0
 26 34  1  0
 27 35  1  0
 29 36  2  0
 30 36  1  0
 31 37  1  0
 32 38  1  0
 37 38  2  0
 33 39  1  0
 34 40  2  0
 35 41  2  0
 38 42  1  0
 39 43  2  0
 40 43  1  0
M  END
