x1374_2-x0691_0
     RDKit          3D

  9  9  0  0  0  0  0  0  0  0999 V2000
    6.4860   -4.5820   20.7390 C   0  0  0  0  0  0  0  0  0  0  0  0
    7.6890   -3.6890   20.4600 C   0  0  0  0  0  0  0  0  0  0  0  0
    5.5070   -4.6400   19.9750 O   0  0  0  0  0  0  0  0  0  0  0  0
    6.5790   -5.3370   21.9030 N   0  0  0  0  0  0  0  0  0  0  0  0
    5.6040   -6.4190   22.1320 C   0  0  0  0  0  0  0  0  0  0  0  0
    7.2960   -4.9190   23.1080 C   0  0  0  0  0  0  0  0  0  0  0  0
    4.5990   -5.9400   23.2210 C   0  0  0  0  0  0  0  0  0  0  0  0
    6.2560   -4.4020   24.0890 C   0  0  0  0  0  0  0  0  0  0  0  0
    5.2750   -5.4510   24.4400 N   0  0  0  0  0  0  0  0  0  0  0  0
  1  2  1  0
  1  3  2  0
  1  4  1  0
  4  5  1  0
  4  6  1  0
  5  7  1  0
  6  8  1  0
  7  9  1  0
  8  9  1  0
M  END
