x1374_1-x1386_1-x0770_1-x0831_0-x1412_1-x1334_0-x1334_1-x0397_0-x0426_1-x0434_2-x1418_1-x0692_1-x1385_1
     RDKit          3D

 45 50  0  0  0  0  0  0  0  0999 V2000
    2.1890   -6.6670   24.4020 O   0  0  0  0  0  0  0  0  0  0  0  0
    3.1500   -7.4170   23.7020 C   0  0  0  0  0  0  0  0  0  0  0  0
    4.2340   -7.7880   24.5530 O   0  0  0  0  0  0  0  0  0  0  0  0
    5.4770   -7.4270   23.9310 C   0  0  0  0  0  0  0  0  0  0  0  0
    5.9880   -6.1960   24.5540 C   0  0  0  0  0  0  0  0  0  0  0  0
    6.3120   -5.2810   23.4290 C   0  0  2  0  0  0  0  0  0  0  0  0
    5.4580   -4.9740   22.3320 C   0  0  2  0  0  0  0  0  0  0  0  0
    6.7930   -5.7870   22.0080 C   0  0  0  0  0  0  0  0  0  0  0  0
    5.2330   -3.5510   22.3820 C   0  0  0  0  0  0  0  0  0  0  0  0
    6.3880   -2.6290   22.2430 C   0  0  2  0  0  0  0  0  0  0  0  0
    6.8630   -2.4330   20.9790 N   0  0  0  0  0  0  0  0  0  0  0  0
    7.5870   -3.0120   23.0820 C   0  0  0  0  0  0  0  0  0  0  0  0
    6.5380   -3.1480   19.8010 C   0  0  0  0  0  0  0  0  0  0  0  0
    8.6450   -1.9920   22.9630 N   0  0  0  0  0  0  0  0  0  0  0  0
    7.7750   -1.3870   20.9010 C   0  0  2  0  0  0  0  0  0  0  0  0
    7.4850   -2.9660   18.6350 C   0  0  0  0  0  0  0  0  0  0  0  0
    5.5680   -3.9270   19.6810 O   0  0  0  0  0  0  0  0  0  0  0  0
    9.6340   -2.1030   23.8460 C   0  0  1  0  0  0  0  0  0  0  0  0
    9.0560   -1.8080   21.5860 C   0  0  0  0  0  0  0  0  0  0  0  0
    7.1550   -0.2020   21.6450 C   0  0  0  0  0  0  0  0  0  0  0  0
   10.1830   -3.4540   23.8800 C   0  0  0  0  0  0  0  0  0  0  0  0
   10.5730   -0.8960   23.6600 C   0  0  0  0  0  0  0  0  0  0  0  0
    5.6310   -0.1760   21.4340 C   0  0  1  0  0  0  0  0  0  0  0  0
   10.1420    0.5810   24.0880 C   0  0  0  0  0  0  0  0  0  0  0  0
   12.0200   -0.9290   23.0390 C   0  0  0  0  0  0  0  0  0  0  0  0
    9.6110   -4.1270   25.1030 C   0  0  0  0  0  0  0  0  0  0  0  0
    4.8510    0.5070   22.6170 C   0  0  0  0  0  0  0  0  0  0  0  0
    5.4650    0.4580   20.1010 C   0  0  0  0  0  0  0  0  0  0  0  0
   12.7660   -2.2200   22.4870 C   0  0  0  0  0  0  0  0  0  0  0  0
   11.0270    1.8270   23.9220 C   0  0  0  0  0  0  0  0  0  0  0  0
   12.8230    0.3920   22.9240 C   0  0  0  0  0  0  0  0  0  0  0  0
   10.2210   -5.2680   25.8320 C   0  0  0  0  0  0  0  0  0  0  0  0
    8.1020   -3.7020   25.9270 S   0  0  0  0  0  0  0  0  0  0  0  0
    4.2730    1.8670   22.1960 C   0  0  2  0  0  0  0  0  0  0  0  0
    4.4850    1.3880   19.8820 C   0  0  0  0  0  0  0  0  0  0  0  0
    6.3740    0.1130   18.9470 C   0  0  0  0  0  0  0  0  0  0  0  0
   12.2360    1.7460   23.3990 C   0  0  0  0  0  0  0  0  0  0  0  0
    9.4040   -5.6510   26.9640 C   0  0  0  0  0  0  0  0  0  0  0  0
    8.1610   -4.8830   27.1790 C   0  0  0  0  0  0  0  0  0  0  0  0
    3.4080    2.4110   23.2490 N   0  0  0  0  0  0  0  0  0  0  0  0
    3.5670    1.7490   21.0050 C   0  0  0  0  0  0  0  0  0  0  0  0
    4.3420    1.9880   18.6540 C   0  0  0  0  0  0  0  0  0  0  0  0
    6.2510    0.6800   17.7560 N   0  0  0  0  0  0  0  0  0  0  0  0
    6.9910   -5.0900   28.4070 Cl  0  0  0  0  0  0  0  0  0  0  0  0
    5.2650    1.5840   17.6420 C   0  0  0  0  0  0  0  0  0  0  0  0
  1  2  1  0
  2  3  1  0
  3  4  1  0
  4  5  1  0
  6  5  1  1
  6  7  1  0
  6  8  1  0
  7  8  1  0
  7  9  1  6
 10  9  1  6
 10 11  1  0
 10 12  1  0
 11 13  1  0
 12 14  1  0
 11 15  1  0
 13 16  1  0
 13 17  2  0
 14 18  1  0
 14 19  1  0
 15 19  1  0
 15 20  1  1
 18 21  1  6
 18 22  1  0
 23 20  1  1
 22 24  2  0
 22 25  1  0
 21 26  1  0
 23 27  1  0
 23 28  1  0
 25 29  1  0
 24 30  1  0
 25 31  2  0
 26 32  2  0
 26 33  1  0
 27 34  1  0
 28 35  2  0
 28 36  1  0
 30 37  2  0
 31 37  1  0
 32 38  1  0
 33 39  1  0
 38 39  2  0
 34 40  1  1
 34 41  1  0
 35 41  1  0
 35 42  1  0
 36 43  2  0
 39 44  1  0
 42 45  2  0
 43 45  1  0
M  END
