x1385_1-x1334_1-x0874_0-x0434_2-x1412_0
     RDKit          3D

 31 34  0  0  0  0  0  0  0  0999 V2000
    6.3360   -3.3270   19.9530 C   0  0  0  0  0  0  0  0  0  0  0  0
    7.3000   -2.9850   18.7990 C   0  0  0  0  0  0  0  0  0  0  0  0
    5.4200   -4.1220   19.7120 O   0  0  0  0  0  0  0  0  0  0  0  0
    6.4480   -2.7990   21.2650 N   0  0  0  0  0  0  0  0  0  0  0  0
    6.1930   -3.6940   22.3860 C   0  0  0  0  0  0  0  0  0  0  0  0
    7.4160   -1.7330   21.6730 C   0  0  1  0  0  0  0  0  0  0  0  0
    7.5050   -4.2920   22.9180 C   0  0  0  0  0  0  0  0  0  0  0  0
    8.7260   -2.3150   22.1300 C   0  0  0  0  0  0  0  0  0  0  0  0
    7.6260   -0.6070   20.6390 C   0  0  0  0  0  0  0  0  0  0  0  0
    8.4180   -3.2020   23.2780 N   0  0  0  0  0  0  0  0  0  0  0  0
    7.3120   -1.0450   19.3440 C   0  0  0  0  0  0  0  0  0  0  0  0
    8.5180   -2.8220   24.6180 C   0  0  0  0  0  0  0  0  0  0  0  0
    6.8390    0.0090   18.4470 C   0  0  0  0  0  0  0  0  0  0  0  0
    8.5750   -1.5840   24.9780 N   0  0  0  0  0  0  0  0  0  0  0  0
    8.5690   -3.8870   25.6760 C   0  0  0  0  0  0  0  0  0  0  0  0
    5.8750   -0.0870   19.6240 C   0  0  0  0  0  0  0  0  0  0  0  0
    6.1290    1.0760   17.7810 N   0  0  0  0  0  0  0  0  0  0  0  0
    8.5430   -0.6360   23.9910 C   0  0  0  0  0  0  0  0  0  0  0  0
    9.3620   -4.9970   25.5350 C   0  0  0  0  0  0  0  0  0  0  0  0
    7.7090   -3.9330   27.1730 S   0  0  0  0  0  0  0  0  0  0  0  0
    4.9150    1.8860   18.0000 C   0  0  0  0  0  0  0  0  0  0  0  0
    4.5590    0.7140   19.9790 C   0  0  0  0  0  0  0  0  0  0  0  0
    9.7380    0.3070   23.9920 C   0  0  0  0  0  0  0  0  0  0  0  0
    9.2960   -5.9050   26.6120 C   0  0  0  0  0  0  0  0  0  0  0  0
    8.4300   -5.4470   27.5770 C   0  0  0  0  0  0  0  0  0  0  0  0
    4.1800    1.6600   19.1090 C   0  0  0  0  0  0  0  0  0  0  0  0
   11.0060   -0.1440   23.3000 C   0  0  0  0  0  0  0  0  0  0  0  0
   12.2470    0.6820   23.3070 C   0  0  0  0  0  0  0  0  0  0  0  0
   11.3040   -1.3050   22.5690 C   0  0  0  0  0  0  0  0  0  0  0  0
   13.3180    0.1830   22.6630 C   0  0  0  0  0  0  0  0  0  0  0  0
   12.9380   -1.3430   21.9870 S   0  0  0  0  0  0  0  0  0  0  0  0
  1  2  1  0
  1  3  2  0
  1  4  1  0
  4  5  1  0
  4  6  1  0
  5  7  1  0
  6  8  1  0
  6  9  1  6
  7 10  1  0
  8 10  1  0
  9 11  1  0
 10 12  1  0
 11 13  1  0
 12 14  2  3
 12 15  1  0
 13 16  2  0
 13 17  1  0
 14 18  1  0
 15 19  2  0
 15 20  1  0
 17 21  2  0
 16 22  1  0
 18 23  1  0
 19 24  1  0
 20 25  1  0
 24 25  2  0
 21 26  1  0
 22 26  2  0
 23 27  1  0
 27 28  1  0
 27 29  2  0
 28 30  2  0
 29 31  1  0
 30 31  1  0
M  END
