x1385_1-x0434_2-x1412_1-x0770_1-x1412_0
     RDKit          3D

 24 26  0  0  0  0  0  0  0  0999 V2000
    6.3500   -3.2670   19.9490 C   0  0  0  0  0  0  0  0  0  0  0  0
    7.3640   -2.9770   18.8390 C   0  0  0  0  0  0  0  0  0  0  0  0
    5.4090   -4.0380   19.6970 O   0  0  0  0  0  0  0  0  0  0  0  0
    6.4700   -2.7200   21.2500 N   0  0  0  0  0  0  0  0  0  0  0  0
    6.2550   -3.7130   22.2920 C   0  0  0  0  0  0  0  0  0  0  0  0
    7.3030   -1.5580   21.6960 C   0  0  1  0  0  0  0  0  0  0  0  0
    7.6040   -4.1750   22.8920 C   0  0  0  0  0  0  0  0  0  0  0  0
    8.6380   -1.9970   22.3410 C   0  0  0  0  0  0  0  0  0  0  0  0
    7.5180   -0.5650   20.6020 C   0  0  0  0  0  0  0  0  0  0  0  0
    8.4120   -3.0690   23.3270 N   0  0  0  0  0  0  0  0  0  0  0  0
    7.1800   -0.9890   19.3340 C   0  0  0  0  0  0  0  0  0  0  0  0
    8.5360   -2.8310   24.6580 C   0  0  0  0  0  0  0  0  0  0  0  0
    6.8430   -0.0240   18.4410 C   0  0  0  0  0  0  0  0  0  0  0  0
    8.5460   -1.6580   25.0540 O   0  0  0  0  0  0  0  0  0  0  0  0
    8.6320   -3.8060   25.5530 C   0  0  0  0  0  0  0  0  0  0  0  0
    5.9680   -0.1900   19.5710 C   0  0  0  0  0  0  0  0  0  0  0  0
    6.1950    1.0600   17.7070 N   0  0  0  0  0  0  0  0  0  0  0  0
    9.4560   -5.0660   25.4170 C   0  0  0  0  0  0  0  0  0  0  0  0
    7.7840   -3.8550   27.1440 S   0  0  0  0  0  0  0  0  0  0  0  0
    4.9930    1.7700   18.0310 C   0  0  0  0  0  0  0  0  0  0  0  0
    4.7940    0.4740   19.9370 C   0  0  0  0  0  0  0  0  0  0  0  0
    9.3040   -5.9470   26.6440 C   0  0  0  0  0  0  0  0  0  0  0  0
    8.4350   -5.3970   27.6330 C   0  0  0  0  0  0  0  0  0  0  0  0
    4.2460    1.5000   19.1680 C   0  0  0  0  0  0  0  0  0  0  0  0
  1  2  1  0
  1  3  2  0
  1  4  1  0
  4  5  1  0
  4  6  1  0
  5  7  1  0
  6  8  1  0
  6  9  1  6
  7 10  1  0
  8 10  1  0
  9 11  1  0
 10 12  1  0
 11 13  1  0
 12 14  2  0
 12 15  1  0
 13 16  2  0
 13 17  1  0
 15 18  2  0
 15 19  1  0
 17 20  2  0
 16 21  1  0
 18 22  1  0
 19 23  1  0
 22 23  2  0
 20 24  1  0
 21 24  2  0
M  END
