x1386_1-x0434_2-x1412_1-x1385_1-x0397_0-x0831_0-x0426_1-x0692_1-x1334_1-x0770_1-x1374_1-x0831_1-x1418_1-x1334_0-x1375_1
     RDKit          3D

 45 50  0  0  0  0  0  0  0  0999 V2000
    2.7410   -7.4910   23.3920 O   0  0  0  0  0  0  0  0  0  0  0  0
    3.4550   -7.0400   24.5250 C   0  0  0  0  0  0  0  0  0  0  0  0
    4.5960   -7.8550   24.7130 O   0  0  0  0  0  0  0  0  0  0  0  0
    5.6730   -7.4900   23.8400 C   0  0  0  0  0  0  0  0  0  0  0  0
    6.3730   -6.3850   24.3540 C   0  0  0  0  0  0  0  0  0  0  0  0
    6.4680   -5.3600   23.2740 C   0  0  2  0  0  0  0  0  0  0  0  0
    5.3870   -4.9610   22.6000 C   0  0  2  0  0  0  0  0  0  0  0  0
    6.6390   -5.8260   22.0410 C   0  0  0  0  0  0  0  0  0  0  0  0
    5.1080   -3.5170   22.3290 C   0  0  0  0  0  0  0  0  0  0  0  0
    6.2320   -2.5450   22.2130 C   0  0  2  0  0  0  0  0  0  0  0  0
    6.7040   -2.1990   20.8750 N   0  0  0  0  0  0  0  0  0  0  0  0
    7.4830   -2.9250   23.0580 C   0  0  0  0  0  0  0  0  0  0  0  0
    6.5020   -3.0670   19.7900 C   0  0  0  0  0  0  0  0  0  0  0  0
    8.5240   -1.8900   23.0110 N   0  0  0  0  0  0  0  0  0  0  0  0
    7.8470   -1.2720   20.8890 C   0  0  2  0  0  0  0  0  0  0  0  0
    7.4600   -2.9610   18.6320 C   0  0  0  0  0  0  0  0  0  0  0  0
    5.6040   -3.9400   19.7000 O   0  0  0  0  0  0  0  0  0  0  0  0
    9.5990   -2.0530   23.9180 C   0  0  1  0  0  0  0  0  0  0  0  0
    9.0240   -1.8000   21.6430 C   0  0  0  0  0  0  0  0  0  0  0  0
    7.5240    0.0430   21.5910 C   0  0  0  0  0  0  0  0  0  0  0  0
   10.0710   -3.4260   23.7120 C   0  0  0  0  0  0  0  0  0  0  0  0
   10.6170   -0.9100   23.6490 C   0  0  0  0  0  0  0  0  0  0  0  0
    6.0300    0.3240   21.5330 C   0  0  1  0  0  0  0  0  0  0  0  0
   10.2000    0.2360   24.2310 C   0  0  0  0  0  0  0  0  0  0  0  0
   11.8980   -0.9220   22.8810 C   0  0  0  0  0  0  0  0  0  0  0  0
    9.5370   -4.1740   24.8980 C   0  0  0  0  0  0  0  0  0  0  0  0
    5.6230    1.4610   22.4540 C   0  0  0  0  0  0  0  0  0  0  0  0
    5.7210    0.7330   20.1720 C   0  0  0  0  0  0  0  0  0  0  0  0
   12.4390   -2.1310   22.1870 C   0  0  0  0  0  0  0  0  0  0  0  0
   10.9740    1.5030   24.1360 C   0  0  0  0  0  0  0  0  0  0  0  0
   12.6520    0.1950   22.7720 C   0  0  0  0  0  0  0  0  0  0  0  0
    9.9810   -5.3710   25.3710 C   0  0  0  0  0  0  0  0  0  0  0  0
    8.2290   -3.6660   25.9620 S   0  0  0  0  0  0  0  0  0  0  0  0
    4.1370    1.6570   22.2340 C   0  0  1  0  0  0  0  0  0  0  0  0
    4.6220    1.6690   19.9830 C   0  0  0  0  0  0  0  0  0  0  0  0
    6.4370    0.2840   19.0670 C   0  0  0  0  0  0  0  0  0  0  0  0
   12.2490    1.4230   23.3680 C   0  0  0  0  0  0  0  0  0  0  0  0
    9.3920   -5.8500   26.4780 C   0  0  0  0  0  0  0  0  0  0  0  0
    8.3840   -5.0490   26.9710 C   0  0  0  0  0  0  0  0  0  0  0  0
    3.6610    2.3660   23.2900 N   0  0  0  0  0  0  0  0  0  0  0  0
    3.8730    2.1550   20.9880 C   0  0  0  0  0  0  0  0  0  0  0  0
    4.3910    2.0540   18.6740 C   0  0  0  0  0  0  0  0  0  0  0  0
    6.1960    0.6670   17.8030 N   0  0  0  0  0  0  0  0  0  0  0  0
    7.3890   -5.2820   28.3470 Cl  0  0  0  0  0  0  0  0  0  0  0  0
    5.1830    1.5450   17.6600 C   0  0  0  0  0  0  0  0  0  0  0  0
  1  2  1  0
  2  3  1  0
  3  4  1  0
  4  5  1  0
  6  5  1  1
  6  7  1  0
  6  8  1  0
  7  8  1  0
  7  9  1  6
 10  9  1  6
 10 11  1  0
 10 12  1  0
 11 13  1  0
 12 14  1  0
 11 15  1  0
 13 16  1  0
 13 17  2  0
 14 18  1  0
 14 19  1  0
 15 19  1  0
 15 20  1  1
 18 21  1  6
 18 22  1  0
 23 20  1  6
 22 24  2  0
 22 25  1  0
 21 26  1  0
 23 27  1  0
 23 28  1  0
 25 29  1  0
 24 30  1  0
 25 31  2  0
 26 32  2  0
 26 33  1  0
 27 34  1  0
 28 35  2  0
 28 36  1  0
 30 37  2  0
 31 37  1  0
 32 38  1  0
 33 39  1  0
 38 39  2  0
 34 40  1  1
 34 41  1  0
 35 41  1  0
 35 42  1  0
 36 43  2  0
 39 44  1  0
 42 45  2  0
 43 45  1  0
M  END
