x1385_1-x0434_2-x0397_0-x1412_1-x0734_0-x0831_0-x1334_1-x1418_1
     RDKit          3D

 38 42  0  0  0  0  0  0  0  0999 V2000
    6.3600   -3.2630   19.9920 C   0  0  0  0  0  0  0  0  0  0  0  0
    7.3710   -2.9820   18.8840 C   0  0  0  0  0  0  0  0  0  0  0  0
    5.4240   -4.0410   19.7250 O   0  0  0  0  0  0  0  0  0  0  0  0
    6.4780   -2.6980   21.3120 N   0  0  0  0  0  0  0  0  0  0  0  0
    6.5060   -3.5320   22.5110 C   0  0  2  0  0  0  0  0  0  0  0  0
    7.2480   -1.4690   21.6090 C   0  0  1  0  0  0  0  0  0  0  0  0
    7.9800   -3.7580   23.0320 C   0  0  0  0  0  0  0  0  0  0  0  0
    8.6960   -1.7490   21.8570 C   0  0  0  0  0  0  0  0  0  0  0  0
    5.7500   -4.8250   22.1580 C   0  0  2  0  0  0  0  0  0  0  0  0
    7.1520   -0.3750   20.5680 C   0  0  0  0  0  0  0  0  0  0  0  0
    8.7820   -2.5190   23.0760 N   0  0  0  0  0  0  0  0  0  0  0  0
    5.7750   -5.6180   23.3530 C   0  0  2  0  0  0  0  0  0  0  0  0
    6.4180   -6.3370   22.4230 C   0  0  0  0  0  0  0  0  0  0  0  0
    7.1500   -0.9430   19.3480 C   0  0  0  0  0  0  0  0  0  0  0  0
    4.5320   -6.1500   24.0190 C   0  0  0  0  0  0  0  0  0  0  0  0
   10.2170   -2.6650   23.3510 C   0  0  0  0  0  0  0  0  0  0  0  0
    6.7480    0.0660   18.3860 C   0  0  0  0  0  0  0  0  0  0  0  0
    4.3050   -5.5680   25.3610 N   0  0  0  0  0  0  0  0  0  0  0  0
   10.8410   -1.2810   23.4760 C   0  0  0  0  0  0  0  0  0  0  0  0
    5.8350   -0.0060   19.5050 C   0  0  0  0  0  0  0  0  0  0  0  0
    6.1560    1.0530   17.6670 N   0  0  0  0  0  0  0  0  0  0  0  0
    5.0910   -4.6440   25.7640 N   0  0  0  0  0  0  0  0  0  0  0  0
   10.1260   -0.1860   24.2430 C   0  0  0  0  0  0  0  0  0  0  0  0
   12.1130   -0.9590   22.8610 C   0  0  0  0  0  0  0  0  0  0  0  0
    4.9430    1.8220   17.9440 C   0  0  0  0  0  0  0  0  0  0  0  0
    4.6820    0.6970   19.8120 C   0  0  0  0  0  0  0  0  0  0  0  0
    4.7050   -3.6510   26.4720 O   0  0  0  0  0  0  0  0  0  0  0  0
   12.8600   -1.9960   22.0810 C   0  0  0  0  0  0  0  0  0  0  0  0
    6.4560   -5.1190   25.9760 C   0  0  0  0  0  0  0  0  0  0  0  0
   10.7910    1.1090   24.2800 C   0  0  0  0  0  0  0  0  0  0  0  0
   12.7480    0.2570   22.9030 C   0  0  0  0  0  0  0  0  0  0  0  0
    4.1770    1.6600   19.0290 C   0  0  0  0  0  0  0  0  0  0  0  0
    7.3730   -5.1930   24.9230 C   0  0  0  0  0  0  0  0  0  0  0  0
    6.9230   -5.5860   27.4660 C   0  0  0  0  0  0  0  0  0  0  0  0
   12.1350    1.3050   23.5840 C   0  0  0  0  0  0  0  0  0  0  0  0
    8.6470   -5.6730   25.1660 C   0  0  0  0  0  0  0  0  0  0  0  0
    8.3530   -6.1060   27.6760 C   0  0  0  0  0  0  0  0  0  0  0  0
    9.1510   -6.1430   26.5490 C   0  0  0  0  0  0  0  0  0  0  0  0
  1  2  1  0
  1  3  2  0
  1  4  1  0
  4  5  1  0
  4  6  1  0
  5  7  1  6
  6  8  1  0
  5  9  1  0
  6 10  1  6
  7 11  1  0
  8 11  1  0
  9 12  1  0
  9 13  1  6
 12 13  1  0
 10 14  1  0
 12 15  1  6
 11 16  1  0
 14 17  1  0
 15 18  1  0
 16 19  1  0
 17 20  2  0
 17 21  1  0
 18 22  2  3
 19 23  2  0
 19 24  1  0
 21 25  2  0
 20 26  1  0
 22 27  1  0
 24 28  1  0
 22 29  1  0
 23 30  1  0
 24 31  2  0
 25 32  1  0
 26 32  2  0
 29 33  2  0
 29 34  1  0
 30 35  2  0
 31 35  1  0
 33 36  1  0
 34 37  2  0
 36 38  2  0
 37 38  1  0
M  CHG  2  22   1  27  -1
M  END
