x1386_0-x1493_0
     RDKit          3D

 20 21  0  0  0  0  0  0  0  0999 V2000
    4.7360   -6.2440   26.0350 C   0  0  0  0  0  0  0  0  0  0  0  0
    6.0530   -5.5900   25.6140 C   0  0  0  0  0  0  0  0  0  0  0  0
    7.0160   -5.5300   26.3730 O   0  0  0  0  0  0  0  0  0  0  0  0
    6.0460   -5.0840   24.3190 N   0  0  0  0  0  0  0  0  0  0  0  0
    7.0730   -4.1500   23.8140 C   0  0  1  0  0  0  0  0  0  0  0  0
    5.1990   -5.7580   23.3020 C   0  0  0  0  0  0  0  0  0  0  0  0
    8.0370   -3.6670   24.9270 C   0  0  0  0  0  0  0  0  0  0  0  0
    7.7990   -4.8690   22.6890 C   0  0  0  0  0  0  0  0  0  0  0  0
    5.8700   -6.1690   22.2010 C   0  0  0  0  0  0  0  0  0  0  0  0
    8.8330   -2.4380   24.4630 C   0  0  0  0  0  0  0  0  0  0  0  0
    6.7660   -5.2690   21.7300 N   0  0  0  0  0  0  0  0  0  0  0  0
    6.6090   -4.4750   20.6100 C   0  0  0  0  0  0  0  0  0  0  0  0
   10.2750   -2.8210   24.1240 C   0  0  0  0  0  0  0  0  0  0  0  0
    5.5820   -4.4250   19.9190 O   0  0  0  0  0  0  0  0  0  0  0  0
    7.8610   -3.6780   20.2740 C   0  0  0  0  0  0  0  0  0  0  0  0
   11.1410   -1.6440   23.8020 C   0  0  0  0  0  0  0  0  0  0  0  0
   12.1550   -1.6440   22.8780 C   0  0  0  0  0  0  0  0  0  0  0  0
   11.0420   -0.3780   24.3930 C   0  0  0  0  0  0  0  0  0  0  0  0
   12.8650   -0.3470   22.7410 C   0  0  0  0  0  0  0  0  0  0  0  0
   12.1820    0.7810   23.8000 S   0  0  0  0  0  0  0  0  0  0  0  0
  1  2  1  0
  2  3  2  0
  2  4  1  0
  4  5  1  0
  4  6  1  0
  5  7  1  1
  5  8  1  0
  6  9  1  0
  7 10  1  0
  8 11  1  0
  9 11  1  0
 11 12  1  0
 10 13  1  0
 12 14  2  0
 12 15  1  0
 13 16  1  0
 16 17  1  0
 16 18  2  0
 17 19  2  0
 18 20  1  0
 19 20  1  0
M  END
