x1386_0-x0072_0
     RDKit          3D

 12 12  0  0  0  0  0  0  0  0999 V2000
    7.9510   -3.5750   24.8340 N   0  0  0  0  0  0  0  0  0  0  0  0
    8.3150   -4.6130   26.1020 S   0  0  0  0  0  0  0  0  0  0  0  0
    6.8110   -5.3360   26.5160 C   0  0  0  0  0  0  0  0  0  0  0  0
    8.8720   -2.4940   24.5560 C   0  0  0  0  0  0  0  0  0  0  0  0
    9.0220   -5.8550   25.9530 O   0  0  0  0  0  0  0  0  0  0  0  0
    8.6340   -3.7510   27.1970 O   0  0  0  0  0  0  0  0  0  0  0  0
   10.1760   -2.8360   23.9130 C   0  0  0  0  0  0  0  0  0  0  0  0
   11.0630   -1.6080   23.7230 C   0  0  0  0  0  0  0  0  0  0  0  0
   12.2200   -1.5740   22.6810 C   0  0  0  0  0  0  0  0  0  0  0  0
   11.0360   -0.3730   24.3730 C   0  0  0  0  0  0  0  0  0  0  0  0
   12.8860   -0.2550   22.7330 C   0  0  0  0  0  0  0  0  0  0  0  0
   12.2040    0.7960   23.8740 S   0  0  0  0  0  0  0  0  0  0  0  0
  2  1  1  0
  2  3  1  0
  1  4  1  0
  2  5  2  0
  2  6  2  0
  4  7  1  0
  7  8  1  0
  8  9  1  0
  8 10  2  0
  9 11  2  0
 10 12  1  0
 11 12  1  0
M  END
