x1385_1-x0692_0-x1412_0
     RDKit          3D

 24 26  0  0  0  0  0  0  0  0999 V2000
    6.3030   -3.2200   19.8010 C   0  0  0  0  0  0  0  0  0  0  0  0
    7.3290   -2.9750   18.6870 C   0  0  0  0  0  0  0  0  0  0  0  0
    5.3980   -4.0550   19.6610 O   0  0  0  0  0  0  0  0  0  0  0  0
    6.4040   -2.5160   20.9760 N   0  0  0  0  0  0  0  0  0  0  0  0
    6.2010   -3.2050   22.2440 C   0  0  0  0  0  0  0  0  0  0  0  0
    7.4070   -1.4200   21.0060 C   0  0  0  0  0  0  0  0  0  0  0  0
    7.5460   -3.7510   22.7130 C   0  0  0  0  0  0  0  0  0  0  0  0
    8.5880   -1.8290   21.6260 C   0  0  0  0  0  0  0  0  0  0  0  0
    8.3300   -2.5410   22.8690 N   0  0  0  0  0  0  0  0  0  0  0  0
    9.4330   -2.6160   23.7400 C   0  0  2  0  0  0  0  0  0  0  0  0
    8.7700   -2.5790   25.0700 C   0  0  0  0  0  0  0  0  0  0  0  0
   10.3970   -1.5330   23.5140 C   0  0  0  0  0  0  0  0  0  0  0  0
    8.2630   -1.5570   25.5220 O   0  0  0  0  0  0  0  0  0  0  0  0
   10.2110   -0.1760   23.8000 C   0  0  0  0  0  0  0  0  0  0  0  0
   11.7560   -1.8860   22.8860 C   0  0  0  0  0  0  0  0  0  0  0  0
    8.7590   -3.8340   25.7980 C   0  0  0  0  0  0  0  0  0  0  0  0
   11.2170    0.8300   23.5310 C   0  0  0  0  0  0  0  0  0  0  0  0
   12.7940   -0.8050   22.6320 C   0  0  0  0  0  0  0  0  0  0  0  0
    9.4200   -5.0430   25.5600 C   0  0  0  0  0  0  0  0  0  0  0  0
    7.8340   -4.0160   27.2710 S   0  0  0  0  0  0  0  0  0  0  0  0
   10.8990    2.2500   23.8500 C   0  0  0  0  0  0  0  0  0  0  0  0
   12.4370    0.4770   22.9800 C   0  0  0  0  0  0  0  0  0  0  0  0
    9.2100   -6.0210   26.4910 C   0  0  0  0  0  0  0  0  0  0  0  0
    8.3600   -5.6190   27.5020 C   0  0  0  0  0  0  0  0  0  0  0  0
  1  2  1  0
  1  3  2  0
  1  4  1  0
  4  5  1  0
  4  6  1  0
  5  7  1  0
  6  8  1  0
  7  9  1  0
  8  9  1  0
  9 10  1  0
 10 11  1  1
 10 12  1  0
 11 13  2  0
 12 14  2  0
 12 15  1  0
 11 16  1  0
 14 17  1  0
 15 18  2  0
 16 19  2  0
 16 20  1  0
 17 21  1  0
 17 22  2  0
 18 22  1  0
 19 23  1  0
 20 24  1  0
 23 24  2  0
M  END
