x1384
     RDKit          3D

 17 18  0  0  0  0  0  0  0  0999 V2000
    6.7220   -3.7040   21.7950 N   0  0  0  0  0  0  0  0  0  0  0  0
    8.3110   -3.3270   20.0850 C   0  0  0  0  0  0  0  0  0  0  0  0
    6.0880   -4.0880   19.6370 O   0  0  0  0  0  0  0  0  0  0  0  0
    6.9170   -3.7520   20.4660 C   0  0  0  0  0  0  0  0  0  0  0  0
    3.6740   -3.5000   25.4940 N   0  0  0  0  0  0  0  0  0  0  0  0
    5.4010   -2.0520   25.9370 O   0  0  0  0  0  0  0  0  0  0  0  0
    5.7710   -4.3820   22.5890 C   0  0  0  0  0  0  0  0  0  0  0  0
    5.4250   -5.7170   22.3920 C   0  0  0  0  0  0  0  0  0  0  0  0
    4.4940   -6.3040   23.2290 C   0  0  0  0  0  0  0  0  0  0  0  0
    3.9090   -5.5870   24.2590 C   0  0  0  0  0  0  0  0  0  0  0  0
    4.2650   -4.2600   24.4490 C   0  0  0  0  0  0  0  0  0  0  0  0
    5.1960   -3.6500   23.6170 C   0  0  0  0  0  0  0  0  0  0  0  0
    2.2870   -3.7120   25.9260 C   0  0  0  0  0  0  0  0  0  0  0  0
    1.9920   -2.5170   26.8080 C   0  0  0  0  0  0  0  0  0  0  0  0
    3.3600   -2.0510   27.2740 C   0  0  0  0  0  0  0  0  0  0  0  0
    4.2970   -2.4980   26.1860 C   0  0  0  0  0  0  0  0  0  0  0  0
    8.6520   -3.4310   18.3100 R   0  0  0  0  0  0  0  0  0  0  0  0
  1  4  1  0
  2  4  1  0
  3  4  2  0
  1  7  1  0
  7  8  2  0
  8  9  1  0
  9 10  2  0
  5 11  1  0
 10 11  1  0
  7 12  1  0
 11 12  2  0
  5 13  1  0
 13 14  1  0
 14 15  1  0
  5 16  1  0
  6 16  2  0
 15 16  1  0
  2 17  1  0
M  END
