x1385_1-x0831_1-x0831_0-x1418_1-x0692_1-x0734_0
     RDKit          3D

 28 31  0  0  0  0  0  0  0  0999 V2000
    6.3190   -3.1410   19.7870 C   0  0  0  0  0  0  0  0  0  0  0  0
    7.3090   -2.9380   18.6610 C   0  0  0  0  0  0  0  0  0  0  0  0
    5.4250   -3.9960   19.6640 O   0  0  0  0  0  0  0  0  0  0  0  0
    6.4780   -2.3690   20.9310 N   0  0  0  0  0  0  0  0  0  0  0  0
    6.1940   -2.8530   22.2710 C   0  0  0  0  0  0  0  0  0  0  0  0
    7.4930   -1.3010   20.9510 C   0  0  0  0  0  0  0  0  0  0  0  0
    7.4870   -3.3870   22.9060 C   0  0  2  0  0  0  0  0  0  0  0  0
    8.7420   -1.7280   21.7120 C   0  0  0  0  0  0  0  0  0  0  0  0
    6.9360   -4.2730   24.0430 C   0  0  2  0  0  0  0  0  0  0  0  0
    8.4580   -2.2640   23.0640 N   0  0  0  0  0  0  0  0  0  0  0  0
    5.6600   -3.6880   24.6850 C   0  0  0  0  0  0  0  0  0  0  0  0
    9.7450   -2.4580   23.7390 C   0  0  0  0  0  0  0  0  0  0  0  0
    7.6670   -4.7550   25.2370 C   0  0  0  0  0  0  0  0  0  0  0  0
    5.2900   -4.5980   25.8750 C   0  0  2  0  0  0  0  0  0  0  0  0
    9.0640   -5.0560   25.5550 C   0  0  0  0  0  0  0  0  0  0  0  0
    6.6450   -4.9760   26.3780 C   0  0  0  0  0  0  0  0  0  0  0  0
   10.6070   -1.1900   23.6260 C   0  0  0  0  0  0  0  0  0  0  0  0
    4.5670   -5.7280   25.3770 O   0  0  0  0  0  0  0  0  0  0  0  0
    4.5020   -4.0190   26.7370 O   0  0  0  0  0  0  0  0  0  0  0  0
    9.2900   -5.5500   26.9150 C   0  0  0  0  0  0  0  0  0  0  0  0
    7.0050   -5.4360   27.6010 C   0  0  0  0  0  0  0  0  0  0  0  0
   10.1250   -0.0300   24.2810 C   0  0  0  0  0  0  0  0  0  0  0  0
   11.9680   -1.0750   22.8450 C   0  0  0  0  0  0  0  0  0  0  0  0
   12.6610   -2.1490   22.0800 C   0  0  0  0  0  0  0  0  0  0  0  0
    8.3090   -5.7110   27.8300 C   0  0  0  0  0  0  0  0  0  0  0  0
   10.8060    1.1840   24.2500 C   0  0  0  0  0  0  0  0  0  0  0  0
   12.5940    0.3410   22.9250 C   0  0  0  0  0  0  0  0  0  0  0  0
   11.9840    1.3540   23.6050 C   0  0  0  0  0  0  0  0  0  0  0  0
  1  2  1  0
  1  3  2  0
  1  4  1  0
  4  5  1  0
  4  6  1  0
  7  5  1  1
  6  8  1  0
  7  9  1  0
  7 10  1  0
  8 10  1  0
  9 11  1  1
 10 12  1  0
  9 13  1  0
 11 14  1  0
 13 15  2  0
 13 16  1  0
 14 16  1  0
 12 17  1  0
 14 18  1  6
 14 19  1  0
 15 20  1  0
 16 21  2  0
 17 22  2  0
 17 23  1  0
 23 24  1  0
 20 25  2  0
 21 25  1  0
 22 26  1  0
 23 27  2  0
 26 28  2  0
 27 28  1  0
M  CHG  1  19  -1
M  END
