x1385_1-x0874_0-x0820_1-x0540_3-x1386_0
     RDKit          3D

 36 41  0  0  0  0  0  0  0  0999 V2000
    6.5720   -3.0600   19.7420 C   0  0  0  0  0  0  0  0  0  0  0  0
    7.2840   -2.4680   18.5380 C   0  0  0  0  0  0  0  0  0  0  0  0
    5.7650   -3.9680   19.5830 O   0  0  0  0  0  0  0  0  0  0  0  0
    6.8730   -2.6050   20.9790 C   0  0  2  0  0  0  0  0  0  0  0  0
    7.5420   -2.5260   22.4730 C   0  0  0  0  0  0  0  0  0  0  0  0
    6.4070   -3.2690   22.1930 C   0  0  0  0  0  0  0  0  0  0  0  0
    7.7450   -1.4790   21.3090 C   0  0  0  0  0  0  0  0  0  0  0  0
    5.8570   -0.6940   21.8670 C   0  0  0  0  0  0  0  0  0  0  0  0
    8.4880   -2.6480   23.3470 N   0  0  0  0  0  0  0  0  0  0  0  0
    7.5960   -3.7560   22.9880 C   0  0  1  0  0  0  0  0  0  0  0  0
    8.9240   -1.9670   22.1220 C   0  0  0  0  0  0  0  0  0  0  0  0
    8.3350   -1.7230   21.7150 C   0  0  0  0  0  0  0  0  0  0  0  0
    4.9500    0.2690   21.7230 C   0  0  0  0  0  0  0  0  0  0  0  0
    9.9360   -2.5250   23.8300 C   0  0  0  0  0  0  0  0  0  0  0  0
    6.4390   -4.2050   23.9830 C   0  0  0  0  0  0  0  0  0  0  0  0
    5.2800    1.5020   22.5600 C   0  0  0  0  0  0  0  0  0  0  0  0
    6.8860   -4.2170   25.3580 C   0  0  0  0  0  0  0  0  0  0  0  0
    5.0990   -4.3650   23.7200 C   0  0  0  0  0  0  0  0  0  0  0  0
   11.0160   -1.4730   23.8260 C   0  0  0  0  0  0  0  0  0  0  0  0
    4.1480    2.3990   22.4820 N   0  0  0  0  0  0  0  0  0  0  0  0
    5.9160   -4.3990   26.3890 C   0  0  0  0  0  0  0  0  0  0  0  0
    4.1540   -4.5400   24.7490 C   0  0  0  0  0  0  0  0  0  0  0  0
    8.2410   -4.0590   25.7640 C   0  0  0  0  0  0  0  0  0  0  0  0
   12.1170   -1.4010   22.9200 C   0  0  0  0  0  0  0  0  0  0  0  0
   11.0500   -0.3900   24.6970 C   0  0  0  0  0  0  0  0  0  0  0  0
    3.0060    2.2640   23.3710 C   0  0  0  0  0  0  0  0  0  0  0  0
    4.5530   -4.5590   26.0430 C   0  0  0  0  0  0  0  0  0  0  0  0
    8.6000   -4.0860   27.0800 C   0  0  0  0  0  0  0  0  0  0  0  0
    6.3270   -4.4200   27.7430 C   0  0  0  0  0  0  0  0  0  0  0  0
   12.8260   -0.2560   23.0140 C   0  0  2  0  0  0  0  0  0  0  0  0
   12.1910    0.7640   24.2010 S   0  0  0  0  0  0  0  0  0  0  0  0
    2.9690    1.4200   24.2170 O   0  0  0  0  0  0  0  0  0  0  0  0
    7.6330   -4.2720   28.0760 C   0  0  0  0  0  0  0  0  0  0  0  0
   11.0770   -0.4550   23.0860 C   0  0  0  0  0  0  0  0  0  0  0  0
   13.1460   -1.1360   21.8020 S   0  0  0  0  0  0  0  0  0  0  0  0
   11.4570   -1.4510   22.1640 C   0  0  0  0  0  0  0  0  0  0  0  0
  1  2  1  0
  1  3  2  0
  4  1  1  6
  4  5  1  0
  4  6  1  0
  4  7  1  0
  7  8  1  0
  5  9  1  0
  6 10  1  0
  9 10  1  0
  5 11  2  0
  7 12  2  0
 11 12  1  0
  8 13  1  0
  9 14  1  0
 10 15  1  1
 13 16  1  0
 15 17  1  0
 15 18  2  0
 14 19  1  0
 16 20  1  0
 17 21  2  0
 18 22  1  0
 17 23  1  0
 19 24  2  0
 19 25  1  0
 20 26  1  0
 21 27  1  0
 22 27  2  0
 23 28  2  0
 21 29  1  0
 30 24  1  1
 25 31  2  0
 30 31  1  0
 26 32  2  0
 28 33  1  0
 29 33  2  0
 31 34  1  0
 30 35  1  0
 34 36  2  0
 35 36  1  0
M  END
