x1386_1-x1385_1-x1412_1-x1375_1-x0426_1-x0692_1-x0770_1-x0434_2-x1334_0-x0831_1-x0397_0-x0831_0-x1334_1-x1418_1
     RDKit          3D

 44 49  0  0  0  0  0  0  0  0999 V2000
    3.0030   -8.1850   24.7210 O   0  0  0  0  0  0  0  0  0  0  0  0
    3.5670   -7.1930   25.5530 C   0  0  0  0  0  0  0  0  0  0  0  0
    4.6430   -6.5820   24.8850 O   0  0  0  0  0  0  0  0  0  0  0  0
    4.7150   -7.1150   23.5780 C   0  0  0  0  0  0  0  0  0  0  0  0
    5.3260   -6.2010   22.5880 C   0  0  1  0  0  0  0  0  0  0  0  0
    5.6590   -4.9040   23.0420 C   0  0  1  0  0  0  0  0  0  0  0  0
    6.7540   -6.0580   22.5140 C   0  0  0  0  0  0  0  0  0  0  0  0
    5.2080   -3.9550   22.1870 C   0  0  0  0  0  0  0  0  0  0  0  0
    6.2890   -2.9020   22.1930 C   0  0  2  0  0  0  0  0  0  0  0  0
    6.5670   -2.2630   20.9100 N   0  0  0  0  0  0  0  0  0  0  0  0
    7.4360   -3.4490   22.7350 C   0  0  0  0  0  0  0  0  0  0  0  0
    6.4060   -3.0540   19.7740 C   0  0  0  0  0  0  0  0  0  0  0  0
    8.2990   -2.3770   23.0800 N   0  0  0  0  0  0  0  0  0  0  0  0
    7.5920   -1.2210   21.1040 C   0  0  2  0  0  0  0  0  0  0  0  0
    7.4330   -2.9520   18.6770 C   0  0  0  0  0  0  0  0  0  0  0  0
    5.4740   -3.8630   19.6100 O   0  0  0  0  0  0  0  0  0  0  0  0
    9.2610   -2.5770   24.1210 C   0  0  2  0  0  0  0  0  0  0  0  0
    8.8300   -1.8540   21.8390 C   0  0  0  0  0  0  0  0  0  0  0  0
    6.9900   -0.1320   22.0220 C   0  0  0  0  0  0  0  0  0  0  0  0
   10.6760   -2.4900   23.6980 C   0  0  0  0  0  0  0  0  0  0  0  0
    9.0460   -3.7490   25.1000 C   0  0  0  0  0  0  0  0  0  0  0  0
    6.7740    1.2790   21.4510 C   0  0  2  0  0  0  0  0  0  0  0  0
    9.8250   -5.0010   25.2110 C   0  0  0  0  0  0  0  0  0  0  0  0
    7.8280   -3.7980   26.3090 S   0  0  0  0  0  0  0  0  0  0  0  0
   11.1910   -1.0370   23.5880 C   0  0  0  0  0  0  0  0  0  0  0  0
    6.0750    2.1300   22.4760 C   0  0  0  0  0  0  0  0  0  0  0  0
    6.2050    1.0940   20.2780 C   0  0  0  0  0  0  0  0  0  0  0  0
    9.3890   -5.8520   26.2360 C   0  0  0  0  0  0  0  0  0  0  0  0
    8.2940   -5.3130   26.9350 C   0  0  0  0  0  0  0  0  0  0  0  0
   10.4230    0.0510   24.0430 C   0  0  0  0  0  0  0  0  0  0  0  0
   12.4460   -0.8100   23.0240 C   0  0  0  0  0  0  0  0  0  0  0  0
    4.5530    1.9480   22.3280 C   0  0  1  0  0  0  0  0  0  0  0  0
    4.8490    1.6470   20.0660 C   0  0  0  0  0  0  0  0  0  0  0  0
    6.8220    0.4180   19.2460 C   0  0  0  0  0  0  0  0  0  0  0  0
    7.4350   -5.9670   28.2560 Cl  0  0  0  0  0  0  0  0  0  0  0  0
   13.2200   -1.9820   22.5260 C   0  0  0  0  0  0  0  0  0  0  0  0
   10.9210    1.3530   23.9480 C   0  0  0  0  0  0  0  0  0  0  0  0
   13.0020    0.4500   22.9000 C   0  0  0  0  0  0  0  0  0  0  0  0
    3.9280    2.5130   23.3880 N   0  0  0  0  0  0  0  0  0  0  0  0
    4.1880    2.2990   21.0210 C   0  0  0  0  0  0  0  0  0  0  0  0
    4.2700    1.4790   18.8330 C   0  0  0  0  0  0  0  0  0  0  0  0
    6.2540    0.2610   18.0550 N   0  0  0  0  0  0  0  0  0  0  0  0
   12.2810    1.5130   23.3430 C   0  0  0  0  0  0  0  0  0  0  0  0
    5.0320    0.7810   17.8870 C   0  0  0  0  0  0  0  0  0  0  0  0
  1  2  1  0
  2  3  1  0
  3  4  1  0
  5  4  1  1
  5  6  1  0
  5  7  1  0
  6  7  1  0
  6  8  1  6
  9  8  1  6
  9 10  1  0
  9 11  1  0
 10 12  1  0
 11 13  1  0
 10 14  1  0
 12 15  1  0
 12 16  2  0
 13 17  1  0
 13 18  1  0
 14 18  1  0
 14 19  1  1
 17 20  1  6
 17 21  1  0
 22 19  1  1
 21 23  2  0
 21 24  1  0
 20 25  1  0
 22 26  1  0
 22 27  1  0
 23 28  1  0
 24 29  1  0
 28 29  2  0
 25 30  2  0
 25 31  1  0
 26 32  1  0
 27 33  2  0
 27 34  1  0
 29 35  1  0
 31 36  1  0
 30 37  1  0
 31 38  2  0
 32 39  1  1
 32 40  1  0
 33 40  1  0
 33 41  1  0
 34 42  2  0
 37 43  2  0
 38 43  1  0
 41 44  2  0
 42 44  1  0
M  END
