x1386_1-x0692_1-x1375_1-x1334_0-x1374_1-x0831_0-x1334_1-x0831_1-x0426_1-x0397_0-x1412_1-x0770_1-x1418_1-x0434_2
     RDKit          3D

 44 49  0  0  0  0  0  0  0  0999 V2000
    2.2230   -6.5950   24.5980 O   0  0  0  0  0  0  0  0  0  0  0  0
    3.1030   -7.3360   23.7870 C   0  0  0  0  0  0  0  0  0  0  0  0
    4.3590   -7.4670   24.4330 O   0  0  0  0  0  0  0  0  0  0  0  0
    5.0680   -6.2110   24.3380 C   0  0  0  0  0  0  0  0  0  0  0  0
    5.8930   -6.1610   23.0800 C   0  0  2  0  0  0  0  0  0  0  0  0
    5.8040   -5.2590   22.0530 C   0  0  1  0  0  0  0  0  0  0  0  0
    5.1140   -6.4030   21.8540 C   0  0  0  0  0  0  0  0  0  0  0  0
    5.2220   -3.9270   22.4680 C   0  0  0  0  0  0  0  0  0  0  0  0
    6.3070   -2.9110   22.4630 C   0  0  2  0  0  0  0  0  0  0  0  0
    6.6820   -2.4500   21.1110 N   0  0  0  0  0  0  0  0  0  0  0  0
    7.4900   -3.3240   23.0660 C   0  0  0  0  0  0  0  0  0  0  0  0
    6.4280   -3.1780   19.9110 C   0  0  0  0  0  0  0  0  0  0  0  0
    8.3670   -2.2360   23.3330 N   0  0  0  0  0  0  0  0  0  0  0  0
    7.6330   -1.3440   21.2330 C   0  0  2  0  0  0  0  0  0  0  0  0
    7.3990   -2.9590   18.7700 C   0  0  0  0  0  0  0  0  0  0  0  0
    5.5030   -3.9990   19.7230 O   0  0  0  0  0  0  0  0  0  0  0  0
    9.3840   -2.5820   24.1240 C   0  0  2  0  0  0  0  0  0  0  0  0
    8.8560   -1.7850   22.0170 C   0  0  0  0  0  0  0  0  0  0  0  0
    6.8310   -0.2430   21.9190 C   0  0  0  0  0  0  0  0  0  0  0  0
   10.6120   -2.5200   23.2690 C   0  0  0  0  0  0  0  0  0  0  0  0
    9.1320   -3.7750   25.0790 C   0  0  0  0  0  0  0  0  0  0  0  0
    5.3580   -0.2340   21.4840 C   0  0  1  0  0  0  0  0  0  0  0  0
    9.7720   -4.9920   25.0950 C   0  0  0  0  0  0  0  0  0  0  0  0
    7.8840   -3.7480   26.4470 S   0  0  0  0  0  0  0  0  0  0  0  0
   11.1570   -1.0870   23.3370 C   0  0  0  0  0  0  0  0  0  0  0  0
    4.4530    0.3370   22.4030 C   0  0  0  0  0  0  0  0  0  0  0  0
    5.3530    0.3700   20.1290 C   0  0  0  0  0  0  0  0  0  0  0  0
    9.3250   -5.9540   26.1880 C   0  0  0  0  0  0  0  0  0  0  0  0
    8.2320   -5.3140   27.0220 C   0  0  0  0  0  0  0  0  0  0  0  0
   10.4460   -0.1020   24.0370 C   0  0  0  0  0  0  0  0  0  0  0  0
   12.3320   -0.8150   22.7190 C   0  0  0  0  0  0  0  0  0  0  0  0
    4.2040    1.8310   22.1410 C   0  0  2  0  0  0  0  0  0  0  0  0
    4.4410    1.4740   19.8440 C   0  0  0  0  0  0  0  0  0  0  0  0
    6.2570   -0.0940   19.0220 C   0  0  0  0  0  0  0  0  0  0  0  0
    7.3790   -5.9340   28.3650 Cl  0  0  0  0  0  0  0  0  0  0  0  0
   13.0670   -1.8660   21.9630 C   0  0  0  0  0  0  0  0  0  0  0  0
   10.9210    1.2030   24.1280 C   0  0  0  0  0  0  0  0  0  0  0  0
   12.8860    0.4400   22.7660 C   0  0  0  0  0  0  0  0  0  0  0  0
    3.4190    2.3000   23.1460 N   0  0  0  0  0  0  0  0  0  0  0  0
    3.5120    1.9750   20.9440 C   0  0  0  0  0  0  0  0  0  0  0  0
    4.4940    1.9730   18.6230 C   0  0  0  0  0  0  0  0  0  0  0  0
    6.2420    0.4770   17.8060 N   0  0  0  0  0  0  0  0  0  0  0  0
   12.2480    1.4680   23.4300 C   0  0  0  0  0  0  0  0  0  0  0  0
    5.3550    1.4900   17.6650 C   0  0  0  0  0  0  0  0  0  0  0  0
  1  2  1  0
  2  3  1  0
  3  4  1  0
  5  4  1  1
  5  6  1  0
  5  7  1  0
  6  7  1  0
  6  8  1  1
  9  8  1  6
  9 10  1  0
  9 11  1  0
 10 12  1  0
 11 13  1  0
 10 14  1  0
 12 15  1  0
 12 16  2  0
 13 17  1  0
 13 18  1  0
 14 18  1  0
 14 19  1  1
 17 20  1  6
 17 21  1  0
 22 19  1  1
 21 23  2  0
 21 24  1  0
 20 25  1  0
 22 26  1  0
 22 27  1  0
 23 28  1  0
 24 29  1  0
 28 29  2  0
 25 30  2  0
 25 31  1  0
 26 32  1  0
 27 33  2  0
 27 34  1  0
 29 35  1  0
 31 36  1  0
 30 37  1  0
 31 38  2  0
 32 39  1  1
 32 40  1  0
 33 40  1  0
 33 41  1  0
 34 42  2  0
 37 43  2  0
 38 43  1  0
 41 44  2  0
 42 44  1  0
M  END
