x1386_0-x1348_1
     RDKit          3D

 19 21  0  0  0  0  0  0  0  0999 V2000
    7.7510   -4.5300   26.5360 N   0  0  0  0  0  0  0  0  0  0  0  0
    7.9560   -5.0070   27.8860 C   0  0  0  0  0  0  0  0  0  0  0  0
    8.8700   -4.5220   25.7270 C   0  0  0  0  0  0  0  0  0  0  0  0
    6.6220   -5.2200   25.8610 C   0  0  0  0  0  0  0  0  0  0  0  0
    9.4300   -3.1050   25.4330 C   0  0  0  0  0  0  0  0  0  0  0  0
    6.4340   -5.1260   24.3580 C   0  0  0  0  0  0  0  0  0  0  0  0
    5.7500   -5.9420   26.6320 C   0  0  0  0  0  0  0  0  0  0  0  0
   10.1220   -2.9650   24.0510 C   0  0  0  0  0  0  0  0  0  0  0  0
    7.2420   -4.4110   23.3860 N   0  0  0  0  0  0  0  0  0  0  0  0
    5.2510   -5.8800   23.8250 C   0  0  0  0  0  0  0  0  0  0  0  0
    4.5910   -6.6720   26.0770 C   0  0  0  0  0  0  0  0  0  0  0  0
    6.6260   -4.6580   22.1650 C   0  0  0  0  0  0  0  0  0  0  0  0
    5.1510   -5.6850   22.0040 S   0  0  0  0  0  0  0  0  0  0  0  0
    4.3220   -6.6560   24.6740 C   0  0  0  0  0  0  0  0  0  0  0  0
   10.9740   -1.6650   23.8760 C   0  0  0  0  0  0  0  0  0  0  0  0
   12.1030   -1.6960   22.8420 C   0  0  0  0  0  0  0  0  0  0  0  0
   10.9330   -0.3890   24.4980 C   0  0  0  0  0  0  0  0  0  0  0  0
   12.7750   -0.4840   22.7860 C   0  0  0  0  0  0  0  0  0  0  0  0
   12.1410    0.6680   23.8790 S   0  0  0  0  0  0  0  0  0  0  0  0
  1  2  1  0
  1  3  1  0
  1  4  1  0
  3  5  1  0
  4  6  1  0
  4  7  2  0
  5  8  1  0
  6  9  1  0
  6 10  2  0
  7 11  1  0
  9 12  2  0
 10 13  1  0
 12 13  1  0
 10 14  1  0
 11 14  2  0
  8 15  1  0
 15 16  1  0
 15 17  2  0
 16 18  2  0
 17 19  1  0
 18 19  1  0
M  END
