x1386_1-x0831_0-x0734_0-x1385_1-x1418_1-x0770_1-x0397_0
     RDKit          3D

 31 34  0  0  0  0  0  0  0  0999 V2000
    6.4110   -3.1370   19.7370 C   0  0  0  0  0  0  0  0  0  0  0  0
    7.4110   -2.9760   18.6310 C   0  0  0  0  0  0  0  0  0  0  0  0
    5.4010   -3.8320   19.5610 O   0  0  0  0  0  0  0  0  0  0  0  0
    6.7190   -2.5340   20.9320 N   0  0  0  0  0  0  0  0  0  0  0  0
    7.5650   -1.3070   20.9600 C   0  0  0  0  0  0  0  0  0  0  0  0
    6.7900   -3.3770   22.0080 C   0  0  1  0  0  0  0  0  0  0  0  0
    8.9210   -1.5930   21.6330 C   0  0  0  0  0  0  0  0  0  0  0  0
    7.9080   -3.1280   23.0810 C   0  0  0  0  0  0  0  0  0  0  0  0
    5.4380   -3.5630   22.6910 C   0  0  0  0  0  0  0  0  0  0  0  0
    8.7520   -1.9500   23.0010 N   0  0  0  0  0  0  0  0  0  0  0  0
    5.0630   -5.0120   22.7380 C   0  0  2  0  0  0  0  0  0  0  0  0
    9.9820   -1.9780   23.6390 C   0  0  0  0  0  0  0  0  0  0  0  0
    5.8590   -5.9880   23.2420 C   0  0  2  0  0  0  0  0  0  0  0  0
    6.0370   -6.0980   21.9500 C   0  0  0  0  0  0  0  0  0  0  0  0
   10.8400   -0.8140   23.5520 C   0  0  0  0  0  0  0  0  0  0  0  0
    4.4640   -5.8410   23.8310 C   0  0  0  0  0  0  0  0  0  0  0  0
   10.0800    0.3190   24.2960 C   0  0  0  0  0  0  0  0  0  0  0  0
   12.2080   -0.9150   22.7930 C   0  0  0  0  0  0  0  0  0  0  0  0
    4.5400   -5.8150   25.3230 N   0  0  0  0  0  0  0  0  0  0  0  0
   12.7390   -2.1430   22.1240 C   0  0  0  0  0  0  0  0  0  0  0  0
   11.0660    1.5040   24.1060 C   0  0  0  0  0  0  0  0  0  0  0  0
   12.9880    0.3440   22.7640 C   0  0  0  0  0  0  0  0  0  0  0  0
    5.2390   -4.9310   25.9200 N   0  0  0  0  0  0  0  0  0  0  0  0
   12.3310    1.5310   23.4470 C   0  0  0  0  0  0  0  0  0  0  0  0
    4.6720   -3.9840   26.5660 O   0  0  0  0  0  0  0  0  0  0  0  0
    6.5410   -5.1170   26.1700 C   0  0  0  0  0  0  0  0  0  0  0  0
    7.5800   -4.8910   25.1150 C   0  0  0  0  0  0  0  0  0  0  0  0
    7.0120   -5.5610   27.5000 C   0  0  0  0  0  0  0  0  0  0  0  0
    9.1300   -5.0320   25.1070 C   0  0  0  0  0  0  0  0  0  0  0  0
    8.3810   -5.7220   27.5980 C   0  0  0  0  0  0  0  0  0  0  0  0
    9.2920   -5.4890   26.5410 C   0  0  0  0  0  0  0  0  0  0  0  0
  1  2  1  0
  1  3  2  0
  1  4  1  0
  4  5  1  0
  4  6  1  0
  5  7  1  0
  6  8  1  0
  6  9  1  1
  7 10  1  0
  8 10  1  0
 11  9  1  1
 10 12  1  0
 11 13  1  0
 11 14  1  0
 13 14  1  0
 12 15  1  0
 13 16  1  6
 15 17  2  0
 15 18  1  0
 16 19  1  0
 18 20  1  0
 17 21  1  0
 18 22  2  0
 19 23  2  3
 21 24  2  0
 22 24  1  0
 23 25  1  0
 23 26  1  0
 26 27  2  0
 26 28  1  0
 27 29  1  0
 28 30  2  0
 29 31  2  0
 30 31  1  0
M  CHG  2  23   1  25  -1
M  END
