x1386_1-x0692_1-x1418_1-x1385_1-x0434_2-x0831_1-x1334_1-x1374_1-x1412_1-x1375_1-x0426_1-x1334_0-x0831_0-x0770_1-x0397_0
     RDKit          3D

 45 50  0  0  0  0  0  0  0  0999 V2000
    2.7100   -7.3890   23.2840 O   0  0  0  0  0  0  0  0  0  0  0  0
    3.1270   -7.2620   24.6300 C   0  0  0  0  0  0  0  0  0  0  0  0
    4.3840   -7.8820   24.8340 O   0  0  0  0  0  0  0  0  0  0  0  0
    5.3910   -7.4380   23.9230 C   0  0  0  0  0  0  0  0  0  0  0  0
    5.9430   -6.2360   24.3230 C   0  0  0  0  0  0  0  0  0  0  0  0
    6.2040   -5.3350   23.1540 C   0  0  2  0  0  0  0  0  0  0  0  0
    5.1270   -4.9260   22.4520 C   0  0  2  0  0  0  0  0  0  0  0  0
    6.4620   -5.8050   22.0060 C   0  0  0  0  0  0  0  0  0  0  0  0
    5.0470   -3.4640   22.4610 C   0  0  0  0  0  0  0  0  0  0  0  0
    6.3950   -2.8370   22.3590 C   0  0  2  0  0  0  0  0  0  0  0  0
    6.6670   -2.2880   21.0240 N   0  0  0  0  0  0  0  0  0  0  0  0
    7.5380   -3.5540   22.6830 C   0  0  0  0  0  0  0  0  0  0  0  0
    6.5100   -3.0950   19.8390 C   0  0  0  0  0  0  0  0  0  0  0  0
    8.5970   -2.5710   23.0000 N   0  0  0  0  0  0  0  0  0  0  0  0
    7.7890   -1.3020   21.0920 C   0  0  2  0  0  0  0  0  0  0  0  0
    7.4760   -2.9340   18.6850 C   0  0  0  0  0  0  0  0  0  0  0  0
    5.6020   -3.9540   19.7210 O   0  0  0  0  0  0  0  0  0  0  0  0
    9.6870   -3.0910   23.8080 C   0  0  1  0  0  0  0  0  0  0  0  0
    9.0400   -1.9930   21.7020 C   0  0  0  0  0  0  0  0  0  0  0  0
    7.5640   -0.1160   22.0800 C   0  0  0  0  0  0  0  0  0  0  0  0
   10.2790   -1.9780   24.6640 C   0  0  0  0  0  0  0  0  0  0  0  0
    9.3500   -4.0230   24.9680 C   0  0  0  0  0  0  0  0  0  0  0  0
    6.4910    0.9580   21.7630 C   0  0  2  0  0  0  0  0  0  0  0  0
    9.9280   -5.2810   25.4090 C   0  0  0  0  0  0  0  0  0  0  0  0
    8.0070   -3.6200   26.1580 S   0  0  0  0  0  0  0  0  0  0  0  0
   11.0270   -0.8270   24.0940 C   0  0  0  0  0  0  0  0  0  0  0  0
    5.2700    0.7530   22.4060 C   0  0  0  0  0  0  0  0  0  0  0  0
    6.0380    0.9460   20.3570 C   0  0  0  0  0  0  0  0  0  0  0  0
    9.4150   -5.8660   26.5590 C   0  0  0  0  0  0  0  0  0  0  0  0
    8.3650   -5.1160   27.1160 C   0  0  0  0  0  0  0  0  0  0  0  0
   10.5550    0.4360   24.3980 C   0  0  0  0  0  0  0  0  0  0  0  0
   12.2830   -0.8840   23.2090 C   0  0  0  0  0  0  0  0  0  0  0  0
    4.5620    1.9160   22.4680 C   0  0  2  0  0  0  0  0  0  0  0  0
    4.8140    1.5240   20.0310 C   0  0  0  0  0  0  0  0  0  0  0  0
    6.8120    0.3790   19.3580 C   0  0  0  0  0  0  0  0  0  0  0  0
    7.4370   -5.4290   28.5170 Cl  0  0  0  0  0  0  0  0  0  0  0  0
   12.9770   -2.1210   22.7290 C   0  0  0  0  0  0  0  0  0  0  0  0
   11.2020    1.7510   23.9240 C   0  0  0  0  0  0  0  0  0  0  0  0
   12.8210    0.4840   22.8260 C   0  0  0  0  0  0  0  0  0  0  0  0
    3.7170    1.8140   23.5100 N   0  0  0  0  0  0  0  0  0  0  0  0
    3.9370    2.1360   21.0670 C   0  0  0  0  0  0  0  0  0  0  0  0
    4.4110    1.5380   18.7850 C   0  0  0  0  0  0  0  0  0  0  0  0
    6.4720    0.3530   18.0640 N   0  0  0  0  0  0  0  0  0  0  0  0
   12.2840    1.7040   23.1810 C   0  0  0  0  0  0  0  0  0  0  0  0
    5.2990    0.9250   17.7950 C   0  0  0  0  0  0  0  0  0  0  0  0
  1  2  1  0
  2  3  1  0
  3  4  1  0
  4  5  1  0
  6  5  1  1
  6  7  1  0
  6  8  1  0
  7  8  1  0
  7  9  1  6
 10  9  1  6
 10 11  1  0
 10 12  1  0
 11 13  1  0
 12 14  1  0
 11 15  1  0
 13 16  1  0
 13 17  2  0
 14 18  1  0
 14 19  1  0
 15 19  1  0
 15 20  1  1
 18 21  1  1
 18 22  1  0
 23 20  1  6
 22 24  2  0
 22 25  1  0
 21 26  1  0
 23 27  1  0
 23 28  1  0
 24 29  1  0
 25 30  1  0
 29 30  2  0
 26 31  2  0
 26 32  1  0
 27 33  1  0
 28 34  2  0
 28 35  1  0
 30 36  1  0
 32 37  1  0
 31 38  1  0
 32 39  2  0
 33 40  1  1
 33 41  1  0
 34 41  1  0
 34 42  1  0
 35 43  2  0
 38 44  2  0
 39 44  1  0
 42 45  2  0
 43 45  1  0
M  END
