x1385_0-x0769_0
     RDKit          3D

 17 18  0  0  0  0  0  0  0  0999 V2000
    6.5160   -4.3800   20.5290 C   0  0  0  0  0  0  0  0  0  0  0  0
    7.4890   -3.4020   19.8560 C   0  0  0  0  0  0  0  0  0  0  0  0
    5.4430   -4.6010   19.9560 O   0  0  0  0  0  0  0  0  0  0  0  0
    6.8220   -5.0780   21.7210 N   0  0  0  0  0  0  0  0  0  0  0  0
    5.9540   -6.1990   22.1240 C   0  0  0  0  0  0  0  0  0  0  0  0
    7.4880   -4.5150   22.9180 C   0  0  1  0  0  0  0  0  0  0  0  0
    8.5360   -3.3990   22.6330 C   0  0  0  0  0  0  0  0  0  0  0  0
    4.9320   -5.8420   23.0000 C   0  0  0  0  0  0  0  0  0  0  0  0
    6.3620   -4.0570   23.8380 C   0  0  0  0  0  0  0  0  0  0  0  0
    9.4340   -3.2740   23.7350 C   0  0  0  0  0  0  0  0  0  0  0  0
    5.4630   -5.1850   24.2010 N   0  0  0  0  0  0  0  0  0  0  0  0
    9.1320   -4.1790   24.9120 C   0  0  0  0  0  0  0  0  0  0  0  0
    9.6910   -5.4160   25.1780 C   0  0  0  0  0  0  0  0  0  0  0  0
    7.9360   -3.7780   26.2070 S   0  0  0  0  0  0  0  0  0  0  0  0
    9.1930   -6.0110   26.3250 C   0  0  0  0  0  0  0  0  0  0  0  0
    8.2260   -5.2650   26.9910 C   0  0  0  0  0  0  0  0  0  0  0  0
    7.2940   -5.7740   28.5600 Br  0  0  0  0  0  0  0  0  0  0  0  0
  1  2  1  0
  1  3  2  0
  1  4  1  0
  4  5  1  0
  4  6  1  0
  6  7  1  6
  5  8  1  0
  6  9  1  0
  7 10  1  0
  8 11  1  0
  9 11  1  0
 10 12  1  0
 12 13  2  0
 12 14  1  0
 13 15  1  0
 14 16  1  0
 15 16  2  0
 16 17  1  0
M  END
