x1386_0-x0769_0-x0771_0
     RDKit          3D

 17 18  0  0  0  0  0  0  0  0999 V2000
    6.5770   -4.3590   20.6770 C   0  0  0  0  0  0  0  0  0  0  0  0
    7.9600   -3.7530   20.3760 C   0  0  0  0  0  0  0  0  0  0  0  0
    5.6350   -4.3040   19.8660 O   0  0  0  0  0  0  0  0  0  0  0  0
    6.4100   -4.9980   21.9010 N   0  0  0  0  0  0  0  0  0  0  0  0
    5.8340   -6.1640   22.0690 C   0  0  0  0  0  0  0  0  0  0  0  0
    7.0250   -4.4180   23.1160 C   0  0  1  0  0  0  0  0  0  0  0  0
    7.8270   -3.1270   22.8530 C   0  0  0  0  0  0  0  0  0  0  0  0
    4.8520   -6.1120   23.2050 C   0  0  0  0  0  0  0  0  0  0  0  0
    6.0880   -4.2010   24.1130 C   0  0  0  0  0  0  0  0  0  0  0  0
    9.3320   -3.3800   22.8330 C   0  0  0  0  0  0  0  0  0  0  0  0
    5.3630   -5.4400   24.4140 N   0  0  0  0  0  0  0  0  0  0  0  0
   10.0690   -2.6660   23.9540 C   0  0  0  0  0  0  0  0  0  0  0  0
   11.0400   -1.5840   23.5210 C   0  0  0  0  0  0  0  0  0  0  0  0
   12.4590   -1.7630   23.0260 C   0  0  0  0  0  0  0  0  0  0  0  0
   10.7590   -0.2400   23.5140 C   0  0  0  0  0  0  0  0  0  0  0  0
   13.0820   -0.5840   22.7100 C   0  0  0  0  0  0  0  0  0  0  0  0
   12.0690    0.7430   22.9720 S   0  0  0  0  0  0  0  0  0  0  0  0
  1  2  1  0
  1  3  2  0
  1  4  1  0
  4  5  1  0
  4  6  1  0
  6  7  1  6
  5  8  1  0
  6  9  1  0
  7 10  1  0
  8 11  1  0
  9 11  1  0
 10 12  1  0
 12 13  1  0
 13 14  1  0
 13 15  2  0
 14 16  2  0
 15 17  1  0
 16 17  1  0
M  END
