x1385_1-x0736_1-x1412_0-x1386_0
     RDKit          3D

 22 24  0  0  0  0  0  0  0  0999 V2000
    6.2990   -3.2780   19.9040 C   0  0  0  0  0  0  0  0  0  0  0  0
    7.2450   -2.9890   18.7650 C   0  0  0  0  0  0  0  0  0  0  0  0
    5.3500   -4.0390   19.6830 O   0  0  0  0  0  0  0  0  0  0  0  0
    6.5610   -2.7200   21.1490 N   0  0  0  0  0  0  0  0  0  0  0  0
    6.1560   -3.5340   22.3040 C   0  0  0  0  0  0  0  0  0  0  0  0
    7.5660   -1.6510   21.3770 C   0  0  0  0  0  0  0  0  0  0  0  0
    7.3120   -3.8120   23.2760 C   0  0  0  0  0  0  0  0  0  0  0  0
    8.5940   -2.0400   22.2420 C   0  0  0  0  0  0  0  0  0  0  0  0
    8.0510   -2.5750   23.5040 N   0  0  0  0  0  0  0  0  0  0  0  0
    8.9270   -2.5580   24.5850 C   0  0  2  0  0  0  0  0  0  0  0  0
    8.9420   -1.3600   25.3010 O   0  0  0  0  0  0  0  0  0  0  0  0
   10.3620   -2.7240   24.1010 C   0  0  0  0  0  0  0  0  0  0  0  0
    8.7240   -3.6700   25.6610 C   0  0  0  0  0  0  0  0  0  0  0  0
    9.6950   -4.7150   25.6140 C   0  0  0  0  0  0  0  0  0  0  0  0
    7.5200   -3.8390   26.9020 S   0  0  0  0  0  0  0  0  0  0  0  0
   11.1630   -1.4620   23.8080 C   0  0  0  0  0  0  0  0  0  0  0  0
    9.4080   -5.7600   26.7030 C   0  0  0  0  0  0  0  0  0  0  0  0
    8.1660   -5.2940   27.4770 C   0  0  0  0  0  0  0  0  0  0  0  0
   12.2130   -1.4730   22.9290 C   0  0  0  0  0  0  0  0  0  0  0  0
   11.0420   -0.0540   24.3260 C   0  0  0  0  0  0  0  0  0  0  0  0
   12.8660   -0.2870   22.7350 C   0  0  0  0  0  0  0  0  0  0  0  0
   12.2260    1.0120   23.6450 S   0  0  0  0  0  0  0  0  0  0  0  0
  1  2  1  0
  1  3  2  0
  1  4  1  0
  4  5  1  0
  4  6  1  0
  5  7  1  0
  6  8  1  0
  7  9  1  0
  8  9  1  0
  9 10  1  0
 10 11  1  1
 10 12  1  0
 10 13  1  0
 13 14  2  0
 13 15  1  0
 12 16  1  0
 14 17  1  0
 15 18  1  0
 17 18  2  0
 16 19  1  0
 16 20  2  0
 19 21  2  0
 20 22  1  0
 21 22  1  0
M  END
