x1386_1-x0770_1-x0692_1-x1418_1-x1374_1-x0831_1-x0831_0-x0426_1-x1334_1-x1385_1-x0397_0-x1334_0
     RDKit          3D

 45 50  0  0  0  0  0  0  0  0999 V2000
    2.7180   -7.3530   23.4570 O   0  0  0  0  0  0  0  0  0  0  0  0
    2.9890   -7.5110   24.8370 C   0  0  0  0  0  0  0  0  0  0  0  0
    4.3670   -7.8030   25.0260 O   0  0  0  0  0  0  0  0  0  0  0  0
    5.1890   -7.4010   23.9420 C   0  0  0  0  0  0  0  0  0  0  0  0
    6.0320   -6.3550   24.1350 C   0  0  0  0  0  0  0  0  0  0  0  0
    6.5040   -6.0430   22.7470 C   0  0  2  0  0  0  0  0  0  0  0  0
    6.2390   -4.9600   22.0790 C   0  0  1  0  0  0  0  0  0  0  0  0
    5.3920   -6.1910   21.6660 C   0  0  0  0  0  0  0  0  0  0  0  0
    5.5340   -3.7680   22.5810 C   0  0  0  0  0  0  0  0  0  0  0  0
    6.4640   -2.6480   22.4030 C   0  0  2  0  0  0  0  0  0  0  0  0
    6.6490   -2.2180   21.0060 N   0  0  0  0  0  0  0  0  0  0  0  0
    7.8430   -3.1120   22.9480 C   0  0  0  0  0  0  0  0  0  0  0  0
    6.4880   -3.0980   19.8610 C   0  0  0  0  0  0  0  0  0  0  0  0
    8.8110   -1.9870   22.9570 N   0  0  0  0  0  0  0  0  0  0  0  0
    7.6730   -1.1670   20.9870 C   0  0  2  0  0  0  0  0  0  0  0  0
    7.4470   -2.9510   18.6950 C   0  0  0  0  0  0  0  0  0  0  0  0
    5.6080   -3.9880   19.7500 O   0  0  0  0  0  0  0  0  0  0  0  0
   10.0760   -2.2060   23.3410 C   0  0  2  0  0  0  0  0  0  0  0  0
    9.0060   -1.6990   21.5440 C   0  0  0  0  0  0  0  0  0  0  0  0
    7.3160   -0.0100   21.9300 C   0  0  0  0  0  0  0  0  0  0  0  0
   10.4340   -3.3210   24.2550 C   0  0  0  0  0  0  0  0  0  0  0  0
   10.8000   -0.8850   23.4260 C   0  0  0  0  0  0  0  0  0  0  0  0
    5.8750    0.4510   21.7470 C   0  0  1  0  0  0  0  0  0  0  0  0
   10.2770    0.3410   23.9550 C   0  0  0  0  0  0  0  0  0  0  0  0
   12.1240   -0.7970   22.9270 C   0  0  0  0  0  0  0  0  0  0  0  0
    9.5840   -3.9720   25.3400 C   0  0  0  0  0  0  0  0  0  0  0  0
    5.7180    1.6770   22.4110 C   0  0  0  0  0  0  0  0  0  0  0  0
    5.7240    0.7590   20.3110 C   0  0  0  0  0  0  0  0  0  0  0  0
   12.8350   -1.9720   22.3200 C   0  0  0  0  0  0  0  0  0  0  0  0
   11.0200    1.5240   23.9750 C   0  0  0  0  0  0  0  0  0  0  0  0
   12.8650    0.3770   22.9470 C   0  0  0  0  0  0  0  0  0  0  0  0
   10.1100   -5.0740   25.9520 C   0  0  0  0  0  0  0  0  0  0  0  0
    7.9770   -3.5950   26.0460 S   0  0  0  0  0  0  0  0  0  0  0  0
    4.2770    2.2690   22.2520 C   0  0  2  0  0  0  0  0  0  0  0  0
    4.6200    1.6360   19.9220 C   0  0  0  0  0  0  0  0  0  0  0  0
    6.5810    0.2720   19.3150 C   0  0  0  0  0  0  0  0  0  0  0  0
   12.3010    1.5190   23.4680 C   0  0  0  0  0  0  0  0  0  0  0  0
    9.4060   -5.6330   26.9150 C   0  0  0  0  0  0  0  0  0  0  0  0
    8.0900   -4.9400   27.1880 C   0  0  0  0  0  0  0  0  0  0  0  0
    3.5550    1.9420   23.3480 N   0  0  0  0  0  0  0  0  0  0  0  0
    3.6880    2.1580   20.9660 C   0  0  0  0  0  0  0  0  0  0  0  0
    4.4910    1.9490   18.5990 C   0  0  0  0  0  0  0  0  0  0  0  0
    6.4500    0.5750   18.0120 N   0  0  0  0  0  0  0  0  0  0  0  0
    6.8890   -5.3120   28.3540 Cl  0  0  0  0  0  0  0  0  0  0  0  0
    5.3790    1.4400   17.6810 C   0  0  0  0  0  0  0  0  0  0  0  0
  1  2  1  0
  2  3  1  0
  3  4  1  0
  4  5  1  0
  6  5  1  1
  6  7  1  0
  6  8  1  0
  7  8  1  0
  7  9  1  1
 10  9  1  6
 10 11  1  0
 10 12  1  0
 11 13  1  0
 12 14  1  0
 11 15  1  0
 13 16  1  0
 13 17  2  0
 14 18  1  0
 14 19  1  0
 15 19  1  0
 15 20  1  1
 18 21  1  1
 18 22  1  0
 23 20  1  6
 22 24  2  0
 22 25  1  0
 21 26  1  0
 23 27  1  0
 23 28  1  0
 25 29  1  0
 24 30  1  0
 25 31  2  0
 26 32  2  0
 26 33  1  0
 27 34  1  0
 28 35  2  0
 28 36  1  0
 30 37  2  0
 31 37  1  0
 32 38  1  0
 33 39  1  0
 38 39  2  0
 34 40  1  1
 34 41  1  0
 35 41  1  0
 35 42  1  0
 36 43  2  0
 39 44  1  0
 42 45  2  0
 43 45  1  0
M  END
