x1385_0-x0981_1-x0434_2-x1412_1-x1412_0
     RDKit          3D

 37 39  0  0  0  0  0  0  0  0999 V2000
    4.0840   -5.2740   23.1750 C   0  0  0  0  0  0  0  0  0  0  0  0
    2.7950   -6.0040   23.5620 C   0  0  1  0  0  0  0  0  0  0  0  0
    2.6050   -7.2470   22.8060 N   0  0  0  0  0  0  0  0  0  0  0  0
    4.2350   -3.9360   23.5400 N   0  0  0  0  0  0  0  0  0  0  0  0
    2.7680   -6.2150   25.0720 C   0  0  0  0  0  0  0  0  0  0  0  0
    5.4060   -3.1020   23.2150 C   0  0  0  0  0  0  0  0  0  0  0  0
    1.3330   -7.4710   22.1130 C   0  0  0  0  0  0  0  0  0  0  0  0
    3.1460   -7.7000   25.2980 C   0  0  0  0  0  0  0  0  0  0  0  0
    6.3200   -3.7390   22.3490 C   0  0  1  0  0  0  0  0  0  0  0  0
    1.2290   -8.7540   21.3280 C   0  0  0  0  0  0  0  0  0  0  0  0
    0.4140   -6.6590   22.1470 O   0  0  0  0  0  0  0  0  0  0  0  0
    2.4840   -8.3710   26.2760 N   0  0  0  0  0  0  0  0  0  0  0  0
    4.0080   -8.1920   24.6030 O   0  0  0  0  0  0  0  0  0  0  0  0
    6.6170   -2.8650   21.1850 N   0  0  0  0  0  0  0  0  0  0  0  0
    7.5380   -4.1000   23.0520 C   0  0  0  0  0  0  0  0  0  0  0  0
    6.3450   -3.3980   19.9370 C   0  0  0  0  0  0  0  0  0  0  0  0
    8.7540   -3.2440   23.0990 N   0  0  0  0  0  0  0  0  0  0  0  0
    7.7410   -1.9060   21.2230 C   0  0  1  0  0  0  0  0  0  0  0  0
    7.3390   -3.0850   18.8370 C   0  0  0  0  0  0  0  0  0  0  0  0
    5.3730   -4.1320   19.7320 O   0  0  0  0  0  0  0  0  0  0  0  0
    9.2670   -2.9040   24.4390 C   0  0  1  0  0  0  0  0  0  0  0  0
    7.0560   -0.6230   21.4110 N   0  0  0  0  0  0  0  0  0  0  0  0
    8.8110   -2.1280   22.1140 C   0  0  0  0  0  0  0  0  0  0  0  0
    8.6560   -1.8000   24.9670 C   0  0  0  0  0  0  0  0  0  0  0  0
    9.0580   -3.9290   25.4110 C   0  0  0  0  0  0  0  0  0  0  0  0
    6.3840    0.0420   20.2780 C   0  0  0  0  0  0  0  0  0  0  0  0
    8.5470   -0.7220   24.4220 O   0  0  0  0  0  0  0  0  0  0  0  0
    9.8320   -4.9620   25.7320 C   0  0  0  0  0  0  0  0  0  0  0  0
    7.6370   -3.9170   26.3740 S   0  0  0  0  0  0  0  0  0  0  0  0
    6.9180   -0.0270   18.9990 C   0  0  0  0  0  0  0  0  0  0  0  0
    5.1130    0.8490   20.2850 C   0  0  0  0  0  0  0  0  0  0  0  0
    9.3200   -5.7630   26.7290 C   0  0  0  0  0  0  0  0  0  0  0  0
    8.0930   -5.3220   27.2120 C   0  0  0  0  0  0  0  0  0  0  0  0
    6.4300    0.5350   17.8610 N   0  0  0  0  0  0  0  0  0  0  0  0
    4.6140    1.4200   19.1240 C   0  0  0  0  0  0  0  0  0  0  0  0
    7.0050   -6.0690   28.5760 Br  0  0  0  0  0  0  0  0  0  0  0  0
    5.3000    1.2430   17.9410 C   0  0  0  0  0  0  0  0  0  0  0  0
  2  1  1  6
  2  3  1  0
  1  4  2  3
  2  5  1  0
  4  6  1  0
  3  7  1  0
  5  8  1  0
  9  6  1  1
  7 10  1  0
  7 11  2  0
  8 12  1  0
  8 13  2  0
  9 14  1  0
  9 15  1  0
 14 16  1  0
 15 17  1  0
 14 18  1  0
 16 19  1  0
 16 20  2  0
 17 21  1  0
 18 22  1  1
 17 23  1  0
 18 23  1  0
 21 24  1  1
 21 25  1  0
 22 26  1  0
 24 27  2  0
 25 28  2  0
 25 29  1  0
 26 30  2  0
 26 31  1  0
 28 32  1  0
 29 33  1  0
 32 33  2  0
 30 34  1  0
 31 35  2  0
 33 36  1  0
 34 37  2  0
 35 37  1  0
M  END
