x1386_1-x0831_0-x1334_1-x1334_0-x1374_1-x0426_1-x1418_1-x0692_1
     RDKit          3D

 44 49  0  0  0  0  0  0  0  0999 V2000
    6.4460   -3.2700   19.8120 C   0  0  0  0  0  0  0  0  0  0  0  0
    7.4560   -3.0160   18.7090 C   0  0  0  0  0  0  0  0  0  0  0  0
    5.4400   -3.9680   19.6480 O   0  0  0  0  0  0  0  0  0  0  0  0
    6.7390   -2.6900   21.0400 N   0  0  0  0  0  0  0  0  0  0  0  0
    7.4160   -1.5170   21.1740 C   0  0  2  0  0  0  0  0  0  0  0  0
    6.8180   -3.4700   22.2950 C   0  0  1  0  0  0  0  0  0  0  0  0
    6.3030   -4.9040   22.0840 C   0  0  0  0  0  0  0  0  0  0  0  0
    8.8620   -1.8150   21.4190 C   0  0  0  0  0  0  0  0  0  0  0  0
    8.0990   -3.5670   22.8390 C   0  0  0  0  0  0  0  0  0  0  0  0
    6.8660   -0.6300   22.3080 C   0  0  0  0  0  0  0  0  0  0  0  0
    8.8040   -2.3040   22.7390 N   0  0  0  0  0  0  0  0  0  0  0  0
    5.0520   -5.1000   22.8610 C   0  0  2  0  0  0  0  0  0  0  0  0
    6.1320    0.6580   21.9680 C   0  0  2  0  0  0  0  0  0  0  0  0
   10.0670   -2.2680   23.3890 C   0  0  2  0  0  0  0  0  0  0  0  0
    4.9310   -4.7100   24.2080 C   0  0  0  0  0  0  0  0  0  0  0  0
    4.7990   -6.4700   22.8240 C   0  0  0  0  0  0  0  0  0  0  0  0
    4.8940    0.5740   22.4690 C   0  0  0  0  0  0  0  0  0  0  0  0
    5.8990    0.8270   20.4860 C   0  0  0  0  0  0  0  0  0  0  0  0
    9.8830   -2.5510   24.8220 C   0  0  0  0  0  0  0  0  0  0  0  0
   10.8090   -1.1320   23.3960 C   0  0  0  0  0  0  0  0  0  0  0  0
    4.1640   -5.5450   25.2460 C   0  0  0  0  0  0  0  0  0  0  0  0
    3.6730   -6.8700   24.1380 S   0  0  0  0  0  0  0  0  0  0  0  0
    4.2170    1.9570   22.3640 C   0  0  2  0  0  0  0  0  0  0  0  0
    4.6640    1.5540   20.0640 C   0  0  0  0  0  0  0  0  0  0  0  0
    6.7760    0.3490   19.5090 C   0  0  0  0  0  0  0  0  0  0  0  0
    2.1780   -6.7990   23.6070 O   0  0  0  0  0  0  0  0  0  0  0  0
    4.0340   -8.1820   24.5390 O   0  0  0  0  0  0  0  0  0  0  0  0
   10.2650    0.0200   23.9250 C   0  0  0  0  0  0  0  0  0  0  0  0
   12.1050   -1.0590   22.8720 C   0  0  0  0  0  0  0  0  0  0  0  0
    9.4760   -3.8480   25.4830 C   0  0  0  0  0  0  0  0  0  0  0  0
    3.3460    2.1300   23.5360 N   0  0  0  0  0  0  0  0  0  0  0  0
    3.6630    2.0820   21.1010 C   0  0  0  0  0  0  0  0  0  0  0  0
    4.4400    1.7520   18.6830 C   0  0  0  0  0  0  0  0  0  0  0  0
    6.5960    0.5050   18.1760 N   0  0  0  0  0  0  0  0  0  0  0  0
   12.8000   -2.2140   22.2550 C   0  0  0  0  0  0  0  0  0  0  0  0
   10.9080    1.4120   24.0230 C   0  0  0  0  0  0  0  0  0  0  0  0
   12.8660    0.2420   22.9000 C   0  0  0  0  0  0  0  0  0  0  0  0
    9.9530   -5.1430   25.4870 C   0  0  0  0  0  0  0  0  0  0  0  0
    8.1180   -3.8070   26.5410 S   0  0  0  0  0  0  0  0  0  0  0  0
    5.5160    1.1660   17.7800 C   0  0  0  0  0  0  0  0  0  0  0  0
   12.2310    1.4780   23.4870 C   0  0  0  0  0  0  0  0  0  0  0  0
    9.2810   -6.0080   26.3260 C   0  0  0  0  0  0  0  0  0  0  0  0
    8.2380   -5.4280   27.0020 C   0  0  0  0  0  0  0  0  0  0  0  0
    7.1390   -6.0570   28.1530 Cl  0  0  0  0  0  0  0  0  0  0  0  0
  1  2  1  0
  1  3  2  0
  1  4  1  0
  4  5  1  0
  4  6  1  0
  6  7  1  6
  5  8  1  0
  6  9  1  0
  5 10  1  1
  8 11  1  0
  9 11  1  0
 12  7  1  1
 13 10  1  6
 11 14  1  0
 12 15  1  0
 12 16  1  0
 13 17  1  0
 13 18  1  0
 14 19  1  1
 14 20  1  0
 15 21  2  0
 16 22  1  0
 21 22  1  0
 17 23  1  0
 18 24  2  0
 18 25  1  0
 22 26  1  0
 22 27  1  0
 20 28  2  0
 20 29  1  0
 19 30  1  0
 23 31  1  1
 23 32  1  0
 24 32  1  0
 24 33  1  0
 25 34  2  0
 29 35  1  0
 28 36  1  0
 29 37  2  0
 30 38  2  0
 30 39  1  0
 33 40  2  0
 34 40  1  0
 36 41  2  0
 37 41  1  0
 38 42  1  0
 39 43  1  0
 42 43  2  0
 43 44  1  0
M  END
