x1384_1-x0831_1
     RDKit          3D

 18 19  0  0  0  0  0  0  0  0999 V2000
    6.2150   -3.4340   20.0190 C   0  0  0  0  0  0  0  0  0  0  0  0
    7.2170   -3.0530   18.9330 C   0  0  0  0  0  0  0  0  0  0  0  0
    5.3350   -4.2680   19.7860 O   0  0  0  0  0  0  0  0  0  0  0  0
    6.3600   -2.8370   21.2740 N   0  0  0  0  0  0  0  0  0  0  0  0
    6.3110   -1.3700   21.2950 C   0  0  0  0  0  0  0  0  0  0  0  0
    6.9130   -3.5300   22.4470 C   0  0  0  0  0  0  0  0  0  0  0  0
    7.5740   -0.7680   21.1620 C   0  0  0  0  0  0  0  0  0  0  0  0
    7.3950   -2.6200   23.5920 C   0  0  2  0  0  0  0  0  0  0  0  0
    6.4670   -1.6610   24.1390 C   0  0  0  0  0  0  0  0  0  0  0  0
    8.5710   -1.8280   23.1930 N   0  0  0  0  0  0  0  0  0  0  0  0
    8.7010   -1.6290   21.7670 C   0  0  0  0  0  0  0  0  0  0  0  0
    6.4030   -1.6580   25.6850 C   0  0  0  0  0  0  0  0  0  0  0  0
    5.6180   -2.4950   26.1370 O   0  0  0  0  0  0  0  0  0  0  0  0
    4.2260   -2.2520   25.8510 C   0  0  1  0  0  0  0  0  0  0  0  0
    3.5780   -3.4970   25.3440 N   0  0  0  0  0  0  0  0  0  0  0  0
    3.2810   -1.8390   26.9790 C   0  0  0  0  0  0  0  0  0  0  0  0
    2.3030   -3.6370   25.8060 C   0  0  0  0  0  0  0  0  0  0  0  0
    2.1150   -2.5630   26.9080 C   0  0  0  0  0  0  0  0  0  0  0  0
  1  2  1  0
  1  3  2  0
  1  4  1  0
  4  5  1  0
  4  6  1  0
  5  7  1  0
  6  8  1  0
  8  9  1  6
  8 10  1  0
  7 11  1  0
 10 11  1  0
  9 12  1  0
 12 13  1  0
 14 13  1  1
 14 15  1  0
 14 16  1  0
 15 17  1  0
 16 18  1  0
 17 18  1  0
M  END
