x1385_1-x1412_0-x0692_1
     RDKit          3D

 16 17  0  0  0  0  0  0  0  0999 V2000
    6.3550   -3.2110   19.8650 C   0  0  0  0  0  0  0  0  0  0  0  0
    7.3490   -2.9480   18.7520 C   0  0  0  0  0  0  0  0  0  0  0  0
    5.4210   -4.0040   19.6740 O   0  0  0  0  0  0  0  0  0  0  0  0
    6.5380   -2.5710   21.0880 N   0  0  0  0  0  0  0  0  0  0  0  0
    6.1850   -3.4080   22.2330 C   0  0  0  0  0  0  0  0  0  0  0  0
    7.6250   -1.5710   21.2890 C   0  0  0  0  0  0  0  0  0  0  0  0
    7.4430   -3.9850   22.9050 C   0  0  0  0  0  0  0  0  0  0  0  0
    8.7540   -1.9750   22.2890 C   0  0  0  0  0  0  0  0  0  0  0  0
    8.3010   -2.9230   23.3330 N   0  0  0  0  0  0  0  0  0  0  0  0
    8.5440   -2.7220   24.6600 C   0  0  0  0  0  0  0  0  0  0  0  0
    8.6220   -1.5560   25.0570 O   0  0  0  0  0  0  0  0  0  0  0  0
    8.6730   -3.7200   25.5390 C   0  0  0  0  0  0  0  0  0  0  0  0
    9.6220   -4.8890   25.4800 C   0  0  0  0  0  0  0  0  0  0  0  0
    7.6860   -3.9160   27.0420 S   0  0  0  0  0  0  0  0  0  0  0  0
    9.4400   -5.8260   26.6590 C   0  0  0  0  0  0  0  0  0  0  0  0
    8.4280   -5.4010   27.5690 C   0  0  0  0  0  0  0  0  0  0  0  0
  1  2  1  0
  1  3  2  0
  1  4  1  0
  4  5  1  0
  4  6  1  0
  5  7  1  0
  6  8  1  0
  7  9  1  0
  8  9  1  0
  9 10  1  0
 10 11  2  0
 10 12  1  0
 12 13  2  0
 12 14  1  0
 13 15  1  0
 14 16  1  0
 15 16  2  0
M  END
