x1385_1-x0397_0-x0831_0-x0692_1-x1418_1-x1386_0-x1412_0-x0770_1-x0831_1
     RDKit          3D

 29 32  0  0  0  0  0  0  0  0999 V2000
    6.3970   -3.2140   19.7970 C   0  0  0  0  0  0  0  0  0  0  0  0
    7.3870   -2.9670   18.6790 C   0  0  0  0  0  0  0  0  0  0  0  0
    5.4150   -3.9540   19.6310 O   0  0  0  0  0  0  0  0  0  0  0  0
    6.6490   -2.6190   21.0240 N   0  0  0  0  0  0  0  0  0  0  0  0
    7.0910   -3.5830   22.0620 C   0  0  1  0  0  0  0  0  0  0  0  0
    7.4750   -1.4080   20.9560 C   0  0  0  0  0  0  0  0  0  0  0  0
    7.6310   -2.9070   23.3090 C   0  0  0  0  0  0  0  0  0  0  0  0
    8.8070   -1.7120   21.5930 C   0  0  0  0  0  0  0  0  0  0  0  0
    5.9000   -4.5480   22.4370 C   0  0  0  0  0  0  0  0  0  0  0  0
    8.6500   -1.8850   23.0300 N   0  0  0  0  0  0  0  0  0  0  0  0
    6.5110   -5.6150   23.2300 C   0  0  0  0  0  0  0  0  0  0  0  0
    5.9250   -6.2690   22.2040 C   0  0  0  0  0  0  0  0  0  0  0  0
    9.8140   -1.8840   23.7470 C   0  0  1  0  0  0  0  0  0  0  0  0
    9.6170   -1.7570   25.2110 C   0  0  0  0  0  0  0  0  0  0  0  0
   10.5700   -3.2560   23.5090 C   0  0  0  0  0  0  0  0  0  0  0  0
   10.7560   -0.7310   23.5340 C   0  0  0  0  0  0  0  0  0  0  0  0
    8.3200   -2.4040   25.6130 C   0  0  0  0  0  0  0  0  0  0  0  0
   10.2680    0.6490   24.0630 C   0  0  0  0  0  0  0  0  0  0  0  0
   12.0260   -0.8270   22.9030 C   0  0  0  0  0  0  0  0  0  0  0  0
   12.6420   -2.0670   22.3330 C   0  0  0  0  0  0  0  0  0  0  0  0
    7.2460   -1.8450   25.4690 O   0  0  0  0  0  0  0  0  0  0  0  0
   11.1110    1.8960   23.9190 C   0  0  0  0  0  0  0  0  0  0  0  0
   12.8260    0.4570   22.7990 C   0  0  0  0  0  0  0  0  0  0  0  0
    8.5150   -3.7680   26.2220 C   0  0  0  0  0  0  0  0  0  0  0  0
   12.3350    1.8280   23.3200 C   0  0  0  0  0  0  0  0  0  0  0  0
    9.3470   -4.7580   25.7990 C   0  0  0  0  0  0  0  0  0  0  0  0
    7.6620   -4.2840   27.6450 S   0  0  0  0  0  0  0  0  0  0  0  0
    9.3570   -5.9120   26.5330 C   0  0  0  0  0  0  0  0  0  0  0  0
    8.5030   -5.8750   27.6070 C   0  0  0  0  0  0  0  0  0  0  0  0
  1  2  1  0
  1  3  2  0
  1  4  1  0
  4  5  1  0
  4  6  1  0
  5  7  1  0
  6  8  1  0
  5  9  1  1
  7 10  1  0
  8 10  1  0
  9 11  1  0
  9 12  1  0
 11 12  1  0
 10 13  1  0
 13 14  1  0
 13 15  1  1
 13 16  1  0
 14 17  1  0
 16 18  2  0
 16 19  1  0
 19 20  1  0
 17 21  2  0
 18 22  1  0
 19 23  2  0
 17 24  1  0
 22 25  2  0
 23 25  1  0
 24 26  2  0
 24 27  1  0
 26 28  1  0
 27 29  1  0
 28 29  2  0
M  END
