x1386_1-x0692_0-x1374_1
     RDKit          3D

 25 27  0  0  0  0  0  0  0  0999 V2000
    6.4220   -3.1200   19.7470 C   0  0  0  0  0  0  0  0  0  0  0  0
    7.3920   -2.9530   18.6070 C   0  0  0  0  0  0  0  0  0  0  0  0
    5.4100   -3.8320   19.5800 O   0  0  0  0  0  0  0  0  0  0  0  0
    6.7540   -2.4960   20.9400 N   0  0  0  0  0  0  0  0  0  0  0  0
    7.6800   -1.3490   20.9300 C   0  0  0  0  0  0  0  0  0  0  0  0
    6.5700   -3.1740   22.2340 C   0  0  1  0  0  0  0  0  0  0  0  0
    6.1270   -4.6200   21.9550 C   0  0  0  0  0  0  0  0  0  0  0  0
    8.9260   -1.6310   21.7950 C   0  0  0  0  0  0  0  0  0  0  0  0
    7.6650   -3.2670   23.0670 C   0  0  0  0  0  0  0  0  0  0  0  0
    8.5030   -2.0910   23.1230 N   0  0  0  0  0  0  0  0  0  0  0  0
    4.8790   -5.0060   22.7300 C   0  0  2  0  0  0  0  0  0  0  0  0
    9.5090   -2.1850   24.0630 C   0  0  0  0  0  0  0  0  0  0  0  0
    4.9200   -4.5980   24.0730 C   0  0  0  0  0  0  0  0  0  0  0  0
    4.6550   -6.5220   22.7790 C   0  0  0  0  0  0  0  0  0  0  0  0
   10.6070   -1.2590   23.7230 C   0  0  0  0  0  0  0  0  0  0  0  0
    4.3500   -5.3880   25.0590 C   0  0  0  0  0  0  0  0  0  0  0  0
    3.7540   -6.7270   24.2730 S   0  0  0  0  0  0  0  0  0  0  0  0
    2.3400   -6.6970   23.9730 O   0  0  0  0  0  0  0  0  0  0  0  0
    4.1980   -8.0710   24.9470 O   0  0  0  0  0  0  0  0  0  0  0  0
   10.4270    0.0940   23.8340 C   0  0  0  0  0  0  0  0  0  0  0  0
   11.8770   -1.7830   23.2640 C   0  0  0  0  0  0  0  0  0  0  0  0
   11.3520    1.0100   23.5400 C   0  0  0  0  0  0  0  0  0  0  0  0
   12.9960   -0.7850   22.9100 C   0  0  0  0  0  0  0  0  0  0  0  0
   11.0320    2.4570   23.6810 C   0  0  0  0  0  0  0  0  0  0  0  0
   12.7090    0.5080   23.0550 C   0  0  0  0  0  0  0  0  0  0  0  0
  1  2  1  0
  1  3  2  0
  1  4  1  0
  4  5  1  0
  4  6  1  0
  6  7  1  6
  5  8  1  0
  6  9  1  0
  8 10  1  0
  9 10  1  0
 11  7  1  1
 10 12  1  0
 11 13  1  0
 11 14  1  0
 12 15  1  0
 13 16  2  0
 14 17  1  0
 16 17  1  0
 17 18  1  0
 17 19  1  0
 15 20  2  0
 15 21  1  0
 20 22  1  0
 21 23  2  0
 22 24  1  0
 22 25  2  0
 23 25  1  0
M  END
