x1386_1-x0831_0
     RDKit          3D

 17 18  0  0  0  0  0  0  0  0999 V2000
    6.4440   -3.2210   19.8380 C   0  0  0  0  0  0  0  0  0  0  0  0
    7.4020   -2.9870   18.6890 C   0  0  0  0  0  0  0  0  0  0  0  0
    5.4900   -4.0090   19.7100 O   0  0  0  0  0  0  0  0  0  0  0  0
    6.7240   -2.5250   21.0200 N   0  0  0  0  0  0  0  0  0  0  0  0
    7.5910   -1.3290   21.0300 C   0  0  0  0  0  0  0  0  0  0  0  0
    6.6430   -3.1290   22.3520 C   0  0  0  0  0  0  0  0  0  0  0  0
    8.9390   -1.6750   21.6250 C   0  0  0  0  0  0  0  0  0  0  0  0
    7.9220   -3.3870   22.8790 C   0  0  0  0  0  0  0  0  0  0  0  0
    8.7780   -2.1810   22.8850 N   0  0  0  0  0  0  0  0  0  0  0  0
   10.0730   -2.3500   23.5350 C   0  0  0  0  0  0  0  0  0  0  0  0
   10.7970   -1.0390   23.5470 C   0  0  0  0  0  0  0  0  0  0  0  0
   10.2550    0.2010   24.1660 C   0  0  0  0  0  0  0  0  0  0  0  0
   12.0560   -0.9860   22.9180 C   0  0  0  0  0  0  0  0  0  0  0  0
   12.6650   -2.1080   22.2880 C   0  0  0  0  0  0  0  0  0  0  0  0
   10.8850    1.4170   24.1680 C   0  0  0  0  0  0  0  0  0  0  0  0
   12.7870    0.3590   22.9160 C   0  0  0  0  0  0  0  0  0  0  0  0
   12.2610    1.5040   23.4890 C   0  0  0  0  0  0  0  0  0  0  0  0
  1  2  1  0
  1  3  2  0
  1  4  1  0
  4  5  1  0
  4  6  1  0
  5  7  1  0
  6  8  1  0
  7  9  1  0
  8  9  1  0
  9 10  1  0
 10 11  1  0
 11 12  2  0
 11 13  1  0
 13 14  1  0
 12 15  1  0
 13 16  2  0
 15 17  2  0
 16 17  1  0
M  END
