x1385_1-x0397_0-x0831_0-x0692_1-x1334_1-x0831_1-x0770_1-x1386_1-x0434_2-x0426_1-x1418_1-x1412_1-x1374_1-x1334_0
     RDKit          3D

 44 49  0  0  0  0  0  0  0  0999 V2000
    2.2660   -7.6770   23.3240 O   0  0  0  0  0  0  0  0  0  0  0  0
    2.6350   -7.9030   24.6660 C   0  0  0  0  0  0  0  0  0  0  0  0
    4.0410   -7.8490   24.7090 O   0  0  0  0  0  0  0  0  0  0  0  0
    4.5890   -7.0680   23.6480 C   0  0  0  0  0  0  0  0  0  0  0  0
    5.0580   -5.7870   24.0340 C   0  0  0  0  0  0  0  0  0  0  0  0
    6.0280   -5.2440   23.0350 C   0  0  2  0  0  0  0  0  0  0  0  0
    5.7100   -4.2530   22.1390 C   0  0  2  0  0  0  0  0  0  0  0  0
    6.2730   -5.7010   21.6930 C   0  0  0  0  0  0  0  0  0  0  0  0
    6.4780   -2.8860   22.2990 C   0  0  1  0  0  0  0  0  0  0  0  0
    7.7940   -3.3300   22.9580 C   0  0  0  0  0  0  0  0  0  0  0  0
    6.5770   -2.0460   21.0170 C   0  0  1  0  0  0  0  0  0  0  0  0
    6.3410   -3.0440   19.7890 C   0  0  0  0  0  0  0  0  0  0  0  0
    5.6940   -0.7880   21.1670 C   0  0  2  0  0  0  0  0  0  0  0  0
    8.6790   -2.2030   22.9110 N   0  0  0  0  0  0  0  0  0  0  0  0
    7.8950   -1.3720   20.7790 C   0  0  0  0  0  0  0  0  0  0  0  0
    7.4080   -2.9630   18.6890 C   0  0  0  0  0  0  0  0  0  0  0  0
    5.4230   -3.8860   19.6790 O   0  0  0  0  0  0  0  0  0  0  0  0
    4.4740   -0.7080   22.0250 C   0  0  0  0  0  0  0  0  0  0  0  0
    9.9780   -2.3330   23.4010 C   0  0  2  0  0  0  0  0  0  0  0  0
    9.0730   -1.8410   21.5710 C   0  0  0  0  0  0  0  0  0  0  0  0
    5.5970    0.0080   19.9190 C   0  0  0  0  0  0  0  0  0  0  0  0
    4.6280    0.4590   23.0040 C   0  0  0  0  0  0  0  0  0  0  0  0
   10.2560   -3.6330   24.0690 C   0  0  0  0  0  0  0  0  0  0  0  0
    4.6480    1.0450   19.8270 C   0  0  0  0  0  0  0  0  0  0  0  0
    6.4040   -0.1900   18.8140 C   0  0  0  0  0  0  0  0  0  0  0  0
   10.7520   -0.9740   23.5370 C   0  0  0  0  0  0  0  0  0  0  0  0
    4.1640    1.7900   22.3320 C   0  0  1  0  0  0  0  0  0  0  0  0
    3.6720    1.4420   20.8900 C   0  0  0  0  0  0  0  0  0  0  0  0
    4.5800    1.7720   18.6770 C   0  0  0  0  0  0  0  0  0  0  0  0
    6.3640    0.5060   17.6760 N   0  0  0  0  0  0  0  0  0  0  0  0
   10.2330    0.2510   24.2520 C   0  0  0  0  0  0  0  0  0  0  0  0
   12.1300   -0.8750   22.8450 C   0  0  0  0  0  0  0  0  0  0  0  0
    9.4890   -4.2840   25.1750 C   0  0  0  0  0  0  0  0  0  0  0  0
    3.0220    2.2950   23.0600 N   0  0  0  0  0  0  0  0  0  0  0  0
   12.7650   -1.9950   22.0910 C   0  0  0  0  0  0  0  0  0  0  0  0
    5.4450    1.4660   17.6490 C   0  0  0  0  0  0  0  0  0  0  0  0
   11.0460    1.3530   24.1980 C   0  0  0  0  0  0  0  0  0  0  0  0
   12.8170    0.3390   22.9160 C   0  0  0  0  0  0  0  0  0  0  0  0
    9.7760   -5.5870   25.5840 C   0  0  0  0  0  0  0  0  0  0  0  0
    8.1720   -3.6690   26.1650 S   0  0  0  0  0  0  0  0  0  0  0  0
   12.2210    1.3850   23.5870 C   0  0  0  0  0  0  0  0  0  0  0  0
    9.0280   -6.0190   26.5890 C   0  0  0  0  0  0  0  0  0  0  0  0
    8.0970   -5.1330   27.0600 C   0  0  0  0  0  0  0  0  0  0  0  0
    6.9980   -5.3960   28.3450 Cl  0  0  0  0  0  0  0  0  0  0  0  0
  1  2  1  0
  2  3  1  0
  3  4  1  0
  4  5  1  0
  6  5  1  6
  6  7  1  0
  6  8  1  0
  7  8  1  6
  7  9  1  0
  9 10  1  6
  9 11  1  0
 11 12  1  6
 11 13  1  0
 10 14  1  0
 11 15  1  0
 12 16  1  0
 12 17  2  0
 13 18  1  6
 14 19  1  0
 14 20  1  0
 15 20  1  0
 13 21  1  0
 18 22  1  0
 19 23  1  1
 21 24  2  0
 21 25  1  0
 19 26  1  0
 22 27  1  0
 24 28  1  0
 27 28  1  0
 24 29  1  0
 25 30  2  0
 26 31  2  0
 26 32  1  0
 23 33  1  0
 27 34  1  1
 32 35  1  0
 29 36  2  0
 30 36  1  0
 31 37  1  0
 32 38  2  0
 33 39  2  0
 33 40  1  0
 37 41  2  0
 38 41  1  0
 39 42  1  0
 40 43  1  0
 42 43  2  0
 43 44  1  0
M  END
