x1386_1-x0692_0-x0692_1
     RDKit          3D

 17 18  0  0  0  0  0  0  0  0999 V2000
    6.3400   -3.1310   19.7610 C   0  0  0  0  0  0  0  0  0  0  0  0
    7.3600   -2.9810   18.6590 C   0  0  0  0  0  0  0  0  0  0  0  0
    5.4230   -3.9630   19.6630 O   0  0  0  0  0  0  0  0  0  0  0  0
    6.5220   -2.3170   20.8600 N   0  0  0  0  0  0  0  0  0  0  0  0
    7.5570   -1.2640   20.8780 C   0  0  0  0  0  0  0  0  0  0  0  0
    6.1700   -2.8890   22.1670 C   0  0  0  0  0  0  0  0  0  0  0  0
    8.7620   -1.6100   21.7930 C   0  0  0  0  0  0  0  0  0  0  0  0
    7.4320   -3.3080   22.9500 C   0  0  0  0  0  0  0  0  0  0  0  0
    8.3260   -2.1600   23.0690 N   0  0  0  0  0  0  0  0  0  0  0  0
    9.4180   -2.2830   24.0230 C   0  0  0  0  0  0  0  0  0  0  0  0
   10.5750   -1.3740   23.7050 C   0  0  0  0  0  0  0  0  0  0  0  0
   10.3670    0.0310   23.8530 C   0  0  0  0  0  0  0  0  0  0  0  0
   11.9500   -1.8630   23.2250 C   0  0  0  0  0  0  0  0  0  0  0  0
   11.3220    1.0000   23.5840 C   0  0  0  0  0  0  0  0  0  0  0  0
   12.9930   -0.8610   22.9350 C   0  0  0  0  0  0  0  0  0  0  0  0
   10.9370    2.4150   23.7690 C   0  0  0  0  0  0  0  0  0  0  0  0
   12.6460    0.4620   23.1190 C   0  0  0  0  0  0  0  0  0  0  0  0
  1  2  1  0
  1  3  2  0
  1  4  1  0
  4  5  1  0
  4  6  1  0
  5  7  1  0
  6  8  1  0
  7  9  1  0
  8  9  1  0
  9 10  1  0
 10 11  1  0
 11 12  2  0
 11 13  1  0
 12 14  1  0
 13 15  2  0
 14 16  1  0
 14 17  2  0
 15 17  1  0
M  END
