x1386_0-x0771_0-x1336_1
     RDKit          3D

 27 29  0  0  0  0  0  0  0  0999 V2000
    7.3390   -1.8450   25.1990 S   0  0  0  0  0  0  0  0  0  0  0  0
    6.7740   -2.5430   23.6600 C   0  0  0  0  0  0  0  0  0  0  0  0
    6.8120   -4.0860   23.6680 C   0  0  1  0  0  0  0  0  0  0  0  0
    8.5160   -1.0260   24.9860 O   0  0  0  0  0  0  0  0  0  0  0  0
    6.2040   -1.2560   25.8940 O   0  0  0  0  0  0  0  0  0  0  0  0
    7.8080   -3.2500   26.1850 C   0  0  0  0  0  0  0  0  0  0  0  0
    6.8020   -3.7490   27.2190 C   0  0  0  0  0  0  0  0  0  0  0  0
    9.0450   -3.9490   26.0790 C   0  0  0  0  0  0  0  0  0  0  0  0
   10.2270   -3.6640   25.1430 C   0  0  0  0  0  0  0  0  0  0  0  0
    7.0840   -4.9510   28.1130 C   0  0  0  0  0  0  0  0  0  0  0  0
    9.2610   -5.1630   27.0200 C   0  0  0  0  0  0  0  0  0  0  0  0
    5.4410   -4.5810   23.7110 N   0  0  0  0  0  0  0  0  0  0  0  0
    7.5820   -4.5490   22.6190 C   0  0  0  0  0  0  0  0  0  0  0  0
    6.0780   -5.4200   29.1190 C   0  0  0  0  0  0  0  0  0  0  0  0
    8.3140   -5.5970   27.9560 C   0  0  0  0  0  0  0  0  0  0  0  0
    5.2070   -5.9140   23.0920 C   0  0  0  0  0  0  0  0  0  0  0  0
    6.7280   -5.0330   21.5210 N   0  0  0  0  0  0  0  0  0  0  0  0
   10.0180   -2.7900   23.8880 C   0  0  0  0  0  0  0  0  0  0  0  0
    6.3450   -4.3180   20.3820 C   0  0  0  0  0  0  0  0  0  0  0  0
    5.8800   -6.1460   21.9090 C   0  0  0  0  0  0  0  0  0  0  0  0
   10.9180   -1.7070   23.7390 C   0  0  0  0  0  0  0  0  0  0  0  0
    5.2460   -4.5130   19.8950 O   0  0  0  0  0  0  0  0  0  0  0  0
    7.3040   -3.3250   19.7240 C   0  0  0  0  0  0  0  0  0  0  0  0
   11.9170   -1.7470   22.7750 C   0  0  0  0  0  0  0  0  0  0  0  0
   10.9490   -0.5230   24.4660 C   0  0  0  0  0  0  0  0  0  0  0  0
   12.7200   -0.5700   22.7720 C   0  0  0  0  0  0  0  0  0  0  0  0
   12.1990    0.5300   23.9550 S   0  0  0  0  0  0  0  0  0  0  0  0
  1  2  1  0
  3  2  1  6
  1  4  2  0
  1  5  2  0
  1  6  1  0
  6  7  2  0
  6  8  1  0
  8  9  1  0
  7 10  1  0
  8 11  2  0
  3 12  1  0
  3 13  1  0
 10 14  1  0
 10 15  2  0
 11 15  1  0
 12 16  1  0
 13 17  1  0
  9 18  1  0
 17 19  1  0
 16 20  1  0
 17 20  1  0
 18 21  1  0
 19 22  2  0
 19 23  1  0
 21 24  1  0
 21 25  2  0
 24 26  2  0
 25 27  1  0
 26 27  1  0
M  END
