x1385_0-x1334_1
     RDKit          3D

 16 17  0  0  0  0  0  0  0  0999 V2000
    6.3870   -3.3030   19.8830 C   0  0  0  0  0  0  0  0  0  0  0  0
    7.3580   -2.9960   18.7670 C   0  0  0  0  0  0  0  0  0  0  0  0
    5.4240   -4.0710   19.7110 O   0  0  0  0  0  0  0  0  0  0  0  0
    6.6240   -2.7200   21.1150 N   0  0  0  0  0  0  0  0  0  0  0  0
    7.6280   -1.6400   21.1970 C   0  0  0  0  0  0  0  0  0  0  0  0
    6.3560   -3.4120   22.3770 C   0  0  0  0  0  0  0  0  0  0  0  0
    8.8680   -2.0010   22.0740 C   0  0  0  0  0  0  0  0  0  0  0  0
    7.6500   -3.8430   23.0690 C   0  0  0  0  0  0  0  0  0  0  0  0
    8.5410   -2.6950   23.3380 N   0  0  0  0  0  0  0  0  0  0  0  0
    9.5940   -3.0310   24.0060 C   0  0  0  0  0  0  0  0  0  0  0  0
    9.2190   -4.0140   25.0780 C   0  0  0  0  0  0  0  0  0  0  0  0
    9.8240   -5.4060   25.3050 C   0  0  0  0  0  0  0  0  0  0  0  0
    7.9830   -3.6630   26.2360 S   0  0  0  0  0  0  0  0  0  0  0  0
    9.1330   -6.0270   26.4900 C   0  0  0  0  0  0  0  0  0  0  0  0
    8.1670   -5.2270   27.0460 C   0  0  0  0  0  0  0  0  0  0  0  0
    7.1030   -5.7260   28.5390 Br  0  0  0  0  0  0  0  0  0  0  0  0
  1  2  1  0
  1  3  2  0
  1  4  1  0
  4  5  1  0
  4  6  1  0
  5  7  1  0
  6  8  1  0
  7  9  1  0
  8  9  1  0
  9 10  1  0
 10 11  1  0
 11 12  2  0
 11 13  1  0
 12 14  1  0
 13 15  1  0
 14 15  2  0
 15 16  1  0
M  END
