x1386_1-x1385_1-x1418_1-x0770_1-x0831_0-x0831_1-x1334_1-x1374_1-x0692_1-x0426_1-x1412_1-x1375_1-x0397_0-x0434_2-x1334_0
     RDKit          3D

 45 50  0  0  0  0  0  0  0  0999 V2000
    2.5800   -7.6100   23.3410 O   0  0  0  0  0  0  0  0  0  0  0  0
    3.0940   -7.2140   24.5960 C   0  0  0  0  0  0  0  0  0  0  0  0
    4.3370   -7.8560   24.8250 O   0  0  0  0  0  0  0  0  0  0  0  0
    5.3340   -7.4100   23.9020 C   0  0  0  0  0  0  0  0  0  0  0  0
    6.0500   -6.3250   24.3960 C   0  0  0  0  0  0  0  0  0  0  0  0
    6.3760   -5.4570   23.2220 C   0  0  2  0  0  0  0  0  0  0  0  0
    5.3350   -5.0810   22.3250 C   0  0  2  0  0  0  0  0  0  0  0  0
    6.6060   -6.0770   22.0890 C   0  0  0  0  0  0  0  0  0  0  0  0
    5.2760   -3.5680   22.3550 C   0  0  0  0  0  0  0  0  0  0  0  0
    6.5570   -2.8190   22.2680 C   0  0  2  0  0  0  0  0  0  0  0  0
    6.8110   -2.4050   20.9060 N   0  0  0  0  0  0  0  0  0  0  0  0
    7.8940   -3.3610   22.8320 C   0  0  0  0  0  0  0  0  0  0  0  0
    6.4910   -3.1720   19.7780 C   0  0  0  0  0  0  0  0  0  0  0  0
    8.8860   -2.2940   22.8410 N   0  0  0  0  0  0  0  0  0  0  0  0
    7.8040   -1.3380   20.9080 C   0  0  2  0  0  0  0  0  0  0  0  0
    7.4510   -2.9900   18.6360 C   0  0  0  0  0  0  0  0  0  0  0  0
    5.5390   -3.9730   19.6740 O   0  0  0  0  0  0  0  0  0  0  0  0
   10.1710   -2.4180   23.4340 C   0  0  2  0  0  0  0  0  0  0  0  0
    9.0920   -1.8340   21.5080 C   0  0  0  0  0  0  0  0  0  0  0  0
    7.1760   -0.2060   21.7660 C   0  0  0  0  0  0  0  0  0  0  0  0
    9.8970   -2.6120   24.8580 C   0  0  0  0  0  0  0  0  0  0  0  0
   10.9190   -1.1040   23.3570 C   0  0  0  0  0  0  0  0  0  0  0  0
    5.6460   -0.1180   21.5810 C   0  0  1  0  0  0  0  0  0  0  0  0
   10.2610    0.1880   23.9010 C   0  0  0  0  0  0  0  0  0  0  0  0
   12.2150   -0.9470   22.8220 C   0  0  0  0  0  0  0  0  0  0  0  0
    9.5320   -3.8720   25.5130 C   0  0  0  0  0  0  0  0  0  0  0  0
    5.0350    0.5620   22.5980 C   0  0  0  0  0  0  0  0  0  0  0  0
    5.4770    0.4700   20.2240 C   0  0  0  0  0  0  0  0  0  0  0  0
   12.9920   -2.0630   22.2360 C   0  0  0  0  0  0  0  0  0  0  0  0
   10.9040    1.5630   23.9070 C   0  0  0  0  0  0  0  0  0  0  0  0
   12.8420    0.4610   22.8470 C   0  0  0  0  0  0  0  0  0  0  0  0
   10.0000   -5.1530   25.4360 C   0  0  0  0  0  0  0  0  0  0  0  0
    8.2740   -3.7110   26.6490 S   0  0  0  0  0  0  0  0  0  0  0  0
    4.2900    1.8670   22.2050 C   0  0  2  0  0  0  0  0  0  0  0  0
    4.4630    1.3440   19.9620 C   0  0  0  0  0  0  0  0  0  0  0  0
    6.3990    0.1420   19.1070 C   0  0  0  0  0  0  0  0  0  0  0  0
   12.1310    1.7150   23.4120 C   0  0  0  0  0  0  0  0  0  0  0  0
    9.4030   -5.9790   26.3230 C   0  0  0  0  0  0  0  0  0  0  0  0
    8.3610   -5.2810   27.1580 C   0  0  0  0  0  0  0  0  0  0  0  0
    3.6820    2.3510   23.3180 N   0  0  0  0  0  0  0  0  0  0  0  0
    3.5400    1.6710   21.0720 C   0  0  0  0  0  0  0  0  0  0  0  0
    4.3130    1.9060   18.7030 C   0  0  0  0  0  0  0  0  0  0  0  0
    6.3580    0.6090   17.8650 N   0  0  0  0  0  0  0  0  0  0  0  0
    7.2940   -5.6640   28.4470 Cl  0  0  0  0  0  0  0  0  0  0  0  0
    5.3480    1.4680   17.6730 C   0  0  0  0  0  0  0  0  0  0  0  0
  1  2  1  0
  2  3  1  0
  3  4  1  0
  4  5  1  0
  6  5  1  1
  6  7  1  0
  6  8  1  0
  7  8  1  0
  7  9  1  6
 10  9  1  6
 10 11  1  0
 10 12  1  0
 11 13  1  0
 12 14  1  0
 11 15  1  0
 13 16  1  0
 13 17  2  0
 14 18  1  0
 14 19  1  0
 15 19  1  0
 15 20  1  1
 18 21  1  1
 18 22  1  0
 23 20  1  1
 22 24  2  0
 22 25  1  0
 21 26  1  0
 23 27  1  0
 23 28  1  0
 25 29  1  0
 24 30  1  0
 25 31  2  0
 26 32  2  0
 26 33  1  0
 27 34  1  0
 28 35  2  0
 28 36  1  0
 30 37  2  0
 31 37  1  0
 32 38  1  0
 33 39  1  0
 38 39  2  0
 34 40  1  1
 34 41  1  0
 35 41  1  0
 35 42  1  0
 36 43  2  0
 39 44  1  0
 42 45  2  0
 43 45  1  0
M  END
