x1386_0-x0540_3
     RDKit          3D

 15 15  0  0  0  0  0  0  0  0999 V2000
    4.8680    0.0920   21.7030 C   0  0  0  0  0  0  0  0  0  0  0  0
    5.2930    1.3610   22.4510 C   0  0  0  0  0  0  0  0  0  0  0  0
    4.2040    2.3120   22.5880 N   0  0  0  0  0  0  0  0  0  0  0  0
    6.0060   -0.7830   21.2280 C   0  0  0  0  0  0  0  0  0  0  0  0
    6.5420   -1.7560   22.2400 C   0  0  0  0  0  0  0  0  0  0  0  0
    3.1410    2.0410   23.2730 C   0  0  0  0  0  0  0  0  0  0  0  0
    8.0780   -1.7430   22.4300 C   0  0  0  0  0  0  0  0  0  0  0  0
    3.0220    1.4590   24.3520 O   0  0  0  0  0  0  0  0  0  0  0  0
    8.6720   -2.2680   23.7480 C   0  0  0  0  0  0  0  0  0  0  0  0
   10.1220   -2.7040   23.6110 C   0  0  0  0  0  0  0  0  0  0  0  0
   10.9850   -1.6060   23.5480 C   0  0  0  0  0  0  0  0  0  0  0  0
   12.0760   -1.5920   22.6790 C   0  0  0  0  0  0  0  0  0  0  0  0
   10.8610   -0.4260   24.3080 C   0  0  0  0  0  0  0  0  0  0  0  0
   12.8330   -0.3020   22.7900 C   0  0  0  0  0  0  0  0  0  0  0  0
   12.1400    0.8400   23.9670 S   0  0  0  0  0  0  0  0  0  0  0  0
  1  2  1  0
  2  3  1  0
  1  4  1  0
  4  5  1  0
  3  6  1  0
  5  7  1  0
  6  8  2  0
  7  9  1  0
  9 10  1  0
 10 11  1  0
 11 12  1  0
 11 13  2  0
 12 14  2  0
 13 15  1  0
 14 15  1  0
M  END
