x1386_0-x0981_1-x0434_2-x0831_0-x1412_1-x1412_0
     RDKit          3D

 45 48  0  0  0  0  0  0  0  0999 V2000
    4.1980   -5.2970   23.2260 C   0  0  0  0  0  0  0  0  0  0  0  0
    2.8190   -6.0000   23.5180 C   0  0  1  0  0  0  0  0  0  0  0  0
    2.6250   -7.2010   22.7050 N   0  0  0  0  0  0  0  0  0  0  0  0
    4.5100   -3.8910   23.5880 N   0  0  0  0  0  0  0  0  0  0  0  0
    2.6400   -6.2740   25.0310 C   0  0  0  0  0  0  0  0  0  0  0  0
    5.7590   -3.1220   23.3900 C   0  0  0  0  0  0  0  0  0  0  0  0
    1.3880   -7.4420   22.1400 C   0  0  0  0  0  0  0  0  0  0  0  0
    3.0960   -7.7070   25.2840 C   0  0  0  0  0  0  0  0  0  0  0  0
    6.7610   -3.6700   22.3520 C   0  0  1  0  0  0  0  0  0  0  0  0
    1.2530   -8.7280   21.3620 C   0  0  0  0  0  0  0  0  0  0  0  0
    0.4580   -6.6490   22.2440 O   0  0  0  0  0  0  0  0  0  0  0  0
    2.4700   -8.3830   26.2900 N   0  0  0  0  0  0  0  0  0  0  0  0
    3.9750   -8.2020   24.6210 O   0  0  0  0  0  0  0  0  0  0  0  0
    6.7780   -2.8060   21.1440 N   0  0  0  0  0  0  0  0  0  0  0  0
    8.1310   -3.5830   23.0180 C   0  0  0  0  0  0  0  0  0  0  0  0
    6.4440   -3.3840   19.9220 C   0  0  0  0  0  0  0  0  0  0  0  0
    8.6450   -2.1780   23.1200 N   0  0  0  0  0  0  0  0  0  0  0  0
    7.7930   -1.7210   20.9580 C   0  0  1  0  0  0  0  0  0  0  0  0
    7.3690   -3.0560   18.7560 C   0  0  0  0  0  0  0  0  0  0  0  0
    5.4810   -4.1460   19.7460 O   0  0  0  0  0  0  0  0  0  0  0  0
    9.9270   -2.0110   23.8830 C   0  0  1  0  0  0  0  0  0  0  0  0
    7.0060   -0.5430   21.2420 N   0  0  0  0  0  0  0  0  0  0  0  0
    8.9060   -1.7250   21.7860 C   0  0  0  0  0  0  0  0  0  0  0  0
    9.6510   -1.9020   25.3580 C   0  0  0  0  0  0  0  0  0  0  0  0
   10.7880   -3.2380   23.5470 C   0  0  0  0  0  0  0  0  0  0  0  0
   10.8290   -0.8190   23.5680 C   0  0  0  0  0  0  0  0  0  0  0  0
    6.3610    0.1300   20.1160 C   0  0  0  0  0  0  0  0  0  0  0  0
    8.3210   -2.5410   25.6390 C   0  0  0  0  0  0  0  0  0  0  0  0
   10.2360    0.4400   24.1510 C   0  0  0  0  0  0  0  0  0  0  0  0
   12.1420   -0.8650   22.8170 C   0  0  0  0  0  0  0  0  0  0  0  0
    6.9100    0.0600   18.8350 C   0  0  0  0  0  0  0  0  0  0  0  0
    5.1820    0.8640   20.2500 C   0  0  0  0  0  0  0  0  0  0  0  0
   12.8330   -2.0320   22.1880 C   0  0  0  0  0  0  0  0  0  0  0  0
    7.2870   -2.0020   25.3090 O   0  0  0  0  0  0  0  0  0  0  0  0
   10.9350    1.6670   24.0030 C   0  0  0  0  0  0  0  0  0  0  0  0
   12.7680    0.4550   22.7470 C   0  0  0  0  0  0  0  0  0  0  0  0
    8.3570   -3.8500   26.3790 C   0  0  0  0  0  0  0  0  0  0  0  0
    6.3800    0.6600   17.7480 N   0  0  0  0  0  0  0  0  0  0  0  0
    4.5990    1.4970   19.1460 C   0  0  0  0  0  0  0  0  0  0  0  0
   12.1520    1.7390   23.3470 C   0  0  0  0  0  0  0  0  0  0  0  0
    9.2810   -4.7810   25.8920 C   0  0  0  0  0  0  0  0  0  0  0  0
    7.4950   -4.4230   27.7350 S   0  0  0  0  0  0  0  0  0  0  0  0
    5.2540    1.3490   17.9490 C   0  0  0  0  0  0  0  0  0  0  0  0
    9.3120   -5.9820   26.6070 C   0  0  0  0  0  0  0  0  0  0  0  0
    8.3280   -5.9020   27.7020 C   0  0  0  0  0  0  0  0  0  0  0  0
  2  1  1  1
  2  3  1  0
  1  4  2  3
  2  5  1  0
  4  6  1  0
  3  7  1  0
  5  8  1  0
  9  6  1  1
  7 10  1  0
  7 11  2  0
  8 12  1  0
  8 13  2  0
  9 14  1  0
  9 15  1  0
 14 16  1  0
 15 17  1  0
 14 18  1  0
 16 19  1  0
 16 20  2  0
 17 21  1  0
 18 22  1  1
 17 23  1  0
 18 23  1  0
 21 24  1  0
 21 25  1  1
 21 26  1  0
 22 27  1  0
 24 28  1  0
 26 29  2  0
 26 30  1  0
 27 31  2  0
 27 32  1  0
 30 33  1  0
 28 34  2  0
 29 35  1  0
 30 36  2  0
 28 37  1  0
 31 38  1  0
 32 39  2  0
 35 40  2  0
 36 40  1  0
 37 41  2  0
 37 42  1  0
 38 43  2  0
 39 43  1  0
 41 44  1  0
 42 45  1  0
 44 45  2  0
M  END
