x1385_1-x1418_1-x1334_0-x0397_0-x1412_1-x1386_1-x0831_0-x0831_1-x0770_1-x1334_1-x0434_2-x0692_1-x1374_1-x0426_1
     RDKit          3D

 44 49  0  0  0  0  0  0  0  0999 V2000
    2.1580   -7.1270   23.5980 O   0  0  0  0  0  0  0  0  0  0  0  0
    2.7030   -7.3110   24.8890 C   0  0  0  0  0  0  0  0  0  0  0  0
    4.0560   -7.7160   24.7370 O   0  0  0  0  0  0  0  0  0  0  0  0
    4.6570   -7.0640   23.6260 C   0  0  0  0  0  0  0  0  0  0  0  0
    4.8990   -5.7570   23.8800 C   0  0  0  0  0  0  0  0  0  0  0  0
    5.8890   -5.2850   22.8630 C   0  0  2  0  0  0  0  0  0  0  0  0
    5.5170   -4.3940   21.9690 C   0  0  2  0  0  0  0  0  0  0  0  0
    6.1440   -5.9410   21.7870 C   0  0  0  0  0  0  0  0  0  0  0  0
    6.3070   -3.1110   22.2990 C   0  0  1  0  0  0  0  0  0  0  0  0
    7.4180   -3.4740   23.2950 C   0  0  0  0  0  0  0  0  0  0  0  0
    6.6460   -2.2810   21.1970 C   0  0  1  0  0  0  0  0  0  0  0  0
    6.4580   -3.1650   19.9060 C   0  0  0  0  0  0  0  0  0  0  0  0
    5.5770   -1.1630   21.3960 C   0  0  1  0  0  0  0  0  0  0  0  0
    8.4770   -2.5060   23.3350 N   0  0  0  0  0  0  0  0  0  0  0  0
    7.9260   -1.6790   21.1780 C   0  0  0  0  0  0  0  0  0  0  0  0
    7.4190   -2.9720   18.7370 C   0  0  0  0  0  0  0  0  0  0  0  0
    5.5840   -4.0480   19.7690 O   0  0  0  0  0  0  0  0  0  0  0  0
    5.8010   -0.3330   22.6860 C   0  0  0  0  0  0  0  0  0  0  0  0
    9.3900   -2.6270   24.4600 C   0  0  2  0  0  0  0  0  0  0  0  0
    9.0440   -2.3070   21.9840 C   0  0  0  0  0  0  0  0  0  0  0  0
    5.4040   -0.1770   20.2100 C   0  0  0  0  0  0  0  0  0  0  0  0
    4.6050    0.4450   23.3450 C   0  0  0  0  0  0  0  0  0  0  0  0
   10.8370   -2.5610   23.9820 C   0  0  0  0  0  0  0  0  0  0  0  0
    4.4690    0.8800   20.0850 C   0  0  0  0  0  0  0  0  0  0  0  0
    6.3790   -0.4140   19.0700 C   0  0  0  0  0  0  0  0  0  0  0  0
    9.1360   -3.8160   25.3500 C   0  0  0  0  0  0  0  0  0  0  0  0
    4.1750    1.6500   22.4890 C   0  0  1  0  0  0  0  0  0  0  0  0
    3.5050    1.1510   21.1880 C   0  0  0  0  0  0  0  0  0  0  0  0
    4.5140    1.6700   18.8360 C   0  0  0  0  0  0  0  0  0  0  0  0
    6.4280    0.3610   17.8400 N   0  0  0  0  0  0  0  0  0  0  0  0
    9.8090   -5.0410   25.3550 C   0  0  0  0  0  0  0  0  0  0  0  0
    7.9130   -3.8190   26.5610 S   0  0  0  0  0  0  0  0  0  0  0  0
   11.2250   -1.1320   23.8160 C   0  0  0  0  0  0  0  0  0  0  0  0
    3.2720    2.5020   23.2310 N   0  0  0  0  0  0  0  0  0  0  0  0
    5.5260    1.3440   17.7550 C   0  0  0  0  0  0  0  0  0  0  0  0
    9.3340   -5.9170   26.3270 C   0  0  0  0  0  0  0  0  0  0  0  0
    8.2910   -5.3970   27.0830 C   0  0  0  0  0  0  0  0  0  0  0  0
   10.5090   -0.0760   24.4000 C   0  0  0  0  0  0  0  0  0  0  0  0
   12.3520   -0.8490   23.0390 C   0  0  0  0  0  0  0  0  0  0  0  0
    7.3970   -6.0670   28.3730 Cl  0  0  0  0  0  0  0  0  0  0  0  0
   13.1260   -1.9450   22.3800 C   0  0  0  0  0  0  0  0  0  0  0  0
   10.8950    1.2430   24.2250 C   0  0  0  0  0  0  0  0  0  0  0  0
   12.7860    0.4370   22.8440 C   0  0  0  0  0  0  0  0  0  0  0  0
   12.1140    1.5220   23.4010 C   0  0  0  0  0  0  0  0  0  0  0  0
  1  2  1  0
  2  3  1  0
  3  4  1  0
  4  5  1  0
  6  5  1  1
  6  7  1  0
  6  8  1  0
  7  8  1  6
  7  9  1  0
  9 10  1  6
  9 11  1  0
 11 12  1  6
 11 13  1  0
 10 14  1  0
 11 15  1  0
 12 16  1  0
 12 17  2  0
 13 18  1  1
 14 19  1  0
 14 20  1  0
 15 20  1  0
 13 21  1  0
 18 22  1  0
 19 23  1  6
 21 24  2  0
 21 25  1  0
 19 26  1  0
 22 27  1  0
 24 28  1  0
 27 28  1  0
 24 29  1  0
 25 30  2  0
 26 31  2  0
 26 32  1  0
 23 33  1  0
 27 34  1  1
 29 35  2  0
 30 35  1  0
 31 36  1  0
 32 37  1  0
 36 37  2  0
 33 38  2  0
 33 39  1  0
 37 40  1  0
 39 41  1  0
 38 42  1  0
 39 43  2  0
 42 44  2  0
 43 44  1  0
M  END
