x1386_1-x0771_1
     RDKit          3D

 23 24  0  0  0  0  0  0  0  0999 V2000
    4.8410   -5.8290   25.6460 S   0  0  0  0  0  0  0  0  0  0  0  0
    4.9690   -6.1450   23.9170 C   0  0  0  0  0  0  0  0  0  0  0  0
    6.1090   -5.5460   23.1230 C   0  0  0  0  0  0  0  0  0  0  0  0
    4.3500   -7.0700   26.1820 O   0  0  0  0  0  0  0  0  0  0  0  0
    6.0900   -5.2700   26.0830 O   0  0  0  0  0  0  0  0  0  0  0  0
    3.7130   -4.5610   25.8020 C   0  0  0  0  0  0  0  0  0  0  0  0
    2.3700   -4.7700   25.4800 C   0  0  0  0  0  0  0  0  0  0  0  0
    4.1050   -3.2990   26.2600 C   0  0  0  0  0  0  0  0  0  0  0  0
    1.8390   -6.0790   24.9730 C   0  0  0  0  0  0  0  0  0  0  0  0
    5.7810   -4.3140   22.2480 C   0  0  0  0  0  0  0  0  0  0  0  0
    1.2900   -3.6850   25.6120 C   0  0  0  0  0  0  0  0  0  0  0  0
    3.0620   -2.1900   26.4070 C   0  0  0  0  0  0  0  0  0  0  0  0
    1.7250   -2.4360   26.0860 C   0  0  0  0  0  0  0  0  0  0  0  0
    6.9830   -3.4030   21.9840 C   0  0  1  0  0  0  0  0  0  0  0  0
    0.6090   -1.3880   26.2190 C   0  0  0  0  0  0  0  0  0  0  0  0
    6.7810   -2.5140   20.9860 N   0  0  0  0  0  0  0  0  0  0  0  0
    7.4210   -2.8270   23.1710 C   0  0  0  0  0  0  0  0  0  0  0  0
    6.4540   -3.1520   19.7870 C   0  0  0  0  0  0  0  0  0  0  0  0
    8.7360   -2.1870   23.0850 N   0  0  0  0  0  0  0  0  0  0  0  0
    7.7070   -1.3620   21.0070 C   0  0  0  0  0  0  0  0  0  0  0  0
    7.4180   -2.9600   18.6520 C   0  0  0  0  0  0  0  0  0  0  0  0
    5.4570   -3.8870   19.6410 O   0  0  0  0  0  0  0  0  0  0  0  0
    8.8590   -1.6850   21.7270 C   0  0  0  0  0  0  0  0  0  0  0  0
  1  2  1  0
  2  3  1  0
  1  4  2  0
  1  5  2  0
  1  6  1  0
  6  7  2  0
  6  8  1  0
  7  9  1  0
  3 10  1  0
  7 11  1  0
  8 12  2  0
 11 13  2  0
 12 13  1  0
 14 10  1  1
 13 15  1  0
 14 16  1  0
 14 17  1  0
 16 18  1  0
 17 19  1  0
 16 20  1  0
 18 21  1  0
 18 22  2  0
 19 23  1  0
 20 23  1  0
M  END
