x1386_0-x1412_0-x1385_1-x1334_1
     RDKit          3D

 22 24  0  0  0  0  0  0  0  0999 V2000
    6.3390   -3.3130   19.9190 C   0  0  0  0  0  0  0  0  0  0  0  0
    7.2700   -2.9800   18.7620 C   0  0  0  0  0  0  0  0  0  0  0  0
    5.3820   -4.0820   19.7220 O   0  0  0  0  0  0  0  0  0  0  0  0
    6.6280   -2.7710   21.1700 N   0  0  0  0  0  0  0  0  0  0  0  0
    6.1630   -3.3220   22.4400 C   0  0  0  0  0  0  0  0  0  0  0  0
    7.5940   -1.6530   21.3150 C   0  0  0  0  0  0  0  0  0  0  0  0
    7.3320   -3.8710   23.0930 C   0  0  0  0  0  0  0  0  0  0  0  0
    8.6410   -1.9620   22.2410 C   0  0  0  0  0  0  0  0  0  0  0  0
    8.1460   -2.6950   23.4050 N   0  0  0  0  0  0  0  0  0  0  0  0
    8.9840   -2.6380   24.5990 C   0  0  2  0  0  0  0  0  0  0  0  0
    8.7200   -1.3690   25.2040 O   0  0  0  0  0  0  0  0  0  0  0  0
   10.4810   -2.7240   24.3430 C   0  0  0  0  0  0  0  0  0  0  0  0
    8.7180   -3.6950   25.6390 C   0  0  0  0  0  0  0  0  0  0  0  0
    9.5570   -4.7880   25.6830 C   0  0  0  0  0  0  0  0  0  0  0  0
    7.5010   -3.7970   26.8620 S   0  0  0  0  0  0  0  0  0  0  0  0
   11.2660   -1.5190   23.8990 C   0  0  0  0  0  0  0  0  0  0  0  0
    9.3580   -5.7740   26.6160 C   0  0  0  0  0  0  0  0  0  0  0  0
    8.2420   -5.4200   27.4030 C   0  0  0  0  0  0  0  0  0  0  0  0
   12.2870   -1.5270   22.9650 C   0  0  0  0  0  0  0  0  0  0  0  0
   11.0810   -0.2090   24.3730 C   0  0  0  0  0  0  0  0  0  0  0  0
   12.8990   -0.1540   22.7280 C   0  0  0  0  0  0  0  0  0  0  0  0
   12.1310    0.9980   23.6890 S   0  0  0  0  0  0  0  0  0  0  0  0
  1  2  1  0
  1  3  2  0
  1  4  1  0
  4  5  1  0
  4  6  1  0
  5  7  1  0
  6  8  1  0
  7  9  1  0
  8  9  1  0
  9 10  1  0
 10 11  1  1
 10 12  1  0
 10 13  1  0
 13 14  2  0
 13 15  1  0
 12 16  1  0
 14 17  1  0
 15 18  1  0
 17 18  2  0
 16 19  1  0
 16 20  2  0
 19 21  2  0
 20 22  1  0
 21 22  1  0
M  END
