x1385_1-x1418_1-x0434_2-x1386_1-x1374_1-x0426_1-x0692_1-x1334_1-x1412_1-x0770_1-x1334_0-x0831_0-x0397_0
     RDKit          3D

 44 49  0  0  0  0  0  0  0  0999 V2000
    1.9940   -7.3680   23.8760 O   0  0  0  0  0  0  0  0  0  0  0  0
    2.5550   -7.8800   25.0660 C   0  0  0  0  0  0  0  0  0  0  0  0
    3.9590   -7.8910   24.9230 O   0  0  0  0  0  0  0  0  0  0  0  0
    4.3640   -7.2290   23.7260 C   0  0  0  0  0  0  0  0  0  0  0  0
    4.4340   -5.8640   23.9120 C   0  0  0  0  0  0  0  0  0  0  0  0
    5.6400   -5.3580   23.1810 C   0  0  2  0  0  0  0  0  0  0  0  0
    5.4970   -4.2410   22.2940 C   0  0  2  0  0  0  0  0  0  0  0  0
    5.8700   -5.6890   21.9370 C   0  0  0  0  0  0  0  0  0  0  0  0
    6.5050   -3.0900   22.3290 C   0  0  1  0  0  0  0  0  0  0  0  0
    7.7720   -3.7680   22.8290 C   0  0  0  0  0  0  0  0  0  0  0  0
    6.6090   -2.3040   21.2280 C   0  0  1  0  0  0  0  0  0  0  0  0
    6.3870   -3.1210   19.8870 C   0  0  0  0  0  0  0  0  0  0  0  0
    5.7500   -1.0160   21.3670 C   0  0  2  0  0  0  0  0  0  0  0  0
    8.6470   -2.6950   23.0120 N   0  0  0  0  0  0  0  0  0  0  0  0
    7.9580   -1.6060   20.9950 C   0  0  0  0  0  0  0  0  0  0  0  0
    7.3830   -2.9570   18.7390 C   0  0  0  0  0  0  0  0  0  0  0  0
    5.4750   -3.9600   19.7080 O   0  0  0  0  0  0  0  0  0  0  0  0
    4.6970   -0.9380   22.4460 C   0  0  0  0  0  0  0  0  0  0  0  0
    9.3750   -2.7710   24.2130 C   0  0  2  0  0  0  0  0  0  0  0  0
    9.1600   -2.1640   21.7910 C   0  0  0  0  0  0  0  0  0  0  0  0
    5.5300   -0.1140   20.1670 C   0  0  0  0  0  0  0  0  0  0  0  0
    4.6730    0.3140   23.3150 C   0  0  0  0  0  0  0  0  0  0  0  0
   10.8190   -2.5000   23.9080 C   0  0  0  0  0  0  0  0  0  0  0  0
    4.5710    0.9190   20.0460 C   0  0  0  0  0  0  0  0  0  0  0  0
    6.4420   -0.3090   18.9370 C   0  0  0  0  0  0  0  0  0  0  0  0
    9.0810   -3.8550   25.2280 C   0  0  0  0  0  0  0  0  0  0  0  0
    4.2570    1.5730   22.5130 C   0  0  1  0  0  0  0  0  0  0  0  0
    3.6160    1.2560   21.1530 C   0  0  0  0  0  0  0  0  0  0  0  0
    4.4690    1.6870   18.8790 C   0  0  0  0  0  0  0  0  0  0  0  0
    6.3900    0.4490   17.7150 N   0  0  0  0  0  0  0  0  0  0  0  0
    9.8010   -5.0370   25.3440 C   0  0  0  0  0  0  0  0  0  0  0  0
    7.8300   -3.8660   26.4360 S   0  0  0  0  0  0  0  0  0  0  0  0
   11.1140   -0.9880   23.7700 C   0  0  0  0  0  0  0  0  0  0  0  0
    3.3700    2.3970   23.3170 N   0  0  0  0  0  0  0  0  0  0  0  0
    5.3470    1.4350   17.7950 C   0  0  0  0  0  0  0  0  0  0  0  0
    9.3500   -5.8590   26.3560 C   0  0  0  0  0  0  0  0  0  0  0  0
    8.3250   -5.3570   27.0060 C   0  0  0  0  0  0  0  0  0  0  0  0
   10.3740    0.1680   24.1300 C   0  0  0  0  0  0  0  0  0  0  0  0
   12.4800   -0.8330   23.1130 C   0  0  0  0  0  0  0  0  0  0  0  0
    7.4600   -6.0180   28.3230 Cl  0  0  0  0  0  0  0  0  0  0  0  0
   13.2670   -2.0140   22.6860 C   0  0  0  0  0  0  0  0  0  0  0  0
   10.9970    1.5320   23.8700 C   0  0  0  0  0  0  0  0  0  0  0  0
   12.9760    0.4360   22.9140 C   0  0  0  0  0  0  0  0  0  0  0  0
   12.2330    1.6370   23.2970 C   0  0  0  0  0  0  0  0  0  0  0  0
  1  2  1  0
  2  3  1  0
  3  4  1  0
  4  5  1  0
  6  5  1  6
  6  7  1  0
  6  8  1  0
  7  8  1  6
  7  9  1  0
  9 10  1  6
  9 11  1  0
 11 12  1  6
 11 13  1  0
 10 14  1  0
 11 15  1  0
 12 16  1  0
 12 17  2  0
 13 18  1  6
 14 19  1  0
 14 20  1  0
 15 20  1  0
 13 21  1  0
 18 22  1  0
 19 23  1  6
 21 24  2  0
 21 25  1  0
 19 26  1  0
 22 27  1  0
 24 28  1  0
 27 28  1  0
 24 29  1  0
 25 30  2  0
 26 31  2  0
 26 32  1  0
 23 33  1  0
 27 34  1  1
 29 35  2  0
 30 35  1  0
 31 36  1  0
 32 37  1  0
 36 37  2  0
 33 38  2  0
 33 39  1  0
 37 40  1  0
 39 41  1  0
 38 42  1  0
 39 43  2  0
 42 44  2  0
 43 44  1  0
M  END
