x1386_1-x0831_1-x1418_0
     RDKit          3D

 15 16  0  0  0  0  0  0  0  0999 V2000
    6.4240   -3.1800   19.7950 C   0  0  0  0  0  0  0  0  0  0  0  0
    7.4170   -2.9650   18.6660 C   0  0  0  0  0  0  0  0  0  0  0  0
    5.4910   -3.9930   19.6980 O   0  0  0  0  0  0  0  0  0  0  0  0
    6.6370   -2.4230   20.9550 N   0  0  0  0  0  0  0  0  0  0  0  0
    7.5920   -1.2910   21.0070 C   0  0  0  0  0  0  0  0  0  0  0  0
    6.4630   -3.1040   22.2450 C   0  0  0  0  0  0  0  0  0  0  0  0
    8.8990   -1.6660   21.7020 C   0  0  0  0  0  0  0  0  0  0  0  0
    7.8150   -3.4500   22.9110 C   0  0  0  0  0  0  0  0  0  0  0  0
    8.7630   -2.3160   23.0070 N   0  0  0  0  0  0  0  0  0  0  0  0
   10.0410   -2.7380   23.4270 C   0  0  0  0  0  0  0  0  0  0  0  0
   11.0080   -1.5940   23.4270 C   0  0  0  0  0  0  0  0  0  0  0  0
   12.1560   -1.3840   22.6480 C   0  0  0  0  0  0  0  0  0  0  0  0
   10.8030   -0.2480   24.4850 S   0  0  0  0  0  0  0  0  0  0  0  0
   12.8560   -0.2140   22.8510 C   0  0  0  0  0  0  0  0  0  0  0  0
   12.2490    0.5500   23.8310 C   0  0  0  0  0  0  0  0  0  0  0  0
  1  2  1  0
  1  3  2  0
  1  4  1  0
  4  5  1  0
  4  6  1  0
  5  7  1  0
  6  8  1  0
  7  9  1  0
  8  9  1  0
  9 10  1  0
 10 11  1  0
 11 12  2  0
 11 13  1  0
 12 14  1  0
 13 15  1  0
 14 15  2  0
M  END
