x1386_1-x0107_0
     RDKit          3D

 20 22  0  0  0  0  0  0  0  0999 V2000
   10.0850   -0.7010   22.5440 C   0  0  0  0  0  0  0  0  0  0  0  0
    8.7610   -2.1150   23.0580 C   0  0  2  0  0  0  0  0  0  0  0  0
    7.8330   -3.2390   22.9030 C   0  0  0  0  0  0  0  0  0  0  0  0
    9.6370   -0.3890   22.0100 C   0  0  0  0  0  0  0  0  0  0  0  0
    9.1880   -0.0770   21.4760 C   0  0  0  0  0  0  0  0  0  0  0  0
    9.1450   -1.6210   21.7300 C   0  0  2  0  0  0  0  0  0  0  0  0
    9.5150    0.9360   20.9620 O   0  0  0  0  0  0  0  0  0  0  0  0
    7.9340   -1.2110   20.9260 C   0  0  0  0  0  0  0  0  0  0  0  0
    6.6200   -2.8500   22.0890 C   0  0  0  0  0  0  0  0  0  0  0  0
    7.0860   -0.1310   20.0810 C   0  0  0  0  0  0  0  0  0  0  0  0
    7.0360   -2.3510   20.7820 N   0  0  0  0  0  0  0  0  0  0  0  0
    6.6530   -2.9160   19.6180 C   0  0  0  0  0  0  0  0  0  0  0  0
    5.8930    0.5030   20.4190 C   0  0  0  0  0  0  0  0  0  0  0  0
    7.4580   -0.1950   18.7440 C   0  0  0  0  0  0  0  0  0  0  0  0
    5.4530    0.6060   21.8770 C   0  0  0  0  0  0  0  0  0  0  0  0
    7.3050   -2.4620   18.3250 C   0  0  0  0  0  0  0  0  0  0  0  0
    5.8050   -3.8010   19.5950 O   0  0  0  0  0  0  0  0  0  0  0  0
    5.1220    1.0500   19.3930 C   0  0  0  0  0  0  0  0  0  0  0  0
    6.7050    0.3260   17.7940 N   0  0  0  0  0  0  0  0  0  0  0  0
    5.5750    0.9300   18.0850 C   0  0  0  0  0  0  0  0  0  0  0  0
  2  1  1  6
  2  3  1  0
  1  4  2  0
  4  5  1  0
  2  6  1  0
  6  5  1  1
  5  7  2  0
  6  8  1  0
  3  9  1  0
  8 10  1  0
  8 11  1  0
  9 11  1  0
 11 12  1  0
 10 13  2  0
 10 14  1  0
 13 15  1  0
 12 16  1  0
 12 17  2  0
 13 18  1  0
 14 19  2  0
 18 20  2  0
 19 20  1  0
M  END
