x1380_1-x0874_0
     RDKit          3D

 18 19  0  0  0  0  0  0  0  0999 V2000
    5.8940   -3.2100   25.2320 C   0  0  0  0  0  0  0  0  0  0  0  0
    6.1230   -3.6950   23.8630 C   0  0  1  0  0  0  0  0  0  0  0  0
    7.2070   -2.8080   23.3160 C   0  0  0  0  0  0  0  0  0  0  0  0
    4.8090   -2.8170   25.6460 O   0  0  0  0  0  0  0  0  0  0  0  0
    6.5050   -5.1820   23.6630 C   0  0  0  0  0  0  0  0  0  0  0  0
    6.5050   -5.4600   22.3560 C   0  0  0  0  0  0  0  0  0  0  0  0
    8.0220   -3.6240   22.5810 C   0  0  2  0  0  0  0  0  0  0  0  0
    9.2810   -2.8680   22.1020 C   0  0  0  0  0  0  0  0  0  0  0  0
    7.1290   -4.3520   21.6210 N   0  0  0  0  0  0  0  0  0  0  0  0
    6.6420   -4.0500   20.3450 C   0  0  0  0  0  0  0  0  0  0  0  0
    9.2380   -1.3520   22.0890 C   0  0  0  0  0  0  0  0  0  0  0  0
    7.4490   -3.2150   19.3550 C   0  0  0  0  0  0  0  0  0  0  0  0
    5.5650   -4.5400   19.9580 O   0  0  0  0  0  0  0  0  0  0  0  0
   10.3440   -0.5550   22.5620 C   0  0  0  0  0  0  0  0  0  0  0  0
   11.6340    0.2220   23.0240 C   0  0  0  0  0  0  0  0  0  0  0  0
   11.1910   -1.6150   21.9340 C   0  0  0  0  0  0  0  0  0  0  0  0
   12.9870   -0.2720   22.7290 C   0  0  0  0  0  0  0  0  0  0  0  0
   12.9290   -1.7250   21.8690 S   0  0  0  0  0  0  0  0  0  0  0  0
  2  1  1  1
  2  3  1  0
  1  4  2  0
  2  5  1  0
  5  6  1  0
  3  7  1  0
  7  8  1  6
  6  9  1  0
  7  9  1  0
  9 10  1  0
  8 11  1  0
 10 12  1  0
 10 13  2  0
 11 14  1  0
 14 15  1  0
 14 16  2  0
 15 17  2  0
 16 18  1  0
 17 18  1  0
M  END
