x1384_2-x0831_1-x1386_0
     RDKit          3D

 22 24  0  0  0  0  0  0  0  0999 V2000
    6.2300   -3.3990   19.9560 C   0  0  0  0  0  0  0  0  0  0  0  0
    7.1940   -3.0320   18.8430 C   0  0  0  0  0  0  0  0  0  0  0  0
    5.3250   -4.2120   19.7550 O   0  0  0  0  0  0  0  0  0  0  0  0
    6.4100   -2.8170   21.1940 N   0  0  0  0  0  0  0  0  0  0  0  0
    6.1880   -1.3740   21.4440 C   0  0  0  0  0  0  0  0  0  0  0  0
    6.8810   -3.5800   22.3480 C   0  0  1  0  0  0  0  0  0  0  0  0
    7.5350   -0.6580   21.2740 C   0  0  0  0  0  0  0  0  0  0  0  0
    7.5330   -2.7670   23.4400 C   0  0  0  0  0  0  0  0  0  0  0  0
    5.7320   -4.3670   22.9420 C   0  0  0  0  0  0  0  0  0  0  0  0
    8.6590   -1.9080   23.0680 N   0  0  0  0  0  0  0  0  0  0  0  0
    8.7060   -1.5550   21.7110 C   0  0  0  0  0  0  0  0  0  0  0  0
    5.5900   -5.7500   22.8060 C   0  0  0  0  0  0  0  0  0  0  0  0
    4.7830   -3.6630   23.6610 C   0  0  0  0  0  0  0  0  0  0  0  0
    9.9490   -2.4740   23.4710 C   0  0  0  0  0  0  0  0  0  0  0  0
    3.6700   -4.2000   24.2870 C   0  0  0  0  0  0  0  0  0  0  0  0
    4.5590   -6.4250   23.3610 C   0  0  0  0  0  0  0  0  0  0  0  0
   10.9710   -1.3870   23.4310 C   0  0  0  0  0  0  0  0  0  0  0  0
    3.4780   -5.7050   24.1700 C   0  0  0  0  0  0  0  0  0  0  0  0
   12.2280   -1.4940   22.5800 C   0  0  0  0  0  0  0  0  0  0  0  0
   10.9240   -0.0400   24.1890 C   0  0  0  0  0  0  0  0  0  0  0  0
   13.0040   -0.2370   22.7550 C   0  0  0  0  0  0  0  0  0  0  0  0
   12.2850    0.9000   23.8140 S   0  0  0  0  0  0  0  0  0  0  0  0
  1  2  1  0
  1  3  2  0
  1  4  1  0
  4  5  1  0
  4  6  1  0
  5  7  1  0
  6  8  1  0
  6  9  1  1
  8 10  1  0
  7 11  1  0
 10 11  1  0
  9 12  2  0
  9 13  1  0
 10 14  1  0
 13 15  2  0
 12 16  1  0
 14 17  1  0
 15 18  1  0
 16 18  2  0
 17 19  1  0
 17 20  2  0
 19 21  2  0
 20 22  1  0
 21 22  1  0
M  END
