x1385_1-x0692_0-x0692_1
     RDKit          3D

 17 18  0  0  0  0  0  0  0  0999 V2000
    6.3220   -3.2710   19.8550 C   0  0  0  0  0  0  0  0  0  0  0  0
    7.3470   -3.0030   18.7700 C   0  0  0  0  0  0  0  0  0  0  0  0
    5.3610   -4.0250   19.6820 O   0  0  0  0  0  0  0  0  0  0  0  0
    6.5550   -2.6390   21.0690 N   0  0  0  0  0  0  0  0  0  0  0  0
    6.1840   -3.2130   22.3760 C   0  0  0  0  0  0  0  0  0  0  0  0
    7.5410   -1.5130   21.1610 C   0  0  0  0  0  0  0  0  0  0  0  0
    7.4740   -3.5180   23.1700 C   0  0  0  0  0  0  0  0  0  0  0  0
    8.6910   -1.8750   21.8040 C   0  0  0  0  0  0  0  0  0  0  0  0
    8.4120   -2.4040   23.1280 N   0  0  0  0  0  0  0  0  0  0  0  0
    9.4610   -2.4330   24.1230 C   0  0  0  0  0  0  0  0  0  0  0  0
   10.6070   -1.4770   23.7520 C   0  0  0  0  0  0  0  0  0  0  0  0
   10.3290   -0.1050   23.8890 C   0  0  0  0  0  0  0  0  0  0  0  0
   11.8780   -1.8470   23.2990 C   0  0  0  0  0  0  0  0  0  0  0  0
   11.3870    0.8990   23.5480 C   0  0  0  0  0  0  0  0  0  0  0  0
   12.8710   -0.9370   22.9840 C   0  0  0  0  0  0  0  0  0  0  0  0
   11.0200    2.3370   23.6990 C   0  0  0  0  0  0  0  0  0  0  0  0
   12.6300    0.4730   23.1090 C   0  0  0  0  0  0  0  0  0  0  0  0
  1  2  1  0
  1  3  2  0
  1  4  1  0
  4  5  1  0
  4  6  1  0
  5  7  1  0
  6  8  1  0
  7  9  1  0
  8  9  1  0
  9 10  1  0
 10 11  1  0
 11 12  2  0
 11 13  1  0
 12 14  1  0
 13 15  2  0
 14 16  1  0
 14 17  2  0
 15 17  1  0
M  END
