x1386_1-x1374_1-x0426_1-x1334_0-x0692_1-x1418_1-x0831_1-x0397_0-x0770_1-x1412_1-x1334_1-x0831_0
     RDKit          3D

 45 50  0  0  0  0  0  0  0  0999 V2000
    2.6110   -7.3800   23.1570 O   0  0  0  0  0  0  0  0  0  0  0  0
    2.6520   -7.8420   24.4950 C   0  0  0  0  0  0  0  0  0  0  0  0
    4.0120   -8.0680   24.8050 O   0  0  0  0  0  0  0  0  0  0  0  0
    4.7320   -6.8540   24.9870 C   0  0  0  0  0  0  0  0  0  0  0  0
    5.9040   -6.9190   24.3410 C   0  0  0  0  0  0  0  0  0  0  0  0
    6.0480   -5.9030   23.2490 C   0  0  2  0  0  0  0  0  0  0  0  0
    4.9880   -5.2940   22.6800 C   0  0  2  0  0  0  0  0  0  0  0  0
    6.1290   -6.2200   21.9560 C   0  0  0  0  0  0  0  0  0  0  0  0
    5.0280   -3.8190   22.5710 C   0  0  0  0  0  0  0  0  0  0  0  0
    6.4560   -3.4140   22.1830 C   0  0  1  0  0  0  0  0  0  0  0  0
    6.5530   -2.5620   21.0220 N   0  0  0  0  0  0  0  0  0  0  0  0
    7.0860   -2.8580   23.4450 C   0  0  0  0  0  0  0  0  0  0  0  0
    6.3710   -3.1250   19.7650 C   0  0  0  0  0  0  0  0  0  0  0  0
    8.3370   -2.1930   23.2980 N   0  0  0  0  0  0  0  0  0  0  0  0
    7.4480   -1.4100   21.2500 C   0  0  2  0  0  0  0  0  0  0  0  0
    7.4160   -2.9180   18.6880 C   0  0  0  0  0  0  0  0  0  0  0  0
    5.3820   -3.8370   19.5630 O   0  0  0  0  0  0  0  0  0  0  0  0
    9.3900   -2.6320   24.1450 C   0  0  2  0  0  0  0  0  0  0  0  0
    8.7210   -1.9580   21.8930 C   0  0  0  0  0  0  0  0  0  0  0  0
    6.7600   -0.4350   22.1660 C   0  0  0  0  0  0  0  0  0  0  0  0
   10.6520   -2.5620   23.4100 C   0  0  0  0  0  0  0  0  0  0  0  0
    9.1260   -3.7320   25.1730 C   0  0  0  0  0  0  0  0  0  0  0  0
    6.7940    0.8810   21.6310 C   0  0  2  0  0  0  0  0  0  0  0  0
    9.7990   -4.8720   25.3080 C   0  0  0  0  0  0  0  0  0  0  0  0
    7.8850   -3.6060   26.3590 S   0  0  0  0  0  0  0  0  0  0  0  0
   11.1860   -1.1600   23.3930 C   0  0  0  0  0  0  0  0  0  0  0  0
    6.0980    1.7270   22.5140 C   0  0  0  0  0  0  0  0  0  0  0  0
    6.2150    0.9710   20.2410 C   0  0  0  0  0  0  0  0  0  0  0  0
    9.4380   -5.8190   26.4060 C   0  0  0  0  0  0  0  0  0  0  0  0
    8.2810   -5.1490   27.1500 C   0  0  0  0  0  0  0  0  0  0  0  0
   10.4530   -0.0990   23.9280 C   0  0  0  0  0  0  0  0  0  0  0  0
   12.4080   -0.8590   22.8560 C   0  0  0  0  0  0  0  0  0  0  0  0
    4.5980    1.5940   22.2150 C   0  0  1  0  0  0  0  0  0  0  0  0
    5.0450    1.7010   20.0270 C   0  0  0  0  0  0  0  0  0  0  0  0
    6.7990    0.3590   19.1580 C   0  0  0  0  0  0  0  0  0  0  0  0
    7.3620   -5.5920   28.5240 Cl  0  0  0  0  0  0  0  0  0  0  0  0
   13.2920   -1.8550   22.2270 C   0  0  0  0  0  0  0  0  0  0  0  0
   10.8870    1.2090   23.9600 C   0  0  0  0  0  0  0  0  0  0  0  0
   12.9550    0.6270   22.8770 C   0  0  0  0  0  0  0  0  0  0  0  0
    3.8880    1.8070   23.3400 N   0  0  0  0  0  0  0  0  0  0  0  0
    4.2930    2.4100   21.1260 C   0  0  0  0  0  0  0  0  0  0  0  0
    4.5430    1.7900   18.7680 C   0  0  0  0  0  0  0  0  0  0  0  0
    6.3160    0.4380   17.9150 N   0  0  0  0  0  0  0  0  0  0  0  0
   12.1340    1.6050   23.4450 C   0  0  0  0  0  0  0  0  0  0  0  0
    5.2020    1.1570   17.7670 C   0  0  0  0  0  0  0  0  0  0  0  0
  1  2  1  0
  2  3  1  0
  3  4  1  0
  4  5  1  0
  6  5  1  1
  6  7  1  0
  6  8  1  0
  7  8  1  0
  7  9  1  6
 10  9  1  1
 10 11  1  0
 10 12  1  0
 11 13  1  0
 12 14  1  0
 11 15  1  0
 13 16  1  0
 13 17  2  0
 14 18  1  0
 14 19  1  0
 15 19  1  0
 15 20  1  1
 18 21  1  6
 18 22  1  0
 23 20  1  1
 22 24  2  0
 22 25  1  0
 21 26  1  0
 23 27  1  0
 23 28  1  0
 24 29  1  0
 25 30  1  0
 29 30  2  0
 26 31  2  0
 26 32  1  0
 27 33  1  0
 28 34  2  0
 28 35  1  0
 30 36  1  0
 32 37  1  0
 31 38  1  0
 32 39  2  0
 33 40  1  1
 33 41  1  0
 34 41  1  0
 34 42  1  0
 35 43  2  0
 38 44  2  0
 39 44  1  0
 42 45  2  0
 43 45  1  0
M  END
