x1385_1-x0736_1-x0874_0-x0434_2-x1412_0
     RDKit          3D

 31 34  0  0  0  0  0  0  0  0999 V2000
    6.3310   -3.2900   19.9190 C   0  0  0  0  0  0  0  0  0  0  0  0
    7.3500   -2.9920   18.8200 C   0  0  0  0  0  0  0  0  0  0  0  0
    5.3590   -4.0120   19.6570 O   0  0  0  0  0  0  0  0  0  0  0  0
    6.4790   -2.8130   21.2370 N   0  0  0  0  0  0  0  0  0  0  0  0
    6.1790   -3.7000   22.3460 C   0  0  0  0  0  0  0  0  0  0  0  0
    7.4020   -1.7290   21.6670 C   0  0  1  0  0  0  0  0  0  0  0  0
    7.4590   -4.2690   22.8820 C   0  0  0  0  0  0  0  0  0  0  0  0
    8.5730   -2.2190   22.1910 C   0  0  0  0  0  0  0  0  0  0  0  0
    7.6990   -0.5900   20.6950 C   0  0  0  0  0  0  0  0  0  0  0  0
    8.3600   -3.1900   23.2580 N   0  0  0  0  0  0  0  0  0  0  0  0
    7.2660   -0.9190   19.4360 C   0  0  0  0  0  0  0  0  0  0  0  0
    8.5300   -2.8890   24.6510 C   0  0  0  0  0  0  0  0  0  0  0  0
    6.8630   -0.0070   18.5160 C   0  0  0  0  0  0  0  0  0  0  0  0
    8.6440   -1.4620   25.0600 N   0  0  0  0  0  0  0  0  0  0  0  0
    8.6030   -3.9650   25.6980 C   0  0  0  0  0  0  0  0  0  0  0  0
    5.9470   -0.0450   19.6130 C   0  0  0  0  0  0  0  0  0  0  0  0
    6.1980    1.0170   17.7190 N   0  0  0  0  0  0  0  0  0  0  0  0
    8.5850   -0.6390   23.8510 C   0  0  0  0  0  0  0  0  0  0  0  0
    9.4340   -5.2290   25.5430 C   0  0  0  0  0  0  0  0  0  0  0  0
    7.7780   -3.9760   27.2380 S   0  0  0  0  0  0  0  0  0  0  0  0
    5.0150    1.7610   17.9250 C   0  0  0  0  0  0  0  0  0  0  0  0
    4.6380    0.7270   19.9310 C   0  0  0  0  0  0  0  0  0  0  0  0
    9.7650    0.3300   23.8230 C   0  0  0  0  0  0  0  0  0  0  0  0
    9.3440   -6.0490   26.6100 C   0  0  0  0  0  0  0  0  0  0  0  0
    8.4280   -5.4840   27.6910 C   0  0  0  0  0  0  0  0  0  0  0  0
    4.2520    1.6330   18.9890 C   0  0  0  0  0  0  0  0  0  0  0  0
   11.0550   -0.1600   23.1740 C   0  0  0  0  0  0  0  0  0  0  0  0
   12.1780    0.6320   23.2680 C   0  0  0  0  0  0  0  0  0  0  0  0
   11.3600   -1.3310   22.4530 C   0  0  0  0  0  0  0  0  0  0  0  0
   13.2840    0.1150   22.6620 C   0  0  0  0  0  0  0  0  0  0  0  0
   13.0120   -1.3990   21.9340 S   0  0  0  0  0  0  0  0  0  0  0  0
  1  2  1  0
  1  3  2  0
  1  4  1  0
  4  5  1  0
  4  6  1  0
  5  7  1  0
  6  8  1  0
  6  9  1  6
  7 10  1  0
  8 10  1  0
  9 11  1  0
 10 12  1  0
 11 13  1  0
 12 14  2  3
 12 15  1  0
 13 16  2  0
 13 17  1  0
 14 18  1  0
 15 19  2  0
 15 20  1  0
 17 21  2  0
 16 22  1  0
 18 23  1  0
 19 24  1  0
 20 25  1  0
 24 25  2  0
 21 26  1  0
 22 26  2  0
 23 27  1  0
 27 28  1  0
 27 29  2  0
 28 30  2  0
 29 31  1  0
 30 31  1  0
M  END
