x1386_0-x1375_1
     RDKit          3D

 16 17  0  0  0  0  0  0  0  0999 V2000
    2.5360   -6.9670   23.3790 O   0  0  0  0  0  0  0  0  0  0  0  0
    3.9370   -6.6980   24.0780 S   0  0  0  0  0  0  0  0  0  0  0  0
    4.0150   -5.1910   24.7810 C   0  0  0  0  0  0  0  0  0  0  0  0
    4.4420   -7.7300   24.9530 O   0  0  0  0  0  0  0  0  0  0  0  0
    5.1360   -6.4010   22.7930 C   0  0  0  0  0  0  0  0  0  0  0  0
    5.5070   -4.8910   22.9460 C   0  0  1  0  0  0  0  0  0  0  0  0
    4.8470   -4.4320   24.0700 C   0  0  0  0  0  0  0  0  0  0  0  0
    7.0380   -4.6750   23.0210 C   0  0  0  0  0  0  0  0  0  0  0  0
    7.3950   -3.2070   23.3890 C   0  0  0  0  0  0  0  0  0  0  0  0
    8.7410   -2.7140   22.8040 C   0  0  0  0  0  0  0  0  0  0  0  0
    9.8360   -2.5510   23.8560 C   0  0  0  0  0  0  0  0  0  0  0  0
   10.8840   -1.5610   23.6040 C   0  0  0  0  0  0  0  0  0  0  0  0
   11.9540   -1.5910   22.7370 C   0  0  0  0  0  0  0  0  0  0  0  0
   10.9500   -0.3330   24.2700 C   0  0  0  0  0  0  0  0  0  0  0  0
   12.8240   -0.4970   22.6790 C   0  0  0  0  0  0  0  0  0  0  0  0
   12.2770    0.6670   23.7860 S   0  0  0  0  0  0  0  0  0  0  0  0
  2  1  1  0
  2  3  1  0
  2  4  1  0
  2  5  1  0
  5  6  1  0
  3  7  2  0
  6  7  1  0
  6  8  1  1
  8  9  1  0
  9 10  1  0
 10 11  1  0
 11 12  1  0
 12 13  1  0
 12 14  2  0
 13 15  2  0
 14 16  1  0
 15 16  1  0
M  END
