x1385_1-x0770_1-x1334_1-x1334_0-x0831_0-x1418_1-x0692_1-x0426_1-x1412_1-x0434_2-x0397_0
     RDKit          3D

 39 44  0  0  0  0  0  0  0  0999 V2000
    6.4370   -3.1360   19.8810 C   0  0  0  0  0  0  0  0  0  0  0  0
    7.4270   -2.9530   18.7320 C   0  0  0  0  0  0  0  0  0  0  0  0
    5.5430   -3.9950   19.7140 O   0  0  0  0  0  0  0  0  0  0  0  0
    6.5810   -2.3160   21.2490 C   0  0  1  0  0  0  0  0  0  0  0  0
    5.5630   -1.0700   21.3170 C   0  0  1  0  0  0  0  0  0  0  0  0
    6.3090   -3.3440   22.3860 C   0  0  2  0  0  0  0  0  0  0  0  0
    7.9630   -1.7210   21.2830 C   0  0  0  0  0  0  0  0  0  0  0  0
    5.5250   -0.3420   22.6870 C   0  0  0  0  0  0  0  0  0  0  0  0
    7.2310   -3.0770   23.6390 C   0  0  0  0  0  0  0  0  0  0  0  0
    8.9050   -2.3780   22.0010 C   0  0  0  0  0  0  0  0  0  0  0  0
    6.5340   -4.8100   21.9930 C   0  0  0  0  0  0  0  0  0  0  0  0
    5.4190   -0.1160   20.1390 C   0  0  0  0  0  0  0  0  0  0  0  0
    5.3220    1.1600   22.5850 C   0  0  0  0  0  0  0  0  0  0  0  0
    8.5880   -2.5460   23.4170 N   0  0  0  0  0  0  0  0  0  0  0  0
    6.5300   -5.9170   23.0000 C   0  0  0  0  0  0  0  0  0  0  0  0
    5.5120   -5.9760   22.0090 C   0  0  0  0  0  0  0  0  0  0  0  0
    4.4500    1.0340   19.9560 C   0  0  0  0  0  0  0  0  0  0  0  0
    6.3750   -0.3370   18.9680 C   0  0  0  0  0  0  0  0  0  0  0  0
    3.8160    1.4650   22.4400 C   0  0  2  0  0  0  0  0  0  0  0  0
    3.4040    1.5000   20.9240 C   0  0  0  0  0  0  0  0  0  0  0  0
    9.5630   -3.3080   23.9620 C   0  0  1  0  0  0  0  0  0  0  0  0
    4.5930    1.6970   18.7260 C   0  0  0  0  0  0  0  0  0  0  0  0
    6.3830    0.3910   17.8580 N   0  0  0  0  0  0  0  0  0  0  0  0
    3.4780    2.7270   23.1220 N   0  0  0  0  0  0  0  0  0  0  0  0
   10.7840   -2.5030   24.3930 C   0  0  0  0  0  0  0  0  0  0  0  0
    5.5060    1.3950   17.7250 C   0  0  0  0  0  0  0  0  0  0  0  0
    9.1620   -4.2030   25.1030 C   0  0  0  0  0  0  0  0  0  0  0  0
    9.7300   -5.5330   25.4010 C   0  0  0  0  0  0  0  0  0  0  0  0
    7.9570   -3.7760   26.2640 S   0  0  0  0  0  0  0  0  0  0  0  0
   11.1740   -1.0840   24.0200 C   0  0  0  0  0  0  0  0  0  0  0  0
    9.2480   -6.1560   26.4610 C   0  0  0  0  0  0  0  0  0  0  0  0
    8.1930   -5.3310   27.1340 C   0  0  0  0  0  0  0  0  0  0  0  0
   10.4020    0.0950   24.5480 C   0  0  0  0  0  0  0  0  0  0  0  0
   12.3690   -0.7930   23.1090 C   0  0  0  0  0  0  0  0  0  0  0  0
    7.2770   -5.7090   28.5240 Cl  0  0  0  0  0  0  0  0  0  0  0  0
   13.1730   -1.9000   22.5170 C   0  0  0  0  0  0  0  0  0  0  0  0
   10.7910    1.4110   24.2070 C   0  0  0  0  0  0  0  0  0  0  0  0
   12.7170    0.4980   22.8220 C   0  0  0  0  0  0  0  0  0  0  0  0
   11.8930    1.6720   23.3920 C   0  0  0  0  0  0  0  0  0  0  0  0
  1  2  1  0
  1  3  2  0
  4  1  1  6
  4  5  1  0
  4  6  1  0
  4  7  1  0
  5  8  1  1
  6  9  1  0
  7 10  1  0
  6 11  1  6
  5 12  1  0
  8 13  1  0
  9 14  1  0
 10 14  1  0
 11 15  1  0
 11 16  1  0
 15 16  1  0
 12 17  2  0
 12 18  1  0
 13 19  1  0
 17 20  1  0
 19 20  1  0
 14 21  1  0
 17 22  1  0
 18 23  2  0
 19 24  1  6
 21 25  1  1
 22 26  2  0
 23 26  1  0
 21 27  1  0
 27 28  2  0
 27 29  1  0
 25 30  1  0
 28 31  1  0
 29 32  1  0
 31 32  2  0
 30 33  2  0
 30 34  1  0
 32 35  1  0
 34 36  1  0
 33 37  1  0
 34 38  2  0
 37 39  2  0
 38 39  1  0
M  END
