x1385_1-x0434_2-x0831_0-x1418_1-x0397_0-x0692_1-x1374_1-x1334_1-x1412_1-x0770_1-x1334_0
     RDKit          3D

 40 44  0  0  0  0  0  0  0  0999 V2000
    6.4620   -3.2570   19.9740 C   0  0  0  0  0  0  0  0  0  0  0  0
    7.4110   -3.0060   18.8050 C   0  0  0  0  0  0  0  0  0  0  0  0
    5.5660   -4.1140   19.7860 O   0  0  0  0  0  0  0  0  0  0  0  0
    6.6090   -2.5410   21.2030 N   0  0  0  0  0  0  0  0  0  0  0  0
    6.5770   -3.2750   22.4410 C   0  0  2  0  0  0  0  0  0  0  0  0
    7.4450   -1.3660   21.4860 C   0  0  1  0  0  0  0  0  0  0  0  0
    7.9860   -3.6660   22.9020 C   0  0  0  0  0  0  0  0  0  0  0  0
    8.8880   -1.7770   21.6040 C   0  0  0  0  0  0  0  0  0  0  0  0
    5.6810   -4.4450   22.4090 C   0  0  2  0  0  0  0  0  0  0  0  0
    7.2620   -0.2450   20.6030 C   0  0  0  0  0  0  0  0  0  0  0  0
    9.0120   -2.6190   22.7240 N   0  0  0  0  0  0  0  0  0  0  0  0
    5.8820   -5.3640   23.4920 C   0  0  2  0  0  0  0  0  0  0  0  0
    6.1850   -6.0090   22.2120 C   0  0  0  0  0  0  0  0  0  0  0  0
    7.1190   -0.9110   19.2940 C   0  0  0  0  0  0  0  0  0  0  0  0
    9.7270   -2.1360   23.8620 C   0  0  1  0  0  0  0  0  0  0  0  0
    6.7550   -0.0090   18.4010 C   0  0  0  0  0  0  0  0  0  0  0  0
    4.8520   -6.0470   24.3210 C   0  0  0  0  0  0  0  0  0  0  0  0
   10.4780   -3.2150   24.5210 C   0  0  0  0  0  0  0  0  0  0  0  0
   10.5840   -0.8630   23.6670 C   0  0  0  0  0  0  0  0  0  0  0  0
    5.7520   -0.0200   19.6490 C   0  0  0  0  0  0  0  0  0  0  0  0
    6.0840    1.0470   17.6520 N   0  0  0  0  0  0  0  0  0  0  0  0
    4.4560   -7.2530   23.8300 C   0  0  0  0  0  0  0  0  0  0  0  0
   10.0960    0.3430   24.0270 C   0  0  0  0  0  0  0  0  0  0  0  0
   12.0130   -0.9620   23.0650 C   0  0  0  0  0  0  0  0  0  0  0  0
    9.6650   -4.1260   25.4340 C   0  0  0  0  0  0  0  0  0  0  0  0
    4.9950    1.7960   17.8690 C   0  0  0  0  0  0  0  0  0  0  0  0
    4.5540    0.8090   19.8940 C   0  0  0  0  0  0  0  0  0  0  0  0
    3.9110   -8.0500   24.8620 O   0  0  0  0  0  0  0  0  0  0  0  0
   12.6760   -2.2160   22.6130 C   0  0  0  0  0  0  0  0  0  0  0  0
   10.8110    1.6750   23.9200 C   0  0  0  0  0  0  0  0  0  0  0  0
   12.8550    0.3260   22.9020 C   0  0  0  0  0  0  0  0  0  0  0  0
   10.0080   -5.4970   25.7200 C   0  0  0  0  0  0  0  0  0  0  0  0
    8.2260   -3.7540   26.3030 S   0  0  0  0  0  0  0  0  0  0  0  0
    4.2200    1.7200   18.9410 C   0  0  0  0  0  0  0  0  0  0  0  0
    2.4980   -8.0660   24.8330 C   0  0  0  0  0  0  0  0  0  0  0  0
   12.2330    1.6850   23.3450 C   0  0  0  0  0  0  0  0  0  0  0  0
    9.1930   -6.1450   26.5710 C   0  0  0  0  0  0  0  0  0  0  0  0
    8.1450   -5.3180   27.0120 C   0  0  0  0  0  0  0  0  0  0  0  0
    2.0150   -7.1250   23.8910 O   0  0  0  0  0  0  0  0  0  0  0  0
    6.9030   -5.7280   28.1120 Cl  0  0  0  0  0  0  0  0  0  0  0  0
  1  2  1  0
  1  3  2  0
  1  4  1  0
  4  5  1  0
  4  6  1  0
  5  7  1  6
  6  8  1  0
  5  9  1  0
  6 10  1  6
  7 11  1  0
  8 11  1  0
  9 12  1  0
  9 13  1  6
 12 13  1  0
 10 14  1  0
 11 15  1  0
 14 16  1  0
 12 17  1  6
 15 18  1  6
 15 19  1  0
 16 20  2  0
 16 21  1  0
 17 22  1  0
 19 23  2  0
 19 24  1  0
 18 25  1  0
 21 26  2  0
 20 27  1  0
 22 28  1  0
 24 29  1  0
 23 30  1  0
 24 31  2  0
 25 32  2  0
 25 33  1  0
 26 34  1  0
 27 34  2  0
 28 35  1  0
 30 36  2  0
 31 36  1  0
 32 37  1  0
 33 38  1  0
 37 38  2  0
 35 39  1  0
 38 40  1  0
M  END
