x1385_1-x1412_0-x1386_0-x0692_1-x0434_2-x1412_1-x1334_1
     RDKit          3D

 30 33  0  0  0  0  0  0  0  0999 V2000
    6.3050   -3.3070   19.9340 C   0  0  0  0  0  0  0  0  0  0  0  0
    7.2720   -2.9800   18.7970 C   0  0  0  0  0  0  0  0  0  0  0  0
    5.3760   -4.0930   19.7090 O   0  0  0  0  0  0  0  0  0  0  0  0
    6.4600   -2.7630   21.2300 N   0  0  0  0  0  0  0  0  0  0  0  0
    6.1050   -3.6400   22.3420 C   0  0  0  0  0  0  0  0  0  0  0  0
    7.2910   -1.6160   21.6890 C   0  0  1  0  0  0  0  0  0  0  0  0
    7.3540   -3.9840   23.1920 C   0  0  0  0  0  0  0  0  0  0  0  0
    8.6110   -2.1230   22.2860 C   0  0  0  0  0  0  0  0  0  0  0  0
    7.5830   -0.5330   20.6750 C   0  0  0  0  0  0  0  0  0  0  0  0
    8.2070   -2.8210   23.4750 N   0  0  0  0  0  0  0  0  0  0  0  0
    7.2250   -0.9540   19.2720 C   0  0  0  0  0  0  0  0  0  0  0  0
    9.0160   -2.7550   24.6870 C   0  0  2  0  0  0  0  0  0  0  0  0
    6.7240    0.0850   18.3860 C   0  0  0  0  0  0  0  0  0  0  0  0
    8.7130   -1.4890   25.3010 O   0  0  0  0  0  0  0  0  0  0  0  0
   10.5440   -2.7170   24.3580 C   0  0  0  0  0  0  0  0  0  0  0  0
    8.8170   -3.8380   25.7320 C   0  0  0  0  0  0  0  0  0  0  0  0
    5.8830   -0.0580   19.5520 C   0  0  0  0  0  0  0  0  0  0  0  0
    6.0960    1.0730   17.7110 N   0  0  0  0  0  0  0  0  0  0  0  0
    9.5800   -4.9460   25.7240 C   0  0  0  0  0  0  0  0  0  0  0  0
    7.7070   -3.8730   26.9930 S   0  0  0  0  0  0  0  0  0  0  0  0
   11.2610   -1.4590   23.9490 C   0  0  0  0  0  0  0  0  0  0  0  0
    4.9910    1.7720   17.9810 C   0  0  0  0  0  0  0  0  0  0  0  0
    4.7260    0.6000   19.9500 C   0  0  0  0  0  0  0  0  0  0  0  0
    9.4310   -6.0750   26.7320 C   0  0  0  0  0  0  0  0  0  0  0  0
    8.2910   -5.3870   27.4870 C   0  0  0  0  0  0  0  0  0  0  0  0
   12.3130   -1.4730   23.0290 C   0  0  0  0  0  0  0  0  0  0  0  0
   11.0330   -0.0230   24.4010 C   0  0  0  0  0  0  0  0  0  0  0  0
    4.1780    1.5720   19.2000 C   0  0  0  0  0  0  0  0  0  0  0  0
   12.8860   -0.2380   22.7480 C   0  0  0  0  0  0  0  0  0  0  0  0
   12.1360    1.0290   23.6230 S   0  0  0  0  0  0  0  0  0  0  0  0
  1  2  1  0
  1  3  2  0
  1  4  1  0
  4  5  1  0
  4  6  1  0
  5  7  1  0
  6  8  1  0
  6  9  1  6
  7 10  1  0
  8 10  1  0
  9 11  1  0
 10 12  1  0
 11 13  1  0
 12 14  1  1
 12 15  1  0
 12 16  1  0
 13 17  2  0
 13 18  1  0
 16 19  2  0
 16 20  1  0
 15 21  1  0
 18 22  2  0
 17 23  1  0
 19 24  1  0
 20 25  1  0
 24 25  2  0
 21 26  1  0
 21 27  2  0
 22 28  1  0
 23 28  2  0
 26 29  2  0
 27 30  1  0
 29 30  1  0
M  END
