x1385_1-x1334_1-x0770_1-x0387_0-x1412_0
     RDKit          3D

 22 24  0  0  0  0  0  0  0  0999 V2000
    6.4600   -3.2930   19.9500 C   0  0  0  0  0  0  0  0  0  0  0  0
    7.4400   -3.0080   18.8330 C   0  0  0  0  0  0  0  0  0  0  0  0
    5.4840   -4.0350   19.7320 O   0  0  0  0  0  0  0  0  0  0  0  0
    6.7320   -2.7170   21.2020 N   0  0  0  0  0  0  0  0  0  0  0  0
    6.4280   -3.4440   22.4310 C   0  0  0  0  0  0  0  0  0  0  0  0
    7.6600   -1.5940   21.4570 C   0  0  0  0  0  0  0  0  0  0  0  0
    7.7040   -3.9790   23.0560 C   0  0  0  0  0  0  0  0  0  0  0  0
    8.8670   -2.0560   22.0360 C   0  0  0  0  0  0  0  0  0  0  0  0
    8.6720   -2.8750   23.2460 N   0  0  0  0  0  0  0  0  0  0  0  0
    8.7580   -2.3000   24.5020 C   0  0  2  0  0  0  0  0  0  0  0  0
    7.8440   -1.5830   24.9130 O   0  0  0  0  0  0  0  0  0  0  0  0
   10.0020   -1.4550   24.7600 C   0  0  0  0  0  0  0  0  0  0  0  0
    8.7330   -3.5260   25.4780 C   0  0  0  0  0  0  0  0  0  0  0  0
    9.6940   -4.6890   25.3020 C   0  0  0  0  0  0  0  0  0  0  0  0
    7.6750   -3.7970   26.8820 S   0  0  0  0  0  0  0  0  0  0  0  0
   11.1840   -1.2390   23.8340 C   0  0  0  0  0  0  0  0  0  0  0  0
    9.5450   -5.7050   26.2640 C   0  0  0  0  0  0  0  0  0  0  0  0
    8.4240   -5.3370   27.2460 C   0  0  0  0  0  0  0  0  0  0  0  0
   11.9330   -0.1110   23.9570 C   0  0  0  0  0  0  0  0  0  0  0  0
   11.5790   -2.1320   22.8470 C   0  0  0  0  0  0  0  0  0  0  0  0
   12.9710   -0.1740   22.9830 C   0  0  0  0  0  0  0  0  0  0  0  0
   12.9620   -1.5600   22.0160 S   0  0  0  0  0  0  0  0  0  0  0  0
  1  2  1  0
  1  3  2  0
  1  4  1  0
  4  5  1  0
  4  6  1  0
  5  7  1  0
  6  8  1  0
  7  9  1  0
  8  9  1  0
  9 10  1  0
 10 11  1  1
 10 12  1  0
 10 13  1  0
 13 14  2  0
 13 15  1  0
 12 16  1  0
 14 17  1  0
 15 18  1  0
 17 18  2  0
 16 19  1  0
 16 20  2  0
 19 21  2  0
 20 22  1  0
 21 22  1  0
M  END
