x1382_1-x1412_0
     RDKit          3D

 15 16  0  0  0  0  0  0  0  0999 V2000
    8.5750   -1.7290   22.9500 C   0  0  0  0  0  0  0  0  0  0  0  0
    7.8300   -1.5650   24.2810 C   0  0  0  0  0  0  0  0  0  0  0  0
    8.5390   -2.9040   24.4700 C   0  0  0  0  0  0  0  0  0  0  0  0
    9.9780   -1.1310   22.9880 C   0  0  0  0  0  0  0  0  0  0  0  0
   10.9560   -1.6910   22.2150 C   0  0  0  0  0  0  0  0  0  0  0  0
   10.3270   -0.0190   23.7770 C   0  0  0  0  0  0  0  0  0  0  0  0
   12.2460   -1.2420   22.1540 C   0  0  0  0  0  0  0  0  0  0  0  0
   11.6510    0.5140   23.7750 C   0  0  0  0  0  0  0  0  0  0  0  0
    8.5510   -3.8720   25.6100 C   0  0  0  0  0  0  0  0  0  0  0  0
   13.3150   -2.0370   21.1390 Cl  0  0  0  0  0  0  0  0  0  0  0  0
   12.6670   -0.0390   22.9910 C   0  0  0  0  0  0  0  0  0  0  0  0
    9.3690   -4.9340   25.4670 C   0  0  0  0  0  0  0  0  0  0  0  0
    7.6510   -3.8990   27.1940 S   0  0  0  0  0  0  0  0  0  0  0  0
    9.3250   -5.7890   26.5440 C   0  0  0  0  0  0  0  0  0  0  0  0
    8.4260   -5.3230   27.5410 C   0  0  0  0  0  0  0  0  0  0  0  0
  1  2  1  0
  2  3  2  3
  1  4  1  0
  4  5  2  0
  4  6  1  0
  5  7  1  0
  6  8  2  0
  3  9  1  0
  7 10  1  0
  7 11  2  0
  8 11  1  0
  9 12  2  0
  9 13  1  0
 12 14  1  0
 13 15  1  0
 14 15  2  0
M  END
