x1385_0-x0104_0
     RDKit          3D

 18 18  0  0  0  0  0  0  0  0999 V2000
   12.6080    3.5350   22.5620 C   0  0  0  0  0  0  0  0  0  0  0  0
   12.4770    4.9660   23.0890 C   0  0  0  0  0  0  0  0  0  0  0  0
   11.2650    5.5960   22.5950 N   0  0  0  0  0  0  0  0  0  0  0  0
   11.6050    2.4950   23.1060 C   0  0  0  0  0  0  0  0  0  0  0  0
   12.1490    1.0470   23.2900 C   0  0  0  0  0  0  0  0  0  0  0  0
   10.3620    6.0470   23.3880 C   0  0  0  0  0  0  0  0  0  0  0  0
   11.1670   -0.1390   23.2580 C   0  0  0  0  0  0  0  0  0  0  0  0
    9.0860    6.5010   22.6590 C   0  0  0  0  0  0  0  0  0  0  0  0
   10.4810    6.1220   24.6090 O   0  0  0  0  0  0  0  0  0  0  0  0
   11.6750   -1.5760   23.5240 C   0  0  0  0  0  0  0  0  0  0  0  0
   10.9370   -2.3560   24.4190 C   0  0  0  0  0  0  0  0  0  0  0  0
    9.8560   -3.1510   23.9570 C   0  0  0  0  0  0  0  0  0  0  0  0
    9.4040   -4.0860   24.9720 C   0  0  0  0  0  0  0  0  0  0  0  0
    9.9930   -5.2210   25.4510 C   0  0  0  0  0  0  0  0  0  0  0  0
    7.8360   -3.8790   25.8580 S   0  0  0  0  0  0  0  0  0  0  0  0
    9.2800   -5.8840   26.4660 C   0  0  0  0  0  0  0  0  0  0  0  0
    8.1050   -5.2840   26.8130 C   0  0  0  0  0  0  0  0  0  0  0  0
    6.9110   -5.8920   28.1690 Br  0  0  0  0  0  0  0  0  0  0  0  0
  1  2  1  0
  2  3  1  0
  1  4  1  0
  4  5  1  0
  3  6  1  0
  5  7  1  0
  6  8  1  0
  6  9  2  0
  7 10  1  0
 10 11  1  0
 11 12  1  0
 12 13  1  0
 13 14  2  0
 13 15  1  0
 14 16  1  0
 15 17  1  0
 16 17  2  0
 17 18  1  0
M  END
