x1385_0-x0981_1-x0434_2-x1412_1-x0831_0-x1334_1
     RDKit          3D

 46 49  0  0  0  0  0  0  0  0999 V2000
    4.1050   -5.9690   23.0900 C   0  0  0  0  0  0  0  0  0  0  0  0
    2.6670   -6.2170   23.5190 C   0  0  1  0  0  0  0  0  0  0  0  0
    2.3000   -7.4480   22.8190 N   0  0  0  0  0  0  0  0  0  0  0  0
    4.6700   -4.9650   22.2430 N   0  0  0  0  0  0  0  0  0  0  0  0
    2.5460   -6.3770   25.0260 C   0  0  0  0  0  0  0  0  0  0  0  0
    6.1030   -5.1280   22.0690 C   0  0  0  0  0  0  0  0  0  0  0  0
    1.1620   -7.4990   22.0430 C   0  0  0  0  0  0  0  0  0  0  0  0
    3.0280   -7.7260   25.4200 C   0  0  0  0  0  0  0  0  0  0  0  0
    6.7340   -3.7170   22.3360 C   0  0  2  0  0  0  0  0  0  0  0  0
    1.1010   -8.7480   21.2100 C   0  0  0  0  0  0  0  0  0  0  0  0
    0.3080   -6.6220   22.0230 O   0  0  0  0  0  0  0  0  0  0  0  0
    2.4790   -8.3060   26.5190 N   0  0  0  0  0  0  0  0  0  0  0  0
    3.8800   -8.2670   24.7470 O   0  0  0  0  0  0  0  0  0  0  0  0
    6.8080   -2.8600   21.1100 C   0  0  0  0  0  0  0  0  0  0  0  0
    7.9880   -3.8810   22.9330 C   0  0  0  0  0  0  0  0  0  0  0  0
    6.8600   -3.6600   19.8640 C   0  0  0  0  0  0  0  0  0  0  0  0
    5.4430   -2.6090   20.5600 C   0  0  0  0  0  0  0  0  0  0  0  0
    8.3450   -2.6140   23.2280 N   0  0  0  0  0  0  0  0  0  0  0  0
    7.7590   -1.7190   21.0870 C   0  0  1  0  0  0  0  0  0  0  0  0
    7.6970   -3.2020   18.7190 C   0  0  0  0  0  0  0  0  0  0  0  0
    6.1340   -4.6440   19.8530 O   0  0  0  0  0  0  0  0  0  0  0  0
    5.2560   -1.8650   19.2480 C   0  0  0  0  0  0  0  0  0  0  0  0
    4.5550   -3.1810   21.1720 O   0  0  0  0  0  0  0  0  0  0  0  0
    9.3490   -2.6690   24.2670 C   0  0  2  0  0  0  0  0  0  0  0  0
    7.0990   -0.4380   21.2270 N   0  0  0  0  0  0  0  0  0  0  0  0
    8.7740   -1.8030   22.0460 C   0  0  0  0  0  0  0  0  0  0  0  0
   10.7630   -2.6990   23.6820 C   0  0  0  0  0  0  0  0  0  0  0  0
    9.0670   -3.8250   25.2360 C   0  0  0  0  0  0  0  0  0  0  0  0
    6.5130    0.1490   20.1550 C   0  0  0  0  0  0  0  0  0  0  0  0
    9.7670   -5.1240   25.3460 C   0  0  0  0  0  0  0  0  0  0  0  0
    7.8340   -3.7280   26.3680 S   0  0  0  0  0  0  0  0  0  0  0  0
   11.0750   -1.2450   23.6450 C   0  0  0  0  0  0  0  0  0  0  0  0
    6.9500    0.0800   18.8190 C   0  0  0  0  0  0  0  0  0  0  0  0
    5.3620    0.9020   20.3310 C   0  0  0  0  0  0  0  0  0  0  0  0
    9.2410   -5.8490   26.3160 C   0  0  0  0  0  0  0  0  0  0  0  0
    8.1860   -5.2730   26.9960 C   0  0  0  0  0  0  0  0  0  0  0  0
   10.4470   -0.0540   24.0400 C   0  0  0  0  0  0  0  0  0  0  0  0
   12.4100   -0.8440   23.0340 C   0  0  0  0  0  0  0  0  0  0  0  0
    6.3740    0.6670   17.7520 N   0  0  0  0  0  0  0  0  0  0  0  0
    4.7410    1.5160   19.2450 C   0  0  0  0  0  0  0  0  0  0  0  0
    7.1840   -5.9930   28.4400 Br  0  0  0  0  0  0  0  0  0  0  0  0
   13.2660   -1.9230   22.4990 C   0  0  0  0  0  0  0  0  0  0  0  0
   10.8260    1.2800   23.9830 C   0  0  0  0  0  0  0  0  0  0  0  0
   12.9010    0.5610   22.9370 C   0  0  0  0  0  0  0  0  0  0  0  0
    5.2590    1.3810   18.0140 C   0  0  0  0  0  0  0  0  0  0  0  0
   12.1010    1.5870   23.4150 C   0  0  0  0  0  0  0  0  0  0  0  0
  2  1  1  1
  2  3  1  0
  1  4  2  3
  2  5  1  0
  4  6  1  0
  3  7  1  0
  5  8  1  0
  9  6  1  6
  7 10  1  0
  7 11  2  0
  8 12  1  0
  8 13  2  0
  9 14  1  0
  9 15  1  0
 14 16  1  0
 14 17  1  0
 15 18  1  0
 14 19  1  0
 16 20  1  0
 16 21  2  0
 17 22  1  0
 17 23  2  0
 18 24  1  0
 19 25  1  1
 18 26  1  0
 19 26  1  0
 24 27  1  6
 24 28  1  0
 25 29  1  0
 28 30  2  0
 28 31  1  0
 27 32  1  0
 29 33  2  0
 29 34  1  0
 30 35  1  0
 31 36  1  0
 35 36  2  0
 32 37  2  0
 32 38  1  0
 33 39  1  0
 34 40  2  0
 36 41  1  0
 38 42  1  0
 37 43  1  0
 38 44  2  0
 39 45  2  0
 40 45  1  0
 43 46  2  0
 44 46  1  0
M  END
