x1386_1-x0692_1-x0397_0-x1412_1-x1334_1-x0426_1-x1374_1-x1418_1-x1334_0-x0434_2-x0831_0-x0770_1
     RDKit          3D

 45 50  0  0  0  0  0  0  0  0999 V2000
    2.3010   -7.6830   23.2610 O   0  0  0  0  0  0  0  0  0  0  0  0
    2.6060   -7.9190   24.6180 C   0  0  0  0  0  0  0  0  0  0  0  0
    4.0020   -7.9380   24.7910 O   0  0  0  0  0  0  0  0  0  0  0  0
    4.6190   -7.1330   23.7900 C   0  0  0  0  0  0  0  0  0  0  0  0
    5.1100   -5.9600   24.2890 C   0  0  0  0  0  0  0  0  0  0  0  0
    5.9140   -5.2860   23.2140 C   0  0  2  0  0  0  0  0  0  0  0  0
    5.1810   -4.9830   22.2500 C   0  0  2  0  0  0  0  0  0  0  0  0
    6.5030   -5.9620   22.3270 C   0  0  0  0  0  0  0  0  0  0  0  0
    5.1170   -3.6110   22.1510 C   0  0  0  0  0  0  0  0  0  0  0  0
    6.3830   -2.7510   22.2600 C   0  0  2  0  0  0  0  0  0  0  0  0
    6.8500   -2.3550   20.9490 N   0  0  0  0  0  0  0  0  0  0  0  0
    7.5410   -3.4250   23.1440 C   0  0  0  0  0  0  0  0  0  0  0  0
    6.5520   -3.1140   19.7960 C   0  0  0  0  0  0  0  0  0  0  0  0
    8.7060   -2.5300   23.2780 N   0  0  0  0  0  0  0  0  0  0  0  0
    7.9750   -1.4110   21.1200 C   0  0  2  0  0  0  0  0  0  0  0  0
    7.4780   -2.9570   18.6340 C   0  0  0  0  0  0  0  0  0  0  0  0
    5.5950   -3.9260   19.6820 O   0  0  0  0  0  0  0  0  0  0  0  0
    9.7280   -3.1970   23.8850 C   0  0  1  0  0  0  0  0  0  0  0  0
    9.1280   -2.0490   21.9270 C   0  0  0  0  0  0  0  0  0  0  0  0
    7.4350   -0.1510   21.8060 C   0  0  0  0  0  0  0  0  0  0  0  0
   10.8470   -2.4350   24.5210 C   0  0  0  0  0  0  0  0  0  0  0  0
    9.2750   -4.1510   25.0150 C   0  0  0  0  0  0  0  0  0  0  0  0
    5.9060   -0.0470   21.6140 C   0  0  1  0  0  0  0  0  0  0  0  0
    9.7490   -5.5280   25.3570 C   0  0  0  0  0  0  0  0  0  0  0  0
    8.0280   -3.7990   26.2600 S   0  0  0  0  0  0  0  0  0  0  0  0
   11.2070   -1.0510   24.0960 C   0  0  0  0  0  0  0  0  0  0  0  0
    5.1830    0.8410   22.6770 C   0  0  0  0  0  0  0  0  0  0  0  0
    5.7040    0.4810   20.2350 C   0  0  0  0  0  0  0  0  0  0  0  0
    9.1460   -6.0780   26.4460 C   0  0  0  0  0  0  0  0  0  0  0  0
    8.1910   -5.3030   27.0710 C   0  0  0  0  0  0  0  0  0  0  0  0
   10.3630    0.1440   24.5760 C   0  0  0  0  0  0  0  0  0  0  0  0
   12.3400   -0.8600   23.2680 C   0  0  0  0  0  0  0  0  0  0  0  0
    4.4090    2.0920   22.1970 C   0  0  2  0  0  0  0  0  0  0  0  0
    4.5860    1.3740   19.9700 C   0  0  0  0  0  0  0  0  0  0  0  0
    6.5640    0.1430   19.2010 C   0  0  0  0  0  0  0  0  0  0  0  0
    7.2540   -5.6830   28.4420 Cl  0  0  0  0  0  0  0  0  0  0  0  0
   13.1590   -2.0070   22.7720 C   0  0  0  0  0  0  0  0  0  0  0  0
   10.7630    1.5630   24.1610 C   0  0  0  0  0  0  0  0  0  0  0  0
   12.7710    0.5940   22.8480 C   0  0  0  0  0  0  0  0  0  0  0  0
    3.7050    2.5300   23.2700 N   0  0  0  0  0  0  0  0  0  0  0  0
    3.6500    1.7330   21.0690 C   0  0  0  0  0  0  0  0  0  0  0  0
    4.4640    1.8720   18.5900 C   0  0  0  0  0  0  0  0  0  0  0  0
    6.4210    0.6140   17.9410 N   0  0  0  0  0  0  0  0  0  0  0  0
   11.8790    1.7560   23.3690 C   0  0  0  0  0  0  0  0  0  0  0  0
    5.3540    1.4840   17.6900 C   0  0  0  0  0  0  0  0  0  0  0  0
  1  2  1  0
  2  3  1  0
  3  4  1  0
  4  5  1  0
  6  5  1  1
  6  7  1  0
  6  8  1  0
  7  8  1  0
  7  9  1  6
 10  9  1  6
 10 11  1  0
 10 12  1  0
 11 13  1  0
 12 14  1  0
 11 15  1  0
 13 16  1  0
 13 17  2  0
 14 18  1  0
 14 19  1  0
 15 19  1  0
 15 20  1  1
 18 21  1  1
 18 22  1  0
 23 20  1  1
 22 24  2  0
 22 25  1  0
 21 26  1  0
 23 27  1  0
 23 28  1  0
 24 29  1  0
 25 30  1  0
 29 30  2  0
 26 31  2  0
 26 32  1  0
 27 33  1  0
 28 34  2  0
 28 35  1  0
 30 36  1  0
 32 37  1  0
 31 38  1  0
 32 39  2  0
 33 40  1  1
 33 41  1  0
 34 41  1  0
 34 42  1  0
 35 43  2  0
 38 44  2  0
 39 44  1  0
 42 45  2  0
 43 45  1  0
M  END
