x1385_1-x1418_1-x0397_0-x1386_1-x0426_1-x1334_1-x0770_1-x1375_1-x1374_1-x1334_0-x0831_0-x0692_1-x1412_1-x0434_2-x0831_1
     RDKit          3D

 43 48  0  0  0  0  0  0  0  0999 V2000
    2.2220   -7.1990   24.0260 O   0  0  0  0  0  0  0  0  0  0  0  0
    3.2600   -7.2730   24.9900 C   0  0  0  0  0  0  0  0  0  0  0  0
    4.5250   -7.0060   24.4190 O   0  0  0  0  0  0  0  0  0  0  0  0
    4.4560   -5.7410   23.7500 C   0  0  0  0  0  0  0  0  0  0  0  0
    5.7280   -5.4770   23.0030 C   0  0  2  0  0  0  0  0  0  0  0  0
    5.6980   -4.5460   22.1040 C   0  0  2  0  0  0  0  0  0  0  0  0
    5.9350   -6.0570   21.6920 C   0  0  0  0  0  0  0  0  0  0  0  0
    6.8010   -3.5030   22.1060 C   0  0  2  0  0  0  0  0  0  0  0  0
    7.3240   -3.3160   23.3610 C   0  0  0  0  0  0  0  0  0  0  0  0
    6.7530   -2.4120   21.2200 C   0  0  1  0  0  0  0  0  0  0  0  0
    6.4700   -3.1570   19.8460 C   0  0  0  0  0  0  0  0  0  0  0  0
    5.8660   -1.1420   21.4010 C   0  0  2  0  0  0  0  0  0  0  0  0
    8.3660   -2.2800   23.3860 N   0  0  0  0  0  0  0  0  0  0  0  0
    7.9790   -1.7500   21.1410 C   0  0  0  0  0  0  0  0  0  0  0  0
    7.4450   -2.9650   18.6800 C   0  0  0  0  0  0  0  0  0  0  0  0
    5.5150   -3.9500   19.7100 O   0  0  0  0  0  0  0  0  0  0  0  0
    4.7600   -0.9650   22.4510 C   0  0  0  0  0  0  0  0  0  0  0  0
    9.3400   -2.5320   24.4750 C   0  0  2  0  0  0  0  0  0  0  0  0
    8.9680   -2.0900   22.0570 C   0  0  0  0  0  0  0  0  0  0  0  0
    5.6400   -0.2140   20.1670 C   0  0  0  0  0  0  0  0  0  0  0  0
    4.7510    0.3480   23.3010 C   0  0  0  0  0  0  0  0  0  0  0  0
   10.6620   -2.4940   23.9870 C   0  0  0  0  0  0  0  0  0  0  0  0
    4.6620    0.8090   20.0620 C   0  0  0  0  0  0  0  0  0  0  0  0
    6.4750   -0.3930   19.0610 C   0  0  0  0  0  0  0  0  0  0  0  0
    9.1030   -3.7590   25.3650 C   0  0  0  0  0  0  0  0  0  0  0  0
    4.2920    1.5710   22.4820 C   0  0  1  0  0  0  0  0  0  0  0  0
    3.6750    1.1900   21.1170 C   0  0  0  0  0  0  0  0  0  0  0  0
    4.5700    1.5670   18.8880 C   0  0  0  0  0  0  0  0  0  0  0  0
    6.3820    0.3970   17.8410 N   0  0  0  0  0  0  0  0  0  0  0  0
    9.8260   -5.0970   25.3740 C   0  0  0  0  0  0  0  0  0  0  0  0
    7.8910   -3.8200   26.5970 S   0  0  0  0  0  0  0  0  0  0  0  0
   11.1620   -1.0900   23.7990 C   0  0  0  0  0  0  0  0  0  0  0  0
    3.4000    2.3440   23.3800 N   0  0  0  0  0  0  0  0  0  0  0  0
    5.4220    1.3360   17.8270 C   0  0  0  0  0  0  0  0  0  0  0  0
    9.3910   -5.9720   26.2950 C   0  0  0  0  0  0  0  0  0  0  0  0
    8.2500   -5.3940   27.1200 C   0  0  0  0  0  0  0  0  0  0  0  0
   10.5120    0.0200   24.3490 C   0  0  0  0  0  0  0  0  0  0  0  0
   12.3270   -0.9080   23.0360 C   0  0  0  0  0  0  0  0  0  0  0  0
    7.3490   -6.0590   28.4040 Cl  0  0  0  0  0  0  0  0  0  0  0  0
   13.0770   -2.0200   22.3940 C   0  0  0  0  0  0  0  0  0  0  0  0
   10.9700    1.3090   24.1760 C   0  0  0  0  0  0  0  0  0  0  0  0
   12.7870    0.3850   22.8780 C   0  0  0  0  0  0  0  0  0  0  0  0
   12.1280    1.4600   23.4300 C   0  0  0  0  0  0  0  0  0  0  0  0
  1  2  1  0
  2  3  1  0
  3  4  1  0
  5  4  1  6
  5  6  1  0
  5  7  1  0
  6  7  1  6
  6  8  1  0
  8  9  1  1
  8 10  1  0
 10 11  1  6
 10 12  1  0
  9 13  1  0
 10 14  1  0
 11 15  1  0
 11 16  2  0
 12 17  1  6
 13 18  1  0
 13 19  1  0
 14 19  1  0
 12 20  1  0
 17 21  1  0
 18 22  1  6
 20 23  2  0
 20 24  1  0
 18 25  1  0
 21 26  1  0
 23 27  1  0
 26 27  1  0
 23 28  1  0
 24 29  2  0
 25 30  2  0
 25 31  1  0
 22 32  1  0
 26 33  1  1
 28 34  2  0
 29 34  1  0
 30 35  1  0
 31 36  1  0
 35 36  2  0
 32 37  2  0
 32 38  1  0
 36 39  1  0
 38 40  1  0
 37 41  1  0
 38 42  2  0
 41 43  2  0
 42 43  1  0
M  END
