x1385_1-x1386_1-x0434_2-x0831_1-x0770_1-x1334_1-x1412_1-x0831_0-x1374_1-x0397_0-x0426_1-x1334_0-x1418_1-x0692_1
     RDKit          3D

 44 49  0  0  0  0  0  0  0  0999 V2000
    1.9980   -7.1820   23.6250 O   0  0  0  0  0  0  0  0  0  0  0  0
    2.4650   -7.5630   24.9070 C   0  0  0  0  0  0  0  0  0  0  0  0
    3.8420   -7.8840   24.8430 O   0  0  0  0  0  0  0  0  0  0  0  0
    4.4110   -7.1900   23.7510 C   0  0  0  0  0  0  0  0  0  0  0  0
    4.8800   -5.9720   24.1860 C   0  0  0  0  0  0  0  0  0  0  0  0
    5.8950   -5.4590   23.2190 C   0  0  2  0  0  0  0  0  0  0  0  0
    5.6000   -4.3880   22.3710 C   0  0  2  0  0  0  0  0  0  0  0  0
    6.1300   -5.8350   21.8400 C   0  0  0  0  0  0  0  0  0  0  0  0
    6.3370   -3.0550   22.4630 C   0  0  1  0  0  0  0  0  0  0  0  0
    7.6480   -3.3450   23.1510 C   0  0  0  0  0  0  0  0  0  0  0  0
    6.4690   -2.2680   21.1460 C   0  0  1  0  0  0  0  0  0  0  0  0
    6.3610   -3.1340   19.8440 C   0  0  0  0  0  0  0  0  0  0  0  0
    5.5480   -1.0590   21.2360 C   0  0  1  0  0  0  0  0  0  0  0  0
    8.4460   -2.0950   23.2630 N   0  0  0  0  0  0  0  0  0  0  0  0
    7.8760   -1.6370   21.0930 C   0  0  0  0  0  0  0  0  0  0  0  0
    7.3700   -2.9730   18.7130 C   0  0  0  0  0  0  0  0  0  0  0  0
    5.4910   -4.0170   19.7230 O   0  0  0  0  0  0  0  0  0  0  0  0
    5.8390   -0.1610   22.4630 C   0  0  0  0  0  0  0  0  0  0  0  0
    9.7880   -2.5100   23.1200 C   0  0  2  0  0  0  0  0  0  0  0  0
    8.2410   -1.0440   22.2620 C   0  0  0  0  0  0  0  0  0  0  0  0
    5.4360   -0.1350   20.0410 C   0  0  0  0  0  0  0  0  0  0  0  0
    4.6690    0.4820   23.1790 C   0  0  0  0  0  0  0  0  0  0  0  0
   10.2960   -3.2130   24.2930 C   0  0  0  0  0  0  0  0  0  0  0  0
    4.4620    0.8580   19.9280 C   0  0  0  0  0  0  0  0  0  0  0  0
    6.3100   -0.2450   19.0120 C   0  0  0  0  0  0  0  0  0  0  0  0
   10.6780   -1.2440   23.2390 C   0  0  0  0  0  0  0  0  0  0  0  0
    3.8270    1.5250   22.3990 C   0  0  2  0  0  0  0  0  0  0  0  0
    3.4150    1.1080   20.9610 C   0  0  0  0  0  0  0  0  0  0  0  0
    4.5210    1.6630   18.6750 C   0  0  0  0  0  0  0  0  0  0  0  0
    6.3580    0.4900   17.8690 N   0  0  0  0  0  0  0  0  0  0  0  0
   10.0850   -0.0990   24.0020 C   0  0  0  0  0  0  0  0  0  0  0  0
   12.0890   -1.0140   22.6670 C   0  0  0  0  0  0  0  0  0  0  0  0
    9.5370   -4.1500   25.2010 C   0  0  0  0  0  0  0  0  0  0  0  0
    4.4310    2.8290   22.4830 N   0  0  0  0  0  0  0  0  0  0  0  0
   12.8960   -1.9900   21.8740 C   0  0  0  0  0  0  0  0  0  0  0  0
    5.4270    1.4420   17.7520 C   0  0  0  0  0  0  0  0  0  0  0  0
   10.8080    1.2030   24.1890 C   0  0  0  0  0  0  0  0  0  0  0  0
   12.8110    0.3310   22.8810 C   0  0  0  0  0  0  0  0  0  0  0  0
    9.8460   -5.4490   25.4550 C   0  0  0  0  0  0  0  0  0  0  0  0
    8.1260   -3.7530   26.2080 S   0  0  0  0  0  0  0  0  0  0  0  0
   12.2140    1.3310   23.5690 C   0  0  0  0  0  0  0  0  0  0  0  0
    9.0890   -6.1020   26.3730 C   0  0  0  0  0  0  0  0  0  0  0  0
    8.1030   -5.3200   26.8960 C   0  0  0  0  0  0  0  0  0  0  0  0
    6.9530   -5.7570   28.0880 Cl  0  0  0  0  0  0  0  0  0  0  0  0
  1  2  1  0
  2  3  1  0
  3  4  1  0
  4  5  1  0
  6  5  1  6
  6  7  1  0
  6  8  1  0
  7  8  1  6
  7  9  1  0
  9 10  1  6
  9 11  1  0
 11 12  1  6
 11 13  1  0
 10 14  1  0
 11 15  1  0
 12 16  1  0
 12 17  2  0
 13 18  1  1
 14 19  1  0
 14 20  1  0
 15 20  1  0
 13 21  1  0
 18 22  1  0
 19 23  1  1
 21 24  2  0
 21 25  1  0
 19 26  1  0
 22 27  1  0
 24 28  1  0
 27 28  1  0
 24 29  1  0
 25 30  2  0
 26 31  2  0
 26 32  1  0
 23 33  1  0
 27 34  1  6
 32 35  1  0
 29 36  2  0
 30 36  1  0
 31 37  1  0
 32 38  2  0
 33 39  2  0
 33 40  1  0
 37 41  2  0
 38 41  1  0
 39 42  1  0
 40 43  1  0
 42 43  2  0
 43 44  1  0
M  END
