x1385_1-x1334_0-x0397_0-x0434_2-x0692_1-x0770_1-x0831_0-x1412_1-x1334_1
     RDKit          3D

 35 39  0  0  0  0  0  0  0  0999 V2000
    6.4250   -3.3630   19.9600 C   0  0  0  0  0  0  0  0  0  0  0  0
    7.3880   -3.0440   18.8200 C   0  0  0  0  0  0  0  0  0  0  0  0
    5.4710   -4.1310   19.7500 O   0  0  0  0  0  0  0  0  0  0  0  0
    6.6490   -2.7960   21.2210 N   0  0  0  0  0  0  0  0  0  0  0  0
    6.2740   -3.4180   22.4770 C   0  0  2  0  0  0  0  0  0  0  0  0
    7.7870   -1.8370   21.3400 C   0  0  2  0  0  0  0  0  0  0  0  0
    7.5060   -3.6100   23.3120 C   0  0  0  0  0  0  0  0  0  0  0  0
    8.1740   -1.3750   22.7430 C   0  0  0  0  0  0  0  0  0  0  0  0
    5.5130   -4.7310   22.4170 C   0  0  0  0  0  0  0  0  0  0  0  0
    7.5310   -0.5660   20.6330 C   0  0  0  0  0  0  0  0  0  0  0  0
    8.0500   -2.3550   23.7980 N   0  0  0  0  0  0  0  0  0  0  0  0
    5.9360   -6.0340   22.9110 C   0  0  0  0  0  0  0  0  0  0  0  0
    6.2310   -5.9400   21.7050 C   0  0  0  0  0  0  0  0  0  0  0  0
    7.1720   -0.9470   19.2220 C   0  0  0  0  0  0  0  0  0  0  0  0
    9.2780   -2.6920   24.4480 C   0  0  2  0  0  0  0  0  0  0  0  0
    6.7580   -0.0270   18.4270 C   0  0  0  0  0  0  0  0  0  0  0  0
   10.3250   -2.5730   23.3180 C   0  0  0  0  0  0  0  0  0  0  0  0
    9.0580   -3.9100   25.3350 C   0  0  0  0  0  0  0  0  0  0  0  0
    5.9850   -0.2030   19.5930 C   0  0  0  0  0  0  0  0  0  0  0  0
    6.1250    1.0630   17.6520 N   0  0  0  0  0  0  0  0  0  0  0  0
    9.7780   -5.2670   25.3110 C   0  0  0  0  0  0  0  0  0  0  0  0
    7.9170   -3.9050   26.5730 S   0  0  0  0  0  0  0  0  0  0  0  0
   10.9120   -1.1620   23.3890 C   0  0  0  0  0  0  0  0  0  0  0  0
    4.9980    1.8120   17.9300 C   0  0  0  0  0  0  0  0  0  0  0  0
    4.7450    0.5890   19.9570 C   0  0  0  0  0  0  0  0  0  0  0  0
    9.2080   -6.1040   26.4210 C   0  0  0  0  0  0  0  0  0  0  0  0
    8.2190   -5.4790   27.1440 C   0  0  0  0  0  0  0  0  0  0  0  0
   10.3130   -0.1030   24.0480 C   0  0  0  0  0  0  0  0  0  0  0  0
   12.2540   -0.8780   22.7100 C   0  0  0  0  0  0  0  0  0  0  0  0
    4.2200    1.6260   19.1180 C   0  0  0  0  0  0  0  0  0  0  0  0
    7.3050   -6.0450   28.4690 Cl  0  0  0  0  0  0  0  0  0  0  0  0
   12.9810   -1.9420   21.9610 C   0  0  0  0  0  0  0  0  0  0  0  0
   10.8660    1.3110   24.1530 C   0  0  0  0  0  0  0  0  0  0  0  0
   12.8020    0.3280   22.7710 C   0  0  0  0  0  0  0  0  0  0  0  0
   12.2180    1.5070   23.4510 C   0  0  0  0  0  0  0  0  0  0  0  0
  1  2  1  0
  1  3  2  0
  1  4  1  0
  4  5  1  0
  4  6  1  0
  5  7  1  0
  6  8  1  0
  5  9  1  6
  6 10  1  6
  7 11  1  0
  8 11  1  0
  9 12  1  0
  9 13  1  0
 12 13  1  0
 10 14  1  0
 11 15  1  0
 14 16  1  0
 15 17  1  6
 15 18  1  0
 16 19  2  0
 16 20  1  0
 18 21  2  0
 18 22  1  0
 17 23  1  0
 20 24  2  0
 19 25  1  0
 21 26  1  0
 22 27  1  0
 26 27  2  0
 23 28  2  0
 23 29  1  0
 24 30  1  0
 25 30  2  0
 27 31  1  0
 29 32  1  0
 28 33  1  0
 29 34  2  0
 33 35  2  0
 34 35  1  0
M  END
