x1386_0-x1334_1-x0434_2-x0831_0-x1385_1-x0692_1-x0397_0-x1412_0
     RDKit          3D

 36 40  0  0  0  0  0  0  0  0999 V2000
    6.3960   -3.2200   19.9750 C   0  0  0  0  0  0  0  0  0  0  0  0
    7.3210   -2.9470   18.7950 C   0  0  0  0  0  0  0  0  0  0  0  0
    5.5130   -4.0970   19.7690 O   0  0  0  0  0  0  0  0  0  0  0  0
    6.5870   -2.5190   21.2210 N   0  0  0  0  0  0  0  0  0  0  0  0
    7.6060   -1.4630   21.4530 C   0  0  2  0  0  0  0  0  0  0  0  0
    6.5240   -3.3550   22.4210 C   0  0  2  0  0  0  0  0  0  0  0  0
    7.7330   -0.5950   20.3620 N   0  0  0  0  0  0  0  0  0  0  0  0
    9.0010   -1.9870   21.7250 C   0  0  0  0  0  0  0  0  0  0  0  0
    7.8810   -3.7450   23.1210 C   0  0  0  0  0  0  0  0  0  0  0  0
    6.8600   -4.8590   22.2090 C   0  0  0  0  0  0  0  0  0  0  0  0
    9.0240   -2.7750   22.9220 N   0  0  0  0  0  0  0  0  0  0  0  0
    6.6250   -5.9160   23.2670 C   0  0  0  0  0  0  0  0  0  0  0  0
    5.6650   -5.8550   22.0240 C   0  0  0  0  0  0  0  0  0  0  0  0
    6.6800    0.0740   19.7860 C   0  0  0  0  0  0  0  0  0  0  0  0
    9.8900   -2.2950   24.0180 C   0  0  1  0  0  0  0  0  0  0  0  0
    6.9600    0.3790   18.4050 C   0  0  0  0  0  0  0  0  0  0  0  0
    5.4700    0.4670   20.3420 C   0  0  0  0  0  0  0  0  0  0  0  0
    9.0370   -1.4890   24.9840 C   0  0  0  0  0  0  0  0  0  0  0  0
   10.6030   -3.4610   24.7140 C   0  0  0  0  0  0  0  0  0  0  0  0
   10.7320   -1.0650   23.7010 C   0  0  0  0  0  0  0  0  0  0  0  0
    6.1500    1.0150   17.6000 N   0  0  0  0  0  0  0  0  0  0  0  0
    4.5660    1.1390   19.5870 C   0  0  0  0  0  0  0  0  0  0  0  0
    7.9210   -2.3730   25.5560 C   0  0  0  0  0  0  0  0  0  0  0  0
   10.1210    0.2660   24.2810 C   0  0  0  0  0  0  0  0  0  0  0  0
   11.9780   -1.0390   22.9730 C   0  0  0  0  0  0  0  0  0  0  0  0
    4.9950    1.3980   18.1490 C   0  0  0  0  0  0  0  0  0  0  0  0
   12.6970   -2.1890   22.3480 C   0  0  0  0  0  0  0  0  0  0  0  0
    6.7840   -1.9520   25.5070 O   0  0  0  0  0  0  0  0  0  0  0  0
   10.8370    1.6020   24.0850 C   0  0  0  0  0  0  0  0  0  0  0  0
   12.7180    0.2870   22.7760 C   0  0  0  0  0  0  0  0  0  0  0  0
    8.3250   -3.7100   26.1690 C   0  0  0  0  0  0  0  0  0  0  0  0
   12.1830    1.6070   23.3100 C   0  0  0  0  0  0  0  0  0  0  0  0
    9.1970   -4.6330   25.5990 C   0  0  0  0  0  0  0  0  0  0  0  0
    7.7340   -4.2680   27.7010 S   0  0  0  0  0  0  0  0  0  0  0  0
    9.3460   -5.7460   26.4380 C   0  0  0  0  0  0  0  0  0  0  0  0
    8.6320   -5.6880   27.5840 C   0  0  0  0  0  0  0  0  0  0  0  0
  1  2  1  0
  1  3  2  0
  1  4  1  0
  4  5  1  0
  4  6  1  0
  5  7  1  6
  5  8  1  0
  6  9  1  0
  6 10  1  6
  8 11  1  0
  9 11  1  0
 10 12  1  0
 10 13  1  0
 12 13  1  0
  7 14  1  0
 11 15  1  0
 14 16  2  0
 14 17  1  0
 15 18  1  0
 15 19  1  1
 15 20  1  0
 16 21  1  0
 17 22  2  0
 18 23  1  0
 20 24  2  0
 20 25  1  0
 21 26  2  0
 22 26  1  0
 25 27  1  0
 23 28  2  0
 24 29  1  0
 25 30  2  0
 23 31  1  0
 29 32  2  0
 30 32  1  0
 31 33  2  0
 31 34  1  0
 33 35  1  0
 34 36  1  0
 35 36  2  0
M  END
