x1386_1-x1412_0
     RDKit          3D

 16 17  0  0  0  0  0  0  0  0999 V2000
    6.4040   -3.1490   19.8070 C   0  0  0  0  0  0  0  0  0  0  0  0
    7.3530   -2.9270   18.6660 C   0  0  0  0  0  0  0  0  0  0  0  0
    5.4320   -3.9080   19.6400 O   0  0  0  0  0  0  0  0  0  0  0  0
    6.6770   -2.5320   21.0330 N   0  0  0  0  0  0  0  0  0  0  0  0
    7.6540   -1.4210   21.2600 C   0  0  0  0  0  0  0  0  0  0  0  0
    6.2430   -3.1450   22.2710 C   0  0  0  0  0  0  0  0  0  0  0  0
    8.9020   -1.9580   22.0590 C   0  0  0  0  0  0  0  0  0  0  0  0
    7.4190   -3.7960   22.9420 C   0  0  0  0  0  0  0  0  0  0  0  0
    8.4380   -2.8030   23.2070 N   0  0  0  0  0  0  0  0  0  0  0  0
    8.5260   -2.4120   24.6230 C   0  0  0  0  0  0  0  0  0  0  0  0
    8.5220   -1.2330   24.9880 O   0  0  0  0  0  0  0  0  0  0  0  0
    8.6020   -3.6130   25.5700 C   0  0  0  0  0  0  0  0  0  0  0  0
    9.3690   -4.6880   25.3770 C   0  0  0  0  0  0  0  0  0  0  0  0
    7.6920   -3.8160   27.1120 S   0  0  0  0  0  0  0  0  0  0  0  0
    9.2940   -5.7330   26.4170 C   0  0  0  0  0  0  0  0  0  0  0  0
    8.4170   -5.3350   27.3780 C   0  0  0  0  0  0  0  0  0  0  0  0
  1  2  1  0
  1  3  2  0
  1  4  1  0
  4  5  1  0
  4  6  1  0
  5  7  1  0
  6  8  1  0
  7  9  1  0
  8  9  1  0
  9 10  1  0
 10 11  2  0
 10 12  1  0
 12 13  2  0
 12 14  1  0
 13 15  1  0
 14 16  1  0
 15 16  2  0
M  END
