x1386_1-x1385_1-x0692_1-x1334_0-x0397_0-x0831_1-x0831_0-x0770_1-x1374_1-x1334_1
     RDKit          3D

 33 36  0  0  0  0  0  0  0  0999 V2000
    2.3110   -7.6430   23.3000 O   0  0  0  0  0  0  0  0  0  0  0  0
    2.5110   -7.9910   24.6550 C   0  0  0  0  0  0  0  0  0  0  0  0
    3.9020   -7.9770   24.8950 O   0  0  0  0  0  0  0  0  0  0  0  0
    4.5990   -7.2340   23.9070 C   0  0  0  0  0  0  0  0  0  0  0  0
    5.0490   -6.1160   24.4480 C   0  0  0  0  0  0  0  0  0  0  0  0
    5.7900   -5.3650   23.5460 C   0  0  2  0  0  0  0  0  0  0  0  0
    4.9460   -4.8530   22.4870 C   0  0  2  0  0  0  0  0  0  0  0  0
    6.2400   -5.9030   22.4070 C   0  0  0  0  0  0  0  0  0  0  0  0
    5.0080   -3.4010   22.2250 C   0  0  0  0  0  0  0  0  0  0  0  0
    6.4550   -2.9690   22.0750 C   0  0  1  0  0  0  0  0  0  0  0  0
    6.6480   -2.2440   20.8650 N   0  0  0  0  0  0  0  0  0  0  0  0
    7.0500   -2.2660   23.2920 C   0  0  0  0  0  0  0  0  0  0  0  0
    6.4650   -2.9970   19.7120 C   0  0  0  0  0  0  0  0  0  0  0  0
    8.4690   -2.0690   23.2710 N   0  0  0  0  0  0  0  0  0  0  0  0
    7.7040   -1.2030   20.9060 C   0  0  0  0  0  0  0  0  0  0  0  0
    7.4810   -2.9500   18.6300 C   0  0  0  0  0  0  0  0  0  0  0  0
    5.4900   -3.7640   19.5590 O   0  0  0  0  0  0  0  0  0  0  0  0
    9.1400   -3.2450   23.4070 C   0  0  1  0  0  0  0  0  0  0  0  0
    8.8210   -1.4240   21.9850 C   0  0  0  0  0  0  0  0  0  0  0  0
   10.6220   -2.8510   23.1730 C   0  0  0  0  0  0  0  0  0  0  0  0
    8.9660   -4.0820   24.7000 C   0  0  0  0  0  0  0  0  0  0  0  0
    9.6670   -5.3330   25.1160 C   0  0  0  0  0  0  0  0  0  0  0  0
    7.8490   -3.7440   26.0070 S   0  0  0  0  0  0  0  0  0  0  0  0
   11.0010   -1.3880   23.3320 C   0  0  0  0  0  0  0  0  0  0  0  0
    9.3090   -5.8430   26.2490 C   0  0  0  0  0  0  0  0  0  0  0  0
    8.2940   -5.1290   26.9330 C   0  0  0  0  0  0  0  0  0  0  0  0
   10.0640   -0.3970   24.2060 C   0  0  0  0  0  0  0  0  0  0  0  0
   12.2850   -0.8620   22.6780 C   0  0  0  0  0  0  0  0  0  0  0  0
    7.5540   -5.4910   28.4300 Cl  0  0  0  0  0  0  0  0  0  0  0  0
   13.1530   -1.7460   21.8670 C   0  0  0  0  0  0  0  0  0  0  0  0
   10.6020    1.1530   24.3070 C   0  0  0  0  0  0  0  0  0  0  0  0
   12.6240    0.5740   22.8900 C   0  0  0  0  0  0  0  0  0  0  0  0
   11.9280    1.4460   23.5700 C   0  0  0  0  0  0  0  0  0  0  0  0
  1  2  1  0
  2  3  1  0
  3  4  1  0
  4  5  1  0
  6  5  1  1
  6  7  1  0
  6  8  1  0
  7  8  1  0
  7  9  1  6
 10  9  1  1
 10 11  1  0
 10 12  1  0
 11 13  1  0
 12 14  1  0
 11 15  1  0
 13 16  1  0
 13 17  2  0
 14 18  1  0
 14 19  1  0
 15 19  1  0
 18 20  1  1
 18 21  1  0
 21 22  2  0
 21 23  1  0
 20 24  1  0
 22 25  1  0
 23 26  1  0
 25 26  2  0
 24 27  2  0
 24 28  1  0
 26 29  1  0
 28 30  1  0
 27 31  1  0
 28 32  2  0
 31 33  2  0
 32 33  1  0
M  END
