x1385_1-x1412_0-x1334_1
     RDKit          3D

 16 17  0  0  0  0  0  0  0  0999 V2000
    6.3140   -3.2450   19.8980 C   0  0  0  0  0  0  0  0  0  0  0  0
    7.2700   -2.9520   18.7580 C   0  0  0  0  0  0  0  0  0  0  0  0
    5.4080   -4.0730   19.7300 O   0  0  0  0  0  0  0  0  0  0  0  0
    6.5120   -2.5800   21.1210 N   0  0  0  0  0  0  0  0  0  0  0  0
    6.1990   -3.3490   22.3160 C   0  0  0  0  0  0  0  0  0  0  0  0
    7.5940   -1.5690   21.3210 C   0  0  0  0  0  0  0  0  0  0  0  0
    7.4600   -3.9990   22.8790 C   0  0  0  0  0  0  0  0  0  0  0  0
    8.7980   -2.0160   22.2000 C   0  0  0  0  0  0  0  0  0  0  0  0
    8.4750   -3.0090   23.2550 N   0  0  0  0  0  0  0  0  0  0  0  0
    8.4450   -2.5970   24.6690 C   0  0  0  0  0  0  0  0  0  0  0  0
    8.3200   -1.2320   25.0790 O   0  0  0  0  0  0  0  0  0  0  0  0
    8.5700   -3.7510   25.6200 C   0  0  0  0  0  0  0  0  0  0  0  0
    9.3750   -4.8460   25.4410 C   0  0  0  0  0  0  0  0  0  0  0  0
    7.6890   -3.8590   27.1190 S   0  0  0  0  0  0  0  0  0  0  0  0
    9.3140   -5.8640   26.5450 C   0  0  0  0  0  0  0  0  0  0  0  0
    8.3490   -5.3810   27.5940 C   0  0  0  0  0  0  0  0  0  0  0  0
  1  2  1  0
  1  3  2  0
  1  4  1  0
  4  5  1  0
  4  6  1  0
  5  7  1  0
  6  8  1  0
  7  9  1  0
  8  9  1  0
  9 10  1  0
 10 11  2  0
 10 12  1  0
 12 13  2  0
 12 14  1  0
 13 15  1  0
 14 16  1  0
 15 16  2  0
M  END
