x1385_1-x0540_3-x0831_0-x0692_1-x1334_1
     RDKit          3D

 23 24  0  0  0  0  0  0  0  0999 V2000
    6.3500   -3.2800   19.9060 C   0  0  0  0  0  0  0  0  0  0  0  0
    7.3550   -2.9970   18.8040 C   0  0  0  0  0  0  0  0  0  0  0  0
    5.4070   -4.0630   19.7270 O   0  0  0  0  0  0  0  0  0  0  0  0
    6.5740   -2.6270   21.1390 N   0  0  0  0  0  0  0  0  0  0  0  0
    6.6120   -3.6140   22.2390 C   0  0  0  0  0  0  0  0  0  0  0  0
    7.2630   -1.4600   21.2990 C   0  0  1  0  0  0  0  0  0  0  0  0
    6.5730   -0.5720   22.3740 C   0  0  0  0  0  0  0  0  0  0  0  0
    7.7590   -3.4650   23.2590 C   0  0  0  0  0  0  0  0  0  0  0  0
    8.5140   -1.7340   21.7150 C   0  0  0  0  0  0  0  0  0  0  0  0
    5.3370    0.2430   21.9430 C   0  0  0  0  0  0  0  0  0  0  0  0
    8.5510   -2.2130   23.1080 N   0  0  0  0  0  0  0  0  0  0  0  0
    5.3890    1.6250   22.6000 C   0  0  0  0  0  0  0  0  0  0  0  0
    9.9750   -2.3750   23.4760 C   0  0  0  0  0  0  0  0  0  0  0  0
    4.1460    2.3790   22.5020 N   0  0  0  0  0  0  0  0  0  0  0  0
   10.6890   -1.0720   23.5260 C   0  0  0  0  0  0  0  0  0  0  0  0
    3.0580    2.0850   23.2810 C   0  0  0  0  0  0  0  0  0  0  0  0
   10.1660    0.2150   24.1790 C   0  0  0  0  0  0  0  0  0  0  0  0
   11.9180   -1.0150   22.9220 C   0  0  0  0  0  0  0  0  0  0  0  0
    3.0560    1.4520   24.3370 O   0  0  0  0  0  0  0  0  0  0  0  0
   12.5430   -2.2390   22.2280 C   0  0  0  0  0  0  0  0  0  0  0  0
   10.9270    1.3840   24.1390 C   0  0  0  0  0  0  0  0  0  0  0  0
   12.6910    0.1470   22.8830 C   0  0  0  0  0  0  0  0  0  0  0  0
   12.1610    1.4120   23.5240 C   0  0  0  0  0  0  0  0  0  0  0  0
  1  2  1  0
  1  3  2  0
  1  4  1  0
  4  5  1  0
  4  6  1  0
  6  7  1  1
  5  8  1  0
  6  9  1  0
  7 10  1  0
  8 11  1  0
  9 11  1  0
 10 12  1  0
 11 13  1  0
 12 14  1  0
 13 15  1  0
 14 16  1  0
 15 17  2  0
 15 18  1  0
 16 19  2  0
 18 20  1  0
 17 21  1  0
 18 22  2  0
 21 23  2  0
 22 23  1  0
M  END
