x1385_0-x0434_2-x0831_0-x0981_1-x1412_1
     RDKit          3D

 43 46  0  0  0  0  0  0  0  0999 V2000
    3.9970   -5.3030   23.2680 C   0  0  0  0  0  0  0  0  0  0  0  0
    2.6730   -6.0550   23.5440 C   0  0  1  0  0  0  0  0  0  0  0  0
    2.5100   -7.2770   22.7590 N   0  0  0  0  0  0  0  0  0  0  0  0
    4.0730   -4.0750   23.7020 N   0  0  0  0  0  0  0  0  0  0  0  0
    2.5930   -6.3500   25.0610 C   0  0  0  0  0  0  0  0  0  0  0  0
    5.3490   -3.3390   23.4450 C   0  0  0  0  0  0  0  0  0  0  0  0
    1.3330   -7.4920   22.0750 C   0  0  0  0  0  0  0  0  0  0  0  0
    3.0380   -7.7640   25.3160 C   0  0  0  0  0  0  0  0  0  0  0  0
    6.2720   -3.9150   22.3460 C   0  0  1  0  0  0  0  0  0  0  0  0
    1.2530   -8.7640   21.2840 C   0  0  0  0  0  0  0  0  0  0  0  0
    0.4080   -6.6870   22.0880 O   0  0  0  0  0  0  0  0  0  0  0  0
    2.4400   -8.4810   26.3030 N   0  0  0  0  0  0  0  0  0  0  0  0
    3.9260   -8.2200   24.6280 O   0  0  0  0  0  0  0  0  0  0  0  0
    6.4400   -2.9080   21.2690 N   0  0  0  0  0  0  0  0  0  0  0  0
    7.7070   -4.1560   23.0450 C   0  0  0  0  0  0  0  0  0  0  0  0
    6.2760   -3.3690   19.9680 C   0  0  0  0  0  0  0  0  0  0  0  0
    8.1580   -2.8530   23.5710 N   0  0  0  0  0  0  0  0  0  0  0  0
    7.1360   -1.6840   21.7160 C   0  0  2  0  0  0  0  0  0  0  0  0
    7.2980   -3.0060   18.8790 C   0  0  0  0  0  0  0  0  0  0  0  0
    5.3330   -4.1070   19.7010 O   0  0  0  0  0  0  0  0  0  0  0  0
    9.2820   -2.8700   24.5080 C   0  0  2  0  0  0  0  0  0  0  0  0
    7.5040   -0.8240   20.6040 N   0  0  0  0  0  0  0  0  0  0  0  0
    8.4710   -2.0450   22.4240 C   0  0  0  0  0  0  0  0  0  0  0  0
   10.6510   -2.6820   23.9360 C   0  0  0  0  0  0  0  0  0  0  0  0
    9.0830   -4.0210   25.4000 C   0  0  0  0  0  0  0  0  0  0  0  0
    6.6280   -0.0930   19.9210 C   0  0  0  0  0  0  0  0  0  0  0  0
    9.7990   -5.3410   25.4560 C   0  0  0  0  0  0  0  0  0  0  0  0
    7.8280   -3.8990   26.5920 S   0  0  0  0  0  0  0  0  0  0  0  0
   11.0720   -1.2430   23.8090 C   0  0  0  0  0  0  0  0  0  0  0  0
    6.9940    0.2200   18.4720 C   0  0  0  0  0  0  0  0  0  0  0  0
    5.4210    0.4010   20.4330 C   0  0  0  0  0  0  0  0  0  0  0  0
    9.1780   -6.1260   26.5410 C   0  0  0  0  0  0  0  0  0  0  0  0
    8.0430   -5.4340   27.2700 C   0  0  0  0  0  0  0  0  0  0  0  0
   10.3200   -0.1830   24.4270 C   0  0  0  0  0  0  0  0  0  0  0  0
   12.3510   -0.8790   22.9890 C   0  0  0  0  0  0  0  0  0  0  0  0
    6.2600    0.9430   17.6220 N   0  0  0  0  0  0  0  0  0  0  0  0
    4.5260    1.2430   19.4970 C   0  0  0  0  0  0  0  0  0  0  0  0
    6.9670   -6.0720   28.6970 Br  0  0  0  0  0  0  0  0  0  0  0  0
   13.1820   -1.9210   22.2850 C   0  0  0  0  0  0  0  0  0  0  0  0
   10.7730    1.2660   24.2790 C   0  0  0  0  0  0  0  0  0  0  0  0
   12.7500    0.6450   22.9100 C   0  0  0  0  0  0  0  0  0  0  0  0
    5.1000    1.4370   18.0750 C   0  0  0  0  0  0  0  0  0  0  0  0
   12.0460    1.6690   23.4880 C   0  0  0  0  0  0  0  0  0  0  0  0
  2  1  1  1
  2  3  1  0
  1  4  2  3
  2  5  1  0
  4  6  1  0
  3  7  1  0
  5  8  1  0
  9  6  1  1
  7 10  1  0
  7 11  2  0
  8 12  1  0
  8 13  2  0
  9 14  1  0
  9 15  1  0
 14 16  1  0
 15 17  1  0
 14 18  1  0
 16 19  1  0
 16 20  2  0
 17 21  1  0
 18 22  1  6
 17 23  1  0
 18 23  1  0
 21 24  1  6
 21 25  1  0
 22 26  1  0
 25 27  2  0
 25 28  1  0
 24 29  1  0
 26 30  2  0
 26 31  1  0
 27 32  1  0
 28 33  1  0
 32 33  2  0
 29 34  2  0
 29 35  1  0
 30 36  1  0
 31 37  2  0
 33 38  1  0
 35 39  1  0
 34 40  1  0
 35 41  2  0
 36 42  2  0
 37 42  1  0
 40 43  2  0
 41 43  1  0
M  END
