x1386_1-x1334_1-x1375_1-x0831_0-x1374_1-x0692_1-x0434_2
     RDKit          3D

 34 37  0  0  0  0  0  0  0  0999 V2000
    6.5080   -3.1770   19.7910 C   0  0  0  0  0  0  0  0  0  0  0  0
    7.4310   -3.0080   18.6150 C   0  0  0  0  0  0  0  0  0  0  0  0
    5.5280   -3.9530   19.6880 O   0  0  0  0  0  0  0  0  0  0  0  0
    6.9020   -2.4300   20.9070 N   0  0  0  0  0  0  0  0  0  0  0  0
    7.9460   -1.5170   20.8510 C   0  0  2  0  0  0  0  0  0  0  0  0
    6.6390   -3.0060   22.2430 C   0  0  1  0  0  0  0  0  0  0  0  0
    6.5560   -4.5440   22.1500 C   0  0  0  0  0  0  0  0  0  0  0  0
    9.2090   -1.6860   21.7370 C   0  0  0  0  0  0  0  0  0  0  0  0
    7.5530   -2.3510   23.2900 C   0  0  0  0  0  0  0  0  0  0  0  0
    7.4560   -0.0820   20.7480 C   0  0  0  0  0  0  0  0  0  0  0  0
    8.9450   -2.4500   22.9230 N   0  0  0  0  0  0  0  0  0  0  0  0
    5.1160   -4.8670   22.6460 C   0  0  2  0  0  0  0  0  0  0  0  0
    7.1460    0.2640   19.4150 C   0  0  0  0  0  0  0  0  0  0  0  0
    9.9250   -2.1830   23.9600 C   0  0  0  0  0  0  0  0  0  0  0  0
    5.0250   -4.2450   24.0350 C   0  0  0  0  0  0  0  0  0  0  0  0
    4.9040   -6.3800   22.8090 C   0  0  0  0  0  0  0  0  0  0  0  0
    6.0240    0.4860   20.2840 C   0  0  0  0  0  0  0  0  0  0  0  0
    6.4760    0.7250   18.1510 N   0  0  0  0  0  0  0  0  0  0  0  0
    4.4580   -5.0140   24.9760 C   0  0  0  0  0  0  0  0  0  0  0  0
    4.0210   -6.5220   24.2810 S   0  0  0  0  0  0  0  0  0  0  0  0
   10.7810   -0.9410   23.7280 C   0  0  0  0  0  0  0  0  0  0  0  0
    5.2420    1.2060   17.9080 C   0  0  0  0  0  0  0  0  0  0  0  0
    4.7250    0.9710   20.0760 C   0  0  0  0  0  0  0  0  0  0  0  0
    2.4650   -6.6620   24.0150 O   0  0  0  0  0  0  0  0  0  0  0  0
    4.4450   -7.5880   25.1100 O   0  0  0  0  0  0  0  0  0  0  0  0
   10.2480    0.2350   24.2240 C   0  0  0  0  0  0  0  0  0  0  0  0
   12.1720   -0.9050   22.9900 C   0  0  0  0  0  0  0  0  0  0  0  0
    4.3590    1.3260   18.8900 C   0  0  0  0  0  0  0  0  0  0  0  0
   12.7650   -2.1690   22.4320 C   0  0  0  0  0  0  0  0  0  0  0  0
   10.9400    1.5970   24.0920 C   0  0  0  0  0  0  0  0  0  0  0  0
   12.8430    0.2430   22.8430 C   0  0  0  0  0  0  0  0  0  0  0  0
    2.1800   -7.4600   22.8350 O   0  0  0  0  0  0  0  0  0  0  0  0
    3.4860   -8.6320   24.9850 O   0  0  0  0  0  0  0  0  0  0  0  0
   12.2620    1.4860   23.3720 C   0  0  0  0  0  0  0  0  0  0  0  0
  1  2  1  0
  1  3  2  0
  1  4  1  0
  4  5  1  0
  4  6  1  0
  6  7  1  6
  5  8  1  0
  6  9  1  0
  5 10  1  1
  8 11  1  0
  9 11  1  0
 12  7  1  1
 10 13  1  0
 11 14  1  0
 12 15  1  0
 12 16  1  0
 13 17  2  0
 13 18  1  0
 15 19  2  0
 16 20  1  0
 19 20  1  0
 14 21  1  0
 18 22  2  0
 17 23  1  0
 20 24  1  0
 20 25  1  0
 21 26  2  0
 21 27  1  0
 22 28  1  0
 23 28  2  0
 27 29  1  0
 26 30  1  0
 27 31  2  0
 24 32  1  0
 25 33  1  0
 30 34  2  0
 31 34  1  0
M  END
