x1386_1-x0426_1-x1412_1-x0434_2-x1334_1-x0692_1-x1334_0-x0831_0-x1374_1-x0397_0-x1385_1-x0770_1
     RDKit          3D

 45 50  0  0  0  0  0  0  0  0999 V2000
    2.2710   -7.6520   23.2600 O   0  0  0  0  0  0  0  0  0  0  0  0
    2.4690   -7.9990   24.6140 C   0  0  0  0  0  0  0  0  0  0  0  0
    3.8600   -7.9310   24.8560 O   0  0  0  0  0  0  0  0  0  0  0  0
    4.5010   -7.1300   23.8780 C   0  0  0  0  0  0  0  0  0  0  0  0
    5.0820   -5.9950   24.3480 C   0  0  0  0  0  0  0  0  0  0  0  0
    6.2980   -5.7820   23.5000 C   0  0  2  0  0  0  0  0  0  0  0  0
    6.3580   -4.9680   22.4930 C   0  0  1  0  0  0  0  0  0  0  0  0
    6.2960   -6.4690   22.1050 C   0  0  0  0  0  0  0  0  0  0  0  0
    5.2780   -4.0350   22.1000 C   0  0  0  0  0  0  0  0  0  0  0  0
    5.9040   -2.7200   22.2580 C   0  0  2  0  0  0  0  0  0  0  0  0
    6.4210   -2.2000   20.9910 N   0  0  0  0  0  0  0  0  0  0  0  0
    7.0600   -3.0850   23.2360 C   0  0  0  0  0  0  0  0  0  0  0  0
    6.3680   -3.0460   19.8230 C   0  0  0  0  0  0  0  0  0  0  0  0
    8.2270   -2.1830   23.3010 N   0  0  0  0  0  0  0  0  0  0  0  0
    7.5070   -1.2390   21.2290 C   0  0  2  0  0  0  0  0  0  0  0  0
    7.4070   -2.9340   18.7300 C   0  0  0  0  0  0  0  0  0  0  0  0
    5.4820   -3.9040   19.6580 O   0  0  0  0  0  0  0  0  0  0  0  0
    9.2230   -2.6240   24.1170 C   0  0  2  0  0  0  0  0  0  0  0  0
    8.6900   -1.9660   21.9130 C   0  0  0  0  0  0  0  0  0  0  0  0
    7.0880   -0.1690   22.2750 C   0  0  0  0  0  0  0  0  0  0  0  0
   10.4780   -2.5420   23.2900 C   0  0  0  0  0  0  0  0  0  0  0  0
    9.0750   -3.8300   25.0360 C   0  0  0  0  0  0  0  0  0  0  0  0
    6.7690    1.2140   21.7130 C   0  0  2  0  0  0  0  0  0  0  0  0
    9.6660   -5.1200   25.1630 C   0  0  0  0  0  0  0  0  0  0  0  0
    7.8030   -3.7570   26.5030 S   0  0  0  0  0  0  0  0  0  0  0  0
   11.0740   -1.1690   23.3220 C   0  0  0  0  0  0  0  0  0  0  0  0
    5.9280    1.9310   22.6040 C   0  0  0  0  0  0  0  0  0  0  0  0
    6.1330    1.0930   20.3590 C   0  0  0  0  0  0  0  0  0  0  0  0
    9.2050   -5.9080   26.2320 C   0  0  0  0  0  0  0  0  0  0  0  0
    8.2200   -5.3320   27.0340 C   0  0  0  0  0  0  0  0  0  0  0  0
   10.4270   -0.0170   24.0430 C   0  0  0  0  0  0  0  0  0  0  0  0
   12.2800   -0.8400   22.7050 C   0  0  0  0  0  0  0  0  0  0  0  0
    4.4200    1.6410   22.3490 C   0  0  1  0  0  0  0  0  0  0  0  0
    4.7690    1.5970   20.0720 C   0  0  0  0  0  0  0  0  0  0  0  0
    6.8190    0.4970   19.3090 C   0  0  0  0  0  0  0  0  0  0  0  0
    7.4240   -5.9710   28.4020 Cl  0  0  0  0  0  0  0  0  0  0  0  0
   13.1330   -1.8130   21.8980 C   0  0  0  0  0  0  0  0  0  0  0  0
   10.9630    1.2930   24.1090 C   0  0  0  0  0  0  0  0  0  0  0  0
   12.7950    0.4540   22.7950 C   0  0  0  0  0  0  0  0  0  0  0  0
    3.7000    1.7980   23.4850 N   0  0  0  0  0  0  0  0  0  0  0  0
    3.9800    2.2170   21.1610 C   0  0  0  0  0  0  0  0  0  0  0  0
    4.2870    1.4700   18.8110 C   0  0  0  0  0  0  0  0  0  0  0  0
    6.3500    0.3650   18.0650 N   0  0  0  0  0  0  0  0  0  0  0  0
   12.1700    1.4990   23.4670 C   0  0  0  0  0  0  0  0  0  0  0  0
    5.0560    0.8790   17.8460 C   0  0  0  0  0  0  0  0  0  0  0  0
  1  2  1  0
  2  3  1  0
  3  4  1  0
  4  5  1  0
  6  5  1  6
  6  7  1  0
  6  8  1  0
  7  8  1  0
  7  9  1  6
 10  9  1  6
 10 11  1  0
 10 12  1  0
 11 13  1  0
 12 14  1  0
 11 15  1  0
 13 16  1  0
 13 17  2  0
 14 18  1  0
 14 19  1  0
 15 19  1  0
 15 20  1  1
 18 21  1  6
 18 22  1  0
 23 20  1  1
 22 24  2  0
 22 25  1  0
 21 26  1  0
 23 27  1  0
 23 28  1  0
 24 29  1  0
 25 30  1  0
 29 30  2  0
 26 31  2  0
 26 32  1  0
 27 33  1  0
 28 34  2  0
 28 35  1  0
 30 36  1  0
 32 37  1  0
 31 38  1  0
 32 39  2  0
 33 40  1  1
 33 41  1  0
 34 41  1  0
 34 42  1  0
 35 43  2  0
 38 44  2  0
 39 44  1  0
 42 45  2  0
 43 45  1  0
M  END
