x1385_1-x0770_1-x0426_1-x1334_1-x1374_1-x0397_0-x1334_0-x1412_1-x0434_2-x0831_0-x1418_1-x0692_1
     RDKit          3D

 44 49  0  0  0  0  0  0  0  0999 V2000
    2.0940   -7.1450   23.5880 O   0  0  0  0  0  0  0  0  0  0  0  0
    2.6460   -7.4040   24.8670 C   0  0  0  0  0  0  0  0  0  0  0  0
    4.0120   -7.7620   24.7790 O   0  0  0  0  0  0  0  0  0  0  0  0
    4.6200   -7.0610   23.6960 C   0  0  0  0  0  0  0  0  0  0  0  0
    4.9450   -5.7450   24.0460 C   0  0  0  0  0  0  0  0  0  0  0  0
    6.0070   -5.3530   23.0720 C   0  0  2  0  0  0  0  0  0  0  0  0
    5.7840   -4.4070   22.2300 C   0  0  2  0  0  0  0  0  0  0  0  0
    5.9830   -5.8970   21.7270 C   0  0  0  0  0  0  0  0  0  0  0  0
    6.8490   -3.3330   22.1430 C   0  0  2  0  0  0  0  0  0  0  0  0
    7.3290   -2.9640   23.3740 C   0  0  0  0  0  0  0  0  0  0  0  0
    6.7500   -2.3280   21.2030 C   0  0  1  0  0  0  0  0  0  0  0  0
    6.4660   -3.1300   19.8550 C   0  0  0  0  0  0  0  0  0  0  0  0
    5.8460   -1.0870   21.3810 C   0  0  2  0  0  0  0  0  0  0  0  0
    8.6430   -2.2740   23.3090 N   0  0  0  0  0  0  0  0  0  0  0  0
    7.9580   -1.6440   21.0800 C   0  0  0  0  0  0  0  0  0  0  0  0
    7.4460   -2.9580   18.6950 C   0  0  0  0  0  0  0  0  0  0  0  0
    5.5270   -3.9450   19.7250 O   0  0  0  0  0  0  0  0  0  0  0  0
    4.7830   -0.8930   22.4550 C   0  0  0  0  0  0  0  0  0  0  0  0
    9.6560   -3.2030   23.8740 C   0  0  1  0  0  0  0  0  0  0  0  0
    9.0310   -1.9600   21.9170 C   0  0  0  0  0  0  0  0  0  0  0  0
    5.5930   -0.1540   20.1740 C   0  0  0  0  0  0  0  0  0  0  0  0
    4.7900    0.5070   23.1130 C   0  0  0  0  0  0  0  0  0  0  0  0
   10.8410   -2.5650   24.3270 C   0  0  0  0  0  0  0  0  0  0  0  0
    4.5690    0.8320   20.0320 C   0  0  0  0  0  0  0  0  0  0  0  0
    6.4850   -0.3020   19.1020 C   0  0  0  0  0  0  0  0  0  0  0  0
    9.2080   -4.0820   25.0470 C   0  0  0  0  0  0  0  0  0  0  0  0
    3.6710    1.3650   22.5260 C   0  0  2  0  0  0  0  0  0  0  0  0
    3.4620    1.2340   20.9890 C   0  0  0  0  0  0  0  0  0  0  0  0
    4.5180    1.5750   18.8450 C   0  0  0  0  0  0  0  0  0  0  0  0
    6.4200    0.4750   17.8770 N   0  0  0  0  0  0  0  0  0  0  0  0
    9.7990   -5.4380   25.3470 C   0  0  0  0  0  0  0  0  0  0  0  0
    7.9970   -3.7750   26.2570 S   0  0  0  0  0  0  0  0  0  0  0  0
   11.1510   -1.1280   24.0230 C   0  0  0  0  0  0  0  0  0  0  0  0
    3.9000    2.7320   23.0380 N   0  0  0  0  0  0  0  0  0  0  0  0
    5.4310    1.3730   17.8240 C   0  0  0  0  0  0  0  0  0  0  0  0
    9.3060   -6.0680   26.4040 C   0  0  0  0  0  0  0  0  0  0  0  0
    8.2240   -5.2600   27.0890 C   0  0  0  0  0  0  0  0  0  0  0  0
   10.4310   -0.0460   24.5370 C   0  0  0  0  0  0  0  0  0  0  0  0
   12.2510   -0.8860   23.1710 C   0  0  0  0  0  0  0  0  0  0  0  0
    7.3030   -5.6590   28.4700 Cl  0  0  0  0  0  0  0  0  0  0  0  0
   13.0790   -1.9590   22.5480 C   0  0  0  0  0  0  0  0  0  0  0  0
   10.7560    1.2660   24.2500 C   0  0  0  0  0  0  0  0  0  0  0  0
   12.5760    0.4260   22.9020 C   0  0  0  0  0  0  0  0  0  0  0  0
   11.8520    1.4740   23.4240 C   0  0  0  0  0  0  0  0  0  0  0  0
  1  2  1  0
  2  3  1  0
  3  4  1  0
  4  5  1  0
  6  5  1  1
  6  7  1  0
  6  8  1  0
  7  8  1  6
  7  9  1  0
  9 10  1  1
  9 11  1  0
 11 12  1  6
 11 13  1  0
 10 14  1  0
 11 15  1  0
 12 16  1  0
 12 17  2  0
 13 18  1  6
 14 19  1  0
 14 20  1  0
 15 20  1  0
 13 21  1  0
 18 22  1  0
 19 23  1  1
 21 24  2  0
 21 25  1  0
 19 26  1  0
 22 27  1  0
 24 28  1  0
 27 28  1  0
 24 29  1  0
 25 30  2  0
 26 31  2  0
 26 32  1  0
 23 33  1  0
 27 34  1  6
 29 35  2  0
 30 35  1  0
 31 36  1  0
 32 37  1  0
 36 37  2  0
 33 38  2  0
 33 39  1  0
 37 40  1  0
 39 41  1  0
 38 42  1  0
 39 43  2  0
 42 44  2  0
 43 44  1  0
M  END
