x1386_1-x1418_1-x1412_1-x1334_0-x0831_0-x1375_1-x0770_1-x0426_1-x1374_1-x0692_1-x0397_0-x1334_1-x0434_2-x0831_1
     RDKit          3D

 44 49  0  0  0  0  0  0  0  0999 V2000
    2.3350   -6.9150   24.0760 O   0  0  0  0  0  0  0  0  0  0  0  0
    3.2480   -6.6960   25.1290 C   0  0  0  0  0  0  0  0  0  0  0  0
    4.5010   -7.2960   24.8760 O   0  0  0  0  0  0  0  0  0  0  0  0
    4.9150   -7.0960   23.5230 C   0  0  0  0  0  0  0  0  0  0  0  0
    5.6520   -5.8450   23.2570 C   0  0  2  0  0  0  0  0  0  0  0  0
    5.4120   -5.2130   22.1300 C   0  0  2  0  0  0  0  0  0  0  0  0
    6.7720   -6.0180   22.5720 C   0  0  0  0  0  0  0  0  0  0  0  0
    5.1820   -3.8130   22.4150 C   0  0  0  0  0  0  0  0  0  0  0  0
    6.3660   -2.9300   22.3180 C   0  0  2  0  0  0  0  0  0  0  0  0
    6.6680   -2.4840   20.9710 N   0  0  0  0  0  0  0  0  0  0  0  0
    7.5160   -3.6250   22.9170 C   0  0  0  0  0  0  0  0  0  0  0  0
    6.4410   -3.1690   19.7860 C   0  0  0  0  0  0  0  0  0  0  0  0
    8.4870   -2.6050   23.0660 N   0  0  0  0  0  0  0  0  0  0  0  0
    7.7890   -1.4730   21.0260 C   0  0  2  0  0  0  0  0  0  0  0  0
    7.4380   -2.9630   18.6610 C   0  0  0  0  0  0  0  0  0  0  0  0
    5.4860   -3.9510   19.6570 O   0  0  0  0  0  0  0  0  0  0  0  0
    9.3760   -2.6370   24.1770 C   0  0  2  0  0  0  0  0  0  0  0  0
    8.9830   -2.0000   21.8290 C   0  0  0  0  0  0  0  0  0  0  0  0
    7.2320   -0.2760   21.7660 C   0  0  0  0  0  0  0  0  0  0  0  0
   10.7840   -2.5440   23.6560 C   0  0  0  0  0  0  0  0  0  0  0  0
    9.0810   -3.7570   25.1930 C   0  0  0  0  0  0  0  0  0  0  0  0
    5.7160   -0.1770   21.5790 C   0  0  1  0  0  0  0  0  0  0  0  0
    9.8560   -5.0550   25.3000 C   0  0  0  0  0  0  0  0  0  0  0  0
    7.8530   -3.7960   26.4040 S   0  0  0  0  0  0  0  0  0  0  0  0
   11.2360   -1.0990   23.5550 C   0  0  0  0  0  0  0  0  0  0  0  0
    4.8860    0.5190   22.6820 C   0  0  0  0  0  0  0  0  0  0  0  0
    5.5720    0.4140   20.2030 C   0  0  0  0  0  0  0  0  0  0  0  0
    9.3890   -5.8860   26.3180 C   0  0  0  0  0  0  0  0  0  0  0  0
    8.3110   -5.3430   27.0140 C   0  0  0  0  0  0  0  0  0  0  0  0
   10.4530   -0.0210   24.0030 C   0  0  0  0  0  0  0  0  0  0  0  0
   12.4710   -0.8220   23.0010 C   0  0  0  0  0  0  0  0  0  0  0  0
    4.3300    1.9040   22.2910 C   0  0  2  0  0  0  0  0  0  0  0  0
    4.5170    1.4040   19.8950 C   0  0  0  0  0  0  0  0  0  0  0  0
    6.4400    0.0410   19.1880 C   0  0  0  0  0  0  0  0  0  0  0  0
    7.4330   -5.9880   28.3290 Cl  0  0  0  0  0  0  0  0  0  0  0  0
   13.2830   -1.9470   22.4970 C   0  0  0  0  0  0  0  0  0  0  0  0
   10.8310    1.3050   23.9550 C   0  0  0  0  0  0  0  0  0  0  0  0
   12.9360    0.4980   22.9150 C   0  0  0  0  0  0  0  0  0  0  0  0
    3.3920    2.3180   23.3500 N   0  0  0  0  0  0  0  0  0  0  0  0
    3.5670    1.8300   20.9550 C   0  0  0  0  0  0  0  0  0  0  0  0
    4.4570    1.9140   18.6170 C   0  0  0  0  0  0  0  0  0  0  0  0
    6.3830    0.5320   17.9400 N   0  0  0  0  0  0  0  0  0  0  0  0
   12.2000    1.5890   23.3590 C   0  0  0  0  0  0  0  0  0  0  0  0
    5.3670    1.4860   17.6830 C   0  0  0  0  0  0  0  0  0  0  0  0
  1  2  1  0
  2  3  1  0
  3  4  1  0
  5  4  1  6
  5  6  1  0
  5  7  1  0
  6  7  1  0
  6  8  1  1
  9  8  1  6
  9 10  1  0
  9 11  1  0
 10 12  1  0
 11 13  1  0
 10 14  1  0
 12 15  1  0
 12 16  2  0
 13 17  1  0
 13 18  1  0
 14 18  1  0
 14 19  1  1
 17 20  1  6
 17 21  1  0
 22 19  1  1
 21 23  2  0
 21 24  1  0
 20 25  1  0
 22 26  1  0
 22 27  1  0
 23 28  1  0
 24 29  1  0
 28 29  2  0
 25 30  2  0
 25 31  1  0
 26 32  1  0
 27 33  2  0
 27 34  1  0
 29 35  1  0
 31 36  1  0
 30 37  1  0
 31 38  2  0
 32 39  1  1
 32 40  1  0
 33 40  1  0
 33 41  1  0
 34 42  2  0
 37 43  2  0
 38 43  1  0
 41 44  2  0
 42 44  1  0
M  END
