x1385_1-x0831_0-x0831_1-x1334_1-x1418_1-x0692_1-x0397_0-x1375_1-x1374_1-x0770_1-x1386_1
     RDKit          3D

 24 26  0  0  0  0  0  0  0  0999 V2000
    2.3660   -6.9060   24.1030 O   0  0  0  0  0  0  0  0  0  0  0  0
    3.2870   -6.5640   25.1150 C   0  0  0  0  0  0  0  0  0  0  0  0
    4.5260   -7.1860   24.8330 O   0  0  0  0  0  0  0  0  0  0  0  0
    4.9480   -6.9900   23.4860 C   0  0  0  0  0  0  0  0  0  0  0  0
    5.9590   -5.7720   23.1300 C   0  0  2  0  0  0  0  0  0  0  0  0
    5.6290   -4.5270   22.4460 C   0  0  2  0  0  0  0  0  0  0  0  0
    6.2470   -5.9650   21.8550 C   0  0  0  0  0  0  0  0  0  0  0  0
    6.4730   -3.2890   22.4590 C   0  0  1  0  0  0  0  0  0  0  0  0
    7.8900   -3.6650   22.9660 C   0  0  0  0  0  0  0  0  0  0  0  0
    6.5130   -2.5900   21.1460 N   0  0  0  0  0  0  0  0  0  0  0  0
    6.3490   -3.3000   19.9390 C   0  0  0  0  0  0  0  0  0  0  0  0
    8.7510   -2.4620   23.0260 N   0  0  0  0  0  0  0  0  0  0  0  0
    7.4370   -1.4350   21.1700 C   0  0  0  0  0  0  0  0  0  0  0  0
    7.3190   -2.9920   18.7980 C   0  0  0  0  0  0  0  0  0  0  0  0
    5.4650   -4.1580   19.7840 O   0  0  0  0  0  0  0  0  0  0  0  0
   10.0350   -2.4850   23.5370 C   0  0  0  0  0  0  0  0  0  0  0  0
    8.8230   -1.7710   21.7430 C   0  0  0  0  0  0  0  0  0  0  0  0
   10.6310   -1.0950   23.6200 C   0  0  0  0  0  0  0  0  0  0  0  0
   10.0640    0.1400   24.2770 C   0  0  0  0  0  0  0  0  0  0  0  0
   12.0220   -0.9480   22.9030 C   0  0  0  0  0  0  0  0  0  0  0  0
   12.7730   -2.1250   22.1460 C   0  0  0  0  0  0  0  0  0  0  0  0
   10.8250    1.4220   24.2120 C   0  0  0  0  0  0  0  0  0  0  0  0
   12.6650    0.3970   22.9330 C   0  0  0  0  0  0  0  0  0  0  0  0
   12.1810    1.4920   23.4950 C   0  0  0  0  0  0  0  0  0  0  0  0
  1  2  1  0
  2  3  1  0
  3  4  1  0
  5  4  1  6
  5  6  1  0
  5  7  1  0
  6  7  1  6
  6  8  1  0
  8  9  1  6
  8 10  1  0
 10 11  1  0
  9 12  1  0
 10 13  1  0
 11 14  1  0
 11 15  2  0
 12 16  1  0
 12 17  1  0
 13 17  1  0
 16 18  1  0
 18 19  2  0
 18 20  1  0
 20 21  1  0
 19 22  1  0
 20 23  2  0
 22 24  2  0
 23 24  1  0
M  END
