x1386_0-x1384_2
     RDKit          3D

 15 16  0  0  0  0  0  0  0  0999 V2000
    9.8500   -2.7010   23.7930 C   0  0  0  0  0  0  0  0  0  0  0  0
    9.1380   -2.9700   22.6900 C   0  0  0  0  0  0  0  0  0  0  0  0
    7.8980   -2.1380   22.5180 C   0  0  0  0  0  0  0  0  0  0  0  0
   10.8490   -1.6480   23.6250 C   0  0  0  0  0  0  0  0  0  0  0  0
   12.0030   -1.6560   22.6370 C   0  0  0  0  0  0  0  0  0  0  0  0
   10.8840   -0.4370   24.3730 C   0  0  0  0  0  0  0  0  0  0  0  0
    6.5350   -2.6690   22.9910 C   0  0  0  0  0  0  0  0  0  0  0  0
   12.8000   -0.4160   22.7490 C   0  0  0  0  0  0  0  0  0  0  0  0
   12.1610    0.6920   23.9870 S   0  0  0  0  0  0  0  0  0  0  0  0
    6.1890   -4.1200   22.5790 C   0  0  0  0  0  0  0  0  0  0  0  0
    5.5560   -5.5220   22.4420 C   0  0  0  0  0  0  0  0  0  0  0  0
    5.2910   -3.6390   23.5930 C   0  0  0  0  0  0  0  0  0  0  0  0
    4.1230   -4.2730   24.3020 C   0  0  0  0  0  0  0  0  0  0  0  0
    4.4820   -6.1610   23.0660 C   0  0  0  0  0  0  0  0  0  0  0  0
    3.7460   -5.5370   24.0120 C   0  0  0  0  0  0  0  0  0  0  0  0
  1  2  1  0
  2  3  1  0
  1  4  1  0
  4  5  1  0
  4  6  2  0
  3  7  1  0
  5  8  2  0
  6  9  1  0
  8  9  1  0
  7 10  1  0
 10 11  2  0
 10 12  1  0
 12 13  2  0
 11 14  1  0
 13 15  1  0
 14 15  2  0
M  END
