x1386_1-x1334_1-x1385_1-x1334_0-x1418_1-x0397_0-x1412_1-x0831_0-x0434_2-x0692_1-x0770_1-x1374_1
     RDKit          3D

 40 44  0  0  0  0  0  0  0  0999 V2000
    6.4180   -3.1850   19.7750 C   0  0  0  0  0  0  0  0  0  0  0  0
    7.4360   -3.0210   18.6580 C   0  0  0  0  0  0  0  0  0  0  0  0
    5.4990   -4.0160   19.7060 O   0  0  0  0  0  0  0  0  0  0  0  0
    6.6440   -2.3240   20.8590 N   0  0  0  0  0  0  0  0  0  0  0  0
    7.8240   -1.4460   20.8190 C   0  0  2  0  0  0  0  0  0  0  0  0
    6.2280   -2.7230   22.2070 C   0  0  2  0  0  0  0  0  0  0  0  0
    8.9080   -1.6500   21.8920 C   0  0  0  0  0  0  0  0  0  0  0  0
    7.4590   -3.3250   22.8830 C   0  0  0  0  0  0  0  0  0  0  0  0
    4.9500   -3.5140   22.3850 C   0  0  0  0  0  0  0  0  0  0  0  0
    7.5040   -0.0050   20.5480 C   0  0  0  0  0  0  0  0  0  0  0  0
    8.4010   -2.2850   23.1010 N   0  0  0  0  0  0  0  0  0  0  0  0
    5.1310   -4.9970   22.5510 C   0  0  2  0  0  0  0  0  0  0  0  0
    7.1170    0.3460   19.2430 C   0  0  0  0  0  0  0  0  0  0  0  0
    9.3750   -2.5980   24.0780 C   0  0  2  0  0  0  0  0  0  0  0  0
    6.1340   -5.2540   23.3280 C   0  0  2  0  0  0  0  0  0  0  0  0
    6.3560   -5.7610   21.9720 C   0  0  0  0  0  0  0  0  0  0  0  0
    5.9750    0.5190   20.3240 C   0  0  0  0  0  0  0  0  0  0  0  0
    6.4450    0.7640   18.1060 N   0  0  0  0  0  0  0  0  0  0  0  0
   10.7170   -2.5770   23.4280 C   0  0  0  0  0  0  0  0  0  0  0  0
    9.0770   -3.6590   25.1550 C   0  0  0  0  0  0  0  0  0  0  0  0
    5.1960    1.2130   17.9260 C   0  0  0  0  0  0  0  0  0  0  0  0
    4.6930    0.9750   20.1060 C   0  0  0  0  0  0  0  0  0  0  0  0
    5.9310   -6.2220   24.4520 C   0  0  0  0  0  0  0  0  0  0  0  0
    9.8400   -4.9490   25.3580 C   0  0  0  0  0  0  0  0  0  0  0  0
    7.8100   -3.5410   26.3440 S   0  0  0  0  0  0  0  0  0  0  0  0
   11.1950   -1.1320   23.4240 C   0  0  0  0  0  0  0  0  0  0  0  0
    4.2740    1.3370   18.9010 C   0  0  0  0  0  0  0  0  0  0  0  0
    5.2980   -7.3220   23.8470 C   0  0  0  0  0  0  0  0  0  0  0  0
    9.4270   -5.6730   26.3660 C   0  0  0  0  0  0  0  0  0  0  0  0
    8.2600   -5.0670   27.1250 C   0  0  0  0  0  0  0  0  0  0  0  0
   10.4030   -0.0790   23.9420 C   0  0  0  0  0  0  0  0  0  0  0  0
   12.4270   -0.8210   22.9090 C   0  0  0  0  0  0  0  0  0  0  0  0
    4.4410   -7.9200   24.8020 O   0  0  0  0  0  0  0  0  0  0  0  0
    7.3790   -5.5660   28.5020 Cl  0  0  0  0  0  0  0  0  0  0  0  0
   13.2830   -1.8750   22.3320 C   0  0  0  0  0  0  0  0  0  0  0  0
   10.8690    1.2370   23.9450 C   0  0  0  0  0  0  0  0  0  0  0  0
   12.8920    0.4960   22.9160 C   0  0  0  0  0  0  0  0  0  0  0  0
    3.0710   -7.5770   24.6490 C   0  0  0  0  0  0  0  0  0  0  0  0
   12.1190    1.5190   23.4310 C   0  0  0  0  0  0  0  0  0  0  0  0
    2.7310   -7.4090   23.2870 O   0  0  0  0  0  0  0  0  0  0  0  0
  1  2  1  0
  1  3  2  0
  1  4  1  0
  4  5  1  0
  4  6  1  0
  5  7  1  0
  6  8  1  0
  6  9  1  6
  5 10  1  1
  7 11  1  0
  8 11  1  0
 12  9  1  6
 10 13  1  0
 11 14  1  0
 12 15  1  0
 12 16  1  0
 15 16  1  0
 13 17  2  0
 13 18  1  0
 14 19  1  6
 14 20  1  0
 18 21  2  0
 17 22  1  0
 15 23  1  1
 20 24  2  0
 20 25  1  0
 19 26  1  0
 21 27  1  0
 22 27  2  0
 23 28  1  0
 24 29  1  0
 25 30  1  0
 29 30  2  0
 26 31  2  0
 26 32  1  0
 28 33  1  0
 30 34  1  0
 32 35  1  0
 31 36  1  0
 32 37  2  0
 33 38  1  0
 36 39  2  0
 37 39  1  0
 38 40  1  0
M  END
