x1386_0-x0967_1
     RDKit          3D

 16 17  0  0  0  0  0  0  0  0999 V2000
    9.6490   -2.6470   23.7450 C   0  0  0  0  0  0  0  0  0  0  0  0
    8.8320   -2.8270   22.4670 C   0  0  0  0  0  0  0  0  0  0  0  0
    7.7250   -1.7630   22.2290 C   0  0  0  0  0  0  0  0  0  0  0  0
   10.7180   -1.5640   23.5940 C   0  0  0  0  0  0  0  0  0  0  0  0
   11.9060   -1.7360   22.6670 C   0  0  0  0  0  0  0  0  0  0  0  0
   10.8320   -0.1810   24.2690 C   0  0  0  0  0  0  0  0  0  0  0  0
    8.1630   -0.7800   21.1400 C   0  0  0  0  0  0  0  0  0  0  0  0
   12.8540   -0.5360   22.6490 C   0  0  0  0  0  0  0  0  0  0  0  0
   12.2820    0.8070   23.7720 S   0  0  0  0  0  0  0  0  0  0  0  0
    7.0440   -0.0020   20.4900 C   0  0  0  0  0  0  0  0  0  0  0  0
    6.2350    0.7580   21.3150 C   0  0  0  0  0  0  0  0  0  0  0  0
    6.9230   -0.1110   19.0630 C   0  0  0  0  0  0  0  0  0  0  0  0
    5.8780    0.6470   18.5230 C   0  0  0  0  0  0  0  0  0  0  0  0
    5.1880    1.5250   20.8510 C   0  0  0  0  0  0  0  0  0  0  0  0
    5.7100    0.5980   17.1930 O   0  0  0  0  0  0  0  0  0  0  0  0
    4.9450    1.5110   19.3710 C   0  0  0  0  0  0  0  0  0  0  0  0
  1  2  1  0
  2  3  1  0
  1  4  1  0
  4  5  1  0
  4  6  2  0
  3  7  1  0
  5  8  2  0
  6  9  1  0
  8  9  1  0
  7 10  1  0
 10 11  2  0
 10 12  1  0
 12 13  2  0
 11 14  1  0
 13 15  1  0
 13 16  1  0
 14 16  2  0
M  END
