x1386_1-x1334_0-x1375_1-x1385_1-x0831_0-x0692_1-x1418_1-x0434_2-x1334_1-x1374_1-x0831_1-x0397_0-x0770_1
     RDKit          3D

 39 43  0  0  0  0  0  0  0  0999 V2000
    6.3370   -3.1110   19.6660 C   0  0  0  0  0  0  0  0  0  0  0  0
    7.4200   -2.9430   18.6290 C   0  0  0  0  0  0  0  0  0  0  0  0
    5.2830   -3.6620   19.3580 O   0  0  0  0  0  0  0  0  0  0  0  0
    6.5800   -2.7400   20.9660 N   0  0  0  0  0  0  0  0  0  0  0  0
    7.3110   -1.4950   21.2840 C   0  0  1  0  0  0  0  0  0  0  0  0
    6.5980   -3.7350   21.9920 C   0  0  1  0  0  0  0  0  0  0  0  0
    8.6140   -1.6990   22.1170 C   0  0  0  0  0  0  0  0  0  0  0  0
    7.8310   -3.7420   22.8720 C   0  0  0  0  0  0  0  0  0  0  0  0
    5.3110   -3.7550   22.8010 C   0  0  0  0  0  0  0  0  0  0  0  0
    7.6420   -0.6350   20.0730 C   0  0  0  0  0  0  0  0  0  0  0  0
    8.2280   -2.4080   23.3380 N   0  0  0  0  0  0  0  0  0  0  0  0
    4.9550   -5.2130   22.9070 C   0  0  2  0  0  0  0  0  0  0  0  0
    6.5120    0.1530   19.5360 C   0  0  0  0  0  0  0  0  0  0  0  0
    9.2330   -2.5880   24.2020 C   0  0  2  0  0  0  0  0  0  0  0  0
    5.4950   -5.7170   23.9010 C   0  0  2  0  0  0  0  0  0  0  0  0
    6.0250   -6.3070   22.6660 C   0  0  0  0  0  0  0  0  0  0  0  0
    5.5640    0.4550   20.4880 C   0  0  0  0  0  0  0  0  0  0  0  0
    6.4580    0.5340   18.2100 N   0  0  0  0  0  0  0  0  0  0  0  0
   10.5140   -2.5250   23.3440 C   0  0  0  0  0  0  0  0  0  0  0  0
    9.0940   -3.8180   25.1210 C   0  0  0  0  0  0  0  0  0  0  0  0
    5.3870    1.2740   17.8630 C   0  0  0  0  0  0  0  0  0  0  0  0
    4.4720    1.1940   20.1400 C   0  0  0  0  0  0  0  0  0  0  0  0
    4.6810   -6.4570   24.9360 C   0  0  0  0  0  0  0  0  0  0  0  0
    9.7360   -5.0620   25.1630 C   0  0  0  0  0  0  0  0  0  0  0  0
    7.9350   -3.7560   26.4190 S   0  0  0  0  0  0  0  0  0  0  0  0
   11.0860   -1.1200   23.3850 C   0  0  0  0  0  0  0  0  0  0  0  0
    4.3610    1.6590   18.7010 C   0  0  0  0  0  0  0  0  0  0  0  0
    4.1910   -7.7110   24.4550 O   0  0  0  0  0  0  0  0  0  0  0  0
    9.2900   -5.8650   26.1960 C   0  0  0  0  0  0  0  0  0  0  0  0
    8.3030   -5.3150   26.9920 C   0  0  0  0  0  0  0  0  0  0  0  0
   10.3840   -0.1240   24.0880 C   0  0  0  0  0  0  0  0  0  0  0  0
   12.2670   -0.8390   22.7610 C   0  0  0  0  0  0  0  0  0  0  0  0
    3.0150   -7.5730   23.6840 C   0  0  0  0  0  0  0  0  0  0  0  0
    7.4820   -5.9490   28.3510 Cl  0  0  0  0  0  0  0  0  0  0  0  0
   12.9990   -1.8990   22.0070 C   0  0  0  0  0  0  0  0  0  0  0  0
   10.8070    1.1510   24.1960 C   0  0  0  0  0  0  0  0  0  0  0  0
   12.8120    0.4350   22.8120 C   0  0  0  0  0  0  0  0  0  0  0  0
    2.0400   -6.8240   24.3600 O   0  0  0  0  0  0  0  0  0  0  0  0
   12.1570    1.4520   23.4860 C   0  0  0  0  0  0  0  0  0  0  0  0
  1  2  1  0
  1  3  2  0
  1  4  1  0
  4  5  1  0
  4  6  1  0
  5  7  1  0
  6  8  1  0
  6  9  1  1
  5 10  1  6
  7 11  1  0
  8 11  1  0
 12  9  1  6
 10 13  1  0
 11 14  1  0
 12 15  1  0
 12 16  1  0
 15 16  1  0
 13 17  2  0
 13 18  1  0
 14 19  1  6
 14 20  1  0
 18 21  2  0
 17 22  1  0
 15 23  1  1
 20 24  2  0
 20 25  1  0
 19 26  1  0
 21 27  1  0
 22 27  2  0
 23 28  1  0
 24 29  1  0
 25 30  1  0
 29 30  2  0
 26 31  2  0
 26 32  1  0
 28 33  1  0
 30 34  1  0
 32 35  1  0
 31 36  1  0
 32 37  2  0
 33 38  1  0
 36 39  2  0
 37 39  1  0
M  END
