x1386_1-x0397_0-x1334_1-x1374_1-x1334_0-x0831_0-x1418_1-x0770_1-x0692_1-x1385_1
     RDKit          3D

 33 36  0  0  0  0  0  0  0  0999 V2000
    2.0960   -7.5150   24.1440 O   0  0  0  0  0  0  0  0  0  0  0  0
    3.3640   -7.0210   23.7870 C   0  0  0  0  0  0  0  0  0  0  0  0
    4.4140   -7.7140   24.4500 O   0  0  0  0  0  0  0  0  0  0  0  0
    5.6750   -7.3960   23.8450 C   0  0  0  0  0  0  0  0  0  0  0  0
    6.2200   -6.2710   24.4110 C   0  0  0  0  0  0  0  0  0  0  0  0
    6.2800   -5.3200   23.3720 C   0  0  2  0  0  0  0  0  0  0  0  0
    5.1840   -4.9630   22.5000 C   0  0  2  0  0  0  0  0  0  0  0  0
    6.6020   -5.7190   21.9950 C   0  0  0  0  0  0  0  0  0  0  0  0
    4.9740   -3.5980   22.5170 C   0  0  0  0  0  0  0  0  0  0  0  0
    6.2430   -2.7860   22.2580 C   0  0  2  0  0  0  0  0  0  0  0  0
    6.5640   -2.2950   20.8990 N   0  0  0  0  0  0  0  0  0  0  0  0
    7.3920   -3.3170   22.7890 C   0  0  0  0  0  0  0  0  0  0  0  0
    6.3930   -3.1360   19.7930 C   0  0  0  0  0  0  0  0  0  0  0  0
    8.2560   -2.2170   23.0730 N   0  0  0  0  0  0  0  0  0  0  0  0
    7.4900   -1.2540   20.8940 C   0  0  0  0  0  0  0  0  0  0  0  0
    7.4060   -2.9700   18.6760 C   0  0  0  0  0  0  0  0  0  0  0  0
    5.4910   -3.9870   19.7050 O   0  0  0  0  0  0  0  0  0  0  0  0
    9.2360   -2.4830   23.9590 C   0  0  2  0  0  0  0  0  0  0  0  0
    8.6710   -1.5230   21.8360 C   0  0  0  0  0  0  0  0  0  0  0  0
   10.4860   -2.4970   23.1550 C   0  0  0  0  0  0  0  0  0  0  0  0
    9.0220   -3.5890   24.9980 C   0  0  0  0  0  0  0  0  0  0  0  0
    9.6430   -4.7970   25.0230 C   0  0  0  0  0  0  0  0  0  0  0  0
    7.9190   -3.4630   26.3970 S   0  0  0  0  0  0  0  0  0  0  0  0
   11.0880   -1.1160   23.2640 C   0  0  0  0  0  0  0  0  0  0  0  0
    9.3040   -5.7280   26.1710 C   0  0  0  0  0  0  0  0  0  0  0  0
    8.3370   -5.0420   27.0030 C   0  0  0  0  0  0  0  0  0  0  0  0
   10.4110   -0.1050   23.9940 C   0  0  0  0  0  0  0  0  0  0  0  0
   12.3120   -0.8110   22.6700 C   0  0  0  0  0  0  0  0  0  0  0  0
    7.5720   -5.5300   28.4490 Cl  0  0  0  0  0  0  0  0  0  0  0  0
   13.0920   -1.7950   21.8770 C   0  0  0  0  0  0  0  0  0  0  0  0
   11.0010    1.1520   24.0820 C   0  0  0  0  0  0  0  0  0  0  0  0
   12.8810    0.4270   22.7780 C   0  0  0  0  0  0  0  0  0  0  0  0
   12.2280    1.4120   23.4770 C   0  0  0  0  0  0  0  0  0  0  0  0
  1  2  1  0
  2  3  1  0
  3  4  1  0
  4  5  1  0
  6  5  1  1
  6  7  1  0
  6  8  1  0
  7  8  1  0
  7  9  1  6
 10  9  1  6
 10 11  1  0
 10 12  1  0
 11 13  1  0
 12 14  1  0
 11 15  1  0
 13 16  1  0
 13 17  2  0
 14 18  1  0
 14 19  1  0
 15 19  1  0
 18 20  1  6
 18 21  1  0
 21 22  2  0
 21 23  1  0
 20 24  1  0
 22 25  1  0
 23 26  1  0
 25 26  2  0
 24 27  2  0
 24 28  1  0
 26 29  1  0
 28 30  1  0
 27 31  1  0
 28 32  2  0
 31 33  2  0
 32 33  1  0
M  END
