x1385_1-x0831_1-x0831_0-x0734_0-x0397_0-x1418_1-x0770_1
     RDKit          3D

 30 33  0  0  0  0  0  0  0  0999 V2000
    6.2490   -3.2620   19.8940 C   0  0  0  0  0  0  0  0  0  0  0  0
    7.3010   -2.9950   18.8150 C   0  0  0  0  0  0  0  0  0  0  0  0
    5.3590   -4.0920   19.7090 O   0  0  0  0  0  0  0  0  0  0  0  0
    6.3210   -2.5770   21.1060 N   0  0  0  0  0  0  0  0  0  0  0  0
    6.3710   -3.2520   22.4200 C   0  0  2  0  0  0  0  0  0  0  0  0
    7.1210   -1.3470   21.0550 C   0  0  0  0  0  0  0  0  0  0  0  0
    7.8450   -3.4880   22.8060 C   0  0  0  0  0  0  0  0  0  0  0  0
    8.5330   -1.4840   21.6800 C   0  0  0  0  0  0  0  0  0  0  0  0
    5.5540   -4.5310   22.3610 C   0  0  2  0  0  0  0  0  0  0  0  0
    8.5930   -2.2210   22.9140 N   0  0  0  0  0  0  0  0  0  0  0  0
    5.6640   -5.6050   23.2950 C   0  0  2  0  0  0  0  0  0  0  0  0
    6.1720   -6.0520   22.2070 C   0  0  0  0  0  0  0  0  0  0  0  0
    4.3970   -6.0360   23.9940 C   0  0  0  0  0  0  0  0  0  0  0  0
    9.9720   -2.4190   23.4110 C   0  0  0  0  0  0  0  0  0  0  0  0
    4.5220   -5.9290   25.3670 N   0  0  0  0  0  0  0  0  0  0  0  0
   10.7630   -1.1200   23.3970 C   0  0  0  0  0  0  0  0  0  0  0  0
    5.2000   -4.9310   25.8050 N   0  0  0  0  0  0  0  0  0  0  0  0
   10.1770    0.0750   24.1500 C   0  0  0  0  0  0  0  0  0  0  0  0
   11.9960   -0.9450   22.7490 C   0  0  0  0  0  0  0  0  0  0  0  0
    4.6680   -3.9360   26.4200 O   0  0  0  0  0  0  0  0  0  0  0  0
   12.6610   -2.0430   21.9780 C   0  0  0  0  0  0  0  0  0  0  0  0
    6.5540   -5.1130   26.0420 C   0  0  0  0  0  0  0  0  0  0  0  0
   10.9320    1.2850   24.1320 C   0  0  0  0  0  0  0  0  0  0  0  0
   12.6620    0.2700   22.7990 C   0  0  0  0  0  0  0  0  0  0  0  0
    7.4380   -4.8890   24.9890 C   0  0  0  0  0  0  0  0  0  0  0  0
    7.0150   -5.5220   27.3050 C   0  0  0  0  0  0  0  0  0  0  0  0
   12.1590    1.3920   23.4710 C   0  0  0  0  0  0  0  0  0  0  0  0
    8.9190   -5.0950   25.1870 C   0  0  0  0  0  0  0  0  0  0  0  0
    8.5040   -5.7530   27.6020 C   0  0  0  0  0  0  0  0  0  0  0  0
    9.4370   -5.5040   26.3990 C   0  0  0  0  0  0  0  0  0  0  0  0
  1  2  1  0
  1  3  2  0
  1  4  1  0
  4  5  1  0
  4  6  1  0
  5  7  1  6
  6  8  1  0
  5  9  1  0
  7 10  1  0
  8 10  1  0
  9 11  1  0
  9 12  1  6
 11 12  1  0
 11 13  1  6
 10 14  1  0
 13 15  1  0
 14 16  1  0
 15 17  2  3
 16 18  2  0
 16 19  1  0
 17 20  1  0
 19 21  1  0
 17 22  1  0
 18 23  1  0
 19 24  2  0
 22 25  2  0
 22 26  1  0
 23 27  2  0
 24 27  1  0
 25 28  1  0
 26 29  2  0
 28 30  2  0
 29 30  1  0
M  CHG  2  17   1  20  -1
M  END
