x1386_1-x0434_2-x0770_1-x1374_1-x0831_0-x1385_1-x0397_0-x1334_0-x0692_1-x1334_1-x1418_1-x0831_1
     RDKit          3D

 40 44  0  0  0  0  0  0  0  0999 V2000
    6.4280   -3.1280   19.7090 C   0  0  0  0  0  0  0  0  0  0  0  0
    7.4140   -3.0130   18.5690 C   0  0  0  0  0  0  0  0  0  0  0  0
    5.4860   -3.9420   19.6520 O   0  0  0  0  0  0  0  0  0  0  0  0
    6.7010   -2.2950   20.7710 N   0  0  0  0  0  0  0  0  0  0  0  0
    7.8520   -1.4200   20.6290 C   0  0  2  0  0  0  0  0  0  0  0  0
    6.7080   -3.0660   22.0200 C   0  0  1  0  0  0  0  0  0  0  0  0
    9.0220   -1.7180   21.5550 C   0  0  0  0  0  0  0  0  0  0  0  0
    7.3980   -2.3720   23.2150 C   0  0  0  0  0  0  0  0  0  0  0  0
    5.2880   -3.4670   22.4220 C   0  0  0  0  0  0  0  0  0  0  0  0
    7.5410    0.0750   20.5980 C   0  0  0  0  0  0  0  0  0  0  0  0
    8.5950   -1.5990   22.9350 N   0  0  0  0  0  0  0  0  0  0  0  0
    5.1270   -4.9350   22.5470 C   0  0  2  0  0  0  0  0  0  0  0  0
    7.0910    0.4490   19.2170 C   0  0  0  0  0  0  0  0  0  0  0  0
    9.6450   -1.8640   23.8700 C   0  0  1  0  0  0  0  0  0  0  0  0
    6.1990   -5.7250   23.1720 C   0  0  2  0  0  0  0  0  0  0  0  0
    6.1430   -5.9660   21.7680 C   0  0  0  0  0  0  0  0  0  0  0  0
    6.1160    0.5560   20.1850 C   0  0  0  0  0  0  0  0  0  0  0  0
    6.4090    0.8520   18.0770 N   0  0  0  0  0  0  0  0  0  0  0  0
   10.0610   -3.3050   23.8760 C   0  0  0  0  0  0  0  0  0  0  0  0
   10.6160   -0.7110   23.6880 C   0  0  0  0  0  0  0  0  0  0  0  0
    5.1480    1.2690   17.8900 C   0  0  0  0  0  0  0  0  0  0  0  0
    4.7010    0.9990   20.0360 C   0  0  0  0  0  0  0  0  0  0  0  0
    5.8320   -6.8170   24.1180 C   0  0  0  0  0  0  0  0  0  0  0  0
   10.0130    0.5600   24.1920 C   0  0  0  0  0  0  0  0  0  0  0  0
   11.8950   -0.9500   23.0900 C   0  0  0  0  0  0  0  0  0  0  0  0
    9.5360   -4.0660   25.0720 C   0  0  0  0  0  0  0  0  0  0  0  0
    4.2420    1.3510   18.8990 C   0  0  0  0  0  0  0  0  0  0  0  0
    4.4460   -6.9020   24.1560 C   0  0  0  0  0  0  0  0  0  0  0  0
   12.4120   -2.2610   22.5980 C   0  0  0  0  0  0  0  0  0  0  0  0
   11.1150    1.6060   23.9220 C   0  0  0  0  0  0  0  0  0  0  0  0
   12.8720    0.1900   22.8940 C   0  0  0  0  0  0  0  0  0  0  0  0
   10.1360   -5.3110   25.7320 C   0  0  0  0  0  0  0  0  0  0  0  0
    8.0860   -3.6400   25.9630 S   0  0  0  0  0  0  0  0  0  0  0  0
    4.0490   -8.0350   24.9100 O   0  0  0  0  0  0  0  0  0  0  0  0
   12.4130    1.5130   23.3470 C   0  0  0  0  0  0  0  0  0  0  0  0
    9.4520   -5.7050   26.7460 C   0  0  0  0  0  0  0  0  0  0  0  0
    8.2400   -4.9270   27.0900 C   0  0  0  0  0  0  0  0  0  0  0  0
    2.6560   -8.2130   24.7460 C   0  0  0  0  0  0  0  0  0  0  0  0
    7.1200   -5.2080   28.3960 Cl  0  0  0  0  0  0  0  0  0  0  0  0
    2.3440   -7.8290   23.4260 O   0  0  0  0  0  0  0  0  0  0  0  0
  1  2  1  0
  1  3  2  0
  1  4  1  0
  4  5  1  0
  4  6  1  0
  5  7  1  0
  6  8  1  0
  6  9  1  1
  5 10  1  1
  7 11  1  0
  8 11  1  0
 12  9  1  6
 10 13  1  0
 11 14  1  0
 12 15  1  0
 12 16  1  0
 15 16  1  0
 13 17  2  0
 13 18  1  0
 14 19  1  6
 14 20  1  0
 18 21  2  0
 17 22  1  0
 15 23  1  1
 20 24  2  0
 20 25  1  0
 19 26  1  0
 21 27  1  0
 22 27  2  0
 23 28  1  0
 25 29  1  0
 24 30  1  0
 25 31  2  0
 26 32  2  0
 26 33  1  0
 28 34  1  0
 30 35  2  0
 31 35  1  0
 32 36  1  0
 33 37  1  0
 36 37  2  0
 34 38  1  0
 37 39  1  0
 38 40  1  0
M  END
