x1385_1-x0831_1-x0736_1-x0874_0-x1412_0
     RDKit          3D

 23 25  0  0  0  0  0  0  0  0999 V2000
    6.2970   -3.2250   19.8590 C   0  0  0  0  0  0  0  0  0  0  0  0
    7.3300   -2.9660   18.7650 C   0  0  0  0  0  0  0  0  0  0  0  0
    5.3600   -3.9960   19.6340 O   0  0  0  0  0  0  0  0  0  0  0  0
    6.4520   -2.5970   21.0970 N   0  0  0  0  0  0  0  0  0  0  0  0
    6.1090   -3.3800   22.2780 C   0  0  0  0  0  0  0  0  0  0  0  0
    7.6170   -1.6880   21.3280 C   0  0  0  0  0  0  0  0  0  0  0  0
    7.3500   -4.0940   22.7150 C   0  0  0  0  0  0  0  0  0  0  0  0
    8.7240   -2.2120   22.0110 C   0  0  0  0  0  0  0  0  0  0  0  0
    8.3480   -3.1240   23.1230 N   0  0  0  0  0  0  0  0  0  0  0  0
    8.4950   -2.8360   24.5300 C   0  0  0  0  0  0  0  0  0  0  0  0
    8.5300   -1.4270   25.0100 N   0  0  0  0  0  0  0  0  0  0  0  0
    8.6280   -3.9230   25.5510 C   0  0  0  0  0  0  0  0  0  0  0  0
    8.4320   -0.2580   24.1480 C   0  0  0  0  0  0  0  0  0  0  0  0
    9.4950   -5.1830   25.4130 C   0  0  0  0  0  0  0  0  0  0  0  0
    7.7930   -3.9120   27.0700 S   0  0  0  0  0  0  0  0  0  0  0  0
    9.7680    0.5150   24.0730 C   0  0  0  0  0  0  0  0  0  0  0  0
    9.3200   -6.0020   26.6830 C   0  0  0  0  0  0  0  0  0  0  0  0
    8.4540   -5.4000   27.5800 C   0  0  0  0  0  0  0  0  0  0  0  0
   10.9860   -0.0790   23.3280 C   0  0  0  0  0  0  0  0  0  0  0  0
   12.1570    0.6170   23.3010 C   0  0  0  0  0  0  0  0  0  0  0  0
   11.2950   -1.3840   22.5090 C   0  0  0  0  0  0  0  0  0  0  0  0
   13.3400    0.0660   22.5920 C   0  0  0  0  0  0  0  0  0  0  0  0
   12.9340   -1.4480   21.9180 S   0  0  0  0  0  0  0  0  0  0  0  0
  1  2  1  0
  1  3  2  0
  1  4  1  0
  4  5  1  0
  4  6  1  0
  5  7  1  0
  6  8  1  0
  7  9  1  0
  8  9  1  0
  9 10  1  0
 10 11  2  3
 10 12  1  0
 11 13  1  0
 12 14  2  0
 12 15  1  0
 13 16  1  0
 14 17  1  0
 15 18  1  0
 17 18  2  0
 16 19  1  0
 19 20  1  0
 19 21  2  0
 20 22  2  0
 21 23  1  0
 22 23  1  0
M  END
