x1385_1-x1334_1-x1386_1-x1374_1-x0426_1-x0831_1-x0434_2-x0770_1-x0397_0-x0831_0-x1418_1-x0692_1-x1412_1-x1334_0
     RDKit          3D

 44 49  0  0  0  0  0  0  0  0999 V2000
    2.3410   -7.5930   23.2350 O   0  0  0  0  0  0  0  0  0  0  0  0
    2.6190   -7.8670   24.5910 C   0  0  0  0  0  0  0  0  0  0  0  0
    4.0230   -7.9060   24.7220 O   0  0  0  0  0  0  0  0  0  0  0  0
    4.6490   -7.1370   23.6930 C   0  0  0  0  0  0  0  0  0  0  0  0
    4.9290   -5.8950   24.1530 C   0  0  0  0  0  0  0  0  0  0  0  0
    6.0260   -5.3870   23.2590 C   0  0  2  0  0  0  0  0  0  0  0  0
    5.7320   -4.2720   22.2790 C   0  0  2  0  0  0  0  0  0  0  0  0
    6.2160   -5.8500   21.8760 C   0  0  0  0  0  0  0  0  0  0  0  0
    6.6620   -3.0270   22.3270 C   0  0  1  0  0  0  0  0  0  0  0  0
    7.9910   -3.5080   22.8790 C   0  0  0  0  0  0  0  0  0  0  0  0
    6.6660   -2.2250   21.1640 C   0  0  1  0  0  0  0  0  0  0  0  0
    6.4460   -3.1370   19.8760 C   0  0  0  0  0  0  0  0  0  0  0  0
    5.7290   -1.0070   21.3160 C   0  0  1  0  0  0  0  0  0  0  0  0
    8.9500   -2.4160   22.8480 N   0  0  0  0  0  0  0  0  0  0  0  0
    7.9780   -1.4180   20.9010 C   0  0  0  0  0  0  0  0  0  0  0  0
    7.4020   -2.9760   18.6980 C   0  0  0  0  0  0  0  0  0  0  0  0
    5.5620   -4.0170   19.7610 O   0  0  0  0  0  0  0  0  0  0  0  0
    6.0500    0.0290   22.4200 C   0  0  0  0  0  0  0  0  0  0  0  0
   10.0710   -2.4080   23.7820 C   0  0  2  0  0  0  0  0  0  0  0  0
    9.2630   -2.0110   21.5320 C   0  0  0  0  0  0  0  0  0  0  0  0
    5.6000   -0.1200   20.0710 C   0  0  0  0  0  0  0  0  0  0  0  0
    4.9150    0.7410   23.1700 C   0  0  0  0  0  0  0  0  0  0  0  0
    9.6680   -2.5470   25.2270 C   0  0  0  0  0  0  0  0  0  0  0  0
    4.5930    0.9730   19.9440 C   0  0  0  0  0  0  0  0  0  0  0  0
    6.4420   -0.3400   19.0510 C   0  0  0  0  0  0  0  0  0  0  0  0
   10.8310   -1.1070   23.6550 C   0  0  0  0  0  0  0  0  0  0  0  0
    4.1700    1.8230   22.3370 C   0  0  1  0  0  0  0  0  0  0  0  0
    3.6160    1.3020   21.0020 C   0  0  0  0  0  0  0  0  0  0  0  0
    4.5980    1.7380   18.6900 C   0  0  0  0  0  0  0  0  0  0  0  0
    6.4940    0.3330   17.8680 N   0  0  0  0  0  0  0  0  0  0  0  0
   10.3340   -0.0010   24.2270 C   0  0  0  0  0  0  0  0  0  0  0  0
   12.1860   -0.9480   22.8820 C   0  0  0  0  0  0  0  0  0  0  0  0
    9.3370   -3.8630   25.8350 C   0  0  0  0  0  0  0  0  0  0  0  0
    3.0080    2.2500   23.0800 N   0  0  0  0  0  0  0  0  0  0  0  0
   12.8770   -2.0650   22.1730 C   0  0  0  0  0  0  0  0  0  0  0  0
    5.6290    1.3420   17.6380 C   0  0  0  0  0  0  0  0  0  0  0  0
   11.0740    1.2780   24.0950 C   0  0  0  0  0  0  0  0  0  0  0  0
   12.8220    0.4120   22.8450 C   0  0  0  0  0  0  0  0  0  0  0  0
    9.9130   -5.2110   25.6920 C   0  0  0  0  0  0  0  0  0  0  0  0
    8.0490   -3.9360   26.9580 S   0  0  0  0  0  0  0  0  0  0  0  0
   12.2660    1.5240   23.4450 C   0  0  0  0  0  0  0  0  0  0  0  0
    9.2900   -6.1050   26.4970 C   0  0  0  0  0  0  0  0  0  0  0  0
    8.2210   -5.5730   27.2870 C   0  0  0  0  0  0  0  0  0  0  0  0
    7.1190   -6.1740   28.4450 Cl  0  0  0  0  0  0  0  0  0  0  0  0
  1  2  1  0
  2  3  1  0
  3  4  1  0
  4  5  1  0
  6  5  1  6
  6  7  1  0
  6  8  1  0
  7  8  1  6
  7  9  1  0
  9 10  1  6
  9 11  1  0
 11 12  1  6
 11 13  1  0
 10 14  1  0
 11 15  1  0
 12 16  1  0
 12 17  2  0
 13 18  1  1
 14 19  1  0
 14 20  1  0
 15 20  1  0
 13 21  1  0
 18 22  1  0
 19 23  1  1
 21 24  2  0
 21 25  1  0
 19 26  1  0
 22 27  1  0
 24 28  1  0
 27 28  1  0
 24 29  1  0
 25 30  2  0
 26 31  2  0
 26 32  1  0
 23 33  1  0
 27 34  1  1
 32 35  1  0
 29 36  2  0
 30 36  1  0
 31 37  1  0
 32 38  2  0
 33 39  2  0
 33 40  1  0
 37 41  2  0
 38 41  1  0
 39 42  1  0
 40 43  1  0
 42 43  2  0
 43 44  1  0
M  END
