x1386_0-x0978_1-x1386_1-x0831_0
     RDKit          3D

 29 30  0  0  0  0  0  0  0  0999 V2000
    4.2360   -5.8940   22.8070 C   0  0  0  0  0  0  0  0  0  0  0  0
    2.9490   -6.6220   23.2220 C   0  0  2  0  0  0  0  0  0  0  0  0
    1.8320   -5.6960   23.2440 N   0  0  0  0  0  0  0  0  0  0  0  0
    4.6200   -4.5330   22.4510 N   0  0  0  0  0  0  0  0  0  0  0  0
    3.1700   -7.2900   24.5590 C   0  0  1  0  0  0  0  0  0  0  0  0
    6.0470   -4.4170   22.1300 C   0  0  0  0  0  0  0  0  0  0  0  0
    0.6100   -6.1230   22.5560 C   0  0  0  0  0  0  0  0  0  0  0  0
    2.0800   -8.2870   24.8120 C   0  0  0  0  0  0  0  0  0  0  0  0
    4.4120   -7.9680   24.4720 O   0  0  0  0  0  0  0  0  0  0  0  0
    6.6110   -2.9840   22.3070 C   0  0  2  0  0  0  0  0  0  0  0  0
    0.6180   -7.1630   21.8990 O   0  0  0  0  0  0  0  0  0  0  0  0
   -0.6050   -5.2600   22.6880 C   0  0  0  0  0  0  0  0  0  0  0  0
    6.7530   -2.3900   20.9560 N   0  0  0  0  0  0  0  0  0  0  0  0
    7.8420   -2.9940   22.9790 C   0  0  0  0  0  0  0  0  0  0  0  0
    6.4880   -3.0850   19.7700 C   0  0  0  0  0  0  0  0  0  0  0  0
    8.5890   -1.8740   22.9820 N   0  0  0  0  0  0  0  0  0  0  0  0
    7.6880   -1.3240   20.8730 C   0  0  0  0  0  0  0  0  0  0  0  0
    7.4730   -2.9600   18.6450 C   0  0  0  0  0  0  0  0  0  0  0  0
    5.4970   -3.8330   19.6120 O   0  0  0  0  0  0  0  0  0  0  0  0
    9.7630   -1.9240   23.8460 C   0  0  1  0  0  0  0  0  0  0  0  0
    8.8650   -1.5810   21.5860 C   0  0  0  0  0  0  0  0  0  0  0  0
   10.5330   -3.2310   23.7660 C   0  0  0  0  0  0  0  0  0  0  0  0
   10.6570   -0.8570   23.6600 C   0  0  0  0  0  0  0  0  0  0  0  0
   10.2230    0.3420   24.1990 C   0  0  0  0  0  0  0  0  0  0  0  0
   11.9240   -0.8770   22.9910 C   0  0  0  0  0  0  0  0  0  0  0  0
   12.5430   -2.0830   22.3420 C   0  0  0  0  0  0  0  0  0  0  0  0
   10.9940    1.4750   24.0840 C   0  0  0  0  0  0  0  0  0  0  0  0
   12.6910    0.2940   22.8980 C   0  0  0  0  0  0  0  0  0  0  0  0
   12.2550    1.5080   23.4350 C   0  0  0  0  0  0  0  0  0  0  0  0
  2  1  1  1
  2  3  1  0
  1  4  2  3
  2  5  1  0
  4  6  1  0
  3  7  1  0
  5  8  1  6
  5  9  1  0
 10  6  1  6
  7 11  2  0
  7 12  1  0
 10 13  1  0
 10 14  1  0
 13 15  1  0
 14 16  1  0
 13 17  1  0
 15 18  1  0
 15 19  2  0
 16 20  1  0
 16 21  1  0
 17 21  1  0
 20 22  1  6
 20 23  1  0
 23 24  2  0
 23 25  1  0
 25 26  1  0
 24 27  1  0
 25 28  2  0
 27 29  2  0
 28 29  1  0
M  END
