x1385_1-x0874_0-x1412_1-x0770_1-x1412_0
     RDKit          3D

 23 25  0  0  0  0  0  0  0  0999 V2000
    6.3190   -3.2760   19.8960 C   0  0  0  0  0  0  0  0  0  0  0  0
    7.3570   -2.9900   18.8210 C   0  0  0  0  0  0  0  0  0  0  0  0
    5.3530   -4.0040   19.6600 O   0  0  0  0  0  0  0  0  0  0  0  0
    6.4990   -2.7380   21.1680 N   0  0  0  0  0  0  0  0  0  0  0  0
    6.1060   -3.3310   22.2440 C   0  0  0  0  0  0  0  0  0  0  0  0
    7.6040   -1.7520   21.3310 C   0  0  0  0  0  0  0  0  0  0  0  0
    7.2670   -4.1050   22.8390 C   0  0  0  0  0  0  0  0  0  0  0  0
    8.6780   -2.2320   22.0150 C   0  0  0  0  0  0  0  0  0  0  0  0
    8.3080   -3.1180   23.1350 N   0  0  0  0  0  0  0  0  0  0  0  0
    8.5120   -2.8180   24.4770 C   0  0  0  0  0  0  0  0  0  0  0  0
    8.6420   -1.4460   25.0320 N   0  0  0  0  0  0  0  0  0  0  0  0
    8.6230   -3.9180   25.5230 C   0  0  0  0  0  0  0  0  0  0  0  0
    8.5630   -0.5490   23.8960 C   0  0  0  0  0  0  0  0  0  0  0  0
    9.3980   -5.0500   25.4130 C   0  0  0  0  0  0  0  0  0  0  0  0
    7.8000   -3.9560   27.0510 S   0  0  0  0  0  0  0  0  0  0  0  0
    9.7680    0.3870   23.8550 C   0  0  0  0  0  0  0  0  0  0  0  0
    9.3410   -5.9230   26.5140 C   0  0  0  0  0  0  0  0  0  0  0  0
    8.5200   -5.4420   27.4500 C   0  0  0  0  0  0  0  0  0  0  0  0
   11.0510   -0.0900   23.2180 C   0  0  0  0  0  0  0  0  0  0  0  0
   12.2170    0.7190   23.2820 C   0  0  0  0  0  0  0  0  0  0  0  0
   11.3280   -1.2720   22.5220 C   0  0  0  0  0  0  0  0  0  0  0  0
   13.2890    0.1610   22.6670 C   0  0  0  0  0  0  0  0  0  0  0  0
   12.9530   -1.3670   21.9870 S   0  0  0  0  0  0  0  0  0  0  0  0
  1  2  1  0
  1  3  2  0
  1  4  1  0
  4  5  1  0
  4  6  1  0
  5  7  1  0
  6  8  1  0
  7  9  1  0
  8  9  1  0
  9 10  1  0
 10 11  2  3
 10 12  1  0
 11 13  1  0
 12 14  2  0
 12 15  1  0
 13 16  1  0
 14 17  1  0
 15 18  1  0
 17 18  2  0
 16 19  1  0
 19 20  1  0
 19 21  2  0
 20 22  2  0
 21 23  1  0
 22 23  1  0
M  END
