x1386_1-x0874_0-x0831_1
     RDKit          3D

 15 16  0  0  0  0  0  0  0  0999 V2000
    6.4350   -3.1680   19.8310 C   0  0  0  0  0  0  0  0  0  0  0  0
    7.3770   -2.9710   18.6720 C   0  0  0  0  0  0  0  0  0  0  0  0
    5.5110   -3.9990   19.7100 O   0  0  0  0  0  0  0  0  0  0  0  0
    6.6800   -2.4070   20.9820 N   0  0  0  0  0  0  0  0  0  0  0  0
    7.6220   -1.2790   20.8300 C   0  0  0  0  0  0  0  0  0  0  0  0
    6.5800   -3.0050   22.3280 C   0  0  0  0  0  0  0  0  0  0  0  0
    8.9760   -1.5870   21.5090 C   0  0  0  0  0  0  0  0  0  0  0  0
    7.8760   -3.0110   23.1990 C   0  0  0  0  0  0  0  0  0  0  0  0
    8.8540   -1.9410   22.8840 N   0  0  0  0  0  0  0  0  0  0  0  0
    9.8580   -1.6640   23.7710 C   0  0  0  0  0  0  0  0  0  0  0  0
   10.8060   -0.7060   23.7260 C   0  0  0  0  0  0  0  0  0  0  0  0
   11.9820    0.2810   23.5630 C   0  0  0  0  0  0  0  0  0  0  0  0
   11.4740   -1.6450   22.8140 C   0  0  0  0  0  0  0  0  0  0  0  0
   13.1910    0.0540   22.7210 C   0  0  0  0  0  0  0  0  0  0  0  0
   13.0240   -1.4330   22.0110 S   0  0  0  0  0  0  0  0  0  0  0  0
  1  2  1  0
  1  3  2  0
  1  4  1  0
  4  5  1  0
  4  6  1  0
  5  7  1  0
  6  8  1  0
  7  9  1  0
  8  9  1  0
  9 10  1  0
 10 11  1  0
 11 12  1  0
 11 13  2  0
 12 14  2  0
 13 15  1  0
 14 15  1  0
M  END
