x1385_1-x1418_1-x0692_1-x0831_0-x1334_0-x0397_0-x1412_1
     RDKit          3D

 27 30  0  0  0  0  0  0  0  0999 V2000
    6.3360   -3.2820   19.8850 C   0  0  0  0  0  0  0  0  0  0  0  0
    7.3300   -3.0230   18.7710 C   0  0  0  0  0  0  0  0  0  0  0  0
    5.4280   -4.1090   19.7360 O   0  0  0  0  0  0  0  0  0  0  0  0
    6.5220   -2.5580   21.0480 N   0  0  0  0  0  0  0  0  0  0  0  0
    6.2810   -3.1700   22.3580 C   0  0  2  0  0  0  0  0  0  0  0  0
    7.3820   -1.3290   20.9580 C   0  0  0  0  0  0  0  0  0  0  0  0
    7.7200   -3.3500   22.9110 C   0  0  0  0  0  0  0  0  0  0  0  0
    8.7070   -1.5350   21.6670 C   0  0  0  0  0  0  0  0  0  0  0  0
    5.5460   -4.5130   22.1270 C   0  0  0  0  0  0  0  0  0  0  0  0
    8.4630   -2.0540   22.9970 N   0  0  0  0  0  0  0  0  0  0  0  0
    6.1990   -5.4080   23.0360 C   0  0  0  0  0  0  0  0  0  0  0  0
    6.3240   -5.9940   21.8560 C   0  0  0  0  0  0  0  0  0  0  0  0
    9.4810   -2.0190   23.8710 C   0  0  1  0  0  0  0  0  0  0  0  0
   10.1440   -3.3330   24.0770 C   0  0  0  0  0  0  0  0  0  0  0  0
   10.4470   -0.8350   23.6800 C   0  0  0  0  0  0  0  0  0  0  0  0
   10.1170    0.4640   24.0690 C   0  0  0  0  0  0  0  0  0  0  0  0
   11.7560   -0.9920   23.0840 C   0  0  0  0  0  0  0  0  0  0  0  0
    9.5050   -4.1740   25.1470 C   0  0  0  0  0  0  0  0  0  0  0  0
   12.2870   -2.2970   22.5920 C   0  0  0  0  0  0  0  0  0  0  0  0
   10.9740    1.7360   23.9450 C   0  0  0  0  0  0  0  0  0  0  0  0
   12.7750    0.2750   22.8940 C   0  0  0  0  0  0  0  0  0  0  0  0
    9.9480   -5.5540   25.4060 C   0  0  0  0  0  0  0  0  0  0  0  0
    8.1980   -3.7630   26.2500 S   0  0  0  0  0  0  0  0  0  0  0  0
   12.3880    1.6940   23.3310 C   0  0  0  0  0  0  0  0  0  0  0  0
    9.2130   -6.1420   26.4740 C   0  0  0  0  0  0  0  0  0  0  0  0
    8.1580   -5.2590   27.0930 C   0  0  0  0  0  0  0  0  0  0  0  0
    7.0870   -5.5960   28.3800 Cl  0  0  0  0  0  0  0  0  0  0  0  0
  1  2  1  0
  1  3  2  0
  1  4  1  0
  4  5  1  0
  4  6  1  0
  5  7  1  0
  6  8  1  0
  5  9  1  6
  7 10  1  0
  8 10  1  0
  9 11  1  0
  9 12  1  0
 11 12  1  0
 10 13  1  0
 13 14  1  6
 13 15  1  0
 15 16  2  0
 15 17  1  0
 14 18  1  0
 17 19  1  0
 16 20  1  0
 17 21  2  0
 18 22  2  0
 18 23  1  0
 20 24  2  0
 21 24  1  0
 22 25  1  0
 23 26  1  0
 25 26  2  0
 26 27  1  0
M  END
