x1386_1-x0691_1
     RDKit          3D

 22 23  0  0  0  0  0  0  0  0999 V2000
    6.4420   -3.1630   19.8250 C   0  0  0  0  0  0  0  0  0  0  0  0
    7.4140   -2.9850   18.6920 C   0  0  0  0  0  0  0  0  0  0  0  0
    5.4480   -3.8950   19.6380 O   0  0  0  0  0  0  0  0  0  0  0  0
    6.7220   -2.5540   21.0460 N   0  0  0  0  0  0  0  0  0  0  0  0
    7.6380   -1.4030   20.9750 C   0  0  0  0  0  0  0  0  0  0  0  0
    6.6750   -3.3280   22.3220 C   0  0  2  0  0  0  0  0  0  0  0  0
    5.2630   -3.2360   22.9380 C   0  0  0  0  0  0  0  0  0  0  0  0
    8.9370   -1.6780   21.7230 C   0  0  0  0  0  0  0  0  0  0  0  0
    7.7070   -3.1170   23.2740 C   0  0  0  0  0  0  0  0  0  0  0  0
    4.5550   -4.5850   23.1440 C   0  0  0  0  0  0  0  0  0  0  0  0
    8.6980   -2.0370   23.1160 N   0  0  0  0  0  0  0  0  0  0  0  0
    5.2920   -5.5540   24.0760 C   0  0  0  0  0  0  0  0  0  0  0  0
    4.7050   -5.6140   25.6860 S   0  0  0  0  0  0  0  0  0  0  0  0
    4.0140   -6.8700   25.8450 O   0  0  0  0  0  0  0  0  0  0  0  0
    5.7650   -5.2030   26.5760 O   0  0  0  0  0  0  0  0  0  0  0  0
    3.4770   -4.3340   25.7600 C   0  0  0  0  0  0  0  0  0  0  0  0
    3.8650   -2.9930   25.8470 C   0  0  0  0  0  0  0  0  0  0  0  0
    2.1180   -4.6620   25.7340 C   0  0  0  0  0  0  0  0  0  0  0  0
    2.9250   -1.9700   25.9130 C   0  0  0  0  0  0  0  0  0  0  0  0
    1.1580   -3.6440   25.8010 C   0  0  0  0  0  0  0  0  0  0  0  0
    3.3010   -0.6840   25.9980 F   0  0  0  0  0  0  0  0  0  0  0  0
    1.5810   -2.3180   25.8930 C   0  0  0  0  0  0  0  0  0  0  0  0
  1  2  1  0
  1  3  2  0
  1  4  1  0
  4  5  1  0
  4  6  1  0
  6  7  1  1
  5  8  1  0
  6  9  1  0
  7 10  1  0
  8 11  1  0
  9 11  1  0
 10 12  1  0
 13 12  1  0
 13 14  2  0
 13 15  2  0
 13 16  1  0
 16 17  2  0
 16 18  1  0
 17 19  1  0
 18 20  2  0
 19 21  1  0
 19 22  2  0
 20 22  1  0
M  END
