x1385_1-x0770_1-x1412_0-x0387_0-x1334_1-x1412_1
     RDKit          3D

 22 24  0  0  0  0  0  0  0  0999 V2000
    6.3280   -3.2350   19.8830 C   0  0  0  0  0  0  0  0  0  0  0  0
    7.2850   -2.9500   18.7360 C   0  0  0  0  0  0  0  0  0  0  0  0
    5.4140   -4.0580   19.7230 O   0  0  0  0  0  0  0  0  0  0  0  0
    6.5550   -2.5540   21.0970 N   0  0  0  0  0  0  0  0  0  0  0  0
    6.2770   -3.2900   22.3220 C   0  0  0  0  0  0  0  0  0  0  0  0
    7.5800   -1.5010   21.2660 C   0  0  0  0  0  0  0  0  0  0  0  0
    7.5580   -3.8620   22.9430 C   0  0  0  0  0  0  0  0  0  0  0  0
    8.8400   -1.9270   22.0650 C   0  0  0  0  0  0  0  0  0  0  0  0
    8.5640   -2.8150   23.2110 N   0  0  0  0  0  0  0  0  0  0  0  0
    8.7650   -2.3610   24.6010 C   0  0  2  0  0  0  0  0  0  0  0  0
    7.6590   -1.5450   24.9860 O   0  0  0  0  0  0  0  0  0  0  0  0
   10.0120   -1.4380   24.8960 C   0  0  0  0  0  0  0  0  0  0  0  0
    8.7780   -3.5660   25.5720 C   0  0  0  0  0  0  0  0  0  0  0  0
    9.7650   -4.7180   25.5910 C   0  0  0  0  0  0  0  0  0  0  0  0
    7.5870   -3.7800   26.8420 S   0  0  0  0  0  0  0  0  0  0  0  0
   11.1630   -1.1590   23.9630 C   0  0  0  0  0  0  0  0  0  0  0  0
    9.4980   -5.7520   26.6520 C   0  0  0  0  0  0  0  0  0  0  0  0
    8.2340   -5.2500   27.4220 C   0  0  0  0  0  0  0  0  0  0  0  0
   11.9710   -0.0890   23.9350 C   0  0  0  0  0  0  0  0  0  0  0  0
   11.5840   -2.0970   22.8940 C   0  0  0  0  0  0  0  0  0  0  0  0
   13.0570   -0.0860   22.8940 C   0  0  0  0  0  0  0  0  0  0  0  0
   13.0030   -1.5950   21.8910 S   0  0  0  0  0  0  0  0  0  0  0  0
  1  2  1  0
  1  3  2  0
  1  4  1  0
  4  5  1  0
  4  6  1  0
  5  7  1  0
  6  8  1  0
  7  9  1  0
  8  9  1  0
  9 10  1  0
 10 11  1  1
 10 12  1  0
 10 13  1  0
 13 14  2  0
 13 15  1  0
 12 16  1  0
 14 17  1  0
 15 18  1  0
 17 18  2  0
 16 19  1  0
 16 20  2  0
 19 21  2  0
 20 22  1  0
 21 22  1  0
M  END
