x1386_1-x1334_1-x0426_1-x0692_1-x1418_1-x0831_0-x1412_1-x0770_1-x1374_1-x0397_0-x1334_0
     RDKit          3D

 45 50  0  0  0  0  0  0  0  0999 V2000
    2.1320   -7.5820   23.9190 O   0  0  0  0  0  0  0  0  0  0  0  0
    3.3870   -6.9620   23.7970 C   0  0  0  0  0  0  0  0  0  0  0  0
    4.4240   -7.6720   24.4540 O   0  0  0  0  0  0  0  0  0  0  0  0
    5.6600   -7.3640   23.7980 C   0  0  0  0  0  0  0  0  0  0  0  0
    6.2380   -6.2320   24.2970 C   0  0  0  0  0  0  0  0  0  0  0  0
    6.4590   -5.2550   23.1660 C   0  0  2  0  0  0  0  0  0  0  0  0
    5.4430   -5.0100   22.4630 C   0  0  2  0  0  0  0  0  0  0  0  0
    6.8640   -5.7270   22.0720 C   0  0  0  0  0  0  0  0  0  0  0  0
    5.1770   -3.6650   22.2410 C   0  0  0  0  0  0  0  0  0  0  0  0
    6.2930   -2.5960   22.2000 C   0  0  2  0  0  0  0  0  0  0  0  0
    6.7000   -2.2300   20.8370 N   0  0  0  0  0  0  0  0  0  0  0  0
    7.5390   -2.9650   23.1440 C   0  0  0  0  0  0  0  0  0  0  0  0
    6.4900   -3.1010   19.7600 C   0  0  0  0  0  0  0  0  0  0  0  0
    8.5340   -1.8860   23.0260 N   0  0  0  0  0  0  0  0  0  0  0  0
    7.8500   -1.2850   20.8630 C   0  0  2  0  0  0  0  0  0  0  0  0
    7.4580   -2.9670   18.6250 C   0  0  0  0  0  0  0  0  0  0  0  0
    5.5860   -3.9710   19.6920 O   0  0  0  0  0  0  0  0  0  0  0  0
    9.5890   -2.0220   23.8060 C   0  0  1  0  0  0  0  0  0  0  0  0
    8.9900   -1.8810   21.6430 C   0  0  0  0  0  0  0  0  0  0  0  0
    7.4960    0.0360   21.5550 C   0  0  0  0  0  0  0  0  0  0  0  0
   10.0630   -3.4030   23.7750 C   0  0  0  0  0  0  0  0  0  0  0  0
   10.6000   -0.8540   23.6050 C   0  0  0  0  0  0  0  0  0  0  0  0
    5.9910    0.2600   21.5700 C   0  0  1  0  0  0  0  0  0  0  0  0
   10.3070    0.5180   24.2070 C   0  0  0  0  0  0  0  0  0  0  0  0
   11.8400   -0.9420   22.8670 C   0  0  0  0  0  0  0  0  0  0  0  0
    9.4860   -4.1290   24.9640 C   0  0  0  0  0  0  0  0  0  0  0  0
    5.5040    1.3930   22.4940 C   0  0  0  0  0  0  0  0  0  0  0  0
    5.6990    0.7040   20.2050 C   0  0  0  0  0  0  0  0  0  0  0  0
   12.2830   -2.2030   22.1970 C   0  0  0  0  0  0  0  0  0  0  0  0
   11.1590    1.5900   24.0530 C   0  0  0  0  0  0  0  0  0  0  0  0
   12.7340    0.1310   22.7060 C   0  0  0  0  0  0  0  0  0  0  0  0
    9.9950   -5.3030   25.2890 C   0  0  0  0  0  0  0  0  0  0  0  0
    8.1700   -3.6140   26.0780 S   0  0  0  0  0  0  0  0  0  0  0  0
    4.0100    1.6850   22.3420 C   0  0  1  0  0  0  0  0  0  0  0  0
    4.6320    1.6760   19.9770 C   0  0  0  0  0  0  0  0  0  0  0  0
    6.4490    0.2170   19.1430 C   0  0  0  0  0  0  0  0  0  0  0  0
   12.3360    1.5020   23.3590 C   0  0  0  0  0  0  0  0  0  0  0  0
    9.4190   -5.9470   26.5300 C   0  0  0  0  0  0  0  0  0  0  0  0
    8.3870   -5.0820   27.0410 C   0  0  0  0  0  0  0  0  0  0  0  0
    3.6650    2.4450   23.4120 N   0  0  0  0  0  0  0  0  0  0  0  0
    3.7680    2.2580   21.0710 C   0  0  0  0  0  0  0  0  0  0  0  0
    4.4610    2.0710   18.5750 C   0  0  0  0  0  0  0  0  0  0  0  0
    6.2540    0.6050   17.8720 N   0  0  0  0  0  0  0  0  0  0  0  0
    7.4080   -5.3260   28.4260 Cl  0  0  0  0  0  0  0  0  0  0  0  0
    5.2450    1.5430   17.6510 C   0  0  0  0  0  0  0  0  0  0  0  0
  1  2  1  0
  2  3  1  0
  3  4  1  0
  4  5  1  0
  6  5  1  1
  6  7  1  0
  6  8  1  0
  7  8  1  0
  7  9  1  6
 10  9  1  6
 10 11  1  0
 10 12  1  0
 11 13  1  0
 12 14  1  0
 11 15  1  0
 13 16  1  0
 13 17  2  0
 14 18  1  0
 14 19  1  0
 15 19  1  0
 15 20  1  1
 18 21  1  6
 18 22  1  0
 23 20  1  6
 22 24  2  0
 22 25  1  0
 21 26  1  0
 23 27  1  0
 23 28  1  0
 25 29  1  0
 24 30  1  0
 25 31  2  0
 26 32  2  0
 26 33  1  0
 27 34  1  0
 28 35  2  0
 28 36  1  0
 30 37  2  0
 31 37  1  0
 32 38  1  0
 33 39  1  0
 38 39  2  0
 34 40  1  1
 34 41  1  0
 35 41  1  0
 35 42  1  0
 36 43  2  0
 39 44  1  0
 42 45  2  0
 43 45  1  0
M  END
