x1385_1-x0770_1-x1412_0
     RDKit          3D

 16 17  0  0  0  0  0  0  0  0999 V2000
    6.2880   -3.2770   19.8950 C   0  0  0  0  0  0  0  0  0  0  0  0
    7.2690   -2.9400   18.7740 C   0  0  0  0  0  0  0  0  0  0  0  0
    5.3870   -4.1010   19.7300 O   0  0  0  0  0  0  0  0  0  0  0  0
    6.4850   -2.6120   21.1360 N   0  0  0  0  0  0  0  0  0  0  0  0
    6.1470   -3.3460   22.4050 C   0  0  0  0  0  0  0  0  0  0  0  0
    7.6220   -1.6410   21.2490 C   0  0  0  0  0  0  0  0  0  0  0  0
    7.4340   -3.9550   23.0090 C   0  0  0  0  0  0  0  0  0  0  0  0
    8.7940   -2.0790   22.1770 C   0  0  0  0  0  0  0  0  0  0  0  0
    8.3870   -2.8980   23.3340 N   0  0  0  0  0  0  0  0  0  0  0  0
    8.4510   -2.5250   24.6920 C   0  0  0  0  0  0  0  0  0  0  0  0
    8.4130   -1.3560   25.0790 O   0  0  0  0  0  0  0  0  0  0  0  0
    8.5690   -3.7070   25.6170 C   0  0  0  0  0  0  0  0  0  0  0  0
    9.3610   -4.8230   25.4430 C   0  0  0  0  0  0  0  0  0  0  0  0
    7.6970   -3.8520   27.1120 S   0  0  0  0  0  0  0  0  0  0  0  0
    9.3410   -5.8260   26.4180 C   0  0  0  0  0  0  0  0  0  0  0  0
    8.3830   -5.3870   27.4960 C   0  0  0  0  0  0  0  0  0  0  0  0
  1  2  1  0
  1  3  2  0
  1  4  1  0
  4  5  1  0
  4  6  1  0
  5  7  1  0
  6  8  1  0
  7  9  1  0
  8  9  1  0
  9 10  1  0
 10 11  2  0
 10 12  1  0
 12 13  2  0
 12 14  1  0
 13 15  1  0
 14 16  1  0
 15 16  2  0
M  END
