x1385_0-x0736_1
     RDKit          3D

 16 17  0  0  0  0  0  0  0  0999 V2000
    6.4830   -3.3620   19.9360 C   0  0  0  0  0  0  0  0  0  0  0  0
    7.4540   -3.0220   18.8230 C   0  0  0  0  0  0  0  0  0  0  0  0
    5.4980   -4.0800   19.7320 O   0  0  0  0  0  0  0  0  0  0  0  0
    6.7500   -2.8660   21.2150 N   0  0  0  0  0  0  0  0  0  0  0  0
    7.5260   -1.7440   21.4890 C   0  0  0  0  0  0  0  0  0  0  0  0
    6.4690   -3.7950   22.2210 C   0  0  0  0  0  0  0  0  0  0  0  0
    8.7560   -2.1540   22.0990 C   0  0  0  0  0  0  0  0  0  0  0  0
    7.5300   -4.0230   23.3220 C   0  0  0  0  0  0  0  0  0  0  0  0
    8.5650   -2.9890   23.3020 N   0  0  0  0  0  0  0  0  0  0  0  0
    9.5810   -3.2350   24.1740 C   0  0  0  0  0  0  0  0  0  0  0  0
    9.2290   -4.1370   25.1730 C   0  0  0  0  0  0  0  0  0  0  0  0
    9.7400   -5.3180   25.4150 C   0  0  0  0  0  0  0  0  0  0  0  0
    7.9130   -3.7690   26.3420 S   0  0  0  0  0  0  0  0  0  0  0  0
    9.1730   -6.0230   26.4940 C   0  0  0  0  0  0  0  0  0  0  0  0
    8.1240   -5.3420   27.1550 C   0  0  0  0  0  0  0  0  0  0  0  0
    7.0690   -5.9160   28.6270 Br  0  0  0  0  0  0  0  0  0  0  0  0
  1  2  1  0
  1  3  2  0
  1  4  1  0
  4  5  1  0
  4  6  1  0
  5  7  1  0
  6  8  1  0
  7  9  1  0
  8  9  1  0
  9 10  1  0
 10 11  1  0
 11 12  2  0
 11 13  1  0
 12 14  1  0
 13 15  1  0
 14 15  2  0
 15 16  1  0
M  END
