x1386_1-x0981_1
     RDKit          3D

 21 21  0  0  0  0  0  0  0  0999 V2000
    4.1910   -5.6540   22.9520 C   0  0  0  0  0  0  0  0  0  0  0  0
    2.8310   -6.0580   23.4730 C   0  0  1  0  0  0  0  0  0  0  0  0
    2.4900   -7.3100   22.7840 N   0  0  0  0  0  0  0  0  0  0  0  0
    4.7930   -4.5180   23.0310 N   0  0  0  0  0  0  0  0  0  0  0  0
    2.8260   -6.1990   24.9920 C   0  0  0  0  0  0  0  0  0  0  0  0
    6.0260   -4.4440   22.4290 C   0  0  0  0  0  0  0  0  0  0  0  0
    1.3010   -7.4510   22.1170 C   0  0  0  0  0  0  0  0  0  0  0  0
    3.1830   -7.6330   25.3050 C   0  0  0  0  0  0  0  0  0  0  0  0
    6.5290   -3.0000   22.4430 C   0  0  2  0  0  0  0  0  0  0  0  0
    1.1720   -8.7250   21.3260 C   0  0  0  0  0  0  0  0  0  0  0  0
    0.3900   -6.6230   22.1200 O   0  0  0  0  0  0  0  0  0  0  0  0
    2.4900   -8.2960   26.4100 N   0  0  0  0  0  0  0  0  0  0  0  0
    4.0260   -8.1870   24.6300 O   0  0  0  0  0  0  0  0  0  0  0  0
    6.7150   -2.4850   21.0440 N   0  0  0  0  0  0  0  0  0  0  0  0
    7.7700   -3.0750   23.0800 C   0  0  0  0  0  0  0  0  0  0  0  0
    6.4340   -3.1720   19.8470 C   0  0  0  0  0  0  0  0  0  0  0  0
    8.6350   -2.0380   22.9600 N   0  0  0  0  0  0  0  0  0  0  0  0
    7.7230   -1.4090   20.9450 C   0  0  0  0  0  0  0  0  0  0  0  0
    7.4130   -2.9900   18.7300 C   0  0  0  0  0  0  0  0  0  0  0  0
    5.4610   -3.9390   19.6820 O   0  0  0  0  0  0  0  0  0  0  0  0
    8.8490   -1.7040   21.7080 C   0  0  0  0  0  0  0  0  0  0  0  0
  2  1  1  6
  2  3  1  0
  1  4  2  3
  2  5  1  0
  4  6  1  0
  3  7  1  0
  5  8  1  0
  9  6  1  6
  7 10  1  0
  7 11  2  0
  8 12  1  0
  8 13  2  0
  9 14  1  0
  9 15  1  0
 14 16  1  0
 15 17  1  0
 14 18  1  0
 16 19  1  0
 16 20  2  0
 17 21  1  0
 18 21  1  0
M  END
