x1386_1-x1375_1-x1418_1-x0770_1-x0831_1-x0692_1-x1334_1-x0397_0-x1334_0-x1385_1-x0831_0-x1374_1-x0426_1
     RDKit          3D

 44 49  0  0  0  0  0  0  0  0999 V2000
    2.2570   -7.4580   24.2690 O   0  0  0  0  0  0  0  0  0  0  0  0
    3.1580   -6.9500   25.2270 C   0  0  0  0  0  0  0  0  0  0  0  0
    4.4840   -7.3270   24.9330 O   0  0  0  0  0  0  0  0  0  0  0  0
    4.8450   -7.1540   23.6380 C   0  0  0  0  0  0  0  0  0  0  0  0
    5.6660   -5.9460   23.3690 C   0  0  2  0  0  0  0  0  0  0  0  0
    5.3490   -5.2550   22.1460 C   0  0  2  0  0  0  0  0  0  0  0  0
    6.6940   -6.1570   22.5410 C   0  0  0  0  0  0  0  0  0  0  0  0
    5.3370   -3.7640   22.4390 C   0  0  0  0  0  0  0  0  0  0  0  0
    6.7680   -3.2500   22.3160 C   0  0  1  0  0  0  0  0  0  0  0  0
    6.8640   -2.5330   21.0640 N   0  0  0  0  0  0  0  0  0  0  0  0
    7.3460   -2.5940   23.4150 C   0  0  0  0  0  0  0  0  0  0  0  0
    6.5430   -3.1710   19.8460 C   0  0  0  0  0  0  0  0  0  0  0  0
    8.7540   -2.1990   23.3170 N   0  0  0  0  0  0  0  0  0  0  0  0
    7.8640   -1.4440   21.1290 C   0  0  2  0  0  0  0  0  0  0  0  0
    7.4650   -2.9610   18.6810 C   0  0  0  0  0  0  0  0  0  0  0  0
    5.5620   -3.9380   19.6860 O   0  0  0  0  0  0  0  0  0  0  0  0
    9.6250   -3.2530   23.8320 C   0  0  1  0  0  0  0  0  0  0  0  0
    9.1060   -1.8080   21.9300 C   0  0  0  0  0  0  0  0  0  0  0  0
    7.1370   -0.2410   21.7390 C   0  0  0  0  0  0  0  0  0  0  0  0
   10.9880   -2.7300   24.1420 C   0  0  0  0  0  0  0  0  0  0  0  0
    9.1730   -4.1200   25.0240 C   0  0  0  0  0  0  0  0  0  0  0  0
    5.6300   -0.3030   21.4520 C   0  0  1  0  0  0  0  0  0  0  0  0
    9.7330   -5.3420   25.2750 C   0  0  0  0  0  0  0  0  0  0  0  0
    7.9360   -3.7810   26.2770 S   0  0  0  0  0  0  0  0  0  0  0  0
   11.2130   -1.2460   23.9540 C   0  0  0  0  0  0  0  0  0  0  0  0
    4.8050    0.4140   22.5540 C   0  0  0  0  0  0  0  0  0  0  0  0
    5.3900    0.4140   20.1800 C   0  0  0  0  0  0  0  0  0  0  0  0
    9.2680   -5.9930   26.3450 C   0  0  0  0  0  0  0  0  0  0  0  0
    8.2510   -5.2740   27.0370 C   0  0  0  0  0  0  0  0  0  0  0  0
   10.4310   -0.2910   24.5630 C   0  0  0  0  0  0  0  0  0  0  0  0
   12.2690   -0.8220   23.1300 C   0  0  0  0  0  0  0  0  0  0  0  0
    4.3160    1.7830   22.1280 C   0  0  2  0  0  0  0  0  0  0  0  0
    4.4010    1.3560   19.9660 C   0  0  0  0  0  0  0  0  0  0  0  0
    6.2840    0.0500   19.1770 C   0  0  0  0  0  0  0  0  0  0  0  0
    7.3900   -5.7390   28.4360 Cl  0  0  0  0  0  0  0  0  0  0  0  0
   13.1930   -1.7730   22.3790 C   0  0  0  0  0  0  0  0  0  0  0  0
   10.7930    1.1530   24.2880 C   0  0  0  0  0  0  0  0  0  0  0  0
   12.6140    0.5120   22.8880 C   0  0  0  0  0  0  0  0  0  0  0  0
    3.7050    2.3380   23.2150 N   0  0  0  0  0  0  0  0  0  0  0  0
    3.5730    1.6680   20.9520 C   0  0  0  0  0  0  0  0  0  0  0  0
    4.3400    1.9270   18.7210 C   0  0  0  0  0  0  0  0  0  0  0  0
    6.3380    0.5140   17.9390 N   0  0  0  0  0  0  0  0  0  0  0  0
   11.8480    1.4930   23.4860 C   0  0  0  0  0  0  0  0  0  0  0  0
    5.3720    1.4740   17.6610 C   0  0  0  0  0  0  0  0  0  0  0  0
  1  2  1  0
  2  3  1  0
  3  4  1  0
  5  4  1  6
  5  6  1  0
  5  7  1  0
  6  7  1  0
  6  8  1  1
  9  8  1  1
  9 10  1  0
  9 11  1  0
 10 12  1  0
 11 13  1  0
 10 14  1  0
 12 15  1  0
 12 16  2  0
 13 17  1  0
 13 18  1  0
 14 18  1  0
 14 19  1  1
 17 20  1  1
 17 21  1  0
 22 19  1  1
 21 23  2  0
 21 24  1  0
 20 25  1  0
 22 26  1  0
 22 27  1  0
 23 28  1  0
 24 29  1  0
 28 29  2  0
 25 30  2  0
 25 31  1  0
 26 32  1  0
 27 33  2  0
 27 34  1  0
 29 35  1  0
 31 36  1  0
 30 37  1  0
 31 38  2  0
 32 39  1  1
 32 40  1  0
 33 40  1  0
 33 41  1  0
 34 42  2  0
 37 43  2  0
 38 43  1  0
 41 44  2  0
 42 44  1  0
M  END
