x1386_1-x1385_1-x0831_0-x1412_1-x0397_0-x1334_1-x1334_0-x0434_2-x1418_1-x0692_1-x1374_1-x0426_1-x0770_1
     RDKit          3D

 45 50  0  0  0  0  0  0  0  0999 V2000
    2.2100   -6.6560   24.4700 O   0  0  0  0  0  0  0  0  0  0  0  0
    3.1240   -7.4560   23.7580 C   0  0  0  0  0  0  0  0  0  0  0  0
    4.2460   -7.8100   24.5670 O   0  0  0  0  0  0  0  0  0  0  0  0
    5.4740   -7.4820   23.9090 C   0  0  0  0  0  0  0  0  0  0  0  0
    6.0990   -6.4740   24.4740 C   0  0  0  0  0  0  0  0  0  0  0  0
    6.3220   -5.5190   23.3480 C   0  0  2  0  0  0  0  0  0  0  0  0
    5.2130   -4.9290   22.6030 C   0  0  2  0  0  0  0  0  0  0  0  0
    6.3910   -6.0000   22.0790 C   0  0  0  0  0  0  0  0  0  0  0  0
    5.2750   -3.4920   22.3020 C   0  0  0  0  0  0  0  0  0  0  0  0
    6.7230   -3.1210   22.0700 C   0  0  1  0  0  0  0  0  0  0  0  0
    6.7570   -2.3650   20.8700 N   0  0  0  0  0  0  0  0  0  0  0  0
    7.3230   -2.4300   23.2790 C   0  0  0  0  0  0  0  0  0  0  0  0
    6.4860   -3.0470   19.6870 C   0  0  0  0  0  0  0  0  0  0  0  0
    8.5780   -1.7200   23.0120 N   0  0  0  0  0  0  0  0  0  0  0  0
    7.8090   -1.3380   20.8530 C   0  0  2  0  0  0  0  0  0  0  0  0
    7.5020   -2.9590   18.5960 C   0  0  0  0  0  0  0  0  0  0  0  0
    5.4740   -3.7630   19.5430 O   0  0  0  0  0  0  0  0  0  0  0  0
    9.6370   -1.9630   23.9010 C   0  0  1  0  0  0  0  0  0  0  0  0
    9.0110   -1.8600   21.6350 C   0  0  0  0  0  0  0  0  0  0  0  0
    7.3310   -0.1030   21.6270 C   0  0  0  0  0  0  0  0  0  0  0  0
   10.0410   -3.3730   23.7300 C   0  0  0  0  0  0  0  0  0  0  0  0
   10.6550   -0.8440   23.6690 C   0  0  0  0  0  0  0  0  0  0  0  0
    5.8420    0.1740   21.5430 C   0  0  1  0  0  0  0  0  0  0  0  0
   10.3600    0.4110   24.2560 C   0  0  0  0  0  0  0  0  0  0  0  0
   11.8490   -0.9840   22.9000 C   0  0  0  0  0  0  0  0  0  0  0  0
    9.5080   -4.1530   24.9110 C   0  0  0  0  0  0  0  0  0  0  0  0
    5.3300    1.0910   22.5150 C   0  0  0  0  0  0  0  0  0  0  0  0
    5.5820    0.6750   20.2090 C   0  0  0  0  0  0  0  0  0  0  0  0
   12.3270   -2.2110   22.1940 C   0  0  0  0  0  0  0  0  0  0  0  0
   11.1970    1.4700   24.0890 C   0  0  0  0  0  0  0  0  0  0  0  0
   12.7260    0.2210   22.7750 C   0  0  0  0  0  0  0  0  0  0  0  0
    9.9840   -5.3680   25.2570 C   0  0  0  0  0  0  0  0  0  0  0  0
    8.2710   -3.6050   25.9530 S   0  0  0  0  0  0  0  0  0  0  0  0
    3.8610    1.4210   22.2630 C   0  0  1  0  0  0  0  0  0  0  0  0
    4.5530    1.6520   19.9740 C   0  0  0  0  0  0  0  0  0  0  0  0
    6.4340    0.1590   19.0890 C   0  0  0  0  0  0  0  0  0  0  0  0
   12.3610    1.4010   23.3730 C   0  0  0  0  0  0  0  0  0  0  0  0
    9.4490   -5.9480   26.3790 C   0  0  0  0  0  0  0  0  0  0  0  0
    8.3790   -5.0210   26.9490 C   0  0  0  0  0  0  0  0  0  0  0  0
    3.4020    2.0410   23.5090 N   0  0  0  0  0  0  0  0  0  0  0  0
    3.6850    2.1810   21.0990 C   0  0  0  0  0  0  0  0  0  0  0  0
    4.4230    2.1090   18.5440 C   0  0  0  0  0  0  0  0  0  0  0  0
    6.2590    0.6110   17.8320 N   0  0  0  0  0  0  0  0  0  0  0  0
    7.3970   -5.2460   28.3350 Cl  0  0  0  0  0  0  0  0  0  0  0  0
    5.2430    1.5910   17.6140 C   0  0  0  0  0  0  0  0  0  0  0  0
  1  2  1  0
  2  3  1  0
  3  4  1  0
  4  5  1  0
  6  5  1  1
  6  7  1  0
  6  8  1  0
  7  8  1  0
  7  9  1  6
 10  9  1  1
 10 11  1  0
 10 12  1  0
 11 13  1  0
 12 14  1  0
 11 15  1  0
 13 16  1  0
 13 17  2  0
 14 18  1  0
 14 19  1  0
 15 19  1  0
 15 20  1  1
 18 21  1  6
 18 22  1  0
 23 20  1  1
 22 24  2  0
 22 25  1  0
 21 26  1  0
 23 27  1  0
 23 28  1  0
 25 29  1  0
 24 30  1  0
 25 31  2  0
 26 32  2  0
 26 33  1  0
 27 34  1  0
 28 35  2  0
 28 36  1  0
 30 37  2  0
 31 37  1  0
 32 38  1  0
 33 39  1  0
 38 39  2  0
 34 40  1  1
 34 41  1  0
 35 41  1  0
 35 42  1  0
 36 43  2  0
 39 44  1  0
 42 45  2  0
 43 45  1  0
M  END
