x1385_1-x0831_0-x1334_0-x1334_1-x0692_1-x1418_1-x0434_2-x0831_1-x0397_0-x0540_3-x1412_1-x1374_1-x0770_1
     RDKit          3D

 44 48  0  0  0  0  0  0  0  0999 V2000
    2.1990   -7.7200   23.3330 O   0  0  0  0  0  0  0  0  0  0  0  0
    2.4650   -8.0100   24.6910 C   0  0  0  0  0  0  0  0  0  0  0  0
    3.8520   -7.9010   24.9090 O   0  0  0  0  0  0  0  0  0  0  0  0
    4.4780   -7.2100   23.8390 C   0  0  0  0  0  0  0  0  0  0  0  0
    4.9570   -6.0790   24.3180 C   0  0  0  0  0  0  0  0  0  0  0  0
    6.0650   -5.7480   23.3690 C   0  0  2  0  0  0  0  0  0  0  0  0
    5.9540   -4.7630   22.4000 C   0  0  2  0  0  0  0  0  0  0  0  0
    6.0560   -6.3790   22.2120 C   0  0  0  0  0  0  0  0  0  0  0  0
    7.0710   -3.7950   22.1310 C   0  0  2  0  0  0  0  0  0  0  0  0
    7.6830   -3.2090   23.3920 C   0  0  0  0  0  0  0  0  0  0  0  0
    6.6220   -2.7680   21.2210 N   0  0  0  0  0  0  0  0  0  0  0  0
    6.3430   -3.3000   19.9260 C   0  0  0  0  0  0  0  0  0  0  0  0
    8.5680   -2.0320   23.2970 N   0  0  0  0  0  0  0  0  0  0  0  0
    7.0220   -1.3980   21.5750 C   0  0  1  0  0  0  0  0  0  0  0  0
    7.3660   -2.9580   18.8440 C   0  0  0  0  0  0  0  0  0  0  0  0
    5.3700   -4.0320   19.6990 O   0  0  0  0  0  0  0  0  0  0  0  0
    5.9450   -0.7580   22.4600 C   0  0  0  0  0  0  0  0  0  0  0  0
    9.9990   -2.2450   23.4270 C   0  0  2  0  0  0  0  0  0  0  0  0
    8.3340   -1.3800   21.9870 C   0  0  0  0  0  0  0  0  0  0  0  0
    5.0670    0.3070   21.7650 C   0  0  1  0  0  0  0  0  0  0  0  0
   10.5980   -3.1990   24.4430 C   0  0  0  0  0  0  0  0  0  0  0  0
   10.6770   -0.9350   23.4420 C   0  0  0  0  0  0  0  0  0  0  0  0
    5.2550    1.5760   22.6100 C   0  0  0  0  0  0  0  0  0  0  0  0
   10.1730    0.3400   23.9200 C   0  0  0  0  0  0  0  0  0  0  0  0
   12.0050   -0.9090   22.9170 C   0  0  0  0  0  0  0  0  0  0  0  0
    9.7240   -4.0730   25.3160 C   0  0  0  0  0  0  0  0  0  0  0  0
    5.4710    0.4950   20.3100 C   0  0  0  0  0  0  0  0  0  0  0  0
    4.1320    2.4690   22.6220 N   0  0  0  0  0  0  0  0  0  0  0  0
   12.7200   -2.0990   22.3560 C   0  0  0  0  0  0  0  0  0  0  0  0
   10.8960    1.6840   23.9250 C   0  0  0  0  0  0  0  0  0  0  0  0
   12.8640    0.3940   22.8630 C   0  0  0  0  0  0  0  0  0  0  0  0
   10.0010   -5.3790   25.6350 C   0  0  0  0  0  0  0  0  0  0  0  0
    8.1670   -3.6080   26.1630 S   0  0  0  0  0  0  0  0  0  0  0  0
    6.6440   -0.1170   19.8590 C   0  0  0  0  0  0  0  0  0  0  0  0
    4.7310    1.2330   19.4410 C   0  0  0  0  0  0  0  0  0  0  0  0
    3.0150    2.1390   23.3510 C   0  0  0  0  0  0  0  0  0  0  0  0
   12.2950    1.7440   23.3800 C   0  0  0  0  0  0  0  0  0  0  0  0
    9.1240   -5.9950   26.4810 C   0  0  0  0  0  0  0  0  0  0  0  0
    8.0870   -5.1720   26.8700 C   0  0  0  0  0  0  0  0  0  0  0  0
    6.9510    0.0770   18.5700 C   0  0  0  0  0  0  0  0  0  0  0  0
    5.1660    1.3630   18.1160 C   0  0  0  0  0  0  0  0  0  0  0  0
    3.0030    1.4720   24.3820 O   0  0  0  0  0  0  0  0  0  0  0  0
    6.8270   -5.6000   27.9430 Cl  0  0  0  0  0  0  0  0  0  0  0  0
    6.2870    0.7850   17.6480 N   0  0  0  0  0  0  0  0  0  0  0  0
  1  2  1  0
  2  3  1  0
  3  4  1  0
  4  5  1  0
  6  5  1  1
  6  7  1  0
  6  8  1  0
  7  8  1  6
  7  9  1  0
  9 10  1  1
  9 11  1  0
 11 12  1  0
 10 13  1  0
 11 14  1  0
 12 15  1  0
 12 16  2  0
 14 17  1  1
 13 18  1  0
 13 19  1  0
 14 19  1  0
 20 17  1  1
 18 21  1  1
 18 22  1  0
 20 23  1  0
 22 24  2  0
 22 25  1  0
 21 26  1  0
 20 27  1  0
 23 28  1  0
 25 29  1  0
 24 30  1  0
 25 31  2  0
 26 32  2  0
 26 33  1  0
 27 34  2  0
 27 35  1  0
 28 36  1  0
 30 37  2  0
 31 37  1  0
 32 38  1  0
 33 39  1  0
 38 39  2  0
 34 40  1  0
 35 41  2  0
 36 42  2  0
 39 43  1  0
 40 44  2  0
 41 44  1  0
M  END
