x1385_1-x1334_1-x1412_1-x0770_1-x1412_0
     RDKit          3D

 16 17  0  0  0  0  0  0  0  0999 V2000
    6.3830   -3.2030   19.8700 C   0  0  0  0  0  0  0  0  0  0  0  0
    7.3360   -2.9440   18.7300 C   0  0  0  0  0  0  0  0  0  0  0  0
    5.4430   -3.9870   19.6790 O   0  0  0  0  0  0  0  0  0  0  0  0
    6.5900   -2.5890   21.1050 N   0  0  0  0  0  0  0  0  0  0  0  0
    6.2120   -3.3760   22.2740 C   0  0  0  0  0  0  0  0  0  0  0  0
    7.6910   -1.6000   21.2830 C   0  0  0  0  0  0  0  0  0  0  0  0
    7.4610   -3.9380   22.9900 C   0  0  0  0  0  0  0  0  0  0  0  0
    8.8280   -2.0150   22.2550 C   0  0  0  0  0  0  0  0  0  0  0  0
    8.3770   -2.8750   23.3620 N   0  0  0  0  0  0  0  0  0  0  0  0
    8.5630   -2.6920   24.7100 C   0  0  0  0  0  0  0  0  0  0  0  0
    8.5700   -1.5280   25.1150 O   0  0  0  0  0  0  0  0  0  0  0  0
    8.7170   -3.7030   25.5810 C   0  0  0  0  0  0  0  0  0  0  0  0
    9.6270   -4.7490   25.5620 C   0  0  0  0  0  0  0  0  0  0  0  0
    7.7150   -3.8820   26.9710 S   0  0  0  0  0  0  0  0  0  0  0  0
    9.4930   -5.6360   26.6140 C   0  0  0  0  0  0  0  0  0  0  0  0
    8.5210   -5.3120   27.4770 C   0  0  0  0  0  0  0  0  0  0  0  0
  1  2  1  0
  1  3  2  0
  1  4  1  0
  4  5  1  0
  4  6  1  0
  5  7  1  0
  6  8  1  0
  7  9  1  0
  8  9  1  0
  9 10  1  0
 10 11  2  0
 10 12  1  0
 12 13  2  0
 12 14  1  0
 13 15  1  0
 14 16  1  0
 15 16  2  0
M  END
