x1385_1-x0831_0-x0397_0-x1386_1-x1418_1-x0770_1-x1374_1-x0692_1-x0831_1-x1334_0
     RDKit          3D

 32 35  0  0  0  0  0  0  0  0999 V2000
    2.2130   -7.7110   23.2110 O   0  0  0  0  0  0  0  0  0  0  0  0
    2.4110   -8.0480   24.5700 C   0  0  0  0  0  0  0  0  0  0  0  0
    3.7820   -8.0070   24.8960 O   0  0  0  0  0  0  0  0  0  0  0  0
    4.4830   -7.2720   23.9070 C   0  0  0  0  0  0  0  0  0  0  0  0
    4.8790   -6.0620   24.4120 C   0  0  0  0  0  0  0  0  0  0  0  0
    5.9780   -5.6280   23.5050 C   0  0  2  0  0  0  0  0  0  0  0  0
    5.7820   -4.5220   22.6280 C   0  0  2  0  0  0  0  0  0  0  0  0
    6.1370   -6.1310   22.3280 C   0  0  0  0  0  0  0  0  0  0  0  0
    7.0440   -3.8570   22.1220 C   0  0  2  0  0  0  0  0  0  0  0  0
    8.0010   -3.5210   23.2660 C   0  0  0  0  0  0  0  0  0  0  0  0
    6.7040   -2.8190   21.1540 N   0  0  0  0  0  0  0  0  0  0  0  0
    6.4030   -3.2570   19.8680 C   0  0  0  0  0  0  0  0  0  0  0  0
    8.7420   -2.2680   23.1900 N   0  0  0  0  0  0  0  0  0  0  0  0
    7.4310   -1.5750   21.3110 C   0  0  0  0  0  0  0  0  0  0  0  0
    7.3920   -2.9810   18.7550 C   0  0  0  0  0  0  0  0  0  0  0  0
    5.3820   -3.9190   19.6190 O   0  0  0  0  0  0  0  0  0  0  0  0
   10.1360   -2.4130   23.5900 C   0  0  2  0  0  0  0  0  0  0  0  0
    8.7130   -1.7260   21.8300 C   0  0  0  0  0  0  0  0  0  0  0  0
   10.4870   -2.9190   24.9520 C   0  0  0  0  0  0  0  0  0  0  0  0
   10.8360   -1.0770   23.5490 C   0  0  0  0  0  0  0  0  0  0  0  0
   10.2770    0.1070   24.1620 C   0  0  0  0  0  0  0  0  0  0  0  0
   12.1010   -0.8820   22.9070 C   0  0  0  0  0  0  0  0  0  0  0  0
    9.6470   -3.9500   25.6210 C   0  0  0  0  0  0  0  0  0  0  0  0
   12.8090   -2.0060   22.2150 C   0  0  0  0  0  0  0  0  0  0  0  0
   10.8580    1.3440   24.1570 C   0  0  0  0  0  0  0  0  0  0  0  0
   12.7700    0.3390   22.8600 C   0  0  0  0  0  0  0  0  0  0  0  0
   10.0250   -5.2570   25.7320 C   0  0  0  0  0  0  0  0  0  0  0  0
    8.1350   -3.6950   26.4010 S   0  0  0  0  0  0  0  0  0  0  0  0
   12.1910    1.4240   23.4530 C   0  0  0  0  0  0  0  0  0  0  0  0
    9.1390   -6.0430   26.4650 C   0  0  0  0  0  0  0  0  0  0  0  0
    8.0430   -5.3220   26.9220 C   0  0  0  0  0  0  0  0  0  0  0  0
    6.7390   -5.8860   27.8800 Cl  0  0  0  0  0  0  0  0  0  0  0  0
  1  2  1  0
  2  3  1  0
  3  4  1  0
  4  5  1  0
  6  5  1  6
  6  7  1  0
  6  8  1  0
  7  8  1  6
  7  9  1  0
  9 10  1  1
  9 11  1  0
 11 12  1  0
 10 13  1  0
 11 14  1  0
 12 15  1  0
 12 16  2  0
 13 17  1  0
 13 18  1  0
 14 18  1  0
 17 19  1  1
 17 20  1  0
 20 21  2  0
 20 22  1  0
 19 23  1  0
 22 24  1  0
 21 25  1  0
 22 26  2  0
 23 27  2  0
 23 28  1  0
 25 29  2  0
 26 29  1  0
 27 30  1  0
 28 31  1  0
 30 31  2  0
 31 32  1  0
M  END
