x1386_0-x1418_0-x0770_1-x0692_1
     RDKit          3D

 16 17  0  0  0  0  0  0  0  0999 V2000
    6.3130   -3.3270   19.9300 C   0  0  0  0  0  0  0  0  0  0  0  0
    7.3060   -3.0180   18.8210 C   0  0  0  0  0  0  0  0  0  0  0  0
    5.4190   -4.1820   19.7830 O   0  0  0  0  0  0  0  0  0  0  0  0
    6.4870   -2.6060   21.1240 N   0  0  0  0  0  0  0  0  0  0  0  0
    7.3220   -1.3700   21.1060 C   0  0  0  0  0  0  0  0  0  0  0  0
    6.4600   -3.3400   22.3980 C   0  0  0  0  0  0  0  0  0  0  0  0
    8.5710   -1.5460   21.7330 C   0  0  0  0  0  0  0  0  0  0  0  0
    7.6880   -3.3980   23.0700 C   0  0  0  0  0  0  0  0  0  0  0  0
    8.4610   -2.1470   23.0720 N   0  0  0  0  0  0  0  0  0  0  0  0
    9.6630   -2.1810   23.9250 C   0  0  1  0  0  0  0  0  0  0  0  0
   10.2680   -3.5400   23.8590 C   0  0  0  0  0  0  0  0  0  0  0  0
   10.7330   -1.2470   23.6380 C   0  0  0  0  0  0  0  0  0  0  0  0
   11.8550   -1.4010   22.8350 C   0  0  0  0  0  0  0  0  0  0  0  0
   10.8650    0.1540   24.1800 C   0  0  0  0  0  0  0  0  0  0  0  0
   12.7620   -0.3740   22.6970 C   0  0  0  0  0  0  0  0  0  0  0  0
   12.3040    1.0160   23.6070 S   0  0  0  0  0  0  0  0  0  0  0  0
  1  2  1  0
  1  3  2  0
  1  4  1  0
  4  5  1  0
  4  6  1  0
  5  7  1  0
  6  8  1  0
  7  9  1  0
  8  9  1  0
  9 10  1  0
 10 11  1  6
 10 12  1  0
 12 13  1  0
 12 14  2  0
 13 15  2  0
 14 16  1  0
 15 16  1  0
M  END
