x1386_1-x1418_1-x1374_1-x1334_1-x0692_1-x1375_1-x0397_0-x0831_0-x1334_0-x0831_1-x0426_1
     RDKit          3D

 45 50  0  0  0  0  0  0  0  0999 V2000
    2.0320   -6.7520   24.3470 O   0  0  0  0  0  0  0  0  0  0  0  0
    2.9740   -7.5230   23.6390 C   0  0  0  0  0  0  0  0  0  0  0  0
    4.0130   -7.9300   24.5220 O   0  0  0  0  0  0  0  0  0  0  0  0
    4.8530   -6.8250   24.8360 C   0  0  0  0  0  0  0  0  0  0  0  0
    6.0140   -6.9340   24.0990 C   0  0  0  0  0  0  0  0  0  0  0  0
    6.1830   -5.8040   23.1390 C   0  0  2  0  0  0  0  0  0  0  0  0
    5.1460   -5.2080   22.4750 C   0  0  2  0  0  0  0  0  0  0  0  0
    5.9180   -6.0580   21.7030 C   0  0  0  0  0  0  0  0  0  0  0  0
    5.3260   -3.6980   22.5140 C   0  0  0  0  0  0  0  0  0  0  0  0
    6.7320   -3.1930   22.2560 C   0  0  1  0  0  0  0  0  0  0  0  0
    6.7640   -2.4550   20.9900 N   0  0  0  0  0  0  0  0  0  0  0  0
    7.3730   -2.5360   23.3320 C   0  0  0  0  0  0  0  0  0  0  0  0
    6.4580   -3.1440   19.8000 C   0  0  0  0  0  0  0  0  0  0  0  0
    8.5200   -1.6640   23.1050 N   0  0  0  0  0  0  0  0  0  0  0  0
    7.6300   -1.2940   21.0380 C   0  0  2  0  0  0  0  0  0  0  0  0
    7.4240   -2.9650   18.6610 C   0  0  0  0  0  0  0  0  0  0  0  0
    5.4890   -3.9150   19.6450 O   0  0  0  0  0  0  0  0  0  0  0  0
    9.5600   -1.9530   23.8780 C   0  0  1  0  0  0  0  0  0  0  0  0
    8.9160   -1.6640   21.7140 C   0  0  0  0  0  0  0  0  0  0  0  0
    6.8120   -0.2510   21.8010 C   0  0  0  0  0  0  0  0  0  0  0  0
    9.9880   -3.3370   23.6290 C   0  0  0  0  0  0  0  0  0  0  0  0
   10.6120   -0.8650   23.6060 C   0  0  0  0  0  0  0  0  0  0  0  0
    5.3330   -0.2730   21.4080 C   0  0  1  0  0  0  0  0  0  0  0  0
   10.2760    0.3660   24.1670 C   0  0  0  0  0  0  0  0  0  0  0  0
   11.8400   -0.9760   22.8610 C   0  0  0  0  0  0  0  0  0  0  0  0
    9.5080   -4.1130   24.8350 C   0  0  0  0  0  0  0  0  0  0  0  0
    4.4370    0.2790   22.3490 C   0  0  0  0  0  0  0  0  0  0  0  0
    5.3130    0.3590   20.0730 C   0  0  0  0  0  0  0  0  0  0  0  0
   12.3190   -2.2190   22.1900 C   0  0  0  0  0  0  0  0  0  0  0  0
   11.1000    1.6640   24.0730 C   0  0  0  0  0  0  0  0  0  0  0  0
   12.7620    0.2770   22.7200 C   0  0  0  0  0  0  0  0  0  0  0  0
   10.0120   -5.4060   25.3270 C   0  0  0  0  0  0  0  0  0  0  0  0
    8.2330   -3.6330   25.9420 S   0  0  0  0  0  0  0  0  0  0  0  0
    4.2110    1.7860   22.1350 C   0  0  2  0  0  0  0  0  0  0  0  0
    4.4190    1.4820   19.8250 C   0  0  0  0  0  0  0  0  0  0  0  0
    6.1970   -0.1000   18.9480 C   0  0  0  0  0  0  0  0  0  0  0  0
   12.4080    1.6180   23.3180 C   0  0  0  0  0  0  0  0  0  0  0  0
    9.3360   -5.8290   26.5570 C   0  0  0  0  0  0  0  0  0  0  0  0
    8.3650   -4.9970   27.0000 C   0  0  0  0  0  0  0  0  0  0  0  0
    3.4410    2.2430   23.1580 N   0  0  0  0  0  0  0  0  0  0  0  0
    3.5120    1.9770   20.9490 C   0  0  0  0  0  0  0  0  0  0  0  0
    4.4660    2.0070   18.6150 C   0  0  0  0  0  0  0  0  0  0  0  0
    6.1780    0.4960   17.7460 N   0  0  0  0  0  0  0  0  0  0  0  0
    7.3770   -5.1930   28.3860 Cl  0  0  0  0  0  0  0  0  0  0  0  0
    5.3100    1.5260   17.6380 C   0  0  0  0  0  0  0  0  0  0  0  0
  1  2  1  0
  2  3  1  0
  3  4  1  0
  4  5  1  0
  6  5  1  1
  6  7  1  0
  6  8  1  0
  7  8  1  0
  7  9  1  6
 10  9  1  1
 10 11  1  0
 10 12  1  0
 11 13  1  0
 12 14  1  0
 11 15  1  0
 13 16  1  0
 13 17  2  0
 14 18  1  0
 14 19  1  0
 15 19  1  0
 15 20  1  1
 18 21  1  6
 18 22  1  0
 23 20  1  1
 22 24  2  0
 22 25  1  0
 21 26  1  0
 23 27  1  0
 23 28  1  0
 25 29  1  0
 24 30  1  0
 25 31  2  0
 26 32  2  0
 26 33  1  0
 27 34  1  0
 28 35  2  0
 28 36  1  0
 30 37  2  0
 31 37  1  0
 32 38  1  0
 33 39  1  0
 38 39  2  0
 34 40  1  1
 34 41  1  0
 35 41  1  0
 35 42  1  0
 36 43  2  0
 39 44  1  0
 42 45  2  0
 43 45  1  0
M  END
