x1386_1-x1392_0
     RDKit          3D

 19 21  0  0  0  0  0  0  0  0999 V2000
    5.6300   -4.1600   19.8360 O   0  0  0  0  0  0  0  0  0  0  0  0
    6.6020   -3.3870   20.0120 C   0  0  0  0  0  0  0  0  0  0  0  0
    7.4760   -3.0310   18.8380 C   0  0  0  0  0  0  0  0  0  0  0  0
    6.9610   -2.8410   21.2700 N   0  0  0  0  0  0  0  0  0  0  0  0
    8.0470   -1.9730   21.4490 C   0  0  0  0  0  0  0  0  0  0  0  0
    6.4550   -3.3690   22.4850 C   0  0  0  0  0  0  0  0  0  0  0  0
    9.2850   -2.5850   22.1170 C   0  0  2  0  0  0  0  0  0  0  0  0
    7.4850   -3.7440   23.3550 C   0  0  0  0  0  0  0  0  0  0  0  0
    8.8280   -3.4400   23.2810 C   0  0  0  0  0  0  0  0  0  0  0  0
    7.0330   -4.5970   24.5260 C   0  0  0  0  0  0  0  0  0  0  0  0
   10.2920   -1.5460   22.5980 C   0  0  0  0  0  0  0  0  0  0  0  0
    7.9530   -5.0590   25.4950 C   0  0  0  0  0  0  0  0  0  0  0  0
    9.7390   -3.9710   24.3530 C   0  0  0  0  0  0  0  0  0  0  0  0
   11.6030   -1.5750   22.1040 C   0  0  0  0  0  0  0  0  0  0  0  0
    9.9060   -0.4800   23.6090 C   0  0  0  0  0  0  0  0  0  0  0  0
    9.2900   -4.7590   25.4210 C   0  0  0  0  0  0  0  0  0  0  0  0
   12.6300   -0.5460   22.5770 C   0  0  0  0  0  0  0  0  0  0  0  0
   10.8320    0.4550   24.0390 C   0  0  0  0  0  0  0  0  0  0  0  0
   12.1520    0.4910   23.5920 C   0  0  0  0  0  0  0  0  0  0  0  0
  1  2  2  0
  2  3  1  0
  2  4  1  0
  4  5  1  0
  4  6  1  0
  5  7  1  0
  6  8  1  0
  7  9  1  0
  8  9  2  0
  8 10  1  0
  7 11  1  1
 10 12  2  0
  9 13  1  0
 11 14  2  0
 11 15  1  0
 12 16  1  0
 13 16  2  0
 14 17  1  0
 15 18  2  0
 17 19  2  0
 18 19  1  0
M  END
