x1385_1-x0540_3-x0397_0-x0770_1-x0831_0-x0692_1-x1374_1
     RDKit          3D

 31 33  0  0  0  0  0  0  0  0999 V2000
    2.0790   -6.6200   24.0790 O   0  0  0  0  0  0  0  0  0  0  0  0
    3.0190   -7.5260   23.5620 C   0  0  0  0  0  0  0  0  0  0  0  0
    3.9760   -7.8940   24.5450 O   0  0  0  0  0  0  0  0  0  0  0  0
    5.2680   -7.4030   24.1980 C   0  0  0  0  0  0  0  0  0  0  0  0
    5.2960   -6.0940   24.2470 C   0  0  0  0  0  0  0  0  0  0  0  0
    6.0810   -5.4410   23.1730 C   0  0  2  0  0  0  0  0  0  0  0  0
    5.6570   -4.4910   22.4370 C   0  0  2  0  0  0  0  0  0  0  0  0
    6.1240   -5.8290   21.7770 C   0  0  0  0  0  0  0  0  0  0  0  0
    6.4040   -3.1970   22.4230 C   0  0  1  0  0  0  0  0  0  0  0  0
    7.7590   -3.3030   23.1690 C   0  0  0  0  0  0  0  0  0  0  0  0
    6.5050   -2.5240   21.1160 N   0  0  0  0  0  0  0  0  0  0  0  0
    6.3350   -3.2540   19.9330 C   0  0  0  0  0  0  0  0  0  0  0  0
    8.6340   -2.1390   22.9740 N   0  0  0  0  0  0  0  0  0  0  0  0
    7.4170   -1.3430   21.1270 C   0  0  1  0  0  0  0  0  0  0  0  0
    7.3060   -2.9690   18.7980 C   0  0  0  0  0  0  0  0  0  0  0  0
    5.4570   -4.1210   19.7600 O   0  0  0  0  0  0  0  0  0  0  0  0
    6.8370   -0.2480   22.0490 C   0  0  0  0  0  0  0  0  0  0  0  0
    9.9440   -2.2670   23.6040 C   0  0  0  0  0  0  0  0  0  0  0  0
    8.6660   -1.7500   21.5590 C   0  0  0  0  0  0  0  0  0  0  0  0
    5.4250    0.2830   21.7160 C   0  0  0  0  0  0  0  0  0  0  0  0
   10.7400   -0.9870   23.5750 C   0  0  0  0  0  0  0  0  0  0  0  0
    5.2540    1.5910   22.5080 C   0  0  0  0  0  0  0  0  0  0  0  0
   10.1880    0.1570   24.1480 C   0  0  0  0  0  0  0  0  0  0  0  0
   12.1500   -0.9410   22.8950 C   0  0  0  0  0  0  0  0  0  0  0  0
    3.9380    2.2270   22.3370 N   0  0  0  0  0  0  0  0  0  0  0  0
   12.7860   -2.1390   22.2540 C   0  0  0  0  0  0  0  0  0  0  0  0
   10.9150    1.4950   24.1330 C   0  0  0  0  0  0  0  0  0  0  0  0
   12.8010    0.2150   22.8830 C   0  0  0  0  0  0  0  0  0  0  0  0
    2.9250    2.2450   23.4210 C   0  0  0  0  0  0  0  0  0  0  0  0
   12.2770    1.4530   23.4570 C   0  0  0  0  0  0  0  0  0  0  0  0
    2.9310    1.5110   24.4050 O   0  0  0  0  0  0  0  0  0  0  0  0
  1  2  1  0
  2  3  1  0
  3  4  1  0
  4  5  1  0
  6  5  1  1
  6  7  1  0
  6  8  1  0
  7  8  1  6
  7  9  1  0
  9 10  1  6
  9 11  1  0
 11 12  1  0
 10 13  1  0
 11 14  1  0
 12 15  1  0
 12 16  2  0
 14 17  1  1
 13 18  1  0
 13 19  1  0
 14 19  1  0
 17 20  1  0
 18 21  1  0
 20 22  1  0
 21 23  2  0
 21 24  1  0
 22 25  1  0
 24 26  1  0
 23 27  1  0
 24 28  2  0
 25 29  1  0
 27 30  2  0
 28 30  1  0
 29 31  2  0
M  END
