x1385_1-x1418_1-x1386_1-x1334_1-x0831_1-x1334_0-x0692_1-x0770_1-x0434_2-x1375_1-x0397_0-x0831_0-x1412_1-x0540_3
     RDKit          3D

 43 47  0  0  0  0  0  0  0  0999 V2000
    2.4980   -7.5930   23.3270 O   0  0  0  0  0  0  0  0  0  0  0  0
    3.1140   -7.3840   24.5720 C   0  0  0  0  0  0  0  0  0  0  0  0
    4.5000   -7.4600   24.3500 O   0  0  0  0  0  0  0  0  0  0  0  0
    5.0590   -6.1360   24.5350 C   0  0  0  0  0  0  0  0  0  0  0  0
    5.9150   -5.5740   23.3990 C   0  0  2  0  0  0  0  0  0  0  0  0
    5.4460   -4.7500   22.4760 C   0  0  2  0  0  0  0  0  0  0  0  0
    6.1980   -6.2030   22.1550 C   0  0  0  0  0  0  0  0  0  0  0  0
    5.9280   -3.2700   22.4700 C   0  0  1  0  0  0  0  0  0  0  0  0
    6.8750   -2.9130   23.6900 C   0  0  0  0  0  0  0  0  0  0  0  0
    6.5820   -2.8730   21.2540 N   0  0  0  0  0  0  0  0  0  0  0  0
    6.3260   -3.3450   19.9720 C   0  0  0  0  0  0  0  0  0  0  0  0
    8.2220   -2.3700   23.3390 N   0  0  0  0  0  0  0  0  0  0  0  0
    7.0770   -1.5100   21.4460 C   0  0  1  0  0  0  0  0  0  0  0  0
    7.3340   -2.9900   18.8860 C   0  0  0  0  0  0  0  0  0  0  0  0
    5.3570   -4.0630   19.7060 O   0  0  0  0  0  0  0  0  0  0  0  0
    6.1690   -0.5930   22.3290 C   0  0  0  0  0  0  0  0  0  0  0  0
    9.2400   -3.3840   23.5500 C   0  0  1  0  0  0  0  0  0  0  0  0
    8.3440   -1.6410   22.0520 C   0  0  0  0  0  0  0  0  0  0  0  0
    5.1430    0.3580   21.6500 C   0  0  1  0  0  0  0  0  0  0  0  0
   10.6130   -2.8320   23.1870 C   0  0  0  0  0  0  0  0  0  0  0  0
    9.0360   -4.1910   24.8660 C   0  0  0  0  0  0  0  0  0  0  0  0
    5.3120    1.6190   22.5090 C   0  0  0  0  0  0  0  0  0  0  0  0
    9.7290   -5.4080   25.1580 C   0  0  0  0  0  0  0  0  0  0  0  0
    7.9650   -3.7770   26.1040 S   0  0  0  0  0  0  0  0  0  0  0  0
   10.9950   -1.3320   23.3530 C   0  0  0  0  0  0  0  0  0  0  0  0
    5.4900    0.5010   20.3730 C   0  0  0  0  0  0  0  0  0  0  0  0
    4.1050    2.4590   22.5330 N   0  0  0  0  0  0  0  0  0  0  0  0
    9.4210   -5.9980   26.3030 C   0  0  0  0  0  0  0  0  0  0  0  0
    8.3920   -5.1870   26.9880 C   0  0  0  0  0  0  0  0  0  0  0  0
   10.1700   -0.5130   24.1410 C   0  0  0  0  0  0  0  0  0  0  0  0
   12.0970   -0.8470   22.7690 C   0  0  0  0  0  0  0  0  0  0  0  0
    6.6110   -0.0880   19.9040 C   0  0  0  0  0  0  0  0  0  0  0  0
    4.6950    1.3010   19.3820 C   0  0  0  0  0  0  0  0  0  0  0  0
    2.9530    2.1360   23.3870 C   0  0  0  0  0  0  0  0  0  0  0  0
    7.6280   -5.5010   28.4780 Cl  0  0  0  0  0  0  0  0  0  0  0  0
   12.9570   -1.7450   21.9330 C   0  0  0  0  0  0  0  0  0  0  0  0
   10.4810    0.8530   24.3370 C   0  0  0  0  0  0  0  0  0  0  0  0
   12.4650    0.4650   22.9190 C   0  0  0  0  0  0  0  0  0  0  0  0
    6.9950    0.0280   18.6180 C   0  0  0  0  0  0  0  0  0  0  0  0
    5.2350    1.3560   17.9840 C   0  0  0  0  0  0  0  0  0  0  0  0
    2.9860    1.4530   24.4050 O   0  0  0  0  0  0  0  0  0  0  0  0
   11.6160    1.4030   23.7510 C   0  0  0  0  0  0  0  0  0  0  0  0
    6.3520    0.7270   17.6430 N   0  0  0  0  0  0  0  0  0  0  0  0
  1  2  1  0
  2  3  1  0
  3  4  1  0
  5  4  1  1
  5  6  1  0
  5  7  1  0
  6  7  1  6
  6  8  1  0
  8  9  1  1
  8 10  1  0
 10 11  1  0
  9 12  1  0
 10 13  1  0
 11 14  1  0
 11 15  2  0
 13 16  1  1
 12 17  1  0
 12 18  1  0
 13 18  1  0
 19 16  1  1
 17 20  1  1
 17 21  1  0
 19 22  1  0
 21 23  2  0
 21 24  1  0
 20 25  1  0
 19 26  1  0
 22 27  1  0
 23 28  1  0
 24 29  1  0
 28 29  2  0
 25 30  2  0
 25 31  1  0
 26 32  2  0
 26 33  1  0
 27 34  1  0
 29 35  1  0
 31 36  1  0
 30 37  1  0
 31 38  2  0
 32 39  1  0
 33 40  2  0
 34 41  2  0
 37 42  2  0
 38 42  1  0
 39 43  2  0
 40 43  1  0
M  END
