x1385_1-x0831_0-x0770_1-x1386_1-x1334_1-x0831_1-x0692_1-x1374_1-x0397_0-x1334_0-x1418_1
     RDKit          3D

 32 35  0  0  0  0  0  0  0  0999 V2000
    2.0690   -7.1230   23.6670 O   0  0  0  0  0  0  0  0  0  0  0  0
    2.6510   -7.4020   24.9300 C   0  0  0  0  0  0  0  0  0  0  0  0
    4.0170   -7.7430   24.8010 O   0  0  0  0  0  0  0  0  0  0  0  0
    4.5820   -7.0330   23.7020 C   0  0  0  0  0  0  0  0  0  0  0  0
    5.0950   -5.8320   24.1450 C   0  0  0  0  0  0  0  0  0  0  0  0
    6.0170   -5.2750   23.1000 C   0  0  2  0  0  0  0  0  0  0  0  0
    5.6460   -4.5310   22.1510 C   0  0  2  0  0  0  0  0  0  0  0  0
    6.2280   -5.9750   21.8280 C   0  0  0  0  0  0  0  0  0  0  0  0
    6.4290   -3.2190   22.2260 C   0  0  1  0  0  0  0  0  0  0  0  0
    7.8840   -3.4720   22.6970 C   0  0  0  0  0  0  0  0  0  0  0  0
    6.4300   -2.5120   21.0660 N   0  0  0  0  0  0  0  0  0  0  0  0
    6.3090   -3.2400   19.8830 C   0  0  0  0  0  0  0  0  0  0  0  0
    8.4800   -2.1400   22.9340 N   0  0  0  0  0  0  0  0  0  0  0  0
    7.3540   -1.3640   20.9940 C   0  0  0  0  0  0  0  0  0  0  0  0
    7.3660   -3.0130   18.8000 C   0  0  0  0  0  0  0  0  0  0  0  0
    5.4040   -4.0630   19.7120 O   0  0  0  0  0  0  0  0  0  0  0  0
    9.5760   -2.0090   23.8740 C   0  0  1  0  0  0  0  0  0  0  0  0
    8.6700   -1.5510   21.6540 C   0  0  0  0  0  0  0  0  0  0  0  0
   10.2260   -3.3440   24.0730 C   0  0  0  0  0  0  0  0  0  0  0  0
   10.5770   -0.8510   23.6490 C   0  0  0  0  0  0  0  0  0  0  0  0
   10.1780    0.4320   24.0540 C   0  0  0  0  0  0  0  0  0  0  0  0
   11.8860   -0.9540   23.0680 C   0  0  0  0  0  0  0  0  0  0  0  0
    9.5920   -4.2080   25.1330 C   0  0  0  0  0  0  0  0  0  0  0  0
   12.4860   -2.2280   22.5660 C   0  0  0  0  0  0  0  0  0  0  0  0
   10.9830    1.5540   23.9220 C   0  0  0  0  0  0  0  0  0  0  0  0
   12.6630    0.2060   22.9570 C   0  0  0  0  0  0  0  0  0  0  0  0
    9.9520   -5.4900   25.4330 C   0  0  0  0  0  0  0  0  0  0  0  0
    8.2950   -3.7320   26.1680 S   0  0  0  0  0  0  0  0  0  0  0  0
   12.2330    1.4450   23.3720 C   0  0  0  0  0  0  0  0  0  0  0  0
    9.2480   -6.0520   26.4450 C   0  0  0  0  0  0  0  0  0  0  0  0
    8.2800   -5.2330   26.9950 C   0  0  0  0  0  0  0  0  0  0  0  0
    7.2050   -5.5770   28.2810 Cl  0  0  0  0  0  0  0  0  0  0  0  0
  1  2  1  0
  2  3  1  0
  3  4  1  0
  4  5  1  0
  6  5  1  1
  6  7  1  0
  6  8  1  0
  7  8  1  6
  7  9  1  0
  9 10  1  6
  9 11  1  0
 11 12  1  0
 10 13  1  0
 11 14  1  0
 12 15  1  0
 12 16  2  0
 13 17  1  0
 13 18  1  0
 14 18  1  0
 17 19  1  6
 17 20  1  0
 20 21  2  0
 20 22  1  0
 19 23  1  0
 22 24  1  0
 21 25  1  0
 22 26  2  0
 23 27  2  0
 23 28  1  0
 25 29  2  0
 26 29  1  0
 27 30  1  0
 28 31  1  0
 30 31  2  0
 31 32  1  0
M  END
