x1385_1-x1334_0-x0831_0-x0770_1-x0434_2-x0397_0-x0426_1-x1412_1-x1374_1-x1418_1-x1334_1-x0692_1-x0831_1
     RDKit          3D

 44 49  0  0  0  0  0  0  0  0999 V2000
    1.7100   -6.7480   24.3270 O   0  0  0  0  0  0  0  0  0  0  0  0
    2.4490   -7.7150   23.6100 C   0  0  0  0  0  0  0  0  0  0  0  0
    3.6010   -7.9700   24.3910 O   0  0  0  0  0  0  0  0  0  0  0  0
    4.6580   -7.0750   24.1010 C   0  0  0  0  0  0  0  0  0  0  0  0
    4.2840   -6.0850   23.3060 C   0  0  0  0  0  0  0  0  0  0  0  0
    5.5770   -5.5300   22.7790 C   0  0  2  0  0  0  0  0  0  0  0  0
    5.5460   -4.4260   22.0660 C   0  0  2  0  0  0  0  0  0  0  0  0
    6.0510   -5.9330   21.6380 C   0  0  0  0  0  0  0  0  0  0  0  0
    6.4610   -3.2560   22.3710 C   0  0  1  0  0  0  0  0  0  0  0  0
    7.8010   -3.7580   22.8780 C   0  0  0  0  0  0  0  0  0  0  0  0
    6.8340   -2.2830   21.2430 C   0  0  1  0  0  0  0  0  0  0  0  0
    6.5400   -3.1250   19.8880 C   0  0  0  0  0  0  0  0  0  0  0  0
    6.0000   -0.9360   21.3340 C   0  0  2  0  0  0  0  0  0  0  0  0
    8.6080   -2.6630   23.4370 N   0  0  0  0  0  0  0  0  0  0  0  0
    8.2130   -1.9620   21.2720 C   0  0  0  0  0  0  0  0  0  0  0  0
    7.4920   -2.9490   18.7010 C   0  0  0  0  0  0  0  0  0  0  0  0
    5.6070   -3.9550   19.7550 O   0  0  0  0  0  0  0  0  0  0  0  0
    4.8580   -0.9080   22.3840 C   0  0  0  0  0  0  0  0  0  0  0  0
    9.8280   -3.1980   24.0400 C   0  0  1  0  0  0  0  0  0  0  0  0
    8.7730   -1.5560   22.4660 C   0  0  0  0  0  0  0  0  0  0  0  0
    5.7090   -0.0620   20.0910 C   0  0  0  0  0  0  0  0  0  0  0  0
    4.7300    0.3780   23.2740 C   0  0  0  0  0  0  0  0  0  0  0  0
   10.6260   -2.1620   24.8390 C   0  0  0  0  0  0  0  0  0  0  0  0
    4.6660    0.9020   19.9920 C   0  0  0  0  0  0  0  0  0  0  0  0
    6.5200   -0.1980   18.9640 C   0  0  0  0  0  0  0  0  0  0  0  0
    9.3730   -4.1870   25.0970 C   0  0  0  0  0  0  0  0  0  0  0  0
    4.3370    1.6040   22.4090 C   0  0  1  0  0  0  0  0  0  0  0  0
    3.6780    1.2210   21.0880 C   0  0  0  0  0  0  0  0  0  0  0  0
    4.5640    1.6100   18.7630 C   0  0  0  0  0  0  0  0  0  0  0  0
    6.4360    0.4660   17.7910 N   0  0  0  0  0  0  0  0  0  0  0  0
    9.8420   -5.4580   25.3240 C   0  0  0  0  0  0  0  0  0  0  0  0
    8.0740   -3.8270   26.3300 S   0  0  0  0  0  0  0  0  0  0  0  0
   11.1630   -0.8980   24.1930 C   0  0  0  0  0  0  0  0  0  0  0  0
    3.4270    2.4510   23.1670 N   0  0  0  0  0  0  0  0  0  0  0  0
    5.4420    1.3500   17.7570 C   0  0  0  0  0  0  0  0  0  0  0  0
    9.2480   -6.0940   26.3800 C   0  0  0  0  0  0  0  0  0  0  0  0
    8.2770   -5.3600   27.0320 C   0  0  0  0  0  0  0  0  0  0  0  0
   10.5650    0.2940   24.5280 C   0  0  0  0  0  0  0  0  0  0  0  0
   12.2370   -0.8850   23.3030 C   0  0  0  0  0  0  0  0  0  0  0  0
    7.3290   -5.8190   28.3790 Cl  0  0  0  0  0  0  0  0  0  0  0  0
   12.9610   -2.1180   22.8490 C   0  0  0  0  0  0  0  0  0  0  0  0
   10.9880    1.5180   24.0310 C   0  0  0  0  0  0  0  0  0  0  0  0
   12.6660    0.3220   22.8150 C   0  0  0  0  0  0  0  0  0  0  0  0
   12.1050    1.5420   23.1290 C   0  0  0  0  0  0  0  0  0  0  0  0
  1  2  1  0
  2  3  1  0
  3  4  1  0
  4  5  1  0
  6  5  1  6
  6  7  1  0
  6  8  1  0
  7  8  1  6
  7  9  1  0
  9 10  1  6
  9 11  1  0
 11 12  1  6
 11 13  1  0
 10 14  1  0
 11 15  1  0
 12 16  1  0
 12 17  2  0
 13 18  1  6
 14 19  1  0
 14 20  1  0
 15 20  1  0
 13 21  1  0
 18 22  1  0
 19 23  1  1
 21 24  2  0
 21 25  1  0
 19 26  1  0
 22 27  1  0
 24 28  1  0
 27 28  1  0
 24 29  1  0
 25 30  2  0
 26 31  2  0
 26 32  1  0
 23 33  1  0
 27 34  1  1
 29 35  2  0
 30 35  1  0
 31 36  1  0
 32 37  1  0
 36 37  2  0
 33 38  2  0
 33 39  1  0
 37 40  1  0
 39 41  1  0
 38 42  1  0
 39 43  2  0
 42 44  2  0
 43 44  1  0
M  END
