x1385_1-x0692_1-x0434_2-x0831_0-x1374_1-x0831_1-x1334_1-x0397_0-x1412_1-x0426_1-x1418_1-x0770_1-x1334_0
     RDKit          3D

 44 49  0  0  0  0  0  0  0  0999 V2000
    2.2060   -7.8220   23.2960 O   0  0  0  0  0  0  0  0  0  0  0  0
    2.5360   -7.9960   24.6540 C   0  0  0  0  0  0  0  0  0  0  0  0
    3.9370   -7.9550   24.7900 O   0  0  0  0  0  0  0  0  0  0  0  0
    4.4790   -7.1710   23.7360 C   0  0  0  0  0  0  0  0  0  0  0  0
    4.9380   -5.9690   24.2230 C   0  0  0  0  0  0  0  0  0  0  0  0
    5.9870   -5.4460   23.2950 C   0  0  2  0  0  0  0  0  0  0  0  0
    5.7270   -4.3840   22.4200 C   0  0  2  0  0  0  0  0  0  0  0  0
    6.2780   -5.8360   21.9300 C   0  0  0  0  0  0  0  0  0  0  0  0
    6.4590   -3.0430   22.5240 C   0  0  1  0  0  0  0  0  0  0  0  0
    7.7330   -3.2830   23.3160 C   0  0  0  0  0  0  0  0  0  0  0  0
    6.6150   -2.2450   21.1850 C   0  0  1  0  0  0  0  0  0  0  0  0
    6.4220   -3.0890   19.8600 C   0  0  0  0  0  0  0  0  0  0  0  0
    5.8490   -0.9380   21.3090 C   0  0  2  0  0  0  0  0  0  0  0  0
    8.5400   -2.0570   23.1530 N   0  0  0  0  0  0  0  0  0  0  0  0
    8.0040   -1.5370   21.0240 C   0  0  0  0  0  0  0  0  0  0  0  0
    7.3970   -2.9540   18.7040 C   0  0  0  0  0  0  0  0  0  0  0  0
    5.5170   -3.9460   19.7210 O   0  0  0  0  0  0  0  0  0  0  0  0
    4.7580   -0.8310   22.3740 C   0  0  0  0  0  0  0  0  0  0  0  0
    9.5450   -1.9500   24.1830 C   0  0  1  0  0  0  0  0  0  0  0  0
    9.0620   -1.9640   21.8020 C   0  0  0  0  0  0  0  0  0  0  0  0
    5.5750   -0.0490   20.1020 C   0  0  0  0  0  0  0  0  0  0  0  0
    4.7870    0.4970   23.0740 C   0  0  0  0  0  0  0  0  0  0  0  0
   10.3220   -3.2010   24.3620 C   0  0  0  0  0  0  0  0  0  0  0  0
    4.5190    0.8790   19.9690 C   0  0  0  0  0  0  0  0  0  0  0  0
    6.4270   -0.1410   19.0470 C   0  0  0  0  0  0  0  0  0  0  0  0
   10.6040   -0.8820   23.8220 C   0  0  0  0  0  0  0  0  0  0  0  0
    3.7770    1.4780   22.4580 C   0  0  2  0  0  0  0  0  0  0  0  0
    3.4370    1.1620   20.9740 C   0  0  0  0  0  0  0  0  0  0  0  0
    4.5070    1.6200   18.6740 C   0  0  0  0  0  0  0  0  0  0  0  0
    6.3980    0.5420   17.8700 N   0  0  0  0  0  0  0  0  0  0  0  0
   10.1940    0.4670   24.2810 C   0  0  0  0  0  0  0  0  0  0  0  0
   11.9700   -0.9680   23.0830 C   0  0  0  0  0  0  0  0  0  0  0  0
    9.6790   -4.1610   25.3230 C   0  0  0  0  0  0  0  0  0  0  0  0
    4.1920    2.8420   22.6730 N   0  0  0  0  0  0  0  0  0  0  0  0
   12.6330   -2.1780   22.5010 C   0  0  0  0  0  0  0  0  0  0  0  0
    5.4050    1.4220   17.7390 C   0  0  0  0  0  0  0  0  0  0  0  0
   11.0250    1.6920   24.0560 C   0  0  0  0  0  0  0  0  0  0  0  0
   12.8080    0.3120   22.8770 C   0  0  0  0  0  0  0  0  0  0  0  0
    9.9870   -5.4570   25.5380 C   0  0  0  0  0  0  0  0  0  0  0  0
    8.3400   -3.7880   26.4180 S   0  0  0  0  0  0  0  0  0  0  0  0
   12.3660    1.5140   23.3220 C   0  0  0  0  0  0  0  0  0  0  0  0
    9.2770   -6.1310   26.4830 C   0  0  0  0  0  0  0  0  0  0  0  0
    8.3260   -5.3580   27.0760 C   0  0  0  0  0  0  0  0  0  0  0  0
    7.2220   -5.7970   28.3090 Cl  0  0  0  0  0  0  0  0  0  0  0  0
  1  2  1  0
  2  3  1  0
  3  4  1  0
  4  5  1  0
  6  5  1  6
  6  7  1  0
  6  8  1  0
  7  8  1  6
  7  9  1  0
  9 10  1  6
  9 11  1  0
 11 12  1  6
 11 13  1  0
 10 14  1  0
 11 15  1  0
 12 16  1  0
 12 17  2  0
 13 18  1  6
 14 19  1  0
 14 20  1  0
 15 20  1  0
 13 21  1  0
 18 22  1  0
 19 23  1  6
 21 24  2  0
 21 25  1  0
 19 26  1  0
 22 27  1  0
 24 28  1  0
 27 28  1  0
 24 29  1  0
 25 30  2  0
 26 31  2  0
 26 32  1  0
 23 33  1  0
 27 34  1  6
 32 35  1  0
 29 36  2  0
 30 36  1  0
 31 37  1  0
 32 38  2  0
 33 39  2  0
 33 40  1  0
 37 41  2  0
 38 41  1  0
 39 42  1  0
 40 43  1  0
 42 43  2  0
 43 44  1  0
M  END
