x1385_1-x0736_1-x1412_0
     RDKit          3D

 16 17  0  0  0  0  0  0  0  0999 V2000
    6.3480   -3.2570   19.8690 C   0  0  0  0  0  0  0  0  0  0  0  0
    7.3150   -2.9560   18.7430 C   0  0  0  0  0  0  0  0  0  0  0  0
    5.3920   -4.0260   19.7000 O   0  0  0  0  0  0  0  0  0  0  0  0
    6.6010   -2.6610   21.1100 N   0  0  0  0  0  0  0  0  0  0  0  0
    6.1930   -3.4520   22.2680 C   0  0  0  0  0  0  0  0  0  0  0  0
    7.6400   -1.6320   21.3710 C   0  0  0  0  0  0  0  0  0  0  0  0
    7.4060   -3.9720   23.0210 C   0  0  0  0  0  0  0  0  0  0  0  0
    8.7120   -2.0370   22.1940 C   0  0  0  0  0  0  0  0  0  0  0  0
    8.3100   -2.8780   23.3400 N   0  0  0  0  0  0  0  0  0  0  0  0
    8.4320   -2.5560   24.7650 C   0  0  0  0  0  0  0  0  0  0  0  0
    8.4280   -1.3880   25.1620 O   0  0  0  0  0  0  0  0  0  0  0  0
    8.5540   -3.6980   25.6580 C   0  0  0  0  0  0  0  0  0  0  0  0
    9.4360   -4.9210   25.4790 C   0  0  0  0  0  0  0  0  0  0  0  0
    7.6590   -3.8040   27.1220 S   0  0  0  0  0  0  0  0  0  0  0  0
    9.3080   -5.8400   26.5400 C   0  0  0  0  0  0  0  0  0  0  0  0
    8.3240   -5.3310   27.5620 C   0  0  0  0  0  0  0  0  0  0  0  0
  1  2  1  0
  1  3  2  0
  1  4  1  0
  4  5  1  0
  4  6  1  0
  5  7  1  0
  6  8  1  0
  7  9  1  0
  8  9  1  0
  9 10  1  0
 10 11  2  0
 10 12  1  0
 12 13  2  0
 12 14  1  0
 13 15  1  0
 14 16  1  0
 15 16  2  0
M  END
