x1385_1-x1334_1-x0434_2-x0831_1-x0770_1-x0397_0-x0692_1-x1386_1-x1334_0-x1418_1-x0831_0-x1412_1
     RDKit          3D

 35 39  0  0  0  0  0  0  0  0999 V2000
    6.4290   -3.2800   20.0010 C   0  0  0  0  0  0  0  0  0  0  0  0
    7.3960   -2.9860   18.8660 C   0  0  0  0  0  0  0  0  0  0  0  0
    5.4930   -4.0830   19.7640 O   0  0  0  0  0  0  0  0  0  0  0  0
    6.6050   -2.6810   21.2870 N   0  0  0  0  0  0  0  0  0  0  0  0
    6.3650   -3.4990   22.4700 C   0  0  2  0  0  0  0  0  0  0  0  0
    7.4060   -1.4780   21.6590 C   0  0  1  0  0  0  0  0  0  0  0  0
    7.0080   -2.9770   23.5540 C   0  0  0  0  0  0  0  0  0  0  0  0
    8.7390   -1.9430   22.1600 C   0  0  0  0  0  0  0  0  0  0  0  0
    6.7470   -4.9110   22.1940 C   0  0  0  0  0  0  0  0  0  0  0  0
    7.4690   -0.3780   20.6190 C   0  0  0  0  0  0  0  0  0  0  0  0
    8.4550   -2.5860   23.4190 N   0  0  0  0  0  0  0  0  0  0  0  0
    6.6740   -5.8790   23.2630 C   0  0  0  0  0  0  0  0  0  0  0  0
    5.7340   -6.2250   22.2130 C   0  0  0  0  0  0  0  0  0  0  0  0
    7.1850   -0.9410   19.2350 C   0  0  0  0  0  0  0  0  0  0  0  0
    9.4120   -3.4420   23.8450 C   0  0  1  0  0  0  0  0  0  0  0  0
    6.6940    0.0890   18.3590 C   0  0  0  0  0  0  0  0  0  0  0  0
   10.7750   -2.8210   24.1300 C   0  0  0  0  0  0  0  0  0  0  0  0
    9.0420   -4.2560   25.0830 C   0  0  0  0  0  0  0  0  0  0  0  0
    5.8670   -0.0530   19.5220 C   0  0  0  0  0  0  0  0  0  0  0  0
    6.0530    1.0840   17.7060 N   0  0  0  0  0  0  0  0  0  0  0  0
    9.6900   -5.4520   25.3190 C   0  0  0  0  0  0  0  0  0  0  0  0
    7.8660   -3.8960   26.3110 S   0  0  0  0  0  0  0  0  0  0  0  0
   11.0840   -1.3540   23.9170 C   0  0  0  0  0  0  0  0  0  0  0  0
    4.9510    1.8070   17.9670 C   0  0  0  0  0  0  0  0  0  0  0  0
    4.7250    0.6200   19.9090 C   0  0  0  0  0  0  0  0  0  0  0  0
    9.2870   -6.1000   26.4370 C   0  0  0  0  0  0  0  0  0  0  0  0
    8.1950   -5.3360   27.1680 C   0  0  0  0  0  0  0  0  0  0  0  0
   10.3330   -0.3620   24.4970 C   0  0  0  0  0  0  0  0  0  0  0  0
   12.2520   -0.8390   23.0610 C   0  0  0  0  0  0  0  0  0  0  0  0
    4.1780    1.6710   19.0630 C   0  0  0  0  0  0  0  0  0  0  0  0
    7.3500   -5.7300   28.5980 Cl  0  0  0  0  0  0  0  0  0  0  0  0
   13.1380   -1.8050   22.3530 C   0  0  0  0  0  0  0  0  0  0  0  0
   10.5990    1.1740   24.3400 C   0  0  0  0  0  0  0  0  0  0  0  0
   12.5980    0.4570   22.8570 C   0  0  0  0  0  0  0  0  0  0  0  0
   11.7190    1.5500   23.5370 C   0  0  0  0  0  0  0  0  0  0  0  0
  1  2  1  0
  1  3  2  0
  1  4  1  0
  4  5  1  0
  4  6  1  0
  5  7  1  0
  6  8  1  0
  5  9  1  6
  6 10  1  6
  7 11  1  0
  8 11  1  0
  9 12  1  0
  9 13  1  0
 12 13  1  0
 10 14  1  0
 11 15  1  0
 14 16  1  0
 15 17  1  1
 15 18  1  0
 16 19  2  0
 16 20  1  0
 18 21  2  0
 18 22  1  0
 17 23  1  0
 20 24  2  0
 19 25  1  0
 21 26  1  0
 22 27  1  0
 26 27  2  0
 23 28  2  0
 23 29  1  0
 24 30  1  0
 25 30  2  0
 27 31  1  0
 29 32  1  0
 28 33  1  0
 29 34  2  0
 33 35  2  0
 34 35  1  0
M  END
