x1386_1-x0769_1
     RDKit          3D

 21 22  0  0  0  0  0  0  0  0999 V2000
    6.3970   -3.1520   19.8850 C   0  0  0  0  0  0  0  0  0  0  0  0
    7.3220   -2.9180   18.7010 C   0  0  0  0  0  0  0  0  0  0  0  0
    5.5170   -4.0300   19.7440 O   0  0  0  0  0  0  0  0  0  0  0  0
    6.5910   -2.3950   21.0530 N   0  0  0  0  0  0  0  0  0  0  0  0
    7.5900   -1.2920   21.0320 C   0  0  0  0  0  0  0  0  0  0  0  0
    6.4860   -3.1690   22.3180 C   0  0  2  0  0  0  0  0  0  0  0  0
    5.7900   -2.4560   23.4730 C   0  0  0  0  0  0  0  0  0  0  0  0
    8.8280   -1.6720   21.6590 C   0  0  0  0  0  0  0  0  0  0  0  0
    7.8740   -3.5350   22.7940 C   0  0  0  0  0  0  0  0  0  0  0  0
    6.3690   -2.7910   24.7200 C   0  0  0  0  0  0  0  0  0  0  0  0
    8.7020   -2.3400   22.9560 N   0  0  0  0  0  0  0  0  0  0  0  0
    5.6360   -2.2720   25.8370 O   0  0  0  0  0  0  0  0  0  0  0  0
    4.2880   -2.4690   25.8820 C   0  0  0  0  0  0  0  0  0  0  0  0
    3.7640   -3.9270   25.8300 C   0  0  0  0  0  0  0  0  0  0  0  0
    3.2940   -1.2910   25.9830 C   0  0  0  0  0  0  0  0  0  0  0  0
    4.7990   -5.2930   25.7280 S   0  0  0  0  0  0  0  0  0  0  0  0
    2.2510   -4.0570   25.8770 C   0  0  0  0  0  0  0  0  0  0  0  0
    1.9260   -1.5660   26.0240 C   0  0  0  0  0  0  0  0  0  0  0  0
    5.8250   -5.1980   26.7440 O   0  0  0  0  0  0  0  0  0  0  0  0
    4.0070   -6.4990   25.7660 O   0  0  0  0  0  0  0  0  0  0  0  0
    1.3740   -2.9980   25.9670 C   0  0  0  0  0  0  0  0  0  0  0  0
  1  2  1  0
  1  3  2  0
  1  4  1  0
  4  5  1  0
  4  6  1  0
  6  7  1  1
  5  8  1  0
  6  9  1  0
  7 10  1  0
  8 11  1  0
  9 11  1  0
 10 12  1  0
 12 13  1  0
 13 14  2  0
 13 15  1  0
 14 16  1  0
 14 17  1  0
 15 18  2  0
 16 19  2  0
 16 20  2  0
 17 21  2  0
 18 21  1  0
M  END
