x1386_1-x1385_1-x1374_1-x0770_1-x1334_0-x0831_1-x1334_1-x1412_1-x0831_0-x0692_1-x0434_2-x0397_0
     RDKit          3D

 40 44  0  0  0  0  0  0  0  0999 V2000
    6.2870   -3.1990   19.9090 C   0  0  0  0  0  0  0  0  0  0  0  0
    7.3460   -2.9620   18.8220 C   0  0  0  0  0  0  0  0  0  0  0  0
    5.4560   -4.1090   19.7760 O   0  0  0  0  0  0  0  0  0  0  0  0
    6.3120   -2.3200   21.0380 N   0  0  0  0  0  0  0  0  0  0  0  0
    7.2580   -1.2360   21.2090 C   0  0  1  0  0  0  0  0  0  0  0  0
    5.8800   -2.6860   22.3940 C   0  0  2  0  0  0  0  0  0  0  0  0
    8.5560   -1.6490   21.9180 C   0  0  0  0  0  0  0  0  0  0  0  0
    7.1040   -3.0900   23.2440 C   0  0  0  0  0  0  0  0  0  0  0  0
    4.7070   -3.6160   22.6570 C   0  0  0  0  0  0  0  0  0  0  0  0
    7.6680   -0.4700   20.0160 C   0  0  0  0  0  0  0  0  0  0  0  0
    8.3070   -2.2860   23.1970 N   0  0  0  0  0  0  0  0  0  0  0  0
    5.0580   -5.0740   22.6290 C   0  0  2  0  0  0  0  0  0  0  0  0
    6.9770   -0.0170   18.8930 C   0  0  0  0  0  0  0  0  0  0  0  0
    9.3210   -3.2290   23.5290 C   0  0  1  0  0  0  0  0  0  0  0  0
    6.0980   -5.2710   23.3770 C   0  0  2  0  0  0  0  0  0  0  0  0
    6.3530   -5.6580   21.9890 C   0  0  0  0  0  0  0  0  0  0  0  0
    6.2010    0.4080   20.2110 C   0  0  0  0  0  0  0  0  0  0  0  0
    6.1440    0.5220   17.9480 N   0  0  0  0  0  0  0  0  0  0  0  0
   10.7040   -2.7620   23.1590 C   0  0  0  0  0  0  0  0  0  0  0  0
    9.0650   -4.0020   24.8350 C   0  0  0  0  0  0  0  0  0  0  0  0
    5.0160    1.2160   18.0250 C   0  0  0  0  0  0  0  0  0  0  0  0
    5.0170    1.1240   20.2710 C   0  0  0  0  0  0  0  0  0  0  0  0
    6.0200   -6.3030   24.4540 C   0  0  0  0  0  0  0  0  0  0  0  0
    9.7860   -5.2780   25.1780 C   0  0  0  0  0  0  0  0  0  0  0  0
    7.9320   -3.6090   26.1150 S   0  0  0  0  0  0  0  0  0  0  0  0
   11.0180   -1.2930   23.3750 C   0  0  0  0  0  0  0  0  0  0  0  0
    4.3940    1.5500   19.1720 C   0  0  0  0  0  0  0  0  0  0  0  0
    5.3550   -7.3770   23.8430 C   0  0  0  0  0  0  0  0  0  0  0  0
    9.4440   -5.8170   26.3010 C   0  0  0  0  0  0  0  0  0  0  0  0
    8.3760   -5.0610   27.0510 C   0  0  0  0  0  0  0  0  0  0  0  0
   10.2160   -0.4150   24.1410 C   0  0  0  0  0  0  0  0  0  0  0  0
   12.1820   -0.7960   22.7830 C   0  0  0  0  0  0  0  0  0  0  0  0
    4.4540   -7.9390   24.7810 O   0  0  0  0  0  0  0  0  0  0  0  0
    7.6140   -5.3950   28.5370 Cl  0  0  0  0  0  0  0  0  0  0  0  0
   13.0670   -1.6730   21.9580 C   0  0  0  0  0  0  0  0  0  0  0  0
   10.5940    0.9220   24.2930 C   0  0  0  0  0  0  0  0  0  0  0  0
   12.5470    0.5380   22.9510 C   0  0  0  0  0  0  0  0  0  0  0  0
    3.2800   -7.1680   24.9820 C   0  0  0  0  0  0  0  0  0  0  0  0
   11.7590    1.3940   23.6950 C   0  0  0  0  0  0  0  0  0  0  0  0
    2.5370   -7.0430   23.7810 O   0  0  0  0  0  0  0  0  0  0  0  0
  1  2  1  0
  1  3  2  0
  1  4  1  0
  4  5  1  0
  4  6  1  0
  5  7  1  0
  6  8  1  0
  6  9  1  6
  5 10  1  6
  7 11  1  0
  8 11  1  0
 12  9  1  6
 10 13  1  0
 11 14  1  0
 12 15  1  0
 12 16  1  0
 15 16  1  0
 13 17  2  0
 13 18  1  0
 14 19  1  1
 14 20  1  0
 18 21  2  0
 17 22  1  0
 15 23  1  1
 20 24  2  0
 20 25  1  0
 19 26  1  0
 21 27  1  0
 22 27  2  0
 23 28  1  0
 24 29  1  0
 25 30  1  0
 29 30  2  0
 26 31  2  0
 26 32  1  0
 28 33  1  0
 30 34  1  0
 32 35  1  0
 31 36  1  0
 32 37  2  0
 33 38  1  0
 36 39  2  0
 37 39  1  0
 38 40  1  0
M  END
