x1386_1-x0692_1-x0434_2-x0397_0-x0770_1-x0831_1-x0426_1-x1334_1-x1374_1-x1375_1-x1418_1-x0831_0-x1334_0-x1412_1
     RDKit          3D

 45 50  0  0  0  0  0  0  0  0999 V2000
    2.1750   -6.6690   24.4390 O   0  0  0  0  0  0  0  0  0  0  0  0
    3.1330   -7.4190   23.7310 C   0  0  0  0  0  0  0  0  0  0  0  0
    4.1880   -7.8370   24.5940 O   0  0  0  0  0  0  0  0  0  0  0  0
    5.4620   -7.5180   24.0330 C   0  0  0  0  0  0  0  0  0  0  0  0
    5.8990   -6.2850   24.4440 C   0  0  0  0  0  0  0  0  0  0  0  0
    6.1270   -5.4180   23.2580 C   0  0  2  0  0  0  0  0  0  0  0  0
    5.0540   -4.7480   22.8130 C   0  0  2  0  0  0  0  0  0  0  0  0
    6.0390   -5.8650   22.0740 C   0  0  0  0  0  0  0  0  0  0  0  0
    5.3890   -3.3460   22.8470 C   0  0  0  0  0  0  0  0  0  0  0  0
    6.6490   -3.3350   22.1120 C   0  0  1  0  0  0  0  0  0  0  0  0
    6.5720   -2.4610   20.9670 N   0  0  0  0  0  0  0  0  0  0  0  0
    7.8700   -3.3240   22.7970 C   0  0  0  0  0  0  0  0  0  0  0  0
    6.3880   -3.0820   19.7260 C   0  0  0  0  0  0  0  0  0  0  0  0
    8.5790   -2.0150   22.8800 N   0  0  0  0  0  0  0  0  0  0  0  0
    7.2850   -1.2000   21.0610 C   0  0  2  0  0  0  0  0  0  0  0  0
    7.4360   -2.9290   18.6580 C   0  0  0  0  0  0  0  0  0  0  0  0
    5.3930   -3.8010   19.5390 O   0  0  0  0  0  0  0  0  0  0  0  0
    9.9600   -2.2330   23.1310 C   0  0  2  0  0  0  0  0  0  0  0  0
    8.6880   -1.5080   21.5080 C   0  0  0  0  0  0  0  0  0  0  0  0
    6.6900   -0.2970   22.1420 C   0  0  0  0  0  0  0  0  0  0  0  0
   10.1340   -3.5940   23.7350 C   0  0  0  0  0  0  0  0  0  0  0  0
   10.7590   -0.9360   23.3020 C   0  0  0  0  0  0  0  0  0  0  0  0
    5.3780    0.3410   21.7100 C   0  0  1  0  0  0  0  0  0  0  0  0
   10.2110    0.2650   24.0120 C   0  0  0  0  0  0  0  0  0  0  0  0
   12.0730   -0.8380   22.7400 C   0  0  0  0  0  0  0  0  0  0  0  0
    9.4500   -4.1290   24.9640 C   0  0  0  0  0  0  0  0  0  0  0  0
    5.3210    1.6440   22.2290 C   0  0  0  0  0  0  0  0  0  0  0  0
    5.4510    0.6630   20.2710 C   0  0  0  0  0  0  0  0  0  0  0  0
   12.7360   -1.9570   21.9960 C   0  0  0  0  0  0  0  0  0  0  0  0
   10.9070    1.4980   24.1460 C   0  0  0  0  0  0  0  0  0  0  0  0
   12.8200    0.3020   22.8320 C   0  0  0  0  0  0  0  0  0  0  0  0
    9.9300   -5.2640   25.3870 C   0  0  0  0  0  0  0  0  0  0  0  0
    8.1190   -3.5880   26.0100 S   0  0  0  0  0  0  0  0  0  0  0  0
    4.0970    2.2360   22.1840 C   0  0  2  0  0  0  0  0  0  0  0  0
    4.4800    1.5120   19.8180 C   0  0  0  0  0  0  0  0  0  0  0  0
    6.4220    0.1760   19.3830 C   0  0  0  0  0  0  0  0  0  0  0  0
   12.1710    1.5100   23.5690 C   0  0  0  0  0  0  0  0  0  0  0  0
    9.3080   -5.7650   26.5640 C   0  0  0  0  0  0  0  0  0  0  0  0
    8.2060   -4.9440   27.1040 C   0  0  0  0  0  0  0  0  0  0  0  0
    3.4370    1.8580   23.2970 N   0  0  0  0  0  0  0  0  0  0  0  0
    3.4530    1.9950   20.7850 C   0  0  0  0  0  0  0  0  0  0  0  0
    4.4610    1.8900   18.5560 C   0  0  0  0  0  0  0  0  0  0  0  0
    6.4680    0.5060   18.0750 N   0  0  0  0  0  0  0  0  0  0  0  0
    7.2050   -5.1910   28.4700 Cl  0  0  0  0  0  0  0  0  0  0  0  0
    5.5140    1.3540   17.6740 C   0  0  0  0  0  0  0  0  0  0  0  0
  1  2  1  0
  2  3  1  0
  3  4  1  0
  4  5  1  0
  6  5  1  1
  6  7  1  0
  6  8  1  0
  7  8  1  0
  7  9  1  6
 10  9  1  1
 10 11  1  0
 10 12  1  0
 11 13  1  0
 12 14  1  0
 11 15  1  0
 13 16  1  0
 13 17  2  0
 14 18  1  0
 14 19  1  0
 15 19  1  0
 15 20  1  1
 18 21  1  1
 18 22  1  0
 23 20  1  1
 22 24  2  0
 22 25  1  0
 21 26  1  0
 23 27  1  0
 23 28  1  0
 25 29  1  0
 24 30  1  0
 25 31  2  0
 26 32  2  0
 26 33  1  0
 27 34  1  0
 28 35  2  0
 28 36  1  0
 30 37  2  0
 31 37  1  0
 32 38  1  0
 33 39  1  0
 38 39  2  0
 34 40  1  1
 34 41  1  0
 35 41  1  0
 35 42  1  0
 36 43  2  0
 39 44  1  0
 42 45  2  0
 43 45  1  0
M  END
