x1386_1-x0831_1-x1418_1-x1374_1-x1334_0-x1385_1-x1334_1-x0397_0-x0770_1-x0434_2-x0831_0-x1412_1-x0692_1-x0426_1
     RDKit          3D

 45 50  0  0  0  0  0  0  0  0999 V2000
    2.0740   -7.1920   23.5950 O   0  0  0  0  0  0  0  0  0  0  0  0
    2.5920   -7.5060   24.8760 C   0  0  0  0  0  0  0  0  0  0  0  0
    3.9570   -7.8630   24.8000 O   0  0  0  0  0  0  0  0  0  0  0  0
    4.5740   -7.1270   23.7570 C   0  0  0  0  0  0  0  0  0  0  0  0
    5.0670   -5.9390   24.1980 C   0  0  0  0  0  0  0  0  0  0  0  0
    5.9300   -5.3460   23.1230 C   0  0  2  0  0  0  0  0  0  0  0  0
    5.2720   -5.1260   22.0830 C   0  0  2  0  0  0  0  0  0  0  0  0
    6.5960   -6.0720   22.3510 C   0  0  0  0  0  0  0  0  0  0  0  0
    5.1330   -3.7560   22.0450 C   0  0  0  0  0  0  0  0  0  0  0  0
    6.3180   -2.8210   22.1740 C   0  0  2  0  0  0  0  0  0  0  0  0
    6.6950   -2.2770   20.8780 N   0  0  0  0  0  0  0  0  0  0  0  0
    7.5010   -3.5550   22.9440 C   0  0  0  0  0  0  0  0  0  0  0  0
    6.4740   -3.0900   19.7580 C   0  0  0  0  0  0  0  0  0  0  0  0
    8.4740   -2.5240   23.1310 N   0  0  0  0  0  0  0  0  0  0  0  0
    7.9110   -1.4220   20.9660 C   0  0  2  0  0  0  0  0  0  0  0  0
    7.4630   -2.9700   18.6500 C   0  0  0  0  0  0  0  0  0  0  0  0
    5.5380   -3.9170   19.6470 O   0  0  0  0  0  0  0  0  0  0  0  0
    9.3740   -2.6850   24.1060 C   0  0  2  0  0  0  0  0  0  0  0  0
    9.0080   -2.0910   21.8200 C   0  0  0  0  0  0  0  0  0  0  0  0
    7.6760    0.0160   21.4700 C   0  0  0  0  0  0  0  0  0  0  0  0
   10.7600   -2.5460   23.6080 C   0  0  0  0  0  0  0  0  0  0  0  0
    9.1470   -3.8720   25.1000 C   0  0  0  0  0  0  0  0  0  0  0  0
    6.2630    0.4130   21.9610 C   0  0  1  0  0  0  0  0  0  0  0  0
    9.8080   -5.2190   25.3160 C   0  0  0  0  0  0  0  0  0  0  0  0
    7.8750   -3.8330   26.3620 S   0  0  0  0  0  0  0  0  0  0  0  0
   11.2090   -1.1120   23.5320 C   0  0  0  0  0  0  0  0  0  0  0  0
    5.7480    1.8860   22.1590 C   0  0  0  0  0  0  0  0  0  0  0  0
    5.9280    0.6650   20.4940 C   0  0  0  0  0  0  0  0  0  0  0  0
    9.2800   -5.9490   26.3530 C   0  0  0  0  0  0  0  0  0  0  0  0
    8.2320   -5.3580   27.0350 C   0  0  0  0  0  0  0  0  0  0  0  0
   10.3250    0.0540   24.0390 C   0  0  0  0  0  0  0  0  0  0  0  0
   12.4620   -0.8540   22.9840 C   0  0  0  0  0  0  0  0  0  0  0  0
    4.2480    2.2390   22.2320 C   0  0  2  0  0  0  0  0  0  0  0  0
    4.6510    1.3000   20.1120 C   0  0  0  0  0  0  0  0  0  0  0  0
    6.8030    0.3160   19.4630 C   0  0  0  0  0  0  0  0  0  0  0  0
    7.3360   -5.9410   28.3640 Cl  0  0  0  0  0  0  0  0  0  0  0  0
   13.2810   -1.9810   22.4780 C   0  0  0  0  0  0  0  0  0  0  0  0
   10.8310    1.4950   23.9580 C   0  0  0  0  0  0  0  0  0  0  0  0
   13.0140    0.6210   22.8910 C   0  0  0  0  0  0  0  0  0  0  0  0
    3.7920    1.8600   23.4460 N   0  0  0  0  0  0  0  0  0  0  0  0
    3.6190    1.6920   21.1130 C   0  0  0  0  0  0  0  0  0  0  0  0
    4.4320    1.5370   18.6750 C   0  0  0  0  0  0  0  0  0  0  0  0
    6.5490    0.5450   18.1460 N   0  0  0  0  0  0  0  0  0  0  0  0
   12.0780    1.7380   23.4250 C   0  0  0  0  0  0  0  0  0  0  0  0
    5.3570    1.1670   17.8150 C   0  0  0  0  0  0  0  0  0  0  0  0
  1  2  1  0
  2  3  1  0
  3  4  1  0
  4  5  1  0
  6  5  1  1
  6  7  1  0
  6  8  1  0
  7  8  1  0
  7  9  1  6
 10  9  1  6
 10 11  1  0
 10 12  1  0
 11 13  1  0
 12 14  1  0
 11 15  1  0
 13 16  1  0
 13 17  2  0
 14 18  1  0
 14 19  1  0
 15 19  1  0
 15 20  1  1
 18 21  1  6
 18 22  1  0
 23 20  1  6
 22 24  2  0
 22 25  1  0
 21 26  1  0
 23 27  1  0
 23 28  1  0
 24 29  1  0
 25 30  1  0
 29 30  2  0
 26 31  2  0
 26 32  1  0
 27 33  1  0
 28 34  2  0
 28 35  1  0
 30 36  1  0
 32 37  1  0
 31 38  1  0
 32 39  2  0
 33 40  1  1
 33 41  1  0
 34 41  1  0
 34 42  1  0
 35 43  2  0
 38 44  2  0
 39 44  1  0
 42 45  2  0
 43 45  1  0
M  END
