x1385_1-x0831_1-x0874_0-x0770_1-x1412_0
     RDKit          3D

 23 25  0  0  0  0  0  0  0  0999 V2000
    6.3330   -3.2420   19.8500 C   0  0  0  0  0  0  0  0  0  0  0  0
    7.3720   -2.9810   18.7740 C   0  0  0  0  0  0  0  0  0  0  0  0
    5.3640   -3.9770   19.6280 O   0  0  0  0  0  0  0  0  0  0  0  0
    6.4960   -2.6940   21.1080 N   0  0  0  0  0  0  0  0  0  0  0  0
    6.1260   -3.5010   22.2380 C   0  0  0  0  0  0  0  0  0  0  0  0
    7.5970   -1.7100   21.3180 C   0  0  0  0  0  0  0  0  0  0  0  0
    7.3460   -4.0910   22.9230 C   0  0  0  0  0  0  0  0  0  0  0  0
    8.6350   -2.2780   22.0250 C   0  0  0  0  0  0  0  0  0  0  0  0
    8.1650   -3.0670   23.1840 N   0  0  0  0  0  0  0  0  0  0  0  0
    8.4730   -2.7830   24.5820 C   0  0  0  0  0  0  0  0  0  0  0  0
    8.6720   -1.4280   25.0480 N   0  0  0  0  0  0  0  0  0  0  0  0
    8.6060   -3.9210   25.6250 C   0  0  0  0  0  0  0  0  0  0  0  0
    8.5870   -0.4370   24.0720 C   0  0  0  0  0  0  0  0  0  0  0  0
    9.4450   -5.1290   25.4280 C   0  0  0  0  0  0  0  0  0  0  0  0
    7.7940   -3.9450   27.1780 S   0  0  0  0  0  0  0  0  0  0  0  0
    9.6740    0.4210   23.9580 C   0  0  0  0  0  0  0  0  0  0  0  0
    9.3630   -5.9700   26.5480 C   0  0  0  0  0  0  0  0  0  0  0  0
    8.4550   -5.4300   27.6410 C   0  0  0  0  0  0  0  0  0  0  0  0
   10.9440   -0.0700   23.2900 C   0  0  0  0  0  0  0  0  0  0  0  0
   12.2070    0.8100   23.3420 C   0  0  0  0  0  0  0  0  0  0  0  0
   11.2180   -1.2600   22.5810 C   0  0  0  0  0  0  0  0  0  0  0  0
   13.3140    0.1030   22.6150 C   0  0  0  0  0  0  0  0  0  0  0  0
   12.8410   -1.4080   21.9890 S   0  0  0  0  0  0  0  0  0  0  0  0
  1  2  1  0
  1  3  2  0
  1  4  1  0
  4  5  1  0
  4  6  1  0
  5  7  1  0
  6  8  1  0
  7  9  1  0
  8  9  1  0
  9 10  1  0
 10 11  2  3
 10 12  1  0
 11 13  1  0
 12 14  2  0
 12 15  1  0
 13 16  1  0
 14 17  1  0
 15 18  1  0
 17 18  2  0
 16 19  1  0
 19 20  1  0
 19 21  2  0
 20 22  2  0
 21 23  1  0
 22 23  1  0
M  END
