x1386_1-x1418_0-x1334_1
     RDKit          3D

 15 16  0  0  0  0  0  0  0  0999 V2000
    6.4350   -3.1720   19.8400 C   0  0  0  0  0  0  0  0  0  0  0  0
    7.4080   -2.9650   18.6980 C   0  0  0  0  0  0  0  0  0  0  0  0
    5.5030   -3.9830   19.6930 O   0  0  0  0  0  0  0  0  0  0  0  0
    6.6520   -2.4510   21.0120 N   0  0  0  0  0  0  0  0  0  0  0  0
    7.5990   -1.3370   20.9840 C   0  0  0  0  0  0  0  0  0  0  0  0
    6.5000   -3.0400   22.3450 C   0  0  0  0  0  0  0  0  0  0  0  0
    8.9190   -1.6830   21.7080 C   0  0  0  0  0  0  0  0  0  0  0  0
    7.8400   -3.4550   22.9910 C   0  0  0  0  0  0  0  0  0  0  0  0
    8.8020   -2.3540   23.0070 N   0  0  0  0  0  0  0  0  0  0  0  0
   10.0490   -2.7040   23.4730 C   0  0  0  0  0  0  0  0  0  0  0  0
   11.0450   -1.5870   23.4220 C   0  0  0  0  0  0  0  0  0  0  0  0
   12.1780   -1.4760   22.6140 C   0  0  0  0  0  0  0  0  0  0  0  0
   10.8100   -0.2310   24.4580 S   0  0  0  0  0  0  0  0  0  0  0  0
   12.8850   -0.2670   22.8170 C   0  0  0  0  0  0  0  0  0  0  0  0
   12.1860    0.5700   23.8740 C   0  0  0  0  0  0  0  0  0  0  0  0
  1  2  1  0
  1  3  2  0
  1  4  1  0
  4  5  1  0
  4  6  1  0
  5  7  1  0
  6  8  1  0
  7  9  1  0
  8  9  1  0
  9 10  1  0
 10 11  1  0
 11 12  2  0
 11 13  1  0
 12 14  1  0
 13 15  1  0
 14 15  2  0
M  END
