x1385_1-x0736_1-x1334_1-x1386_0-x1412_0
     RDKit          3D

 22 24  0  0  0  0  0  0  0  0999 V2000
    6.3310   -3.3280   19.8940 C   0  0  0  0  0  0  0  0  0  0  0  0
    7.3610   -3.0010   18.8200 C   0  0  0  0  0  0  0  0  0  0  0  0
    5.3510   -4.0360   19.6760 O   0  0  0  0  0  0  0  0  0  0  0  0
    6.5620   -2.8330   21.1690 N   0  0  0  0  0  0  0  0  0  0  0  0
    6.1110   -3.5370   22.3830 C   0  0  0  0  0  0  0  0  0  0  0  0
    7.5240   -1.7050   21.4210 C   0  0  0  0  0  0  0  0  0  0  0  0
    7.2980   -3.8480   23.3120 C   0  0  0  0  0  0  0  0  0  0  0  0
    8.6100   -2.1640   22.1290 C   0  0  0  0  0  0  0  0  0  0  0  0
    8.1420   -2.6790   23.4240 N   0  0  0  0  0  0  0  0  0  0  0  0
    9.0190   -2.5840   24.5910 C   0  0  2  0  0  0  0  0  0  0  0  0
    8.9510   -1.5500   25.2420 O   0  0  0  0  0  0  0  0  0  0  0  0
   10.4460   -2.7370   24.0660 C   0  0  0  0  0  0  0  0  0  0  0  0
    8.8500   -3.7520   25.5980 C   0  0  0  0  0  0  0  0  0  0  0  0
    9.6730   -4.9030   25.4630 C   0  0  0  0  0  0  0  0  0  0  0  0
    7.7610   -3.9010   26.9760 S   0  0  0  0  0  0  0  0  0  0  0  0
   11.2410   -1.5180   23.7650 C   0  0  0  0  0  0  0  0  0  0  0  0
    9.3030   -5.8180   26.5560 C   0  0  0  0  0  0  0  0  0  0  0  0
    8.3310   -5.4340   27.4170 C   0  0  0  0  0  0  0  0  0  0  0  0
   12.3060   -1.4940   22.8910 C   0  0  0  0  0  0  0  0  0  0  0  0
   11.0490   -0.2420   24.3020 C   0  0  0  0  0  0  0  0  0  0  0  0
   12.9130   -0.2320   22.7600 C   0  0  0  0  0  0  0  0  0  0  0  0
   12.1600    0.9350   23.7220 S   0  0  0  0  0  0  0  0  0  0  0  0
  1  2  1  0
  1  3  2  0
  1  4  1  0
  4  5  1  0
  4  6  1  0
  5  7  1  0
  6  8  1  0
  7  9  1  0
  8  9  1  0
  9 10  1  0
 10 11  1  1
 10 12  1  0
 10 13  1  0
 13 14  2  0
 13 15  1  0
 12 16  1  0
 14 17  1  0
 15 18  1  0
 17 18  2  0
 16 19  1  0
 16 20  2  0
 19 21  2  0
 20 22  1  0
 21 22  1  0
M  END
