x1385_1-x0734_0-x1418_1-x1412_1-x1334_1-x0831_0-x0434_2
     RDKit          3D

 36 40  0  0  0  0  0  0  0  0999 V2000
    6.4140   -3.2610   19.8140 C   0  0  0  0  0  0  0  0  0  0  0  0
    7.4280   -2.9710   18.7090 C   0  0  0  0  0  0  0  0  0  0  0  0
    5.3790   -3.8930   19.5930 O   0  0  0  0  0  0  0  0  0  0  0  0
    6.7250   -2.8840   21.1310 N   0  0  0  0  0  0  0  0  0  0  0  0
    6.9600   -3.9650   22.0600 C   0  0  0  0  0  0  0  0  0  0  0  0
    7.3810   -1.6240   21.5320 C   0  0  1  0  0  0  0  0  0  0  0  0
    7.9180   -3.6980   23.2180 C   0  0  2  0  0  0  0  0  0  0  0  0
    8.8080   -1.9130   21.8990 C   0  0  0  0  0  0  0  0  0  0  0  0
    7.3310   -0.5300   20.5340 C   0  0  0  0  0  0  0  0  0  0  0  0
    7.1060   -3.5250   24.4980 C   0  0  1  0  0  0  0  0  0  0  0  0
    8.7780   -2.4830   23.2220 N   0  0  0  0  0  0  0  0  0  0  0  0
    7.1160   -1.0590   19.3000 C   0  0  0  0  0  0  0  0  0  0  0  0
    5.6710   -4.0400   24.4140 C   0  0  0  0  0  0  0  0  0  0  0  0
   10.0500   -2.5260   23.7550 C   0  0  0  0  0  0  0  0  0  0  0  0
    7.6540   -4.2900   25.6260 C   0  0  0  0  0  0  0  0  0  0  0  0
    6.6900   -0.0100   18.3860 C   0  0  0  0  0  0  0  0  0  0  0  0
    5.2930   -4.6260   25.8270 C   0  0  2  0  0  0  0  0  0  0  0  0
    9.1410   -4.3970   25.9310 C   0  0  0  0  0  0  0  0  0  0  0  0
    6.6370   -4.9000   26.3740 C   0  0  0  0  0  0  0  0  0  0  0  0
   10.7860   -1.1890   23.6520 C   0  0  0  0  0  0  0  0  0  0  0  0
    5.7250   -0.0950   19.6480 C   0  0  0  0  0  0  0  0  0  0  0  0
    6.1080    1.0060   17.6970 N   0  0  0  0  0  0  0  0  0  0  0  0
    4.6000   -5.6370   25.8980 O   0  0  0  0  0  0  0  0  0  0  0  0
    4.6170   -3.7700   26.5440 O   0  0  0  0  0  0  0  0  0  0  0  0
    9.5330   -5.2150   27.1410 C   0  0  0  0  0  0  0  0  0  0  0  0
    7.0300   -5.7200   27.5840 C   0  0  0  0  0  0  0  0  0  0  0  0
   10.1950   -0.0850   24.2540 C   0  0  0  0  0  0  0  0  0  0  0  0
   12.0210   -1.0240   22.9720 C   0  0  0  0  0  0  0  0  0  0  0  0
    5.0260    1.7670   17.9340 C   0  0  0  0  0  0  0  0  0  0  0  0
    4.6240    0.7060   19.8670 C   0  0  0  0  0  0  0  0  0  0  0  0
   12.7320   -2.1390   22.2800 C   0  0  0  0  0  0  0  0  0  0  0  0
    8.5180   -5.8050   27.8710 C   0  0  0  0  0  0  0  0  0  0  0  0
   10.8430    1.3390   24.2040 C   0  0  0  0  0  0  0  0  0  0  0  0
   12.6120    0.2170   22.9260 C   0  0  0  0  0  0  0  0  0  0  0  0
    4.2390    1.6570   19.0220 C   0  0  0  0  0  0  0  0  0  0  0  0
   12.0900    1.3780   23.4970 C   0  0  0  0  0  0  0  0  0  0  0  0
  1  2  1  0
  1  3  2  0
  1  4  1  0
  4  5  1  0
  4  6  1  0
  7  5  1  6
  6  8  1  0
  6  9  1  6
  7 10  1  0
  7 11  1  0
  8 11  1  0
  9 12  1  0
 10 13  1  6
 11 14  1  0
 10 15  1  0
 12 16  1  0
 13 17  1  0
 15 18  2  0
 15 19  1  0
 17 19  1  0
 14 20  1  0
 16 21  2  0
 16 22  1  0
 17 23  1  6
 17 24  1  0
 18 25  1  0
 19 26  2  0
 20 27  2  0
 20 28  1  0
 22 29  2  0
 21 30  1  0
 28 31  1  0
 25 32  2  0
 26 32  1  0
 27 33  1  0
 28 34  2  0
 29 35  1  0
 30 35  2  0
 33 36  2  0
 34 36  1  0
M  CHG  1  24  -1
M  END
