x1385_0-x1385_1
     RDKit          3D

 16 17  0  0  0  0  0  0  0  0999 V2000
    6.4130   -3.2790   19.8870 C   0  0  0  0  0  0  0  0  0  0  0  0
    7.4260   -3.0000   18.7990 C   0  0  0  0  0  0  0  0  0  0  0  0
    5.4410   -4.0350   19.7230 O   0  0  0  0  0  0  0  0  0  0  0  0
    6.6490   -2.6440   21.1180 N   0  0  0  0  0  0  0  0  0  0  0  0
    6.4230   -3.3840   22.3640 C   0  0  0  0  0  0  0  0  0  0  0  0
    7.6570   -1.5650   21.1940 C   0  0  0  0  0  0  0  0  0  0  0  0
    7.5550   -3.8340   22.9650 C   0  0  0  0  0  0  0  0  0  0  0  0
    8.7400   -2.0360   21.9760 C   0  0  0  0  0  0  0  0  0  0  0  0
    8.4830   -2.7370   23.2230 N   0  0  0  0  0  0  0  0  0  0  0  0
    9.5980   -3.1290   23.9350 C   0  0  0  0  0  0  0  0  0  0  0  0
    9.2040   -4.1070   25.0890 C   0  0  0  0  0  0  0  0  0  0  0  0
    9.7860   -5.3380   25.3070 C   0  0  0  0  0  0  0  0  0  0  0  0
    7.9770   -3.8240   26.2720 S   0  0  0  0  0  0  0  0  0  0  0  0
    9.2310   -5.9650   26.3750 C   0  0  0  0  0  0  0  0  0  0  0  0
    8.1990   -5.2480   27.0180 C   0  0  0  0  0  0  0  0  0  0  0  0
    7.1870   -5.8130   28.5180 Br  0  0  0  0  0  0  0  0  0  0  0  0
  1  2  1  0
  1  3  2  0
  1  4  1  0
  4  5  1  0
  4  6  1  0
  5  7  1  0
  6  8  1  0
  7  9  1  0
  8  9  1  0
  9 10  1  0
 10 11  1  0
 11 12  2  0
 11 13  1  0
 12 14  1  0
 13 15  1  0
 14 15  2  0
 15 16  1  0
M  END
