x1385_1-x1412_1-x0770_1-x1386_0-x1412_0
     RDKit          3D

 22 24  0  0  0  0  0  0  0  0999 V2000
    6.3380   -3.3160   19.9090 C   0  0  0  0  0  0  0  0  0  0  0  0
    7.2740   -2.9820   18.7640 C   0  0  0  0  0  0  0  0  0  0  0  0
    5.3750   -4.0640   19.7090 O   0  0  0  0  0  0  0  0  0  0  0  0
    6.6410   -2.7920   21.1670 N   0  0  0  0  0  0  0  0  0  0  0  0
    6.2340   -3.5300   22.3780 C   0  0  0  0  0  0  0  0  0  0  0  0
    7.5610   -1.6640   21.4260 C   0  0  0  0  0  0  0  0  0  0  0  0
    7.4230   -3.8790   23.2600 C   0  0  0  0  0  0  0  0  0  0  0  0
    8.6440   -2.1110   22.2010 C   0  0  0  0  0  0  0  0  0  0  0  0
    8.1550   -2.6320   23.4790 N   0  0  0  0  0  0  0  0  0  0  0  0
    8.9880   -2.4840   24.5650 C   0  0  2  0  0  0  0  0  0  0  0  0
    8.9080   -1.4420   25.2090 O   0  0  0  0  0  0  0  0  0  0  0  0
   10.4270   -2.6220   24.1360 C   0  0  0  0  0  0  0  0  0  0  0  0
    8.7400   -3.6250   25.5960 C   0  0  0  0  0  0  0  0  0  0  0  0
    9.6890   -4.8080   25.6110 C   0  0  0  0  0  0  0  0  0  0  0  0
    7.4940   -3.8040   26.8430 S   0  0  0  0  0  0  0  0  0  0  0  0
   11.2640   -1.4400   23.7750 C   0  0  0  0  0  0  0  0  0  0  0  0
    9.3940   -5.7760   26.5730 C   0  0  0  0  0  0  0  0  0  0  0  0
    8.1580   -5.3420   27.3700 C   0  0  0  0  0  0  0  0  0  0  0  0
   12.2750   -1.5490   22.8780 C   0  0  0  0  0  0  0  0  0  0  0  0
   11.0450   -0.2000   24.3370 C   0  0  0  0  0  0  0  0  0  0  0  0
   12.8610   -0.2540   22.7670 C   0  0  0  0  0  0  0  0  0  0  0  0
   12.1550    0.9390   23.7230 S   0  0  0  0  0  0  0  0  0  0  0  0
  1  2  1  0
  1  3  2  0
  1  4  1  0
  4  5  1  0
  4  6  1  0
  5  7  1  0
  6  8  1  0
  7  9  1  0
  8  9  1  0
  9 10  1  0
 10 11  1  1
 10 12  1  0
 10 13  1  0
 13 14  2  0
 13 15  1  0
 12 16  1  0
 14 17  1  0
 15 18  1  0
 17 18  2  0
 16 19  1  0
 16 20  2  0
 19 21  2  0
 20 22  1  0
 21 22  1  0
M  END
