x1386_0-x0434_2
     RDKit          3D

 16 17  0  0  0  0  0  0  0  0999 V2000
   10.0960   -2.7830   23.5950 C   0  0  0  0  0  0  0  0  0  0  0  0
    8.6260   -2.5750   23.8150 C   0  0  0  0  0  0  0  0  0  0  0  0
    7.9180   -2.6530   22.4680 C   0  0  0  0  0  0  0  0  0  0  0  0
   10.9950   -1.5460   23.5780 C   0  0  0  0  0  0  0  0  0  0  0  0
   12.2340   -1.4390   22.6730 C   0  0  0  0  0  0  0  0  0  0  0  0
   10.8430   -0.2340   24.4070 C   0  0  0  0  0  0  0  0  0  0  0  0
    8.0390   -1.3310   21.6830 C   0  0  0  0  0  0  0  0  0  0  0  0
   12.9810   -0.1260   22.7940 C   0  0  0  0  0  0  0  0  0  0  0  0
   12.1340    0.7770   23.9310 S   0  0  0  0  0  0  0  0  0  0  0  0
    6.7090   -0.7120   21.5050 N   0  0  0  0  0  0  0  0  0  0  0  0
    6.3150   -0.1000   20.3490 C   0  0  0  0  0  0  0  0  0  0  0  0
    7.0000   -0.2110   19.0030 C   0  0  0  0  0  0  0  0  0  0  0  0
    5.1740    0.7090   20.3770 C   0  0  0  0  0  0  0  0  0  0  0  0
    6.4560    0.5100   17.8640 N   0  0  0  0  0  0  0  0  0  0  0  0
    4.6630    1.3960   19.2640 C   0  0  0  0  0  0  0  0  0  0  0  0
    5.2540    1.3340   18.0090 C   0  0  0  0  0  0  0  0  0  0  0  0
  1  2  1  0
  2  3  1  0
  1  4  1  0
  4  5  1  0
  4  6  2  0
  3  7  1  0
  5  8  2  0
  6  9  1  0
  8  9  1  0
  7 10  1  0
 10 11  1  0
 11 12  2  0
 11 13  1  0
 12 14  1  0
 13 15  2  0
 14 16  2  0
 15 16  1  0
M  END
