x1386_0-x1418_0-x0769_0-x0691_0
     RDKit          3D

 18 19  0  0  0  0  0  0  0  0999 V2000
    6.3500   -4.3140   20.4970 C   0  0  0  0  0  0  0  0  0  0  0  0
    7.3440   -3.3870   19.7800 C   0  0  0  0  0  0  0  0  0  0  0  0
    5.3000   -4.5700   19.9180 O   0  0  0  0  0  0  0  0  0  0  0  0
    6.6120   -4.9260   21.7270 N   0  0  0  0  0  0  0  0  0  0  0  0
    5.9410   -6.1790   22.0800 C   0  0  0  0  0  0  0  0  0  0  0  0
    7.1840   -4.1450   22.8730 C   0  0  1  0  0  0  0  0  0  0  0  0
    7.5620   -2.7170   22.5220 C   0  0  0  0  0  0  0  0  0  0  0  0
    4.9200   -6.0150   23.2320 C   0  0  0  0  0  0  0  0  0  0  0  0
    6.2020   -4.1150   24.0820 C   0  0  0  0  0  0  0  0  0  0  0  0
    9.0620   -2.4790   22.3110 C   0  0  0  0  0  0  0  0  0  0  0  0
    5.6390   -5.4580   24.4120 N   0  0  0  0  0  0  0  0  0  0  0  0
    9.8450   -2.2060   23.5920 C   0  0  1  0  0  0  0  0  0  0  0  0
   10.4760   -3.5270   23.9040 C   0  0  0  0  0  0  0  0  0  0  0  0
   10.8780   -1.1360   23.4840 C   0  0  0  0  0  0  0  0  0  0  0  0
   12.0500   -1.3320   22.6950 C   0  0  0  0  0  0  0  0  0  0  0  0
   10.8800    0.0890   24.0640 C   0  0  0  0  0  0  0  0  0  0  0  0
   12.8590   -0.2120   22.7370 C   0  0  0  0  0  0  0  0  0  0  0  0
   12.2260    1.0470   23.6970 S   0  0  0  0  0  0  0  0  0  0  0  0
  1  2  1  0
  1  3  2  0
  1  4  1  0
  4  5  1  0
  4  6  1  0
  6  7  1  6
  5  8  1  0
  6  9  1  0
  7 10  1  0
  8 11  1  0
  9 11  1  0
 10 12  1  0
 12 13  1  6
 12 14  1  0
 14 15  1  0
 14 16  2  0
 15 17  2  0
 16 18  1  0
 17 18  1  0
M  END
