x1386_1-x0426_1-x1374_1-x0770_1-x0692_1-x1334_1-x0831_0
     RDKit          3D

 37 41  0  0  0  0  0  0  0  0999 V2000
    6.5020   -3.3260   19.9070 C   0  0  0  0  0  0  0  0  0  0  0  0
    7.4380   -2.9940   18.7600 C   0  0  0  0  0  0  0  0  0  0  0  0
    5.4870   -4.0190   19.7270 O   0  0  0  0  0  0  0  0  0  0  0  0
    6.9010   -2.8580   21.1760 N   0  0  0  0  0  0  0  0  0  0  0  0
    7.6680   -1.6110   21.2770 C   0  0  2  0  0  0  0  0  0  0  0  0
    7.1390   -3.8050   22.1710 C   0  0  2  0  0  0  0  0  0  0  0  0
    6.2110   -4.0800   23.3240 C   0  0  0  0  0  0  0  0  0  0  0  0
    9.1370   -1.8730   21.6170 C   0  0  0  0  0  0  0  0  0  0  0  0
    8.3640   -3.5860   23.0600 C   0  0  0  0  0  0  0  0  0  0  0  0
    7.1180   -0.5400   22.1290 C   0  0  0  0  0  0  0  0  0  0  0  0
    9.0830   -2.3190   22.9850 N   0  0  0  0  0  0  0  0  0  0  0  0
    5.0380   -4.6120   22.9870 C   0  0  2  0  0  0  0  0  0  0  0  0
    5.6920   -0.0930   21.7580 C   0  0  1  0  0  0  0  0  0  0  0  0
   10.2970   -2.3910   23.5920 C   0  0  0  0  0  0  0  0  0  0  0  0
    3.9490   -4.3020   23.8390 C   0  0  0  0  0  0  0  0  0  0  0  0
    5.0730   -6.2120   22.8190 C   0  0  0  0  0  0  0  0  0  0  0  0
    5.2490    0.8960   22.9050 C   0  0  0  0  0  0  0  0  0  0  0  0
    5.5440    0.4500   20.3570 C   0  0  0  0  0  0  0  0  0  0  0  0
    3.1930   -5.2950   24.3660 C   0  0  0  0  0  0  0  0  0  0  0  0
    3.7600   -6.8120   23.8050 S   0  0  0  0  0  0  0  0  0  0  0  0
   10.8910   -1.0250   23.6120 C   0  0  0  0  0  0  0  0  0  0  0  0
    3.9820    1.6460   22.5050 C   0  0  1  0  0  0  0  0  0  0  0  0
    4.5380    1.2960   20.0600 C   0  0  0  0  0  0  0  0  0  0  0  0
    6.4910    0.0480   19.4000 C   0  0  0  0  0  0  0  0  0  0  0  0
    2.6930   -7.5470   22.8900 O   0  0  0  0  0  0  0  0  0  0  0  0
    4.2070   -7.8440   25.0070 O   0  0  0  0  0  0  0  0  0  0  0  0
   10.3380    0.1000   24.2030 C   0  0  0  0  0  0  0  0  0  0  0  0
   12.1300   -0.8760   22.9550 C   0  0  0  0  0  0  0  0  0  0  0  0
    4.0800    2.8200   23.1540 N   0  0  0  0  0  0  0  0  0  0  0  0
    3.5050    1.7420   21.0480 C   0  0  0  0  0  0  0  0  0  0  0  0
    4.5070    1.7920   18.6370 C   0  0  0  0  0  0  0  0  0  0  0  0
    6.5230    0.4840   17.9690 N   0  0  0  0  0  0  0  0  0  0  0  0
   12.8050   -2.0300   22.2740 C   0  0  0  0  0  0  0  0  0  0  0  0
   10.9660    1.3370   24.1520 C   0  0  0  0  0  0  0  0  0  0  0  0
   12.7520    0.3610   22.9190 C   0  0  0  0  0  0  0  0  0  0  0  0
    5.4250    1.4150   17.6890 C   0  0  0  0  0  0  0  0  0  0  0  0
   12.1660    1.4470   23.5100 C   0  0  0  0  0  0  0  0  0  0  0  0
  1  2  1  0
  1  3  2  0
  1  4  1  0
  4  5  1  0
  4  6  1  0
  6  7  1  1
  5  8  1  0
  6  9  1  0
  5 10  1  1
  8 11  1  0
  9 11  1  0
 12  7  1  1
 13 10  1  1
 11 14  1  0
 12 15  1  0
 12 16  1  0
 13 17  1  0
 13 18  1  0
 15 19  2  0
 16 20  1  0
 19 20  1  0
 14 21  1  0
 17 22  1  0
 18 23  2  0
 18 24  1  0
 20 25  1  0
 20 26  1  0
 21 27  2  0
 21 28  1  0
 22 29  1  6
 22 30  1  0
 23 30  1  0
 23 31  1  0
 24 32  2  0
 28 33  1  0
 27 34  1  0
 28 35  2  0
 31 36  2  0
 32 36  1  0
 34 37  2  0
 35 37  1  0
M  END
