x1386_1-x1374_1
     RDKit          3D

 17 18  0  0  0  0  0  0  0  0999 V2000
    6.5350   -3.1730   19.8340 C   0  0  0  0  0  0  0  0  0  0  0  0
    7.4670   -2.9720   18.6740 C   0  0  0  0  0  0  0  0  0  0  0  0
    5.5410   -3.9180   19.6890 O   0  0  0  0  0  0  0  0  0  0  0  0
    6.9080   -2.5100   21.0280 N   0  0  0  0  0  0  0  0  0  0  0  0
    7.7100   -1.2700   21.0010 C   0  0  0  0  0  0  0  0  0  0  0  0
    6.8110   -3.1180   22.3820 C   0  0  1  0  0  0  0  0  0  0  0  0
    6.6020   -4.6170   22.1450 C   0  0  0  0  0  0  0  0  0  0  0  0
    9.0790   -1.6370   21.5950 C   0  0  0  0  0  0  0  0  0  0  0  0
    7.8360   -2.6670   23.4330 C   0  0  0  0  0  0  0  0  0  0  0  0
    8.8300   -1.6710   23.0320 N   0  0  0  0  0  0  0  0  0  0  0  0
    5.2380   -5.1480   22.4960 C   0  0  2  0  0  0  0  0  0  0  0  0
    4.6350   -4.5400   23.5260 C   0  0  0  0  0  0  0  0  0  0  0  0
    5.0190   -6.4900   22.7830 C   0  0  0  0  0  0  0  0  0  0  0  0
    3.7540   -5.2370   24.4770 C   0  0  0  0  0  0  0  0  0  0  0  0
    3.7670   -6.8400   23.9250 S   0  0  0  0  0  0  0  0  0  0  0  0
    2.5480   -7.3570   23.0540 O   0  0  0  0  0  0  0  0  0  0  0  0
    4.2520   -7.9010   24.9910 O   0  0  0  0  0  0  0  0  0  0  0  0
  1  2  1  0
  1  3  2  0
  1  4  1  0
  4  5  1  0
  4  6  1  0
  6  7  1  6
  5  8  1  0
  6  9  1  0
  8 10  1  0
  9 10  1  0
 11  7  1  1
 11 12  1  0
 11 13  1  0
 12 14  2  0
 13 15  1  0
 14 15  1  0
 15 16  1  0
 15 17  1  0
M  END
