x1386_1-x1418_1-x1334_1-x1334_0-x0770_1-x0397_0-x1375_1-x0831_0-x1412_1-x0692_1-x0426_1-x1385_1-x0831_1-x0434_2-x1374_1
     RDKit          3D

 44 49  0  0  0  0  0  0  0  0999 V2000
    2.3310   -7.2060   24.2600 O   0  0  0  0  0  0  0  0  0  0  0  0
    3.1630   -7.0760   25.3930 C   0  0  0  0  0  0  0  0  0  0  0  0
    4.4710   -7.4530   25.0260 O   0  0  0  0  0  0  0  0  0  0  0  0
    4.8040   -7.1830   23.6640 C   0  0  0  0  0  0  0  0  0  0  0  0
    5.5860   -5.9430   23.4060 C   0  0  2  0  0  0  0  0  0  0  0  0
    5.0820   -5.1280   22.3110 C   0  0  2  0  0  0  0  0  0  0  0  0
    6.5160   -5.9600   22.4570 C   0  0  0  0  0  0  0  0  0  0  0  0
    4.9130   -3.6700   22.5250 C   0  0  0  0  0  0  0  0  0  0  0  0
    6.2410   -2.9260   22.3630 C   0  0  2  0  0  0  0  0  0  0  0  0
    6.5950   -2.3520   21.0730 N   0  0  0  0  0  0  0  0  0  0  0  0
    7.4780   -3.5520   23.0310 C   0  0  0  0  0  0  0  0  0  0  0  0
    6.4630   -3.1150   19.8880 C   0  0  0  0  0  0  0  0  0  0  0  0
    8.4600   -2.5520   23.2900 N   0  0  0  0  0  0  0  0  0  0  0  0
    7.7300   -1.3960   21.2740 C   0  0  2  0  0  0  0  0  0  0  0  0
    7.4130   -2.9340   18.7350 C   0  0  0  0  0  0  0  0  0  0  0  0
    5.5720   -3.9840   19.7350 O   0  0  0  0  0  0  0  0  0  0  0  0
    9.2890   -2.6960   24.3560 C   0  0  2  0  0  0  0  0  0  0  0  0
    8.9280   -2.0720   21.9930 C   0  0  0  0  0  0  0  0  0  0  0  0
    7.2280   -0.2820   22.2340 C   0  0  0  0  0  0  0  0  0  0  0  0
   10.7420   -2.6390   23.8590 C   0  0  0  0  0  0  0  0  0  0  0  0
    9.0780   -3.8840   25.2790 C   0  0  0  0  0  0  0  0  0  0  0  0
    6.8990    1.0920   21.6370 C   0  0  2  0  0  0  0  0  0  0  0  0
    9.7270   -5.2090   25.4200 C   0  0  0  0  0  0  0  0  0  0  0  0
    7.8600   -3.8550   26.5230 S   0  0  0  0  0  0  0  0  0  0  0  0
   11.1950   -1.2250   23.7100 C   0  0  0  0  0  0  0  0  0  0  0  0
    6.0920    1.9410   22.6590 C   0  0  0  0  0  0  0  0  0  0  0  0
    6.2060    1.0150   20.3470 C   0  0  0  0  0  0  0  0  0  0  0  0
    9.2900   -5.9800   26.3580 C   0  0  0  0  0  0  0  0  0  0  0  0
    8.2220   -5.4180   27.1230 C   0  0  0  0  0  0  0  0  0  0  0  0
   10.3380   -0.0720   24.3970 C   0  0  0  0  0  0  0  0  0  0  0  0
   12.4330   -0.8340   22.9300 C   0  0  0  0  0  0  0  0  0  0  0  0
    4.5930    1.8880   22.4440 C   0  0  1  0  0  0  0  0  0  0  0  0
    4.9590    1.5970   20.1800 C   0  0  0  0  0  0  0  0  0  0  0  0
    6.8420    0.3080   19.1890 C   0  0  0  0  0  0  0  0  0  0  0  0
    7.3380   -6.0410   28.4420 Cl  0  0  0  0  0  0  0  0  0  0  0  0
   13.2470   -1.8670   22.2530 C   0  0  0  0  0  0  0  0  0  0  0  0
   10.8620    1.4470   24.2060 C   0  0  0  0  0  0  0  0  0  0  0  0
   12.8260    0.6150   22.8460 C   0  0  0  0  0  0  0  0  0  0  0  0
    4.0080    2.4670   23.5220 N   0  0  0  0  0  0  0  0  0  0  0  0
    4.1980    2.3090   21.2430 C   0  0  0  0  0  0  0  0  0  0  0  0
    4.2380    1.5690   18.8900 C   0  0  0  0  0  0  0  0  0  0  0  0
    6.2800    0.2280   17.9960 N   0  0  0  0  0  0  0  0  0  0  0  0
   12.1590    1.6360   23.3900 C   0  0  0  0  0  0  0  0  0  0  0  0
    5.0330    0.8320   17.8400 C   0  0  0  0  0  0  0  0  0  0  0  0
  1  2  1  0
  2  3  1  0
  3  4  1  0
  5  4  1  6
  5  6  1  0
  5  7  1  0
  6  7  1  0
  6  8  1  1
  9  8  1  6
  9 10  1  0
  9 11  1  0
 10 12  1  0
 11 13  1  0
 10 14  1  0
 12 15  1  0
 12 16  2  0
 13 17  1  0
 13 18  1  0
 14 18  1  0
 14 19  1  1
 17 20  1  6
 17 21  1  0
 22 19  1  1
 21 23  2  0
 21 24  1  0
 20 25  1  0
 22 26  1  0
 22 27  1  0
 23 28  1  0
 24 29  1  0
 28 29  2  0
 25 30  2  0
 25 31  1  0
 26 32  1  0
 27 33  2  0
 27 34  1  0
 29 35  1  0
 31 36  1  0
 30 37  1  0
 31 38  2  0
 32 39  1  1
 32 40  1  0
 33 40  1  0
 33 41  1  0
 34 42  2  0
 37 43  2  0
 38 43  1  0
 41 44  2  0
 42 44  1  0
M  END
