x1385_1-x0831_1-x0426_1-x1374_1-x1375_1-x1334_0-x0434_2-x1418_1-x1386_1-x0397_0-x0692_1-x1334_1-x0770_1-x0831_0
     RDKit          3D

 44 49  0  0  0  0  0  0  0  0999 V2000
    2.3120   -7.6890   23.2470 O   0  0  0  0  0  0  0  0  0  0  0  0
    2.6010   -7.8370   24.6220 C   0  0  0  0  0  0  0  0  0  0  0  0
    4.0020   -7.8720   24.7830 O   0  0  0  0  0  0  0  0  0  0  0  0
    4.6260   -7.1340   23.7380 C   0  0  0  0  0  0  0  0  0  0  0  0
    4.9050   -5.8600   24.0940 C   0  0  0  0  0  0  0  0  0  0  0  0
    5.9550   -5.3110   23.1820 C   0  0  2  0  0  0  0  0  0  0  0  0
    5.6140   -4.3090   22.1330 C   0  0  2  0  0  0  0  0  0  0  0  0
    6.1300   -5.8730   21.8450 C   0  0  0  0  0  0  0  0  0  0  0  0
    6.4760   -3.0950   22.4630 C   0  0  1  0  0  0  0  0  0  0  0  0
    7.5740   -3.5990   23.1250 C   0  0  0  0  0  0  0  0  0  0  0  0
    6.7900   -2.2340   21.2390 C   0  0  1  0  0  0  0  0  0  0  0  0
    6.5180   -3.1200   19.9050 C   0  0  0  0  0  0  0  0  0  0  0  0
    5.9830   -0.8970   21.2810 C   0  0  2  0  0  0  0  0  0  0  0  0
    8.4690   -2.4820   23.5240 N   0  0  0  0  0  0  0  0  0  0  0  0
    8.1540   -2.1100   21.2710 C   0  0  0  0  0  0  0  0  0  0  0  0
    7.4790   -2.9850   18.7210 C   0  0  0  0  0  0  0  0  0  0  0  0
    5.6040   -3.9720   19.7440 O   0  0  0  0  0  0  0  0  0  0  0  0
    4.8610   -0.9170   22.3480 C   0  0  0  0  0  0  0  0  0  0  0  0
    9.6370   -3.1820   23.9780 C   0  0  1  0  0  0  0  0  0  0  0  0
    8.7140   -1.5490   22.4020 C   0  0  0  0  0  0  0  0  0  0  0  0
    5.7200   -0.0540   20.0690 C   0  0  0  0  0  0  0  0  0  0  0  0
    4.8490    0.3880   23.2050 C   0  0  0  0  0  0  0  0  0  0  0  0
   10.6680   -2.3760   24.7640 C   0  0  0  0  0  0  0  0  0  0  0  0
    4.6820    0.9320   19.9430 C   0  0  0  0  0  0  0  0  0  0  0  0
    6.6290   -0.3320   19.0460 C   0  0  0  0  0  0  0  0  0  0  0  0
    9.3480   -4.2160   25.0570 C   0  0  0  0  0  0  0  0  0  0  0  0
    4.3420    1.6130   22.3870 C   0  0  1  0  0  0  0  0  0  0  0  0
    3.6960    1.2540   21.0340 C   0  0  0  0  0  0  0  0  0  0  0  0
    4.5060    1.6930   18.7590 C   0  0  0  0  0  0  0  0  0  0  0  0
    6.4440    0.4710   17.7970 N   0  0  0  0  0  0  0  0  0  0  0  0
    9.8690   -5.4440   25.2690 C   0  0  0  0  0  0  0  0  0  0  0  0
    8.1520   -3.7680   26.2160 S   0  0  0  0  0  0  0  0  0  0  0  0
   11.1220   -1.0240   24.2350 C   0  0  0  0  0  0  0  0  0  0  0  0
    3.4410    2.4470   23.1480 N   0  0  0  0  0  0  0  0  0  0  0  0
    5.3790    1.4260   17.7690 C   0  0  0  0  0  0  0  0  0  0  0  0
    9.3100   -6.0360   26.3790 C   0  0  0  0  0  0  0  0  0  0  0  0
    8.3500   -5.2610   27.0190 C   0  0  0  0  0  0  0  0  0  0  0  0
   10.4740    0.1020   24.5720 C   0  0  0  0  0  0  0  0  0  0  0  0
   12.2720   -1.0080   23.3800 C   0  0  0  0  0  0  0  0  0  0  0  0
    7.4320   -5.6410   28.4070 Cl  0  0  0  0  0  0  0  0  0  0  0  0
   13.0140   -2.2370   22.9650 C   0  0  0  0  0  0  0  0  0  0  0  0
   10.8090    1.3790   24.1740 C   0  0  0  0  0  0  0  0  0  0  0  0
   12.7830    0.3950   22.8540 C   0  0  0  0  0  0  0  0  0  0  0  0
   12.0210    1.6070   23.2710 C   0  0  0  0  0  0  0  0  0  0  0  0
  1  2  1  0
  2  3  1  0
  3  4  1  0
  4  5  1  0
  6  5  1  1
  6  7  1  0
  6  8  1  0
  7  8  1  6
  7  9  1  0
  9 10  1  6
  9 11  1  0
 11 12  1  6
 11 13  1  0
 10 14  1  0
 11 15  1  0
 12 16  1  0
 12 17  2  0
 13 18  1  6
 14 19  1  0
 14 20  1  0
 15 20  1  0
 13 21  1  0
 18 22  1  0
 19 23  1  1
 21 24  2  0
 21 25  1  0
 19 26  1  0
 22 27  1  0
 24 28  1  0
 27 28  1  0
 24 29  1  0
 25 30  2  0
 26 31  2  0
 26 32  1  0
 23 33  1  0
 27 34  1  1
 29 35  2  0
 30 35  1  0
 31 36  1  0
 32 37  1  0
 36 37  2  0
 33 38  2  0
 33 39  1  0
 37 40  1  0
 39 41  1  0
 38 42  1  0
 39 43  2  0
 42 44  2  0
 43 44  1  0
M  END
