x1385_1-x1334_1-x0820_1-x0691_1-x1418_0
     RDKit          3D

 38 43  0  0  0  0  0  0  0  0999 V2000
    6.5720   -3.0600   19.7420 C   0  0  0  0  0  0  0  0  0  0  0  0
    7.2840   -2.4680   18.5380 C   0  0  0  0  0  0  0  0  0  0  0  0
    5.7650   -3.9680   19.5830 O   0  0  0  0  0  0  0  0  0  0  0  0
    6.8730   -2.6050   20.9790 N   0  0  0  0  0  0  0  0  0  0  0  0
    7.5420   -2.5260   22.4730 C   0  0  0  0  0  0  0  0  0  0  0  0
    6.4070   -3.2690   22.1930 C   0  0  2  0  0  0  0  0  0  0  0  0
    8.4880   -2.6480   23.3470 C   0  0  2  0  0  0  0  0  0  0  0  0
    7.5960   -3.7560   22.9880 C   0  0  0  0  0  0  0  0  0  0  0  0
    7.7450   -1.4790   21.3090 C   0  0  0  0  0  0  0  0  0  0  0  0
    5.7530   -3.8170   22.9560 C   0  0  0  0  0  0  0  0  0  0  0  0
   10.0540   -2.6430   23.5460 C   0  0  0  0  0  0  0  0  0  0  0  0
    8.9240   -1.9670   22.1220 C   0  0  0  0  0  0  0  0  0  0  0  0
    5.0990   -4.3650   23.7200 C   0  0  0  0  0  0  0  0  0  0  0  0
    8.3350   -1.7230   21.7150 C   0  0  0  0  0  0  0  0  0  0  0  0
   11.0210   -1.5060   23.5860 C   0  0  0  0  0  0  0  0  0  0  0  0
    6.4390   -4.2050   23.9830 C   0  0  0  0  0  0  0  0  0  0  0  0
    4.1540   -4.5400   24.7490 C   0  0  0  0  0  0  0  0  0  0  0  0
   12.1120   -1.2610   22.7430 C   0  0  0  0  0  0  0  0  0  0  0  0
   10.8900   -0.2770   24.7770 S   0  0  0  0  0  0  0  0  0  0  0  0
    5.2760   -4.9480   25.0580 C   0  0  0  0  0  0  0  0  0  0  0  0
    4.5530   -4.5590   26.0430 C   0  0  0  0  0  0  0  0  0  0  0  0
   12.7990   -0.0810   23.1240 C   0  0  0  0  0  0  0  0  0  0  0  0
   12.1210    0.6380   24.0450 C   0  0  0  0  0  0  0  0  0  0  0  0
    4.6770   -5.5300   25.7840 S   0  0  2  0  0  0  0  0  0  0  0  0
    5.9160   -4.3990   26.3890 C   0  0  0  0  0  0  0  0  0  0  0  0
    3.9940   -6.7810   25.8990 O   0  0  0  0  0  0  0  0  0  0  0  0
    3.4570   -4.2520   25.7540 C   0  0  0  0  0  0  0  0  0  0  0  0
    6.8860   -4.2170   25.3580 C   0  0  0  0  0  0  0  0  0  0  0  0
    6.3270   -4.4200   27.7430 C   0  0  0  0  0  0  0  0  0  0  0  0
    3.8510   -2.9270   25.8180 C   0  0  0  0  0  0  0  0  0  0  0  0
    2.1140   -4.5840   25.6700 C   0  0  0  0  0  0  0  0  0  0  0  0
    8.2410   -4.0590   25.7640 C   0  0  0  0  0  0  0  0  0  0  0  0
    7.6330   -4.2720   28.0760 C   0  0  0  0  0  0  0  0  0  0  0  0
    2.8660   -1.9660   25.7940 C   0  0  0  0  0  0  0  0  0  0  0  0
    1.1540   -3.5820   25.6480 C   0  0  0  0  0  0  0  0  0  0  0  0
    8.6000   -4.0860   27.0800 C   0  0  0  0  0  0  0  0  0  0  0  0
    3.2440   -0.6710   25.8530 F   0  0  0  0  0  0  0  0  0  0  0  0
    1.5250   -2.2540   25.7070 C   0  0  0  0  0  0  0  0  0  0  0  0
  1  2  1  0
  1  3  2  0
  1  4  1  0
  4  5  1  0
  4  6  1  0
  5  7  1  0
  6  8  1  0
  7  8  1  0
  5  9  2  0
  6 10  1  6
  7 11  1  6
  7 12  1  0
 10 13  1  0
  9 14  1  0
 12 14  2  0
 11 15  1  0
 13 16  1  0
 13 17  2  0
 15 18  2  0
 15 19  1  0
 16 20  2  0
 17 21  1  0
 18 22  1  0
 19 23  1  0
 22 23  2  0
 20 24  1  0
 21 24  2  0
 21 25  1  0
 24 26  2  0
 24 27  1  1
 25 28  2  0
 25 29  1  0
 27 30  2  0
 27 31  1  0
 28 32  1  0
 29 33  2  0
 30 34  1  0
 31 35  2  0
 32 36  2  0
 33 36  1  0
 34 37  1  0
 34 38  2  0
 35 38  1  0
M  END
