x1385_1-x1386_0-x1412_0-x0692_1
     RDKit          3D

 22 24  0  0  0  0  0  0  0  0999 V2000
    6.2820   -3.2510   19.8700 C   0  0  0  0  0  0  0  0  0  0  0  0
    7.2500   -2.9590   18.7430 C   0  0  0  0  0  0  0  0  0  0  0  0
    5.3520   -4.0430   19.6740 O   0  0  0  0  0  0  0  0  0  0  0  0
    6.4600   -2.6590   21.1090 N   0  0  0  0  0  0  0  0  0  0  0  0
    6.0530   -3.3400   22.3700 C   0  0  0  0  0  0  0  0  0  0  0  0
    7.5100   -1.6230   21.2310 C   0  0  0  0  0  0  0  0  0  0  0  0
    7.2970   -3.8220   23.1690 C   0  0  0  0  0  0  0  0  0  0  0  0
    8.6560   -2.0220   22.1770 C   0  0  0  0  0  0  0  0  0  0  0  0
    8.1680   -2.6350   23.4220 N   0  0  0  0  0  0  0  0  0  0  0  0
    9.0240   -2.5800   24.5970 C   0  0  2  0  0  0  0  0  0  0  0  0
    8.8030   -1.3230   25.2300 O   0  0  0  0  0  0  0  0  0  0  0  0
   10.5380   -2.6860   24.2150 C   0  0  0  0  0  0  0  0  0  0  0  0
    8.8650   -3.6940   25.6300 C   0  0  0  0  0  0  0  0  0  0  0  0
    9.7550   -4.8860   25.7930 C   0  0  0  0  0  0  0  0  0  0  0  0
    7.6300   -3.8630   26.8720 S   0  0  0  0  0  0  0  0  0  0  0  0
   11.2910   -1.4390   23.8560 C   0  0  0  0  0  0  0  0  0  0  0  0
    9.3270   -5.7720   26.8790 C   0  0  0  0  0  0  0  0  0  0  0  0
    8.2060   -5.3570   27.5540 C   0  0  0  0  0  0  0  0  0  0  0  0
   12.3400   -1.4070   22.9500 C   0  0  0  0  0  0  0  0  0  0  0  0
   11.0600   -0.1770   24.3650 C   0  0  0  0  0  0  0  0  0  0  0  0
   12.9050   -0.1830   22.7540 C   0  0  0  0  0  0  0  0  0  0  0  0
   12.1280    0.9890   23.7080 S   0  0  0  0  0  0  0  0  0  0  0  0
  1  2  1  0
  1  3  2  0
  1  4  1  0
  4  5  1  0
  4  6  1  0
  5  7  1  0
  6  8  1  0
  7  9  1  0
  8  9  1  0
  9 10  1  0
 10 11  1  1
 10 12  1  0
 10 13  1  0
 13 14  2  0
 13 15  1  0
 12 16  1  0
 14 17  1  0
 15 18  1  0
 17 18  2  0
 16 19  1  0
 16 20  2  0
 19 21  2  0
 20 22  1  0
 21 22  1  0
M  END
