x1385_1-x1412_1-x1334_0-x1334_1-x0397_0-x0770_1-x0540_3-x1386_1-x0434_2-x0831_0-x1418_1-x0692_1-x0831_1
     RDKit          3D

 39 43  0  0  0  0  0  0  0  0999 V2000
    6.3790   -3.2700   19.9310 C   0  0  0  0  0  0  0  0  0  0  0  0
    7.3690   -2.9680   18.8280 C   0  0  0  0  0  0  0  0  0  0  0  0
    5.3890   -3.9810   19.6670 O   0  0  0  0  0  0  0  0  0  0  0  0
    6.6080   -2.8080   21.2290 N   0  0  0  0  0  0  0  0  0  0  0  0
    6.8080   -3.7810   22.1550 C   0  0  1  0  0  0  0  0  0  0  0  0
    7.2210   -1.4960   21.5560 C   0  0  1  0  0  0  0  0  0  0  0  0
    6.2880   -0.6810   22.5240 C   0  0  0  0  0  0  0  0  0  0  0  0
    7.1600   -3.0830   23.5320 C   0  0  0  0  0  0  0  0  0  0  0  0
    8.4900   -1.7910   22.1550 C   0  0  0  0  0  0  0  0  0  0  0  0
    5.5890   -4.6770   22.3490 C   0  0  0  0  0  0  0  0  0  0  0  0
    5.2660    0.3290   21.9090 C   0  0  1  0  0  0  0  0  0  0  0  0
    8.4120   -2.3360   23.5010 N   0  0  0  0  0  0  0  0  0  0  0  0
    5.8730   -5.5970   23.2090 C   0  0  0  0  0  0  0  0  0  0  0  0
    5.5430   -6.3240   22.0430 C   0  0  0  0  0  0  0  0  0  0  0  0
    5.2870    1.7060   22.5870 C   0  0  0  0  0  0  0  0  0  0  0  0
    9.4860   -3.2500   23.8430 C   0  0  1  0  0  0  0  0  0  0  0  0
    5.5890    0.4850   20.4350 C   0  0  0  0  0  0  0  0  0  0  0  0
    4.0280    2.4160   22.4640 N   0  0  0  0  0  0  0  0  0  0  0  0
   10.8360   -2.6070   24.1150 C   0  0  0  0  0  0  0  0  0  0  0  0
    9.1330   -4.1420   25.0360 C   0  0  0  0  0  0  0  0  0  0  0  0
    6.7100   -0.1660   19.9690 C   0  0  0  0  0  0  0  0  0  0  0  0
    4.7940    1.2540   19.5790 C   0  0  0  0  0  0  0  0  0  0  0  0
    2.9170    2.1900   23.3920 C   0  0  0  0  0  0  0  0  0  0  0  0
    9.7960   -5.3260   25.1960 C   0  0  0  0  0  0  0  0  0  0  0  0
    7.8910   -3.8170   26.3080 S   0  0  0  0  0  0  0  0  0  0  0  0
   11.1470   -1.1590   23.9150 C   0  0  0  0  0  0  0  0  0  0  0  0
    7.0980   -0.0600   18.5000 C   0  0  0  0  0  0  0  0  0  0  0  0
    5.1510    1.3890   18.1080 C   0  0  0  0  0  0  0  0  0  0  0  0
    2.8140    1.3170   24.2420 O   0  0  0  0  0  0  0  0  0  0  0  0
    9.2600   -6.0390   26.4520 C   0  0  0  0  0  0  0  0  0  0  0  0
    8.2330   -5.3360   27.1320 C   0  0  0  0  0  0  0  0  0  0  0  0
   10.4200   -0.0420   24.4730 C   0  0  0  0  0  0  0  0  0  0  0  0
   12.2520   -0.8380   23.1180 C   0  0  0  0  0  0  0  0  0  0  0  0
    6.2260    0.7840   17.5700 N   0  0  0  0  0  0  0  0  0  0  0  0
    7.3660   -5.7670   28.5370 Cl  0  0  0  0  0  0  0  0  0  0  0  0
   13.1060   -1.8630   22.4460 C   0  0  0  0  0  0  0  0  0  0  0  0
   10.7800    1.2330   24.2480 C   0  0  0  0  0  0  0  0  0  0  0  0
   12.6170    0.4890   22.9080 C   0  0  0  0  0  0  0  0  0  0  0  0
   11.8860    1.5210   23.4680 C   0  0  0  0  0  0  0  0  0  0  0  0
  1  2  1  0
  1  3  2  0
  1  4  1  0
  4  5  1  0
  4  6  1  0
  6  7  1  1
  5  8  1  0
  6  9  1  0
  5 10  1  1
 11  7  1  1
  8 12  1  0
  9 12  1  0
 10 13  1  0
 10 14  1  0
 13 14  1  0
 11 15  1  0
 12 16  1  0
 11 17  1  0
 15 18  1  0
 16 19  1  1
 16 20  1  0
 17 21  2  0
 17 22  1  0
 18 23  1  0
 20 24  2  0
 20 25  1  0
 19 26  1  0
 21 27  1  0
 22 28  2  0
 23 29  2  0
 24 30  1  0
 25 31  1  0
 30 31  2  0
 26 32  2  0
 26 33  1  0
 27 34  2  0
 28 34  1  0
 31 35  1  0
 33 36  1  0
 32 37  1  0
 33 38  2  0
 37 39  2  0
 38 39  1  0
M  END
