x1385_1-x0981_1-x0874_0-x0395_1-x1412_0
     RDKit          3D

 36 38  0  0  0  0  0  0  0  0999 V2000
    4.5520   -5.9330   23.4650 C   0  0  0  0  0  0  0  0  0  0  0  0
    3.0440   -6.0910   23.5340 C   0  0  1  0  0  0  0  0  0  0  0  0
    2.5760   -7.1850   22.6740 N   0  0  0  0  0  0  0  0  0  0  0  0
    5.1590   -4.9430   24.0400 N   0  0  0  0  0  0  0  0  0  0  0  0
    2.6010   -6.2890   24.9890 C   0  0  0  0  0  0  0  0  0  0  0  0
    6.6370   -4.9660   23.9410 C   0  0  0  0  0  0  0  0  0  0  0  0
    1.3670   -7.4560   22.1160 C   0  0  0  0  0  0  0  0  0  0  0  0
    3.0380   -7.6900   25.3580 C   0  0  0  0  0  0  0  0  0  0  0  0
    7.1830   -4.1100   22.7440 C   0  0  2  0  0  0  0  0  0  0  0  0
    1.1810   -8.7470   21.3440 C   0  0  0  0  0  0  0  0  0  0  0  0
    0.4400   -6.6590   22.2120 O   0  0  0  0  0  0  0  0  0  0  0  0
    2.4490   -8.2760   26.4380 N   0  0  0  0  0  0  0  0  0  0  0  0
    3.8930   -8.2350   24.6890 O   0  0  0  0  0  0  0  0  0  0  0  0
    8.3470   -3.2850   23.1420 N   0  0  0  0  0  0  0  0  0  0  0  0
    6.0570   -3.2290   22.2120 C   0  0  0  0  0  0  0  0  0  0  0  0
    8.5460   -2.9040   24.5540 C   0  0  0  0  0  0  0  0  0  0  0  0
    6.4890   -2.5270   21.0180 N   0  0  0  0  0  0  0  0  0  0  0  0
    8.8090   -2.3670   22.0680 C   0  0  0  0  0  0  0  0  0  0  0  0
    6.2900   -3.2020   19.8220 C   0  0  0  0  0  0  0  0  0  0  0  0
    8.7630   -1.5190   24.9550 N   0  0  0  0  0  0  0  0  0  0  0  0
    7.6650   -1.6730   21.2660 C   0  0  0  0  0  0  0  0  0  0  0  0
    8.5730   -3.9380   25.6550 C   0  0  0  0  0  0  0  0  0  0  0  0
    7.2420   -2.9260   18.6750 C   0  0  0  0  0  0  0  0  0  0  0  0
    5.3890   -4.0380   19.6810 O   0  0  0  0  0  0  0  0  0  0  0  0
    8.8120   -0.6070   23.8180 C   0  0  0  0  0  0  0  0  0  0  0  0
    9.3780   -5.0990   25.5410 C   0  0  0  0  0  0  0  0  0  0  0  0
    7.6940   -3.9570   27.2380 S   0  0  0  0  0  0  0  0  0  0  0  0
    9.2730   -5.8980   26.6270 C   0  0  0  0  0  0  0  0  0  0  0  0
    8.4410   -5.4570   27.6050 C   0  0  0  0  0  0  0  0  0  0  0  0
   10.2050   -0.2250   23.5510 N   0  0  0  0  0  0  0  0  0  0  0  0
   10.5930    1.0060   23.8480 C   0  0  0  0  0  0  0  0  0  0  0  0
   11.0310   -1.0140   22.5720 C   0  0  0  0  0  0  0  0  0  0  0  0
   12.5630   -0.7210   22.6520 C   0  0  1  0  0  0  0  0  0  0  0  0
   11.9610    1.4810   23.4600 C   0  0  0  0  0  0  0  0  0  0  0  0
   13.1740   -1.4050   21.6540 F   0  0  0  0  0  0  0  0  0  0  0  0
   12.8810    0.5720   22.7560 C   0  0  0  0  0  0  0  0  0  0  0  0
  2  1  1  1
  2  3  1  0
  1  4  2  3
  2  5  1  0
  4  6  1  0
  3  7  1  0
  5  8  1  0
  9  6  1  1
  7 10  1  0
  7 11  2  0
  8 12  1  0
  8 13  2  0
  9 14  1  0
  9 15  1  0
 14 16  1  0
 15 17  1  0
 14 18  1  0
 17 19  1  0
 16 20  2  3
 17 21  1  0
 18 21  1  0
 16 22  1  0
 19 23  1  0
 19 24  2  0
 20 25  1  0
 22 26  2  0
 22 27  1  0
 26 28  1  0
 27 29  1  0
 28 29  2  0
 25 30  1  0
 30 31  1  0
 30 32  1  0
 32 33  1  0
 31 34  2  0
 33 35  1  6
 33 36  1  0
 34 36  1  0
M  END
