x1385_1-x0736_1-x1334_1-x1412_1-x1412_0
     RDKit          3D

 16 17  0  0  0  0  0  0  0  0999 V2000
    6.3670   -3.2310   19.9020 C   0  0  0  0  0  0  0  0  0  0  0  0
    7.3450   -2.9630   18.7730 C   0  0  0  0  0  0  0  0  0  0  0  0
    5.4130   -3.9900   19.6670 O   0  0  0  0  0  0  0  0  0  0  0  0
    6.5760   -2.6610   21.1550 N   0  0  0  0  0  0  0  0  0  0  0  0
    6.2310   -3.3920   22.3650 C   0  0  0  0  0  0  0  0  0  0  0  0
    7.6380   -1.6390   21.3160 C   0  0  0  0  0  0  0  0  0  0  0  0
    7.4840   -4.0100   22.9720 C   0  0  0  0  0  0  0  0  0  0  0  0
    8.8180   -2.0630   22.2270 C   0  0  0  0  0  0  0  0  0  0  0  0
    8.4190   -2.9670   23.3270 N   0  0  0  0  0  0  0  0  0  0  0  0
    8.5140   -2.6780   24.6930 C   0  0  0  0  0  0  0  0  0  0  0  0
    8.4720   -1.3570   25.1610 O   0  0  0  0  0  0  0  0  0  0  0  0
    8.6500   -3.8270   25.5700 C   0  0  0  0  0  0  0  0  0  0  0  0
    9.4230   -4.9660   25.3650 C   0  0  0  0  0  0  0  0  0  0  0  0
    7.7810   -3.8540   27.0690 S   0  0  0  0  0  0  0  0  0  0  0  0
    9.3410   -5.9060   26.4290 C   0  0  0  0  0  0  0  0  0  0  0  0
    8.3970   -5.3810   27.5280 C   0  0  0  0  0  0  0  0  0  0  0  0
  1  2  1  0
  1  3  2  0
  1  4  1  0
  4  5  1  0
  4  6  1  0
  5  7  1  0
  6  8  1  0
  7  9  1  0
  8  9  1  0
  9 10  1  0
 10 11  2  0
 10 12  1  0
 12 13  2  0
 12 14  1  0
 13 15  1  0
 14 16  1  0
 15 16  2  0
M  END
