x1386_0-x1418_0
     RDKit          3D

  6  6  0  0  0  0  0  0  0  0999 V2000
   10.1940   -2.7470   23.7440 C   0  0  0  0  0  0  0  0  0  0  0  0
   10.9800   -1.6680   23.6690 C   0  0  0  0  0  0  0  0  0  0  0  0
   12.0890   -1.6240   22.6940 C   0  0  0  0  0  0  0  0  0  0  0  0
   11.0130   -0.4560   24.3630 C   0  0  0  0  0  0  0  0  0  0  0  0
   12.8550   -0.3530   22.7490 C   0  0  0  0  0  0  0  0  0  0  0  0
   12.2480    0.7010   23.9090 S   0  0  0  0  0  0  0  0  0  0  0  0
  1  2  1  0
  2  3  1  0
  2  4  2  0
  3  5  2  0
  4  6  1  0
  5  6  1  0
M  END
