x1385_1-x0692_0-x0770_1-x1412_0
     RDKit          3D

 24 26  0  0  0  0  0  0  0  0999 V2000
    6.3470   -3.2950   19.8540 C   0  0  0  0  0  0  0  0  0  0  0  0
    7.3490   -3.0200   18.7350 C   0  0  0  0  0  0  0  0  0  0  0  0
    5.4100   -4.0840   19.7100 O   0  0  0  0  0  0  0  0  0  0  0  0
    6.5510   -2.6260   21.0600 N   0  0  0  0  0  0  0  0  0  0  0  0
    6.2690   -3.3240   22.3190 C   0  0  0  0  0  0  0  0  0  0  0  0
    7.6770   -1.6730   21.1200 C   0  0  0  0  0  0  0  0  0  0  0  0
    7.4760   -3.8080   23.1100 C   0  0  0  0  0  0  0  0  0  0  0  0
    8.9300   -2.4020   21.6070 C   0  0  0  0  0  0  0  0  0  0  0  0
    8.7090   -2.9720   22.9430 N   0  0  0  0  0  0  0  0  0  0  0  0
    8.8590   -1.8810   23.8320 C   0  0  1  0  0  0  0  0  0  0  0  0
    8.4400   -2.1390   25.2760 C   0  0  0  0  0  0  0  0  0  0  0  0
   10.1990   -1.2230   23.5160 C   0  0  0  0  0  0  0  0  0  0  0  0
    8.0040   -1.2310   25.9610 O   0  0  0  0  0  0  0  0  0  0  0  0
   10.3110    0.2400   23.6770 C   0  0  0  0  0  0  0  0  0  0  0  0
   11.4000   -1.8800   23.0350 C   0  0  0  0  0  0  0  0  0  0  0  0
    8.5590   -3.5490   25.8830 C   0  0  0  0  0  0  0  0  0  0  0  0
   11.4050    1.0090   23.4210 C   0  0  0  0  0  0  0  0  0  0  0  0
   12.5320   -1.0520   22.7910 C   0  0  0  0  0  0  0  0  0  0  0  0
    9.3280   -4.5410   25.3530 C   0  0  0  0  0  0  0  0  0  0  0  0
    7.7720   -4.0740   27.3410 S   0  0  0  0  0  0  0  0  0  0  0  0
   11.3420    2.4810   23.6020 C   0  0  0  0  0  0  0  0  0  0  0  0
   12.6040    0.3340   22.9570 C   0  0  0  0  0  0  0  0  0  0  0  0
    9.3130   -5.6930   26.0740 C   0  0  0  0  0  0  0  0  0  0  0  0
    8.5060   -5.6070   27.2030 C   0  0  0  0  0  0  0  0  0  0  0  0
  1  2  1  0
  1  3  2  0
  1  4  1  0
  4  5  1  0
  4  6  1  0
  5  7  1  0
  6  8  1  0
  7  9  1  0
  8  9  1  0
  9 10  1  0
 10 11  1  1
 10 12  1  0
 11 13  2  0
 12 14  2  0
 12 15  1  0
 11 16  1  0
 14 17  1  0
 15 18  2  0
 16 19  2  0
 16 20  1  0
 17 21  1  0
 17 22  2  0
 18 22  1  0
 19 23  1  0
 20 24  1  0
 23 24  2  0
M  END
