x1386_0-x1412_1-x1412_0-x0831_0-x0981_1
     RDKit          3D

 38 41  0  0  0  0  0  0  0  0999 V2000
    4.1790   -5.2140   23.2720 C   0  0  0  0  0  0  0  0  0  0  0  0
    2.8660   -5.9650   23.5880 C   0  0  1  0  0  0  0  0  0  0  0  0
    2.7150   -7.2660   22.9070 N   0  0  0  0  0  0  0  0  0  0  0  0
    4.2740   -3.9770   23.6890 N   0  0  0  0  0  0  0  0  0  0  0  0
    2.7340   -6.2410   25.0910 C   0  0  0  0  0  0  0  0  0  0  0  0
    5.5330   -3.1830   23.4110 C   0  0  0  0  0  0  0  0  0  0  0  0
    1.5330   -7.5810   22.1230 C   0  0  0  0  0  0  0  0  0  0  0  0
    3.1220   -7.6740   25.3110 C   0  0  0  0  0  0  0  0  0  0  0  0
    6.4490   -3.8760   22.4000 C   0  0  1  0  0  0  0  0  0  0  0  0
    1.2490   -8.8140   21.2580 C   0  0  0  0  0  0  0  0  0  0  0  0
    0.5210   -6.5820   22.1550 O   0  0  0  0  0  0  0  0  0  0  0  0
    2.4490   -8.3440   26.2940 N   0  0  0  0  0  0  0  0  0  0  0  0
    3.9910   -8.1700   24.6310 O   0  0  0  0  0  0  0  0  0  0  0  0
    6.6320   -3.0190   21.2260 N   0  0  0  0  0  0  0  0  0  0  0  0
    7.6940   -4.0830   22.9970 C   0  0  0  0  0  0  0  0  0  0  0  0
    6.2900   -3.4650   19.9570 C   0  0  0  0  0  0  0  0  0  0  0  0
    8.2920   -2.7250   23.4850 C   0  0  1  0  0  0  0  0  0  0  0  0
    7.2880   -1.8340   21.3440 C   0  0  0  0  0  0  0  0  0  0  0  0
    7.1670   -3.0030   18.8130 C   0  0  0  0  0  0  0  0  0  0  0  0
    5.3410   -4.2200   19.7420 O   0  0  0  0  0  0  0  0  0  0  0  0
    8.3370   -2.6540   25.0260 C   0  0  2  0  0  0  0  0  0  0  0  0
    9.7130   -2.6380   22.9400 C   0  0  0  0  0  0  0  0  0  0  0  0
    7.6750   -1.4980   22.8310 C   0  0  0  0  0  0  0  0  0  0  0  0
    7.4750   -1.9660   25.5750 O   0  0  0  0  0  0  0  0  0  0  0  0
   10.5660   -2.0930   24.0530 C   0  0  2  0  0  0  0  0  0  0  0  0
    9.6500   -1.8980   25.2810 C   0  0  0  0  0  0  0  0  0  0  0  0
    8.5310   -3.9240   25.8370 C   0  0  0  0  0  0  0  0  0  0  0  0
    9.4340   -4.9320   25.5750 C   0  0  0  0  0  0  0  0  0  0  0  0
    7.6270   -4.2690   27.2610 S   0  0  0  0  0  0  0  0  0  0  0  0
   11.1870   -0.7890   23.7630 C   0  0  0  0  0  0  0  0  0  0  0  0
    9.3850   -5.9750   26.5300 C   0  0  0  0  0  0  0  0  0  0  0  0
    8.4480   -5.7360   27.4980 C   0  0  0  0  0  0  0  0  0  0  0  0
   10.5670    0.4810   24.2570 C   0  0  0  0  0  0  0  0  0  0  0  0
   12.4680   -0.8070   22.9600 C   0  0  0  0  0  0  0  0  0  0  0  0
   13.1560   -2.0090   22.4100 C   0  0  0  0  0  0  0  0  0  0  0  0
   11.1640    1.6540   23.9870 C   0  0  0  0  0  0  0  0  0  0  0  0
   12.9330    0.4930   22.8020 C   0  0  0  0  0  0  0  0  0  0  0  0
   12.3300    1.6560   23.2750 C   0  0  0  0  0  0  0  0  0  0  0  0
  2  1  1  1
  2  3  1  0
  1  4  2  3
  2  5  1  0
  4  6  1  0
  3  7  1  0
  5  8  1  0
  9  6  1  1
  7 10  1  0
  7 11  2  0
  8 12  1  0
  8 13  2  0
  9 14  1  0
  9 15  1  0
 14 16  1  0
 17 15  1  1
 14 18  1  0
 16 19  1  0
 16 20  2  0
 17 21  1  0
 17 22  1  0
 17 23  1  0
 18 23  1  0
 21 24  1  1
 22 25  1  0
 21 26  1  0
 25 26  1  0
 21 27  1  0
 27 28  2  0
 27 29  1  0
 25 30  1  6
 28 31  1  0
 29 32  1  0
 31 32  2  0
 30 33  2  0
 30 34  1  0
 34 35  1  0
 33 36  1  0
 34 37  2  0
 36 38  2  0
 37 38  1  0
M  END
