x1385_1-x1386_1-x1374_1-x0831_0-x0692_1-x1334_1-x1334_0-x0770_1-x1418_1-x0397_0-x0831_1
     RDKit          3D

 32 35  0  0  0  0  0  0  0  0999 V2000
    2.0920   -7.1070   23.6040 O   0  0  0  0  0  0  0  0  0  0  0  0
    2.5790   -7.4150   24.8980 C   0  0  0  0  0  0  0  0  0  0  0  0
    3.9470   -7.7790   24.8650 O   0  0  0  0  0  0  0  0  0  0  0  0
    4.6080   -7.1140   23.7950 C   0  0  0  0  0  0  0  0  0  0  0  0
    5.0140   -5.8660   24.2050 C   0  0  0  0  0  0  0  0  0  0  0  0
    5.9880   -5.3340   23.2010 C   0  0  2  0  0  0  0  0  0  0  0  0
    5.6680   -4.6140   22.2240 C   0  0  2  0  0  0  0  0  0  0  0  0
    6.2620   -6.0600   21.9490 C   0  0  0  0  0  0  0  0  0  0  0  0
    6.4510   -3.3130   22.3180 C   0  0  1  0  0  0  0  0  0  0  0  0
    7.9320   -3.5860   22.7260 C   0  0  0  0  0  0  0  0  0  0  0  0
    6.3970   -2.5990   21.1830 N   0  0  0  0  0  0  0  0  0  0  0  0
    6.3110   -3.2820   19.9560 C   0  0  0  0  0  0  0  0  0  0  0  0
    8.6270   -2.2950   23.0060 N   0  0  0  0  0  0  0  0  0  0  0  0
    7.1720   -1.3620   21.2150 C   0  0  0  0  0  0  0  0  0  0  0  0
    7.3340   -2.9790   18.8520 C   0  0  0  0  0  0  0  0  0  0  0  0
    5.4360   -4.1370   19.7650 O   0  0  0  0  0  0  0  0  0  0  0  0
   10.0580   -2.3670   23.3180 C   0  0  2  0  0  0  0  0  0  0  0  0
    8.5180   -1.4590   21.8290 C   0  0  0  0  0  0  0  0  0  0  0  0
   10.5460   -3.2300   24.4700 C   0  0  0  0  0  0  0  0  0  0  0  0
   10.7840   -1.0210   23.3650 C   0  0  0  0  0  0  0  0  0  0  0  0
   10.1670    0.1240   23.8840 C   0  0  0  0  0  0  0  0  0  0  0  0
   12.1140   -0.8690   22.8840 C   0  0  0  0  0  0  0  0  0  0  0  0
    9.6920   -4.1050   25.3540 C   0  0  0  0  0  0  0  0  0  0  0  0
   12.8930   -1.9930   22.2880 C   0  0  0  0  0  0  0  0  0  0  0  0
   10.8040    1.3590   23.9460 C   0  0  0  0  0  0  0  0  0  0  0  0
   12.7180    0.3820   22.9640 C   0  0  0  0  0  0  0  0  0  0  0  0
    9.9950   -5.4120   25.6460 C   0  0  0  0  0  0  0  0  0  0  0  0
    8.2390   -3.6700   26.1840 S   0  0  0  0  0  0  0  0  0  0  0  0
   12.0930    1.4890   23.4810 C   0  0  0  0  0  0  0  0  0  0  0  0
    9.1410   -6.0140   26.4960 C   0  0  0  0  0  0  0  0  0  0  0  0
    8.1000   -5.2140   26.9250 C   0  0  0  0  0  0  0  0  0  0  0  0
    6.8480   -5.6190   28.0150 Cl  0  0  0  0  0  0  0  0  0  0  0  0
  1  2  1  0
  2  3  1  0
  3  4  1  0
  4  5  1  0
  6  5  1  1
  6  7  1  0
  6  8  1  0
  7  8  1  6
  7  9  1  0
  9 10  1  6
  9 11  1  0
 11 12  1  0
 10 13  1  0
 11 14  1  0
 12 15  1  0
 12 16  2  0
 13 17  1  0
 13 18  1  0
 14 18  1  0
 17 19  1  1
 17 20  1  0
 20 21  2  0
 20 22  1  0
 19 23  1  0
 22 24  1  0
 21 25  1  0
 22 26  2  0
 23 27  2  0
 23 28  1  0
 25 29  2  0
 26 29  1  0
 27 30  1  0
 28 31  1  0
 30 31  2  0
 31 32  1  0
M  END
