x1392_0-x0978_1
     RDKit          3D

 30 32  0  0  0  0  0  0  0  0999 V2000
    4.0490   -5.9130   22.7760 C   0  0  0  0  0  0  0  0  0  0  0  0
    2.8640   -6.6620   23.3320 C   0  0  2  0  0  0  0  0  0  0  0  0
    1.9710   -5.9070   23.3480 N   0  0  0  0  0  0  0  0  0  0  0  0
    4.5750   -4.6520   22.9310 N   0  0  0  0  0  0  0  0  0  0  0  0
    3.1840   -7.2410   24.6980 C   0  0  1  0  0  0  0  0  0  0  0  0
    5.6910   -4.4440   22.1610 C   0  0  0  0  0  0  0  0  0  0  0  0
    0.7500   -6.2310   22.6010 C   0  0  0  0  0  0  0  0  0  0  0  0
    2.1750   -8.3560   24.9600 C   0  0  0  0  0  0  0  0  0  0  0  0
    4.2640   -7.7950   24.8500 O   0  0  0  0  0  0  0  0  0  0  0  0
    6.4580   -3.3440   22.5380 C   0  0  2  0  0  0  0  0  0  0  0  0
    0.6780   -7.1780   21.8280 O   0  0  0  0  0  0  0  0  0  0  0  0
   -0.4290   -5.3310   22.8460 C   0  0  0  0  0  0  0  0  0  0  0  0
    7.0570   -2.8500   21.2970 N   0  0  0  0  0  0  0  0  0  0  0  0
    7.4660   -3.7660   23.4670 C   0  0  0  0  0  0  0  0  0  0  0  0
    6.6930   -3.3260   19.9910 C   0  0  0  0  0  0  0  0  0  0  0  0
    8.1240   -2.0370   21.5080 C   0  0  0  0  0  0  0  0  0  0  0  0
    8.8120   -3.3850   23.2120 C   0  0  0  0  0  0  0  0  0  0  0  0
    7.0600   -4.5840   24.6580 C   0  0  0  0  0  0  0  0  0  0  0  0
    5.6900   -4.0570   19.7900 O   0  0  0  0  0  0  0  0  0  0  0  0
    7.5740   -2.9790   18.8240 C   0  0  0  0  0  0  0  0  0  0  0  0
    9.2150   -2.6290   22.1210 C   0  0  2  0  0  0  0  0  0  0  0  0
    8.1050   -4.9390   25.4930 C   0  0  0  0  0  0  0  0  0  0  0  0
    9.7930   -3.8140   24.1490 C   0  0  0  0  0  0  0  0  0  0  0  0
    9.4240   -4.5790   25.2630 C   0  0  0  0  0  0  0  0  0  0  0  0
   10.2210   -1.5790   22.6330 C   0  0  0  0  0  0  0  0  0  0  0  0
   11.5400   -1.5450   22.1230 C   0  0  0  0  0  0  0  0  0  0  0  0
    9.8590   -0.6450   23.6190 C   0  0  0  0  0  0  0  0  0  0  0  0
   12.4690   -0.6050   22.5810 C   0  0  0  0  0  0  0  0  0  0  0  0
   10.7930    0.2910   24.0720 C   0  0  0  0  0  0  0  0  0  0  0  0
   12.0980    0.3220   23.5610 C   0  0  0  0  0  0  0  0  0  0  0  0
  2  1  1  1
  2  3  1  0
  1  4  2  3
  2  5  1  0
  4  6  1  0
  3  7  1  0
  5  8  1  6
  5  9  1  0
 10  6  1  6
  7 11  2  0
  7 12  1  0
 10 13  1  0
 10 14  1  0
 13 15  1  0
 13 16  1  0
 14 17  2  0
 14 18  1  0
 15 19  2  0
 15 20  1  0
 16 21  1  0
 17 21  1  0
 18 22  2  0
 17 23  1  0
 22 24  1  0
 23 24  2  0
 21 25  1  1
 25 26  2  0
 25 27  1  0
 26 28  1  0
 27 29  2  0
 28 30  2  0
 29 30  1  0
M  END
