x1392_0-x0981_0
     RDKit          3D

 22 24  0  0  0  0  0  0  0  0999 V2000
    5.6740   -4.1210   19.8240 O   0  0  0  0  0  0  0  0  0  0  0  0
    6.6920   -3.4180   20.0310 C   0  0  0  0  0  0  0  0  0  0  0  0
    7.5300   -3.0220   18.8350 C   0  0  0  0  0  0  0  0  0  0  0  0
    7.1160   -3.0390   21.3420 N   0  0  0  0  0  0  0  0  0  0  0  0
    8.1520   -1.9970   21.5790 C   0  0  0  0  0  0  0  0  0  0  0  0
    6.8760   -3.9370   22.3830 C   0  0  1  0  0  0  0  0  0  0  0  0
    6.8300   -5.2440   21.9290 C   0  0  0  0  0  0  0  0  0  0  0  0
    9.3720   -2.5840   22.3100 C   0  0  2  0  0  0  0  0  0  0  0  0
    7.7970   -3.9660   23.4310 C   0  0  0  0  0  0  0  0  0  0  0  0
    5.4550   -5.7710   21.6330 C   0  0  0  0  0  0  0  0  0  0  0  0
    9.0390   -3.3300   23.4260 C   0  0  0  0  0  0  0  0  0  0  0  0
    7.4210   -4.7220   24.5560 C   0  0  0  0  0  0  0  0  0  0  0  0
   10.3790   -1.5100   22.6990 C   0  0  0  0  0  0  0  0  0  0  0  0
    4.8710   -6.5180   22.7490 N   0  0  0  0  0  0  0  0  0  0  0  0
    8.2630   -4.8430   25.6300 C   0  0  0  0  0  0  0  0  0  0  0  0
    9.8890   -3.4690   24.5370 C   0  0  0  0  0  0  0  0  0  0  0  0
   11.6980   -1.5240   22.1870 C   0  0  0  0  0  0  0  0  0  0  0  0
    9.9770   -0.5150   23.5840 C   0  0  0  0  0  0  0  0  0  0  0  0
    9.5040   -4.2210   25.6290 C   0  0  0  0  0  0  0  0  0  0  0  0
   12.6240   -0.5350   22.5640 C   0  0  0  0  0  0  0  0  0  0  0  0
   10.8950    0.4560   23.9490 C   0  0  0  0  0  0  0  0  0  0  0  0
   12.1930    0.4690   23.4660 C   0  0  0  0  0  0  0  0  0  0  0  0
  1  2  2  0
  2  3  1  0
  2  4  1  0
  4  5  1  0
  4  6  1  0
  6  7  1  6
  5  8  1  0
  6  9  1  0
  7 10  1  0
  8 11  1  0
  9 11  2  0
  9 12  1  0
  8 13  1  1
 10 14  1  0
 12 15  2  0
 11 16  1  0
 13 17  2  0
 13 18  1  0
 15 19  1  0
 16 19  2  0
 17 20  1  0
 18 21  2  0
 20 22  2  0
 21 22  1  0
M  END
