x1392_0-x1385_1-x0736_1
     RDKit          3D

 19 21  0  0  0  0  0  0  0  0999 V2000
    5.6640   -4.1890   19.8550 O   0  0  0  0  0  0  0  0  0  0  0  0
    6.6730   -3.4620   20.0110 C   0  0  0  0  0  0  0  0  0  0  0  0
    7.4820   -3.0600   18.8000 C   0  0  0  0  0  0  0  0  0  0  0  0
    7.1980   -3.0020   21.2380 N   0  0  0  0  0  0  0  0  0  0  0  0
    8.4840   -2.2370   21.3820 C   0  0  0  0  0  0  0  0  0  0  0  0
    6.4310   -3.1640   22.4990 C   0  0  0  0  0  0  0  0  0  0  0  0
    8.8540   -1.8570   22.8040 C   0  0  1  0  0  0  0  0  0  0  0  0
    7.3670   -3.7420   23.5630 C   0  0  0  0  0  0  0  0  0  0  0  0
    8.6920   -3.0370   23.7290 C   0  0  0  0  0  0  0  0  0  0  0  0
    7.0480   -4.8460   24.3560 C   0  0  0  0  0  0  0  0  0  0  0  0
   10.2020   -1.1580   22.9050 C   0  0  0  0  0  0  0  0  0  0  0  0
    8.0910   -5.3210   25.4010 C   0  0  0  0  0  0  0  0  0  0  0  0
    9.6310   -3.4670   24.6620 C   0  0  0  0  0  0  0  0  0  0  0  0
   11.3760   -1.6050   22.2750 C   0  0  0  0  0  0  0  0  0  0  0  0
   10.2560   -0.0050   23.6770 C   0  0  0  0  0  0  0  0  0  0  0  0
    9.3530   -4.6460   25.5440 C   0  0  0  0  0  0  0  0  0  0  0  0
   12.6260   -0.8950   22.4140 C   0  0  0  0  0  0  0  0  0  0  0  0
   11.4620    0.6730   23.8000 C   0  0  0  0  0  0  0  0  0  0  0  0
   12.6450    0.2510   23.1840 C   0  0  0  0  0  0  0  0  0  0  0  0
  1  2  2  0
  2  3  1  0
  2  4  1  0
  4  5  1  0
  4  6  1  0
  5  7  1  0
  6  8  1  0
  7  9  1  0
  8  9  2  0
  8 10  1  0
  7 11  1  6
 10 12  2  0
  9 13  1  0
 11 14  2  0
 11 15  1  0
 12 16  1  0
 13 16  2  0
 14 17  1  0
 15 18  2  0
 17 19  2  0
 18 19  1  0
M  END
