x1392_0-x0736_1-x1334_1
     RDKit          3D

 19 21  0  0  0  0  0  0  0  0999 V2000
    5.6900   -4.1940   19.8540 O   0  0  0  0  0  0  0  0  0  0  0  0
    6.6800   -3.4360   19.9990 C   0  0  0  0  0  0  0  0  0  0  0  0
    7.4650   -3.0410   18.7720 C   0  0  0  0  0  0  0  0  0  0  0  0
    7.1670   -2.9360   21.2270 N   0  0  0  0  0  0  0  0  0  0  0  0
    8.4710   -2.2250   21.3510 C   0  0  0  0  0  0  0  0  0  0  0  0
    6.4520   -3.2500   22.4750 C   0  0  0  0  0  0  0  0  0  0  0  0
    8.8700   -1.9080   22.7820 C   0  0  1  0  0  0  0  0  0  0  0  0
    7.3950   -3.7950   23.5820 C   0  0  0  0  0  0  0  0  0  0  0  0
    8.7180   -3.0650   23.7360 C   0  0  0  0  0  0  0  0  0  0  0  0
    7.0530   -4.8860   24.3890 C   0  0  0  0  0  0  0  0  0  0  0  0
   10.2040   -1.1850   22.8950 C   0  0  0  0  0  0  0  0  0  0  0  0
    8.0700   -5.3360   25.4560 C   0  0  0  0  0  0  0  0  0  0  0  0
    9.6780   -3.4310   24.6770 C   0  0  0  0  0  0  0  0  0  0  0  0
   11.3800   -1.6440   22.2760 C   0  0  0  0  0  0  0  0  0  0  0  0
   10.2720    0.0730   23.7000 C   0  0  0  0  0  0  0  0  0  0  0  0
    9.4230   -4.5820   25.5940 C   0  0  0  0  0  0  0  0  0  0  0  0
   12.5760   -0.9250   22.4220 C   0  0  0  0  0  0  0  0  0  0  0  0
   11.4890    0.7410   23.8040 C   0  0  0  0  0  0  0  0  0  0  0  0
   12.6230    0.2480   23.1730 C   0  0  0  0  0  0  0  0  0  0  0  0
  1  2  2  0
  2  3  1  0
  2  4  1  0
  4  5  1  0
  4  6  1  0
  5  7  1  0
  6  8  1  0
  7  9  1  0
  8  9  2  0
  8 10  1  0
  7 11  1  6
 10 12  2  0
  9 13  1  0
 11 14  2  0
 11 15  1  0
 12 16  1  0
 13 16  2  0
 14 17  1  0
 15 18  2  0
 17 19  2  0
 18 19  1  0
M  END
