x1392_0-x1412_1
     RDKit          3D

 19 21  0  0  0  0  0  0  0  0999 V2000
    5.7030   -4.1570   19.8550 O   0  0  0  0  0  0  0  0  0  0  0  0
    6.6780   -3.3650   19.9450 C   0  0  0  0  0  0  0  0  0  0  0  0
    7.5090   -3.0480   18.7350 C   0  0  0  0  0  0  0  0  0  0  0  0
    7.1650   -2.7070   21.0880 N   0  0  0  0  0  0  0  0  0  0  0  0
    7.9310   -1.7710   21.8950 C   0  0  0  0  0  0  0  0  0  0  0  0
    6.5410   -3.3510   22.3000 C   0  0  0  0  0  0  0  0  0  0  0  0
    9.2590   -2.4600   22.1880 C   0  0  2  0  0  0  0  0  0  0  0  0
    7.4250   -3.8230   23.3170 C   0  0  0  0  0  0  0  0  0  0  0  0
    8.8880   -3.3920   23.3180 C   0  0  0  0  0  0  0  0  0  0  0  0
    6.9010   -4.7450   24.3930 C   0  0  0  0  0  0  0  0  0  0  0  0
   10.3430   -1.4920   22.6290 C   0  0  0  0  0  0  0  0  0  0  0  0
    7.8010   -5.1510   25.3350 C   0  0  0  0  0  0  0  0  0  0  0  0
    9.7540   -3.8450   24.3070 C   0  0  0  0  0  0  0  0  0  0  0  0
   11.6480   -1.5440   22.1180 C   0  0  0  0  0  0  0  0  0  0  0  0
    9.9830   -0.5270   23.5870 C   0  0  0  0  0  0  0  0  0  0  0  0
    9.2590   -4.7570   25.3780 C   0  0  0  0  0  0  0  0  0  0  0  0
   12.5950   -0.6310   22.5590 C   0  0  0  0  0  0  0  0  0  0  0  0
   10.8950    0.4190   24.0700 C   0  0  0  0  0  0  0  0  0  0  0  0
   12.2930    0.3320   23.4900 C   0  0  0  0  0  0  0  0  0  0  0  0
  1  2  2  0
  2  3  1  0
  2  4  1  0
  4  5  1  0
  4  6  1  0
  5  7  1  0
  6  8  1  0
  7  9  1  0
  8  9  2  0
  8 10  1  0
  7 11  1  1
 10 12  2  0
  9 13  1  0
 11 14  2  0
 11 15  1  0
 12 16  1  0
 13 16  2  0
 14 17  1  0
 15 18  2  0
 17 19  2  0
 18 19  1  0
M  END
