x1392_0-x0426_0
     RDKit          3D

 32 35  0  0  0  0  0  0  0  0999 V2000
    5.6460   -4.1500   19.8400 O   0  0  0  0  0  0  0  0  0  0  0  0
    6.6250   -3.3830   20.0240 C   0  0  0  0  0  0  0  0  0  0  0  0
    7.5430   -3.0420   18.8790 C   0  0  0  0  0  0  0  0  0  0  0  0
    6.9820   -2.8120   21.2880 N   0  0  0  0  0  0  0  0  0  0  0  0
    8.2060   -1.9670   21.4510 C   0  0  0  0  0  0  0  0  0  0  0  0
    6.4160   -3.0800   22.6160 C   0  0  2  0  0  0  0  0  0  0  0  0
    5.7950   -1.8320   23.1650 C   0  0  0  0  0  0  0  0  0  0  0  0
    9.2350   -2.6500   22.1280 C   0  0  2  0  0  0  0  0  0  0  0  0
    7.4060   -3.6510   23.4340 C   0  0  0  0  0  0  0  0  0  0  0  0
    5.5470   -0.7750   22.0890 C   0  0  0  0  0  0  0  0  0  0  0  0
    8.7720   -3.4400   23.1970 C   0  0  0  0  0  0  0  0  0  0  0  0
    6.9980   -4.4570   24.5220 C   0  0  0  0  0  0  0  0  0  0  0  0
   10.2100   -1.5790   22.6380 C   0  0  0  0  0  0  0  0  0  0  0  0
    4.1100   -0.2790   22.1040 C   0  0  0  0  0  0  0  0  0  0  0  0
    7.9640   -5.0790   25.4100 C   0  0  0  0  0  0  0  0  0  0  0  0
    9.7350   -4.0340   24.0390 C   0  0  0  0  0  0  0  0  0  0  0  0
   11.5300   -1.5220   22.1740 C   0  0  0  0  0  0  0  0  0  0  0  0
    9.8280   -0.6060   23.5930 C   0  0  0  0  0  0  0  0  0  0  0  0
    3.9860    0.9750   22.9390 C   0  0  0  0  0  0  0  0  0  0  0  0
    9.3200   -4.9020   25.2140 C   0  0  0  0  0  0  0  0  0  0  0  0
   12.4800   -0.4570   22.6860 C   0  0  0  0  0  0  0  0  0  0  0  0
   10.7240    0.3830   24.0620 C   0  0  0  0  0  0  0  0  0  0  0  0
    2.7800    0.9340   23.7930 N   0  0  0  0  0  0  0  0  0  0  0  0
   12.0480    0.4630   23.6130 C   0  0  0  0  0  0  0  0  0  0  0  0
    2.2680    2.1760   23.8710 C   0  0  0  0  0  0  0  0  0  0  0  0
    1.1200    2.7400   24.5760 C   0  0  0  0  0  0  0  0  0  0  0  0
   -0.1560    2.1800   24.5630 C   0  0  0  0  0  0  0  0  0  0  0  0
    1.3660    3.9070   25.2890 C   0  0  0  0  0  0  0  0  0  0  0  0
    2.5960    4.4450   25.3000 F   0  0  0  0  0  0  0  0  0  0  0  0
   -1.1840    2.8040   25.2750 C   0  0  0  0  0  0  0  0  0  0  0  0
    0.3490    4.5330   25.9980 C   0  0  0  0  0  0  0  0  0  0  0  0
   -0.9320    3.9790   25.9910 C   0  0  0  0  0  0  0  0  0  0  0  0
  1  2  2  0
  2  3  1  0
  2  4  1  0
  4  5  1  0
  4  6  1  0
  6  7  1  1
  5  8  1  0
  6  9  1  0
  7 10  1  0
  8 11  1  0
  9 11  2  0
  9 12  1  0
  8 13  1  1
 10 14  1  0
 12 15  2  0
 11 16  1  0
 13 17  2  0
 13 18  1  0
 14 19  1  0
 15 20  1  0
 16 20  2  0
 17 21  1  0
 18 22  2  0
 19 23  1  0
 21 24  2  0
 22 24  1  0
 23 25  2  3
 25 26  1  0
 26 27  2  0
 26 28  1  0
 28 29  1  0
 27 30  1  0
 28 31  2  0
 30 32  2  0
 31 32  1  0
M  END
