x1392_0-x1412_1-x1334_1
     RDKit          3D

 19 21  0  0  0  0  0  0  0  0999 V2000
    5.6390   -4.1230   19.8130 O   0  0  0  0  0  0  0  0  0  0  0  0
    6.6050   -3.3460   20.0020 C   0  0  0  0  0  0  0  0  0  0  0  0
    7.4840   -3.0180   18.8150 C   0  0  0  0  0  0  0  0  0  0  0  0
    6.9480   -2.7800   21.2500 N   0  0  0  0  0  0  0  0  0  0  0  0
    8.0940   -1.8580   21.4460 C   0  0  0  0  0  0  0  0  0  0  0  0
    6.3660   -3.2630   22.5080 C   0  0  0  0  0  0  0  0  0  0  0  0
    9.3270   -2.5230   22.1700 C   0  0  2  0  0  0  0  0  0  0  0  0
    7.3840   -3.8000   23.5420 C   0  0  0  0  0  0  0  0  0  0  0  0
    8.8760   -3.4010   23.3300 C   0  0  0  0  0  0  0  0  0  0  0  0
    6.9390   -4.6070   24.6120 C   0  0  0  0  0  0  0  0  0  0  0  0
   10.3480   -1.5110   22.6370 C   0  0  0  0  0  0  0  0  0  0  0  0
    7.8960   -5.1630   25.6700 C   0  0  0  0  0  0  0  0  0  0  0  0
    9.8670   -3.9290   24.3530 C   0  0  0  0  0  0  0  0  0  0  0  0
   11.6650   -1.4950   22.1450 C   0  0  0  0  0  0  0  0  0  0  0  0
    9.9560   -0.5740   23.5920 C   0  0  0  0  0  0  0  0  0  0  0  0
    9.3680   -4.7990   25.5040 C   0  0  0  0  0  0  0  0  0  0  0  0
   12.5650   -0.5430   22.6090 C   0  0  0  0  0  0  0  0  0  0  0  0
   10.8660    0.3720   24.0490 C   0  0  0  0  0  0  0  0  0  0  0  0
   12.1710    0.3940   23.5600 C   0  0  0  0  0  0  0  0  0  0  0  0
  1  2  2  0
  2  3  1  0
  2  4  1  0
  4  5  1  0
  4  6  1  0
  5  7  1  0
  6  8  1  0
  7  9  1  0
  8  9  2  0
  8 10  1  0
  7 11  1  1
 10 12  2  0
  9 13  1  0
 11 14  2  0
 11 15  1  0
 12 16  1  0
 13 16  2  0
 14 17  1  0
 15 18  2  0
 17 19  2  0
 18 19  1  0
M  END
