x1392
     RDKit          3D

 20 22  0  0  0  0  0  0  0  0999 V2000
    6.1150   -4.2330   19.9800 O   0  0  0  0  0  0  0  0  0  0  0  0
    6.8480   -3.2560   20.0510 C   0  0  0  0  0  0  0  0  0  0  0  0
    7.3510   -2.6280   18.7810 C   0  0  0  0  0  0  0  0  0  0  0  0
    7.2200   -2.7100   21.2400 N   0  0  0  0  0  0  0  0  0  0  0  0
    6.5310   -3.0850   22.4760 C   0  0  0  0  0  0  0  0  0  0  0  0
    7.5140   -3.6260   23.4770 C   0  0  0  0  0  0  0  0  0  0  0  0
    7.0540   -4.4580   24.4990 C   0  0  0  0  0  0  0  0  0  0  0  0
    7.9290   -4.9720   25.4370 C   0  0  0  0  0  0  0  0  0  0  0  0
    9.2740   -4.6650   25.3670 C   0  0  0  0  0  0  0  0  0  0  0  0
    9.7440   -3.8400   24.3570 C   0  0  0  0  0  0  0  0  0  0  0  0
    8.8720   -3.3010   23.4030 C   0  0  0  0  0  0  0  0  0  0  0  0
    9.4180   -2.4070   22.2940 C   0  0  2  0  0  0  0  0  0  0  0  0
   10.3870   -1.3510   22.7860 C   0  0  0  0  0  0  0  0  0  0  0  0
   11.6700   -1.2590   22.2600 C   0  0  0  0  0  0  0  0  0  0  0  0
   12.5550   -0.2960   22.7130 C   0  0  0  0  0  0  0  0  0  0  0  0
   12.1700    0.5960   23.6880 C   0  0  0  0  0  0  0  0  0  0  0  0
   10.9030    0.5240   24.2170 C   0  0  0  0  0  0  0  0  0  0  0  0
   10.0160   -0.4430   23.7700 C   0  0  0  0  0  0  0  0  0  0  0  0
    8.3070   -1.7570   21.4740 C   0  0  0  0  0  0  0  0  0  0  0  0
    8.9330   -3.4060   18.3800 R   0  0  0  0  0  0  0  0  0  0  0  0
  1  2  2  0
  2  3  1  0
  2  4  1  0
  4  5  1  0
  5  6  1  0
  6  7  1  0
  7  8  2  0
  8  9  1  0
  9 10  2  0
  6 11  2  0
 10 11  1  0
 11 12  1  0
 12 13  1  1
 13 14  2  0
 14 15  1  0
 15 16  2  0
 16 17  1  0
 13 18  1  0
 17 18  2  0
  4 19  1  0
 12 19  1  0
  3 20  1  0
M  END
