x1392_0-x0769_1
     RDKit          3D

 32 35  0  0  0  0  0  0  0  0999 V2000
    5.5960   -4.1440   19.8160 O   0  0  0  0  0  0  0  0  0  0  0  0
    6.5720   -3.3860   19.9860 C   0  0  0  0  0  0  0  0  0  0  0  0
    7.4950   -3.0260   18.8340 C   0  0  0  0  0  0  0  0  0  0  0  0
    6.9300   -2.8370   21.2370 N   0  0  0  0  0  0  0  0  0  0  0  0
    8.0900   -1.9630   21.4990 C   0  0  0  0  0  0  0  0  0  0  0  0
    6.4540   -3.5170   22.4220 C   0  0  0  0  0  0  0  0  0  0  0  0
    9.2250   -2.6810   22.2530 C   0  0  2  0  0  0  0  0  0  0  0  0
    7.4320   -3.8850   23.3410 C   0  0  0  0  0  0  0  0  0  0  0  0
    8.8580   -3.4520   23.2510 C   0  0  0  0  0  0  0  0  0  0  0  0
    7.1280   -4.7520   24.5160 C   0  0  0  0  0  0  0  0  0  0  0  0
   10.1890   -1.6260   22.7620 C   0  0  0  0  0  0  0  0  0  0  0  0
    8.1550   -5.1780   25.5620 C   0  0  0  0  0  0  0  0  0  0  0  0
    9.8880   -3.8640   24.2750 C   0  0  0  0  0  0  0  0  0  0  0  0
   11.4410   -1.4330   22.1150 C   0  0  0  0  0  0  0  0  0  0  0  0
    9.8500   -0.7700   23.9640 C   0  0  0  0  0  0  0  0  0  0  0  0
    8.6000   -0.8150   24.8450 C   0  0  0  0  0  0  0  0  0  0  0  0
    9.5770   -4.6660   25.3560 C   0  0  0  0  0  0  0  0  0  0  0  0
   12.3570   -0.5210   22.4970 C   0  0  0  0  0  0  0  0  0  0  0  0
   10.7860    0.1590   24.3280 C   0  0  0  0  0  0  0  0  0  0  0  0
    7.2370   -1.0740   24.2090 C   0  0  0  0  0  0  0  0  0  0  0  0
   12.1060    0.3190   23.5870 C   0  0  0  0  0  0  0  0  0  0  0  0
    6.1490   -1.0410   25.2690 C   0  0  0  0  0  0  0  0  0  0  0  0
    5.6280   -2.3380   25.6580 O   0  0  0  0  0  0  0  0  0  0  0  0
    4.2670   -2.4780   25.7790 C   0  0  0  0  0  0  0  0  0  0  0  0
    3.6950   -3.7670   25.8550 C   0  0  0  0  0  0  0  0  0  0  0  0
    3.3910   -1.3900   25.8330 C   0  0  0  0  0  0  0  0  0  0  0  0
    4.6580   -5.2430   25.8130 S   0  0  0  0  0  0  0  0  0  0  0  0
    2.3120   -3.9550   25.9700 C   0  0  0  0  0  0  0  0  0  0  0  0
    2.0130   -1.5750   25.9530 C   0  0  0  0  0  0  0  0  0  0  0  0
    5.8020   -5.0970   26.6970 O   0  0  0  0  0  0  0  0  0  0  0  0
    3.7740   -6.3870   25.9390 O   0  0  0  0  0  0  0  0  0  0  0  0
    1.4720   -2.8510   26.0180 C   0  0  0  0  0  0  0  0  0  0  0  0
  1  2  2  0
  2  3  1  0
  2  4  1  0
  4  5  1  0
  4  6  1  0
  5  7  1  0
  6  8  1  0
  7  9  1  0
  8  9  2  0
  8 10  1  0
  7 11  1  1
 10 12  2  0
  9 13  1  0
 11 14  2  0
 11 15  1  0
 15 16  1  0
 12 17  1  0
 13 17  2  0
 14 18  1  0
 15 19  2  0
 16 20  1  0
 18 21  2  0
 19 21  1  0
 20 22  1  0
 22 23  1  0
 23 24  1  0
 24 25  2  0
 24 26  1  0
 25 27  1  0
 25 28  1  0
 26 29  2  0
 27 30  2  0
 27 31  2  0
 28 32  2  0
 29 32  1  0
M  END
