x1392_0-x0397_0
     RDKit          3D

 24 28  0  0  0  0  0  0  0  0999 V2000
    5.6900   -4.0790   19.8260 O   0  0  0  0  0  0  0  0  0  0  0  0
    6.6430   -3.2740   19.9870 C   0  0  0  0  0  0  0  0  0  0  0  0
    7.5190   -3.0000   18.7880 C   0  0  0  0  0  0  0  0  0  0  0  0
    7.0110   -2.6000   21.1880 N   0  0  0  0  0  0  0  0  0  0  0  0
    8.2550   -1.8210   21.4100 C   0  0  0  0  0  0  0  0  0  0  0  0
    6.5700   -3.0810   22.4990 C   0  0  2  0  0  0  0  0  0  0  0  0
    8.7670   -1.9760   22.7140 C   0  0  1  0  0  0  0  0  0  0  0  0
    7.5750   -3.8740   23.0700 C   0  0  1  0  0  0  0  0  0  0  0  0
    5.3470   -3.9780   22.6760 C   0  0  2  0  0  0  0  0  0  0  0  0
    8.8000   -3.3190   23.0900 C   0  0  2  0  0  0  0  0  0  0  0  0
    7.0530   -4.3290   24.4040 C   0  0  1  0  0  0  0  0  0  0  0  0
   10.1310   -1.2680   22.8450 C   0  0  0  0  0  0  0  0  0  0  0  0
    5.7930   -5.0390   23.7850 C   0  0  2  0  0  0  0  0  0  0  0  0
    5.2210   -5.0430   21.7510 C   0  0  0  0  0  0  0  0  0  0  0  0
    7.9180   -5.1680   25.0850 C   0  0  0  0  0  0  0  0  0  0  0  0
    9.5310   -3.4920   24.4520 C   0  0  0  0  0  0  0  0  0  0  0  0
   11.3170   -1.7280   22.2230 C   0  0  0  0  0  0  0  0  0  0  0  0
   10.1350    0.0020   23.7090 C   0  0  0  0  0  0  0  0  0  0  0  0
    5.4630   -6.2580   21.6640 C   0  0  0  0  0  0  0  0  0  0  0  0
    6.0420   -6.4480   23.0340 C   0  0  0  0  0  0  0  0  0  0  0  0
    9.2640   -4.6980   25.0970 C   0  0  0  0  0  0  0  0  0  0  0  0
   12.5480   -1.0460   22.3660 C   0  0  0  0  0  0  0  0  0  0  0  0
   11.4630    0.7140   23.8400 C   0  0  0  0  0  0  0  0  0  0  0  0
   12.5850    0.2200   23.2110 C   0  0  0  0  0  0  0  0  0  0  0  0
  1  2  2  0
  2  3  1  0
  2  4  1  0
  4  5  1  0
  6  4  1  6
  5  7  1  0
  8  6  1  1
  6  9  1  0
  7 10  1  0
  8 10  1  0
  8 11  1  0
  7 12  1  6
  9 13  1  0
 11 13  1  0
  9 14  1  6
 11 15  1  6
 10 16  1  1
 12 17  2  0
 12 18  1  0
 14 19  2  0
 13 20  1  6
 19 20  1  0
 15 21  2  0
 16 21  1  0
 17 22  1  0
 18 23  2  0
 22 24  2  0
 23 24  1  0
M  END
