x1392_0-x0759_1
     RDKit          3D

 19 21  0  0  0  0  0  0  0  0999 V2000
    5.6720   -4.1770   19.8390 O   0  0  0  0  0  0  0  0  0  0  0  0
    6.6550   -3.4240   20.0060 C   0  0  0  0  0  0  0  0  0  0  0  0
    7.4880   -3.0210   18.8100 C   0  0  0  0  0  0  0  0  0  0  0  0
    7.0900   -2.9240   21.2680 N   0  0  0  0  0  0  0  0  0  0  0  0
    8.4470   -2.2490   21.3780 C   0  0  0  0  0  0  0  0  0  0  0  0
    6.4330   -3.3450   22.5130 C   0  0  0  0  0  0  0  0  0  0  0  0
    8.8830   -1.9110   22.8080 C   0  0  1  0  0  0  0  0  0  0  0  0
    7.4010   -3.8160   23.5780 C   0  0  0  0  0  0  0  0  0  0  0  0
    8.7080   -3.0700   23.7410 C   0  0  0  0  0  0  0  0  0  0  0  0
    7.1430   -4.9000   24.4130 C   0  0  0  0  0  0  0  0  0  0  0  0
   10.2300   -1.2040   22.8930 C   0  0  0  0  0  0  0  0  0  0  0  0
    8.1800   -5.3030   25.4620 C   0  0  0  0  0  0  0  0  0  0  0  0
    9.6400   -3.4730   24.7100 C   0  0  0  0  0  0  0  0  0  0  0  0
   11.4050   -1.6440   22.2560 C   0  0  0  0  0  0  0  0  0  0  0  0
   10.2800   -0.0420   23.6660 C   0  0  0  0  0  0  0  0  0  0  0  0
    9.3780   -4.5620   25.5480 C   0  0  0  0  0  0  0  0  0  0  0  0
   12.5960   -0.9230   22.4000 C   0  0  0  0  0  0  0  0  0  0  0  0
   11.4670    0.6670   23.8000 C   0  0  0  0  0  0  0  0  0  0  0  0
   12.6180    0.2310   23.1710 C   0  0  0  0  0  0  0  0  0  0  0  0
  1  2  2  0
  2  3  1  0
  2  4  1  0
  4  5  1  0
  4  6  1  0
  5  7  1  0
  6  8  1  0
  7  9  1  0
  8  9  2  0
  8 10  1  0
  7 11  1  6
 10 12  2  0
  9 13  1  0
 11 14  2  0
 11 15  1  0
 12 16  1  0
 13 16  2  0
 14 17  1  0
 15 18  2  0
 17 19  2  0
 18 19  1  0
M  END
