x1402_1-x0978_1-x1412_0-x1386_0
     RDKit          3D

 32 34  0  0  0  0  0  0  0  0999 V2000
    3.5390   -6.4180   23.3200 C   0  0  2  0  0  0  0  0  0  0  0  0
    2.5960   -5.5220   23.2220 N   0  0  0  0  0  0  0  0  0  0  0  0
    1.2580   -6.0460   22.7850 C   0  0  0  0  0  0  0  0  0  0  0  0
    3.2070   -7.1590   24.5990 C   0  0  1  0  0  0  0  0  0  0  0  0
    5.0280   -5.9480   23.3410 C   0  0  2  0  0  0  0  0  0  0  0  0
    2.0310   -8.1260   24.4710 C   0  0  0  0  0  0  0  0  0  0  0  0
    4.3270   -7.9050   25.0130 O   0  0  0  0  0  0  0  0  0  0  0  0
    5.4010   -4.5220   23.8310 N   0  0  0  0  0  0  0  0  0  0  0  0
    5.7350   -6.4480   22.2120 C   0  0  0  0  0  0  0  0  0  0  0  0
    4.2180   -3.7440   23.5000 O   0  0  0  0  0  0  0  0  0  0  0  0
    1.1310   -7.0650   22.1100 O   0  0  0  0  0  0  0  0  0  0  0  0
    0.0230   -5.2860   23.2260 C   0  0  0  0  0  0  0  0  0  0  0  0
    6.5610   -3.9180   23.0680 C   0  0  1  0  0  0  0  0  0  0  0  0
    6.6920   -5.5060   21.6420 N   0  0  0  0  0  0  0  0  0  0  0  0
    6.3700   -4.6930   20.5460 C   0  0  0  0  0  0  0  0  0  0  0  0
    7.2940   -2.6220   23.5900 C   0  0  0  0  0  0  0  0  0  0  0  0
    7.4510   -4.8560   22.6820 C   0  0  0  0  0  0  0  0  0  0  0  0
    7.2800   -3.5690   20.0270 C   0  0  0  0  0  0  0  0  0  0  0  0
    5.3100   -4.9060   19.9840 O   0  0  0  0  0  0  0  0  0  0  0  0
    8.3000   -2.6030   24.7940 C   0  0  2  0  0  0  0  0  0  0  0  0
    8.4730   -1.5570   25.4110 O   0  0  0  0  0  0  0  0  0  0  0  0
    9.1550   -2.5730   23.4920 C   0  0  0  0  0  0  0  0  0  0  0  0
    8.5640   -3.7850   25.6770 C   0  0  0  0  0  0  0  0  0  0  0  0
    9.4150   -4.8920   25.4120 C   0  0  0  0  0  0  0  0  0  0  0  0
    7.8520   -4.0060   27.2350 S   0  0  0  0  0  0  0  0  0  0  0  0
   10.3840   -1.6260   23.4990 C   0  0  0  0  0  0  0  0  0  0  0  0
    9.4620   -5.8350   26.4160 C   0  0  0  0  0  0  0  0  0  0  0  0
    8.6550   -5.5080   27.5100 C   0  0  0  0  0  0  0  0  0  0  0  0
   11.5100   -1.7480   22.6050 C   0  0  0  0  0  0  0  0  0  0  0  0
   10.6740   -0.4220   24.3790 C   0  0  0  0  0  0  0  0  0  0  0  0
   12.5140   -0.7710   22.7790 C   0  0  0  0  0  0  0  0  0  0  0  0
   12.2420    0.4050   24.0170 S   0  0  0  0  0  0  0  0  0  0  0  0
  1  2  1  1
  2  3  1  0
  1  4  1  0
  1  5  1  0
  4  6  1  6
  4  7  1  0
  5  8  1  0
  5  9  1  6
  8 10  1  0
  3 11  2  0
  3 12  1  0
  8 13  1  0
  9 14  1  0
 14 15  1  0
 13 16  1  1
 13 17  1  0
 14 17  1  0
 15 18  1  0
 15 19  2  0
 16 20  1  0
 20 21  1  1
 20 22  1  0
 20 23  1  0
 23 24  2  0
 23 25  1  0
 22 26  1  0
 24 27  1  0
 25 28  1  0
 27 28  2  0
 26 29  1  0
 26 30  2  0
 29 31  2  0
 30 32  1  0
 31 32  1  0
M  END
