x1402_1-x0755_0-x1386_0
     RDKit          3D

 17 18  0  0  0  0  0  0  0  0999 V2000
    6.5710   -4.5990   20.6660 C   0  0  0  0  0  0  0  0  0  0  0  0
    7.7990   -3.7050   20.3740 C   0  0  0  0  0  0  0  0  0  0  0  0
    5.5520   -4.5490   19.9510 O   0  0  0  0  0  0  0  0  0  0  0  0
    6.6670   -5.4560   21.7540 N   0  0  0  0  0  0  0  0  0  0  0  0
    7.7050   -5.2750   22.7590 C   0  0  0  0  0  0  0  0  0  0  0  0
    5.5600   -6.2310   22.2790 C   0  0  0  0  0  0  0  0  0  0  0  0
    7.1390   -4.7030   24.0850 C   0  0  1  0  0  0  0  0  0  0  0  0
    4.8730   -5.5460   23.2620 C   0  0  0  0  0  0  0  0  0  0  0  0
    7.4010   -3.1800   24.1200 C   0  0  0  0  0  0  0  0  0  0  0  0
    5.7110   -5.0380   24.3770 N   0  0  0  0  0  0  0  0  0  0  0  0
    8.7850   -2.7270   24.6590 C   0  0  0  0  0  0  0  0  0  0  0  0
   10.0100   -2.8850   23.7360 C   0  0  0  0  0  0  0  0  0  0  0  0
   10.9660   -1.7140   23.6260 C   0  0  0  0  0  0  0  0  0  0  0  0
   11.9910   -1.6490   22.7030 C   0  0  0  0  0  0  0  0  0  0  0  0
   10.9690   -0.5520   24.4080 C   0  0  0  0  0  0  0  0  0  0  0  0
   12.7260   -0.5340   22.7600 C   0  0  0  0  0  0  0  0  0  0  0  0
   12.2180    0.5430   23.9600 S   0  0  0  0  0  0  0  0  0  0  0  0
  1  2  1  0
  1  3  2  0
  1  4  1  0
  4  5  1  0
  4  6  1  0
  5  7  1  0
  6  8  1  0
  7  9  1  6
  7 10  1  0
  8 10  1  0
  9 11  1  0
 11 12  1  0
 12 13  1  0
 13 14  1  0
 13 15  2  0
 14 16  2  0
 15 17  1  0
 16 17  1  0
M  END
