x1402_1-x0689_1
     RDKit          3D

  9  9  0  0  0  0  0  0  0  0999 V2000
    6.4620   -4.6400   20.7090 C   0  0  0  0  0  0  0  0  0  0  0  0
    7.6180   -3.6900   20.4080 C   0  0  0  0  0  0  0  0  0  0  0  0
    5.4610   -4.7100   19.9750 O   0  0  0  0  0  0  0  0  0  0  0  0
    6.6210   -5.4250   21.8550 N   0  0  0  0  0  0  0  0  0  0  0  0
    7.3550   -4.9650   23.0380 C   0  0  0  0  0  0  0  0  0  0  0  0
    5.5960   -6.4070   22.1600 C   0  0  0  0  0  0  0  0  0  0  0  0
    6.3950   -4.3060   24.0360 C   0  0  0  0  0  0  0  0  0  0  0  0
    4.6750   -5.8930   23.2810 C   0  0  0  0  0  0  0  0  0  0  0  0
    5.3520   -5.2420   24.4340 N   0  0  0  0  0  0  0  0  0  0  0  0
  1  2  1  0
  1  3  2  0
  1  4  1  0
  4  5  1  0
  4  6  1  0
  5  7  1  0
  6  8  1  0
  7  9  1  0
  8  9  1  0
M  END
