x1402_1-x0387_0-x0689_0
     RDKit          3D

 25 27  0  0  0  0  0  0  0  0999 V2000
    6.3110   -4.5040   20.4740 C   0  0  0  0  0  0  0  0  0  0  0  0
    7.3090   -3.4800   19.9090 C   0  0  0  0  0  0  0  0  0  0  0  0
    5.2280   -4.6910   19.9330 O   0  0  0  0  0  0  0  0  0  0  0  0
    6.6490   -5.2670   21.5990 N   0  0  0  0  0  0  0  0  0  0  0  0
    7.5690   -4.7040   22.5760 C   0  0  0  0  0  0  0  0  0  0  0  0
    5.7510   -6.2670   22.1630 C   0  0  0  0  0  0  0  0  0  0  0  0
    6.8610   -4.1640   23.8350 C   0  0  2  0  0  0  0  0  0  0  0  0
    4.9360   -5.7270   23.1530 C   0  0  0  0  0  0  0  0  0  0  0  0
    7.9310   -3.8190   24.9220 C   0  0  0  0  0  0  0  0  0  0  0  0
    5.7520   -5.1300   24.2570 N   0  0  0  0  0  0  0  0  0  0  0  0
    4.9500   -5.0510   25.7680 S   0  0  0  0  0  0  0  0  0  0  0  0
    9.3270   -3.3750   24.3840 C   0  0  0  0  0  0  0  0  0  0  0  0
    4.3280   -6.3360   26.0270 O   0  0  0  0  0  0  0  0  0  0  0  0
    5.8940   -4.5040   26.7180 O   0  0  0  0  0  0  0  0  0  0  0  0
    9.5800   -1.8420   24.3430 C   0  0  0  0  0  0  0  0  0  0  0  0
    3.6200   -3.8760   25.6580 C   0  0  0  0  0  0  0  0  0  0  0  0
    4.0200   -2.2170   25.9850 S   0  0  0  0  0  0  0  0  0  0  0  0
    2.2670   -4.0910   25.3520 C   0  0  0  0  0  0  0  0  0  0  0  0
   10.8890   -1.4380   23.6890 C   0  0  0  0  0  0  0  0  0  0  0  0
    2.4260   -1.6690   25.7520 C   0  0  0  0  0  0  0  0  0  0  0  0
    1.4670   -2.7950   25.3920 C   0  0  0  0  0  0  0  0  0  0  0  0
   11.6320   -0.3240   24.0220 C   0  0  0  0  0  0  0  0  0  0  0  0
   11.5330   -2.1400   22.6450 C   0  0  0  0  0  0  0  0  0  0  0  0
   12.9000   -0.1980   23.1720 C   0  0  0  0  0  0  0  0  0  0  0  0
   13.0290   -1.4720   22.0680 S   0  0  0  0  0  0  0  0  0  0  0  0
  1  2  1  0
  1  3  2  0
  1  4  1  0
  4  5  1  0
  4  6  1  0
  5  7  1  0
  6  8  1  0
  7  9  1  1
  7 10  1  0
  8 10  1  0
 10 11  1  0
  9 12  1  0
 11 13  2  0
 11 14  2  0
 12 15  1  0
 11 16  1  0
 16 17  1  0
 16 18  2  0
 15 19  1  0
 17 20  1  0
 18 21  1  0
 20 21  2  0
 19 22  1  0
 19 23  2  0
 22 24  2  0
 23 25  1  0
 24 25  1  0
M  END
