x1402_1-x0691_1
     RDKit          3D

 19 20  0  0  0  0  0  0  0  0999 V2000
    6.3820   -4.5360   20.5400 C   0  0  0  0  0  0  0  0  0  0  0  0
    7.3000   -3.4770   19.9210 C   0  0  0  0  0  0  0  0  0  0  0  0
    5.3230   -4.7710   19.9690 O   0  0  0  0  0  0  0  0  0  0  0  0
    6.7150   -5.2650   21.6760 N   0  0  0  0  0  0  0  0  0  0  0  0
    7.4260   -4.6310   22.7910 C   0  0  0  0  0  0  0  0  0  0  0  0
    5.7790   -6.3440   22.0700 C   0  0  0  0  0  0  0  0  0  0  0  0
    6.4390   -4.3030   23.9250 C   0  0  0  0  0  0  0  0  0  0  0  0
    4.7780   -5.9330   23.1090 C   0  0  0  0  0  0  0  0  0  0  0  0
    5.5400   -5.4180   24.2650 N   0  0  0  0  0  0  0  0  0  0  0  0
    4.8200   -5.5440   25.7840 S   0  0  0  0  0  0  0  0  0  0  0  0
    4.1430   -6.8240   25.8480 O   0  0  0  0  0  0  0  0  0  0  0  0
    5.7840   -5.1810   26.8020 O   0  0  0  0  0  0  0  0  0  0  0  0
    3.6030   -4.3430   25.7620 C   0  0  0  0  0  0  0  0  0  0  0  0
    3.9230   -2.8780   25.9130 C   0  0  0  0  0  0  0  0  0  0  0  0
    2.2310   -4.6380   25.6110 C   0  0  0  0  0  0  0  0  0  0  0  0
    2.8310   -1.8370   25.9040 C   0  0  0  0  0  0  0  0  0  0  0  0
    1.2490   -3.6280   25.6080 C   0  0  0  0  0  0  0  0  0  0  0  0
    3.2140   -0.5460   26.0450 F   0  0  0  0  0  0  0  0  0  0  0  0
    1.5140   -2.2460   25.7520 C   0  0  0  0  0  0  0  0  0  0  0  0
  1  2  1  0
  1  3  2  0
  1  4  1  0
  4  5  1  0
  4  6  1  0
  5  7  1  0
  6  8  1  0
  7  9  1  0
  8  9  1  0
  9 10  1  0
 10 11  2  0
 10 12  2  0
 10 13  1  0
 13 14  2  0
 13 15  1  0
 14 16  1  0
 15 17  2  0
 16 18  1  0
 16 19  2  0
 17 19  1  0
M  END
