x1402_1-x0967_2
     RDKit          3D

 20 20  0  0  0  0  0  0  0  0999 V2000
    6.4610    0.4540   22.3800 C   0  0  0  0  0  0  0  0  0  0  0  0
    7.7860    1.1030   22.7940 C   0  0  1  0  0  0  0  0  0  0  0  0
    8.9590    0.3030   22.2420 C   0  0  0  0  0  0  0  0  0  0  0  0
    6.0700   -0.7840   23.2010 C   0  0  0  0  0  0  0  0  0  0  0  0
    7.9080    2.4580   22.2540 N   0  0  0  0  0  0  0  0  0  0  0  0
    6.5110   -1.9690   22.7390 C   0  0  0  0  0  0  0  0  0  0  0  0
   10.0930    0.7590   22.1340 O   0  0  0  0  0  0  0  0  0  0  0  0
    7.2090    3.4960   22.8310 C   0  0  0  0  0  0  0  0  0  0  0  0
    5.7980   -3.2160   23.2080 C   0  0  0  0  0  0  0  0  0  0  0  0
    7.6900    4.8650   22.4290 C   0  0  0  0  0  0  0  0  0  0  0  0
    6.2740    3.3290   23.6080 O   0  0  0  0  0  0  0  0  0  0  0  0
    6.6520   -4.1990   23.7320 C   0  0  1  0  0  0  0  0  0  0  0  0
    5.7470   -5.2470   24.2710 N   0  0  0  0  0  0  0  0  0  0  0  0
    7.4730   -4.7600   22.7600 C   0  0  0  0  0  0  0  0  0  0  0  0
    6.6470   -5.3250   21.6910 N   0  0  0  0  0  0  0  0  0  0  0  0
    4.9870   -5.9610   23.2300 C   0  0  0  0  0  0  0  0  0  0  0  0
    6.3640   -4.5650   20.5510 C   0  0  0  0  0  0  0  0  0  0  0  0
    5.7570   -6.3840   22.1580 C   0  0  0  0  0  0  0  0  0  0  0  0
    7.3360   -3.5010   20.0110 C   0  0  0  0  0  0  0  0  0  0  0  0
    5.3120   -4.7520   19.9610 O   0  0  0  0  0  0  0  0  0  0  0  0
  2  1  1  6
  2  3  1  0
  1  4  1  0
  2  5  1  0
  4  6  1  0
  3  7  2  0
  5  8  1  0
  6  9  1  0
  8 10  1  0
  8 11  2  0
 12  9  1  6
 12 13  1  0
 12 14  1  0
 14 15  1  0
 13 16  1  0
 15 17  1  0
 15 18  1  0
 16 18  1  0
 17 19  1  0
 17 20  2  0
M  END
