x1402_0-x0831_0
     RDKit          3D

 21 22  0  0  0  0  0  0  0  0999 V2000
    5.3440   -5.2790   25.8660 S   0  0  1  0  0  0  0  0  0  0  0  0
    6.6400   -4.9850   26.6600 N   0  0  0  0  0  0  0  0  0  0  0  0
    7.7770   -5.6850   26.3470 C   0  0  0  0  0  0  0  0  0  0  0  0
    4.4350   -6.3860   26.0790 O   0  0  0  0  0  0  0  0  0  0  0  0
    4.3440   -3.8150   25.9790 C   0  0  0  0  0  0  0  0  0  0  0  0
    2.6210   -3.9540   26.0070 S   0  0  0  0  0  0  0  0  0  0  0  0
    4.6880   -2.3610   26.0650 C   0  0  0  0  0  0  0  0  0  0  0  0
    9.0680   -4.8650   26.2510 C   0  0  0  0  0  0  0  0  0  0  0  0
    2.3740   -2.2470   26.1330 C   0  0  0  0  0  0  0  0  0  0  0  0
    3.5500   -1.6160   26.1430 C   0  0  0  0  0  0  0  0  0  0  0  0
    0.8010   -1.5780   26.2350 Cl  0  0  0  0  0  0  0  0  0  0  0  0
    9.0280   -3.7210   25.4500 C   0  0  0  0  0  0  0  0  0  0  0  0
   10.3460   -3.0970   24.9890 C   0  0  0  0  0  0  0  0  0  0  0  0
   10.2320   -2.4480   23.6340 C   0  0  0  0  0  0  0  0  0  0  0  0
   10.8800   -1.0920   23.6000 C   0  0  0  0  0  0  0  0  0  0  0  0
   10.2400   -0.0320   24.2000 C   0  0  0  0  0  0  0  0  0  0  0  0
   12.1160   -0.9330   22.9530 C   0  0  0  0  0  0  0  0  0  0  0  0
   12.8110   -2.0650   22.2940 C   0  0  0  0  0  0  0  0  0  0  0  0
   10.8530    1.3760   24.1760 C   0  0  0  0  0  0  0  0  0  0  0  0
   12.7420    0.2980   22.8960 C   0  0  0  0  0  0  0  0  0  0  0  0
   12.0780    1.5080   23.5330 C   0  0  0  0  0  0  0  0  0  0  0  0
  1  2  2  0
  2  3  1  0
  1  4  2  0
  1  5  1  1
  5  6  1  0
  5  7  2  0
  3  8  1  0
  6  9  1  0
  7 10  1  0
  9 10  2  0
  9 11  1  0
  8 12  1  0
 12 13  1  0
 13 14  1  0
 14 15  1  0
 15 16  2  0
 15 17  1  0
 17 18  1  0
 16 19  1  0
 17 20  2  0
 19 21  2  0
 20 21  1  0
M  END
