x1402_1-x0387_0-x0691_0-x0689_0
     RDKit          3D

 25 27  0  0  0  0  0  0  0  0999 V2000
    6.5610   -4.6080   20.6530 C   0  0  0  0  0  0  0  0  0  0  0  0
    7.8120   -3.7510   20.4040 C   0  0  0  0  0  0  0  0  0  0  0  0
    5.5350   -4.5520   19.9540 O   0  0  0  0  0  0  0  0  0  0  0  0
    6.6350   -5.4940   21.7310 N   0  0  0  0  0  0  0  0  0  0  0  0
    7.6340   -5.3900   22.8020 C   0  0  0  0  0  0  0  0  0  0  0  0
    5.5160   -6.2860   22.2430 C   0  0  0  0  0  0  0  0  0  0  0  0
    7.0130   -4.7170   24.0360 C   0  0  1  0  0  0  0  0  0  0  0  0
    4.7450   -5.4920   23.1020 C   0  0  0  0  0  0  0  0  0  0  0  0
    7.4120   -3.2160   23.9740 C   0  0  0  0  0  0  0  0  0  0  0  0
    5.5420   -4.9490   24.2340 N   0  0  0  0  0  0  0  0  0  0  0  0
    4.7910   -5.0640   25.7280 S   0  0  0  0  0  0  0  0  0  0  0  0
    8.8060   -2.9030   23.3780 C   0  0  0  0  0  0  0  0  0  0  0  0
    4.1410   -6.3630   25.8230 O   0  0  0  0  0  0  0  0  0  0  0  0
    5.7330   -4.6350   26.7400 O   0  0  0  0  0  0  0  0  0  0  0  0
    9.3940   -1.5150   23.7050 C   0  0  0  0  0  0  0  0  0  0  0  0
    3.5010   -3.8370   25.6590 C   0  0  0  0  0  0  0  0  0  0  0  0
    3.9110   -2.1930   26.0190 S   0  0  0  0  0  0  0  0  0  0  0  0
    2.1530   -3.9390   25.3600 C   0  0  0  0  0  0  0  0  0  0  0  0
   10.8240   -1.2990   23.2460 C   0  0  0  0  0  0  0  0  0  0  0  0
    2.3010   -1.6560   25.7780 C   0  0  0  0  0  0  0  0  0  0  0  0
    1.5090   -2.7120   25.4360 C   0  0  0  0  0  0  0  0  0  0  0  0
   11.5580    0.0760   23.2870 C   0  0  0  0  0  0  0  0  0  0  0  0
   11.6850   -2.2290   22.7320 C   0  0  0  0  0  0  0  0  0  0  0  0
   12.8440    0.0030   22.8220 C   0  0  0  0  0  0  0  0  0  0  0  0
   13.2270   -1.5820   22.3270 S   0  0  0  0  0  0  0  0  0  0  0  0
  1  2  1  0
  1  3  2  0
  1  4  1  0
  4  5  1  0
  4  6  1  0
  5  7  1  0
  6  8  1  0
  7  9  1  6
  7 10  1  0
  8 10  1  0
 10 11  1  0
  9 12  1  0
 11 13  2  0
 11 14  2  0
 12 15  1  0
 11 16  1  0
 16 17  1  0
 16 18  2  0
 15 19  1  0
 17 20  1  0
 18 21  1  0
 20 21  2  0
 19 22  1  0
 19 23  2  0
 22 24  2  0
 23 25  1  0
 24 25  1  0
M  END
