x1402_1-x0689_0-x1386_0
     RDKit          3D

 25 27  0  0  0  0  0  0  0  0999 V2000
    6.2690   -4.5230   20.4310 C   0  0  0  0  0  0  0  0  0  0  0  0
    7.2410   -3.4610   19.8780 C   0  0  0  0  0  0  0  0  0  0  0  0
    5.1770   -4.6600   19.9180 O   0  0  0  0  0  0  0  0  0  0  0  0
    6.6120   -5.3440   21.4990 N   0  0  0  0  0  0  0  0  0  0  0  0
    7.5000   -4.8110   22.5100 C   0  0  0  0  0  0  0  0  0  0  0  0
    5.7180   -6.3420   22.0990 C   0  0  0  0  0  0  0  0  0  0  0  0
    6.6350   -4.0920   23.5630 C   0  0  2  0  0  0  0  0  0  0  0  0
    4.9340   -5.8020   23.1170 C   0  0  0  0  0  0  0  0  0  0  0  0
    7.6240   -3.2780   24.4230 C   0  0  0  0  0  0  0  0  0  0  0  0
    5.7570   -5.1550   24.1560 N   0  0  0  0  0  0  0  0  0  0  0  0
    4.9290   -4.9940   25.6830 S   0  0  0  0  0  0  0  0  0  0  0  0
    9.1150   -3.4780   24.0030 C   0  0  0  0  0  0  0  0  0  0  0  0
    4.2750   -6.2690   25.9540 O   0  0  0  0  0  0  0  0  0  0  0  0
    5.8070   -4.4000   26.6520 O   0  0  0  0  0  0  0  0  0  0  0  0
    9.5540   -2.5180   22.9000 C   0  0  0  0  0  0  0  0  0  0  0  0
    3.5950   -3.8150   25.5930 C   0  0  0  0  0  0  0  0  0  0  0  0
    3.9820   -2.1570   25.9320 S   0  0  0  0  0  0  0  0  0  0  0  0
    2.0820   -4.0020   25.2690 C   0  0  0  0  0  0  0  0  0  0  0  0
   10.6990   -1.5850   23.2000 C   0  0  0  0  0  0  0  0  0  0  0  0
    2.3620   -1.6530   25.7040 C   0  0  0  0  0  0  0  0  0  0  0  0
    1.4760   -2.7840   25.3520 C   0  0  0  0  0  0  0  0  0  0  0  0
   11.8580   -1.4940   22.4370 C   0  0  0  0  0  0  0  0  0  0  0  0
   10.8070   -0.6670   24.2460 C   0  0  0  0  0  0  0  0  0  0  0  0
   12.8270   -0.5880   22.8090 C   0  0  0  0  0  0  0  0  0  0  0  0
   12.2830    0.2180   24.2010 S   0  0  0  0  0  0  0  0  0  0  0  0
  1  2  1  0
  1  3  2  0
  1  4  1  0
  4  5  1  0
  4  6  1  0
  5  7  1  0
  6  8  1  0
  7  9  1  1
  7 10  1  0
  8 10  1  0
 10 11  1  0
  9 12  1  0
 11 13  2  0
 11 14  2  0
 12 15  1  0
 11 16  1  0
 16 17  1  0
 16 18  2  0
 15 19  1  0
 17 20  1  0
 18 21  1  0
 20 21  2  0
 19 22  1  0
 19 23  2  0
 22 24  2  0
 23 25  1  0
 24 25  1  0
M  END
