x1402_0-x1334_0
     RDKit          3D

 17 18  0  0  0  0  0  0  0  0999 V2000
    4.7630   -5.4770   25.7710 S   0  0  1  0  0  0  0  0  0  0  0  0
    5.9870   -5.1790   26.6490 N   0  0  0  0  0  0  0  0  0  0  0  0
    6.1910   -5.8320   27.8300 C   0  0  0  0  0  0  0  0  0  0  0  0
    3.6960   -6.3910   26.1270 O   0  0  0  0  0  0  0  0  0  0  0  0
    4.0360   -3.9090   25.8810 C   0  0  0  0  0  0  0  0  0  0  0  0
    2.3190   -3.9380   25.9190 S   0  0  0  0  0  0  0  0  0  0  0  0
    4.5790   -2.6250   25.9520 C   0  0  0  0  0  0  0  0  0  0  0  0
    7.6320   -5.7770   28.2960 C   0  0  0  0  0  0  0  0  0  0  0  0
    2.2330   -2.2590   26.0400 C   0  0  0  0  0  0  0  0  0  0  0  0
    3.6130   -1.6190   26.0430 C   0  0  0  0  0  0  0  0  0  0  0  0
    0.6330   -1.4350   26.1510 Cl  0  0  0  0  0  0  0  0  0  0  0  0
    8.4240   -5.3140   27.1330 C   0  0  0  0  0  0  0  0  0  0  0  0
    9.3810   -6.0360   26.4720 C   0  0  0  0  0  0  0  0  0  0  0  0
    8.2180   -3.7460   26.4170 S   0  0  0  0  0  0  0  0  0  0  0  0
    9.4010   -3.9440   25.1780 C   0  0  0  0  0  0  0  0  0  0  0  0
    9.9740   -5.3220   25.3540 C   0  0  0  0  0  0  0  0  0  0  0  0
    9.7130   -2.8780   24.1700 C   0  0  0  0  0  0  0  0  0  0  0  0
  1  2  2  0
  2  3  1  0
  1  4  2  0
  1  5  1  1
  5  6  1  0
  5  7  2  0
  3  8  1  0
  6  9  1  0
  7 10  1  0
  9 10  2  0
  9 11  1  0
  8 12  1  0
 12 13  2  0
 12 14  1  0
 14 15  1  0
 13 16  1  0
 15 16  2  0
 15 17  1  0
M  END
