x1418_1-x0692_0-x1412_0
     RDKit          3D

 24 26  0  0  0  0  0  0  0  0999 V2000
    6.3960   -3.3020   19.8050 C   0  0  0  0  0  0  0  0  0  0  0  0
    7.3570   -3.0240   18.6520 C   0  0  0  0  0  0  0  0  0  0  0  0
    5.4850   -4.1330   19.7260 O   0  0  0  0  0  0  0  0  0  0  0  0
    6.6140   -2.5700   20.9760 N   0  0  0  0  0  0  0  0  0  0  0  0
    6.3510   -3.1180   22.2970 C   0  0  0  0  0  0  0  0  0  0  0  0
    7.7170   -1.6180   20.9770 C   0  0  0  0  0  0  0  0  0  0  0  0
    7.6370   -3.7300   22.9730 C   0  0  0  0  0  0  0  0  0  0  0  0
    8.9750   -2.2000   21.5370 C   0  0  0  0  0  0  0  0  0  0  0  0
    8.8030   -2.8120   22.8630 N   0  0  0  0  0  0  0  0  0  0  0  0
    8.9380   -1.7890   23.7300 C   0  0  1  0  0  0  0  0  0  0  0  0
    8.5420   -2.1250   25.1960 C   0  0  0  0  0  0  0  0  0  0  0  0
   10.2950   -1.0930   23.4580 C   0  0  0  0  0  0  0  0  0  0  0  0
    8.1410   -1.2130   25.8980 O   0  0  0  0  0  0  0  0  0  0  0  0
   10.2550    0.2700   23.6630 C   0  0  0  0  0  0  0  0  0  0  0  0
   11.4150   -1.8050   23.0200 C   0  0  0  0  0  0  0  0  0  0  0  0
    8.6210   -3.5400   25.7990 C   0  0  0  0  0  0  0  0  0  0  0  0
   11.3770    1.0300   23.4230 C   0  0  0  0  0  0  0  0  0  0  0  0
   12.6420   -1.1340   22.7520 C   0  0  0  0  0  0  0  0  0  0  0  0
    9.3580   -4.5180   25.3130 C   0  0  0  0  0  0  0  0  0  0  0  0
    7.7830   -4.0440   27.2320 S   0  0  0  0  0  0  0  0  0  0  0  0
   11.3850    2.5050   23.5860 C   0  0  0  0  0  0  0  0  0  0  0  0
   12.5000    0.3380   22.9970 C   0  0  0  0  0  0  0  0  0  0  0  0
    9.3060   -5.7000   26.0430 C   0  0  0  0  0  0  0  0  0  0  0  0
    8.4720   -5.6190   27.1570 C   0  0  0  0  0  0  0  0  0  0  0  0
  1  2  1  0
  1  3  2  0
  1  4  1  0
  4  5  1  0
  4  6  1  0
  5  7  1  0
  6  8  1  0
  7  9  1  0
  8  9  1  0
  9 10  1  0
 10 11  1  1
 10 12  1  0
 11 13  2  0
 12 14  2  0
 12 15  1  0
 11 16  1  0
 14 17  1  0
 15 18  2  0
 16 19  2  0
 16 20  1  0
 17 21  1  0
 17 22  2  0
 18 22  1  0
 19 23  1  0
 20 24  1  0
 23 24  2  0
M  END
