x1412_0-x1386_0-x1412_1-x0387_0-x0434_2-x1334_1
     RDKit          3D

 33 38  0  0  0  0  0  0  0  0999 V2000
    6.5930   -3.2950   19.7610 C   0  0  0  0  0  0  0  0  0  0  0  0
    7.1740   -2.5680   18.5660 C   0  0  0  0  0  0  0  0  0  0  0  0
    5.7830   -4.1970   19.5890 O   0  0  0  0  0  0  0  0  0  0  0  0
    6.9870   -2.9460   21.0020 N   0  0  0  0  0  0  0  0  0  0  0  0
    7.7320   -1.7370   21.3820 C   0  0  1  0  0  0  0  0  0  0  0  0
    6.5610   -3.7660   22.1370 C   0  0  0  0  0  0  0  0  0  0  0  0
    7.3290   -0.6840   20.9150 N   0  0  0  0  0  0  0  0  0  0  0  0
    8.8210   -2.0180   22.4030 C   0  0  1  0  0  0  0  0  0  0  0  0
    7.7300   -4.0750   23.0380 C   0  0  0  0  0  0  0  0  0  0  0  0
    9.7170   -1.5590   24.2350 C   0  0  0  0  0  0  0  0  0  0  0  0
    8.2900   -2.8120   23.5110 N   0  0  0  0  0  0  0  0  0  0  0  0
    6.6490    0.0080   19.8530 C   0  0  0  0  0  0  0  0  0  0  0  0
    8.4350   -2.5230   24.8290 C   0  0  1  0  0  0  0  0  0  0  0  0
    9.9360   -2.5250   23.8300 C   0  0  2  0  0  0  0  0  0  0  0  0
    7.1890    0.0390   18.5790 C   0  0  0  0  0  0  0  0  0  0  0  0
    5.4460    0.6340   20.1390 C   0  0  0  0  0  0  0  0  0  0  0  0
    8.3330   -1.3830   25.2750 O   0  0  0  0  0  0  0  0  0  0  0  0
    8.7250   -3.6160   25.6980 C   0  0  0  0  0  0  0  0  0  0  0  0
   11.0160   -1.4730   23.8260 C   0  0  0  0  0  0  0  0  0  0  0  0
    6.5560    0.6700   17.6270 N   0  0  0  0  0  0  0  0  0  0  0  0
    4.8170    1.2970   19.0970 C   0  0  0  0  0  0  0  0  0  0  0  0
    9.6190   -4.6380   25.4440 C   0  0  0  0  0  0  0  0  0  0  0  0
    7.9560   -3.8280   27.2250 S   0  0  0  0  0  0  0  0  0  0  0  0
   12.1170   -1.4010   22.9200 C   0  0  0  0  0  0  0  0  0  0  0  0
   11.0500   -0.3900   24.6970 C   0  0  0  0  0  0  0  0  0  0  0  0
    5.4080    1.2680   17.8390 C   0  0  0  0  0  0  0  0  0  0  0  0
    9.4890   -5.6710   26.3930 C   0  0  0  0  0  0  0  0  0  0  0  0
    8.7150   -5.3290   27.4460 C   0  0  0  0  0  0  0  0  0  0  0  0
   12.8260   -0.2560   23.0140 C   0  0  0  0  0  0  0  0  0  0  0  0
   12.1910    0.7640   24.2010 S   0  0  0  0  0  0  0  0  0  0  0  0
   12.6460   -1.2880   22.5900 C   0  0  0  0  0  0  0  0  0  0  0  0
   13.1760   -1.1740   22.2600 S   0  0  0  0  0  0  0  0  0  0  0  0
   13.0010   -0.7150   22.6370 C   0  0  0  0  0  0  0  0  0  0  0  0
  1  2  1  0
  1  3  2  0
  1  4  1  0
  4  5  1  0
  4  6  1  0
  5  7  1  1
  5  8  1  0
  6  9  1  0
  8 10  1  1
  8 11  1  0
  9 11  1  0
  7 12  1  0
 11 13  1  0
 10 14  1  0
 13 14  1  0
 12 15  2  0
 12 16  1  0
 13 17  1  1
 13 18  1  0
 14 19  1  1
 15 20  1  0
 16 21  2  0
 18 22  2  0
 18 23  1  0
 19 24  1  0
 19 25  2  0
 20 26  2  0
 21 26  1  0
 22 27  1  0
 23 28  1  0
 27 28  2  0
 24 29  1  0
 25 30  1  0
 29 30  1  0
 24 31  2  0
 31 32  1  0
 29 33  2  0
 32 33  1  0
M  END
