x1412_1-x0770_1-x1334_1-x0434_2-x1375_1-x1374_1-x1418_1-x1334_0-x0397_0-x0831_0-x1386_1-x0692_1
     RDKit          3D

 38 42  0  0  0  0  0  0  0  0999 V2000
    2.5290   -7.3010   24.2970 O   0  0  0  0  0  0  0  0  0  0  0  0
    3.2560   -6.5610   25.2590 C   0  0  0  0  0  0  0  0  0  0  0  0
    4.6370   -6.6770   24.9580 O   0  0  0  0  0  0  0  0  0  0  0  0
    4.8690   -6.8800   23.5740 C   0  0  0  0  0  0  0  0  0  0  0  0
    5.8300   -5.9010   22.9740 C   0  0  2  0  0  0  0  0  0  0  0  0
    5.4530   -4.7350   22.3070 C   0  0  2  0  0  0  0  0  0  0  0  0
    6.0370   -6.0030   21.5100 C   0  0  0  0  0  0  0  0  0  0  0  0
    6.2360   -3.4660   22.4220 C   0  0  2  0  0  0  0  0  0  0  0  0
    6.5580   -2.8080   21.1510 N   0  0  0  0  0  0  0  0  0  0  0  0
    7.5190   -3.7280   23.1870 C   0  0  0  0  0  0  0  0  0  0  0  0
    6.3300   -3.3830   19.9180 C   0  0  0  0  0  0  0  0  0  0  0  0
    8.1330   -2.4650   23.5670 N   0  0  0  0  0  0  0  0  0  0  0  0
    7.6220   -1.7500   21.2230 C   0  0  1  0  0  0  0  0  0  0  0  0
    7.3110   -3.0560   18.8000 C   0  0  0  0  0  0  0  0  0  0  0  0
    5.3880   -4.1560   19.7290 O   0  0  0  0  0  0  0  0  0  0  0  0
    9.2210   -2.6640   24.3250 C   0  0  2  0  0  0  0  0  0  0  0  0
    6.9840   -0.4370   21.3110 N   0  0  0  0  0  0  0  0  0  0  0  0
    8.6410   -1.8030   22.3690 C   0  0  0  0  0  0  0  0  0  0  0  0
   10.3600   -2.5710   23.3360 C   0  0  0  0  0  0  0  0  0  0  0  0
    9.0180   -3.8500   25.2620 C   0  0  0  0  0  0  0  0  0  0  0  0
    6.4200    0.1430   20.1730 C   0  0  0  0  0  0  0  0  0  0  0  0
    9.7740   -5.1960   25.2510 C   0  0  0  0  0  0  0  0  0  0  0  0
    7.8820   -3.8540   26.5280 S   0  0  0  0  0  0  0  0  0  0  0  0
   10.9630   -1.1830   23.3740 C   0  0  0  0  0  0  0  0  0  0  0  0
    6.9310    0.0500   18.8190 C   0  0  0  0  0  0  0  0  0  0  0  0
    5.2570    0.8890   20.3160 C   0  0  0  0  0  0  0  0  0  0  0  0
    9.2960   -6.1070   26.3660 C   0  0  0  0  0  0  0  0  0  0  0  0
    8.1900   -5.4210   27.1670 C   0  0  0  0  0  0  0  0  0  0  0  0
   10.2390   -0.0090   24.1270 C   0  0  0  0  0  0  0  0  0  0  0  0
   12.3110   -0.8500   22.7010 C   0  0  0  0  0  0  0  0  0  0  0  0
    6.3640    0.6320   17.7510 N   0  0  0  0  0  0  0  0  0  0  0  0
    4.6340    1.5080   19.2220 C   0  0  0  0  0  0  0  0  0  0  0  0
    7.2720   -5.9800   28.5350 Cl  0  0  0  0  0  0  0  0  0  0  0  0
   13.0300   -1.9280   21.9700 C   0  0  0  0  0  0  0  0  0  0  0  0
   10.8810    1.3550   24.1450 C   0  0  0  0  0  0  0  0  0  0  0  0
   12.8140    0.4450   22.7930 C   0  0  0  0  0  0  0  0  0  0  0  0
    5.2420    1.3470   17.9420 C   0  0  0  0  0  0  0  0  0  0  0  0
   12.1810    1.4810   23.4450 C   0  0  0  0  0  0  0  0  0  0  0  0
  1  2  1  0
  2  3  1  0
  3  4  1  0
  5  4  1  6
  5  6  1  0
  5  7  1  0
  6  7  1  6
  6  8  1  0
  8  9  1  0
  8 10  1  6
  9 11  1  0
 10 12  1  0
  9 13  1  0
 11 14  1  0
 11 15  2  0
 12 16  1  0
 13 17  1  1
 12 18  1  0
 13 18  1  0
 16 19  1  6
 16 20  1  0
 17 21  1  0
 20 22  2  0
 20 23  1  0
 19 24  1  0
 21 25  2  0
 21 26  1  0
 22 27  1  0
 23 28  1  0
 27 28  2  0
 24 29  2  0
 24 30  1  0
 25 31  1  0
 26 32  2  0
 28 33  1  0
 30 34  1  0
 29 35  1  0
 30 36  2  0
 31 37  2  0
 32 37  1  0
 35 38  2  0
 36 38  1  0
M  END
