x1412_0-x1386_1-x0770_1
     RDKit          3D

 16 17  0  0  0  0  0  0  0  0999 V2000
    6.4080   -3.1240   19.8160 C   0  0  0  0  0  0  0  0  0  0  0  0
    7.3740   -2.9210   18.6650 C   0  0  0  0  0  0  0  0  0  0  0  0
    5.4460   -3.9080   19.6410 O   0  0  0  0  0  0  0  0  0  0  0  0
    6.6310   -2.4710   21.0330 N   0  0  0  0  0  0  0  0  0  0  0  0
    7.7420   -1.4780   21.1480 C   0  0  0  0  0  0  0  0  0  0  0  0
    6.2790   -3.1230   22.2780 C   0  0  0  0  0  0  0  0  0  0  0  0
    8.8530   -1.7970   22.1940 C   0  0  0  0  0  0  0  0  0  0  0  0
    7.5280   -3.7650   22.8550 C   0  0  0  0  0  0  0  0  0  0  0  0
    8.4500   -2.7290   23.2740 N   0  0  0  0  0  0  0  0  0  0  0  0
    8.6060   -2.4330   24.6400 C   0  0  0  0  0  0  0  0  0  0  0  0
    8.6090   -1.2690   25.0370 O   0  0  0  0  0  0  0  0  0  0  0  0
    8.7210   -3.5800   25.5530 C   0  0  0  0  0  0  0  0  0  0  0  0
    9.6550   -4.5890   25.4740 C   0  0  0  0  0  0  0  0  0  0  0  0
    7.6660   -3.8450   26.8860 S   0  0  0  0  0  0  0  0  0  0  0  0
    9.5030   -5.5720   26.4900 C   0  0  0  0  0  0  0  0  0  0  0  0
    8.4620   -5.2910   27.3330 C   0  0  0  0  0  0  0  0  0  0  0  0
  1  2  1  0
  1  3  2  0
  1  4  1  0
  4  5  1  0
  4  6  1  0
  5  7  1  0
  6  8  1  0
  7  9  1  0
  8  9  1  0
  9 10  1  0
 10 11  2  0
 10 12  1  0
 12 13  2  0
 12 14  1  0
 13 15  1  0
 14 16  1  0
 15 16  2  0
M  END
