x1412_1-x1334_1-x0692_1-x0831_0-x0434_2-x0397_0-x1334_0-x0770_1-x1418_1
     RDKit          3D

 34 38  0  0  0  0  0  0  0  0999 V2000
    6.4690   -3.3510   19.8890 C   0  0  0  0  0  0  0  0  0  0  0  0
    7.3880   -3.0460   18.7400 C   0  0  0  0  0  0  0  0  0  0  0  0
    5.4730   -4.0710   19.7140 O   0  0  0  0  0  0  0  0  0  0  0  0
    6.8410   -2.8270   21.1440 N   0  0  0  0  0  0  0  0  0  0  0  0
    7.7270   -1.6850   21.0330 C   0  0  1  0  0  0  0  0  0  0  0  0
    7.0390   -3.8560   22.1510 C   0  0  1  0  0  0  0  0  0  0  0  0
    6.9790   -0.4590   21.1490 N   0  0  0  0  0  0  0  0  0  0  0  0
    8.8610   -1.7760   22.0760 C   0  0  0  0  0  0  0  0  0  0  0  0
    7.6280   -3.3510   23.4590 C   0  0  0  0  0  0  0  0  0  0  0  0
    5.8790   -4.7880   22.2550 C   0  0  0  0  0  0  0  0  0  0  0  0
    8.3680   -2.0820   23.4270 N   0  0  0  0  0  0  0  0  0  0  0  0
    6.0270   -6.1180   23.2470 C   0  0  0  0  0  0  0  0  0  0  0  0
    5.9440   -6.1820   21.8290 C   0  0  0  0  0  0  0  0  0  0  0  0
    6.3850    0.1700   20.0820 C   0  0  0  0  0  0  0  0  0  0  0  0
    9.5360   -2.0080   24.2760 C   0  0  1  0  0  0  0  0  0  0  0  0
    6.8570    0.1560   18.7670 C   0  0  0  0  0  0  0  0  0  0  0  0
    5.2200    0.8860   20.2720 C   0  0  0  0  0  0  0  0  0  0  0  0
   10.1680   -3.3240   24.3650 C   0  0  0  0  0  0  0  0  0  0  0  0
   10.4880   -0.8500   23.9260 C   0  0  0  0  0  0  0  0  0  0  0  0
    6.3420    0.7440   17.6970 N   0  0  0  0  0  0  0  0  0  0  0  0
    4.5800    1.5800   19.0860 C   0  0  0  0  0  0  0  0  0  0  0  0
   10.1630    0.4870   24.3090 C   0  0  0  0  0  0  0  0  0  0  0  0
   11.8670   -0.9340   23.1500 C   0  0  0  0  0  0  0  0  0  0  0  0
    9.5100   -4.2430   25.3420 C   0  0  0  0  0  0  0  0  0  0  0  0
    5.2040    1.4670   17.8190 C   0  0  0  0  0  0  0  0  0  0  0  0
   12.4380   -2.2180   22.6270 C   0  0  0  0  0  0  0  0  0  0  0  0
   10.9890    1.7640   24.0450 C   0  0  0  0  0  0  0  0  0  0  0  0
   12.7000    0.2900   22.8830 C   0  0  0  0  0  0  0  0  0  0  0  0
    9.9570   -5.6780   25.3350 C   0  0  0  0  0  0  0  0  0  0  0  0
    8.3380   -3.6890   26.3910 S   0  0  0  0  0  0  0  0  0  0  0  0
   12.3560    1.5730   23.2680 C   0  0  0  0  0  0  0  0  0  0  0  0
    9.0830   -6.1040   26.4500 C   0  0  0  0  0  0  0  0  0  0  0  0
    8.1510   -5.1510   27.1270 C   0  0  0  0  0  0  0  0  0  0  0  0
    7.0700   -5.4460   28.4190 Cl  0  0  0  0  0  0  0  0  0  0  0  0
  1  2  1  0
  1  3  2  0
  1  4  1  0
  4  5  1  0
  4  6  1  0
  5  7  1  1
  5  8  1  0
  6  9  1  0
  6 10  1  1
  8 11  1  0
  9 11  1  0
 10 12  1  0
 10 13  1  0
 12 13  1  0
  7 14  1  0
 11 15  1  0
 14 16  2  0
 14 17  1  0
 15 18  1  6
 15 19  1  0
 16 20  1  0
 17 21  2  0
 19 22  2  0
 19 23  1  0
 18 24  1  0
 20 25  2  0
 21 25  1  0
 23 26  1  0
 22 27  1  0
 23 28  2  0
 24 29  2  0
 24 30  1  0
 27 31  2  0
 28 31  1  0
 29 32  1  0
 30 33  1  0
 32 33  2  0
 33 34  1  0
M  END
