x1418_1-x1334_1-x1385_1-x0770_1-x1412_1-x0397_0-x1334_0-x1386_1-x0692_1-x0831_0-x1374_1-x0434_2-x0426_1
     RDKit          3D

 43 48  0  0  0  0  0  0  0  0999 V2000
    2.2690   -7.7260   23.4640 O   0  0  0  0  0  0  0  0  0  0  0  0
    2.6880   -7.7970   24.8140 C   0  0  0  0  0  0  0  0  0  0  0  0
    4.0900   -7.7540   24.8750 O   0  0  0  0  0  0  0  0  0  0  0  0
    4.6040   -7.0370   23.7550 C   0  0  0  0  0  0  0  0  0  0  0  0
    5.2680   -5.8900   24.1120 C   0  0  0  0  0  0  0  0  0  0  0  0
    6.2620   -5.7430   23.0090 C   0  0  2  0  0  0  0  0  0  0  0  0
    6.5270   -4.8460   22.1480 C   0  0  1  0  0  0  0  0  0  0  0  0
    5.5430   -5.9230   21.6170 C   0  0  0  0  0  0  0  0  0  0  0  0
    6.2040   -3.3980   22.3950 C   0  0  1  0  0  0  0  0  0  0  0  0
    6.9410   -2.9050   23.5960 C   0  0  0  0  0  0  0  0  0  0  0  0
    6.4400   -2.6630   21.1720 N   0  0  0  0  0  0  0  0  0  0  0  0
    6.3130   -3.2710   19.9150 C   0  0  0  0  0  0  0  0  0  0  0  0
    8.1070   -2.0920   23.4360 N   0  0  0  0  0  0  0  0  0  0  0  0
    7.2600   -1.4710   21.2620 C   0  0  1  0  0  0  0  0  0  0  0  0
    7.3120   -2.9840   18.8110 C   0  0  0  0  0  0  0  0  0  0  0  0
    5.4010   -4.0860   19.7040 O   0  0  0  0  0  0  0  0  0  0  0  0
    6.3900   -0.1240   21.5550 C   0  0  2  0  0  0  0  0  0  0  0  0
    9.2520   -2.5970   24.2000 C   0  0  2  0  0  0  0  0  0  0  0  0
    8.4080   -1.6790   22.0290 C   0  0  0  0  0  0  0  0  0  0  0  0
    5.1360   -0.3310   22.4280 C   0  0  0  0  0  0  0  0  0  0  0  0
   10.4540   -2.5490   23.3040 C   0  0  0  0  0  0  0  0  0  0  0  0
    5.9650    0.4420   20.2310 C   0  0  0  0  0  0  0  0  0  0  0  0
    9.1340   -3.8680   25.0960 C   0  0  0  0  0  0  0  0  0  0  0  0
    4.1100    0.8320   22.5430 C   0  0  1  0  0  0  0  0  0  0  0  0
    4.7750    1.1720   20.0900 C   0  0  0  0  0  0  0  0  0  0  0  0
    6.7400    0.2480   19.1420 C   0  0  0  0  0  0  0  0  0  0  0  0
    9.7460   -5.1020   25.1730 C   0  0  0  0  0  0  0  0  0  0  0  0
    7.9660   -3.7890   26.3750 S   0  0  0  0  0  0  0  0  0  0  0  0
   11.0240   -1.1170   23.3650 C   0  0  0  0  0  0  0  0  0  0  0  0
    4.4380    1.8530   23.5230 N   0  0  0  0  0  0  0  0  0  0  0  0
    3.8000    1.4550   21.1850 C   0  0  0  0  0  0  0  0  0  0  0  0
    4.4420    1.7390   18.6710 C   0  0  0  0  0  0  0  0  0  0  0  0
    6.5280    0.6900   17.8790 N   0  0  0  0  0  0  0  0  0  0  0  0
    9.2700   -5.9830   26.2810 C   0  0  0  0  0  0  0  0  0  0  0  0
    8.2810   -5.3500   27.0090 C   0  0  0  0  0  0  0  0  0  0  0  0
   10.2750    0.0230   24.1080 C   0  0  0  0  0  0  0  0  0  0  0  0
   12.2500   -0.8450   22.7470 C   0  0  0  0  0  0  0  0  0  0  0  0
    7.4080   -5.9110   28.3680 Cl  0  0  0  0  0  0  0  0  0  0  0  0
   12.9690   -1.9320   22.0210 C   0  0  0  0  0  0  0  0  0  0  0  0
    5.3350    1.4790   17.6320 C   0  0  0  0  0  0  0  0  0  0  0  0
   10.9870    1.3840   24.0820 C   0  0  0  0  0  0  0  0  0  0  0  0
   12.8530    0.4000   22.7680 C   0  0  0  0  0  0  0  0  0  0  0  0
   12.3010    1.5160   23.3870 C   0  0  0  0  0  0  0  0  0  0  0  0
  1  2  1  0
  2  3  1  0
  3  4  1  0
  4  5  1  0
  6  5  1  1
  6  7  1  0
  6  8  1  0
  7  8  1  6
  7  9  1  0
  9 10  1  1
  9 11  1  0
 11 12  1  0
 10 13  1  0
 11 14  1  0
 12 15  1  0
 12 16  2  0
 14 17  1  0
 13 18  1  0
 13 19  1  0
 14 19  1  1
 17 20  1  1
 18 21  1  6
 17 22  1  0
 18 23  1  0
 20 24  1  0
 22 25  2  0
 22 26  1  0
 23 27  2  0
 23 28  1  0
 21 29  1  0
 24 30  1  1
 24 31  1  0
 25 31  1  0
 25 32  1  0
 26 33  2  0
 27 34  1  0
 28 35  1  0
 34 35  2  0
 29 36  2  0
 29 37  1  0
 35 38  1  0
 37 39  1  0
 32 40  2  0
 33 40  1  0
 36 41  1  0
 37 42  2  0
 41 43  2  0
 42 43  1  0
M  END
