x1412_1-x0831_1-x1334_0-x0831_0-x0692_1-x0770_1-x1334_1-x1418_1-x0397_0-x1386_1-x0434_2
     RDKit          3D

 34 38  0  0  0  0  0  0  0  0999 V2000
    6.3730   -3.3860   19.9120 C   0  0  0  0  0  0  0  0  0  0  0  0
    7.3330   -3.0600   18.7670 C   0  0  0  0  0  0  0  0  0  0  0  0
    5.4160   -4.1490   19.7250 O   0  0  0  0  0  0  0  0  0  0  0  0
    6.6180   -2.8220   21.1640 N   0  0  0  0  0  0  0  0  0  0  0  0
    7.7040   -1.8080   21.1630 C   0  0  1  0  0  0  0  0  0  0  0  0
    6.3490   -3.4930   22.4470 C   0  0  2  0  0  0  0  0  0  0  0  0
    6.9980   -0.5400   21.2940 N   0  0  0  0  0  0  0  0  0  0  0  0
    8.8380   -2.0050   22.2050 C   0  0  0  0  0  0  0  0  0  0  0  0
    7.6740   -3.7920   23.1410 C   0  0  0  0  0  0  0  0  0  0  0  0
    5.5480   -4.7860   22.3040 C   0  0  0  0  0  0  0  0  0  0  0  0
    8.3380   -2.5330   23.3780 N   0  0  0  0  0  0  0  0  0  0  0  0
    6.0000   -6.1150   23.0000 C   0  0  0  0  0  0  0  0  0  0  0  0
    6.1390   -6.1360   21.7640 C   0  0  0  0  0  0  0  0  0  0  0  0
    6.4300    0.0700   20.1610 C   0  0  0  0  0  0  0  0  0  0  0  0
    9.2700   -2.6500   24.4930 C   0  0  2  0  0  0  0  0  0  0  0  0
    6.9230    0.0200   18.9170 C   0  0  0  0  0  0  0  0  0  0  0  0
    5.2580    0.7830   20.3630 C   0  0  0  0  0  0  0  0  0  0  0  0
   10.7430   -2.6160   24.0340 C   0  0  0  0  0  0  0  0  0  0  0  0
    9.0430   -3.8390   25.4150 C   0  0  0  0  0  0  0  0  0  0  0  0
    6.4070    0.6030   17.8120 N   0  0  0  0  0  0  0  0  0  0  0  0
    4.6090    1.4700   19.1460 C   0  0  0  0  0  0  0  0  0  0  0  0
    9.7920   -5.1340   25.4470 C   0  0  0  0  0  0  0  0  0  0  0  0
    7.8090   -3.8580   26.6330 S   0  0  0  0  0  0  0  0  0  0  0  0
   11.2370   -1.1800   23.8030 C   0  0  0  0  0  0  0  0  0  0  0  0
    5.2700    1.3130   17.9380 C   0  0  0  0  0  0  0  0  0  0  0  0
    9.3700   -5.9980   26.3830 C   0  0  0  0  0  0  0  0  0  0  0  0
    8.1950   -5.4260   27.2000 C   0  0  0  0  0  0  0  0  0  0  0  0
   10.5430   -0.1170   24.3920 C   0  0  0  0  0  0  0  0  0  0  0  0
   12.3360   -0.8490   23.0400 C   0  0  0  0  0  0  0  0  0  0  0  0
    7.2860   -6.0810   28.4890 Cl  0  0  0  0  0  0  0  0  0  0  0  0
   13.1750   -1.8570   22.3210 C   0  0  0  0  0  0  0  0  0  0  0  0
   10.9260    1.2040   24.2280 C   0  0  0  0  0  0  0  0  0  0  0  0
   12.7610    0.4620   22.8680 C   0  0  0  0  0  0  0  0  0  0  0  0
   12.0520    1.5070   23.4620 C   0  0  0  0  0  0  0  0  0  0  0  0
  1  2  1  0
  1  3  2  0
  1  4  1  0
  4  5  1  0
  4  6  1  0
  5  7  1  1
  5  8  1  0
  6  9  1  0
  6 10  1  6
  8 11  1  0
  9 11  1  0
 10 12  1  0
 10 13  1  0
 12 13  1  0
  7 14  1  0
 11 15  1  0
 14 16  2  0
 14 17  1  0
 15 18  1  6
 15 19  1  0
 16 20  1  0
 17 21  2  0
 19 22  2  0
 19 23  1  0
 18 24  1  0
 20 25  2  0
 21 25  1  0
 22 26  1  0
 23 27  1  0
 26 27  2  0
 24 28  2  0
 24 29  1  0
 27 30  1  0
 29 31  1  0
 28 32  1  0
 29 33  2  0
 32 34  2  0
 33 34  1  0
M  END
