x1412_1-x0831_1-x0692_1-x0831_0-x0397_0-x1334_0
     RDKit          3D

 27 30  0  0  0  0  0  0  0  0999 V2000
    6.3650   -3.3250   19.9070 C   0  0  0  0  0  0  0  0  0  0  0  0
    7.3460   -2.9940   18.7970 C   0  0  0  0  0  0  0  0  0  0  0  0
    5.4110   -4.0890   19.7130 O   0  0  0  0  0  0  0  0  0  0  0  0
    6.5720   -2.7750   21.1740 N   0  0  0  0  0  0  0  0  0  0  0  0
    7.0800   -1.4140   21.4750 C   0  0  0  0  0  0  0  0  0  0  0  0
    7.0340   -3.8190   22.1130 C   0  0  1  0  0  0  0  0  0  0  0  0
    8.5380   -1.4910   21.9070 C   0  0  0  0  0  0  0  0  0  0  0  0
    7.7570   -3.3070   23.3690 C   0  0  0  0  0  0  0  0  0  0  0  0
    5.8860   -4.7520   22.5110 C   0  0  0  0  0  0  0  0  0  0  0  0
    8.6490   -2.1330   23.2230 N   0  0  0  0  0  0  0  0  0  0  0  0
    5.8560   -5.8780   23.3350 C   0  0  0  0  0  0  0  0  0  0  0  0
    5.9890   -6.3630   22.1810 C   0  0  0  0  0  0  0  0  0  0  0  0
    9.9860   -2.3550   23.3400 C   0  0  2  0  0  0  0  0  0  0  0  0
   10.5070   -3.1900   24.4630 C   0  0  0  0  0  0  0  0  0  0  0  0
   10.7180   -1.0130   23.3890 C   0  0  0  0  0  0  0  0  0  0  0  0
   10.1250    0.2090   23.9130 C   0  0  0  0  0  0  0  0  0  0  0  0
   12.0590   -0.9610   22.8830 C   0  0  0  0  0  0  0  0  0  0  0  0
    9.6960   -4.1300   25.3540 C   0  0  0  0  0  0  0  0  0  0  0  0
   12.7610   -2.1400   22.3060 C   0  0  0  0  0  0  0  0  0  0  0  0
   10.7930    1.4440   23.9600 C   0  0  0  0  0  0  0  0  0  0  0  0
   12.8220    0.3550   22.9140 C   0  0  0  0  0  0  0  0  0  0  0  0
   10.0070   -5.4140   25.5640 C   0  0  0  0  0  0  0  0  0  0  0  0
    8.3000   -3.6830   26.2320 S   0  0  0  0  0  0  0  0  0  0  0  0
   12.2210    1.5810   23.4440 C   0  0  0  0  0  0  0  0  0  0  0  0
    9.0760   -6.0480   26.5130 C   0  0  0  0  0  0  0  0  0  0  0  0
    8.1420   -5.2220   26.9370 C   0  0  0  0  0  0  0  0  0  0  0  0
    6.8980   -5.5780   28.0560 Cl  0  0  0  0  0  0  0  0  0  0  0  0
  1  2  1  0
  1  3  2  0
  1  4  1  0
  4  5  1  0
  4  6  1  0
  5  7  1  0
  6  8  1  0
  6  9  1  1
  7 10  1  0
  8 10  1  0
  9 11  1  0
  9 12  1  0
 11 12  1  0
 10 13  1  0
 13 14  1  1
 13 15  1  0
 15 16  2  0
 15 17  1  0
 14 18  1  0
 17 19  1  0
 16 20  1  0
 17 21  2  0
 18 22  2  0
 18 23  1  0
 20 24  2  0
 21 24  1  0
 22 25  1  0
 23 26  1  0
 25 26  2  0
 26 27  1  0
M  END
