x1418_1-x1334_1-x1412_1-x1418_0-x0692_1
     RDKit          3D

 15 16  0  0  0  0  0  0  0  0999 V2000
    6.4190   -3.2290   19.8230 C   0  0  0  0  0  0  0  0  0  0  0  0
    7.3840   -2.9830   18.6770 C   0  0  0  0  0  0  0  0  0  0  0  0
    5.4800   -4.0310   19.7080 O   0  0  0  0  0  0  0  0  0  0  0  0
    6.6550   -2.5360   20.9990 N   0  0  0  0  0  0  0  0  0  0  0  0
    6.5500   -3.3120   22.2370 C   0  0  0  0  0  0  0  0  0  0  0  0
    7.5090   -1.3380   21.0970 C   0  0  0  0  0  0  0  0  0  0  0  0
    7.9090   -3.5630   22.9190 C   0  0  0  0  0  0  0  0  0  0  0  0
    8.8720   -1.6840   21.7240 C   0  0  0  0  0  0  0  0  0  0  0  0
    8.7840   -2.3750   23.0280 N   0  0  0  0  0  0  0  0  0  0  0  0
   10.1530   -2.7510   23.4210 C   0  0  0  0  0  0  0  0  0  0  0  0
   11.0920   -1.5890   23.4240 C   0  0  0  0  0  0  0  0  0  0  0  0
   12.1820   -1.3680   22.6020 C   0  0  0  0  0  0  0  0  0  0  0  0
   10.8700   -0.3150   24.5390 S   0  0  0  0  0  0  0  0  0  0  0  0
   12.8330   -0.1420   22.8930 C   0  0  0  0  0  0  0  0  0  0  0  0
   12.2140    0.5260   23.9140 C   0  0  0  0  0  0  0  0  0  0  0  0
  1  2  1  0
  1  3  2  0
  1  4  1  0
  4  5  1  0
  4  6  1  0
  5  7  1  0
  6  8  1  0
  7  9  1  0
  8  9  1  0
  9 10  1  0
 10 11  1  0
 11 12  2  0
 11 13  1  0
 12 14  1  0
 13 15  1  0
 14 15  2  0
M  END
