x1418_0-x1380_1
     RDKit          3D

 18 19  0  0  0  0  0  0  0  0999 V2000
    5.7720   -3.1750   25.3880 C   0  0  0  0  0  0  0  0  0  0  0  0
    5.8450   -3.6670   23.9250 C   0  0  1  0  0  0  0  0  0  0  0  0
    6.5070   -2.6600   23.2060 C   0  0  0  0  0  0  0  0  0  0  0  0
    4.7390   -2.7420   25.8780 O   0  0  0  0  0  0  0  0  0  0  0  0
    6.5540   -5.0560   23.7760 C   0  0  0  0  0  0  0  0  0  0  0  0
    6.6390   -5.4460   22.4310 C   0  0  0  0  0  0  0  0  0  0  0  0
    7.6130   -3.1450   22.3420 C   0  0  1  0  0  0  0  0  0  0  0  0
    8.8080   -3.3750   23.3340 C   0  0  0  0  0  0  0  0  0  0  0  0
    7.0580   -4.3290   21.5990 N   0  0  0  0  0  0  0  0  0  0  0  0
    6.4830   -4.1380   20.3460 C   0  0  0  0  0  0  0  0  0  0  0  0
   10.2410   -2.9770   22.9520 C   0  0  0  0  0  0  0  0  0  0  0  0
    7.2440   -3.2700   19.3730 C   0  0  0  0  0  0  0  0  0  0  0  0
    5.4400   -4.6930   19.9830 O   0  0  0  0  0  0  0  0  0  0  0  0
   10.9680   -1.6480   23.2660 C   0  0  0  0  0  0  0  0  0  0  0  0
   12.2350   -1.4030   22.4600 C   0  0  0  0  0  0  0  0  0  0  0  0
   10.5220   -0.3870   24.4350 S   0  0  0  0  0  0  0  0  0  0  0  0
   12.7620   -0.0730   22.9200 C   0  0  0  0  0  0  0  0  0  0  0  0
   11.8940    0.5690   23.9940 C   0  0  0  0  0  0  0  0  0  0  0  0
  2  1  1  1
  2  3  1  0
  1  4  2  0
  2  5  1  0
  5  6  1  0
  3  7  1  0
  7  8  1  1
  6  9  1  0
  7  9  1  0
  9 10  1  0
  8 11  1  0
 10 12  1  0
 10 13  2  0
 11 14  1  0
 14 15  2  0
 14 16  1  0
 15 17  1  0
 16 18  1  0
 17 18  2  0
M  END
