x1418_0-x1336_0
     RDKit          3D

 16 17  0  0  0  0  0  0  0  0999 V2000
    6.4730   -3.5200   19.9890 C   0  0  0  0  0  0  0  0  0  0  0  0
    7.3960   -3.0690   18.8670 C   0  0  0  0  0  0  0  0  0  0  0  0
    5.4630   -4.1950   19.7580 O   0  0  0  0  0  0  0  0  0  0  0  0
    6.8530   -3.1780   21.2810 N   0  0  0  0  0  0  0  0  0  0  0  0
    6.4160   -4.0660   22.3470 C   0  0  0  0  0  0  0  0  0  0  0  0
    8.0370   -2.3980   21.6140 C   0  0  0  0  0  0  0  0  0  0  0  0
    6.3810   -3.5140   23.6410 C   0  0  0  0  0  0  0  0  0  0  0  0
    8.1440   -1.9170   23.0470 C   0  0  1  0  0  0  0  0  0  0  0  0
    6.8350   -2.1110   23.6660 N   0  0  0  0  0  0  0  0  0  0  0  0
    9.1820   -2.6240   23.9370 C   0  0  0  0  0  0  0  0  0  0  0  0
   10.3840   -2.8500   23.2880 C   0  0  0  0  0  0  0  0  0  0  0  0
   11.2390   -1.5990   23.3460 C   0  0  0  0  0  0  0  0  0  0  0  0
   12.3520   -1.3480   22.5590 C   0  0  0  0  0  0  0  0  0  0  0  0
   10.8200   -0.2570   24.5300 S   0  0  0  0  0  0  0  0  0  0  0  0
   12.9040   -0.1100   22.8470 C   0  0  0  0  0  0  0  0  0  0  0  0
   12.2230    0.5870   23.8450 C   0  0  0  0  0  0  0  0  0  0  0  0
  1  2  1  0
  1  3  2  0
  1  4  1  0
  4  5  1  0
  4  6  1  0
  5  7  1  0
  6  8  1  0
  7  9  1  0
  8  9  1  0
  8 10  1  1
 10 11  1  0
 11 12  1  0
 12 13  2  0
 12 14  1  0
 13 15  1  0
 14 16  1  0
 15 16  2  0
M  END
