x1412_0-x0981_1-x0434_2-x1386_0-x0874_0-x1412_1
     RDKit          3D

 44 48  0  0  0  0  0  0  0  0999 V2000
    4.0070   -5.3210   23.2040 C   0  0  0  0  0  0  0  0  0  0  0  0
    2.7050   -6.0390   23.5530 C   0  0  1  0  0  0  0  0  0  0  0  0
    2.5090   -7.2820   22.7930 N   0  0  0  0  0  0  0  0  0  0  0  0
    4.0930   -4.0950   23.6250 N   0  0  0  0  0  0  0  0  0  0  0  0
    2.6270   -6.3370   25.0430 C   0  0  0  0  0  0  0  0  0  0  0  0
    5.2680   -3.2640   23.3610 C   0  0  0  0  0  0  0  0  0  0  0  0
    1.3280   -7.4830   22.1050 C   0  0  0  0  0  0  0  0  0  0  0  0
    3.0770   -7.7370   25.2870 C   0  0  0  0  0  0  0  0  0  0  0  0
    6.2980   -3.8610   22.3590 C   0  0  1  0  0  0  0  0  0  0  0  0
    1.2490   -8.7640   21.3100 C   0  0  0  0  0  0  0  0  0  0  0  0
    0.4120   -6.6710   22.1180 O   0  0  0  0  0  0  0  0  0  0  0  0
    2.4420   -8.4340   26.2690 N   0  0  0  0  0  0  0  0  0  0  0  0
    3.9780   -8.2130   24.6260 O   0  0  0  0  0  0  0  0  0  0  0  0
    6.5670   -2.8660   21.2670 N   0  0  0  0  0  0  0  0  0  0  0  0
    7.4300   -4.1510   23.1590 C   0  0  0  0  0  0  0  0  0  0  0  0
    6.3640   -3.3750   19.9640 C   0  0  0  0  0  0  0  0  0  0  0  0
    8.3030   -3.0240   23.4270 N   0  0  0  0  0  0  0  0  0  0  0  0
    7.4240   -1.7070   21.6950 C   0  0  2  0  0  0  0  0  0  0  0  0
    7.3600   -3.0210   18.8640 C   0  0  0  0  0  0  0  0  0  0  0  0
    5.4100   -4.1280   19.7460 O   0  0  0  0  0  0  0  0  0  0  0  0
    8.8230   -2.6910   24.7670 C   0  0  2  0  0  0  0  0  0  0  0  0
    7.7110   -0.8430   20.6720 N   0  0  0  0  0  0  0  0  0  0  0  0
    8.7280   -2.1840   22.3330 C   0  0  0  0  0  0  0  0  0  0  0  0
    8.0580   -1.8520   25.2800 O   0  0  0  0  0  0  0  0  0  0  0  0
   10.3300   -2.5490   24.8020 C   0  0  0  0  0  0  0  0  0  0  0  0
    8.7800   -3.8820   25.6890 C   0  0  0  0  0  0  0  0  0  0  0  0
    6.7820   -0.1410   19.9210 C   0  0  0  0  0  0  0  0  0  0  0  0
    9.4970   -5.0550   25.5670 C   0  0  0  0  0  0  0  0  0  0  0  0
    7.8010   -3.9670   27.1300 S   0  0  0  0  0  0  0  0  0  0  0  0
    6.9650    0.0760   18.5480 C   0  0  0  0  0  0  0  0  0  0  0  0
    5.4710    0.4820   20.4820 C   0  0  0  0  0  0  0  0  0  0  0  0
   11.0200   -1.3550   24.1580 C   0  0  0  0  0  0  0  0  0  0  0  0
    9.2770   -5.9710   26.5810 C   0  0  0  0  0  0  0  0  0  0  0  0
    8.3910   -5.5360   27.5040 C   0  0  0  0  0  0  0  0  0  0  0  0
    6.1810    0.7360   17.6940 N   0  0  0  0  0  0  0  0  0  0  0  0
    4.6870    1.1660   19.5430 C   0  0  0  0  0  0  0  0  0  0  0  0
   12.4230   -1.3740   23.7290 C   0  0  0  0  0  0  0  0  0  0  0  0
   10.4050    0.0090   23.9100 C   0  0  0  0  0  0  0  0  0  0  0  0
    5.0640    1.2710   18.2040 C   0  0  0  0  0  0  0  0  0  0  0  0
   13.0970   -0.3240   23.0750 C   0  0  2  0  0  0  0  0  0  0  0  0
   11.8320    0.7100   23.2240 S   0  0  0  0  0  0  0  0  0  0  0  0
   11.4890   -1.0190   23.6370 C   0  0  0  0  0  0  0  0  0  0  0  0
   13.1120   -1.3400   21.6420 S   0  0  0  0  0  0  0  0  0  0  0  0
   12.0700   -2.0120   22.8050 C   0  0  0  0  0  0  0  0  0  0  0  0
  2  1  1  1
  2  3  1  0
  1  4  2  3
  2  5  1  0
  4  6  1  0
  3  7  1  0
  5  8  1  0
  9  6  1  1
  7 10  1  0
  7 11  2  0
  8 12  1  0
  8 13  2  0
  9 14  1  0
  9 15  1  0
 14 16  1  0
 15 17  1  0
 14 18  1  0
 16 19  1  0
 16 20  2  0
 17 21  1  0
 18 22  1  6
 17 23  1  0
 18 23  1  0
 21 24  1  1
 21 25  1  0
 21 26  1  0
 22 27  1  0
 26 28  2  0
 26 29  1  0
 27 30  2  0
 27 31  1  0
 25 32  1  0
 28 33  1  0
 29 34  1  0
 33 34  2  0
 30 35  1  0
 31 36  2  0
 32 37  2  0
 32 38  1  0
 35 39  2  0
 36 39  1  0
 40 37  1  1
 38 41  2  0
 40 41  1  0
 41 42  1  0
 40 43  1  0
 42 44  2  0
 43 44  1  0
M  END
