x1412_0-x0736_1-x1334_1
     RDKit          3D

 16 17  0  0  0  0  0  0  0  0999 V2000
    6.3990   -3.3750   19.8920 C   0  0  0  0  0  0  0  0  0  0  0  0
    7.4180   -3.0060   18.8190 C   0  0  0  0  0  0  0  0  0  0  0  0
    5.3990   -4.0680   19.6750 O   0  0  0  0  0  0  0  0  0  0  0  0
    6.6150   -2.9500   21.1910 N   0  0  0  0  0  0  0  0  0  0  0  0
    7.6770   -1.9220   21.4170 C   0  0  0  0  0  0  0  0  0  0  0  0
    6.2760   -3.9150   22.2710 C   0  0  0  0  0  0  0  0  0  0  0  0
    8.6130   -2.1930   22.6150 C   0  0  0  0  0  0  0  0  0  0  0  0
    7.3700   -4.0360   23.3490 C   0  0  0  0  0  0  0  0  0  0  0  0
    7.7700   -2.6930   23.6950 N   0  0  0  0  0  0  0  0  0  0  0  0
    8.3690   -2.5770   25.0080 C   0  0  0  0  0  0  0  0  0  0  0  0
    8.6550   -1.2390   25.3850 O   0  0  0  0  0  0  0  0  0  0  0  0
    8.5800   -3.8360   25.7780 C   0  0  0  0  0  0  0  0  0  0  0  0
    9.3390   -4.9520   25.4810 C   0  0  0  0  0  0  0  0  0  0  0  0
    7.8200   -4.0850   27.3190 S   0  0  0  0  0  0  0  0  0  0  0  0
    9.3240   -5.9400   26.4210 C   0  0  0  0  0  0  0  0  0  0  0  0
    8.5450   -5.6350   27.4970 C   0  0  0  0  0  0  0  0  0  0  0  0
  1  2  1  0
  1  3  2  0
  1  4  1  0
  4  5  1  0
  4  6  1  0
  5  7  1  0
  6  8  1  0
  7  9  1  0
  8  9  1  0
  9 10  1  0
 10 11  2  0
 10 12  1  0
 12 13  2  0
 12 14  1  0
 13 15  1  0
 14 16  1  0
 15 16  2  0
M  END
