x1418_0-x0397_0-x0770_1-x1385_1-x1374_1-x0540_3-x0831_1-x0831_0-x0692_1
     RDKit          3D

 32 34  0  0  0  0  0  0  0  0999 V2000
    2.1770   -7.1100   23.6000 O   0  0  0  0  0  0  0  0  0  0  0  0
    2.6610   -7.3330   24.9090 C   0  0  0  0  0  0  0  0  0  0  0  0
    4.0080   -7.7770   24.8200 O   0  0  0  0  0  0  0  0  0  0  0  0
    4.6600   -7.1240   23.7350 C   0  0  0  0  0  0  0  0  0  0  0  0
    5.0670   -5.8870   24.1030 C   0  0  0  0  0  0  0  0  0  0  0  0
    6.0720   -5.3350   23.1400 C   0  0  2  0  0  0  0  0  0  0  0  0
    5.6780   -4.4030   22.3410 C   0  0  2  0  0  0  0  0  0  0  0  0
    6.2650   -5.9240   21.9580 C   0  0  0  0  0  0  0  0  0  0  0  0
    6.4470   -3.0700   22.3960 C   0  0  2  0  0  0  0  0  0  0  0  0
    6.4590   -2.4450   21.0550 N   0  0  0  0  0  0  0  0  0  0  0  0
    7.7240   -3.1870   22.9660 C   0  0  0  0  0  0  0  0  0  0  0  0
    6.3210   -3.2600   19.9100 C   0  0  0  0  0  0  0  0  0  0  0  0
    8.4790   -1.9090   23.0350 N   0  0  0  0  0  0  0  0  0  0  0  0
    7.3590   -1.2710   20.8830 C   0  0  1  0  0  0  0  0  0  0  0  0
    7.3030   -3.0070   18.7770 C   0  0  0  0  0  0  0  0  0  0  0  0
    5.4720   -4.1590   19.7870 O   0  0  0  0  0  0  0  0  0  0  0  0
    6.7340    0.1410   21.0670 C   0  0  0  0  0  0  0  0  0  0  0  0
    9.7090   -1.9770   23.8460 C   0  0  1  0  0  0  0  0  0  0  0  0
    8.6680   -1.4050   21.6540 C   0  0  0  0  0  0  0  0  0  0  0  0
    5.3040    0.2390   21.6560 C   0  0  0  0  0  0  0  0  0  0  0  0
   10.4620   -3.2810   23.6810 C   0  0  0  0  0  0  0  0  0  0  0  0
   10.6700   -0.8050   23.6450 C   0  0  0  0  0  0  0  0  0  0  0  0
    5.2250    1.4150   22.6690 C   0  0  0  0  0  0  0  0  0  0  0  0
   10.2350    0.4120   24.0960 C   0  0  0  0  0  0  0  0  0  0  0  0
   11.9210   -0.8980   23.0440 C   0  0  0  0  0  0  0  0  0  0  0  0
    4.0720    2.2610   22.4530 N   0  0  0  0  0  0  0  0  0  0  0  0
   12.5440   -2.1400   22.4870 C   0  0  0  0  0  0  0  0  0  0  0  0
   10.8780    1.8450   24.0840 C   0  0  0  0  0  0  0  0  0  0  0  0
   12.6420    0.2600   22.9530 C   0  0  0  0  0  0  0  0  0  0  0  0
    3.0050    2.1930   23.3070 C   0  0  0  0  0  0  0  0  0  0  0  0
   12.1770    1.4820   23.4150 C   0  0  0  0  0  0  0  0  0  0  0  0
    2.8280    1.3830   24.2090 O   0  0  0  0  0  0  0  0  0  0  0  0
  1  2  1  0
  2  3  1  0
  3  4  1  0
  4  5  1  0
  6  5  1  1
  6  7  1  0
  6  8  1  0
  7  8  1  6
  7  9  1  0
  9 10  1  0
  9 11  1  6
 10 12  1  0
 11 13  1  0
 10 14  1  0
 12 15  1  0
 12 16  2  0
 14 17  1  1
 13 18  1  0
 13 19  1  0
 14 19  1  0
 17 20  1  0
 18 21  1  6
 18 22  1  0
 20 23  1  0
 22 24  2  0
 22 25  1  0
 23 26  1  0
 25 27  1  0
 24 28  1  0
 25 29  2  0
 26 30  1  0
 28 31  2  0
 29 31  1  0
 30 32  2  0
M  END
