x1412_1-x0770_1-x1334_0-x0692_1-x1334_1-x0434_2-x0397_0-x1385_1-x0831_0
     RDKit          3D

 34 38  0  0  0  0  0  0  0  0999 V2000
    6.4420   -3.3540   19.9060 C   0  0  0  0  0  0  0  0  0  0  0  0
    7.3800   -3.0420   18.7580 C   0  0  0  0  0  0  0  0  0  0  0  0
    5.4630   -4.1000   19.7280 O   0  0  0  0  0  0  0  0  0  0  0  0
    6.7700   -2.7890   21.1430 N   0  0  0  0  0  0  0  0  0  0  0  0
    7.7640   -1.7240   21.1490 C   0  0  1  0  0  0  0  0  0  0  0  0
    6.8940   -3.6830   22.1450 C   0  0  1  0  0  0  0  0  0  0  0  0
    6.9520   -0.5230   21.2600 N   0  0  0  0  0  0  0  0  0  0  0  0
    8.8420   -1.8630   22.2220 C   0  0  0  0  0  0  0  0  0  0  0  0
    7.1450   -3.0680   23.5150 C   0  0  0  0  0  0  0  0  0  0  0  0
    5.7910   -4.6990   22.2280 C   0  0  0  0  0  0  0  0  0  0  0  0
    8.4120   -2.3400   23.5840 N   0  0  0  0  0  0  0  0  0  0  0  0
    5.9600   -5.8730   23.0760 C   0  0  0  0  0  0  0  0  0  0  0  0
    6.0070   -6.2120   21.8750 C   0  0  0  0  0  0  0  0  0  0  0  0
    6.4040    0.0920   20.1500 C   0  0  0  0  0  0  0  0  0  0  0  0
    9.4810   -3.2690   23.9240 C   0  0  1  0  0  0  0  0  0  0  0  0
    6.8740    0.0830   18.8900 C   0  0  0  0  0  0  0  0  0  0  0  0
    5.1240    0.8860   20.2980 C   0  0  0  0  0  0  0  0  0  0  0  0
   10.9130   -2.7000   23.9950 C   0  0  0  0  0  0  0  0  0  0  0  0
    9.1120   -4.1550   25.0970 C   0  0  0  0  0  0  0  0  0  0  0  0
    6.4110    0.6570   17.7720 N   0  0  0  0  0  0  0  0  0  0  0  0
    4.4740    1.5850   19.1490 C   0  0  0  0  0  0  0  0  0  0  0  0
    9.7660   -5.5150   25.3170 C   0  0  0  0  0  0  0  0  0  0  0  0
    7.9870   -3.8490   26.3090 S   0  0  0  0  0  0  0  0  0  0  0  0
   11.1150   -1.2010   23.8930 C   0  0  0  0  0  0  0  0  0  0  0  0
    5.2070    1.4210   17.8700 C   0  0  0  0  0  0  0  0  0  0  0  0
    9.1700   -6.1120   26.5480 C   0  0  0  0  0  0  0  0  0  0  0  0
    8.2230   -5.3190   27.1420 C   0  0  0  0  0  0  0  0  0  0  0  0
   10.3610   -0.1970   24.4620 C   0  0  0  0  0  0  0  0  0  0  0  0
   12.3180   -0.7560   23.0520 C   0  0  0  0  0  0  0  0  0  0  0  0
    7.3150   -5.6580   28.5460 Cl  0  0  0  0  0  0  0  0  0  0  0  0
   13.1760   -1.7780   22.3770 C   0  0  0  0  0  0  0  0  0  0  0  0
   10.6610    1.2830   24.3020 C   0  0  0  0  0  0  0  0  0  0  0  0
   12.6270    0.5230   22.8970 C   0  0  0  0  0  0  0  0  0  0  0  0
   11.8870    1.6770   23.4650 C   0  0  0  0  0  0  0  0  0  0  0  0
  1  2  1  0
  1  3  2  0
  1  4  1  0
  4  5  1  0
  4  6  1  0
  5  7  1  1
  5  8  1  0
  6  9  1  0
  6 10  1  1
  8 11  1  0
  9 11  1  0
 10 12  1  0
 10 13  1  0
 12 13  1  0
  7 14  1  0
 11 15  1  0
 14 16  2  0
 14 17  1  0
 15 18  1  1
 15 19  1  0
 16 20  1  0
 17 21  2  0
 19 22  2  0
 19 23  1  0
 18 24  1  0
 20 25  2  0
 21 25  1  0
 22 26  1  0
 23 27  1  0
 26 27  2  0
 24 28  2  0
 24 29  1  0
 27 30  1  0
 29 31  1  0
 28 32  1  0
 29 33  2  0
 32 34  2  0
 33 34  1  0
M  END
