x1418_1-x0770_1-x1334_1-x0692_1-x0831_1-x1334_0-x0831_0-x1385_1-x0540_3-x0397_0-x1374_1-x1412_1-x0434_2
     RDKit          3D

 44 48  0  0  0  0  0  0  0  0999 V2000
    2.0930   -7.0080   23.9150 O   0  0  0  0  0  0  0  0  0  0  0  0
    2.5140   -7.8820   24.9510 C   0  0  0  0  0  0  0  0  0  0  0  0
    3.9240   -7.9340   24.9000 O   0  0  0  0  0  0  0  0  0  0  0  0
    4.4400   -7.1750   23.8160 C   0  0  0  0  0  0  0  0  0  0  0  0
    5.0010   -6.0140   24.2700 C   0  0  0  0  0  0  0  0  0  0  0  0
    5.9410   -5.5670   23.2020 C   0  0  2  0  0  0  0  0  0  0  0  0
    5.5430   -4.7570   22.0960 C   0  0  2  0  0  0  0  0  0  0  0  0
    6.1430   -6.2980   22.1270 C   0  0  0  0  0  0  0  0  0  0  0  0
    6.3680   -3.5410   22.3570 C   0  0  1  0  0  0  0  0  0  0  0  0
    7.8040   -4.0460   22.6300 C   0  0  0  0  0  0  0  0  0  0  0  0
    6.3830   -2.6590   21.2010 N   0  0  0  0  0  0  0  0  0  0  0  0
    6.3020   -3.2660   19.9270 C   0  0  0  0  0  0  0  0  0  0  0  0
    8.5330   -2.8350   22.8950 N   0  0  0  0  0  0  0  0  0  0  0  0
    7.2540   -1.5240   21.5810 C   0  0  2  0  0  0  0  0  0  0  0  0
    7.3250   -2.9360   18.8320 C   0  0  0  0  0  0  0  0  0  0  0  0
    5.4100   -4.0930   19.7170 O   0  0  0  0  0  0  0  0  0  0  0  0
    6.6450   -0.0620   21.4040 C   0  0  2  0  0  0  0  0  0  0  0  0
    9.6200   -3.0220   23.8340 C   0  0  1  0  0  0  0  0  0  0  0  0
    8.6990   -2.0370   21.7810 C   0  0  0  0  0  0  0  0  0  0  0  0
    5.4820    0.2230   22.3920 C   0  0  0  0  0  0  0  0  0  0  0  0
    9.7860   -1.6120   24.3760 C   0  0  0  0  0  0  0  0  0  0  0  0
    9.2380   -4.0090   24.9680 C   0  0  0  0  0  0  0  0  0  0  0  0
    6.1920    0.4270   20.0480 C   0  0  0  0  0  0  0  0  0  0  0  0
    5.5020    1.6550   22.9170 C   0  0  0  0  0  0  0  0  0  0  0  0
    9.8200   -5.2150   25.1680 C   0  0  0  0  0  0  0  0  0  0  0  0
    8.0240   -3.7800   26.1940 S   0  0  0  0  0  0  0  0  0  0  0  0
   10.8080   -0.6140   23.8320 C   0  0  0  0  0  0  0  0  0  0  0  0
    6.8500    0.1710   18.8610 C   0  0  0  0  0  0  0  0  0  0  0  0
    5.0420    1.1900   20.0030 C   0  0  0  0  0  0  0  0  0  0  0  0
    4.2330    2.3710   22.6720 N   0  0  0  0  0  0  0  0  0  0  0  0
    9.3190   -6.0300   26.3390 C   0  0  0  0  0  0  0  0  0  0  0  0
    8.2940   -5.2810   26.9760 C   0  0  0  0  0  0  0  0  0  0  0  0
   10.5110    0.7050   24.2750 C   0  0  0  0  0  0  0  0  0  0  0  0
   11.9070   -0.8010   23.0330 C   0  0  0  0  0  0  0  0  0  0  0  0
    6.4250    0.6450   17.6820 N   0  0  0  0  0  0  0  0  0  0  0  0
    4.5480    1.7040   18.8300 C   0  0  0  0  0  0  0  0  0  0  0  0
    3.0810    2.0680   23.3550 C   0  0  0  0  0  0  0  0  0  0  0  0
    7.3790   -5.7220   28.3510 Cl  0  0  0  0  0  0  0  0  0  0  0  0
   12.3490   -2.1190   22.4640 C   0  0  0  0  0  0  0  0  0  0  0  0
   11.2450    1.8000   23.9720 C   0  0  0  0  0  0  0  0  0  0  0  0
   12.8110    0.4150   22.6610 C   0  0  0  0  0  0  0  0  0  0  0  0
    5.2620    1.4190   17.7060 C   0  0  0  0  0  0  0  0  0  0  0  0
    2.9950    1.4410   24.4080 O   0  0  0  0  0  0  0  0  0  0  0  0
   12.3730    1.7190   23.1980 C   0  0  0  0  0  0  0  0  0  0  0  0
  1  2  1  0
  2  3  1  0
  3  4  1  0
  4  5  1  0
  6  5  1  1
  6  7  1  0
  6  8  1  0
  7  8  1  6
  7  9  1  0
  9 10  1  6
  9 11  1  0
 11 12  1  0
 10 13  1  0
 11 14  1  0
 12 15  1  0
 12 16  2  0
 14 17  1  0
 13 18  1  0
 13 19  1  0
 14 19  1  6
 17 20  1  1
 18 21  1  1
 18 22  1  0
 17 23  1  0
 20 24  1  0
 22 25  2  0
 22 26  1  0
 21 27  1  0
 23 28  2  0
 23 29  1  0
 24 30  1  0
 25 31  1  0
 26 32  1  0
 31 32  2  0
 27 33  2  0
 27 34  1  0
 28 35  1  0
 29 36  2  0
 30 37  1  0
 32 38  1  0
 34 39  1  0
 33 40  1  0
 34 41  2  0
 35 42  2  0
 36 42  1  0
 37 43  2  0
 40 44  2  0
 41 44  1  0
M  END
