x1418_1-x0770_1-x0387_0-x1418_0-x0769_1
     RDKit          3D

 31 35  0  0  0  0  0  0  0  0999 V2000
    6.5850   -3.1130   19.6270 C   0  0  0  0  0  0  0  0  0  0  0  0
    7.1740   -2.5200   18.3610 C   0  0  0  0  0  0  0  0  0  0  0  0
    5.8870   -4.1230   19.5740 O   0  0  0  0  0  0  0  0  0  0  0  0
    6.9090   -2.5550   20.8100 N   0  0  0  0  0  0  0  0  0  0  0  0
    6.6470   -3.2090   22.0840 C   0  0  0  0  0  0  0  0  0  0  0  0
    7.6260   -1.3000   21.0140 C   0  0  0  0  0  0  0  0  0  0  0  0
    7.9640   -3.5080   22.7600 C   0  0  2  0  0  0  0  0  0  0  0  0
    8.9430   -1.6010   21.6850 C   0  0  0  0  0  0  0  0  0  0  0  0
    6.6860   -2.3990   24.0080 C   0  0  0  0  0  0  0  0  0  0  0  0
    8.7490   -2.2870   22.9660 C   0  0  1  0  0  0  0  0  0  0  0  0
    6.1250   -2.3930   25.0690 C   0  0  0  0  0  0  0  0  0  0  0  0
    9.7170   -1.5590   24.2350 C   0  0  0  0  0  0  0  0  0  0  0  0
   10.0540   -2.6430   23.5460 C   0  0  0  0  0  0  0  0  0  0  0  0
    5.5650   -2.3880   26.1300 O   0  0  0  0  0  0  0  0  0  0  0  0
   11.7330   -1.8440   22.5480 C   0  0  1  0  0  0  0  0  0  0  0  0
   10.8900   -0.2770   24.7770 S   0  0  0  0  0  0  0  0  0  0  0  0
    4.2290   -2.5750   26.0270 C   0  0  0  0  0  0  0  0  0  0  0  0
   11.0930   -1.2030   23.6570 C   0  0  0  0  0  0  0  0  0  0  0  0
   13.1760   -1.1740   22.2600 S   0  0  0  0  0  0  0  0  0  0  0  0
   11.4450   -0.1860   24.4810 C   0  0  0  0  0  0  0  0  0  0  0  0
    3.7020   -3.8600   25.8660 C   0  0  0  0  0  0  0  0  0  0  0  0
    3.4060   -1.4730   26.0770 C   0  0  0  0  0  0  0  0  0  0  0  0
   12.0010   -0.0950   24.1850 C   0  0  0  0  0  0  0  0  0  0  0  0
   13.2120   -0.0450   23.4170 C   0  0  0  0  0  0  0  0  0  0  0  0
   11.5470   -0.6490   23.9210 C   0  0  0  0  0  0  0  0  0  0  0  0
    4.7630   -5.2740   25.8110 S   0  0  0  0  0  0  0  0  0  0  0  0
    2.3260   -4.0180   25.7660 C   0  0  0  0  0  0  0  0  0  0  0  0
    2.0380   -1.6520   25.9750 C   0  0  0  0  0  0  0  0  0  0  0  0
    5.8050   -5.0820   26.7710 O   0  0  0  0  0  0  0  0  0  0  0  0
    3.9300   -6.4340   25.8920 O   0  0  0  0  0  0  0  0  0  0  0  0
    1.5000   -2.9110   25.8210 C   0  0  0  0  0  0  0  0  0  0  0  0
  1  2  1  0
  1  3  2  0
  1  4  1  0
  4  5  1  0
  4  6  1  0
  5  7  1  0
  6  8  1  0
  7  9  1  1
  7 10  1  0
 10  8  1  1
  9 11  1  0
 10 12  1  0
 10 13  1  0
 11 14  1  0
 15 13  1  1
 12 16  2  0
 14 17  1  0
 15 18  1  0
 16 18  1  0
 15 19  1  0
 16 20  2  0
 17 21  2  0
 17 22  1  0
 20 23  1  0
 19 24  2  0
 23 24  1  0
 18 25  1  0
 23 25  1  0
 21 26  1  0
 21 27  1  0
 22 28  2  0
 26 29  2  0
 26 30  2  0
 27 31  2  0
 28 31  1  0
M  END
