x1418_1-x0831_1-x1386_1-x0397_0-x0831_0
     RDKit          3D

 20 22  0  0  0  0  0  0  0  0999 V2000
    6.3060   -3.2590   19.8370 C   0  0  0  0  0  0  0  0  0  0  0  0
    7.2880   -2.9690   18.7060 C   0  0  0  0  0  0  0  0  0  0  0  0
    5.3510   -4.0220   19.6610 O   0  0  0  0  0  0  0  0  0  0  0  0
    6.5740   -2.6600   21.0680 N   0  0  0  0  0  0  0  0  0  0  0  0
    7.0210   -3.6490   22.0440 C   0  0  1  0  0  0  0  0  0  0  0  0
    7.3410   -1.4150   21.1430 C   0  0  0  0  0  0  0  0  0  0  0  0
    7.6920   -3.1140   23.3160 C   0  0  0  0  0  0  0  0  0  0  0  0
    8.7570   -1.6480   21.6780 C   0  0  0  0  0  0  0  0  0  0  0  0
    5.9440   -4.6420   22.4150 C   0  0  0  0  0  0  0  0  0  0  0  0
    8.7210   -2.1010   23.0690 N   0  0  0  0  0  0  0  0  0  0  0  0
    6.2200   -5.9020   23.3200 C   0  0  0  0  0  0  0  0  0  0  0  0
    6.0000   -6.1420   21.9760 C   0  0  0  0  0  0  0  0  0  0  0  0
   10.0630   -2.3460   23.5810 C   0  0  0  0  0  0  0  0  0  0  0  0
   10.8060   -1.0310   23.5570 C   0  0  0  0  0  0  0  0  0  0  0  0
   10.2780    0.3000   24.1730 C   0  0  0  0  0  0  0  0  0  0  0  0
   12.1950   -0.9640   22.8580 C   0  0  0  0  0  0  0  0  0  0  0  0
   12.8460   -2.1460   22.2070 C   0  0  0  0  0  0  0  0  0  0  0  0
   10.9470    1.4460   24.1110 C   0  0  0  0  0  0  0  0  0  0  0  0
   12.9110    0.3710   22.8320 C   0  0  0  0  0  0  0  0  0  0  0  0
   12.2960    1.6290   23.4580 C   0  0  0  0  0  0  0  0  0  0  0  0
  1  2  1  0
  1  3  2  0
  1  4  1  0
  4  5  1  0
  4  6  1  0
  5  7  1  0
  6  8  1  0
  5  9  1  1
  7 10  1  0
  8 10  1  0
  9 11  1  0
  9 12  1  0
 11 12  1  0
 10 13  1  0
 13 14  1  0
 14 15  2  0
 14 16  1  0
 16 17  1  0
 15 18  1  0
 16 19  2  0
 18 20  2  0
 19 20  1  0
M  END
