x1412_0-x0874_0
     RDKit          3D

 14 15  0  0  0  0  0  0  0  0999 V2000
    8.6340   -2.9900   24.4550 C   0  0  0  0  0  0  0  0  0  0  0  0
    8.3810   -1.6540   24.6660 N   0  0  0  0  0  0  0  0  0  0  0  0
    8.4830   -0.8110   23.4840 C   0  0  0  0  0  0  0  0  0  0  0  0
    8.5600   -3.9240   25.6370 C   0  0  0  0  0  0  0  0  0  0  0  0
    9.4780   -5.0970   25.6780 C   0  0  0  0  0  0  0  0  0  0  0  0
    7.5810   -3.9260   27.0480 S   0  0  0  0  0  0  0  0  0  0  0  0
    9.5900    0.2370   23.6980 C   0  0  0  0  0  0  0  0  0  0  0  0
    9.2790   -5.8250   26.7840 C   0  0  0  0  0  0  0  0  0  0  0  0
    8.2910   -5.3530   27.6570 C   0  0  0  0  0  0  0  0  0  0  0  0
   10.9880   -0.1830   23.1230 C   0  0  0  0  0  0  0  0  0  0  0  0
   12.1140    0.5940   23.2570 C   0  0  0  0  0  0  0  0  0  0  0  0
   11.2600   -1.3330   22.4350 C   0  0  0  0  0  0  0  0  0  0  0  0
   13.2400    0.0790   22.6910 C   0  0  0  0  0  0  0  0  0  0  0  0
   12.9240   -1.4360   21.9660 S   0  0  0  0  0  0  0  0  0  0  0  0
  1  2  2  3
  2  3  1  0
  1  4  1  0
  4  5  2  0
  4  6  1  0
  3  7  1  0
  5  8  1  0
  6  9  1  0
  8  9  2  0
  7 10  1  0
 10 11  1  0
 10 12  2  0
 11 13  2  0
 12 14  1  0
 13 14  1  0
M  END
