x1412_1-x0981_0
     RDKit          3D

 11 11  0  0  0  0  0  0  0  0999 V2000
    6.3630   -3.4130   19.9380 C   0  0  0  0  0  0  0  0  0  0  0  0
    7.2810   -3.0060   18.7960 C   0  0  0  0  0  0  0  0  0  0  0  0
    5.3560   -4.0800   19.6900 O   0  0  0  0  0  0  0  0  0  0  0  0
    6.7040   -3.0700   21.2380 N   0  0  0  0  0  0  0  0  0  0  0  0
    7.5250   -1.9950   21.4280 C   0  0  0  0  0  0  0  0  0  0  0  0
    6.5300   -4.0850   22.3100 C   0  0  1  0  0  0  0  0  0  0  0  0
    6.2260   -5.3700   21.7290 C   0  0  0  0  0  0  0  0  0  0  0  0
    8.6740   -2.2270   22.4020 C   0  0  0  0  0  0  0  0  0  0  0  0
    7.6300   -3.9640   23.4430 C   0  0  0  0  0  0  0  0  0  0  0  0
    5.1820   -6.1110   22.4770 N   0  0  0  0  0  0  0  0  0  0  0  0
    8.2750   -2.6790   23.6030 N   0  0  0  0  0  0  0  0  0  0  0  0
  1  2  1  0
  1  3  2  0
  1  4  1  0
  4  5  1  0
  4  6  1  0
  6  7  1  6
  5  8  1  0
  6  9  1  0
  7 10  1  0
  8 11  1  0
  9 11  1  0
M  END
