x1412_0-x1385_1-x0770_1-x1334_1
     RDKit          3D

 16 17  0  0  0  0  0  0  0  0999 V2000
    6.3490   -3.2300   19.9030 C   0  0  0  0  0  0  0  0  0  0  0  0
    7.3220   -2.9740   18.7670 C   0  0  0  0  0  0  0  0  0  0  0  0
    5.3940   -3.9870   19.6680 O   0  0  0  0  0  0  0  0  0  0  0  0
    6.5640   -2.6610   21.1550 N   0  0  0  0  0  0  0  0  0  0  0  0
    6.2260   -3.3910   22.3680 C   0  0  0  0  0  0  0  0  0  0  0  0
    7.6280   -1.6370   21.3140 C   0  0  0  0  0  0  0  0  0  0  0  0
    7.4800   -4.0080   22.9700 C   0  0  0  0  0  0  0  0  0  0  0  0
    8.8070   -2.0600   22.2220 C   0  0  0  0  0  0  0  0  0  0  0  0
    8.4140   -2.9620   23.3270 N   0  0  0  0  0  0  0  0  0  0  0  0
    8.5130   -2.6770   24.6890 C   0  0  0  0  0  0  0  0  0  0  0  0
    8.4760   -1.3570   25.1610 O   0  0  0  0  0  0  0  0  0  0  0  0
    8.6470   -3.8260   25.5680 C   0  0  0  0  0  0  0  0  0  0  0  0
    9.4220   -4.9640   25.3620 C   0  0  0  0  0  0  0  0  0  0  0  0
    7.7790   -3.8520   27.0650 S   0  0  0  0  0  0  0  0  0  0  0  0
    9.3380   -5.9040   26.4260 C   0  0  0  0  0  0  0  0  0  0  0  0
    8.3920   -5.3800   27.5240 C   0  0  0  0  0  0  0  0  0  0  0  0
  1  2  1  0
  1  3  2  0
  1  4  1  0
  4  5  1  0
  4  6  1  0
  5  7  1  0
  6  8  1  0
  7  9  1  0
  8  9  1  0
  9 10  1  0
 10 11  2  0
 10 12  1  0
 12 13  2  0
 12 14  1  0
 13 15  1  0
 14 16  1  0
 15 16  2  0
M  END
