x1418_1-x1334_0-x0831_1-x0831_0-x0692_1-x0770_1-x1375_1-x0397_0-x0426_1-x1374_1-x1334_1
     RDKit          3D

 42 47  0  0  0  0  0  0  0  0999 V2000
    3.0850   -8.0990   24.5320 O   0  0  0  0  0  0  0  0  0  0  0  0
    3.5530   -7.1600   25.4730 C   0  0  0  0  0  0  0  0  0  0  0  0
    4.7180   -6.5400   24.9870 O   0  0  0  0  0  0  0  0  0  0  0  0
    4.8980   -6.7900   23.6050 C   0  0  0  0  0  0  0  0  0  0  0  0
    5.8140   -5.8070   22.9710 C   0  0  2  0  0  0  0  0  0  0  0  0
    5.5100   -4.8170   22.2260 C   0  0  2  0  0  0  0  0  0  0  0  0
    6.1360   -6.0240   21.4540 C   0  0  0  0  0  0  0  0  0  0  0  0
    6.1540   -3.4640   22.4280 C   0  0  1  0  0  0  0  0  0  0  0  0
    7.4110   -3.5560   23.1950 C   0  0  0  0  0  0  0  0  0  0  0  0
    6.5250   -2.8260   21.1940 N   0  0  0  0  0  0  0  0  0  0  0  0
    6.3160   -3.3480   19.9200 C   0  0  0  0  0  0  0  0  0  0  0  0
    8.0010   -2.2930   23.4810 N   0  0  0  0  0  0  0  0  0  0  0  0
    7.1090   -1.5010   21.3250 C   0  0  1  0  0  0  0  0  0  0  0  0
    7.2900   -3.0210   18.8090 C   0  0  0  0  0  0  0  0  0  0  0  0
    5.3630   -4.1100   19.7020 O   0  0  0  0  0  0  0  0  0  0  0  0
    5.8630   -0.4510   21.4150 C   0  0  1  0  0  0  0  0  0  0  0  0
    9.2070   -2.5830   24.2430 C   0  0  2  0  0  0  0  0  0  0  0  0
    8.1800   -1.4380   22.2480 C   0  0  0  0  0  0  0  0  0  0  0  0
    5.8500    0.6110   22.5280 C   0  0  0  0  0  0  0  0  0  0  0  0
   10.3800   -2.5100   23.3020 C   0  0  0  0  0  0  0  0  0  0  0  0
    5.7080    0.2350   20.0990 C   0  0  0  0  0  0  0  0  0  0  0  0
    9.1460   -3.8590   25.1230 C   0  0  0  0  0  0  0  0  0  0  0  0
    4.7150    1.6860   22.4580 C   0  0  2  0  0  0  0  0  0  0  0  0
    4.7250    1.2050   20.0000 C   0  0  0  0  0  0  0  0  0  0  0  0
    6.4660   -0.0400   19.0190 C   0  0  0  0  0  0  0  0  0  0  0  0
    9.7890   -5.0760   25.1930 C   0  0  0  0  0  0  0  0  0  0  0  0
    7.9730   -3.8180   26.3990 S   0  0  0  0  0  0  0  0  0  0  0  0
   10.9820   -1.0890   23.3630 C   0  0  0  0  0  0  0  0  0  0  0  0
    3.8510    1.6670   23.6240 N   0  0  0  0  0  0  0  0  0  0  0  0
    3.8840    1.5210   21.1770 C   0  0  0  0  0  0  0  0  0  0  0  0
    4.5360    1.9390   18.6360 C   0  0  0  0  0  0  0  0  0  0  0  0
    6.3870    0.5340   17.7970 N   0  0  0  0  0  0  0  0  0  0  0  0
    9.3330   -5.9750   26.2950 C   0  0  0  0  0  0  0  0  0  0  0  0
    8.3250   -5.3710   27.0250 C   0  0  0  0  0  0  0  0  0  0  0  0
   10.2550    0.0650   24.1060 C   0  0  0  0  0  0  0  0  0  0  0  0
   12.2170   -0.8390   22.7460 C   0  0  0  0  0  0  0  0  0  0  0  0
    7.4530   -5.9470   28.3760 Cl  0  0  0  0  0  0  0  0  0  0  0  0
   12.9230   -1.9330   22.0140 C   0  0  0  0  0  0  0  0  0  0  0  0
    5.3820    1.5690   17.5860 C   0  0  0  0  0  0  0  0  0  0  0  0
   10.9940    1.4110   24.0800 C   0  0  0  0  0  0  0  0  0  0  0  0
   12.8410    0.3940   22.7680 C   0  0  0  0  0  0  0  0  0  0  0  0
   12.3090    1.5200   23.3860 C   0  0  0  0  0  0  0  0  0  0  0  0
  1  2  1  0
  2  3  1  0
  3  4  1  0
  5  4  1  6
  5  6  1  0
  5  7  1  0
  6  7  1  6
  6  8  1  0
  8  9  1  1
  8 10  1  0
 10 11  1  0
  9 12  1  0
 10 13  1  0
 11 14  1  0
 11 15  2  0
 13 16  1  0
 12 17  1  0
 12 18  1  0
 13 18  1  1
 16 19  1  1
 17 20  1  6
 16 21  1  0
 17 22  1  0
 19 23  1  0
 21 24  2  0
 21 25  1  0
 22 26  2  0
 22 27  1  0
 20 28  1  0
 23 29  1  1
 23 30  1  0
 24 30  1  0
 24 31  1  0
 25 32  2  0
 26 33  1  0
 27 34  1  0
 33 34  2  0
 28 35  2  0
 28 36  1  0
 34 37  1  0
 36 38  1  0
 31 39  2  0
 32 39  1  0
 35 40  1  0
 36 41  2  0
 40 42  2  0
 41 42  1  0
M  END
