x1412_0-x1412_1-x0981_1-x0831_0-x0434_1
     RDKit          3D

 46 50  0  0  0  0  0  0  0  0999 V2000
    3.7780   -4.9950   23.5750 C   0  0  0  0  0  0  0  0  0  0  0  0
    2.5730   -5.9580   23.7050 C   0  0  1  0  0  0  0  0  0  0  0  0
    2.5410   -7.0600   22.7370 N   0  0  0  0  0  0  0  0  0  0  0  0
    4.0880   -4.3350   22.5060 N   0  0  0  0  0  0  0  0  0  0  0  0
    2.5200   -6.4250   25.1800 C   0  0  0  0  0  0  0  0  0  0  0  0
    5.2220   -3.4560   22.8920 C   0  0  0  0  0  0  0  0  0  0  0  0
    1.3390   -7.3890   22.1210 C   0  0  0  0  0  0  0  0  0  0  0  0
    3.0080   -7.8340   25.3200 C   0  0  0  0  0  0  0  0  0  0  0  0
    6.5090   -4.0230   22.3350 C   0  0  1  0  0  0  0  0  0  0  0  0
    1.2780   -8.6960   21.3840 C   0  0  0  0  0  0  0  0  0  0  0  0
    0.3720   -6.6380   22.1550 O   0  0  0  0  0  0  0  0  0  0  0  0
    2.4140   -8.6300   26.2440 N   0  0  0  0  0  0  0  0  0  0  0  0
    3.9190   -8.2250   24.6200 O   0  0  0  0  0  0  0  0  0  0  0  0
    6.9380   -3.1980   21.2100 N   0  0  0  0  0  0  0  0  0  0  0  0
    7.6500   -3.9710   23.3050 C   0  0  0  0  0  0  0  0  0  0  0  0
    6.5160   -3.4880   19.9250 C   0  0  0  0  0  0  0  0  0  0  0  0
    7.8970   -2.5360   23.6160 N   0  0  0  0  0  0  0  0  0  0  0  0
    8.3220   -2.7070   21.3730 C   0  0  0  0  0  0  0  0  0  0  0  0
    7.4170   -3.0640   18.7610 C   0  0  0  0  0  0  0  0  0  0  0  0
    5.4680   -4.1080   19.7050 O   0  0  0  0  0  0  0  0  0  0  0  0
    8.4000   -2.3980   24.9400 C   0  0  2  0  0  0  0  0  0  0  0  0
    8.6670   -1.9610   22.6690 C   0  0  1  0  0  0  0  0  0  0  0  0
    8.1840   -0.5420   22.1570 C   0  0  0  0  0  0  0  0  0  0  0  0
    7.7110   -1.4040   25.6720 O   0  0  0  0  0  0  0  0  0  0  0  0
   10.0600   -1.8740   23.3560 C   0  0  2  0  0  0  0  0  0  0  0  0
    9.8320   -2.0100   24.8570 C   0  0  0  0  0  0  0  0  0  0  0  0
    8.4700   -3.6710   25.8000 C   0  0  0  0  0  0  0  0  0  0  0  0
    8.9250    0.4580   22.1300 O   0  0  0  0  0  0  0  0  0  0  0  0
    6.8140   -0.5390   21.6380 N   0  0  0  0  0  0  0  0  0  0  0  0
    9.5340   -4.8390   25.6660 C   0  0  0  0  0  0  0  0  0  0  0  0
    7.4090   -4.0280   27.0810 S   0  0  0  0  0  0  0  0  0  0  0  0
   10.9220   -0.6820   23.3170 C   0  0  0  0  0  0  0  0  0  0  0  0
    6.2660    0.0960   20.4280 C   0  0  0  0  0  0  0  0  0  0  0  0
    9.3200   -5.7990   26.5870 C   0  0  0  0  0  0  0  0  0  0  0  0
    8.1600   -5.5210   27.4880 C   0  0  0  0  0  0  0  0  0  0  0  0
   10.4730    0.4940   23.8540 C   0  0  0  0  0  0  0  0  0  0  0  0
   12.2930   -0.7020   22.7190 C   0  0  0  0  0  0  0  0  0  0  0  0
   12.9510   -1.8870   22.0840 C   0  0  0  0  0  0  0  0  0  0  0  0
    6.8940   -0.0170   19.0100 C   0  0  0  0  0  0  0  0  0  0  0  0
    5.1020    0.8680   20.4690 C   0  0  0  0  0  0  0  0  0  0  0  0
   11.1490    1.6910   23.9000 C   0  0  0  0  0  0  0  0  0  0  0  0
   13.0330    0.5920   22.7740 C   0  0  0  0  0  0  0  0  0  0  0  0
    6.4520    0.5420   17.8390 N   0  0  0  0  0  0  0  0  0  0  0  0
    4.6310    1.4400   19.3150 C   0  0  0  0  0  0  0  0  0  0  0  0
   12.4730    1.7510   23.3400 C   0  0  0  0  0  0  0  0  0  0  0  0
    5.3360    1.2690   17.9560 C   0  0  0  0  0  0  0  0  0  0  0  0
  2  1  1  1
  2  3  1  0
  1  4  2  3
  2  5  1  0
  4  6  1  0
  3  7  1  0
  5  8  1  0
  9  6  1  1
  7 10  1  0
  7 11  2  0
  8 12  1  0
  8 13  2  0
  9 14  1  0
  9 15  1  0
 14 16  1  0
 15 17  1  0
 14 18  1  0
 16 19  1  0
 16 20  2  0
 17 21  1  0
 17 22  1  0
 18 22  1  0
 22 23  1  6
 21 24  1  1
 22 25  1  0
 21 26  1  0
 25 26  1  0
 21 27  1  0
 23 28  2  0
 23 29  1  0
 27 30  2  0
 27 31  1  0
 25 32  1  1
 29 33  1  0
 30 34  1  0
 31 35  1  0
 34 35  2  0
 32 36  2  0
 32 37  1  0
 37 38  1  0
 33 39  2  0
 33 40  1  0
 36 41  1  0
 37 42  2  0
 39 43  1  0
 40 44  2  0
 41 45  2  0
 42 45  1  0
 43 46  2  0
 44 46  1  0
M  END
