x1418_0-x0397_0-x0770_1-x1385_1-x0426_1-x1386_1-x0831_1-x0831_0-x1334_1
     RDKit          3D

 32 36  0  0  0  0  0  0  0  0999 V2000
    6.2540   -3.1720   19.8530 C   0  0  0  0  0  0  0  0  0  0  0  0
    7.3610   -2.9060   18.8290 C   0  0  0  0  0  0  0  0  0  0  0  0
    5.2570   -3.8220   19.5190 O   0  0  0  0  0  0  0  0  0  0  0  0
    6.3740   -2.7880   21.2030 N   0  0  0  0  0  0  0  0  0  0  0  0
    6.8380   -1.5490   21.8600 C   0  0  2  0  0  0  0  0  0  0  0  0
    6.9360   -3.8790   21.9130 C   0  0  1  0  0  0  0  0  0  0  0  0
    6.1160   -0.1580   21.6300 C   0  0  2  0  0  0  0  0  0  0  0  0
    8.3650   -1.5180   21.9490 C   0  0  0  0  0  0  0  0  0  0  0  0
    7.7350   -3.5740   23.1850 C   0  0  0  0  0  0  0  0  0  0  0  0
    6.0670   -4.5260   23.0420 C   0  0  0  0  0  0  0  0  0  0  0  0
    4.7750   -0.0390   22.4350 C   0  0  0  0  0  0  0  0  0  0  0  0
    8.8070   -2.5590   22.8700 N   0  0  0  0  0  0  0  0  0  0  0  0
    6.5080   -5.8340   23.7810 C   0  0  0  0  0  0  0  0  0  0  0  0
    5.5160   -5.9870   22.8010 C   0  0  0  0  0  0  0  0  0  0  0  0
    5.8660    0.3740   20.2380 C   0  0  0  0  0  0  0  0  0  0  0  0
    4.2940    1.4150   22.4040 C   0  0  2  0  0  0  0  0  0  0  0  0
    9.7970   -2.2480   23.8950 C   0  0  1  0  0  0  0  0  0  0  0  0
    4.7710    1.2180   19.9440 C   0  0  0  0  0  0  0  0  0  0  0  0
    6.7260    0.0570   19.1980 C   0  0  0  0  0  0  0  0  0  0  0  0
    3.3790    1.7140   23.5130 N   0  0  0  0  0  0  0  0  0  0  0  0
    3.7650    1.6270   20.9850 C   0  0  0  0  0  0  0  0  0  0  0  0
   10.8880   -3.3070   24.1290 C   0  0  0  0  0  0  0  0  0  0  0  0
    4.6190    1.6930   18.6590 C   0  0  0  0  0  0  0  0  0  0  0  0
    6.5460    0.5600   17.8600 N   0  0  0  0  0  0  0  0  0  0  0  0
   10.6770   -1.0030   23.6730 C   0  0  0  0  0  0  0  0  0  0  0  0
    5.4940    1.3690   17.6500 C   0  0  0  0  0  0  0  0  0  0  0  0
   10.1440    0.1200   24.2380 C   0  0  0  0  0  0  0  0  0  0  0  0
   12.0580   -0.8850   22.9080 C   0  0  0  0  0  0  0  0  0  0  0  0
   12.7870   -1.9950   22.2180 C   0  0  0  0  0  0  0  0  0  0  0  0
   10.8130    1.4680   24.1660 C   0  0  0  0  0  0  0  0  0  0  0  0
   12.6140    0.4440   22.9090 C   0  0  0  0  0  0  0  0  0  0  0  0
   12.1010    1.5490   23.4580 C   0  0  0  0  0  0  0  0  0  0  0  0
  1  2  1  0
  1  3  2  0
  1  4  1  0
  4  5  1  0
  4  6  1  0
  5  7  1  0
  5  8  1  6
  6  9  1  0
  6 10  1  1
  7 11  1  6
  8 12  1  0
  9 12  1  0
 10 13  1  0
 10 14  1  0
 13 14  1  0
  7 15  1  0
 11 16  1  0
 12 17  1  0
 15 18  2  0
 15 19  1  0
 16 20  1  1
 16 21  1  0
 18 21  1  0
 17 22  1  6
 18 23  1  0
 19 24  2  0
 17 25  1  0
 23 26  2  0
 24 26  1  0
 25 27  2  0
 25 28  1  0
 28 29  1  0
 27 30  1  0
 28 31  2  0
 30 32  2  0
 31 32  1  0
M  END
