x1418_1-x1334_1-x0387_0-x1412_0-x1386_1
     RDKit          3D

 22 24  0  0  0  0  0  0  0  0999 V2000
    6.3840   -3.2250   19.8680 C   0  0  0  0  0  0  0  0  0  0  0  0
    7.3120   -2.9580   18.7090 C   0  0  0  0  0  0  0  0  0  0  0  0
    5.4500   -4.0320   19.7070 O   0  0  0  0  0  0  0  0  0  0  0  0
    6.6390   -2.5860   21.0790 N   0  0  0  0  0  0  0  0  0  0  0  0
    6.3720   -3.2410   22.3390 C   0  0  0  0  0  0  0  0  0  0  0  0
    7.5810   -1.4280   21.2220 C   0  0  0  0  0  0  0  0  0  0  0  0
    7.6550   -3.7460   23.0050 C   0  0  0  0  0  0  0  0  0  0  0  0
    8.8470   -1.7440   22.1040 C   0  0  0  0  0  0  0  0  0  0  0  0
    8.7210   -2.7470   23.2030 N   0  0  0  0  0  0  0  0  0  0  0  0
    8.7680   -2.2390   24.5960 C   0  0  2  0  0  0  0  0  0  0  0  0
    7.8550   -1.4540   24.8620 O   0  0  0  0  0  0  0  0  0  0  0  0
    9.9650   -1.2740   24.7860 C   0  0  0  0  0  0  0  0  0  0  0  0
    8.8490   -3.4240   25.4780 C   0  0  0  0  0  0  0  0  0  0  0  0
    9.8830   -4.5460   25.5880 C   0  0  0  0  0  0  0  0  0  0  0  0
    7.6140   -3.7370   26.6590 S   0  0  0  0  0  0  0  0  0  0  0  0
   11.1350   -1.1780   23.8260 C   0  0  0  0  0  0  0  0  0  0  0  0
    9.4980   -5.5510   26.6570 C   0  0  0  0  0  0  0  0  0  0  0  0
    8.3050   -5.1890   27.2800 C   0  0  0  0  0  0  0  0  0  0  0  0
   11.9770   -0.1000   23.8710 C   0  0  0  0  0  0  0  0  0  0  0  0
   11.5790   -2.0540   22.8090 C   0  0  0  0  0  0  0  0  0  0  0  0
   13.1010   -0.0970   22.8990 C   0  0  0  0  0  0  0  0  0  0  0  0
   13.0140   -1.5320   21.9520 S   0  0  0  0  0  0  0  0  0  0  0  0
  1  2  1  0
  1  3  2  0
  1  4  1  0
  4  5  1  0
  4  6  1  0
  5  7  1  0
  6  8  1  0
  7  9  1  0
  8  9  1  0
  9 10  1  0
 10 11  1  1
 10 12  1  0
 10 13  1  0
 13 14  2  0
 13 15  1  0
 12 16  1  0
 14 17  1  0
 15 18  1  0
 17 18  2  0
 16 19  1  0
 16 20  2  0
 19 21  2  0
 20 22  1  0
 21 22  1  0
M  END
