x1412_0-x0736_1-x1418_0
     RDKit          3D

 23 26  0  0  0  0  0  0  0  0999 V2000
    6.4720   -3.4330   19.9180 C   0  0  0  0  0  0  0  0  0  0  0  0
    7.4390   -3.0380   18.8090 C   0  0  0  0  0  0  0  0  0  0  0  0
    5.4680   -4.1270   19.7340 O   0  0  0  0  0  0  0  0  0  0  0  0
    6.7940   -3.0120   21.1970 N   0  0  0  0  0  0  0  0  0  0  0  0
    7.8260   -1.9490   21.4450 C   0  0  0  0  0  0  0  0  0  0  0  0
    6.2990   -3.7410   22.3910 C   0  0  0  0  0  0  0  0  0  0  0  0
    8.4460   -1.9210   22.8600 C   0  0  2  0  0  0  0  0  0  0  0  0
    7.3390   -4.0190   23.2760 C   0  0  0  0  0  0  0  0  0  0  0  0
    9.9360   -2.3520   22.8560 C   0  0  2  0  0  0  0  0  0  0  0  0
    7.7950   -2.7790   23.8850 N   0  0  0  0  0  0  0  0  0  0  0  0
    8.8180   -2.8880   24.8400 C   0  0  1  0  0  0  0  0  0  0  0  0
   10.0430   -3.2140   24.0530 C   0  0  0  0  0  0  0  0  0  0  0  0
   10.9470   -1.2730   23.0360 C   0  0  0  0  0  0  0  0  0  0  0  0
    8.9840   -1.8680   25.4920 O   0  0  0  0  0  0  0  0  0  0  0  0
    8.7290   -4.0000   25.8000 C   0  0  0  0  0  0  0  0  0  0  0  0
   12.3390   -1.1570   22.3440 C   0  0  0  0  0  0  0  0  0  0  0  0
   10.7110    0.0130   24.0740 S   0  0  0  0  0  0  0  0  0  0  0  0
    9.4820   -5.1610   25.6980 C   0  0  0  0  0  0  0  0  0  0  0  0
    7.7070   -4.0320   27.1900 S   0  0  0  0  0  0  0  0  0  0  0  0
   12.9470   -0.0150   22.7940 C   0  0  0  0  0  0  0  0  0  0  0  0
   12.2250    0.7190   23.7040 C   0  0  0  0  0  0  0  0  0  0  0  0
    9.2470   -6.0360   26.6950 C   0  0  0  0  0  0  0  0  0  0  0  0
    8.3210   -5.5770   27.5790 C   0  0  0  0  0  0  0  0  0  0  0  0
  1  2  1  0
  1  3  2  0
  1  4  1  0
  4  5  1  0
  4  6  1  0
  7  5  1  6
  6  8  1  0
  7  9  1  0
  7 10  1  0
  8 10  1  0
 10 11  1  0
  9 12  1  0
 11 12  1  0
  9 13  1  1
 11 14  1  1
 11 15  1  0
 13 16  2  0
 13 17  1  0
 15 18  2  0
 15 19  1  0
 16 20  1  0
 17 21  1  0
 20 21  2  0
 18 22  1  0
 19 23  1  0
 22 23  2  0
M  END
