x1412_0-x0752_1-x0770_1
     RDKit          3D

 27 31  0  0  0  0  0  0  0  0999 V2000
    6.3330   -3.2910   19.8460 C   0  0  0  0  0  0  0  0  0  0  0  0
    7.3170   -2.9860   18.7310 C   0  0  0  0  0  0  0  0  0  0  0  0
    5.3440   -4.0040   19.6640 O   0  0  0  0  0  0  0  0  0  0  0  0
    6.6960   -2.7420   21.1010 N   0  0  0  0  0  0  0  0  0  0  0  0
    7.5020   -1.5030   21.2850 C   0  0  0  0  0  0  0  0  0  0  0  0
    6.8380   -3.7770   22.1240 C   0  0  1  0  0  0  0  0  0  0  0  0
    6.8200   -5.1730   21.4700 C   0  0  0  0  0  0  0  0  0  0  0  0
    8.4950   -1.4910   22.4940 C   0  0  0  0  0  0  0  0  0  0  0  0
    7.9540   -3.6860   22.9100 C   0  0  0  0  0  0  0  0  0  0  0  0
    5.6650   -3.9700   23.0370 C   0  0  0  0  0  0  0  0  0  0  0  0
    6.5380   -6.1520   22.5960 C   0  0  0  0  0  0  0  0  0  0  0  0
    8.0650   -2.4220   23.5280 N   0  0  0  0  0  0  0  0  0  0  0  0
    5.4990   -5.3460   23.2800 C   0  0  0  0  0  0  0  0  0  0  0  0
    4.8080   -3.0440   23.5950 C   0  0  0  0  0  0  0  0  0  0  0  0
    8.3420   -2.2790   24.8890 C   0  0  0  0  0  0  0  0  0  0  0  0
    4.4970   -5.8470   24.0450 C   0  0  0  0  0  0  0  0  0  0  0  0
    3.7960   -3.5640   24.3700 C   0  0  0  0  0  0  0  0  0  0  0  0
    8.4420   -1.1650   25.3970 O   0  0  0  0  0  0  0  0  0  0  0  0
    8.4950   -3.5450   25.7020 C   0  0  0  0  0  0  0  0  0  0  0  0
    3.6160   -4.9210   24.6000 C   0  0  0  0  0  0  0  0  0  0  0  0
    2.8410   -2.8390   25.0060 O   0  0  0  0  0  0  0  0  0  0  0  0
    9.3490   -4.7300   25.3500 C   0  0  0  0  0  0  0  0  0  0  0  0
    7.7190   -3.8730   27.2040 S   0  0  0  0  0  0  0  0  0  0  0  0
    2.5480   -5.1970   25.3780 O   0  0  0  0  0  0  0  0  0  0  0  0
    1.9490   -3.8910   25.4370 C   0  0  0  0  0  0  0  0  0  0  0  0
    9.2860   -5.7280   26.2950 C   0  0  0  0  0  0  0  0  0  0  0  0
    8.4540   -5.4320   27.3630 C   0  0  0  0  0  0  0  0  0  0  0  0
  1  2  1  0
  1  3  2  0
  1  4  1  0
  4  5  1  0
  6  4  1  0
  6  7  1  6
  5  8  1  0
  6  9  1  0
  6 10  1  0
  7 11  1  0
  8 12  1  0
  9 12  1  0
 10 13  2  0
 11 13  1  0
 10 14  1  0
 12 15  1  0
 13 16  1  0
 14 17  2  0
 15 18  2  0
 15 19  1  0
 16 20  2  0
 17 20  1  0
 17 21  1  0
 19 22  2  0
 19 23  1  0
 20 24  1  0
 21 25  1  0
 24 25  1  0
 22 26  1  0
 23 27  1  0
 26 27  2  0
M  END
