x1412_1-x1412_0-x0874_0
     RDKit          3D

 23 25  0  0  0  0  0  0  0  0999 V2000
    6.3540   -3.3750   19.9300 C   0  0  0  0  0  0  0  0  0  0  0  0
    7.3300   -3.0110   18.8160 C   0  0  0  0  0  0  0  0  0  0  0  0
    5.3930   -4.1350   19.7360 O   0  0  0  0  0  0  0  0  0  0  0  0
    6.6030   -2.8420   21.1790 N   0  0  0  0  0  0  0  0  0  0  0  0
    7.6200   -1.8000   21.4160 C   0  0  0  0  0  0  0  0  0  0  0  0
    6.3070   -3.7140   22.3340 C   0  0  0  0  0  0  0  0  0  0  0  0
    8.8480   -2.3380   22.1770 C   0  0  0  0  0  0  0  0  0  0  0  0
    7.4680   -4.3180   22.8070 C   0  0  0  0  0  0  0  0  0  0  0  0
    8.4050   -3.2680   23.2190 N   0  0  0  0  0  0  0  0  0  0  0  0
    8.5310   -2.9480   24.5510 C   0  0  0  0  0  0  0  0  0  0  0  0
    8.6830   -1.6280   25.1000 N   0  0  0  0  0  0  0  0  0  0  0  0
    8.5960   -4.0360   25.6010 C   0  0  0  0  0  0  0  0  0  0  0  0
    8.7970   -0.5580   24.2980 C   0  0  0  0  0  0  0  0  0  0  0  0
    9.3460   -5.1540   25.4510 C   0  0  0  0  0  0  0  0  0  0  0  0
    7.7230   -3.9900   27.1880 S   0  0  0  0  0  0  0  0  0  0  0  0
   10.2400   -0.1480   24.5090 C   0  0  0  0  0  0  0  0  0  0  0  0
    9.3200   -6.1460   26.6260 C   0  0  0  0  0  0  0  0  0  0  0  0
    8.4670   -5.5740   27.5840 C   0  0  0  0  0  0  0  0  0  0  0  0
   11.3290   -0.4570   23.5370 C   0  0  0  0  0  0  0  0  0  0  0  0
   12.3530    0.4180   23.4540 C   0  0  0  0  0  0  0  0  0  0  0  0
   11.5140   -1.5520   22.6560 C   0  0  0  0  0  0  0  0  0  0  0  0
   13.3960   -0.0300   22.4660 C   0  0  0  0  0  0  0  0  0  0  0  0
   12.9870   -1.5120   21.7380 S   0  0  0  0  0  0  0  0  0  0  0  0
  1  2  1  0
  1  3  2  0
  1  4  1  0
  4  5  1  0
  4  6  1  0
  5  7  1  0
  6  8  1  0
  7  9  1  0
  8  9  1  0
  9 10  1  0
 10 11  2  3
 10 12  1  0
 11 13  1  0
 12 14  2  0
 12 15  1  0
 13 16  1  0
 14 17  1  0
 15 18  1  0
 17 18  2  0
 16 19  1  0
 19 20  1  0
 19 21  2  0
 20 22  2  0
 21 23  1  0
 22 23  1  0
M  END
