x1418_1-x1418_0-x0692_1
     RDKit          3D

 15 16  0  0  0  0  0  0  0  0999 V2000
    6.3160   -3.2330   19.8670 C   0  0  0  0  0  0  0  0  0  0  0  0
    7.2640   -2.9700   18.7050 C   0  0  0  0  0  0  0  0  0  0  0  0
    5.4310   -4.1020   19.7390 O   0  0  0  0  0  0  0  0  0  0  0  0
    6.5080   -2.5000   21.0350 N   0  0  0  0  0  0  0  0  0  0  0  0
    6.4380   -3.2250   22.3060 C   0  0  0  0  0  0  0  0  0  0  0  0
    7.3450   -1.2940   21.0950 C   0  0  0  0  0  0  0  0  0  0  0  0
    7.7910   -3.4430   23.0020 C   0  0  0  0  0  0  0  0  0  0  0  0
    8.7410   -1.5840   21.6470 C   0  0  0  0  0  0  0  0  0  0  0  0
    8.7640   -2.3440   22.8960 N   0  0  0  0  0  0  0  0  0  0  0  0
    9.9820   -2.5590   23.5360 C   0  0  0  0  0  0  0  0  0  0  0  0
   10.9620   -1.5030   23.4850 C   0  0  0  0  0  0  0  0  0  0  0  0
   12.0720   -1.4230   22.6430 C   0  0  0  0  0  0  0  0  0  0  0  0
   10.8330   -0.1480   24.5270 S   0  0  0  0  0  0  0  0  0  0  0  0
   12.8030   -0.2270   22.8670 C   0  0  0  0  0  0  0  0  0  0  0  0
   12.2330    0.5260   23.8420 C   0  0  0  0  0  0  0  0  0  0  0  0
  1  2  1  0
  1  3  2  0
  1  4  1  0
  4  5  1  0
  4  6  1  0
  5  7  1  0
  6  8  1  0
  7  9  1  0
  8  9  1  0
  9 10  1  0
 10 11  1  0
 11 12  2  0
 11 13  1  0
 12 14  1  0
 13 15  1  0
 14 15  2  0
M  END
