x1412_0-x0770_1-x0434_2
     RDKit          3D

 23 25  0  0  0  0  0  0  0  0999 V2000
    6.3830   -3.2780   19.8740 C   0  0  0  0  0  0  0  0  0  0  0  0
    7.3310   -3.0060   18.7150 C   0  0  0  0  0  0  0  0  0  0  0  0
    5.4900   -4.1340   19.7480 O   0  0  0  0  0  0  0  0  0  0  0  0
    6.5610   -2.5650   21.0610 N   0  0  0  0  0  0  0  0  0  0  0  0
    7.7600   -1.6600   21.1310 C   0  0  2  0  0  0  0  0  0  0  0  0
    6.1910   -3.2560   22.2860 C   0  0  0  0  0  0  0  0  0  0  0  0
    8.6580   -1.7320   22.4180 C   0  0  0  0  0  0  0  0  0  0  0  0
    7.4370   -3.8260   22.9510 C   0  0  0  0  0  0  0  0  0  0  0  0
    7.4800   -0.2180   20.7830 C   0  0  0  0  0  0  0  0  0  0  0  0
    8.3020   -2.7420   23.3930 N   0  0  0  0  0  0  0  0  0  0  0  0
    7.1430    0.1190   19.3510 C   0  0  0  0  0  0  0  0  0  0  0  0
    8.4650   -2.6690   24.7420 C   0  0  0  0  0  0  0  0  0  0  0  0
    6.1060    0.4450   20.2870 C   0  0  0  0  0  0  0  0  0  0  0  0
    6.4910    0.5790   18.0830 N   0  0  0  0  0  0  0  0  0  0  0  0
    8.4750   -1.5420   25.2410 O   0  0  0  0  0  0  0  0  0  0  0  0
    8.5980   -3.7110   25.5660 C   0  0  0  0  0  0  0  0  0  0  0  0
    5.2030    1.1870   17.9040 C   0  0  0  0  0  0  0  0  0  0  0  0
    4.8420    1.0200   20.1600 C   0  0  0  0  0  0  0  0  0  0  0  0
    9.4350   -4.9550   25.3550 C   0  0  0  0  0  0  0  0  0  0  0  0
    7.7700   -3.8610   27.1640 S   0  0  0  0  0  0  0  0  0  0  0  0
    4.3290    1.4270   18.9400 C   0  0  0  0  0  0  0  0  0  0  0  0
    9.3090   -5.9040   26.5400 C   0  0  0  0  0  0  0  0  0  0  0  0
    8.4440   -5.4180   27.5660 C   0  0  0  0  0  0  0  0  0  0  0  0
  1  2  1  0
  1  3  2  0
  1  4  1  0
  4  5  1  0
  4  6  1  0
  5  7  1  0
  6  8  1  0
  5  9  1  1
  7 10  1  0
  8 10  1  0
  9 11  1  0
 10 12  1  0
 11 13  2  0
 11 14  1  0
 12 15  2  0
 12 16  1  0
 14 17  2  0
 13 18  1  0
 16 19  2  0
 16 20  1  0
 17 21  1  0
 18 21  2  0
 19 22  1  0
 20 23  1  0
 22 23  2  0
M  END
