x1418_1-x1412_0-x0434_2-x0831_0-x0692_1-x0831_1-x1334_1-x0770_1-x0397_0
     RDKit          3D

 35 39  0  0  0  0  0  0  0  0999 V2000
    6.3160   -3.2510   19.8550 C   0  0  0  0  0  0  0  0  0  0  0  0
    7.2990   -2.9840   18.7270 C   0  0  0  0  0  0  0  0  0  0  0  0
    5.3550   -4.0010   19.6480 O   0  0  0  0  0  0  0  0  0  0  0  0
    6.5490   -2.6800   21.1090 N   0  0  0  0  0  0  0  0  0  0  0  0
    6.4420   -3.6310   22.2280 C   0  0  2  0  0  0  0  0  0  0  0  0
    7.1030   -1.3190   21.4050 C   0  0  1  0  0  0  0  0  0  0  0  0
    7.7570   -3.7850   22.9570 C   0  0  0  0  0  0  0  0  0  0  0  0
    8.1780   -1.3690   22.5620 C   0  0  0  0  0  0  0  0  0  0  0  0
    5.9720   -5.0410   21.8060 C   0  0  0  0  0  0  0  0  0  0  0  0
    7.7920   -0.7520   20.3940 C   0  0  0  0  0  0  0  0  0  0  0  0
    8.1830   -2.5300   23.4830 N   0  0  0  0  0  0  0  0  0  0  0  0
    6.3850   -5.8300   22.6540 C   0  0  0  0  0  0  0  0  0  0  0  0
    4.8540   -5.8430   22.5610 C   0  0  0  0  0  0  0  0  0  0  0  0
    7.0780   -0.1930   19.1150 C   0  0  0  0  0  0  0  0  0  0  0  0
    8.4360   -2.4210   24.9450 C   0  0  2  0  0  0  0  0  0  0  0  0
    6.3840    0.1660   20.3130 C   0  0  0  0  0  0  0  0  0  0  0  0
    6.3340    0.3680   18.0880 N   0  0  0  0  0  0  0  0  0  0  0  0
    7.5330   -1.5000   25.5580 O   0  0  0  0  0  0  0  0  0  0  0  0
    9.8240   -1.9210   25.1570 C   0  0  0  0  0  0  0  0  0  0  0  0
    8.5880   -3.7530   25.7130 C   0  0  0  0  0  0  0  0  0  0  0  0
    5.2320    1.0910   18.0280 C   0  0  0  0  0  0  0  0  0  0  0  0
    5.0830    0.9990   20.4050 C   0  0  0  0  0  0  0  0  0  0  0  0
   10.4800   -2.1490   23.8030 C   0  0  0  0  0  0  0  0  0  0  0  0
    9.4130   -4.8190   25.4420 C   0  0  0  0  0  0  0  0  0  0  0  0
    7.6430   -4.0890   27.2090 S   0  0  0  0  0  0  0  0  0  0  0  0
    4.4540    1.5040   19.1800 C   0  0  0  0  0  0  0  0  0  0  0  0
    9.3240   -5.9580   26.4360 C   0  0  0  0  0  0  0  0  0  0  0  0
    8.3190   -5.6200   27.5030 C   0  0  0  0  0  0  0  0  0  0  0  0
   11.1500   -0.8510   23.6100 C   0  0  0  0  0  0  0  0  0  0  0  0
   10.5550    0.3090   24.1050 C   0  0  0  0  0  0  0  0  0  0  0  0
   12.4730   -0.7740   22.8950 C   0  0  0  0  0  0  0  0  0  0  0  0
   13.1600   -1.9660   22.3210 C   0  0  0  0  0  0  0  0  0  0  0  0
   11.1270    1.5460   23.9750 C   0  0  0  0  0  0  0  0  0  0  0  0
   13.0590    0.6470   22.8050 C   0  0  0  0  0  0  0  0  0  0  0  0
   12.3310    1.7020   23.3520 C   0  0  0  0  0  0  0  0  0  0  0  0
  1  2  1  0
  1  3  2  0
  1  4  1  0
  4  5  1  0
  4  6  1  0
  5  7  1  0
  6  8  1  0
  5  9  1  6
  6 10  1  6
  7 11  1  0
  8 11  1  0
  9 12  1  0
  9 13  1  0
 12 13  1  0
 10 14  1  0
 11 15  1  0
 14 16  2  0
 14 17  1  0
 15 18  1  1
 15 19  1  0
 15 20  1  0
 17 21  2  0
 16 22  1  0
 19 23  1  0
 20 24  2  0
 20 25  1  0
 21 26  1  0
 22 26  2  0
 24 27  1  0
 25 28  1  0
 27 28  2  0
 23 29  1  0
 29 30  2  0
 29 31  1  0
 31 32  1  0
 30 33  1  0
 31 34  2  0
 33 35  2  0
 34 35  1  0
M  END
