x1418_0-x0967_1
     RDKit          3D

 16 17  0  0  0  0  0  0  0  0999 V2000
    9.7740   -2.6510   23.2680 C   0  0  0  0  0  0  0  0  0  0  0  0
    8.3770   -2.1180   23.6030 C   0  0  0  0  0  0  0  0  0  0  0  0
    7.5140   -1.9020   22.3480 C   0  0  0  0  0  0  0  0  0  0  0  0
   10.7880   -1.5900   23.3410 C   0  0  0  0  0  0  0  0  0  0  0  0
   12.0390   -1.4650   22.4890 C   0  0  0  0  0  0  0  0  0  0  0  0
   10.7530   -0.2370   24.4260 S   0  0  0  0  0  0  0  0  0  0  0  0
    8.1000   -0.9780   21.2690 C   0  0  0  0  0  0  0  0  0  0  0  0
   12.8390   -0.2110   22.8420 C   0  0  0  0  0  0  0  0  0  0  0  0
   12.2270    0.5080   23.8590 C   0  0  0  0  0  0  0  0  0  0  0  0
    7.0470   -0.1180   20.5370 C   0  0  0  0  0  0  0  0  0  0  0  0
    6.2690    0.7760   21.2590 C   0  0  0  0  0  0  0  0  0  0  0  0
    6.8220   -0.1840   19.1540 C   0  0  0  0  0  0  0  0  0  0  0  0
    5.8630    0.6150   18.5410 C   0  0  0  0  0  0  0  0  0  0  0  0
    5.2950    1.5930   20.6590 C   0  0  0  0  0  0  0  0  0  0  0  0
    5.6090    0.5890   17.2160 O   0  0  0  0  0  0  0  0  0  0  0  0
    5.0900    1.5110   19.2850 C   0  0  0  0  0  0  0  0  0  0  0  0
  1  2  1  0
  2  3  1  0
  1  4  1  0
  4  5  2  0
  4  6  1  0
  3  7  1  0
  5  8  1  0
  6  9  1  0
  8  9  2  0
  7 10  1  0
 10 11  2  0
 10 12  1  0
 12 13  2  0
 11 14  1  0
 13 15  1  0
 13 16  1  0
 14 16  2  0
M  END
