x1412_1-x0434_2-x0770_1-x1385_1-x1386_0-x1334_1-x0736_1-x0874_0-x1412_0-x1374_1
     RDKit          3D

 40 45  0  0  0  0  0  0  0  0999 V2000
    6.3870   -3.3370   19.8560 C   0  0  0  0  0  0  0  0  0  0  0  0
    7.3960   -3.0180   18.7540 C   0  0  0  0  0  0  0  0  0  0  0  0
    5.3480   -3.9600   19.6200 O   0  0  0  0  0  0  0  0  0  0  0  0
    6.7210   -2.9680   21.1570 N   0  0  0  0  0  0  0  0  0  0  0  0
    7.6770   -1.8460   21.3110 C   0  0  1  0  0  0  0  0  0  0  0  0
    7.1430   -4.2380   21.8350 C   0  0  2  0  0  0  0  0  0  0  0  0
    6.1140   -5.3690   21.7150 C   0  0  0  0  0  0  0  0  0  0  0  0
    7.0060   -0.5790   21.5180 N   0  0  0  0  0  0  0  0  0  0  0  0
    8.5980   -2.0540   22.5320 C   0  0  0  0  0  0  0  0  0  0  0  0
    7.6290   -4.1150   23.2820 C   0  0  0  0  0  0  0  0  0  0  0  0
    7.8600   -2.7530   23.6470 N   0  0  0  0  0  0  0  0  0  0  0  0
    4.9730   -5.2610   22.7010 C   0  0  2  0  0  0  0  0  0  0  0  0
    6.4400    0.0280   20.3200 C   0  0  0  0  0  0  0  0  0  0  0  0
    8.6940   -2.6330   24.8150 C   0  0  2  0  0  0  0  0  0  0  0  0
    4.9190   -4.6200   23.9480 C   0  0  0  0  0  0  0  0  0  0  0  0
    4.5390   -6.7090   22.9270 C   0  0  0  0  0  0  0  0  0  0  0  0
    6.9860   -0.0390   18.9200 C   0  0  0  0  0  0  0  0  0  0  0  0
    5.1610    0.8460   20.3680 C   0  0  0  0  0  0  0  0  0  0  0  0
    8.4610   -1.3820   25.4510 O   0  0  0  0  0  0  0  0  0  0  0  0
   10.0430   -2.6650   24.1760 C   0  0  0  0  0  0  0  0  0  0  0  0
    8.6910   -3.8100   25.7700 C   0  0  0  0  0  0  0  0  0  0  0  0
    4.2180   -5.2070   24.9840 C   0  0  0  0  0  0  0  0  0  0  0  0
    3.5480   -6.7230   24.3660 S   0  0  0  0  0  0  0  0  0  0  0  0
    6.3960    0.6020   17.7420 N   0  0  0  0  0  0  0  0  0  0  0  0
    4.5890    1.4660   19.1930 C   0  0  0  0  0  0  0  0  0  0  0  0
    2.0130   -6.6600   23.9460 O   0  0  0  0  0  0  0  0  0  0  0  0
    3.9210   -8.0100   25.2160 O   0  0  0  0  0  0  0  0  0  0  0  0
    9.6250   -4.9290   25.5120 C   0  0  0  0  0  0  0  0  0  0  0  0
    7.6160   -3.8470   27.1530 S   0  0  0  0  0  0  0  0  0  0  0  0
    5.2670    1.3050   17.8980 C   0  0  0  0  0  0  0  0  0  0  0  0
   10.8490   -1.4530   23.9110 C   0  0  0  0  0  0  0  0  0  0  0  0
    9.1880   -5.7070   26.7120 C   0  0  0  0  0  0  0  0  0  0  0  0
    8.2090   -5.3260   27.6370 C   0  0  0  0  0  0  0  0  0  0  0  0
   12.2630   -1.6580   23.6110 C   0  0  0  0  0  0  0  0  0  0  0  0
   10.4910   -0.0160   23.9320 C   0  0  0  0  0  0  0  0  0  0  0  0
   13.1380   -0.6440   23.2920 C   0  0  2  0  0  0  0  0  0  0  0  0
   12.0330    0.7010   23.5420 S   0  0  0  0  0  0  0  0  0  0  0  0
   11.4200   -1.0100   23.5120 C   0  0  0  0  0  0  0  0  0  0  0  0
   13.2660   -1.2460   21.6420 S   0  0  0  0  0  0  0  0  0  0  0  0
   11.9790   -1.9050   22.5430 C   0  0  0  0  0  0  0  0  0  0  0  0
  1  2  1  0
  1  3  2  0
  1  4  1  0
  4  5  1  0
  4  6  1  0
  6  7  1  1
  5  8  1  1
  5  9  1  0
  6 10  1  0
  9 11  1  0
 10 11  1  0
 12  7  1  1
  8 13  1  0
 11 14  1  0
 12 15  1  0
 12 16  1  0
 13 17  2  0
 13 18  1  0
 14 19  1  1
 14 20  1  0
 14 21  1  0
 15 22  2  0
 16 23  1  0
 22 23  1  0
 17 24  1  0
 18 25  2  0
 23 26  1  0
 23 27  1  0
 21 28  2  0
 21 29  1  0
 24 30  2  0
 25 30  1  0
 20 31  1  0
 28 32  1  0
 29 33  1  0
 32 33  2  0
 31 34  2  0
 31 35  1  0
 36 34  1  1
 35 37  2  0
 36 37  1  0
 37 38  1  0
 36 39  1  0
 38 40  2  0
 39 40  1  0
M  END
