x1412_1-x0831_1-x0692_1-x1374_1-x1385_1-x0434_2-x0397_0-x1334_0-x1386_1-x0770_1-x0831_0-x1334_1
     RDKit          3D

 39 43  0  0  0  0  0  0  0  0999 V2000
    2.0560   -7.2290   23.7450 O   0  0  0  0  0  0  0  0  0  0  0  0
    2.4540   -7.9430   24.8990 C   0  0  0  0  0  0  0  0  0  0  0  0
    3.8680   -7.9800   24.9240 O   0  0  0  0  0  0  0  0  0  0  0  0
    4.4390   -7.2150   23.8730 C   0  0  0  0  0  0  0  0  0  0  0  0
    4.8490   -6.0060   24.3230 C   0  0  0  0  0  0  0  0  0  0  0  0
    5.9260   -5.6260   23.3680 C   0  0  2  0  0  0  0  0  0  0  0  0
    5.7750   -4.6380   22.4180 C   0  0  2  0  0  0  0  0  0  0  0  0
    5.9630   -6.1740   21.9800 C   0  0  0  0  0  0  0  0  0  0  0  0
    6.8610   -3.6480   22.2560 C   0  0  1  0  0  0  0  0  0  0  0  0
    6.7360   -2.8070   21.0980 N   0  0  0  0  0  0  0  0  0  0  0  0
    7.0160   -2.7800   23.4860 C   0  0  0  0  0  0  0  0  0  0  0  0
    6.4220   -3.3400   19.8690 C   0  0  0  0  0  0  0  0  0  0  0  0
    8.3690   -2.2420   23.5620 N   0  0  0  0  0  0  0  0  0  0  0  0
    7.6900   -1.6620   21.1570 C   0  0  1  0  0  0  0  0  0  0  0  0
    7.3940   -3.0560   18.7510 C   0  0  0  0  0  0  0  0  0  0  0  0
    5.4320   -4.0600   19.6890 O   0  0  0  0  0  0  0  0  0  0  0  0
    9.2320   -3.2740   23.6390 C   0  0  1  0  0  0  0  0  0  0  0  0
    6.9290   -0.4230   21.2780 N   0  0  0  0  0  0  0  0  0  0  0  0
    8.7430   -1.6060   22.2860 C   0  0  0  0  0  0  0  0  0  0  0  0
   10.5960   -2.7690   23.2210 C   0  0  0  0  0  0  0  0  0  0  0  0
    9.0100   -4.1310   24.8900 C   0  0  0  0  0  0  0  0  0  0  0  0
    6.3770    0.1610   20.1460 C   0  0  0  0  0  0  0  0  0  0  0  0
    9.7790   -5.4270   25.1650 C   0  0  0  0  0  0  0  0  0  0  0  0
    7.9060   -3.8660   26.1670 S   0  0  0  0  0  0  0  0  0  0  0  0
   10.9520   -1.3060   23.3970 C   0  0  0  0  0  0  0  0  0  0  0  0
    6.9050    0.0750   18.7960 C   0  0  0  0  0  0  0  0  0  0  0  0
    5.2090    0.9020   20.2780 C   0  0  0  0  0  0  0  0  0  0  0  0
    9.3480   -6.0900   26.4460 C   0  0  0  0  0  0  0  0  0  0  0  0
    8.2520   -5.2710   27.1100 C   0  0  0  0  0  0  0  0  0  0  0  0
   10.1020   -0.2640   24.2080 C   0  0  0  0  0  0  0  0  0  0  0  0
   12.2510   -0.7870   22.7480 C   0  0  0  0  0  0  0  0  0  0  0  0
    6.3530    0.6600   17.7260 N   0  0  0  0  0  0  0  0  0  0  0  0
    4.6010    1.5250   19.1820 C   0  0  0  0  0  0  0  0  0  0  0  0
    7.3940   -5.5900   28.5830 Cl  0  0  0  0  0  0  0  0  0  0  0  0
   13.0700   -1.7600   21.9650 C   0  0  0  0  0  0  0  0  0  0  0  0
   10.6030    1.1610   24.2920 C   0  0  0  0  0  0  0  0  0  0  0  0
   12.6230    0.5440   22.9000 C   0  0  0  0  0  0  0  0  0  0  0  0
    5.2250    1.3730   17.9080 C   0  0  0  0  0  0  0  0  0  0  0  0
   11.8800    1.4630   23.6010 C   0  0  0  0  0  0  0  0  0  0  0  0
  1  2  1  0
  2  3  1  0
  3  4  1  0
  4  5  1  0
  6  5  1  1
  6  7  1  0
  6  8  1  0
  7  8  1  6
  7  9  1  0
  9 10  1  0
  9 11  1  1
 10 12  1  0
 11 13  1  0
 10 14  1  0
 12 15  1  0
 12 16  2  0
 13 17  1  0
 14 18  1  1
 13 19  1  0
 14 19  1  0
 17 20  1  1
 17 21  1  0
 18 22  1  0
 21 23  2  0
 21 24  1  0
 20 25  1  0
 22 26  2  0
 22 27  1  0
 23 28  1  0
 24 29  1  0
 28 29  2  0
 25 30  2  0
 25 31  1  0
 26 32  1  0
 27 33  2  0
 29 34  1  0
 31 35  1  0
 30 36  1  0
 31 37  2  0
 32 38  2  0
 33 38  1  0
 36 39  2  0
 37 39  1  0
M  END
