x1412_1-x1412_0-x0770_1-x1334_1
     RDKit          3D

 16 17  0  0  0  0  0  0  0  0999 V2000
    6.3490   -3.3210   19.9210 C   0  0  0  0  0  0  0  0  0  0  0  0
    7.3250   -2.9960   18.8070 C   0  0  0  0  0  0  0  0  0  0  0  0
    5.3950   -4.0690   19.6950 O   0  0  0  0  0  0  0  0  0  0  0  0
    6.5530   -2.8110   21.1890 N   0  0  0  0  0  0  0  0  0  0  0  0
    7.5530   -1.7290   21.4020 C   0  0  0  0  0  0  0  0  0  0  0  0
    6.2990   -3.7430   22.2820 C   0  0  0  0  0  0  0  0  0  0  0  0
    8.7050   -2.0630   22.4160 C   0  0  0  0  0  0  0  0  0  0  0  0
    7.5980   -4.2180   22.9100 C   0  0  0  0  0  0  0  0  0  0  0  0
    8.3440   -3.0810   23.4090 N   0  0  0  0  0  0  0  0  0  0  0  0
    8.4970   -2.8640   24.7380 C   0  0  0  0  0  0  0  0  0  0  0  0
    8.5100   -1.6970   25.1470 O   0  0  0  0  0  0  0  0  0  0  0  0
    8.6310   -3.8740   25.5980 C   0  0  0  0  0  0  0  0  0  0  0  0
    9.4000   -5.0250   25.4650 C   0  0  0  0  0  0  0  0  0  0  0  0
    7.8070   -3.9130   27.1110 S   0  0  0  0  0  0  0  0  0  0  0  0
    9.3150   -5.8820   26.5480 C   0  0  0  0  0  0  0  0  0  0  0  0
    8.5000   -5.4360   27.5260 C   0  0  0  0  0  0  0  0  0  0  0  0
  1  2  1  0
  1  3  2  0
  1  4  1  0
  4  5  1  0
  4  6  1  0
  5  7  1  0
  6  8  1  0
  7  9  1  0
  8  9  1  0
  9 10  1  0
 10 11  2  0
 10 12  1  0
 12 13  2  0
 12 14  1  0
 13 15  1  0
 14 16  1  0
 15 16  2  0
M  END
