x1418_1-x0692_0-x1418_0-x0770_1
     RDKit          3D

 18 19  0  0  0  0  0  0  0  0999 V2000
    6.3280   -3.2350   19.8330 C   0  0  0  0  0  0  0  0  0  0  0  0
    7.3260   -2.9820   18.7220 C   0  0  0  0  0  0  0  0  0  0  0  0
    5.4110   -4.0530   19.6810 O   0  0  0  0  0  0  0  0  0  0  0  0
    6.5090   -2.5460   21.0170 N   0  0  0  0  0  0  0  0  0  0  0  0
    6.3340   -3.2000   22.3110 C   0  0  0  0  0  0  0  0  0  0  0  0
    7.4210   -1.3870   20.9970 C   0  0  0  0  0  0  0  0  0  0  0  0
    7.6850   -3.3920   23.0510 C   0  0  0  0  0  0  0  0  0  0  0  0
    8.7440   -1.6490   21.7450 C   0  0  0  0  0  0  0  0  0  0  0  0
    8.4940   -2.1880   23.0850 N   0  0  0  0  0  0  0  0  0  0  0  0
    9.5790   -2.1970   23.8970 C   0  0  1  0  0  0  0  0  0  0  0  0
   10.2360   -3.5350   23.8670 C   0  0  0  0  0  0  0  0  0  0  0  0
   10.5700   -1.1840   23.6460 C   0  0  0  0  0  0  0  0  0  0  0  0
   10.3080    0.2170   23.7730 C   0  0  0  0  0  0  0  0  0  0  0  0
   11.8730   -1.6020   23.2490 C   0  0  0  0  0  0  0  0  0  0  0  0
   11.4010    1.2160   23.4790 C   0  0  0  0  0  0  0  0  0  0  0  0
   12.9060   -0.5620   22.9810 C   0  0  0  0  0  0  0  0  0  0  0  0
   11.2340    2.6920   23.5580 C   0  0  0  0  0  0  0  0  0  0  0  0
   12.6550    0.7750   23.1000 C   0  0  0  0  0  0  0  0  0  0  0  0
  1  2  1  0
  1  3  2  0
  1  4  1  0
  4  5  1  0
  4  6  1  0
  5  7  1  0
  6  8  1  0
  7  9  1  0
  8  9  1  0
  9 10  1  0
 10 11  1  6
 10 12  1  0
 12 13  2  0
 12 14  1  0
 13 15  1  0
 14 16  2  0
 15 17  1  0
 15 18  2  0
 16 18  1  0
M  END
