x1412_1-x0072_0-x0831_0
     RDKit          3D

 23 25  0  0  0  0  0  0  0  0999 V2000
    6.4250   -3.4180   19.9370 C   0  0  0  0  0  0  0  0  0  0  0  0
    7.3670   -3.0100   18.8150 C   0  0  0  0  0  0  0  0  0  0  0  0
    5.4290   -4.1180   19.7370 O   0  0  0  0  0  0  0  0  0  0  0  0
    6.7730   -3.0200   21.2260 N   0  0  0  0  0  0  0  0  0  0  0  0
    7.8310   -2.0200   21.5280 C   0  0  0  0  0  0  0  0  0  0  0  0
    6.4800   -4.0180   22.2510 C   0  0  0  0  0  0  0  0  0  0  0  0
    8.4110   -2.0950   22.9840 C   0  0  2  0  0  0  0  0  0  0  0  0
    7.5570   -4.1980   23.1550 C   0  0  0  0  0  0  0  0  0  0  0  0
    9.9450   -2.2530   23.0880 C   0  0  2  0  0  0  0  0  0  0  0  0
    7.7750   -3.0990   23.8270 N   0  0  0  0  0  0  0  0  0  0  0  0
    8.7320   -3.3120   24.8480 N   0  0  0  0  0  0  0  0  0  0  0  0
   10.0750   -3.1860   24.2710 C   0  0  0  0  0  0  0  0  0  0  0  0
   10.7140   -0.9590   23.2600 C   0  0  0  0  0  0  0  0  0  0  0  0
    8.4070   -4.5840   26.0280 S   0  0  0  0  0  0  0  0  0  0  0  0
   10.1490    0.1590   23.8500 C   0  0  0  0  0  0  0  0  0  0  0  0
   12.0350   -0.8900   22.7980 C   0  0  0  0  0  0  0  0  0  0  0  0
    6.6430   -4.8390   26.0710 C   0  0  0  0  0  0  0  0  0  0  0  0
    9.1560   -5.8780   25.5130 O   0  0  0  0  0  0  0  0  0  0  0  0
    8.9070   -4.1400   27.4650 O   0  0  0  0  0  0  0  0  0  0  0  0
   12.7270   -2.0430   22.1370 C   0  0  0  0  0  0  0  0  0  0  0  0
   10.9300    1.3780   23.9770 C   0  0  0  0  0  0  0  0  0  0  0  0
   12.7540    0.2700   22.9310 C   0  0  0  0  0  0  0  0  0  0  0  0
   12.2340    1.4180   23.5100 C   0  0  0  0  0  0  0  0  0  0  0  0
  1  2  1  0
  1  3  2  0
  1  4  1  0
  4  5  1  0
  4  6  1  0
  7  5  1  6
  6  8  1  0
  7  9  1  0
  7 10  1  0
  8 10  1  0
 10 11  1  0
  9 12  1  0
 11 12  1  0
  9 13  1  1
 11 14  1  0
 13 15  2  0
 13 16  1  0
 14 17  1  0
 14 18  2  0
 14 19  2  0
 16 20  1  0
 15 21  1  0
 16 22  2  0
 21 23  2  0
 22 23  1  0
M  END
