x1412_1-x1412_0-x1386_0-x0397_0
     RDKit          3D

 25 28  0  0  0  0  0  0  0  0999 V2000
    6.3520   -3.3070   19.8020 C   0  0  0  0  0  0  0  0  0  0  0  0
    7.3410   -2.9980   18.7020 C   0  0  0  0  0  0  0  0  0  0  0  0
    5.3020   -3.9030   19.5640 O   0  0  0  0  0  0  0  0  0  0  0  0
    6.7130   -2.9780   21.0680 N   0  0  0  0  0  0  0  0  0  0  0  0
    7.4920   -1.7740   21.3450 C   0  0  0  0  0  0  0  0  0  0  0  0
    7.1070   -4.1040   21.8980 C   0  0  1  0  0  0  0  0  0  0  0  0
    8.5300   -2.0700   22.4220 C   0  0  0  0  0  0  0  0  0  0  0  0
    7.3220   -3.9450   23.4010 C   0  0  0  0  0  0  0  0  0  0  0  0
    5.9890   -4.7080   22.6670 C   0  0  0  0  0  0  0  0  0  0  0  0
    7.9660   -2.6540   23.6620 N   0  0  0  0  0  0  0  0  0  0  0  0
    6.1790   -6.0090   23.2560 C   0  0  0  0  0  0  0  0  0  0  0  0
    5.3690   -6.1450   22.1720 C   0  0  0  0  0  0  0  0  0  0  0  0
    8.9730   -2.7030   24.7100 C   0  0  2  0  0  0  0  0  0  0  0  0
    8.8290   -1.4510   25.3840 O   0  0  0  0  0  0  0  0  0  0  0  0
   10.4330   -2.8320   24.1520 C   0  0  0  0  0  0  0  0  0  0  0  0
    8.8000   -3.8150   25.7070 C   0  0  0  0  0  0  0  0  0  0  0  0
    9.5880   -4.9750   25.6220 C   0  0  0  0  0  0  0  0  0  0  0  0
    7.7050   -3.8750   27.0360 S   0  0  0  0  0  0  0  0  0  0  0  0
   11.2010   -1.5920   23.8270 C   0  0  0  0  0  0  0  0  0  0  0  0
    9.3280   -5.9060   26.6060 C   0  0  0  0  0  0  0  0  0  0  0  0
    8.3610   -5.5460   27.4880 C   0  0  0  0  0  0  0  0  0  0  0  0
   12.3180   -1.4760   22.8790 C   0  0  0  0  0  0  0  0  0  0  0  0
   11.0600   -0.1410   24.3610 C   0  0  0  0  0  0  0  0  0  0  0  0
   12.9290   -0.2340   22.6930 C   0  0  0  0  0  0  0  0  0  0  0  0
   12.2060    0.9650   23.6600 S   0  0  0  0  0  0  0  0  0  0  0  0
  1  2  1  0
  1  3  2  0
  1  4  1  0
  4  5  1  0
  4  6  1  0
  5  7  1  0
  6  8  1  0
  6  9  1  1
  7 10  1  0
  8 10  1  0
  9 11  1  0
  9 12  1  0
 11 12  1  0
 10 13  1  0
 13 14  1  1
 13 15  1  0
 13 16  1  0
 16 17  2  0
 16 18  1  0
 15 19  1  0
 17 20  1  0
 18 21  1  0
 20 21  2  0
 19 22  1  0
 19 23  2  0
 22 24  2  0
 23 25  1  0
 24 25  1  0
M  END
