x1412_1-x0874_0-x0692_1
     RDKit          3D

 15 16  0  0  0  0  0  0  0  0999 V2000
    6.4080   -3.4050   19.9570 C   0  0  0  0  0  0  0  0  0  0  0  0
    7.3500   -3.0090   18.8230 C   0  0  0  0  0  0  0  0  0  0  0  0
    5.4020   -4.0840   19.7110 O   0  0  0  0  0  0  0  0  0  0  0  0
    6.7490   -3.0670   21.2580 N   0  0  0  0  0  0  0  0  0  0  0  0
    7.5220   -1.8100   21.5510 C   0  0  0  0  0  0  0  0  0  0  0  0
    6.5930   -4.0310   22.3200 C   0  0  0  0  0  0  0  0  0  0  0  0
    8.3880   -1.7790   22.6120 C   0  0  2  0  0  0  0  0  0  0  0  0
    7.7890   -4.0050   23.3170 C   0  0  0  0  0  0  0  0  0  0  0  0
    9.8030   -2.0170   22.4040 C   0  0  0  0  0  0  0  0  0  0  0  0
    7.9450   -2.6340   23.7500 N   0  0  0  0  0  0  0  0  0  0  0  0
   10.6740   -0.8340   22.7870 C   0  0  0  0  0  0  0  0  0  0  0  0
   11.7050    0.1210   23.0240 C   0  0  0  0  0  0  0  0  0  0  0  0
   11.6140   -1.7180   22.1520 C   0  0  0  0  0  0  0  0  0  0  0  0
   13.0110    0.0520   22.7080 C   0  0  0  0  0  0  0  0  0  0  0  0
   13.2950   -1.3870   21.9440 S   0  0  0  0  0  0  0  0  0  0  0  0
  1  2  1  0
  1  3  2  0
  1  4  1  0
  4  5  1  0
  4  6  1  0
  5  7  1  0
  6  8  1  0
  7  9  1  6
  7 10  1  0
  8 10  1  0
  9 11  1  0
 11 12  1  0
 11 13  2  0
 12 14  2  0
 13 15  1  0
 14 15  1  0
M  END
