x1412_1-x1334_0-x0397_0-x1385_1-x1334_1-x0831_0-x0434_2-x0770_1-x0692_1
     RDKit          3D

 34 38  0  0  0  0  0  0  0  0999 V2000
    6.4290   -3.3710   19.8530 C   0  0  0  0  0  0  0  0  0  0  0  0
    7.4060   -3.0260   18.7360 C   0  0  0  0  0  0  0  0  0  0  0  0
    5.4130   -4.0460   19.6710 O   0  0  0  0  0  0  0  0  0  0  0  0
    6.7620   -2.9520   21.1420 N   0  0  0  0  0  0  0  0  0  0  0  0
    7.7050   -1.8280   21.1950 C   0  0  1  0  0  0  0  0  0  0  0  0
    7.0090   -4.1360   21.9600 C   0  0  1  0  0  0  0  0  0  0  0  0
    6.9570   -0.5510   21.3470 N   0  0  0  0  0  0  0  0  0  0  0  0
    8.6630   -1.8710   22.3880 C   0  0  0  0  0  0  0  0  0  0  0  0
    7.9250   -3.9760   23.1650 C   0  0  0  0  0  0  0  0  0  0  0  0
    5.6770   -4.7210   22.3860 C   0  0  0  0  0  0  0  0  0  0  0  0
    8.1530   -2.6060   23.5690 N   0  0  0  0  0  0  0  0  0  0  0  0
    5.8950   -5.8980   23.3550 C   0  0  0  0  0  0  0  0  0  0  0  0
    5.3100   -6.2740   22.2920 C   0  0  0  0  0  0  0  0  0  0  0  0
    6.4020    0.0740   20.2090 C   0  0  0  0  0  0  0  0  0  0  0  0
    9.1450   -2.5760   24.4920 C   0  0  2  0  0  0  0  0  0  0  0  0
    6.9780   -0.0010   18.8190 C   0  0  0  0  0  0  0  0  0  0  0  0
    5.2310    0.8180   20.3750 C   0  0  0  0  0  0  0  0  0  0  0  0
   10.6090   -2.5830   23.9700 C   0  0  0  0  0  0  0  0  0  0  0  0
    8.9190   -3.7060   25.4360 C   0  0  0  0  0  0  0  0  0  0  0  0
    6.4450    0.6080   17.7510 N   0  0  0  0  0  0  0  0  0  0  0  0
    4.6840    1.4270   19.3090 C   0  0  0  0  0  0  0  0  0  0  0  0
    9.8260   -4.9040   25.3070 C   0  0  0  0  0  0  0  0  0  0  0  0
    7.7600   -3.8430   26.6570 S   0  0  0  0  0  0  0  0  0  0  0  0
   11.1200   -1.1650   23.7760 C   0  0  0  0  0  0  0  0  0  0  0  0
    5.2160    1.3670   18.0310 C   0  0  0  0  0  0  0  0  0  0  0  0
    9.4280   -5.9050   26.3390 C   0  0  0  0  0  0  0  0  0  0  0  0
    8.2430   -5.3800   27.1700 C   0  0  0  0  0  0  0  0  0  0  0  0
   10.3930    0.0080   24.4200 C   0  0  0  0  0  0  0  0  0  0  0  0
   12.3470   -0.9210   22.9440 C   0  0  0  0  0  0  0  0  0  0  0  0
    7.3840   -6.0820   28.4620 Cl  0  0  0  0  0  0  0  0  0  0  0  0
   13.1290   -1.9750   22.2510 C   0  0  0  0  0  0  0  0  0  0  0  0
   10.8070    1.3100   24.2800 C   0  0  0  0  0  0  0  0  0  0  0  0
   12.6890    0.3770   22.8740 C   0  0  0  0  0  0  0  0  0  0  0  0
   11.9740    1.5620   23.5100 C   0  0  0  0  0  0  0  0  0  0  0  0
  1  2  1  0
  1  3  2  0
  1  4  1  0
  4  5  1  0
  4  6  1  0
  5  7  1  1
  5  8  1  0
  6  9  1  0
  6 10  1  1
  8 11  1  0
  9 11  1  0
 10 12  1  0
 10 13  1  0
 12 13  1  0
  7 14  1  0
 11 15  1  0
 14 16  2  0
 14 17  1  0
 15 18  1  6
 15 19  1  0
 16 20  1  0
 17 21  2  0
 19 22  2  0
 19 23  1  0
 18 24  1  0
 20 25  2  0
 21 25  1  0
 22 26  1  0
 23 27  1  0
 26 27  2  0
 24 28  2  0
 24 29  1  0
 27 30  1  0
 29 31  1  0
 28 32  1  0
 29 33  2  0
 32 34  2  0
 33 34  1  0
M  END
