x1412_1-x1418_1-x1418_0-x1334_1
     RDKit          3D

 15 16  0  0  0  0  0  0  0  0999 V2000
    6.3000   -3.4060   20.0120 C   0  0  0  0  0  0  0  0  0  0  0  0
    7.2700   -3.0210   18.9000 C   0  0  0  0  0  0  0  0  0  0  0  0
    5.3830   -4.2000   19.7740 O   0  0  0  0  0  0  0  0  0  0  0  0
    6.4720   -2.8640   21.2860 N   0  0  0  0  0  0  0  0  0  0  0  0
    7.1590   -1.5750   21.4060 C   0  0  0  0  0  0  0  0  0  0  0  0
    6.5610   -3.6940   22.4880 C   0  0  0  0  0  0  0  0  0  0  0  0
    8.5860   -1.7310   21.9440 C   0  0  0  0  0  0  0  0  0  0  0  0
    7.9050   -3.9170   22.9550 C   0  0  0  0  0  0  0  0  0  0  0  0
    8.7300   -2.6660   23.0660 N   0  0  0  0  0  0  0  0  0  0  0  0
   10.1220   -2.9020   23.4890 C   0  0  0  0  0  0  0  0  0  0  0  0
   10.9910   -1.7410   23.4880 C   0  0  0  0  0  0  0  0  0  0  0  0
   12.2220   -1.4640   22.6340 C   0  0  0  0  0  0  0  0  0  0  0  0
   10.7530   -0.3830   24.5150 S   0  0  0  0  0  0  0  0  0  0  0  0
   12.8830   -0.1210   22.8950 C   0  0  0  0  0  0  0  0  0  0  0  0
   12.1730    0.5380   23.8790 C   0  0  0  0  0  0  0  0  0  0  0  0
  1  2  1  0
  1  3  2  0
  1  4  1  0
  4  5  1  0
  4  6  1  0
  5  7  1  0
  6  8  1  0
  7  9  1  0
  8  9  1  0
  9 10  1  0
 10 11  1  0
 11 12  2  0
 11 13  1  0
 12 14  1  0
 13 15  1  0
 14 15  2  0
M  END
