x1418_1-x1334_0-x1334_1-x1385_1-x0426_1-x0397_0-x0434_2-x1412_1-x0831_0-x0692_1-x0770_1
     RDKit          3D

 38 43  0  0  0  0  0  0  0  0999 V2000
    6.3530   -3.2780   19.9280 C   0  0  0  0  0  0  0  0  0  0  0  0
    7.3350   -3.0110   18.8090 C   0  0  0  0  0  0  0  0  0  0  0  0
    5.4000   -4.0510   19.7130 O   0  0  0  0  0  0  0  0  0  0  0  0
    6.6000   -2.6720   21.1740 N   0  0  0  0  0  0  0  0  0  0  0  0
    6.8950   -3.5660   22.1430 C   0  0  1  0  0  0  0  0  0  0  0  0
    7.4420   -1.4460   21.2270 C   0  0  1  0  0  0  0  0  0  0  0  0
    6.6610   -0.0820   21.5240 C   0  0  2  0  0  0  0  0  0  0  0  0
    7.1120   -2.8140   23.4140 C   0  0  0  0  0  0  0  0  0  0  0  0
    8.6500   -1.6260   22.1440 C   0  0  0  0  0  0  0  0  0  0  0  0
    5.8180   -4.6020   22.2740 C   0  0  0  0  0  0  0  0  0  0  0  0
    5.4790   -0.1060   22.5110 C   0  0  0  0  0  0  0  0  0  0  0  0
    8.4480   -2.2550   23.4830 N   0  0  0  0  0  0  0  0  0  0  0  0
    5.9800   -5.5730   23.1550 C   0  0  0  0  0  0  0  0  0  0  0  0
    6.0100   -6.1920   21.8610 C   0  0  0  0  0  0  0  0  0  0  0  0
    6.1060    0.4860   20.2060 C   0  0  0  0  0  0  0  0  0  0  0  0
    4.8110    1.3180   22.5830 C   0  0  2  0  0  0  0  0  0  0  0  0
    9.3640   -3.2390   23.7420 C   0  0  1  0  0  0  0  0  0  0  0  0
    4.9520    1.2680   20.0970 C   0  0  0  0  0  0  0  0  0  0  0  0
    6.7830    0.2190   19.0510 C   0  0  0  0  0  0  0  0  0  0  0  0
    3.8520    1.4530   23.6900 N   0  0  0  0  0  0  0  0  0  0  0  0
    4.1040    1.6370   21.2310 C   0  0  0  0  0  0  0  0  0  0  0  0
   10.7980   -2.6880   23.9010 C   0  0  0  0  0  0  0  0  0  0  0  0
    4.5470    1.7550   18.8540 C   0  0  0  0  0  0  0  0  0  0  0  0
    6.3770    0.7100   17.7640 N   0  0  0  0  0  0  0  0  0  0  0  0
    9.0350   -4.1370   24.9350 C   0  0  0  0  0  0  0  0  0  0  0  0
    5.2710    1.4750   17.7010 C   0  0  0  0  0  0  0  0  0  0  0  0
    9.7740   -5.2710   25.2480 C   0  0  0  0  0  0  0  0  0  0  0  0
    7.7630   -3.9350   26.0620 S   0  0  0  0  0  0  0  0  0  0  0  0
   11.1120   -1.1960   23.7860 C   0  0  0  0  0  0  0  0  0  0  0  0
    9.4000   -5.9680   26.3070 C   0  0  0  0  0  0  0  0  0  0  0  0
    8.2180   -5.3330   26.9390 C   0  0  0  0  0  0  0  0  0  0  0  0
   10.2130   -0.1610   24.4220 C   0  0  0  0  0  0  0  0  0  0  0  0
   12.2680   -0.8550   23.0730 C   0  0  0  0  0  0  0  0  0  0  0  0
    7.3460   -5.8270   28.3280 Cl  0  0  0  0  0  0  0  0  0  0  0  0
   13.1250   -1.8970   22.4360 C   0  0  0  0  0  0  0  0  0  0  0  0
   10.5820    1.3260   24.2860 C   0  0  0  0  0  0  0  0  0  0  0  0
   12.6860    0.4540   22.9120 C   0  0  0  0  0  0  0  0  0  0  0  0
   11.8550    1.5760   23.5120 C   0  0  0  0  0  0  0  0  0  0  0  0
  1  2  1  0
  1  3  2  0
  1  4  1  0
  4  5  1  0
  4  6  1  0
  6  7  1  0
  5  8  1  0
  6  9  1  1
  5 10  1  1
  7 11  1  1
  8 12  1  0
  9 12  1  0
 10 13  1  0
 10 14  1  0
 13 14  1  0
  7 15  1  0
 11 16  1  0
 12 17  1  0
 15 18  2  0
 15 19  1  0
 16 20  1  1
 16 21  1  0
 18 21  1  0
 17 22  1  1
 18 23  1  0
 19 24  2  0
 17 25  1  0
 23 26  2  0
 24 26  1  0
 25 27  2  0
 25 28  1  0
 22 29  1  0
 27 30  1  0
 28 31  1  0
 30 31  2  0
 29 32  2  0
 29 33  1  0
 31 34  1  0
 33 35  1  0
 32 36  1  0
 33 37  2  0
 36 38  2  0
 37 38  1  0
M  END
