x1418_1-x1374_1-x1334_0-x1412_1-x1334_1-x0397_0-x0426_1-x0831_1-x0831_0-x0692_1-x0770_1-x1385_1-x0434_2-x1386_1
     RDKit          3D

 43 48  0  0  0  0  0  0  0  0999 V2000
    1.9480   -7.4450   23.6840 O   0  0  0  0  0  0  0  0  0  0  0  0
    2.4420   -8.0420   24.8690 C   0  0  0  0  0  0  0  0  0  0  0  0
    3.8560   -8.0140   24.8610 O   0  0  0  0  0  0  0  0  0  0  0  0
    4.3960   -7.2000   23.8260 C   0  0  0  0  0  0  0  0  0  0  0  0
    4.8390   -5.9780   24.3020 C   0  0  0  0  0  0  0  0  0  0  0  0
    5.9450   -5.5450   23.3960 C   0  0  2  0  0  0  0  0  0  0  0  0
    5.7560   -4.6020   22.4160 C   0  0  2  0  0  0  0  0  0  0  0  0
    6.0350   -6.1390   22.0670 C   0  0  0  0  0  0  0  0  0  0  0  0
    6.8080   -3.5610   22.2080 C   0  0  2  0  0  0  0  0  0  0  0  0
    7.1580   -2.8710   23.4920 C   0  0  0  0  0  0  0  0  0  0  0  0
    6.5480   -2.6430   21.1200 N   0  0  0  0  0  0  0  0  0  0  0  0
    6.3410   -3.2330   19.8620 C   0  0  0  0  0  0  0  0  0  0  0  0
    8.4420   -2.2620   23.3840 N   0  0  0  0  0  0  0  0  0  0  0  0
    7.3710   -1.4170   21.1940 C   0  0  1  0  0  0  0  0  0  0  0  0
    7.3730   -2.9900   18.7740 C   0  0  0  0  0  0  0  0  0  0  0  0
    5.3780   -3.9820   19.6570 O   0  0  0  0  0  0  0  0  0  0  0  0
    6.4790   -0.1600   21.4460 C   0  0  2  0  0  0  0  0  0  0  0  0
    9.4170   -3.1760   23.7540 C   0  0  1  0  0  0  0  0  0  0  0  0
    8.5850   -1.6160   22.0260 C   0  0  0  0  0  0  0  0  0  0  0  0
    5.2360   -0.3840   22.3780 C   0  0  0  0  0  0  0  0  0  0  0  0
   10.7740   -2.6360   24.0790 C   0  0  0  0  0  0  0  0  0  0  0  0
    6.0190    0.4310   20.1200 C   0  0  0  0  0  0  0  0  0  0  0  0
    9.0420   -4.0350   24.9750 C   0  0  0  0  0  0  0  0  0  0  0  0
    4.1900    0.7800   22.4840 C   0  0  1  0  0  0  0  0  0  0  0  0
    4.7580    1.2090   20.0430 C   0  0  0  0  0  0  0  0  0  0  0  0
    6.8120    0.2520   18.8370 C   0  0  0  0  0  0  0  0  0  0  0  0
    9.7690   -5.3640   25.2060 C   0  0  0  0  0  0  0  0  0  0  0  0
    7.8450   -3.7290   26.2410 S   0  0  0  0  0  0  0  0  0  0  0  0
   11.1010   -1.1400   23.9030 C   0  0  0  0  0  0  0  0  0  0  0  0
    4.5240    1.7850   23.4710 N   0  0  0  0  0  0  0  0  0  0  0  0
    3.8320    1.4800   21.1770 C   0  0  0  0  0  0  0  0  0  0  0  0
    4.4720    1.7020   18.7880 C   0  0  0  0  0  0  0  0  0  0  0  0
    6.4720    0.7550   17.6460 N   0  0  0  0  0  0  0  0  0  0  0  0
    9.2010   -5.9690   26.4550 C   0  0  0  0  0  0  0  0  0  0  0  0
    8.2070   -5.2610   27.1000 C   0  0  0  0  0  0  0  0  0  0  0  0
   10.3900   -0.1640   24.4530 C   0  0  0  0  0  0  0  0  0  0  0  0
   12.3100   -0.7540   23.0650 C   0  0  0  0  0  0  0  0  0  0  0  0
    7.3610   -5.6820   28.5210 Cl  0  0  0  0  0  0  0  0  0  0  0  0
   13.1560   -1.7800   22.3890 C   0  0  0  0  0  0  0  0  0  0  0  0
    5.2380    1.5160   17.6700 C   0  0  0  0  0  0  0  0  0  0  0  0
   10.6950    1.1410   24.3030 C   0  0  0  0  0  0  0  0  0  0  0  0
   12.6570    0.6750   22.9180 C   0  0  0  0  0  0  0  0  0  0  0  0
   11.8490    1.5470   23.5270 C   0  0  0  0  0  0  0  0  0  0  0  0
  1  2  1  0
  2  3  1  0
  3  4  1  0
  4  5  1  0
  6  5  1  1
  6  7  1  0
  6  8  1  0
  7  8  1  6
  7  9  1  0
  9 10  1  1
  9 11  1  0
 11 12  1  0
 10 13  1  0
 11 14  1  0
 12 15  1  0
 12 16  2  0
 14 17  1  0
 13 18  1  0
 13 19  1  0
 14 19  1  1
 17 20  1  1
 18 21  1  1
 17 22  1  0
 18 23  1  0
 20 24  1  0
 22 25  2  0
 22 26  1  0
 23 27  2  0
 23 28  1  0
 21 29  1  0
 24 30  1  1
 24 31  1  0
 25 31  1  0
 25 32  1  0
 26 33  2  0
 27 34  1  0
 28 35  1  0
 34 35  2  0
 29 36  2  0
 29 37  1  0
 35 38  1  0
 37 39  1  0
 32 40  2  0
 33 40  1  0
 36 41  1  0
 37 42  2  0
 41 43  2  0
 42 43  1  0
M  END
