x1412_0-x0434_2-x0770_1-x0831_1-x0831_0-x1418_1-x0397_0-x1386_0-x1334_1-x0692_1-x1385_1
     RDKit          3D

 36 41  0  0  0  0  0  0  0  0999 V2000
    6.3330   -3.2390   19.9050 C   0  0  0  0  0  0  0  0  0  0  0  0
    7.2760   -2.9770   18.7450 C   0  0  0  0  0  0  0  0  0  0  0  0
    5.4540   -4.1100   19.7570 O   0  0  0  0  0  0  0  0  0  0  0  0
    6.5070   -2.5180   21.1020 N   0  0  0  0  0  0  0  0  0  0  0  0
    7.6280   -1.5570   21.2410 C   0  0  2  0  0  0  0  0  0  0  0  0
    6.2860   -3.3100   22.3150 C   0  0  2  0  0  0  0  0  0  0  0  0
    7.9260   -1.3330   22.7480 C   0  0  0  0  0  0  0  0  0  0  0  0
    7.4520   -3.8180   22.9050 C   0  0  0  0  0  0  0  0  0  0  0  0
    6.5540   -4.8050   22.0930 C   0  0  0  0  0  0  0  0  0  0  0  0
    7.4420   -0.1790   20.6530 C   0  0  0  0  0  0  0  0  0  0  0  0
    8.3470   -2.6310   23.4500 C   0  0  2  0  0  0  0  0  0  0  0  0
    6.4290   -5.6160   23.0890 C   0  0  0  0  0  0  0  0  0  0  0  0
    5.4610   -5.9510   22.0690 C   0  0  0  0  0  0  0  0  0  0  0  0
    7.0950    0.0440   19.3190 C   0  0  0  0  0  0  0  0  0  0  0  0
    8.4450   -2.5410   25.0330 C   0  0  2  0  0  0  0  0  0  0  0  0
    9.8190   -2.8760   23.0900 C   0  0  0  0  0  0  0  0  0  0  0  0
    6.1300    0.4730   20.2880 C   0  0  0  0  0  0  0  0  0  0  0  0
    6.4390    0.4230   18.1420 N   0  0  0  0  0  0  0  0  0  0  0  0
    7.6390   -1.7220   25.4550 O   0  0  0  0  0  0  0  0  0  0  0  0
   10.6540   -2.1570   24.1360 C   0  0  2  0  0  0  0  0  0  0  0  0
    9.8120   -1.9670   25.3570 C   0  0  0  0  0  0  0  0  0  0  0  0
    8.4770   -3.8290   25.9000 C   0  0  0  0  0  0  0  0  0  0  0  0
    5.2520    1.0310   17.9190 C   0  0  0  0  0  0  0  0  0  0  0  0
    4.9090    1.0840   20.1300 C   0  0  0  0  0  0  0  0  0  0  0  0
    9.4950   -4.8840   25.5210 C   0  0  0  0  0  0  0  0  0  0  0  0
    7.5500   -4.2160   27.2330 S   0  0  0  0  0  0  0  0  0  0  0  0
   11.1930   -0.8240   23.8260 C   0  0  0  0  0  0  0  0  0  0  0  0
    4.4220    1.3920   18.9160 C   0  0  0  0  0  0  0  0  0  0  0  0
    9.3370   -6.0030   26.5290 C   0  0  0  0  0  0  0  0  0  0  0  0
    8.3350   -5.7430   27.4780 C   0  0  0  0  0  0  0  0  0  0  0  0
   10.6200    0.3550   24.2400 C   0  0  0  0  0  0  0  0  0  0  0  0
   12.3780   -0.7580   23.0670 C   0  0  0  0  0  0  0  0  0  0  0  0
   13.0560   -1.9990   22.5620 C   0  0  0  0  0  0  0  0  0  0  0  0
   11.1300    1.5950   23.9680 C   0  0  0  0  0  0  0  0  0  0  0  0
   12.9670    0.4470   22.7570 C   0  0  0  0  0  0  0  0  0  0  0  0
   12.3020    1.7070   23.2360 C   0  0  0  0  0  0  0  0  0  0  0  0
  1  2  1  0
  1  3  2  0
  1  4  1  0
  4  5  1  0
  4  6  1  0
  5  7  1  0
  6  8  1  0
  6  9  1  6
  5 10  1  1
 11  7  1  6
  8 11  1  0
  9 12  1  0
  9 13  1  0
 12 13  1  0
 10 14  1  0
 11 15  1  0
 11 16  1  0
 14 17  2  0
 14 18  1  0
 15 19  1  1
 16 20  1  0
 15 21  1  0
 20 21  1  0
 15 22  1  0
 18 23  2  0
 17 24  1  0
 22 25  2  0
 22 26  1  0
 20 27  1  6
 23 28  1  0
 24 28  2  0
 25 29  1  0
 26 30  1  0
 29 30  2  0
 27 31  2  0
 27 32  1  0
 32 33  1  0
 31 34  1  0
 32 35  2  0
 34 36  2  0
 35 36  1  0
M  END
