x1412_1-x0434_2-x0831_0-x0981_1
     RDKit          3D

 36 38  0  0  0  0  0  0  0  0999 V2000
    4.1250   -5.9090   22.9890 C   0  0  0  0  0  0  0  0  0  0  0  0
    2.7340   -6.2280   23.4890 C   0  0  1  0  0  0  0  0  0  0  0  0
    2.3220   -7.4720   22.8580 N   0  0  0  0  0  0  0  0  0  0  0  0
    4.7870   -4.8270   23.0760 N   0  0  0  0  0  0  0  0  0  0  0  0
    2.6810   -6.2810   25.0110 C   0  0  0  0  0  0  0  0  0  0  0  0
    6.0990   -4.8720   22.4570 C   0  0  0  0  0  0  0  0  0  0  0  0
    1.2090   -7.5310   22.0680 C   0  0  0  0  0  0  0  0  0  0  0  0
    3.1080   -7.6750   25.3340 C   0  0  0  0  0  0  0  0  0  0  0  0
    6.6820   -3.4590   22.4900 C   0  0  2  0  0  0  0  0  0  0  0  0
    1.1440   -8.7700   21.2100 C   0  0  0  0  0  0  0  0  0  0  0  0
    0.3490   -6.6560   22.0440 O   0  0  0  0  0  0  0  0  0  0  0  0
    2.5110   -8.3030   26.3890 N   0  0  0  0  0  0  0  0  0  0  0  0
    3.9630   -8.2050   24.6560 O   0  0  0  0  0  0  0  0  0  0  0  0
    6.7570   -2.7890   21.1590 N   0  0  0  0  0  0  0  0  0  0  0  0
    8.0540   -3.5530   23.2270 C   0  0  0  0  0  0  0  0  0  0  0  0
    6.4180   -3.3860   19.9360 C   0  0  0  0  0  0  0  0  0  0  0  0
    8.8540   -2.3140   23.2630 N   0  0  0  0  0  0  0  0  0  0  0  0
    7.7440   -1.7220   21.0520 C   0  0  1  0  0  0  0  0  0  0  0  0
    7.3370   -3.0390   18.7670 C   0  0  0  0  0  0  0  0  0  0  0  0
    5.4630   -4.1690   19.7740 O   0  0  0  0  0  0  0  0  0  0  0  0
   10.1570   -2.4620   23.6920 C   0  0  0  0  0  0  0  0  0  0  0  0
    7.0860   -0.4310   21.2260 N   0  0  0  0  0  0  0  0  0  0  0  0
    9.0150   -1.8640   21.8840 C   0  0  0  0  0  0  0  0  0  0  0  0
   10.9010   -1.1450   23.6160 C   0  0  0  0  0  0  0  0  0  0  0  0
    6.3630    0.2300   20.1330 C   0  0  0  0  0  0  0  0  0  0  0  0
   10.3130   -0.0270   24.2410 C   0  0  0  0  0  0  0  0  0  0  0  0
   12.1310   -0.9630   22.9490 C   0  0  0  0  0  0  0  0  0  0  0  0
    6.8840    0.1430   18.8520 C   0  0  0  0  0  0  0  0  0  0  0  0
    5.0800    0.9990   20.3320 C   0  0  0  0  0  0  0  0  0  0  0  0
   12.8590   -2.0530   22.2330 C   0  0  0  0  0  0  0  0  0  0  0  0
   10.9160    1.2220   24.2030 C   0  0  0  0  0  0  0  0  0  0  0  0
   12.7250    0.3040   22.9330 C   0  0  0  0  0  0  0  0  0  0  0  0
    6.3920    0.6770   17.7280 N   0  0  0  0  0  0  0  0  0  0  0  0
    4.5510    1.5840   19.0430 C   0  0  0  0  0  0  0  0  0  0  0  0
   12.1260    1.3870   23.5470 C   0  0  0  0  0  0  0  0  0  0  0  0
    5.2670    1.3630   17.8720 C   0  0  0  0  0  0  0  0  0  0  0  0
  2  1  1  1
  2  3  1  0
  1  4  2  3
  2  5  1  0
  4  6  1  0
  3  7  1  0
  5  8  1  0
  9  6  1  6
  7 10  1  0
  7 11  2  0
  8 12  1  0
  8 13  2  0
  9 14  1  0
  9 15  1  0
 14 16  1  0
 15 17  1  0
 14 18  1  0
 16 19  1  0
 16 20  2  0
 17 21  1  0
 18 22  1  1
 17 23  1  0
 18 23  1  0
 21 24  1  0
 22 25  1  0
 24 26  2  0
 24 27  1  0
 25 28  2  0
 25 29  1  0
 27 30  1  0
 26 31  1  0
 27 32  2  0
 28 33  1  0
 29 34  2  0
 31 35  2  0
 32 35  1  0
 33 36  2  0
 34 36  1  0
M  END
