x1412_0-x0736_1-x1386_0-x1385_1
     RDKit          3D

 22 24  0  0  0  0  0  0  0  0999 V2000
    6.3600   -3.4150   19.9260 C   0  0  0  0  0  0  0  0  0  0  0  0
    7.4020   -3.0420   18.8680 C   0  0  0  0  0  0  0  0  0  0  0  0
    5.3770   -4.1170   19.7020 O   0  0  0  0  0  0  0  0  0  0  0  0
    6.5500   -2.9660   21.2220 N   0  0  0  0  0  0  0  0  0  0  0  0
    7.5160   -1.8700   21.4140 C   0  0  0  0  0  0  0  0  0  0  0  0
    6.0780   -3.7010   22.4240 C   0  0  0  0  0  0  0  0  0  0  0  0
    8.6320   -2.2010   22.3940 C   0  0  0  0  0  0  0  0  0  0  0  0
    7.2840   -4.0410   23.3300 C   0  0  0  0  0  0  0  0  0  0  0  0
    8.1440   -2.8840   23.5850 N   0  0  0  0  0  0  0  0  0  0  0  0
    8.9550   -2.7410   24.7100 C   0  0  2  0  0  0  0  0  0  0  0  0
    8.8880   -1.6140   25.2050 O   0  0  0  0  0  0  0  0  0  0  0  0
   10.3190   -2.8490   24.2960 C   0  0  0  0  0  0  0  0  0  0  0  0
    8.9060   -3.8750   25.6240 C   0  0  0  0  0  0  0  0  0  0  0  0
    9.6380   -5.0650   25.5610 C   0  0  0  0  0  0  0  0  0  0  0  0
    7.8630   -3.8980   27.0170 S   0  0  0  0  0  0  0  0  0  0  0  0
   11.1180   -1.5780   23.9360 C   0  0  0  0  0  0  0  0  0  0  0  0
    9.3480   -5.9170   26.5970 C   0  0  0  0  0  0  0  0  0  0  0  0
    8.4170   -5.4530   27.4790 C   0  0  0  0  0  0  0  0  0  0  0  0
   12.2550   -1.6210   22.9380 C   0  0  0  0  0  0  0  0  0  0  0  0
   10.8770   -0.1760   24.5200 C   0  0  0  0  0  0  0  0  0  0  0  0
   12.9090   -0.2180   22.7500 C   0  0  0  0  0  0  0  0  0  0  0  0
   12.0940    0.8650   23.7390 S   0  0  0  0  0  0  0  0  0  0  0  0
  1  2  1  0
  1  3  2  0
  1  4  1  0
  4  5  1  0
  4  6  1  0
  5  7  1  0
  6  8  1  0
  7  9  1  0
  8  9  1  0
  9 10  1  0
 10 11  1  1
 10 12  1  0
 10 13  1  0
 13 14  2  0
 13 15  1  0
 12 16  1  0
 14 17  1  0
 15 18  1  0
 17 18  2  0
 16 19  1  0
 16 20  2  0
 19 21  2  0
 20 22  1  0
 21 22  1  0
M  END
