x1412_1-x0831_0-x0434_2
     RDKit          3D

 24 26  0  0  0  0  0  0  0  0999 V2000
    6.3420   -3.4470   19.9530 C   0  0  0  0  0  0  0  0  0  0  0  0
    7.2420   -3.0580   18.7900 C   0  0  0  0  0  0  0  0  0  0  0  0
    5.3990   -4.2300   19.7830 O   0  0  0  0  0  0  0  0  0  0  0  0
    6.6480   -2.9090   21.1930 N   0  0  0  0  0  0  0  0  0  0  0  0
    7.5990   -1.8140   21.1140 C   0  0  1  0  0  0  0  0  0  0  0  0
    6.6350   -3.6700   22.4360 C   0  0  0  0  0  0  0  0  0  0  0  0
    6.8760   -0.5610   21.2840 N   0  0  0  0  0  0  0  0  0  0  0  0
    8.8020   -1.9060   22.0320 C   0  0  0  0  0  0  0  0  0  0  0  0
    7.8750   -3.6400   23.3090 C   0  0  0  0  0  0  0  0  0  0  0  0
    8.6620   -2.3740   23.2830 N   0  0  0  0  0  0  0  0  0  0  0  0
    6.3390    0.0890   20.1920 C   0  0  0  0  0  0  0  0  0  0  0  0
   10.0730   -2.5260   23.6840 C   0  0  0  0  0  0  0  0  0  0  0  0
    6.9730   -0.0180   18.8040 C   0  0  0  0  0  0  0  0  0  0  0  0
    5.1900    0.8350   20.4450 C   0  0  0  0  0  0  0  0  0  0  0  0
   10.7860   -1.1820   23.6340 C   0  0  0  0  0  0  0  0  0  0  0  0
    6.3890    0.6800   17.6900 N   0  0  0  0  0  0  0  0  0  0  0  0
    4.5500    1.5870   19.2490 C   0  0  0  0  0  0  0  0  0  0  0  0
   10.0850    0.0000   24.3230 C   0  0  0  0  0  0  0  0  0  0  0  0
   12.1320   -1.0070   22.9170 C   0  0  0  0  0  0  0  0  0  0  0  0
    5.1860    1.4870   17.8760 C   0  0  0  0  0  0  0  0  0  0  0  0
   12.8320   -2.1330   22.2270 C   0  0  0  0  0  0  0  0  0  0  0  0
   10.8270    1.3070   24.2180 C   0  0  0  0  0  0  0  0  0  0  0  0
   12.7240    0.2170   22.8910 C   0  0  0  0  0  0  0  0  0  0  0  0
   12.0990    1.4520   23.5390 C   0  0  0  0  0  0  0  0  0  0  0  0
  1  2  1  0
  1  3  2  0
  1  4  1  0
  4  5  1  0
  4  6  1  0
  5  7  1  1
  5  8  1  0
  6  9  1  0
  8 10  1  0
  9 10  1  0
  7 11  1  0
 10 12  1  0
 11 13  2  0
 11 14  1  0
 12 15  1  0
 13 16  1  0
 14 17  2  0
 15 18  2  0
 15 19  1  0
 16 20  2  0
 17 20  1  0
 19 21  1  0
 18 22  1  0
 19 23  2  0
 22 24  2  0
 23 24  1  0
M  END
