x1412_1-x0692_1-x1334_0-x0770_1-x1334_1-x0831_0-x1418_1-x0397_0-x0831_1
     RDKit          3D

 27 30  0  0  0  0  0  0  0  0999 V2000
    6.2560   -3.3380   19.9100 C   0  0  0  0  0  0  0  0  0  0  0  0
    7.3080   -3.0300   18.8480 C   0  0  0  0  0  0  0  0  0  0  0  0
    5.3030   -4.0850   19.6800 O   0  0  0  0  0  0  0  0  0  0  0  0
    6.4280   -2.7790   21.1480 N   0  0  0  0  0  0  0  0  0  0  0  0
    7.1920   -1.5540   21.3510 C   0  0  0  0  0  0  0  0  0  0  0  0
    6.8250   -3.8300   22.1000 C   0  0  1  0  0  0  0  0  0  0  0  0
    8.4080   -1.7740   22.2520 C   0  0  0  0  0  0  0  0  0  0  0  0
    7.0280   -3.2900   23.5180 C   0  0  0  0  0  0  0  0  0  0  0  0
    5.8070   -4.9160   22.2200 C   0  0  0  0  0  0  0  0  0  0  0  0
    8.0280   -2.2520   23.6030 N   0  0  0  0  0  0  0  0  0  0  0  0
    5.8870   -5.9520   23.2120 C   0  0  0  0  0  0  0  0  0  0  0  0
    6.0690   -6.3130   21.7760 C   0  0  0  0  0  0  0  0  0  0  0  0
    9.1950   -2.6580   24.3460 C   0  0  2  0  0  0  0  0  0  0  0  0
   10.4070   -2.5560   23.4140 C   0  0  0  0  0  0  0  0  0  0  0  0
    8.9910   -3.8550   25.2680 C   0  0  0  0  0  0  0  0  0  0  0  0
    9.6670   -5.0800   25.2660 C   0  0  0  0  0  0  0  0  0  0  0  0
    7.8160   -3.8520   26.5780 S   0  0  0  0  0  0  0  0  0  0  0  0
   11.0120   -1.1120   23.4280 C   0  0  0  0  0  0  0  0  0  0  0  0
    9.2560   -5.9340   26.2640 C   0  0  0  0  0  0  0  0  0  0  0  0
    8.2470   -5.4180   27.0730 C   0  0  0  0  0  0  0  0  0  0  0  0
   10.3470   -0.1270   24.0760 C   0  0  0  0  0  0  0  0  0  0  0  0
   12.3630   -0.8280   22.7230 C   0  0  0  0  0  0  0  0  0  0  0  0
    7.4290   -6.0840   28.4090 Cl  0  0  0  0  0  0  0  0  0  0  0  0
   13.0900   -1.9060   21.9900 C   0  0  0  0  0  0  0  0  0  0  0  0
   10.9130    1.2560   24.1200 C   0  0  0  0  0  0  0  0  0  0  0  0
   12.9250    0.4910   22.7730 C   0  0  0  0  0  0  0  0  0  0  0  0
   12.2210    1.5630   23.4600 C   0  0  0  0  0  0  0  0  0  0  0  0
  1  2  1  0
  1  3  2  0
  1  4  1  0
  4  5  1  0
  4  6  1  0
  5  7  1  0
  6  8  1  0
  6  9  1  1
  7 10  1  0
  8 10  1  0
  9 11  1  0
  9 12  1  0
 11 12  1  0
 10 13  1  0
 13 14  1  6
 13 15  1  0
 15 16  2  0
 15 17  1  0
 14 18  1  0
 16 19  1  0
 17 20  1  0
 19 20  2  0
 18 21  2  0
 18 22  1  0
 20 23  1  0
 22 24  1  0
 21 25  1  0
 22 26  2  0
 25 27  2  0
 26 27  1  0
M  END
