x1418_1-x1412_1-x0770_1-x0692_1-x1334_0-x0831_1-x1374_1-x1385_1-x0426_1-x0397_0-x1334_1-x0434_2-x0831_0
     RDKit          3D

 43 48  0  0  0  0  0  0  0  0999 V2000
    1.7420   -7.4150   23.9870 O   0  0  0  0  0  0  0  0  0  0  0  0
    2.2680   -8.2050   25.0400 C   0  0  0  0  0  0  0  0  0  0  0  0
    3.6760   -8.1440   25.0220 O   0  0  0  0  0  0  0  0  0  0  0  0
    4.1060   -7.3980   23.9110 C   0  0  0  0  0  0  0  0  0  0  0  0
    4.4070   -5.9650   24.2290 C   0  0  0  0  0  0  0  0  0  0  0  0
    5.5820   -5.5880   23.4000 C   0  0  2  0  0  0  0  0  0  0  0  0
    5.4970   -4.5790   22.5920 C   0  0  2  0  0  0  0  0  0  0  0  0
    5.8120   -6.1410   22.0900 C   0  0  0  0  0  0  0  0  0  0  0  0
    6.5340   -3.4910   22.3960 C   0  0  1  0  0  0  0  0  0  0  0  0
    7.9530   -4.0300   22.4350 C   0  0  0  0  0  0  0  0  0  0  0  0
    6.2990   -2.5780   21.3230 N   0  0  0  0  0  0  0  0  0  0  0  0
    6.3360   -3.2320   20.0400 C   0  0  0  0  0  0  0  0  0  0  0  0
    8.7760   -2.8540   22.6180 N   0  0  0  0  0  0  0  0  0  0  0  0
    7.0140   -1.4660   21.6730 C   0  0  2  0  0  0  0  0  0  0  0  0
    7.3520   -2.9410   18.9180 C   0  0  0  0  0  0  0  0  0  0  0  0
    5.5030   -4.1290   19.7740 O   0  0  0  0  0  0  0  0  0  0  0  0
    6.4600   -0.0110   21.5960 C   0  0  2  0  0  0  0  0  0  0  0  0
    9.2610   -2.5710   23.9400 C   0  0  2  0  0  0  0  0  0  0  0  0
    8.5360   -1.6990   21.6860 C   0  0  0  0  0  0  0  0  0  0  0  0
    5.4340    0.2680   22.7210 C   0  0  0  0  0  0  0  0  0  0  0  0
   10.7370   -2.2920   23.8270 C   0  0  0  0  0  0  0  0  0  0  0  0
    6.0020    0.5100   20.2520 C   0  0  0  0  0  0  0  0  0  0  0  0
    9.0260   -3.7050   24.9820 C   0  0  0  0  0  0  0  0  0  0  0  0
    4.6420    1.5690   22.5900 C   0  0  2  0  0  0  0  0  0  0  0  0
    4.8110    1.2920   20.1160 C   0  0  0  0  0  0  0  0  0  0  0  0
    6.7620    0.2250   19.1830 C   0  0  0  0  0  0  0  0  0  0  0  0
    9.7590   -4.8570   25.1140 C   0  0  0  0  0  0  0  0  0  0  0  0
    7.7160   -3.7630   26.3050 S   0  0  0  0  0  0  0  0  0  0  0  0
   11.2140   -0.9040   23.6550 C   0  0  0  0  0  0  0  0  0  0  0  0
    3.6550    1.6940   23.6320 N   0  0  0  0  0  0  0  0  0  0  0  0
    3.9220    1.6330   21.2570 C   0  0  0  0  0  0  0  0  0  0  0  0
    4.4570    1.8070   18.7030 C   0  0  0  0  0  0  0  0  0  0  0  0
    6.5780    0.6220   17.7660 N   0  0  0  0  0  0  0  0  0  0  0  0
    9.3720   -5.8490   26.2400 C   0  0  0  0  0  0  0  0  0  0  0  0
    8.2020   -5.3450   27.0230 C   0  0  0  0  0  0  0  0  0  0  0  0
   10.4310    0.2320   24.0880 C   0  0  0  0  0  0  0  0  0  0  0  0
   12.4480   -0.7010   23.0620 C   0  0  0  0  0  0  0  0  0  0  0  0
    7.3670   -5.9980   28.3600 Cl  0  0  0  0  0  0  0  0  0  0  0  0
   13.2760   -1.8370   22.5680 C   0  0  0  0  0  0  0  0  0  0  0  0
    5.4060    1.4240   17.5970 C   0  0  0  0  0  0  0  0  0  0  0  0
   10.8620    1.4880   23.9570 C   0  0  0  0  0  0  0  0  0  0  0  0
   12.9570    0.5490   22.8990 C   0  0  0  0  0  0  0  0  0  0  0  0
   12.1990    1.6210   23.3300 C   0  0  0  0  0  0  0  0  0  0  0  0
  1  2  1  0
  2  3  1  0
  3  4  1  0
  4  5  1  0
  6  5  1  6
  6  7  1  0
  6  8  1  0
  7  8  1  6
  7  9  1  0
  9 10  1  6
  9 11  1  0
 11 12  1  0
 10 13  1  0
 11 14  1  0
 12 15  1  0
 12 16  2  0
 14 17  1  0
 13 18  1  0
 13 19  1  0
 14 19  1  6
 17 20  1  1
 18 21  1  6
 17 22  1  0
 18 23  1  0
 20 24  1  0
 22 25  2  0
 22 26  1  0
 23 27  2  0
 23 28  1  0
 21 29  1  0
 24 30  1  1
 24 31  1  0
 25 31  1  0
 25 32  1  0
 26 33  2  0
 27 34  1  0
 28 35  1  0
 34 35  2  0
 29 36  2  0
 29 37  1  0
 35 38  1  0
 37 39  1  0
 32 40  2  0
 33 40  1  0
 36 41  1  0
 37 42  2  0
 41 43  2  0
 42 43  1  0
M  END
