x1418_1-x0981_1-x0831_0-x0692_0-x1412_0
     RDKit          3D

 38 40  0  0  0  0  0  0  0  0999 V2000
    4.0910   -5.7360   23.1170 C   0  0  0  0  0  0  0  0  0  0  0  0
    2.6940   -6.1160   23.5720 C   0  0  1  0  0  0  0  0  0  0  0  0
    2.4390   -7.4390   22.9780 N   0  0  0  0  0  0  0  0  0  0  0  0
    4.8920   -4.5310   23.1580 N   0  0  0  0  0  0  0  0  0  0  0  0
    2.6980   -6.2350   25.0920 C   0  0  0  0  0  0  0  0  0  0  0  0
    6.2170   -4.6340   22.5870 C   0  0  0  0  0  0  0  0  0  0  0  0
    1.3510   -7.5980   22.0470 C   0  0  0  0  0  0  0  0  0  0  0  0
    3.1280   -7.6360   25.3790 C   0  0  0  0  0  0  0  0  0  0  0  0
    6.8470   -3.2420   22.3440 C   0  0  1  0  0  0  0  0  0  0  0  0
    1.1940   -8.7980   21.1180 C   0  0  0  0  0  0  0  0  0  0  0  0
    0.3920   -6.5570   22.0030 O   0  0  0  0  0  0  0  0  0  0  0  0
    2.5410   -8.2500   26.4450 N   0  0  0  0  0  0  0  0  0  0  0  0
    3.9580   -8.1860   24.6840 O   0  0  0  0  0  0  0  0  0  0  0  0
    8.2250   -3.3590   22.4220 C   0  0  0  0  0  0  0  0  0  0  0  0
    6.4450   -2.5640   21.0840 N   0  0  0  0  0  0  0  0  0  0  0  0
    6.2820   -3.2810   19.8770 C   0  0  0  0  0  0  0  0  0  0  0  0
    8.9650   -2.0940   22.2790 N   0  0  0  0  0  0  0  0  0  0  0  0
    6.8720   -1.1760   21.0800 C   0  0  0  0  0  0  0  0  0  0  0  0
    7.2770   -2.9860   18.7630 C   0  0  0  0  0  0  0  0  0  0  0  0
    5.3990   -4.1290   19.7170 O   0  0  0  0  0  0  0  0  0  0  0  0
    9.5750   -1.5660   23.4630 C   0  0  1  0  0  0  0  0  0  0  0  0
    8.3560   -1.0970   21.4430 C   0  0  0  0  0  0  0  0  0  0  0  0
    9.8820   -2.6560   24.3800 C   0  0  0  0  0  0  0  0  0  0  0  0
   10.6840   -0.6020   23.3610 C   0  0  0  0  0  0  0  0  0  0  0  0
    8.7070   -2.8650   25.2670 C   0  0  0  0  0  0  0  0  0  0  0  0
   10.2680    0.6740   23.7130 C   0  0  0  0  0  0  0  0  0  0  0  0
   12.0260   -0.8760   22.9510 C   0  0  0  0  0  0  0  0  0  0  0  0
   12.5540   -2.2150   22.5460 C   0  0  0  0  0  0  0  0  0  0  0  0
    7.7820   -2.0240   25.3130 O   0  0  0  0  0  0  0  0  0  0  0  0
   11.0860    1.7740   23.6920 C   0  0  0  0  0  0  0  0  0  0  0  0
   12.9420    0.2830   22.9240 C   0  0  0  0  0  0  0  0  0  0  0  0
    8.7700   -4.0600   26.0200 C   0  0  0  0  0  0  0  0  0  0  0  0
   10.5050    3.0810   24.0690 C   0  0  0  0  0  0  0  0  0  0  0  0
   12.4070    1.6580   23.3180 C   0  0  0  0  0  0  0  0  0  0  0  0
    9.5590   -5.1800   25.7830 C   0  0  0  0  0  0  0  0  0  0  0  0
    7.7910   -4.2700   27.4360 S   0  0  0  0  0  0  0  0  0  0  0  0
    9.3520   -6.1280   26.7150 C   0  0  0  0  0  0  0  0  0  0  0  0
    8.4470   -5.8310   27.6840 C   0  0  0  0  0  0  0  0  0  0  0  0
  2  1  1  6
  2  3  1  0
  1  4  2  3
  2  5  1  0
  4  6  1  0
  3  7  1  0
  5  8  1  0
  9  6  1  6
  7 10  1  0
  7 11  2  0
  8 12  1  0
  8 13  2  0
  9 14  1  0
  9 15  1  0
 15 16  1  0
 14 17  1  0
 15 18  1  0
 16 19  1  0
 16 20  2  0
 17 21  1  0
 17 22  1  0
 18 22  1  0
 21 23  1  6
 21 24  1  0
 23 25  1  0
 24 26  2  0
 24 27  1  0
 27 28  1  0
 25 29  2  0
 26 30  1  0
 27 31  2  0
 25 32  1  0
 30 33  1  0
 30 34  2  0
 31 34  1  0
 32 35  2  0
 32 36  1  0
 35 37  1  0
 36 38  1  0
 37 38  2  0
M  END
