x1418_0-x0397_0-x0770_1-x1375_1-x1385_1-x0434_2-x0426_1-x1386_1-x0831_1-x0831_0-x1418_1-x1334_0-x0692_1-x1334_1-x1412_1
     RDKit          3D

 44 49  0  0  0  0  0  0  0  0999 V2000
    3.0600   -8.2080   24.1820 O   0  0  0  0  0  0  0  0  0  0  0  0
    3.3580   -6.9570   24.7580 C   0  0  0  0  0  0  0  0  0  0  0  0
    4.7410   -6.7050   24.6930 O   0  0  0  0  0  0  0  0  0  0  0  0
    5.1540   -6.8150   23.3460 C   0  0  0  0  0  0  0  0  0  0  0  0
    6.0600   -5.7110   22.9480 C   0  0  2  0  0  0  0  0  0  0  0  0
    5.6440   -4.4960   22.3480 C   0  0  2  0  0  0  0  0  0  0  0  0
    6.3320   -5.7160   21.5380 C   0  0  0  0  0  0  0  0  0  0  0  0
    6.3480   -3.2280   22.5200 C   0  0  2  0  0  0  0  0  0  0  0  0
    6.4850   -2.5730   21.2140 N   0  0  0  0  0  0  0  0  0  0  0  0
    7.6160   -3.4500   23.0350 C   0  0  0  0  0  0  0  0  0  0  0  0
    6.2830   -3.3520   20.0500 C   0  0  0  0  0  0  0  0  0  0  0  0
    8.2590   -2.1210   23.2650 N   0  0  0  0  0  0  0  0  0  0  0  0
    6.9410   -1.2890   21.3670 C   0  0  1  0  0  0  0  0  0  0  0  0
    7.2100   -3.0020   18.8960 C   0  0  0  0  0  0  0  0  0  0  0  0
    5.4570   -4.2700   19.8600 O   0  0  0  0  0  0  0  0  0  0  0  0
    6.0940   -0.0020   21.4540 C   0  0  1  0  0  0  0  0  0  0  0  0
    9.6960   -2.2770   23.4300 C   0  0  1  0  0  0  0  0  0  0  0  0
    8.0830   -1.1690   22.1520 C   0  0  0  0  0  0  0  0  0  0  0  0
    4.7880   -0.2370   22.1900 C   0  0  0  0  0  0  0  0  0  0  0  0
   10.3600   -3.1720   24.4480 C   0  0  0  0  0  0  0  0  0  0  0  0
   10.1680   -2.8610   22.1650 C   0  0  0  0  0  0  0  0  0  0  0  0
    6.7750    1.1530   22.2500 C   0  0  0  0  0  0  0  0  0  0  0  0
    5.8020    0.5230   20.1610 C   0  0  0  0  0  0  0  0  0  0  0  0
   10.5330   -0.9730   23.4590 C   0  0  0  0  0  0  0  0  0  0  0  0
    3.8330    0.9870   22.2960 C   0  0  1  0  0  0  0  0  0  0  0  0
    4.6990    1.3620   19.9560 C   0  0  0  0  0  0  0  0  0  0  0  0
    6.5630    0.2500   19.0730 C   0  0  0  0  0  0  0  0  0  0  0  0
    9.9400    0.2830   23.9720 C   0  0  0  0  0  0  0  0  0  0  0  0
   11.9900   -0.8370   22.9620 C   0  0  0  0  0  0  0  0  0  0  0  0
    9.6230   -4.1200   25.3700 C   0  0  0  0  0  0  0  0  0  0  0  0
    4.1960    1.8840   23.3770 N   0  0  0  0  0  0  0  0  0  0  0  0
    3.7390    1.7810   20.9910 C   0  0  0  0  0  0  0  0  0  0  0  0
   12.8530   -1.9140   22.3790 C   0  0  0  0  0  0  0  0  0  0  0  0
    4.4770    1.8790   18.5820 C   0  0  0  0  0  0  0  0  0  0  0  0
    6.3560    0.7170   17.8270 N   0  0  0  0  0  0  0  0  0  0  0  0
   10.6610    1.5940   24.0220 C   0  0  0  0  0  0  0  0  0  0  0  0
   12.7180    0.5170   23.0200 C   0  0  0  0  0  0  0  0  0  0  0  0
    9.9440   -5.4260   25.6230 C   0  0  0  0  0  0  0  0  0  0  0  0
    8.1930   -3.7760   26.3550 S   0  0  0  0  0  0  0  0  0  0  0  0
    5.3190    1.5170   17.6490 C   0  0  0  0  0  0  0  0  0  0  0  0
   12.1170    1.6360   23.5000 C   0  0  0  0  0  0  0  0  0  0  0  0
    9.1770   -6.0970   26.5180 C   0  0  0  0  0  0  0  0  0  0  0  0
    8.1730   -5.3420   27.0320 C   0  0  0  0  0  0  0  0  0  0  0  0
    7.0010   -5.7970   28.1960 Cl  0  0  0  0  0  0  0  0  0  0  0  0
  1  2  1  0
  2  3  1  0
  3  4  1  0
  5  4  1  6
  5  6  1  0
  5  7  1  0
  6  7  1  6
  6  8  1  0
  8  9  1  0
  8 10  1  6
  9 11  1  0
 10 12  1  0
  9 13  1  0
 11 14  1  0
 11 15  2  0
 13 16  1  0
 12 17  1  0
 12 18  1  0
 13 18  1  1
 16 19  1  0
 17 20  1  0
 17 21  1  6
 16 22  1  1
 16 23  1  0
 17 24  1  0
 19 25  1  0
 23 26  2  0
 23 27  1  0
 24 28  2  0
 24 29  1  0
 20 30  1  0
 25 31  1  1
 25 32  1  0
 26 32  1  0
 29 33  1  0
 26 34  1  0
 27 35  2  0
 28 36  1  0
 29 37  2  0
 30 38  2  0
 30 39  1  0
 34 40  2  0
 35 40  1  0
 36 41  2  0
 37 41  1  0
 38 42  1  0
 39 43  1  0
 42 43  2  0
 43 44  1  0
M  END
