x1412_1-x0874_0-x1458_0
     RDKit          3D

 22 23  0  0  0  0  0  0  0  0999 V2000
    6.3640   -3.4100   20.0060 C   0  0  0  0  0  0  0  0  0  0  0  0
    7.3230   -3.0060   18.8890 C   0  0  0  0  0  0  0  0  0  0  0  0
    5.4000   -4.1330   19.7430 O   0  0  0  0  0  0  0  0  0  0  0  0
    6.6070   -2.9970   21.3380 N   0  0  0  0  0  0  0  0  0  0  0  0
    7.5920   -1.9280   21.5600 C   0  0  0  0  0  0  0  0  0  0  0  0
    6.4400   -3.9070   22.4950 C   0  0  0  0  0  0  0  0  0  0  0  0
    8.7490   -2.4520   22.1420 C   0  0  1  0  0  0  0  0  0  0  0  0
    7.6050   -4.1750   23.2280 C   0  0  0  0  0  0  0  0  0  0  0  0
    9.9700   -1.8000   21.8930 C   0  0  0  0  0  0  0  0  0  0  0  0
    8.4870   -3.0110   23.4590 N   0  0  0  0  0  0  0  0  0  0  0  0
    8.0020   -2.0990   24.5000 C   0  0  0  0  0  0  0  0  0  0  0  0
   10.4890   -0.7910   22.6600 C   0  0  0  0  0  0  0  0  0  0  0  0
    8.4270   -2.6830   25.8310 C   0  0  0  0  0  0  0  0  0  0  0  0
   11.6030    0.1070   23.2590 C   0  0  0  0  0  0  0  0  0  0  0  0
   11.5450   -1.5020   21.9850 C   0  0  0  0  0  0  0  0  0  0  0  0
    7.3980   -3.3560   26.6330 N   0  0  0  0  0  0  0  0  0  0  0  0
   12.9270    0.0710   23.0770 C   0  0  0  0  0  0  0  0  0  0  0  0
   13.2240   -1.1870   22.0580 S   0  0  0  0  0  0  0  0  0  0  0  0
    7.7000   -4.6760   26.9210 C   0  0  0  0  0  0  0  0  0  0  0  0
    7.1140   -2.5350   27.8130 C   0  0  0  0  0  0  0  0  0  0  0  0
    9.0510   -4.8740   27.5680 C   0  0  0  0  0  0  0  0  0  0  0  0
    6.6580   -5.3440   27.8330 C   0  0  0  0  0  0  0  0  0  0  0  0
  1  2  1  0
  1  3  2  0
  1  4  1  0
  4  5  1  0
  4  6  1  0
  5  7  1  0
  6  8  1  0
  7  9  1  1
  7 10  1  0
  8 10  1  0
 10 11  1  0
  9 12  1  0
 11 13  1  0
 12 14  1  0
 12 15  2  0
 13 16  1  0
 14 17  2  0
 15 18  1  0
 17 18  1  0
 16 19  1  0
 16 20  1  0
 19 21  1  0
 19 22  1  0
M  END
