x1418_1-x0397_0-x0770_1-x1334_0-x0434_2-x1374_1-x1385_1-x1386_1-x1375_1-x1334_1-x0831_0-x0692_1-x0831_1
     RDKit          3D

 39 43  0  0  0  0  0  0  0  0999 V2000
    6.4050   -3.2380   19.8180 C   0  0  0  0  0  0  0  0  0  0  0  0
    7.4140   -3.0320   18.7020 C   0  0  0  0  0  0  0  0  0  0  0  0
    5.4370   -3.9980   19.6510 O   0  0  0  0  0  0  0  0  0  0  0  0
    6.6510   -2.5740   21.0120 N   0  0  0  0  0  0  0  0  0  0  0  0
    6.4790   -3.1070   22.2600 C   0  0  2  0  0  0  0  0  0  0  0  0
    7.8100   -1.6340   20.9170 C   0  0  2  0  0  0  0  0  0  0  0  0
    7.7830   -3.7080   22.7490 C   0  0  0  0  0  0  0  0  0  0  0  0
    8.9670   -1.8020   21.9650 C   0  0  0  0  0  0  0  0  0  0  0  0
    5.5050   -4.2540   21.9510 C   0  0  2  0  0  0  0  0  0  0  0  0
    7.4360   -0.1620   20.7490 C   0  0  0  0  0  0  0  0  0  0  0  0
    8.6390   -2.6420   23.1220 N   0  0  0  0  0  0  0  0  0  0  0  0
    6.0520   -5.2660   23.0250 C   0  0  2  0  0  0  0  0  0  0  0  0
    5.9900   -5.7520   21.8770 C   0  0  0  0  0  0  0  0  0  0  0  0
    7.1190    0.1610   19.4340 C   0  0  0  0  0  0  0  0  0  0  0  0
    9.7130   -3.0590   24.0230 C   0  0  1  0  0  0  0  0  0  0  0  0
    6.1220    0.4400   20.3420 C   0  0  0  0  0  0  0  0  0  0  0  0
    6.5170    0.5910   18.2340 N   0  0  0  0  0  0  0  0  0  0  0  0
    5.1860   -5.8260   24.1060 C   0  0  0  0  0  0  0  0  0  0  0  0
   10.2600   -1.8740   24.8430 C   0  0  0  0  0  0  0  0  0  0  0  0
    9.2960   -4.0590   25.1060 C   0  0  0  0  0  0  0  0  0  0  0  0
    5.3220    1.1470   17.9370 C   0  0  0  0  0  0  0  0  0  0  0  0
    4.8650    0.9900   20.1900 C   0  0  0  0  0  0  0  0  0  0  0  0
    4.7160   -7.0640   23.7120 C   0  0  0  0  0  0  0  0  0  0  0  0
    9.8830   -5.4000   25.3360 C   0  0  0  0  0  0  0  0  0  0  0  0
    8.0500   -3.7880   26.2880 S   0  0  0  0  0  0  0  0  0  0  0  0
   11.0760   -0.7740   24.1510 C   0  0  0  0  0  0  0  0  0  0  0  0
    4.4240    1.3880   18.8310 C   0  0  0  0  0  0  0  0  0  0  0  0
    4.1670   -7.7980   24.7860 O   0  0  0  0  0  0  0  0  0  0  0  0
    9.3830   -6.1060   26.3560 C   0  0  0  0  0  0  0  0  0  0  0  0
    8.2710   -5.3110   27.0560 C   0  0  0  0  0  0  0  0  0  0  0  0
   10.5750    0.4990   24.4420 C   0  0  0  0  0  0  0  0  0  0  0  0
   12.2080   -0.8770   23.3200 C   0  0  0  0  0  0  0  0  0  0  0  0
    2.7720   -7.9550   24.6490 C   0  0  0  0  0  0  0  0  0  0  0  0
    7.3180   -5.7620   28.4020 Cl  0  0  0  0  0  0  0  0  0  0  0  0
   12.9000   -2.1330   22.8700 C   0  0  0  0  0  0  0  0  0  0  0  0
   11.1670    1.6570   23.9440 C   0  0  0  0  0  0  0  0  0  0  0  0
   12.8010    0.2820   22.8310 C   0  0  0  0  0  0  0  0  0  0  0  0
    2.3960   -7.7230   23.3110 O   0  0  0  0  0  0  0  0  0  0  0  0
   12.2860    1.5260   23.1420 C   0  0  0  0  0  0  0  0  0  0  0  0
  1  2  1  0
  1  3  2  0
  1  4  1  0
  4  5  1  0
  4  6  1  0
  5  7  1  6
  6  8  1  0
  5  9  1  0
  6 10  1  1
  7 11  1  0
  8 11  1  0
  9 12  1  0
  9 13  1  6
 12 13  1  0
 10 14  1  0
 11 15  1  0
 14 16  2  0
 14 17  1  0
 12 18  1  1
 15 19  1  1
 15 20  1  0
 17 21  2  0
 16 22  1  0
 18 23  1  0
 20 24  2  0
 20 25  1  0
 19 26  1  0
 21 27  1  0
 22 27  2  0
 23 28  1  0
 24 29  1  0
 25 30  1  0
 29 30  2  0
 26 31  2  0
 26 32  1  0
 28 33  1  0
 30 34  1  0
 32 35  1  0
 31 36  1  0
 32 37  2  0
 33 38  1  0
 36 39  2  0
 37 39  1  0
M  END
