x1412_0-x0434_2-x1412_1-x1334_1-x1336_0-x0736_1-x0874_0
     RDKit          3D

 30 33  0  0  0  0  0  0  0  0999 V2000
    6.3160   -3.3670   19.9240 C   0  0  0  0  0  0  0  0  0  0  0  0
    7.3170   -3.0030   18.8260 C   0  0  0  0  0  0  0  0  0  0  0  0
    5.3350   -4.0600   19.6600 O   0  0  0  0  0  0  0  0  0  0  0  0
    6.5230   -2.9780   21.2410 N   0  0  0  0  0  0  0  0  0  0  0  0
    7.4070   -1.8690   21.6280 C   0  0  2  0  0  0  0  0  0  0  0  0
    6.2930   -3.9330   22.2750 C   0  0  0  0  0  0  0  0  0  0  0  0
    7.6670   -0.9570   20.5140 N   0  0  0  0  0  0  0  0  0  0  0  0
    8.7230   -2.4280   22.2140 C   0  0  0  0  0  0  0  0  0  0  0  0
    7.5350   -4.4590   23.0350 C   0  0  0  0  0  0  0  0  0  0  0  0
    8.4490   -3.3450   23.3280 N   0  0  0  0  0  0  0  0  0  0  0  0
    6.6830   -0.1220   19.8540 C   0  0  0  0  0  0  0  0  0  0  0  0
    8.5490   -2.9190   24.6220 C   0  0  0  0  0  0  0  0  0  0  0  0
    7.0200    0.1090   18.5530 C   0  0  0  0  0  0  0  0  0  0  0  0
    5.2910    0.5540   20.4300 C   0  0  0  0  0  0  0  0  0  0  0  0
    8.6240   -1.4930   25.0210 N   0  0  0  0  0  0  0  0  0  0  0  0
    8.5980   -3.9580   25.7140 C   0  0  0  0  0  0  0  0  0  0  0  0
    6.3690    0.8380   17.6390 N   0  0  0  0  0  0  0  0  0  0  0  0
    4.5460    1.3270   19.5450 C   0  0  0  0  0  0  0  0  0  0  0  0
    8.5860   -0.6900   23.9090 C   0  0  0  0  0  0  0  0  0  0  0  0
    9.4460   -5.2210   25.5330 C   0  0  0  0  0  0  0  0  0  0  0  0
    7.7970   -3.9760   27.2600 S   0  0  0  0  0  0  0  0  0  0  0  0
    5.1060    1.4950   18.0470 C   0  0  0  0  0  0  0  0  0  0  0  0
    9.7760    0.2920   23.9390 C   0  0  0  0  0  0  0  0  0  0  0  0
    9.3150   -6.0030   26.6720 C   0  0  0  0  0  0  0  0  0  0  0  0
    8.4820   -5.5020   27.6890 C   0  0  0  0  0  0  0  0  0  0  0  0
   11.0730   -0.1230   23.2670 C   0  0  0  0  0  0  0  0  0  0  0  0
   12.2730    0.8790   23.3950 C   0  0  0  0  0  0  0  0  0  0  0  0
   11.2710   -1.3100   22.5580 C   0  0  0  0  0  0  0  0  0  0  0  0
   13.2680    0.0910   22.6310 C   0  0  0  0  0  0  0  0  0  0  0  0
   12.8310   -1.4830   21.9410 S   0  0  0  0  0  0  0  0  0  0  0  0
  1  2  1  0
  1  3  2  0
  1  4  1  0
  4  5  1  0
  4  6  1  0
  5  7  1  6
  5  8  1  0
  6  9  1  0
  8 10  1  0
  9 10  1  0
  7 11  1  0
 10 12  1  0
 11 13  2  0
 11 14  1  0
 12 15  2  3
 12 16  1  0
 13 17  1  0
 14 18  2  0
 15 19  1  0
 16 20  2  0
 16 21  1  0
 17 22  2  0
 18 22  1  0
 19 23  1  0
 20 24  1  0
 21 25  1  0
 24 25  2  0
 23 26  1  0
 26 27  1  0
 26 28  2  0
 27 29  2  0
 28 30  1  0
 29 30  1  0
M  END
