x1412_0-x1418_1-x0770_1
     RDKit          3D

 16 17  0  0  0  0  0  0  0  0999 V2000
    6.3700   -3.2060   19.8740 C   0  0  0  0  0  0  0  0  0  0  0  0
    7.3640   -2.9810   18.7640 C   0  0  0  0  0  0  0  0  0  0  0  0
    5.4490   -4.0120   19.6880 O   0  0  0  0  0  0  0  0  0  0  0  0
    6.5370   -2.5450   21.0860 N   0  0  0  0  0  0  0  0  0  0  0  0
    6.3250   -3.3820   22.2560 C   0  0  0  0  0  0  0  0  0  0  0  0
    7.5760   -1.4860   21.2130 C   0  0  0  0  0  0  0  0  0  0  0  0
    7.6820   -3.9070   22.7570 C   0  0  0  0  0  0  0  0  0  0  0  0
    8.7630   -1.7690   22.1890 C   0  0  0  0  0  0  0  0  0  0  0  0
    8.5050   -2.8100   23.2100 N   0  0  0  0  0  0  0  0  0  0  0  0
    8.5630   -2.6920   24.5850 C   0  0  0  0  0  0  0  0  0  0  0  0
    8.4960   -1.5530   25.0530 O   0  0  0  0  0  0  0  0  0  0  0  0
    8.6690   -3.7370   25.4330 C   0  0  0  0  0  0  0  0  0  0  0  0
    9.4330   -4.8980   25.3200 C   0  0  0  0  0  0  0  0  0  0  0  0
    7.7980   -3.7970   26.9210 S   0  0  0  0  0  0  0  0  0  0  0  0
    9.3080   -5.7730   26.3920 C   0  0  0  0  0  0  0  0  0  0  0  0
    8.4640   -5.3320   27.3480 C   0  0  0  0  0  0  0  0  0  0  0  0
  1  2  1  0
  1  3  2  0
  1  4  1  0
  4  5  1  0
  4  6  1  0
  5  7  1  0
  6  8  1  0
  7  9  1  0
  8  9  1  0
  9 10  1  0
 10 11  2  0
 10 12  1  0
 12 13  2  0
 12 14  1  0
 13 15  1  0
 14 16  1  0
 15 16  2  0
M  END
