x1412_1-x0769_1-x1385_0
     RDKit          3D

 28 30  0  0  0  0  0  0  0  0999 V2000
    6.3980   -3.3400   19.9010 C   0  0  0  0  0  0  0  0  0  0  0  0
    7.3530   -3.0230   18.7680 C   0  0  0  0  0  0  0  0  0  0  0  0
    5.4250   -4.0830   19.7100 O   0  0  0  0  0  0  0  0  0  0  0  0
    6.6730   -2.8110   21.1350 N   0  0  0  0  0  0  0  0  0  0  0  0
    7.5710   -1.6300   21.2070 C   0  0  0  0  0  0  0  0  0  0  0  0
    6.3960   -3.5770   22.3380 C   0  0  0  0  0  0  0  0  0  0  0  0
    8.7520   -1.8610   22.1700 C   0  0  0  0  0  0  0  0  0  0  0  0
    7.5370   -3.8340   23.3390 C   0  0  0  0  0  0  0  0  0  0  0  0
    8.4630   -2.5900   23.4890 C   0  0  0  0  0  0  0  0  0  0  0  0
    7.8070   -1.6400   24.5260 C   0  0  0  0  0  0  0  0  0  0  0  0
    9.7310   -3.1080   24.1740 C   0  0  0  0  0  0  0  0  0  0  0  0
    6.2240   -1.6200   24.6030 C   0  0  0  0  0  0  0  0  0  0  0  0
    9.3210   -4.1210   25.2400 C   0  0  0  0  0  0  0  0  0  0  0  0
    5.6720   -2.4120   25.6840 O   0  0  0  0  0  0  0  0  0  0  0  0
    9.8340   -5.4150   25.4300 C   0  0  0  0  0  0  0  0  0  0  0  0
    8.0990   -3.8270   26.4120 S   0  0  0  0  0  0  0  0  0  0  0  0
    4.3100   -2.5200   25.7840 C   0  0  0  0  0  0  0  0  0  0  0  0
    9.2590   -6.0730   26.4450 C   0  0  0  0  0  0  0  0  0  0  0  0
    8.2630   -5.3590   27.1150 C   0  0  0  0  0  0  0  0  0  0  0  0
    7.1970   -5.9300   28.5810 Br  0  0  0  0  0  0  0  0  0  0  0  0
    3.7440   -3.8030   25.7790 C   0  0  0  0  0  0  0  0  0  0  0  0
    3.4460   -1.4170   25.8880 C   0  0  0  0  0  0  0  0  0  0  0  0
    4.7200   -5.2130   25.6650 S   0  0  0  0  0  0  0  0  0  0  0  0
    2.3490   -3.9990   25.8680 C   0  0  0  0  0  0  0  0  0  0  0  0
    2.0660   -1.5890   25.9800 C   0  0  0  0  0  0  0  0  0  0  0  0
    5.7650   -5.1010   26.6530 O   0  0  0  0  0  0  0  0  0  0  0  0
    3.8430   -6.3680   25.6440 O   0  0  0  0  0  0  0  0  0  0  0  0
    1.5120   -2.8810   25.9680 C   0  0  0  0  0  0  0  0  0  0  0  0
  1  2  1  0
  1  3  2  0
  1  4  1  0
  4  5  1  0
  4  6  1  0
  5  7  1  0
  6  8  1  0
  7  9  1  0
  8  9  1  0
  9 10  1  0
  9 11  1  0
 10 12  1  0
 11 13  1  0
 12 14  1  0
 13 15  2  0
 13 16  1  0
 14 17  1  0
 15 18  1  0
 16 19  1  0
 18 19  2  0
 19 20  1  0
 17 21  2  0
 17 22  1  0
 21 23  1  0
 21 24  1  0
 22 25  2  0
 23 26  2  0
 23 27  2  0
 24 28  2  0
 25 28  1  0
M  END
