x1418_1-x0692_1-x1334_1-x0540_3-x1374_1-x0397_0-x0770_1-x0831_1-x0831_0
     RDKit          3D

 31 33  0  0  0  0  0  0  0  0999 V2000
    2.1370   -6.9220   23.8540 O   0  0  0  0  0  0  0  0  0  0  0  0
    2.5130   -7.8920   24.8130 C   0  0  0  0  0  0  0  0  0  0  0  0
    3.9250   -7.9300   24.8700 O   0  0  0  0  0  0  0  0  0  0  0  0
    4.5170   -7.1880   23.8070 C   0  0  0  0  0  0  0  0  0  0  0  0
    4.9710   -5.9500   24.2530 C   0  0  0  0  0  0  0  0  0  0  0  0
    6.0540   -5.5210   23.3020 C   0  0  2  0  0  0  0  0  0  0  0  0
    5.9050   -4.5610   22.3930 C   0  0  2  0  0  0  0  0  0  0  0  0
    6.0440   -6.1760   22.0180 C   0  0  0  0  0  0  0  0  0  0  0  0
    6.9530   -3.5010   21.9910 C   0  0  2  0  0  0  0  0  0  0  0  0
    7.7710   -3.0700   23.2450 C   0  0  0  0  0  0  0  0  0  0  0  0
    6.5410   -2.5200   20.9910 N   0  0  0  0  0  0  0  0  0  0  0  0
    6.2780   -3.2120   19.8240 C   0  0  0  0  0  0  0  0  0  0  0  0
    8.7020   -1.9570   23.0780 N   0  0  0  0  0  0  0  0  0  0  0  0
    7.4630   -1.3140   20.9730 C   0  0  1  0  0  0  0  0  0  0  0  0
    7.2830   -2.9910   18.7140 C   0  0  0  0  0  0  0  0  0  0  0  0
    5.3430   -4.0090   19.6610 O   0  0  0  0  0  0  0  0  0  0  0  0
    6.8650    0.0790   21.3250 C   0  0  0  0  0  0  0  0  0  0  0  0
   10.0560   -2.2660   23.5680 C   0  0  0  0  0  0  0  0  0  0  0  0
    8.8370   -1.5800   21.6720 C   0  0  0  0  0  0  0  0  0  0  0  0
    5.3570    0.1620   21.6850 C   0  0  0  0  0  0  0  0  0  0  0  0
   10.8930   -1.0220   23.5080 C   0  0  0  0  0  0  0  0  0  0  0  0
    5.2550    1.2890   22.7180 C   0  0  0  0  0  0  0  0  0  0  0  0
   10.3860    0.1330   24.0970 C   0  0  0  0  0  0  0  0  0  0  0  0
   12.1400   -0.9440   22.8840 C   0  0  0  0  0  0  0  0  0  0  0  0
    4.1100    2.1820   22.4830 N   0  0  0  0  0  0  0  0  0  0  0  0
   12.8200   -2.0930   22.1990 C   0  0  0  0  0  0  0  0  0  0  0  0
   11.1110    1.3830   24.0620 C   0  0  0  0  0  0  0  0  0  0  0  0
   12.8130    0.3990   22.9090 C   0  0  0  0  0  0  0  0  0  0  0  0
    2.9800    2.2410   23.4210 C   0  0  0  0  0  0  0  0  0  0  0  0
   12.3260    1.5620   23.4780 C   0  0  0  0  0  0  0  0  0  0  0  0
    2.8390    1.5460   24.4240 O   0  0  0  0  0  0  0  0  0  0  0  0
  1  2  1  0
  2  3  1  0
  3  4  1  0
  4  5  1  0
  6  5  1  1
  6  7  1  0
  6  8  1  0
  7  8  1  6
  7  9  1  0
  9 10  1  1
  9 11  1  0
 11 12  1  0
 10 13  1  0
 11 14  1  0
 12 15  1  0
 12 16  2  0
 14 17  1  1
 13 18  1  0
 13 19  1  0
 14 19  1  0
 17 20  1  0
 18 21  1  0
 20 22  1  0
 21 23  2  0
 21 24  1  0
 22 25  1  0
 24 26  1  0
 23 27  1  0
 24 28  2  0
 25 29  1  0
 27 30  2  0
 28 30  1  0
 29 31  2  0
M  END
