x1418_0-x0387_0-x0770_1-x1412_0-x0820_1-x0434_2-x1334_1
     RDKit          3D

 44 52  0  0  0  0  0  0  0  0999 V2000
    6.4300   -3.2430   19.8170 C   0  0  0  0  0  0  0  0  0  0  0  0
    7.0300   -2.6360   18.5740 C   0  0  0  0  0  0  0  0  0  0  0  0
    5.7210   -4.2380   19.7150 O   0  0  0  0  0  0  0  0  0  0  0  0
    6.7110   -2.6630   21.0100 C   0  0  1  0  0  0  0  0  0  0  0  0
    7.5420   -2.5260   22.4730 C   0  0  2  0  0  0  0  0  0  0  0  0
    7.4090   -1.4000   21.2190 C   0  0  1  0  0  0  0  0  0  0  0  0
    6.3720   -3.2720   22.2970 C   0  0  0  0  0  0  0  0  0  0  0  0
    8.4180   -2.2890   23.2660 N   0  0  0  0  0  0  0  0  0  0  0  0
    8.6940   -1.6630   21.9690 C   0  0  0  0  0  0  0  0  0  0  0  0
    7.6310   -3.5140   23.0980 C   0  0  2  0  0  0  0  0  0  0  0  0
    7.2990   -0.6800   19.8990 C   0  0  0  0  0  0  0  0  0  0  0  0
    7.0020   -3.3930   22.6970 C   0  0  0  0  0  0  0  0  0  0  0  0
    8.4350   -2.5230   24.8290 C   0  0  0  0  0  0  0  0  0  0  0  0
    6.4390   -4.2050   23.9830 C   0  0  1  0  0  0  0  0  0  0  0  0
    7.1890    0.0390   18.5790 C   0  0  0  0  0  0  0  0  0  0  0  0
    8.3330   -1.3830   25.2750 O   0  0  0  0  0  0  0  0  0  0  0  0
    9.2450   -2.5830   24.1880 C   0  0  0  0  0  0  0  0  0  0  0  0
    6.8860   -4.2170   25.3580 C   0  0  0  0  0  0  0  0  0  0  0  0
    5.0990   -4.3650   23.7200 C   0  0  0  0  0  0  0  0  0  0  0  0
    6.6490    0.0080   19.8530 C   0  0  0  0  0  0  0  0  0  0  0  0
    6.5560    0.6700   17.6270 N   0  0  0  0  0  0  0  0  0  0  0  0
   10.0540   -2.6430   23.5460 C   0  0  0  0  0  0  0  0  0  0  0  0
    9.7170   -1.5590   24.2350 C   0  0  0  0  0  0  0  0  0  0  0  0
    5.9160   -4.3990   26.3890 C   0  0  0  0  0  0  0  0  0  0  0  0
    4.1540   -4.5400   24.7490 C   0  0  0  0  0  0  0  0  0  0  0  0
    8.2410   -4.0590   25.7640 C   0  0  1  0  0  0  0  0  0  0  0  0
    5.4080    1.2680   17.8390 C   0  0  0  0  0  0  0  0  0  0  0  0
    5.4460    0.6340   20.1390 C   0  0  0  0  0  0  0  0  0  0  0  0
    4.5530   -4.5590   26.0430 C   0  0  0  0  0  0  0  0  0  0  0  0
    8.6000   -4.0860   27.0800 C   0  0  1  0  0  0  0  0  0  0  0  0
    6.3270   -4.4200   27.7430 C   0  0  0  0  0  0  0  0  0  0  0  0
    9.6190   -4.6380   25.4440 C   0  0  0  0  0  0  0  0  0  0  0  0
   11.0210   -1.5060   23.5860 C   0  0  0  0  0  0  0  0  0  0  0  0
   10.8900   -0.2770   24.7770 C   0  0  1  0  0  0  0  0  0  0  0  0
    4.8170    1.2970   19.0970 C   0  0  0  0  0  0  0  0  0  0  0  0
    7.6330   -4.2720   28.0760 C   0  0  0  0  0  0  0  0  0  0  0  0
    9.4890   -5.6710   26.3930 C   0  0  0  0  0  0  0  0  0  0  0  0
    8.7150   -5.3290   27.4460 C   0  0  0  0  0  0  0  0  0  0  0  0
   12.1120   -1.2610   22.7430 C   0  0  1  0  0  0  0  0  0  0  0  0
   12.1210    0.6380   24.0450 C   0  0  0  0  0  0  0  0  0  0  0  0
   12.7990   -0.0810   23.1240 C   0  0  0  0  0  0  0  0  0  0  0  0
   12.6440   -1.2170   22.5020 C   0  0  0  0  0  0  0  0  0  0  0  0
   13.1760   -1.1740   22.2600 S   0  0  0  0  0  0  0  0  0  0  0  0
   12.9880   -0.6270   22.6920 C   0  0  0  0  0  0  0  0  0  0  0  0
  1  2  1  0
  1  3  2  0
  4  1  1  6
  4  5  1  0
  4  6  1  0
  4  7  1  0
  5  8  1  6
  6  9  1  0
  8  9  1  0
  5 10  1  0
  6 11  1  6
  7 12  2  0
 10 12  1  6
  8 13  1  0
 10 14  1  0
 11 15  1  0
 13 16  2  0
 13 17  1  0
 14 18  1  0
 14 19  1  1
 15 20  2  0
 15 21  1  0
 17 22  1  0
 17 23  1  0
 18 24  1  0
 19 25  1  0
 18 26  1  0
 21 27  2  0
 20 28  1  0
 24 29  1  0
 25 29  2  0
 26 30  1  0
 24 31  1  0
 26 32  1  6
 22 33  1  0
 34 23  1  6
 33 34  1  0
 27 35  1  0
 28 35  2  0
 30 36  1  1
 31 36  2  0
 32 37  2  0
 30 38  1  0
 37 38  1  0
 33 39  1  0
 34 40  1  0
 39 41  1  0
 40 41  1  0
 39 42  1  1
 42 43  2  0
 41 44  1  0
 43 44  2  0
M  END
