x1412_0-x1386_0-x1375_2
     RDKit          3D

 19 20  0  0  0  0  0  0  0  0999 V2000
    6.1750   -3.7830   22.0680 N   0  0  0  0  0  0  0  0  0  0  0  0
    6.5160   -4.1140   20.7610 C   0  0  0  0  0  0  0  0  0  0  0  0
    5.6840   -4.5370   19.9470 O   0  0  0  0  0  0  0  0  0  0  0  0
    6.7870   -2.5800   22.6810 C   0  0  0  0  0  0  0  0  0  0  0  0
    8.0280   -3.8470   20.5860 C   0  0  0  0  0  0  0  0  0  0  0  0
    7.0780   -2.7790   24.1710 C   0  0  0  0  0  0  0  0  0  0  0  0
    8.5270   -2.6320   24.6880 C   0  0  2  0  0  0  0  0  0  0  0  0
    8.6320   -1.5770   25.3120 O   0  0  0  0  0  0  0  0  0  0  0  0
    9.6560   -2.6730   23.5830 C   0  0  0  0  0  0  0  0  0  0  0  0
    8.7000   -3.6570   25.5460 C   0  0  0  0  0  0  0  0  0  0  0  0
    9.5850   -4.8980   25.4620 C   0  0  0  0  0  0  0  0  0  0  0  0
    7.8590   -3.8140   27.0720 S   0  0  0  0  0  0  0  0  0  0  0  0
   10.6730   -1.6610   23.5770 C   0  0  0  0  0  0  0  0  0  0  0  0
    9.5100   -5.7710   26.5190 C   0  0  0  0  0  0  0  0  0  0  0  0
    8.6320   -5.3790   27.5220 C   0  0  0  0  0  0  0  0  0  0  0  0
   11.7400   -1.6840   22.6870 C   0  0  0  0  0  0  0  0  0  0  0  0
   10.7850   -0.5300   24.3990 C   0  0  0  0  0  0  0  0  0  0  0  0
   12.6130   -0.6410   22.8150 C   0  0  0  0  0  0  0  0  0  0  0  0
   12.1330    0.4150   24.0510 S   0  0  0  0  0  0  0  0  0  0  0  0
  1  2  1  0
  2  3  2  0
  1  4  1  0
  2  5  1  0
  4  6  1  0
  6  7  1  0
  7  8  1  1
  7  9  1  0
  7 10  1  0
 10 11  2  0
 10 12  1  0
  9 13  1  0
 11 14  1  0
 12 15  1  0
 14 15  2  0
 13 16  1  0
 13 17  2  0
 16 18  2  0
 17 19  1  0
 18 19  1  0
M  END
