x1412_1-x1412_0-x0434_2-x0874_0-x0736_1-x1386_0
     RDKit          3D

 32 36  0  0  0  0  0  0  0  0999 V2000
    6.3420   -3.4230   19.8750 C   0  0  0  0  0  0  0  0  0  0  0  0
    7.3170   -3.0420   18.7640 C   0  0  0  0  0  0  0  0  0  0  0  0
    5.3420   -4.1140   19.6810 O   0  0  0  0  0  0  0  0  0  0  0  0
    6.6610   -3.0240   21.1510 N   0  0  0  0  0  0  0  0  0  0  0  0
    7.6670   -1.9560   21.2720 C   0  0  1  0  0  0  0  0  0  0  0  0
    6.6730   -4.1180   22.1670 C   0  0  0  0  0  0  0  0  0  0  0  0
    6.8800   -0.6970   21.3520 N   0  0  0  0  0  0  0  0  0  0  0  0
    8.5370   -2.1720   22.5130 C   0  0  0  0  0  0  0  0  0  0  0  0
    7.6850   -3.9610   23.3000 C   0  0  0  0  0  0  0  0  0  0  0  0
    7.8750   -2.7330   23.5550 N   0  0  0  0  0  0  0  0  0  0  0  0
    6.3550   -0.0280   20.2480 C   0  0  0  0  0  0  0  0  0  0  0  0
    8.6100   -2.6050   24.7940 C   0  0  2  0  0  0  0  0  0  0  0  0
    6.9900   -0.1130   18.9870 C   0  0  0  0  0  0  0  0  0  0  0  0
    5.0860    0.8300   20.2970 C   0  0  0  0  0  0  0  0  0  0  0  0
    8.4130   -1.3430   25.4210 O   0  0  0  0  0  0  0  0  0  0  0  0
   10.0720   -2.7590   24.2970 C   0  0  0  0  0  0  0  0  0  0  0  0
    8.5700   -3.7790   25.7830 C   0  0  0  0  0  0  0  0  0  0  0  0
    6.4480    0.6080   17.7870 N   0  0  0  0  0  0  0  0  0  0  0  0
    4.6240    1.4720   19.1610 C   0  0  0  0  0  0  0  0  0  0  0  0
    9.3450   -4.9130   25.6560 C   0  0  0  0  0  0  0  0  0  0  0  0
    7.6080   -3.8510   27.1570 S   0  0  0  0  0  0  0  0  0  0  0  0
    5.2380    1.3960   17.9530 C   0  0  0  0  0  0  0  0  0  0  0  0
   10.8190   -1.5070   23.9840 C   0  0  0  0  0  0  0  0  0  0  0  0
    9.3240   -6.0150   26.5960 C   0  0  0  0  0  0  0  0  0  0  0  0
    8.2730   -5.3700   27.5100 C   0  0  0  0  0  0  0  0  0  0  0  0
   12.2640   -1.6150   23.5900 C   0  0  0  0  0  0  0  0  0  0  0  0
   10.5170   -0.0660   24.0010 C   0  0  0  0  0  0  0  0  0  0  0  0
   13.1680   -0.4950   23.1980 C   0  0  2  0  0  0  0  0  0  0  0  0
   11.9510    0.6450   23.5440 S   0  0  0  0  0  0  0  0  0  0  0  0
   11.4800   -1.1170   23.5090 C   0  0  0  0  0  0  0  0  0  0  0  0
   13.2690   -1.2550   21.6140 S   0  0  0  0  0  0  0  0  0  0  0  0
   12.0520   -1.9700   22.5770 C   0  0  0  0  0  0  0  0  0  0  0  0
  1  2  1  0
  1  3  2  0
  1  4  1  0
  4  5  1  0
  4  6  1  0
  5  7  1  1
  5  8  1  0
  6  9  1  0
  8 10  1  0
  9 10  1  0
  7 11  1  0
 10 12  1  0
 11 13  2  0
 11 14  1  0
 12 15  1  1
 12 16  1  0
 12 17  1  0
 13 18  1  0
 14 19  2  0
 17 20  2  0
 17 21  1  0
 18 22  2  0
 19 22  1  0
 16 23  1  0
 20 24  1  0
 21 25  1  0
 24 25  2  0
 23 26  2  0
 23 27  1  0
 28 26  1  1
 27 29  2  0
 28 29  1  0
 29 30  1  0
 28 31  1  0
 30 32  2  0
 31 32  1  0
M  END
