x1412_1-x1412_0-x1334_1
     RDKit          3D

 16 17  0  0  0  0  0  0  0  0999 V2000
    6.3420   -3.3540   19.9300 C   0  0  0  0  0  0  0  0  0  0  0  0
    7.3330   -3.0260   18.8310 C   0  0  0  0  0  0  0  0  0  0  0  0
    5.3550   -4.0520   19.6770 O   0  0  0  0  0  0  0  0  0  0  0  0
    6.5650   -2.9330   21.2230 N   0  0  0  0  0  0  0  0  0  0  0  0
    7.5090   -1.8130   21.4710 C   0  0  0  0  0  0  0  0  0  0  0  0
    6.3200   -3.8630   22.3470 C   0  0  0  0  0  0  0  0  0  0  0  0
    8.7930   -2.1450   22.2510 C   0  0  0  0  0  0  0  0  0  0  0  0
    7.6300   -4.2260   23.0430 C   0  0  0  0  0  0  0  0  0  0  0  0
    8.3950   -2.9810   23.3730 N   0  0  0  0  0  0  0  0  0  0  0  0
    8.4940   -2.6710   24.7870 C   0  0  0  0  0  0  0  0  0  0  0  0
    8.5020   -1.2730   25.0810 O   0  0  0  0  0  0  0  0  0  0  0  0
    8.5640   -3.7690   25.7270 C   0  0  0  0  0  0  0  0  0  0  0  0
    9.4220   -4.9750   25.3660 C   0  0  0  0  0  0  0  0  0  0  0  0
    7.7630   -3.8830   27.2760 S   0  0  0  0  0  0  0  0  0  0  0  0
    9.3330   -5.9480   26.4860 C   0  0  0  0  0  0  0  0  0  0  0  0
    8.4580   -5.4930   27.6170 C   0  0  0  0  0  0  0  0  0  0  0  0
  1  2  1  0
  1  3  2  0
  1  4  1  0
  4  5  1  0
  4  6  1  0
  5  7  1  0
  6  8  1  0
  7  9  1  0
  8  9  1  0
  9 10  1  0
 10 11  2  0
 10 12  1  0
 12 13  2  0
 12 14  1  0
 13 15  1  0
 14 16  1  0
 15 16  2  0
M  END
