x1412_0-x1418_0-x0692_1
     RDKit          3D

 23 25  0  0  0  0  0  0  0  0999 V2000
    6.2230   -3.2880   19.8850 C   0  0  0  0  0  0  0  0  0  0  0  0
    7.1960   -2.9500   18.7620 C   0  0  0  0  0  0  0  0  0  0  0  0
    5.3630   -4.1620   19.7500 O   0  0  0  0  0  0  0  0  0  0  0  0
    6.3580   -2.5860   21.0900 N   0  0  0  0  0  0  0  0  0  0  0  0
    7.4260   -1.5910   21.2230 C   0  0  0  0  0  0  0  0  0  0  0  0
    5.8910   -3.1240   22.3620 C   0  0  0  0  0  0  0  0  0  0  0  0
    8.5300   -1.9830   22.2170 C   0  0  0  0  0  0  0  0  0  0  0  0
    6.8880   -3.7210   23.0360 C   0  0  0  0  0  0  0  0  0  0  0  0
    8.0880   -2.9300   23.2870 N   0  0  0  0  0  0  0  0  0  0  0  0
    8.4770   -2.6480   24.7090 C   0  0  2  0  0  0  0  0  0  0  0  0
    7.5760   -1.7420   25.2820 O   0  0  0  0  0  0  0  0  0  0  0  0
    9.8010   -2.0130   24.8310 C   0  0  0  0  0  0  0  0  0  0  0  0
    8.5620   -3.8300   25.6680 C   0  0  0  0  0  0  0  0  0  0  0  0
   10.7680   -2.5180   23.7750 C   0  0  0  0  0  0  0  0  0  0  0  0
    9.4530   -4.8770   25.5450 C   0  0  0  0  0  0  0  0  0  0  0  0
    7.5830   -4.0440   27.0690 S   0  0  0  0  0  0  0  0  0  0  0  0
    9.3350   -5.8420   26.5780 C   0  0  0  0  0  0  0  0  0  0  0  0
    8.3720   -5.4890   27.4370 C   0  0  0  0  0  0  0  0  0  0  0  0
   11.5850   -1.3360   23.4800 C   0  0  0  0  0  0  0  0  0  0  0  0
   12.7350   -1.2530   22.6520 C   0  0  0  0  0  0  0  0  0  0  0  0
   11.1160    0.1440   24.2250 S   0  0  0  0  0  0  0  0  0  0  0  0
   13.2000    0.0210   22.6510 C   0  0  0  0  0  0  0  0  0  0  0  0
   12.3900    0.9740   23.4990 C   0  0  0  0  0  0  0  0  0  0  0  0
  1  2  1  0
  1  3  2  0
  1  4  1  0
  4  5  1  0
  4  6  1  0
  5  7  1  0
  6  8  1  0
  7  9  1  0
  8  9  1  0
  9 10  1  0
 10 11  1  1
 10 12  1  0
 10 13  1  0
 12 14  1  0
 13 15  2  0
 13 16  1  0
 15 17  1  0
 16 18  1  0
 17 18  2  0
 14 19  1  0
 19 20  2  0
 19 21  1  0
 20 22  1  0
 21 23  1  0
 22 23  2  0
M  END
