x1412_1-x1385_1-x1334_0-x0692_1-x0397_0-x0434_2-x0831_0-x0770_1-x1334_1
     RDKit          3D

 34 38  0  0  0  0  0  0  0  0999 V2000
    6.3530   -3.4050   19.9130 C   0  0  0  0  0  0  0  0  0  0  0  0
    7.3490   -3.0780   18.8020 C   0  0  0  0  0  0  0  0  0  0  0  0
    5.4270   -4.2060   19.7690 O   0  0  0  0  0  0  0  0  0  0  0  0
    6.5570   -2.7540   21.1340 N   0  0  0  0  0  0  0  0  0  0  0  0
    7.6580   -1.7640   21.1690 C   0  0  1  0  0  0  0  0  0  0  0  0
    6.2580   -3.4390   22.4140 C   0  0  2  0  0  0  0  0  0  0  0  0
    7.1300   -0.4230   21.3440 N   0  0  0  0  0  0  0  0  0  0  0  0
    8.7290   -1.9860   22.2570 C   0  0  0  0  0  0  0  0  0  0  0  0
    7.6030   -3.7610   23.0880 C   0  0  0  0  0  0  0  0  0  0  0  0
    5.4860   -4.7360   22.3230 C   0  0  0  0  0  0  0  0  0  0  0  0
    8.2490   -2.5120   23.4190 N   0  0  0  0  0  0  0  0  0  0  0  0
    5.9400   -5.9340   22.9320 C   0  0  0  0  0  0  0  0  0  0  0  0
    6.0390   -6.1610   21.6920 C   0  0  0  0  0  0  0  0  0  0  0  0
    6.4550    0.1610   20.2850 C   0  0  0  0  0  0  0  0  0  0  0  0
    9.2970   -2.6790   24.4020 C   0  0  2  0  0  0  0  0  0  0  0  0
    6.9760   -0.0060   19.0050 C   0  0  0  0  0  0  0  0  0  0  0  0
    5.2890    0.9060   20.4320 C   0  0  0  0  0  0  0  0  0  0  0  0
   10.6930   -2.5990   23.8550 C   0  0  0  0  0  0  0  0  0  0  0  0
    9.1160   -3.8760   25.2920 C   0  0  0  0  0  0  0  0  0  0  0  0
    6.3770    0.5700   17.8050 N   0  0  0  0  0  0  0  0  0  0  0  0
    4.5950    1.5410   19.1920 C   0  0  0  0  0  0  0  0  0  0  0  0
    9.7930   -5.2280   25.3940 C   0  0  0  0  0  0  0  0  0  0  0  0
    7.8790   -3.8550   26.5640 S   0  0  0  0  0  0  0  0  0  0  0  0
   11.1300   -1.1590   23.7530 C   0  0  0  0  0  0  0  0  0  0  0  0
    5.2600    1.2970   17.8950 C   0  0  0  0  0  0  0  0  0  0  0  0
    9.2570   -5.9790   26.4110 C   0  0  0  0  0  0  0  0  0  0  0  0
    8.2300   -5.4240   27.1520 C   0  0  0  0  0  0  0  0  0  0  0  0
   10.4120   -0.1010   24.3710 C   0  0  0  0  0  0  0  0  0  0  0  0
   12.3540   -0.8530   22.9760 C   0  0  0  0  0  0  0  0  0  0  0  0
    7.3350   -6.0450   28.4620 Cl  0  0  0  0  0  0  0  0  0  0  0  0
   13.1230   -1.9340   22.2960 C   0  0  0  0  0  0  0  0  0  0  0  0
   10.8760    1.1920   24.2300 C   0  0  0  0  0  0  0  0  0  0  0  0
   12.8070    0.4560   22.8600 C   0  0  0  0  0  0  0  0  0  0  0  0
   12.1710    1.5510   23.4260 C   0  0  0  0  0  0  0  0  0  0  0  0
  1  2  1  0
  1  3  2  0
  1  4  1  0
  4  5  1  0
  4  6  1  0
  5  7  1  1
  5  8  1  0
  6  9  1  0
  6 10  1  6
  8 11  1  0
  9 11  1  0
 10 12  1  0
 10 13  1  0
 12 13  1  0
  7 14  1  0
 11 15  1  0
 14 16  2  0
 14 17  1  0
 15 18  1  6
 15 19  1  0
 16 20  1  0
 17 21  2  0
 19 22  2  0
 19 23  1  0
 18 24  1  0
 20 25  2  0
 21 25  1  0
 22 26  1  0
 23 27  1  0
 26 27  2  0
 24 28  2  0
 24 29  1  0
 27 30  1  0
 29 31  1  0
 28 32  1  0
 29 33  2  0
 32 34  2  0
 33 34  1  0
M  END
