x1412_0-x0831_0-x1418_0-x0434_2-x0981_1-x1334_1
     RDKit          3D

 45 49  0  0  0  0  0  0  0  0999 V2000
    4.1600   -5.3550   23.3110 C   0  0  0  0  0  0  0  0  0  0  0  0
    2.7580   -6.0250   23.5280 C   0  0  1  0  0  0  0  0  0  0  0  0
    2.5870   -7.2180   22.7010 N   0  0  0  0  0  0  0  0  0  0  0  0
    4.4930   -3.9620   23.6930 N   0  0  0  0  0  0  0  0  0  0  0  0
    2.5310   -6.3170   25.0310 C   0  0  0  0  0  0  0  0  0  0  0  0
    5.7990   -3.3000   23.5450 C   0  0  0  0  0  0  0  0  0  0  0  0
    1.3610   -7.4610   22.1180 C   0  0  0  0  0  0  0  0  0  0  0  0
    3.0390   -7.7320   25.2890 C   0  0  0  0  0  0  0  0  0  0  0  0
    6.6080   -3.8040   22.3420 C   0  0  1  0  0  0  0  0  0  0  0  0
    1.2450   -8.7450   21.3390 C   0  0  0  0  0  0  0  0  0  0  0  0
    0.4290   -6.6680   22.2080 O   0  0  0  0  0  0  0  0  0  0  0  0
    2.4350   -8.4220   26.2970 N   0  0  0  0  0  0  0  0  0  0  0  0
    3.9380   -8.2030   24.6340 O   0  0  0  0  0  0  0  0  0  0  0  0
    6.6200   -2.8770   21.1860 N   0  0  0  0  0  0  0  0  0  0  0  0
    7.8760   -3.9580   22.7530 C   0  0  0  0  0  0  0  0  0  0  0  0
    6.3500   -3.3460   19.9180 C   0  0  0  0  0  0  0  0  0  0  0  0
    8.4690   -2.7730   23.2270 C   0  0  1  0  0  0  0  0  0  0  0  0
    7.5670   -1.7000   21.3120 C   0  0  1  0  0  0  0  0  0  0  0  0
    7.3260   -3.0290   18.8030 C   0  0  0  0  0  0  0  0  0  0  0  0
    5.3690   -4.0670   19.6960 O   0  0  0  0  0  0  0  0  0  0  0  0
    8.2110   -2.6160   24.7850 C   0  0  2  0  0  0  0  0  0  0  0  0
    9.8210   -2.9250   23.2590 C   0  0  0  0  0  0  0  0  0  0  0  0
    6.6320   -0.5770   21.2630 N   0  0  0  0  0  0  0  0  0  0  0  0
    8.1010   -1.5990   22.5970 C   0  0  0  0  0  0  0  0  0  0  0  0
    7.1330   -2.1030   25.0680 O   0  0  0  0  0  0  0  0  0  0  0  0
   10.3520   -2.0200   24.4000 C   0  0  2  0  0  0  0  0  0  0  0  0
    9.1440   -1.4580   25.0370 C   0  0  0  0  0  0  0  0  0  0  0  0
    8.4370   -3.8120   25.7010 C   0  0  0  0  0  0  0  0  0  0  0  0
    6.1690    0.0640   20.1310 C   0  0  0  0  0  0  0  0  0  0  0  0
    9.4430   -4.7970   25.4040 C   0  0  0  0  0  0  0  0  0  0  0  0
    7.5450   -4.0810   27.1190 S   0  0  0  0  0  0  0  0  0  0  0  0
   11.1810   -0.8260   23.8860 C   0  0  0  0  0  0  0  0  0  0  0  0
    6.8480   -0.0050   18.9030 C   0  0  0  0  0  0  0  0  0  0  0  0
    5.0450    0.7730   20.1990 C   0  0  0  0  0  0  0  0  0  0  0  0
    9.4990   -5.7940   26.3370 C   0  0  0  0  0  0  0  0  0  0  0  0
    8.4520   -5.4910   27.3830 C   0  0  0  0  0  0  0  0  0  0  0  0
   10.7170    0.4080   24.2910 C   0  0  0  0  0  0  0  0  0  0  0  0
   12.3420   -0.8550   23.0710 C   0  0  0  0  0  0  0  0  0  0  0  0
    6.4300    0.6160   17.7690 N   0  0  0  0  0  0  0  0  0  0  0  0
    4.6040    1.4110   19.0600 C   0  0  0  0  0  0  0  0  0  0  0  0
   13.0080   -2.0610   22.5110 C   0  0  0  0  0  0  0  0  0  0  0  0
   11.3040    1.5880   23.9590 C   0  0  0  0  0  0  0  0  0  0  0  0
   12.9580    0.3540   22.7370 C   0  0  0  0  0  0  0  0  0  0  0  0
    5.2920    1.3340   17.8620 C   0  0  0  0  0  0  0  0  0  0  0  0
   12.4650    1.5740   23.1620 C   0  0  0  0  0  0  0  0  0  0  0  0
  2  1  1  1
  2  3  1  0
  1  4  2  3
  2  5  1  0
  4  6  1  0
  3  7  1  0
  5  8  1  0
  9  6  1  1
  7 10  1  0
  7 11  2  0
  8 12  1  0
  8 13  2  0
  9 14  1  0
  9 15  1  0
 14 16  1  0
 17 15  1  6
 14 18  1  0
 16 19  1  0
 16 20  2  0
 17 21  1  0
 17 22  1  0
 18 23  1  1
 17 24  1  0
 18 24  1  0
 21 25  1  6
 22 26  1  0
 21 27  1  0
 26 27  1  0
 21 28  1  0
 23 29  1  0
 28 30  2  0
 28 31  1  0
 26 32  1  6
 29 33  2  0
 29 34  1  0
 30 35  1  0
 31 36  1  0
 35 36  2  0
 32 37  2  0
 32 38  1  0
 33 39  1  0
 34 40  2  0
 38 41  1  0
 37 42  1  0
 38 43  2  0
 39 44  2  0
 40 44  1  0
 42 45  2  0
 43 45  1  0
M  END
