x1418_1-x0831_1-x0831_0-x1334_1-x0692_1-x0397_0-x1385_1-x1374_1-x0434_2-x1334_0-x0770_1
     RDKit          3D

 39 43  0  0  0  0  0  0  0  0999 V2000
    6.4840   -3.1510   19.8010 C   0  0  0  0  0  0  0  0  0  0  0  0
    7.4460   -2.9430   18.6660 C   0  0  0  0  0  0  0  0  0  0  0  0
    5.4600   -3.8390   19.6110 O   0  0  0  0  0  0  0  0  0  0  0  0
    6.8190   -2.6640   21.0840 N   0  0  0  0  0  0  0  0  0  0  0  0
    7.1920   -3.6940   22.0960 C   0  0  1  0  0  0  0  0  0  0  0  0
    7.8240   -1.5500   21.0840 C   0  0  2  0  0  0  0  0  0  0  0  0
    7.7220   -3.2520   23.4740 C   0  0  0  0  0  0  0  0  0  0  0  0
    8.0430   -1.0790   22.5060 C   0  0  0  0  0  0  0  0  0  0  0  0
    6.0800   -4.6430   22.2810 C   0  0  2  0  0  0  0  0  0  0  0  0
    7.5600   -0.1830   20.5310 C   0  0  0  0  0  0  0  0  0  0  0  0
    8.5530   -2.0480   23.4510 N   0  0  0  0  0  0  0  0  0  0  0  0
    6.0970   -5.6310   23.2680 C   0  0  2  0  0  0  0  0  0  0  0  0
    6.2540   -6.2710   22.1720 C   0  0  0  0  0  0  0  0  0  0  0  0
    7.1160    0.0340   19.1290 C   0  0  0  0  0  0  0  0  0  0  0  0
    9.8890   -2.2790   23.3350 C   0  0  2  0  0  0  0  0  0  0  0  0
    6.2400    0.5450   20.1470 C   0  0  0  0  0  0  0  0  0  0  0  0
    6.3150    0.4720   17.9120 N   0  0  0  0  0  0  0  0  0  0  0  0
    5.0270   -5.9930   24.2330 C   0  0  0  0  0  0  0  0  0  0  0  0
   10.4900   -3.1680   24.3780 C   0  0  0  0  0  0  0  0  0  0  0  0
   10.6590   -0.9550   23.3840 C   0  0  0  0  0  0  0  0  0  0  0  0
    5.0530    1.2050   17.8930 C   0  0  0  0  0  0  0  0  0  0  0  0
    5.0230    1.2360   20.1210 C   0  0  0  0  0  0  0  0  0  0  0  0
    4.3960   -7.1730   23.8280 C   0  0  0  0  0  0  0  0  0  0  0  0
   10.0670    0.2690   23.9180 C   0  0  0  0  0  0  0  0  0  0  0  0
   12.0030   -0.9570   22.8760 C   0  0  0  0  0  0  0  0  0  0  0  0
    9.7100   -4.1280   25.2860 C   0  0  0  0  0  0  0  0  0  0  0  0
    4.4240    1.5720   18.9830 C   0  0  0  0  0  0  0  0  0  0  0  0
    3.9700   -7.9450   24.9360 O   0  0  0  0  0  0  0  0  0  0  0  0
   12.6500   -2.1710   22.3070 C   0  0  0  0  0  0  0  0  0  0  0  0
   10.8170    1.4600   23.9430 C   0  0  0  0  0  0  0  0  0  0  0  0
   12.8340    0.3130   22.8940 C   0  0  0  0  0  0  0  0  0  0  0  0
   10.0020   -5.4300   25.4440 C   0  0  0  0  0  0  0  0  0  0  0  0
    8.3730   -3.6630   26.2480 S   0  0  0  0  0  0  0  0  0  0  0  0
    2.5600   -8.0400   24.9650 C   0  0  0  0  0  0  0  0  0  0  0  0
   12.2490    1.5400   23.4270 C   0  0  0  0  0  0  0  0  0  0  0  0
    9.0950   -6.0440   26.4340 C   0  0  0  0  0  0  0  0  0  0  0  0
    8.2060   -5.2090   26.9290 C   0  0  0  0  0  0  0  0  0  0  0  0
    2.0120   -7.1820   23.9840 O   0  0  0  0  0  0  0  0  0  0  0  0
    7.0150   -5.5590   28.1050 Cl  0  0  0  0  0  0  0  0  0  0  0  0
  1  2  1  0
  1  3  2  0
  1  4  1  0
  4  5  1  0
  4  6  1  0
  5  7  1  1
  6  8  1  0
  5  9  1  0
  6 10  1  6
  7 11  1  0
  8 11  1  0
  9 12  1  0
  9 13  1  6
 12 13  1  0
 10 14  1  0
 11 15  1  0
 14 16  2  0
 14 17  1  0
 12 18  1  6
 15 19  1  1
 15 20  1  0
 17 21  2  0
 16 22  1  0
 18 23  1  0
 20 24  2  0
 20 25  1  0
 19 26  1  0
 21 27  1  0
 22 27  2  0
 23 28  1  0
 25 29  1  0
 24 30  1  0
 25 31  2  0
 26 32  2  0
 26 33  1  0
 28 34  1  0
 30 35  2  0
 31 35  1  0
 32 36  1  0
 33 37  1  0
 36 37  2  0
 34 38  1  0
 37 39  1  0
M  END
