x1412_0-x0736_1-x1334_1-x0434_2
     RDKit          3D

 23 25  0  0  0  0  0  0  0  0999 V2000
    6.4190   -3.3790   19.8570 C   0  0  0  0  0  0  0  0  0  0  0  0
    7.4140   -3.0440   18.7500 C   0  0  0  0  0  0  0  0  0  0  0  0
    5.4320   -4.0970   19.6870 O   0  0  0  0  0  0  0  0  0  0  0  0
    6.6720   -2.8770   21.0980 N   0  0  0  0  0  0  0  0  0  0  0  0
    7.7340   -1.8930   21.3890 C   0  0  1  0  0  0  0  0  0  0  0  0
    6.2130   -3.6870   22.2420 C   0  0  0  0  0  0  0  0  0  0  0  0
    7.1510   -0.5560   21.4570 N   0  0  0  0  0  0  0  0  0  0  0  0
    8.5840   -2.1710   22.6350 C   0  0  0  0  0  0  0  0  0  0  0  0
    7.2650   -4.0180   23.2910 C   0  0  0  0  0  0  0  0  0  0  0  0
    7.7870   -2.7290   23.7160 N   0  0  0  0  0  0  0  0  0  0  0  0
    6.4460    0.0990   20.3320 C   0  0  0  0  0  0  0  0  0  0  0  0
    8.3750   -2.6050   25.0140 C   0  0  0  0  0  0  0  0  0  0  0  0
    7.0170   -0.0500   18.9220 C   0  0  0  0  0  0  0  0  0  0  0  0
    5.1980    0.9180   20.4590 C   0  0  0  0  0  0  0  0  0  0  0  0
    8.6180   -1.4430   25.3370 O   0  0  0  0  0  0  0  0  0  0  0  0
    8.5940   -3.8630   25.7820 C   0  0  0  0  0  0  0  0  0  0  0  0
    6.4280    0.5700   17.7240 N   0  0  0  0  0  0  0  0  0  0  0  0
    4.6020    1.5190   19.3390 C   0  0  0  0  0  0  0  0  0  0  0  0
    9.3710   -4.9520   25.4390 C   0  0  0  0  0  0  0  0  0  0  0  0
    7.8330   -4.0820   27.3070 S   0  0  0  0  0  0  0  0  0  0  0  0
    5.2100    1.3660   17.9110 C   0  0  0  0  0  0  0  0  0  0  0  0
    9.3450   -5.9590   26.4330 C   0  0  0  0  0  0  0  0  0  0  0  0
    8.5500   -5.6170   27.5030 C   0  0  0  0  0  0  0  0  0  0  0  0
  1  2  1  0
  1  3  2  0
  1  4  1  0
  4  5  1  0
  4  6  1  0
  5  7  1  1
  5  8  1  0
  6  9  1  0
  8 10  1  0
  9 10  1  0
  7 11  1  0
 10 12  1  0
 11 13  2  0
 11 14  1  0
 12 15  2  0
 12 16  1  0
 13 17  1  0
 14 18  2  0
 16 19  2  0
 16 20  1  0
 17 21  2  0
 18 21  1  0
 19 22  1  0
 20 23  1  0
 22 23  2  0
M  END
