x1412_0-x0981_1-x1412_1-x0434_2-x0874_0-x1334_1
     RDKit          3D

 45 48  0  0  0  0  0  0  0  0999 V2000
    4.0150   -5.9750   23.0240 C   0  0  0  0  0  0  0  0  0  0  0  0
    2.5890   -6.2140   23.5410 C   0  0  1  0  0  0  0  0  0  0  0  0
    2.2700   -7.4530   22.8590 N   0  0  0  0  0  0  0  0  0  0  0  0
    4.6270   -4.7960   22.4560 N   0  0  0  0  0  0  0  0  0  0  0  0
    2.5330   -6.3360   25.0780 C   0  0  0  0  0  0  0  0  0  0  0  0
    5.9970   -5.0450   22.0600 C   0  0  0  0  0  0  0  0  0  0  0  0
    1.1630   -7.5220   22.0670 C   0  0  0  0  0  0  0  0  0  0  0  0
    3.0380   -7.7420   25.3750 C   0  0  0  0  0  0  0  0  0  0  0  0
    6.7500   -3.7530   22.3020 C   0  0  2  0  0  0  0  0  0  0  0  0
    1.1080   -8.7620   21.2220 C   0  0  0  0  0  0  0  0  0  0  0  0
    0.3040   -6.6460   22.0390 O   0  0  0  0  0  0  0  0  0  0  0  0
    2.4310   -8.4000   26.4020 N   0  0  0  0  0  0  0  0  0  0  0  0
    3.9280   -8.2290   24.7190 O   0  0  0  0  0  0  0  0  0  0  0  0
    6.8790   -2.9120   21.2020 C   0  0  0  0  0  0  0  0  0  0  0  0
    7.9190   -4.1520   22.7380 C   0  0  0  0  0  0  0  0  0  0  0  0
    6.8780   -3.6030   19.8900 C   0  0  0  0  0  0  0  0  0  0  0  0
    5.5130   -2.6720   20.6490 C   0  0  0  0  0  0  0  0  0  0  0  0
    8.5080   -2.9300   23.2070 N   0  0  0  0  0  0  0  0  0  0  0  0
    7.8230   -1.8840   21.1370 C   0  0  1  0  0  0  0  0  0  0  0  0
    7.7070   -3.1780   18.7240 C   0  0  0  0  0  0  0  0  0  0  0  0
    6.0820   -4.5350   19.8260 O   0  0  0  0  0  0  0  0  0  0  0  0
    5.3500   -1.9850   19.3020 C   0  0  0  0  0  0  0  0  0  0  0  0
    4.6120   -3.1780   21.2910 O   0  0  0  0  0  0  0  0  0  0  0  0
    8.6330   -2.6870   24.5750 C   0  0  0  0  0  0  0  0  0  0  0  0
    7.1060   -0.6080   21.3590 N   0  0  0  0  0  0  0  0  0  0  0  0
    8.8440   -1.9610   22.1220 C   0  0  0  0  0  0  0  0  0  0  0  0
    8.7040   -1.2990   25.0100 N   0  0  0  0  0  0  0  0  0  0  0  0
    8.6980   -3.8080   25.5090 C   0  0  0  0  0  0  0  0  0  0  0  0
    6.4910    0.0370   20.2410 C   0  0  0  0  0  0  0  0  0  0  0  0
    8.6450   -0.3840   23.8430 C   0  0  0  0  0  0  0  0  0  0  0  0
    9.4850   -5.0090   25.3320 C   0  0  0  0  0  0  0  0  0  0  0  0
    7.7930   -3.7480   26.9530 S   0  0  0  0  0  0  0  0  0  0  0  0
    7.0080   -0.0430   18.9630 C   0  0  0  0  0  0  0  0  0  0  0  0
    5.3200    0.7930   20.3790 C   0  0  0  0  0  0  0  0  0  0  0  0
    9.7460    0.4790   23.9370 C   0  0  0  0  0  0  0  0  0  0  0  0
    9.3600   -5.8850   26.3770 C   0  0  0  0  0  0  0  0  0  0  0  0
    8.4120   -5.2710   27.3790 C   0  0  0  0  0  0  0  0  0  0  0  0
    6.4660    0.5560   17.8730 N   0  0  0  0  0  0  0  0  0  0  0  0
    4.7250    1.4220   19.2830 C   0  0  0  0  0  0  0  0  0  0  0  0
    5.3420    1.2750   18.0430 C   0  0  0  0  0  0  0  0  0  0  0  0
   11.0380    0.0130   23.2950 C   0  0  0  0  0  0  0  0  0  0  0  0
   12.2230    0.7510   23.3190 C   0  0  0  0  0  0  0  0  0  0  0  0
   11.3030   -1.1430   22.6040 C   0  0  0  0  0  0  0  0  0  0  0  0
   13.2380    0.0760   22.6530 C   0  0  0  0  0  0  0  0  0  0  0  0
   12.8750   -1.4560   21.9620 S   0  0  0  0  0  0  0  0  0  0  0  0
  2  1  1  1
  2  3  1  0
  1  4  2  3
  2  5  1  0
  4  6  1  0
  3  7  1  0
  5  8  1  0
  9  6  1  6
  7 10  1  0
  7 11  2  0
  8 12  1  0
  8 13  2  0
  9 14  1  0
  9 15  1  0
 14 16  1  0
 14 17  1  0
 15 18  1  0
 14 19  1  0
 16 20  1  0
 16 21  2  0
 17 22  1  0
 17 23  2  0
 18 24  1  0
 19 25  1  1
 18 26  1  0
 19 26  1  0
 24 27  2  3
 24 28  1  0
 25 29  1  0
 27 30  1  0
 28 31  2  0
 28 32  1  0
 29 33  2  0
 29 34  1  0
 30 35  1  0
 31 36  1  0
 32 37  1  0
 36 37  2  0
 33 38  1  0
 34 39  2  0
 38 40  2  0
 39 40  1  0
 35 41  1  0
 41 42  1  0
 41 43  2  0
 42 44  2  0
 43 45  1  0
 44 45  1  0
M  END
