x1418_1-x0831_0-x0734_0-x1385_1-x0692_1-x0831_1-x0397_0
     RDKit          3D

 30 33  0  0  0  0  0  0  0  0999 V2000
    6.2310   -3.2250   19.8590 C   0  0  0  0  0  0  0  0  0  0  0  0
    7.1940   -2.9530   18.7190 C   0  0  0  0  0  0  0  0  0  0  0  0
    5.3510   -4.0720   19.6840 O   0  0  0  0  0  0  0  0  0  0  0  0
    6.3710   -2.5530   21.0960 N   0  0  0  0  0  0  0  0  0  0  0  0
    6.4330   -3.2760   22.3780 C   0  0  2  0  0  0  0  0  0  0  0  0
    7.3100   -1.3700   21.0580 C   0  0  0  0  0  0  0  0  0  0  0  0
    7.9390   -3.4430   22.7700 C   0  0  0  0  0  0  0  0  0  0  0  0
    8.7020   -1.5460   21.6920 C   0  0  0  0  0  0  0  0  0  0  0  0
    5.6220   -4.6160   22.3090 C   0  0  2  0  0  0  0  0  0  0  0  0
    8.6260   -2.1490   22.9130 N   0  0  0  0  0  0  0  0  0  0  0  0
    5.7700   -5.3760   23.3030 C   0  0  2  0  0  0  0  0  0  0  0  0
    6.2950   -6.0000   22.0810 C   0  0  0  0  0  0  0  0  0  0  0  0
    4.6280   -6.1480   24.0300 C   0  0  0  0  0  0  0  0  0  0  0  0
    9.9670   -2.3080   23.5220 C   0  0  0  0  0  0  0  0  0  0  0  0
    4.5690   -5.8600   25.4780 N   0  0  0  0  0  0  0  0  0  0  0  0
   10.7640   -1.0250   23.4690 C   0  0  0  0  0  0  0  0  0  0  0  0
    5.1930   -4.8210   25.8950 N   0  0  0  0  0  0  0  0  0  0  0  0
   10.2450    0.0930   24.1260 C   0  0  0  0  0  0  0  0  0  0  0  0
   12.0160   -0.9220   22.7810 C   0  0  0  0  0  0  0  0  0  0  0  0
    4.6240   -3.8430   26.4910 O   0  0  0  0  0  0  0  0  0  0  0  0
   12.6430   -2.0700   22.0420 C   0  0  0  0  0  0  0  0  0  0  0  0
    6.5380   -5.0360   26.1560 C   0  0  0  0  0  0  0  0  0  0  0  0
   10.9170    1.2950   24.1160 C   0  0  0  0  0  0  0  0  0  0  0  0
   12.7460    0.3690   22.7820 C   0  0  0  0  0  0  0  0  0  0  0  0
    7.6390   -4.6340   25.1690 C   0  0  0  0  0  0  0  0  0  0  0  0
    6.9530   -5.6380   27.3470 C   0  0  0  0  0  0  0  0  0  0  0  0
   12.1350    1.5800   23.5080 C   0  0  0  0  0  0  0  0  0  0  0  0
    8.9920   -4.8610   25.4280 C   0  0  0  0  0  0  0  0  0  0  0  0
    8.3160   -5.8470   27.5670 C   0  0  0  0  0  0  0  0  0  0  0  0
    9.2850   -5.4760   26.6400 C   0  0  0  0  0  0  0  0  0  0  0  0
  1  2  1  0
  1  3  2  0
  1  4  1  0
  4  5  1  0
  4  6  1  0
  5  7  1  6
  6  8  1  0
  5  9  1  0
  7 10  1  0
  8 10  1  0
  9 11  1  0
  9 12  1  6
 11 12  1  0
 11 13  1  6
 10 14  1  0
 13 15  1  0
 14 16  1  0
 15 17  2  3
 16 18  2  0
 16 19  1  0
 17 20  1  0
 19 21  1  0
 17 22  1  0
 18 23  1  0
 19 24  2  0
 22 25  2  0
 22 26  1  0
 23 27  2  0
 24 27  1  0
 25 28  1  0
 26 29  2  0
 28 30  2  0
 29 30  1  0
M  CHG  2  17   1  20  -1
M  END
