x1418_1-x0981_1-x0874_0-x0387_0-x1412_0
     RDKit          3D

 34 36  0  0  0  0  0  0  0  0999 V2000
    4.0100   -5.2060   23.1990 C   0  0  0  0  0  0  0  0  0  0  0  0
    2.7420   -5.9940   23.5540 C   0  0  1  0  0  0  0  0  0  0  0  0
    2.5250   -7.2590   22.8220 N   0  0  0  0  0  0  0  0  0  0  0  0
    4.2130   -3.9760   23.5800 N   0  0  0  0  0  0  0  0  0  0  0  0
    2.7700   -6.2550   25.0590 C   0  0  0  0  0  0  0  0  0  0  0  0
    5.3480   -3.0780   23.3110 C   0  0  0  0  0  0  0  0  0  0  0  0
    1.3440   -7.4530   22.1260 C   0  0  0  0  0  0  0  0  0  0  0  0
    3.1580   -7.6780   25.2890 C   0  0  0  0  0  0  0  0  0  0  0  0
    6.4070   -3.6780   22.3590 C   0  0  2  0  0  0  0  0  0  0  0  0
    1.2510   -8.7400   21.3440 C   0  0  0  0  0  0  0  0  0  0  0  0
    0.4340   -6.6320   22.1260 O   0  0  0  0  0  0  0  0  0  0  0  0
    2.4950   -8.3470   26.2790 N   0  0  0  0  0  0  0  0  0  0  0  0
    4.0230   -8.1880   24.6120 O   0  0  0  0  0  0  0  0  0  0  0  0
    7.7200   -3.9520   23.1100 C   0  0  0  0  0  0  0  0  0  0  0  0
    6.6360   -2.8130   21.1960 N   0  0  0  0  0  0  0  0  0  0  0  0
    6.3760   -3.2950   19.8970 C   0  0  0  0  0  0  0  0  0  0  0  0
    8.6660   -2.8010   23.1710 N   0  0  0  0  0  0  0  0  0  0  0  0
    7.4730   -1.6100   21.4310 C   0  0  0  0  0  0  0  0  0  0  0  0
    7.3750   -2.9670   18.8030 C   0  0  0  0  0  0  0  0  0  0  0  0
    5.3970   -4.0110   19.6820 O   0  0  0  0  0  0  0  0  0  0  0  0
    8.7270   -2.2310   24.5520 C   0  0  2  0  0  0  0  0  0  0  0  0
    8.7330   -1.9210   21.9510 C   0  0  0  0  0  0  0  0  0  0  0  0
    7.6890   -1.7280   24.9990 O   0  0  0  0  0  0  0  0  0  0  0  0
    9.9380   -1.2980   24.7140 C   0  0  0  0  0  0  0  0  0  0  0  0
    8.7380   -3.4210   25.5320 C   0  0  0  0  0  0  0  0  0  0  0  0
    9.7040   -4.4390   25.5160 C   0  0  0  0  0  0  0  0  0  0  0  0
    7.5870   -3.7270   26.8020 S   0  0  0  0  0  0  0  0  0  0  0  0
   11.1410   -1.1700   23.7860 C   0  0  0  0  0  0  0  0  0  0  0  0
    9.5360   -5.4220   26.4580 C   0  0  0  0  0  0  0  0  0  0  0  0
    8.4520   -5.2160   27.2560 C   0  0  0  0  0  0  0  0  0  0  0  0
   12.0180   -0.0910   23.8460 C   0  0  0  0  0  0  0  0  0  0  0  0
   11.5600   -2.0430   22.7850 C   0  0  0  0  0  0  0  0  0  0  0  0
   13.0590   -0.1050   22.9610 C   0  0  0  0  0  0  0  0  0  0  0  0
   12.9940   -1.5120   21.9820 S   0  0  0  0  0  0  0  0  0  0  0  0
  2  1  1  6
  2  3  1  0
  1  4  2  3
  2  5  1  0
  4  6  1  0
  3  7  1  0
  5  8  1  0
  9  6  1  1
  7 10  1  0
  7 11  2  0
  8 12  1  0
  8 13  2  0
  9 14  1  0
  9 15  1  0
 15 16  1  0
 14 17  1  0
 15 18  1  0
 16 19  1  0
 16 20  2  0
 17 21  1  0
 17 22  1  0
 18 22  1  0
 21 23  1  1
 21 24  1  0
 21 25  1  0
 25 26  2  0
 25 27  1  0
 24 28  1  0
 26 29  1  0
 27 30  1  0
 29 30  2  0
 28 31  1  0
 28 32  2  0
 31 33  2  0
 32 34  1  0
 33 34  1  0
M  END
