x1418_0-x1425_1
     RDKit          3D

 16 17  0  0  0  0  0  0  0  0999 V2000
    6.5150   -4.0330   20.2510 C   0  0  0  0  0  0  0  0  0  0  0  0
    7.3380   -3.2090   19.2700 C   0  0  0  0  0  0  0  0  0  0  0  0
    5.3940   -4.4200   19.8810 O   0  0  0  0  0  0  0  0  0  0  0  0
    7.0190   -4.4900   21.4870 N   0  0  0  0  0  0  0  0  0  0  0  0
    7.6100   -3.5700   22.4900 C   0  0  1  0  0  0  0  0  0  0  0  0
    6.3970   -5.6000   22.2400 C   0  0  0  0  0  0  0  0  0  0  0  0
    8.7760   -2.7650   22.2210 C   0  0  0  0  0  0  0  0  0  0  0  0
    6.4630   -2.8170   23.1460 C   0  0  0  0  0  0  0  0  0  0  0  0
    5.2520   -5.0030   23.1560 C   0  0  0  0  0  0  0  0  0  0  0  0
    9.7680   -2.8070   23.4250 C   0  0  0  0  0  0  0  0  0  0  0  0
    5.5300   -3.7150   23.8520 N   0  0  0  0  0  0  0  0  0  0  0  0
   10.7770   -1.6850   23.3550 C   0  0  0  0  0  0  0  0  0  0  0  0
   11.8740   -1.4950   22.5190 C   0  0  0  0  0  0  0  0  0  0  0  0
   10.7040   -0.2580   24.5060 S   0  0  0  0  0  0  0  0  0  0  0  0
   12.5630   -0.3520   22.7700 C   0  0  0  0  0  0  0  0  0  0  0  0
   12.0990    0.4440   23.7840 C   0  0  0  0  0  0  0  0  0  0  0  0
  1  2  1  0
  1  3  2  0
  1  4  1  0
  4  5  1  0
  4  6  1  0
  5  7  1  6
  5  8  1  0
  6  9  1  0
  7 10  1  0
  8 11  1  0
  9 11  1  0
 10 12  1  0
 12 13  2  0
 12 14  1  0
 13 15  1  0
 14 16  1  0
 15 16  2  0
M  END
