x1418_1-x1334_1-x1334_0-x0397_0-x0387_0
     RDKit          3D

 25 28  0  0  0  0  0  0  0  0999 V2000
    6.4010   -3.2160   19.8720 C   0  0  0  0  0  0  0  0  0  0  0  0
    7.4000   -2.9980   18.7530 C   0  0  0  0  0  0  0  0  0  0  0  0
    5.4460   -3.9870   19.6780 O   0  0  0  0  0  0  0  0  0  0  0  0
    6.6030   -2.5820   21.0950 N   0  0  0  0  0  0  0  0  0  0  0  0
    6.6390   -3.3450   22.3570 C   0  0  2  0  0  0  0  0  0  0  0  0
    7.5650   -1.4480   21.0980 C   0  0  0  0  0  0  0  0  0  0  0  0
    8.0700   -3.8840   22.5390 C   0  0  0  0  0  0  0  0  0  0  0  0
    8.8660   -1.6030   21.9500 C   0  0  0  0  0  0  0  0  0  0  0  0
    5.6920   -4.5340   22.3770 C   0  0  0  0  0  0  0  0  0  0  0  0
    8.9750   -2.7520   22.8840 N   0  0  0  0  0  0  0  0  0  0  0  0
    5.8980   -5.6830   23.1970 C   0  0  0  0  0  0  0  0  0  0  0  0
    6.1080   -6.1380   21.8700 C   0  0  0  0  0  0  0  0  0  0  0  0
    9.0630   -2.5220   24.3210 C   0  0  2  0  0  0  0  0  0  0  0  0
   10.1170   -1.4550   24.7960 C   0  0  0  0  0  0  0  0  0  0  0  0
    9.0510   -3.7010   25.1760 C   0  0  0  0  0  0  0  0  0  0  0  0
    9.7790   -4.8750   25.2490 C   0  0  0  0  0  0  0  0  0  0  0  0
    7.8730   -3.7530   26.4370 S   0  0  0  0  0  0  0  0  0  0  0  0
   11.2850   -1.2290   23.8270 C   0  0  0  0  0  0  0  0  0  0  0  0
    9.4050   -5.7360   26.2490 C   0  0  0  0  0  0  0  0  0  0  0  0
    8.3660   -5.2890   27.0140 C   0  0  0  0  0  0  0  0  0  0  0  0
   12.1050   -0.0530   23.8790 C   0  0  0  0  0  0  0  0  0  0  0  0
   11.7080   -2.0750   22.8160 C   0  0  0  0  0  0  0  0  0  0  0  0
    7.5560   -5.9840   28.3480 Cl  0  0  0  0  0  0  0  0  0  0  0  0
   13.1120   -0.0580   22.9130 C   0  0  0  0  0  0  0  0  0  0  0  0
   13.0590   -1.4720   21.9630 S   0  0  0  0  0  0  0  0  0  0  0  0
  1  2  1  0
  1  3  2  0
  1  4  1  0
  4  5  1  0
  4  6  1  0
  5  7  1  0
  6  8  1  0
  5  9  1  6
  7 10  1  0
  8 10  1  0
  9 11  1  0
  9 12  1  0
 11 12  1  0
 10 13  1  0
 13 14  1  6
 13 15  1  0
 15 16  2  0
 15 17  1  0
 14 18  1  0
 16 19  1  0
 17 20  1  0
 19 20  2  0
 18 21  1  0
 18 22  2  0
 20 23  1  0
 21 24  2  0
 22 25  1  0
 24 25  1  0
M  END
