x1412_1-x1374_1-x1385_1-x1334_0-x0831_0-x0397_0-x0770_1-x0692_1-x0831_1-x0434_2-x1334_1-x1386_1-x1418_1
     RDKit          3D

 39 43  0  0  0  0  0  0  0  0999 V2000
    2.6920   -7.3920   23.2770 O   0  0  0  0  0  0  0  0  0  0  0  0
    3.1310   -7.3030   24.6190 C   0  0  0  0  0  0  0  0  0  0  0  0
    4.4180   -7.8630   24.8110 O   0  0  0  0  0  0  0  0  0  0  0  0
    5.3620   -7.3850   23.8460 C   0  0  0  0  0  0  0  0  0  0  0  0
    5.9950   -6.2700   24.3340 C   0  0  0  0  0  0  0  0  0  0  0  0
    6.5130   -5.5610   23.1130 C   0  0  2  0  0  0  0  0  0  0  0  0
    5.7000   -4.5950   22.4360 C   0  0  2  0  0  0  0  0  0  0  0  0
    6.4010   -6.0190   21.9020 C   0  0  0  0  0  0  0  0  0  0  0  0
    6.1950   -3.1430   22.3790 C   0  0  2  0  0  0  0  0  0  0  0  0
    6.9480   -2.9170   21.1460 N   0  0  0  0  0  0  0  0  0  0  0  0
    6.9240   -2.7790   23.5320 C   0  0  0  0  0  0  0  0  0  0  0  0
    6.5230   -3.3940   19.9090 C   0  0  0  0  0  0  0  0  0  0  0  0
    8.3300   -2.2600   23.4310 N   0  0  0  0  0  0  0  0  0  0  0  0
    7.6780   -1.6470   21.1200 C   0  0  1  0  0  0  0  0  0  0  0  0
    7.4060   -3.0620   18.7350 C   0  0  0  0  0  0  0  0  0  0  0  0
    5.5040   -4.0930   19.7360 O   0  0  0  0  0  0  0  0  0  0  0  0
    9.1970   -3.2810   23.5440 C   0  0  1  0  0  0  0  0  0  0  0  0
    6.6760   -0.5860   21.1890 N   0  0  0  0  0  0  0  0  0  0  0  0
    8.6590   -1.4600   22.2500 C   0  0  0  0  0  0  0  0  0  0  0  0
   10.6030   -2.8290   23.2290 C   0  0  0  0  0  0  0  0  0  0  0  0
    9.0470   -4.0880   24.8030 C   0  0  0  0  0  0  0  0  0  0  0  0
    6.2080    0.0650   20.0710 C   0  0  0  0  0  0  0  0  0  0  0  0
    9.7490   -5.2760   25.1540 C   0  0  0  0  0  0  0  0  0  0  0  0
    7.9020   -3.6880   26.1210 S   0  0  0  0  0  0  0  0  0  0  0  0
   11.0070   -1.3500   23.3750 C   0  0  0  0  0  0  0  0  0  0  0  0
    6.8560    0.0160   18.8280 C   0  0  0  0  0  0  0  0  0  0  0  0
    5.0390    0.8040   20.1880 C   0  0  0  0  0  0  0  0  0  0  0  0
    9.4410   -5.8580   26.3400 C   0  0  0  0  0  0  0  0  0  0  0  0
    8.3550   -5.0820   27.0770 C   0  0  0  0  0  0  0  0  0  0  0  0
   10.1600   -0.4250   24.2190 C   0  0  0  0  0  0  0  0  0  0  0  0
   12.1630   -0.8650   22.7420 C   0  0  0  0  0  0  0  0  0  0  0  0
    6.4150    0.6550   17.7230 N   0  0  0  0  0  0  0  0  0  0  0  0
    4.5850    1.4590   19.0490 C   0  0  0  0  0  0  0  0  0  0  0  0
    7.5940   -5.3770   28.5720 Cl  0  0  0  0  0  0  0  0  0  0  0  0
   12.9880   -1.7900   21.9110 C   0  0  0  0  0  0  0  0  0  0  0  0
   10.5130    0.8650   24.3610 C   0  0  0  0  0  0  0  0  0  0  0  0
   12.4960    0.4120   22.9010 C   0  0  0  0  0  0  0  0  0  0  0  0
    5.2890    1.3590   17.8720 C   0  0  0  0  0  0  0  0  0  0  0  0
   11.6480    1.3660   23.7470 C   0  0  0  0  0  0  0  0  0  0  0  0
  1  2  1  0
  2  3  1  0
  3  4  1  0
  4  5  1  0
  6  5  1  1
  6  7  1  0
  6  8  1  0
  7  8  1  6
  7  9  1  0
  9 10  1  0
  9 11  1  1
 10 12  1  0
 11 13  1  0
 10 14  1  0
 12 15  1  0
 12 16  2  0
 13 17  1  0
 14 18  1  1
 13 19  1  0
 14 19  1  0
 17 20  1  1
 17 21  1  0
 18 22  1  0
 21 23  2  0
 21 24  1  0
 20 25  1  0
 22 26  2  0
 22 27  1  0
 23 28  1  0
 24 29  1  0
 28 29  2  0
 25 30  2  0
 25 31  1  0
 26 32  1  0
 27 33  2  0
 29 34  1  0
 31 35  1  0
 30 36  1  0
 31 37  2  0
 32 38  2  0
 33 38  1  0
 36 39  2  0
 37 39  1  0
M  END
