x1412_1-x0831_1-x1334_1-x1385_1-x1418_1-x0770_1-x0397_0-x1334_0-x0692_1-x0831_0-x0434_2
     RDKit          3D

 34 38  0  0  0  0  0  0  0  0999 V2000
    6.3800   -3.3100   19.9060 C   0  0  0  0  0  0  0  0  0  0  0  0
    7.3840   -2.9680   18.8080 C   0  0  0  0  0  0  0  0  0  0  0  0
    5.3760   -3.9910   19.6570 O   0  0  0  0  0  0  0  0  0  0  0  0
    6.6170   -2.9310   21.2360 N   0  0  0  0  0  0  0  0  0  0  0  0
    7.3930   -1.7290   21.7190 C   0  0  2  0  0  0  0  0  0  0  0  0
    6.9290   -4.1460   22.0240 C   0  0  1  0  0  0  0  0  0  0  0  0
    7.6360   -0.7560   20.6840 N   0  0  0  0  0  0  0  0  0  0  0  0
    8.8680   -2.0920   22.1180 C   0  0  0  0  0  0  0  0  0  0  0  0
    7.5980   -3.7670   23.3170 C   0  0  0  0  0  0  0  0  0  0  0  0
    5.6740   -4.8820   22.3180 C   0  0  0  0  0  0  0  0  0  0  0  0
    8.9150   -3.3320   22.9630 N   0  0  0  0  0  0  0  0  0  0  0  0
    5.5340   -5.7390   23.4630 C   0  0  0  0  0  0  0  0  0  0  0  0
    5.5940   -6.3550   22.1060 C   0  0  0  0  0  0  0  0  0  0  0  0
    6.6860   -0.0430   19.9630 C   0  0  0  0  0  0  0  0  0  0  0  0
    9.8170   -3.2490   24.0790 C   0  0  1  0  0  0  0  0  0  0  0  0
    6.9640    0.0750   18.5800 C   0  0  0  0  0  0  0  0  0  0  0  0
    5.5180    0.5620   20.4310 C   0  0  0  0  0  0  0  0  0  0  0  0
    9.7310   -1.7640   24.4860 C   0  0  0  0  0  0  0  0  0  0  0  0
    9.3620   -4.1700   25.2030 C   0  0  0  0  0  0  0  0  0  0  0  0
    6.2140    0.7200   17.6710 N   0  0  0  0  0  0  0  0  0  0  0  0
    4.7200    1.2440   19.4960 C   0  0  0  0  0  0  0  0  0  0  0  0
    9.8750   -5.4280   25.4180 C   0  0  0  0  0  0  0  0  0  0  0  0
    8.1150   -3.8520   26.4130 S   0  0  0  0  0  0  0  0  0  0  0  0
   10.7220   -0.6550   24.0010 C   0  0  0  0  0  0  0  0  0  0  0  0
    5.1150    1.2880   18.1670 C   0  0  0  0  0  0  0  0  0  0  0  0
    9.3190   -6.0880   26.4710 C   0  0  0  0  0  0  0  0  0  0  0  0
    8.3340   -5.3810   27.1360 C   0  0  0  0  0  0  0  0  0  0  0  0
   10.3360    0.5720   24.3450 C   0  0  0  0  0  0  0  0  0  0  0  0
   12.0640   -0.8800   23.1840 C   0  0  0  0  0  0  0  0  0  0  0  0
    7.3910   -5.8410   28.4800 Cl  0  0  0  0  0  0  0  0  0  0  0  0
   12.5740   -2.2210   22.7390 C   0  0  0  0  0  0  0  0  0  0  0  0
   11.1530    1.7630   23.9740 C   0  0  0  0  0  0  0  0  0  0  0  0
   12.8630    0.2720   22.8300 C   0  0  0  0  0  0  0  0  0  0  0  0
   12.4300    1.6100   23.2140 C   0  0  0  0  0  0  0  0  0  0  0  0
  1  2  1  0
  1  3  2  0
  1  4  1  0
  4  5  1  0
  4  6  1  0
  5  7  1  6
  5  8  1  0
  6  9  1  0
  6 10  1  1
  8 11  1  0
  9 11  1  0
 10 12  1  0
 10 13  1  0
 12 13  1  0
  7 14  1  0
 11 15  1  0
 14 16  2  0
 14 17  1  0
 15 18  1  1
 15 19  1  0
 16 20  1  0
 17 21  2  0
 19 22  2  0
 19 23  1  0
 18 24  1  0
 20 25  2  0
 21 25  1  0
 22 26  1  0
 23 27  1  0
 26 27  2  0
 24 28  2  0
 24 29  1  0
 27 30  1  0
 29 31  1  0
 28 32  1  0
 29 33  2  0
 32 34  2  0
 33 34  1  0
M  END
