x1412_1-x0978_0
     RDKit          3D

 11 11  0  0  0  0  0  0  0  0999 V2000
    6.3590   -3.3830   19.9030 C   0  0  0  0  0  0  0  0  0  0  0  0
    7.3320   -3.0060   18.8070 C   0  0  0  0  0  0  0  0  0  0  0  0
    5.3190   -3.9870   19.6300 O   0  0  0  0  0  0  0  0  0  0  0  0
    6.7250   -3.0780   21.2170 N   0  0  0  0  0  0  0  0  0  0  0  0
    7.5390   -1.8590   21.4630 C   0  0  0  0  0  0  0  0  0  0  0  0
    6.5640   -4.0400   22.3180 C   0  0  1  0  0  0  0  0  0  0  0  0
    6.2080   -5.4330   21.7360 C   0  0  0  0  0  0  0  0  0  0  0  0
    8.8160   -2.1600   22.2870 C   0  0  0  0  0  0  0  0  0  0  0  0
    7.7710   -4.1380   23.2660 C   0  0  0  0  0  0  0  0  0  0  0  0
    5.1990   -6.1630   22.5190 N   0  0  0  0  0  0  0  0  0  0  0  0
    8.4740   -2.8590   23.5460 N   0  0  0  0  0  0  0  0  0  0  0  0
  1  2  1  0
  1  3  2  0
  1  4  1  0
  4  5  1  0
  4  6  1  0
  6  7  1  6
  5  8  1  0
  6  9  1  0
  7 10  1  0
  8 11  1  0
  9 11  1  0
M  END
