x1412_1-x0874_0-x1392_0
     RDKit          3D

 19 21  0  0  0  0  0  0  0  0999 V2000
    5.6260   -4.1320   19.8170 O   0  0  0  0  0  0  0  0  0  0  0  0
    6.5850   -3.3560   20.0150 C   0  0  0  0  0  0  0  0  0  0  0  0
    7.4790   -3.0170   18.8300 C   0  0  0  0  0  0  0  0  0  0  0  0
    6.9160   -2.8060   21.2650 N   0  0  0  0  0  0  0  0  0  0  0  0
    8.1050   -1.9510   21.4910 C   0  0  0  0  0  0  0  0  0  0  0  0
    6.3530   -3.3270   22.5170 C   0  0  0  0  0  0  0  0  0  0  0  0
    9.3130   -2.5990   22.1860 C   0  0  2  0  0  0  0  0  0  0  0  0
    7.4720   -3.7710   23.4800 C   0  0  0  0  0  0  0  0  0  0  0  0
    8.8620   -3.4520   23.3600 C   0  0  0  0  0  0  0  0  0  0  0  0
    7.0810   -4.5640   24.5810 C   0  0  0  0  0  0  0  0  0  0  0  0
   10.3290   -1.5570   22.6410 C   0  0  0  0  0  0  0  0  0  0  0  0
    8.0100   -5.0280   25.5300 C   0  0  0  0  0  0  0  0  0  0  0  0
    9.7680   -3.9230   24.3140 C   0  0  0  0  0  0  0  0  0  0  0  0
   11.6570   -1.5090   22.1630 C   0  0  0  0  0  0  0  0  0  0  0  0
    9.8730   -0.5150   23.6760 C   0  0  0  0  0  0  0  0  0  0  0  0
    9.3550   -4.7080   25.3970 C   0  0  0  0  0  0  0  0  0  0  0  0
   12.5560   -0.5500   22.5990 C   0  0  0  0  0  0  0  0  0  0  0  0
   10.7700    0.4340   24.1040 C   0  0  0  0  0  0  0  0  0  0  0  0
   12.1980    0.4220   23.5340 C   0  0  0  0  0  0  0  0  0  0  0  0
  1  2  2  0
  2  3  1  0
  2  4  1  0
  4  5  1  0
  4  6  1  0
  5  7  1  0
  6  8  1  0
  7  9  1  0
  8  9  2  0
  8 10  1  0
  7 11  1  1
 10 12  2  0
  9 13  1  0
 11 14  2  0
 11 15  1  0
 12 16  1  0
 13 16  2  0
 14 17  1  0
 15 18  2  0
 17 19  2  0
 18 19  1  0
M  END
