x1412_0-x1418_1-x1386_0
     RDKit          3D

 22 24  0  0  0  0  0  0  0  0999 V2000
    6.3480   -3.2500   19.8730 C   0  0  0  0  0  0  0  0  0  0  0  0
    7.2780   -2.9650   18.7160 C   0  0  0  0  0  0  0  0  0  0  0  0
    5.4530   -4.0950   19.7250 O   0  0  0  0  0  0  0  0  0  0  0  0
    6.5380   -2.5780   21.0810 N   0  0  0  0  0  0  0  0  0  0  0  0
    6.1830   -3.2450   22.3340 C   0  0  0  0  0  0  0  0  0  0  0  0
    7.5920   -1.5300   21.2380 C   0  0  0  0  0  0  0  0  0  0  0  0
    7.4290   -3.8300   23.0290 C   0  0  0  0  0  0  0  0  0  0  0  0
    8.7990   -1.9840   22.0620 C   0  0  0  0  0  0  0  0  0  0  0  0
    8.4970   -2.8620   23.2250 N   0  0  0  0  0  0  0  0  0  0  0  0
    8.9600   -2.5790   24.4970 C   0  0  2  0  0  0  0  0  0  0  0  0
    8.5780   -1.5500   25.0560 O   0  0  0  0  0  0  0  0  0  0  0  0
   10.4880   -2.6310   24.4630 C   0  0  0  0  0  0  0  0  0  0  0  0
    8.7860   -3.6840   25.5430 C   0  0  0  0  0  0  0  0  0  0  0  0
    9.6540   -4.7670   25.6060 C   0  0  0  0  0  0  0  0  0  0  0  0
    7.5920   -3.8210   26.7820 S   0  0  0  0  0  0  0  0  0  0  0  0
   11.2790   -1.4680   23.9590 C   0  0  0  0  0  0  0  0  0  0  0  0
    9.3770   -5.6470   26.5740 C   0  0  0  0  0  0  0  0  0  0  0  0
    8.2730   -5.3040   27.3390 C   0  0  0  0  0  0  0  0  0  0  0  0
   12.2870   -1.5080   23.0200 C   0  0  0  0  0  0  0  0  0  0  0  0
   11.1060   -0.1450   24.3780 C   0  0  0  0  0  0  0  0  0  0  0  0
   12.9010   -0.1940   22.7140 C   0  0  0  0  0  0  0  0  0  0  0  0
   12.1600    1.0150   23.6290 S   0  0  0  0  0  0  0  0  0  0  0  0
  1  2  1  0
  1  3  2  0
  1  4  1  0
  4  5  1  0
  4  6  1  0
  5  7  1  0
  6  8  1  0
  7  9  1  0
  8  9  1  0
  9 10  1  0
 10 11  1  1
 10 12  1  0
 10 13  1  0
 13 14  2  0
 13 15  1  0
 12 16  1  0
 14 17  1  0
 15 18  1  0
 17 18  2  0
 16 19  1  0
 16 20  2  0
 19 21  2  0
 20 22  1  0
 21 22  1  0
M  END
