x1412_1-x0434_2-x0770_1-x0397_0-x1385_1-x1336_0-x0736_1-x1412_0-x0387_0-x0874_0-x1334_1
     RDKit          3D

 32 36  0  0  0  0  0  0  0  0999 V2000
    6.3780   -3.2930   19.9270 C   0  0  0  0  0  0  0  0  0  0  0  0
    7.3730   -2.9450   18.8100 C   0  0  0  0  0  0  0  0  0  0  0  0
    5.3760   -3.9620   19.6460 O   0  0  0  0  0  0  0  0  0  0  0  0
    6.6380   -2.9470   21.2940 N   0  0  0  0  0  0  0  0  0  0  0  0
    7.4870   -1.7960   21.6720 C   0  0  2  0  0  0  0  0  0  0  0  0
    7.0150   -4.1540   21.9930 C   0  0  1  0  0  0  0  0  0  0  0  0
    7.7600   -0.8530   20.6090 N   0  0  0  0  0  0  0  0  0  0  0  0
    8.8240   -2.1610   22.3170 C   0  0  0  0  0  0  0  0  0  0  0  0
    7.7330   -4.0420   23.3290 C   0  0  0  0  0  0  0  0  0  0  0  0
    5.7680   -4.9250   22.2760 C   0  0  0  0  0  0  0  0  0  0  0  0
    8.7090   -2.9430   23.4350 N   0  0  0  0  0  0  0  0  0  0  0  0
    5.6910   -5.9970   23.4260 C   0  0  0  0  0  0  0  0  0  0  0  0
    5.8110   -6.4660   22.1320 C   0  0  0  0  0  0  0  0  0  0  0  0
    6.8110   -0.1350   19.9110 C   0  0  0  0  0  0  0  0  0  0  0  0
    8.8260   -2.4090   24.6730 C   0  0  2  0  0  0  0  0  0  0  0  0
    6.9810    0.2070   18.4360 C   0  0  0  0  0  0  0  0  0  0  0  0
    5.6140    0.3590   20.4510 C   0  0  0  0  0  0  0  0  0  0  0  0
    7.8000   -1.5680   25.2020 O   0  0  0  0  0  0  0  0  0  0  0  0
   10.1050   -1.5450   24.9780 C   0  0  0  0  0  0  0  0  0  0  0  0
    8.8530   -3.6330   25.6140 C   0  0  0  0  0  0  0  0  0  0  0  0
    6.1690    0.8970   17.6170 N   0  0  0  0  0  0  0  0  0  0  0  0
    4.7820    1.0770   19.5780 C   0  0  0  0  0  0  0  0  0  0  0  0
    9.7350   -4.8940   25.5300 C   0  0  0  0  0  0  0  0  0  0  0  0
    7.8050   -3.8040   27.0100 S   0  0  0  0  0  0  0  0  0  0  0  0
    5.0610    1.3290   18.2250 C   0  0  0  0  0  0  0  0  0  0  0  0
   11.2180   -1.2350   24.0090 C   0  0  0  0  0  0  0  0  0  0  0  0
    9.5020   -5.7680   26.4930 C   0  0  0  0  0  0  0  0  0  0  0  0
    8.4220   -5.3310   27.4650 C   0  0  0  0  0  0  0  0  0  0  0  0
   12.0650   -0.0960   23.9290 C   0  0  0  0  0  0  0  0  0  0  0  0
   11.6530   -2.1360   22.9090 C   0  0  0  0  0  0  0  0  0  0  0  0
   13.1120   -0.0720   22.8510 C   0  0  0  0  0  0  0  0  0  0  0  0
   13.0410   -1.5560   21.8740 S   0  0  0  0  0  0  0  0  0  0  0  0
  1  2  1  0
  1  3  2  0
  1  4  1  0
  4  5  1  0
  4  6  1  0
  5  7  1  6
  5  8  1  0
  6  9  1  0
  6 10  1  1
  8 11  1  0
  9 11  1  0
 10 12  1  0
 10 13  1  0
 12 13  1  0
  7 14  1  0
 11 15  1  0
 14 16  2  0
 14 17  1  0
 15 18  1  1
 15 19  1  0
 15 20  1  0
 16 21  1  0
 17 22  2  0
 20 23  2  0
 20 24  1  0
 21 25  2  0
 22 25  1  0
 19 26  1  0
 23 27  1  0
 24 28  1  0
 27 28  2  0
 26 29  1  0
 26 30  2  0
 29 31  2  0
 30 32  1  0
 31 32  1  0
M  END
