x1418_1-x0831_0-x0426_1-x1385_1-x0770_1-x0434_2-x1334_1-x0397_0-x0692_1-x1375_1-x1386_1-x0734_0
     RDKit          3D

 45 50  0  0  0  0  0  0  0  0999 V2000
    2.2170   -7.1750   23.8180 O   0  0  0  0  0  0  0  0  0  0  0  0
    3.3120   -6.4170   23.3030 C   0  0  0  0  0  0  0  0  0  0  0  0
    4.4710   -6.3580   24.3260 C   0  0  2  0  0  0  0  0  0  0  0  0
    4.3650   -7.5830   25.0490 O   0  0  0  0  0  0  0  0  0  0  0  0
    4.4850   -5.0080   24.9750 N   0  0  0  0  0  0  0  0  0  0  0  0
    5.8200   -6.4830   23.5850 C   0  0  0  0  0  0  0  0  0  0  0  0
    4.9790   -4.8900   26.1670 N   0  0  0  0  0  0  0  0  0  0  0  0
    6.2670   -5.5960   22.5430 C   0  0  2  0  0  0  0  0  0  0  0  0
    4.5060   -4.1280   27.0610 O   0  0  0  0  0  0  0  0  0  0  0  0
    6.4260   -5.0890   26.1930 C   0  0  0  0  0  0  0  0  0  0  0  0
    5.6690   -4.3190   22.5580 C   0  0  2  0  0  0  0  0  0  0  0  0
    5.4840   -5.4880   21.3740 C   0  0  0  0  0  0  0  0  0  0  0  0
    7.2140   -4.8470   25.0220 C   0  0  0  0  0  0  0  0  0  0  0  0
    7.0370   -5.5670   27.5320 C   0  0  0  0  0  0  0  0  0  0  0  0
    6.5610   -3.0930   22.3120 C   0  0  1  0  0  0  0  0  0  0  0  0
    8.7260   -5.0530   24.9970 C   0  0  0  0  0  0  0  0  0  0  0  0
    8.5840   -5.7740   27.5030 C   0  0  0  0  0  0  0  0  0  0  0  0
    7.8390   -3.2730   22.8110 C   0  0  0  0  0  0  0  0  0  0  0  0
    6.6660   -2.6050   20.9800 N   0  0  0  0  0  0  0  0  0  0  0  0
    9.4760   -5.5370   26.2590 C   0  0  0  0  0  0  0  0  0  0  0  0
    6.3980   -3.1960   19.7740 C   0  0  0  0  0  0  0  0  0  0  0  0
    8.4960   -1.9800   23.0190 N   0  0  0  0  0  0  0  0  0  0  0  0
    7.1600   -1.2200   20.9870 C   0  0  1  0  0  0  0  0  0  0  0  0
    7.3610   -2.9800   18.6430 C   0  0  0  0  0  0  0  0  0  0  0  0
    5.4160   -3.9340   19.6220 O   0  0  0  0  0  0  0  0  0  0  0  0
    5.8690   -0.3550   21.2160 C   0  0  1  0  0  0  0  0  0  0  0  0
    9.8800   -2.2310   23.3650 C   0  0  0  0  0  0  0  0  0  0  0  0
    8.3900   -1.0190   21.8960 C   0  0  0  0  0  0  0  0  0  0  0  0
    5.9480    0.6710   22.1840 C   0  0  0  0  0  0  0  0  0  0  0  0
    5.6380    0.3560   19.9500 C   0  0  0  0  0  0  0  0  0  0  0  0
   10.6590   -0.9480   23.4260 C   0  0  0  0  0  0  0  0  0  0  0  0
    4.4800    1.2520   22.3650 C   0  0  1  0  0  0  0  0  0  0  0  0
    4.6110    1.4100   19.8780 C   0  0  0  0  0  0  0  0  0  0  0  0
    6.3750    0.0550   18.8280 C   0  0  0  0  0  0  0  0  0  0  0  0
   10.2340    0.2190   24.0890 C   0  0  0  0  0  0  0  0  0  0  0  0
   12.0060   -0.8300   22.7520 C   0  0  0  0  0  0  0  0  0  0  0  0
    4.4920    2.3670   23.2900 N   0  0  0  0  0  0  0  0  0  0  0  0
    3.8070    1.7510   21.0870 C   0  0  0  0  0  0  0  0  0  0  0  0
   12.6160   -1.9740   21.9910 C   0  0  0  0  0  0  0  0  0  0  0  0
    4.4630    2.0220   18.6740 C   0  0  0  0  0  0  0  0  0  0  0  0
    6.2110    0.6740   17.6510 N   0  0  0  0  0  0  0  0  0  0  0  0
   11.0440    1.3810   24.0830 C   0  0  0  0  0  0  0  0  0  0  0  0
   12.7390    0.3240   22.7970 C   0  0  0  0  0  0  0  0  0  0  0  0
    5.2630    1.6350   17.6110 C   0  0  0  0  0  0  0  0  0  0  0  0
   12.2820    1.4440   23.4490 C   0  0  0  0  0  0  0  0  0  0  0  0
  1  2  1  0
  2  3  1  0
  3  4  1  1
  3  5  1  0
  3  6  1  0
  5  7  2  3
  8  6  1  1
  7  9  1  0
  7 10  1  0
  8 11  1  0
  8 12  1  0
 11 12  1  6
 10 13  2  0
 10 14  1  0
 11 15  1  0
 13 16  1  0
 14 17  2  0
 15 18  1  6
 15 19  1  0
 16 20  2  0
 17 20  1  0
 19 21  1  0
 18 22  1  0
 19 23  1  0
 21 24  1  0
 21 25  2  0
 23 26  1  0
 22 27  1  0
 22 28  1  0
 23 28  1  1
 26 29  1  1
 26 30  1  0
 27 31  1  0
 29 32  1  0
 30 33  2  0
 30 34  1  0
 31 35  2  0
 31 36  1  0
 32 37  1  1
 32 38  1  0
 33 38  1  0
 36 39  1  0
 33 40  1  0
 34 41  2  0
 35 42  1  0
 36 43  2  0
 40 44  2  0
 41 44  1  0
 42 45  2  0
 43 45  1  0
M  CHG  2   7   1   9  -1
M  END
