x1412_1-x1412_0-x0831_0
     RDKit          3D

 25 28  0  0  0  0  0  0  0  0999 V2000
    6.4220   -3.3180   19.9460 C   0  0  0  0  0  0  0  0  0  0  0  0
    7.3820   -3.0200   18.8120 C   0  0  0  0  0  0  0  0  0  0  0  0
    5.4550   -4.0650   19.7220 O   0  0  0  0  0  0  0  0  0  0  0  0
    6.7000   -2.7660   21.2030 N   0  0  0  0  0  0  0  0  0  0  0  0
    7.8530   -1.8690   21.4950 C   0  0  0  0  0  0  0  0  0  0  0  0
    6.1600   -3.5140   22.3520 C   0  0  0  0  0  0  0  0  0  0  0  0
    8.8790   -2.4630   22.5000 C   0  0  1  0  0  0  0  0  0  0  0  0
    7.2780   -4.3620   22.8550 C   0  0  0  0  0  0  0  0  0  0  0  0
    9.3540   -1.4370   23.5700 C   0  0  1  0  0  0  0  0  0  0  0  0
    8.3330   -3.5140   23.4020 N   0  0  0  0  0  0  0  0  0  0  0  0
    8.2670   -3.0200   24.7810 C   0  0  1  0  0  0  0  0  0  0  0  0
    9.5080   -2.2290   24.7960 C   0  0  0  0  0  0  0  0  0  0  0  0
   10.5130   -0.5040   23.3930 C   0  0  0  0  0  0  0  0  0  0  0  0
    7.3900   -2.2740   25.2190 O   0  0  0  0  0  0  0  0  0  0  0  0
    8.4770   -4.1020   25.7640 C   0  0  0  0  0  0  0  0  0  0  0  0
   10.2250    0.7370   23.9100 C   0  0  0  0  0  0  0  0  0  0  0  0
   11.7700   -0.8130   22.7890 C   0  0  0  0  0  0  0  0  0  0  0  0
   12.1110   -2.1630   22.2220 C   0  0  0  0  0  0  0  0  0  0  0  0
    9.3340   -5.2210   25.5040 C   0  0  0  0  0  0  0  0  0  0  0  0
    7.7440   -4.1510   27.3330 S   0  0  0  0  0  0  0  0  0  0  0  0
   11.2300    1.8510   23.8520 C   0  0  0  0  0  0  0  0  0  0  0  0
   12.8850    0.2400   22.6770 C   0  0  0  0  0  0  0  0  0  0  0  0
    9.3700   -6.0710   26.5580 C   0  0  0  0  0  0  0  0  0  0  0  0
    8.5040   -5.6180   27.7220 C   0  0  0  0  0  0  0  0  0  0  0  0
   12.5750    1.5900   23.2230 C   0  0  0  0  0  0  0  0  0  0  0  0
  1  2  1  0
  1  3  2  0
  1  4  1  0
  4  5  1  0
  4  6  1  0
  7  5  1  6
  6  8  1  0
  7  9  1  0
  7 10  1  0
  8 10  1  0
 10 11  1  0
  9 12  1  0
 11 12  1  0
  9 13  1  6
 11 14  1  1
 11 15  1  0
 13 16  2  0
 13 17  1  0
 17 18  1  0
 15 19  2  0
 15 20  1  0
 16 21  1  0
 17 22  2  0
 19 23  1  0
 20 24  1  0
 23 24  2  0
 21 25  2  0
 22 25  1  0
M  END
