x1418_0-x0770_1
     RDKit          3D

 15 16  0  0  0  0  0  0  0  0999 V2000
    6.2500   -3.3670   19.9540 C   0  0  0  0  0  0  0  0  0  0  0  0
    7.2400   -3.0020   18.8430 C   0  0  0  0  0  0  0  0  0  0  0  0
    5.3710   -4.2180   19.7850 O   0  0  0  0  0  0  0  0  0  0  0  0
    6.3910   -2.7020   21.1840 N   0  0  0  0  0  0  0  0  0  0  0  0
    7.1670   -1.4520   21.1860 C   0  0  0  0  0  0  0  0  0  0  0  0
    6.4220   -3.3880   22.4780 C   0  0  0  0  0  0  0  0  0  0  0  0
    8.5730   -1.6700   21.7980 C   0  0  0  0  0  0  0  0  0  0  0  0
    7.8570   -3.5760   23.0100 C   0  0  0  0  0  0  0  0  0  0  0  0
    8.5950   -2.3990   23.0910 N   0  0  0  0  0  0  0  0  0  0  0  0
   10.0100   -2.6670   23.4040 C   0  0  0  0  0  0  0  0  0  0  0  0
   10.9230   -1.6090   23.4450 C   0  0  0  0  0  0  0  0  0  0  0  0
   12.0310   -1.4700   22.6240 C   0  0  0  0  0  0  0  0  0  0  0  0
   10.8130   -0.2830   24.5240 S   0  0  0  0  0  0  0  0  0  0  0  0
   12.7900   -0.2950   22.8520 C   0  0  0  0  0  0  0  0  0  0  0  0
   12.2220    0.4520   23.8710 C   0  0  0  0  0  0  0  0  0  0  0  0
  1  2  1  0
  1  3  2  0
  1  4  1  0
  4  5  1  0
  4  6  1  0
  5  7  1  0
  6  8  1  0
  7  9  1  0
  8  9  1  0
  9 10  1  0
 10 11  1  0
 11 12  2  0
 11 13  1  0
 12 14  1  0
 13 15  1  0
 14 15  2  0
M  END
