x1418_0-x1493_0
     RDKit          3D

 20 21  0  0  0  0  0  0  0  0999 V2000
    4.9750   -6.0590   26.1380 C   0  0  0  0  0  0  0  0  0  0  0  0
    6.2400   -5.4800   25.4990 C   0  0  0  0  0  0  0  0  0  0  0  0
    7.2650   -5.3870   26.1510 O   0  0  0  0  0  0  0  0  0  0  0  0
    6.0510   -5.1070   24.0920 N   0  0  0  0  0  0  0  0  0  0  0  0
    6.9030   -4.1430   23.4330 C   0  0  1  0  0  0  0  0  0  0  0  0
    5.2160   -5.8910   23.1830 C   0  0  0  0  0  0  0  0  0  0  0  0
    7.7610   -3.4830   24.4820 C   0  0  0  0  0  0  0  0  0  0  0  0
    7.6280   -4.6070   22.4180 C   0  0  0  0  0  0  0  0  0  0  0  0
    5.9450   -6.2770   21.9220 C   0  0  0  0  0  0  0  0  0  0  0  0
    8.6490   -2.3630   23.8020 C   0  0  0  0  0  0  0  0  0  0  0  0
    6.7700   -5.1930   21.4060 N   0  0  0  0  0  0  0  0  0  0  0  0
    6.3530   -4.3660   20.3400 C   0  0  0  0  0  0  0  0  0  0  0  0
    9.9530   -2.8030   23.3730 C   0  0  0  0  0  0  0  0  0  0  0  0
    5.2310   -4.4680   19.8750 O   0  0  0  0  0  0  0  0  0  0  0  0
    7.3070   -3.3560   19.7080 C   0  0  0  0  0  0  0  0  0  0  0  0
   10.9240   -1.6150   23.4210 C   0  0  0  0  0  0  0  0  0  0  0  0
   12.0500   -1.4650   22.6130 C   0  0  0  0  0  0  0  0  0  0  0  0
   10.7260   -0.2370   24.5390 S   0  0  0  0  0  0  0  0  0  0  0  0
   12.8000   -0.2120   22.8690 C   0  0  0  0  0  0  0  0  0  0  0  0
   12.2330    0.5150   23.8250 C   0  0  0  0  0  0  0  0  0  0  0  0
  1  2  1  0
  2  3  2  0
  2  4  1  0
  4  5  1  0
  4  6  1  0
  5  7  1  1
  5  8  1  0
  6  9  1  0
  7 10  1  0
  8 11  1  0
  9 11  1  0
 11 12  1  0
 10 13  1  0
 12 14  2  0
 12 15  1  0
 13 16  1  0
 16 17  2  0
 16 18  1  0
 17 19  1  0
 18 20  1  0
 19 20  2  0
M  END
