x1418_0-x0397_0-x0770_1-x1385_1-x0434_2-x0426_1-x1374_1-x1386_1-x0831_1-x0831_0-x1418_1-x1334_0-x0692_1-x1334_1-x1412_1
     RDKit          3D

 45 50  0  0  0  0  0  0  0  0999 V2000
    2.2670   -7.7020   23.3290 O   0  0  0  0  0  0  0  0  0  0  0  0
    2.5600   -7.9810   24.6820 C   0  0  0  0  0  0  0  0  0  0  0  0
    3.9600   -7.9370   24.8100 O   0  0  0  0  0  0  0  0  0  0  0  0
    4.5090   -7.1330   23.7740 C   0  0  0  0  0  0  0  0  0  0  0  0
    5.1280   -5.9890   24.2920 C   0  0  0  0  0  0  0  0  0  0  0  0
    6.1740   -5.6090   23.2930 C   0  0  2  0  0  0  0  0  0  0  0  0
    5.9010   -4.5850   22.4120 C   0  0  2  0  0  0  0  0  0  0  0  0
    6.2410   -6.1780   22.1020 C   0  0  0  0  0  0  0  0  0  0  0  0
    6.8860   -3.4970   22.1770 C   0  0  1  0  0  0  0  0  0  0  0  0
    6.4430   -2.5790   21.1110 N   0  0  0  0  0  0  0  0  0  0  0  0
    7.4410   -2.8460   23.4620 C   0  0  0  0  0  0  0  0  0  0  0  0
    6.2830   -3.3020   19.9270 C   0  0  0  0  0  0  0  0  0  0  0  0
    8.4650   -1.8360   23.1700 N   0  0  0  0  0  0  0  0  0  0  0  0
    7.1760   -1.3590   21.0610 C   0  0  1  0  0  0  0  0  0  0  0  0
    7.2760   -3.0260   18.7960 C   0  0  0  0  0  0  0  0  0  0  0  0
    5.4090   -4.1680   19.7570 O   0  0  0  0  0  0  0  0  0  0  0  0
    6.4240    0.0200   21.4470 C   0  0  1  0  0  0  0  0  0  0  0  0
    9.7910   -2.0300   23.7180 C   0  0  1  0  0  0  0  0  0  0  0  0
    8.5420   -1.5310   21.7320 C   0  0  0  0  0  0  0  0  0  0  0  0
    5.2960    0.0690   22.4780 C   0  0  0  0  0  0  0  0  0  0  0  0
    9.6250   -2.3480   25.1770 C   0  0  0  0  0  0  0  0  0  0  0  0
   10.4870   -3.2460   23.1630 C   0  0  0  0  0  0  0  0  0  0  0  0
    7.5300    0.9840   22.0080 C   0  0  0  0  0  0  0  0  0  0  0  0
    5.9480    0.5740   20.1210 C   0  0  0  0  0  0  0  0  0  0  0  0
   10.7340   -0.8680   23.5570 C   0  0  0  0  0  0  0  0  0  0  0  0
    4.5690    1.4440   22.4360 C   0  0  2  0  0  0  0  0  0  0  0  0
    4.7980    1.3520   19.9740 C   0  0  0  0  0  0  0  0  0  0  0  0
    6.6420    0.3290   18.9870 C   0  0  0  0  0  0  0  0  0  0  0  0
   10.2560    0.2410   24.0840 C   0  0  0  0  0  0  0  0  0  0  0  0
   11.9980   -0.8360   22.9360 C   0  0  0  0  0  0  0  0  0  0  0  0
    9.3370   -3.7160   25.7460 C   0  0  0  0  0  0  0  0  0  0  0  0
    3.6140    1.6020   23.5230 N   0  0  0  0  0  0  0  0  0  0  0  0
    3.9010    1.7220   21.1010 C   0  0  0  0  0  0  0  0  0  0  0  0
   12.6550   -2.0180   22.2900 C   0  0  0  0  0  0  0  0  0  0  0  0
    4.5300    1.7730   18.7220 C   0  0  0  0  0  0  0  0  0  0  0  0
    6.3960    0.7300   17.7330 N   0  0  0  0  0  0  0  0  0  0  0  0
   10.9620    1.5560   24.0660 C   0  0  0  0  0  0  0  0  0  0  0  0
   12.8660    0.4170   22.8320 C   0  0  0  0  0  0  0  0  0  0  0  0
    9.8630   -4.9970   25.5870 C   0  0  0  0  0  0  0  0  0  0  0  0
    8.0780   -3.7800   26.9000 S   0  0  0  0  0  0  0  0  0  0  0  0
    5.2980    1.4770   17.6570 C   0  0  0  0  0  0  0  0  0  0  0  0
   12.3430    1.5940   23.3890 C   0  0  0  0  0  0  0  0  0  0  0  0
    9.3710   -6.0450   26.3210 C   0  0  0  0  0  0  0  0  0  0  0  0
    8.2530   -5.4160   27.1940 C   0  0  0  0  0  0  0  0  0  0  0  0
    7.2090   -6.0860   28.3660 Cl  0  0  0  0  0  0  0  0  0  0  0  0
  1  2  1  0
  2  3  1  0
  3  4  1  0
  4  5  1  0
  6  5  1  1
  6  7  1  0
  6  8  1  0
  7  8  1  6
  7  9  1  0
  9 10  1  0
  9 11  1  1
 10 12  1  0
 11 13  1  0
 10 14  1  0
 12 15  1  0
 12 16  2  0
 14 17  1  0
 13 18  1  0
 13 19  1  0
 14 19  1  1
 17 20  1  0
 18 21  1  0
 18 22  1  6
 17 23  1  1
 17 24  1  0
 18 25  1  0
 20 26  1  0
 24 27  2  0
 24 28  1  0
 25 29  2  0
 25 30  1  0
 21 31  1  0
 26 32  1  1
 26 33  1  0
 27 33  1  0
 30 34  1  0
 27 35  1  0
 28 36  2  0
 29 37  1  0
 30 38  2  0
 31 39  2  0
 31 40  1  0
 35 41  2  0
 36 41  1  0
 37 42  2  0
 38 42  1  0
 39 43  1  0
 40 44  1  0
 43 44  2  0
 44 45  1  0
M  END
