x1418_0-x0831_0
     RDKit          3D

  8  8  0  0  0  0  0  0  0  0999 V2000
   10.1880   -2.5740   23.6280 C   0  0  0  0  0  0  0  0  0  0  0  0
   10.8580   -1.2110   23.5760 C   0  0  0  0  0  0  0  0  0  0  0  0
   12.1760   -1.0000   22.8950 C   0  0  0  0  0  0  0  0  0  0  0  0
   10.0950   -0.0810   24.2560 C   0  0  0  0  0  0  0  0  0  0  0  0
   12.8780   -2.0580   22.2520 C   0  0  0  0  0  0  0  0  0  0  0  0
   10.7380    1.3490   24.2180 C   0  0  0  0  0  0  0  0  0  0  0  0
   12.7280    0.2820   22.8860 C   0  0  0  0  0  0  0  0  0  0  0  0
   12.0640    1.5130   23.5260 C   0  0  0  0  0  0  0  0  0  0  0  0
  1  2  1  0
  2  3  2  0
  2  4  1  0
  3  5  1  0
  4  6  2  0
  3  7  1  0
  6  8  1  0
  7  8  2  0
M  END
