x1412_0-x1386_1-x1418_0-x1334_1
     RDKit          3D

 23 25  0  0  0  0  0  0  0  0999 V2000
    6.3490   -3.1840   19.8080 C   0  0  0  0  0  0  0  0  0  0  0  0
    7.2950   -2.8990   18.6590 C   0  0  0  0  0  0  0  0  0  0  0  0
    5.4160   -4.0000   19.6770 O   0  0  0  0  0  0  0  0  0  0  0  0
    6.5680   -2.5270   21.0250 N   0  0  0  0  0  0  0  0  0  0  0  0
    7.6500   -1.5220   21.1460 C   0  0  0  0  0  0  0  0  0  0  0  0
    6.2010   -3.1490   22.2870 C   0  0  0  0  0  0  0  0  0  0  0  0
    8.6710   -1.7670   22.2970 C   0  0  0  0  0  0  0  0  0  0  0  0
    7.2740   -3.8360   22.8120 C   0  0  0  0  0  0  0  0  0  0  0  0
    8.2560   -2.8530   23.2840 N   0  0  0  0  0  0  0  0  0  0  0  0
    8.4410   -2.5530   24.7260 C   0  0  2  0  0  0  0  0  0  0  0  0
    7.4020   -1.7120   25.1950 O   0  0  0  0  0  0  0  0  0  0  0  0
    9.6450   -1.7090   24.6860 C   0  0  0  0  0  0  0  0  0  0  0  0
    8.5650   -3.7500   25.6840 C   0  0  0  0  0  0  0  0  0  0  0  0
   10.6630   -2.5260   23.8930 C   0  0  0  0  0  0  0  0  0  0  0  0
    9.4360   -4.7860   25.5150 C   0  0  0  0  0  0  0  0  0  0  0  0
    7.5700   -3.9540   27.1960 S   0  0  0  0  0  0  0  0  0  0  0  0
    9.4320   -5.9120   26.5770 C   0  0  0  0  0  0  0  0  0  0  0  0
    8.4540   -5.4860   27.4760 C   0  0  0  0  0  0  0  0  0  0  0  0
   11.5720   -1.4460   23.4930 C   0  0  0  0  0  0  0  0  0  0  0  0
   12.5930   -1.3760   22.6060 C   0  0  0  0  0  0  0  0  0  0  0  0
   11.3020    0.0600   24.3050 S   0  0  0  0  0  0  0  0  0  0  0  0
   13.1870    0.0320   22.6000 C   0  0  0  0  0  0  0  0  0  0  0  0
   12.5450    0.8550   23.4770 C   0  0  0  0  0  0  0  0  0  0  0  0
  1  2  1  0
  1  3  2  0
  1  4  1  0
  4  5  1  0
  4  6  1  0
  5  7  1  0
  6  8  1  0
  7  9  1  0
  8  9  1  0
  9 10  1  0
 10 11  1  1
 10 12  1  0
 10 13  1  0
 12 14  1  0
 13 15  2  0
 13 16  1  0
 15 17  1  0
 16 18  1  0
 17 18  2  0
 14 19  1  0
 19 20  2  0
 19 21  1  0
 20 22  1  0
 21 23  1  0
 22 23  2  0
M  END
