x1418_0-x0397_0-x0770_1-x1375_1-x1385_1-x0434_2-x0426_1-x1374_1-x0831_1-x0831_0-x1418_1-x1334_0-x0692_1-x1334_1-x1412_1
     RDKit          3D

 44 49  0  0  0  0  0  0  0  0999 V2000
    2.5240   -6.8070   24.2110 O   0  0  0  0  0  0  0  0  0  0  0  0
    3.3440   -6.3780   25.2830 C   0  0  0  0  0  0  0  0  0  0  0  0
    4.7060   -6.6620   25.0110 O   0  0  0  0  0  0  0  0  0  0  0  0
    4.9530   -6.7700   23.6190 C   0  0  0  0  0  0  0  0  0  0  0  0
    5.9410   -5.7730   23.0900 C   0  0  2  0  0  0  0  0  0  0  0  0
    5.5380   -4.5600   22.3380 C   0  0  2  0  0  0  0  0  0  0  0  0
    6.2770   -5.8970   21.6780 C   0  0  0  0  0  0  0  0  0  0  0  0
    6.3570   -3.2400   22.4790 C   0  0  2  0  0  0  0  0  0  0  0  0
    6.3550   -2.5370   21.1810 N   0  0  0  0  0  0  0  0  0  0  0  0
    7.6680   -3.4210   22.9790 C   0  0  0  0  0  0  0  0  0  0  0  0
    6.2660   -3.2920   19.9840 C   0  0  0  0  0  0  0  0  0  0  0  0
    8.3800   -2.1100   23.0610 N   0  0  0  0  0  0  0  0  0  0  0  0
    7.2250   -1.3270   21.1080 C   0  0  1  0  0  0  0  0  0  0  0  0
    7.2400   -3.0040   18.8490 C   0  0  0  0  0  0  0  0  0  0  0  0
    5.4400   -4.2070   19.8070 O   0  0  0  0  0  0  0  0  0  0  0  0
    6.5990    0.1260   21.4050 C   0  0  1  0  0  0  0  0  0  0  0  0
    9.6810   -2.1220   23.7200 C   0  0  1  0  0  0  0  0  0  0  0  0
    8.4450   -1.5720   21.7380 C   0  0  0  0  0  0  0  0  0  0  0  0
    5.4400    0.0790   22.4740 C   0  0  0  0  0  0  0  0  0  0  0  0
    9.5870   -2.3320   25.1620 C   0  0  0  0  0  0  0  0  0  0  0  0
   10.3820   -3.3560   23.2450 C   0  0  0  0  0  0  0  0  0  0  0  0
    7.6570    1.1570   21.8440 C   0  0  0  0  0  0  0  0  0  0  0  0
    6.0210    0.6510   20.1140 C   0  0  0  0  0  0  0  0  0  0  0  0
   10.5980   -0.8980   23.5880 C   0  0  0  0  0  0  0  0  0  0  0  0
    4.5900    1.4090   22.4870 C   0  0  2  0  0  0  0  0  0  0  0  0
    4.8270    1.3910   20.0040 C   0  0  0  0  0  0  0  0  0  0  0  0
    6.7130    0.3910   18.9440 C   0  0  0  0  0  0  0  0  0  0  0  0
   10.1050    0.2510   24.1830 C   0  0  0  0  0  0  0  0  0  0  0  0
   11.8600   -0.8780   22.9300 C   0  0  0  0  0  0  0  0  0  0  0  0
    9.2930   -3.6900   25.7560 C   0  0  0  0  0  0  0  0  0  0  0  0
    3.6270    1.5010   23.5610 N   0  0  0  0  0  0  0  0  0  0  0  0
    3.9320    1.7590   21.1490 C   0  0  0  0  0  0  0  0  0  0  0  0
   12.5250   -2.0310   22.2390 C   0  0  0  0  0  0  0  0  0  0  0  0
    4.4600    1.8160   18.7200 C   0  0  0  0  0  0  0  0  0  0  0  0
    6.4090    0.7620   17.7030 N   0  0  0  0  0  0  0  0  0  0  0  0
   10.8770    1.4250   24.1130 C   0  0  0  0  0  0  0  0  0  0  0  0
   12.5850    0.2920   22.8930 C   0  0  0  0  0  0  0  0  0  0  0  0
    9.9060   -5.0860   25.6440 C   0  0  0  0  0  0  0  0  0  0  0  0
    7.9970   -3.8190   26.8540 S   0  0  0  0  0  0  0  0  0  0  0  0
    5.2330    1.5070   17.6560 C   0  0  0  0  0  0  0  0  0  0  0  0
   12.1110    1.4490   23.4740 C   0  0  0  0  0  0  0  0  0  0  0  0
    9.3070   -6.0230   26.4370 C   0  0  0  0  0  0  0  0  0  0  0  0
    8.2270   -5.4600   27.1810 C   0  0  0  0  0  0  0  0  0  0  0  0
    7.1660   -6.1580   28.3200 Cl  0  0  0  0  0  0  0  0  0  0  0  0
  1  2  1  0
  2  3  1  0
  3  4  1  0
  5  4  1  6
  5  6  1  0
  5  7  1  0
  6  7  1  6
  6  8  1  0
  8  9  1  0
  8 10  1  6
  9 11  1  0
 10 12  1  0
  9 13  1  0
 11 14  1  0
 11 15  2  0
 13 16  1  0
 12 17  1  0
 12 18  1  0
 13 18  1  1
 16 19  1  0
 17 20  1  0
 17 21  1  6
 16 22  1  1
 16 23  1  0
 17 24  1  0
 19 25  1  0
 23 26  2  0
 23 27  1  0
 24 28  2  0
 24 29  1  0
 20 30  1  0
 25 31  1  1
 25 32  1  0
 26 32  1  0
 29 33  1  0
 26 34  1  0
 27 35  2  0
 28 36  1  0
 29 37  2  0
 30 38  2  0
 30 39  1  0
 34 40  2  0
 35 40  1  0
 36 41  2  0
 37 41  1  0
 38 42  1  0
 39 43  1  0
 42 43  2  0
 43 44  1  0
M  END
