x1412_1-x1385_1-x1412_0-x1334_1
     RDKit          3D

 16 17  0  0  0  0  0  0  0  0999 V2000
    6.3370   -3.3710   19.9260 C   0  0  0  0  0  0  0  0  0  0  0  0
    7.3560   -3.0240   18.8510 C   0  0  0  0  0  0  0  0  0  0  0  0
    5.3550   -4.0770   19.7030 O   0  0  0  0  0  0  0  0  0  0  0  0
    6.5850   -2.8990   21.2090 N   0  0  0  0  0  0  0  0  0  0  0  0
    7.5280   -1.7640   21.3690 C   0  0  0  0  0  0  0  0  0  0  0  0
    6.3890   -3.7640   22.3710 C   0  0  0  0  0  0  0  0  0  0  0  0
    8.6990   -2.0320   22.3300 C   0  0  0  0  0  0  0  0  0  0  0  0
    7.5960   -4.1630   22.9120 C   0  0  0  0  0  0  0  0  0  0  0  0
    8.3590   -3.0130   23.3670 N   0  0  0  0  0  0  0  0  0  0  0  0
    8.4750   -2.6660   24.7740 C   0  0  0  0  0  0  0  0  0  0  0  0
    8.4600   -1.4980   25.1690 O   0  0  0  0  0  0  0  0  0  0  0  0
    8.6090   -3.8100   25.6540 C   0  0  0  0  0  0  0  0  0  0  0  0
    9.4430   -5.0670   25.4230 C   0  0  0  0  0  0  0  0  0  0  0  0
    7.7790   -3.8670   27.1590 S   0  0  0  0  0  0  0  0  0  0  0  0
    9.3270   -5.9620   26.5110 C   0  0  0  0  0  0  0  0  0  0  0  0
    8.4120   -5.4080   27.5760 C   0  0  0  0  0  0  0  0  0  0  0  0
  1  2  1  0
  1  3  2  0
  1  4  1  0
  4  5  1  0
  4  6  1  0
  5  7  1  0
  6  8  1  0
  7  9  1  0
  8  9  1  0
  9 10  1  0
 10 11  2  0
 10 12  1  0
 12 13  2  0
 12 14  1  0
 13 15  1  0
 14 16  1  0
 15 16  2  0
M  END
