x1412_1-x0434_2-x1334_1-x0397_0-x1374_1-x0770_1-x0831_0-x1386_1-x1334_0-x1418_1-x0692_1-x1385_1
     RDKit          3D

 39 43  0  0  0  0  0  0  0  0999 V2000
    2.0740   -6.9830   23.8830 O   0  0  0  0  0  0  0  0  0  0  0  0
    2.4620   -7.9210   24.8660 C   0  0  0  0  0  0  0  0  0  0  0  0
    3.8730   -7.9230   24.9410 O   0  0  0  0  0  0  0  0  0  0  0  0
    4.4450   -7.2010   23.8570 C   0  0  0  0  0  0  0  0  0  0  0  0
    4.8930   -5.9680   24.3330 C   0  0  0  0  0  0  0  0  0  0  0  0
    6.0820   -5.7380   23.4540 C   0  0  2  0  0  0  0  0  0  0  0  0
    5.9670   -4.7510   22.4480 C   0  0  2  0  0  0  0  0  0  0  0  0
    6.0570   -6.2600   21.9820 C   0  0  0  0  0  0  0  0  0  0  0  0
    7.1630   -3.9040   22.2230 C   0  0  1  0  0  0  0  0  0  0  0  0
    6.7640   -2.8700   21.2520 N   0  0  0  0  0  0  0  0  0  0  0  0
    7.7380   -3.3960   23.5840 C   0  0  0  0  0  0  0  0  0  0  0  0
    6.4430   -3.3040   19.9470 C   0  0  0  0  0  0  0  0  0  0  0  0
    8.5610   -2.1850   23.4640 N   0  0  0  0  0  0  0  0  0  0  0  0
    7.3990   -1.5800   21.5980 C   0  0  2  0  0  0  0  0  0  0  0  0
    7.4090   -3.0120   18.8160 C   0  0  0  0  0  0  0  0  0  0  0  0
    5.4360   -3.9920   19.6890 O   0  0  0  0  0  0  0  0  0  0  0  0
    9.6460   -2.0560   24.2740 C   0  0  1  0  0  0  0  0  0  0  0  0
    7.6470   -0.7610   20.4580 N   0  0  0  0  0  0  0  0  0  0  0  0
    8.7520   -1.8770   22.1870 C   0  0  0  0  0  0  0  0  0  0  0  0
   10.3880   -3.3110   24.3850 C   0  0  0  0  0  0  0  0  0  0  0  0
   10.5890   -0.8760   23.9230 C   0  0  0  0  0  0  0  0  0  0  0  0
    6.6980   -0.0290   19.8100 C   0  0  0  0  0  0  0  0  0  0  0  0
   10.1360    0.3470   24.3760 C   0  0  0  0  0  0  0  0  0  0  0  0
   11.9620   -0.9300   23.1280 C   0  0  0  0  0  0  0  0  0  0  0  0
    9.6960   -4.2220   25.3490 C   0  0  0  0  0  0  0  0  0  0  0  0
    6.9850    0.3150   18.4440 C   0  0  0  0  0  0  0  0  0  0  0  0
    5.3470    0.5020   20.3150 C   0  0  0  0  0  0  0  0  0  0  0  0
   12.4790   -2.2400   22.6140 C   0  0  0  0  0  0  0  0  0  0  0  0
   10.9670    1.5970   24.0950 C   0  0  0  0  0  0  0  0  0  0  0  0
   12.7220    0.1580   22.8720 C   0  0  0  0  0  0  0  0  0  0  0  0
    9.9740   -5.5040   25.5770 C   0  0  0  0  0  0  0  0  0  0  0  0
    8.3820   -3.7740   26.3700 S   0  0  0  0  0  0  0  0  0  0  0  0
    6.2860    1.0090   17.5800 N   0  0  0  0  0  0  0  0  0  0  0  0
    4.4920    1.3120   19.3600 C   0  0  0  0  0  0  0  0  0  0  0  0
   12.2590    1.4790   23.3420 C   0  0  0  0  0  0  0  0  0  0  0  0
    9.2510   -6.1680   26.5080 C   0  0  0  0  0  0  0  0  0  0  0  0
    8.3120   -5.3130   27.0500 C   0  0  0  0  0  0  0  0  0  0  0  0
    5.0500    1.5460   17.9320 C   0  0  0  0  0  0  0  0  0  0  0  0
    7.1690   -5.6840   28.2720 Cl  0  0  0  0  0  0  0  0  0  0  0  0
  1  2  1  0
  2  3  1  0
  3  4  1  0
  4  5  1  0
  6  5  1  1
  6  7  1  0
  6  8  1  0
  7  8  1  6
  7  9  1  0
  9 10  1  0
  9 11  1  1
 10 12  1  0
 11 13  1  0
 10 14  1  0
 12 15  1  0
 12 16  2  0
 13 17  1  0
 14 18  1  6
 13 19  1  0
 14 19  1  0
 17 20  1  6
 17 21  1  0
 18 22  1  0
 21 23  2  0
 21 24  1  0
 20 25  1  0
 22 26  2  0
 22 27  1  0
 24 28  1  0
 23 29  1  0
 24 30  2  0
 25 31  2  0
 25 32  1  0
 26 33  1  0
 27 34  2  0
 29 35  2  0
 30 35  1  0
 31 36  1  0
 32 37  1  0
 36 37  2  0
 33 38  2  0
 34 38  1  0
 37 39  1  0
M  END
