x1418_1-x0831_1-x1334_0-x1412_1-x0831_0-x0397_0-x1385_1-x0434_2-x0692_1-x1334_1-x0770_1
     RDKit          3D

 34 38  0  0  0  0  0  0  0  0999 V2000
    6.3270   -3.2870   19.9580 C   0  0  0  0  0  0  0  0  0  0  0  0
    7.3270   -3.0090   18.8390 C   0  0  0  0  0  0  0  0  0  0  0  0
    5.4160   -4.1010   19.7150 O   0  0  0  0  0  0  0  0  0  0  0  0
    6.4900   -2.6550   21.1810 N   0  0  0  0  0  0  0  0  0  0  0  0
    5.9370   -3.0450   22.3850 C   0  0  2  0  0  0  0  0  0  0  0  0
    7.1460   -1.3500   21.2820 C   0  0  1  0  0  0  0  0  0  0  0  0
    6.8150   -2.7110   23.5930 C   0  0  0  0  0  0  0  0  0  0  0  0
    8.3920   -1.4580   22.1780 C   0  0  0  0  0  0  0  0  0  0  0  0
    5.4610   -4.5360   22.4530 C   0  0  0  0  0  0  0  0  0  0  0  0
    7.6490   -0.5930   20.0870 C   0  0  0  0  0  0  0  0  0  0  0  0
    8.2360   -2.3150   23.3310 N   0  0  0  0  0  0  0  0  0  0  0  0
    6.1910   -5.6090   23.1030 C   0  0  0  0  0  0  0  0  0  0  0  0
    6.2520   -5.8390   21.6600 C   0  0  0  0  0  0  0  0  0  0  0  0
    6.9580   -0.1440   18.9430 C   0  0  0  0  0  0  0  0  0  0  0  0
    9.1080   -3.3190   23.5300 C   0  0  1  0  0  0  0  0  0  0  0  0
    6.3050    0.3420   20.1250 C   0  0  0  0  0  0  0  0  0  0  0  0
    6.1470    0.3990   17.9630 N   0  0  0  0  0  0  0  0  0  0  0  0
   10.5180   -2.8840   23.2140 C   0  0  0  0  0  0  0  0  0  0  0  0
    8.9400   -4.1390   24.8280 C   0  0  0  0  0  0  0  0  0  0  0  0
    5.0770    1.1590   18.0310 C   0  0  0  0  0  0  0  0  0  0  0  0
    5.1700    1.1400   20.3310 C   0  0  0  0  0  0  0  0  0  0  0  0
    9.7490   -5.4070   25.1440 C   0  0  0  0  0  0  0  0  0  0  0  0
    7.8540   -3.8090   26.0740 S   0  0  0  0  0  0  0  0  0  0  0  0
   10.8760   -1.3710   23.3960 C   0  0  0  0  0  0  0  0  0  0  0  0
    4.5250    1.5720   19.2950 C   0  0  0  0  0  0  0  0  0  0  0  0
    9.3790   -6.0580   26.4590 C   0  0  0  0  0  0  0  0  0  0  0  0
    8.2600   -5.2040   27.0900 C   0  0  0  0  0  0  0  0  0  0  0  0
   10.0440   -0.3260   24.2080 C   0  0  0  0  0  0  0  0  0  0  0  0
   12.1700   -0.8270   22.7450 C   0  0  0  0  0  0  0  0  0  0  0  0
    7.4410   -5.4730   28.5600 Cl  0  0  0  0  0  0  0  0  0  0  0  0
   13.0440   -1.7400   21.9370 C   0  0  0  0  0  0  0  0  0  0  0  0
   10.5040    1.1570   24.3360 C   0  0  0  0  0  0  0  0  0  0  0  0
   12.5280    0.4610   22.8940 C   0  0  0  0  0  0  0  0  0  0  0  0
   11.8500    1.4650   23.5950 C   0  0  0  0  0  0  0  0  0  0  0  0
  1  2  1  0
  1  3  2  0
  1  4  1  0
  4  5  1  0
  4  6  1  0
  5  7  1  0
  6  8  1  0
  5  9  1  6
  6 10  1  6
  7 11  1  0
  8 11  1  0
  9 12  1  0
  9 13  1  0
 12 13  1  0
 10 14  1  0
 11 15  1  0
 14 16  2  0
 14 17  1  0
 15 18  1  1
 15 19  1  0
 17 20  2  0
 16 21  1  0
 19 22  2  0
 19 23  1  0
 18 24  1  0
 20 25  1  0
 21 25  2  0
 22 26  1  0
 23 27  1  0
 26 27  2  0
 24 28  2  0
 24 29  1  0
 27 30  1  0
 29 31  1  0
 28 32  1  0
 29 33  2  0
 32 34  2  0
 33 34  1  0
M  END
