x1412_0-x0769_0-x1386_0
     RDKit          3D

 23 25  0  0  0  0  0  0  0  0999 V2000
    6.4490   -4.4230   20.5970 C   0  0  0  0  0  0  0  0  0  0  0  0
    7.3950   -3.4040   19.9500 C   0  0  0  0  0  0  0  0  0  0  0  0
    5.4130   -4.6980   19.9800 O   0  0  0  0  0  0  0  0  0  0  0  0
    6.7170   -5.0910   21.8080 N   0  0  0  0  0  0  0  0  0  0  0  0
    5.8680   -6.2640   22.0300 C   0  0  0  0  0  0  0  0  0  0  0  0
    7.2050   -4.5250   23.0960 C   0  0  1  0  0  0  0  0  0  0  0  0
    8.1120   -3.2700   22.9740 C   0  0  0  0  0  0  0  0  0  0  0  0
    4.7870   -6.0380   23.1290 C   0  0  0  0  0  0  0  0  0  0  0  0
    6.0380   -4.1960   24.0420 C   0  0  0  0  0  0  0  0  0  0  0  0
    8.9270   -2.9120   24.2740 C   0  0  2  0  0  0  0  0  0  0  0  0
    5.2460   -5.3860   24.3730 N   0  0  0  0  0  0  0  0  0  0  0  0
    8.5220   -1.6310   24.7630 O   0  0  0  0  0  0  0  0  0  0  0  0
   10.4470   -2.8830   23.8330 C   0  0  0  0  0  0  0  0  0  0  0  0
    8.8450   -3.9250   25.3890 C   0  0  0  0  0  0  0  0  0  0  0  0
    9.5530   -5.0980   25.4710 C   0  0  0  0  0  0  0  0  0  0  0  0
    7.8370   -3.7850   26.7950 S   0  0  0  0  0  0  0  0  0  0  0  0
   11.1930   -1.5890   23.6800 C   0  0  0  0  0  0  0  0  0  0  0  0
    9.3290   -5.8850   26.6050 C   0  0  0  0  0  0  0  0  0  0  0  0
    8.4140   -5.2820   27.4110 C   0  0  0  0  0  0  0  0  0  0  0  0
   12.2670   -1.4490   22.8420 C   0  0  0  0  0  0  0  0  0  0  0  0
   10.9510   -0.3780   24.3180 C   0  0  0  0  0  0  0  0  0  0  0  0
   12.8790   -0.2060   22.7850 C   0  0  0  0  0  0  0  0  0  0  0  0
   12.0610    0.8490   23.8360 S   0  0  0  0  0  0  0  0  0  0  0  0
  1  2  1  0
  1  3  2  0
  1  4  1  0
  4  5  1  0
  4  6  1  0
  6  7  1  6
  5  8  1  0
  6  9  1  0
  7 10  1  0
  8 11  1  0
  9 11  1  0
 10 12  1  1
 10 13  1  0
 10 14  1  0
 14 15  2  0
 14 16  1  0
 13 17  1  0
 15 18  1  0
 16 19  1  0
 18 19  2  0
 17 20  1  0
 17 21  2  0
 20 22  2  0
 21 23  1  0
 22 23  1  0
M  END
