x1412_1-x1374_1-x0692_1-x1334_1-x0831_0-x0770_1-x1385_1-x0434_2-x1418_1-x0397_0-x1334_0-x1386_1
     RDKit          3D

 39 43  0  0  0  0  0  0  0  0999 V2000
    1.9480   -7.1320   23.8950 O   0  0  0  0  0  0  0  0  0  0  0  0
    2.4010   -7.9920   24.9250 C   0  0  0  0  0  0  0  0  0  0  0  0
    3.8120   -7.9950   24.9840 O   0  0  0  0  0  0  0  0  0  0  0  0
    4.3770   -7.2150   23.9470 C   0  0  0  0  0  0  0  0  0  0  0  0
    4.9120   -5.9260   24.4330 C   0  0  0  0  0  0  0  0  0  0  0  0
    6.0570   -5.6910   23.5080 C   0  0  2  0  0  0  0  0  0  0  0  0
    6.0230   -4.7850   22.4320 C   0  0  2  0  0  0  0  0  0  0  0  0
    6.0440   -6.3120   22.0210 C   0  0  0  0  0  0  0  0  0  0  0  0
    7.1720   -3.8870   22.1680 C   0  0  1  0  0  0  0  0  0  0  0  0
    6.8320   -2.8080   21.2470 N   0  0  0  0  0  0  0  0  0  0  0  0
    7.8280   -3.4620   23.5000 C   0  0  0  0  0  0  0  0  0  0  0  0
    6.5130   -3.2540   19.9350 C   0  0  0  0  0  0  0  0  0  0  0  0
    8.5480   -2.1360   23.4900 N   0  0  0  0  0  0  0  0  0  0  0  0
    7.4640   -1.6150   21.5840 C   0  0  2  0  0  0  0  0  0  0  0  0
    7.4350   -2.9680   18.7650 C   0  0  0  0  0  0  0  0  0  0  0  0
    5.5060   -3.9650   19.6910 O   0  0  0  0  0  0  0  0  0  0  0  0
    9.6360   -2.0150   24.2920 C   0  0  1  0  0  0  0  0  0  0  0  0
    7.6860   -0.7850   20.4410 N   0  0  0  0  0  0  0  0  0  0  0  0
    8.8210   -1.8350   22.2120 C   0  0  0  0  0  0  0  0  0  0  0  0
   10.3730   -3.2620   24.3570 C   0  0  0  0  0  0  0  0  0  0  0  0
   10.5990   -0.8620   23.9070 C   0  0  0  0  0  0  0  0  0  0  0  0
    6.7240   -0.0510   19.8160 C   0  0  0  0  0  0  0  0  0  0  0  0
   10.0840    0.5020   24.4050 C   0  0  0  0  0  0  0  0  0  0  0  0
   11.8380   -0.9680   23.1810 C   0  0  0  0  0  0  0  0  0  0  0  0
    9.6930   -4.1700   25.3160 C   0  0  0  0  0  0  0  0  0  0  0  0
    6.9370    0.3290   18.3830 C   0  0  0  0  0  0  0  0  0  0  0  0
    5.3990    0.5100   20.2730 C   0  0  0  0  0  0  0  0  0  0  0  0
   12.3950   -2.2560   22.6580 C   0  0  0  0  0  0  0  0  0  0  0  0
   11.0050    1.7040   24.0550 C   0  0  0  0  0  0  0  0  0  0  0  0
   12.7110    0.2690   22.8760 C   0  0  0  0  0  0  0  0  0  0  0  0
    9.9650   -5.5750   25.5870 C   0  0  0  0  0  0  0  0  0  0  0  0
    8.3040   -3.7280   26.4230 S   0  0  0  0  0  0  0  0  0  0  0  0
    6.1900    1.0260   17.5540 N   0  0  0  0  0  0  0  0  0  0  0  0
    4.5780    1.3110   19.2780 C   0  0  0  0  0  0  0  0  0  0  0  0
   12.3120    1.4650   23.2810 C   0  0  0  0  0  0  0  0  0  0  0  0
    9.2040   -6.2030   26.5460 C   0  0  0  0  0  0  0  0  0  0  0  0
    8.2620   -5.3050   27.0880 C   0  0  0  0  0  0  0  0  0  0  0  0
    5.0380    1.4970   18.0340 C   0  0  0  0  0  0  0  0  0  0  0  0
    7.1260   -5.6700   28.3160 Cl  0  0  0  0  0  0  0  0  0  0  0  0
  1  2  1  0
  2  3  1  0
  3  4  1  0
  4  5  1  0
  6  5  1  1
  6  7  1  0
  6  8  1  0
  7  8  1  6
  7  9  1  0
  9 10  1  0
  9 11  1  1
 10 12  1  0
 11 13  1  0
 10 14  1  0
 12 15  1  0
 12 16  2  0
 13 17  1  0
 14 18  1  6
 13 19  1  0
 14 19  1  0
 17 20  1  6
 17 21  1  0
 18 22  1  0
 21 23  2  0
 21 24  1  0
 20 25  1  0
 22 26  2  0
 22 27  1  0
 24 28  1  0
 23 29  1  0
 24 30  2  0
 25 31  2  0
 25 32  1  0
 26 33  1  0
 27 34  2  0
 29 35  2  0
 30 35  1  0
 31 36  1  0
 32 37  1  0
 36 37  2  0
 33 38  2  0
 34 38  1  0
 37 39  1  0
M  END
