x1412_0-x1386_1-x0752_1
     RDKit          3D

 27 31  0  0  0  0  0  0  0  0999 V2000
    6.4560   -3.1980   19.7750 C   0  0  0  0  0  0  0  0  0  0  0  0
    7.4430   -2.9470   18.6450 C   0  0  0  0  0  0  0  0  0  0  0  0
    5.4360   -3.8710   19.6050 O   0  0  0  0  0  0  0  0  0  0  0  0
    6.8330   -2.6550   21.0310 N   0  0  0  0  0  0  0  0  0  0  0  0
    7.7010   -1.4560   21.2110 C   0  0  0  0  0  0  0  0  0  0  0  0
    6.8960   -3.6900   22.0740 C   0  0  1  0  0  0  0  0  0  0  0  0
    6.8010   -5.0790   21.4210 C   0  0  0  0  0  0  0  0  0  0  0  0
    8.7420   -1.5250   22.3750 C   0  0  0  0  0  0  0  0  0  0  0  0
    8.0380   -3.6970   22.8290 C   0  0  0  0  0  0  0  0  0  0  0  0
    5.7140   -3.8640   23.0010 C   0  0  0  0  0  0  0  0  0  0  0  0
    6.5460   -6.0580   22.5480 C   0  0  0  0  0  0  0  0  0  0  0  0
    8.2960   -2.4410   23.4160 N   0  0  0  0  0  0  0  0  0  0  0  0
    5.5260   -5.2470   23.2410 C   0  0  0  0  0  0  0  0  0  0  0  0
    4.8590   -2.9450   23.5830 C   0  0  0  0  0  0  0  0  0  0  0  0
    8.4680   -2.2880   24.7950 C   0  0  0  0  0  0  0  0  0  0  0  0
    4.5280   -5.7500   24.0020 C   0  0  0  0  0  0  0  0  0  0  0  0
    3.8470   -3.4730   24.3590 C   0  0  0  0  0  0  0  0  0  0  0  0
    8.4980   -1.1700   25.3060 O   0  0  0  0  0  0  0  0  0  0  0  0
    8.5880   -3.5540   25.6180 C   0  0  0  0  0  0  0  0  0  0  0  0
    3.6560   -4.8340   24.5740 C   0  0  0  0  0  0  0  0  0  0  0  0
    2.8960   -2.7550   25.0130 O   0  0  0  0  0  0  0  0  0  0  0  0
    9.4100   -4.7810   25.2890 C   0  0  0  0  0  0  0  0  0  0  0  0
    7.7930   -3.8330   27.1250 S   0  0  0  0  0  0  0  0  0  0  0  0
    2.5910   -5.1180   25.3530 O   0  0  0  0  0  0  0  0  0  0  0  0
    2.0020   -3.8090   25.4400 C   0  0  0  0  0  0  0  0  0  0  0  0
    9.3070   -5.7510   26.2590 C   0  0  0  0  0  0  0  0  0  0  0  0
    8.4800   -5.4110   27.3180 C   0  0  0  0  0  0  0  0  0  0  0  0
  1  2  1  0
  1  3  2  0
  1  4  1  0
  4  5  1  0
  6  4  1  0
  6  7  1  6
  5  8  1  0
  6  9  1  0
  6 10  1  0
  7 11  1  0
  8 12  1  0
  9 12  1  0
 10 13  2  0
 11 13  1  0
 10 14  1  0
 12 15  1  0
 13 16  1  0
 14 17  2  0
 15 18  2  0
 15 19  1  0
 16 20  2  0
 17 20  1  0
 17 21  1  0
 19 22  2  0
 19 23  1  0
 20 24  1  0
 21 25  1  0
 24 25  1  0
 22 26  1  0
 23 27  1  0
 26 27  2  0
M  END
