x1412_0-x1386_1-x0692_1
     RDKit          3D

 16 17  0  0  0  0  0  0  0  0999 V2000
    6.4060   -3.1320   19.8380 C   0  0  0  0  0  0  0  0  0  0  0  0
    7.3460   -2.9340   18.6790 C   0  0  0  0  0  0  0  0  0  0  0  0
    5.4910   -3.9670   19.6950 O   0  0  0  0  0  0  0  0  0  0  0  0
    6.6120   -2.4060   21.0230 N   0  0  0  0  0  0  0  0  0  0  0  0
    7.6960   -1.3820   21.0850 C   0  0  0  0  0  0  0  0  0  0  0  0
    6.3560   -3.0440   22.2980 C   0  0  0  0  0  0  0  0  0  0  0  0
    8.8830   -1.7200   22.0540 C   0  0  0  0  0  0  0  0  0  0  0  0
    7.5290   -3.6930   22.7580 C   0  0  0  0  0  0  0  0  0  0  0  0
    8.5330   -2.6770   23.1370 N   0  0  0  0  0  0  0  0  0  0  0  0
    8.5890   -2.4380   24.6090 C   0  0  0  0  0  0  0  0  0  0  0  0
    8.5160   -1.0640   24.9790 O   0  0  0  0  0  0  0  0  0  0  0  0
    8.6830   -3.5630   25.5320 C   0  0  0  0  0  0  0  0  0  0  0  0
    9.6850   -4.7050   25.5350 C   0  0  0  0  0  0  0  0  0  0  0  0
    7.5990   -3.8120   26.8600 S   0  0  0  0  0  0  0  0  0  0  0  0
    9.4600   -5.7120   26.6490 C   0  0  0  0  0  0  0  0  0  0  0  0
    8.3880   -5.3360   27.4140 C   0  0  0  0  0  0  0  0  0  0  0  0
  1  2  1  0
  1  3  2  0
  1  4  1  0
  4  5  1  0
  4  6  1  0
  5  7  1  0
  6  8  1  0
  7  9  1  0
  8  9  1  0
  9 10  1  0
 10 11  2  0
 10 12  1  0
 12 13  2  0
 12 14  1  0
 13 15  1  0
 14 16  1  0
 15 16  2  0
M  END
