x1418_1-x1374_1-x1386_1-x0426_1-x0434_2-x1334_1-x0831_0-x0692_1-x1412_1-x0397_0-x1334_0-x0770_1-x0831_1
     RDKit          3D

 43 48  0  0  0  0  0  0  0  0999 V2000
    2.3490   -7.6010   23.2520 O   0  0  0  0  0  0  0  0  0  0  0  0
    2.5960   -7.8420   24.6220 C   0  0  0  0  0  0  0  0  0  0  0  0
    3.9940   -7.8840   24.7940 O   0  0  0  0  0  0  0  0  0  0  0  0
    4.6650   -7.1460   23.7710 C   0  0  0  0  0  0  0  0  0  0  0  0
    5.0520   -5.9390   24.2580 C   0  0  0  0  0  0  0  0  0  0  0  0
    6.1660   -5.5810   23.3250 C   0  0  2  0  0  0  0  0  0  0  0  0
    5.9660   -4.6420   22.4280 C   0  0  2  0  0  0  0  0  0  0  0  0
    6.1920   -6.2340   22.0580 C   0  0  0  0  0  0  0  0  0  0  0  0
    7.0060   -3.5350   22.2560 C   0  0  2  0  0  0  0  0  0  0  0  0
    7.2250   -2.6130   23.4880 C   0  0  0  0  0  0  0  0  0  0  0  0
    6.8010   -2.7970   21.0580 N   0  0  0  0  0  0  0  0  0  0  0  0
    6.4220   -3.3150   19.8460 C   0  0  0  0  0  0  0  0  0  0  0  0
    8.2570   -1.5910   23.2590 N   0  0  0  0  0  0  0  0  0  0  0  0
    7.1270   -1.3820   21.1490 C   0  0  1  0  0  0  0  0  0  0  0  0
    7.3430   -2.9960   18.7020 C   0  0  0  0  0  0  0  0  0  0  0  0
    5.4330   -4.0420   19.6820 O   0  0  0  0  0  0  0  0  0  0  0  0
    5.8110   -0.4600   21.3390 C   0  0  1  0  0  0  0  0  0  0  0  0
    9.5120   -1.8900   23.9630 C   0  0  1  0  0  0  0  0  0  0  0  0
    8.3470   -1.1440   21.8610 C   0  0  0  0  0  0  0  0  0  0  0  0
    5.7620    0.5020   22.5710 C   0  0  0  0  0  0  0  0  0  0  0  0
    9.9120   -3.3840   23.8910 C   0  0  0  0  0  0  0  0  0  0  0  0
    5.6020    0.2830   20.0450 C   0  0  0  0  0  0  0  0  0  0  0  0
   10.6120   -0.8420   23.6420 C   0  0  0  0  0  0  0  0  0  0  0  0
    4.7470    1.7010   22.4320 C   0  0  2  0  0  0  0  0  0  0  0  0
    4.6440    1.2360   19.9630 C   0  0  0  0  0  0  0  0  0  0  0  0
    6.4230    0.0120   18.8230 C   0  0  0  0  0  0  0  0  0  0  0  0
   10.3260    0.4130   24.2060 C   0  0  0  0  0  0  0  0  0  0  0  0
   11.8380   -0.9610   22.8790 C   0  0  0  0  0  0  0  0  0  0  0  0
    9.3260   -4.1340   25.0470 C   0  0  0  0  0  0  0  0  0  0  0  0
    3.8860    1.8990   23.6120 N   0  0  0  0  0  0  0  0  0  0  0  0
    3.8580    1.4790   21.1990 C   0  0  0  0  0  0  0  0  0  0  0  0
   12.3370   -2.1890   22.1880 C   0  0  0  0  0  0  0  0  0  0  0  0
    4.5320    1.8840   18.6800 C   0  0  0  0  0  0  0  0  0  0  0  0
    6.2640    0.6500   17.6740 N   0  0  0  0  0  0  0  0  0  0  0  0
   11.1340    1.5220   24.0720 C   0  0  0  0  0  0  0  0  0  0  0  0
   12.6280    0.1940   22.7850 C   0  0  0  0  0  0  0  0  0  0  0  0
    9.8560   -5.3760   25.2770 C   0  0  0  0  0  0  0  0  0  0  0  0
    8.1020   -3.8160   26.2220 S   0  0  0  0  0  0  0  0  0  0  0  0
    5.3030    1.6020   17.6000 C   0  0  0  0  0  0  0  0  0  0  0  0
   12.2820    1.3810   23.3590 C   0  0  0  0  0  0  0  0  0  0  0  0
    9.2920   -6.0360   26.3770 C   0  0  0  0  0  0  0  0  0  0  0  0
    8.3190   -5.3220   27.0040 C   0  0  0  0  0  0  0  0  0  0  0  0
    7.3880   -5.7590   28.3690 Cl  0  0  0  0  0  0  0  0  0  0  0  0
  1  2  1  0
  2  3  1  0
  3  4  1  0
  4  5  1  0
  6  5  1  1
  6  7  1  0
  6  8  1  0
  7  8  1  6
  7  9  1  0
  9 10  1  1
  9 11  1  0
 11 12  1  0
 10 13  1  0
 11 14  1  0
 12 15  1  0
 12 16  2  0
 14 17  1  0
 13 18  1  0
 13 19  1  0
 14 19  1  1
 17 20  1  1
 18 21  1  6
 17 22  1  0
 18 23  1  0
 20 24  1  0
 22 25  2  0
 22 26  1  0
 23 27  2  0
 23 28  1  0
 21 29  1  0
 24 30  1  1
 24 31  1  0
 25 31  1  0
 28 32  1  0
 25 33  1  0
 26 34  2  0
 27 35  1  0
 28 36  2  0
 29 37  2  0
 29 38  1  0
 33 39  2  0
 34 39  1  0
 35 40  2  0
 36 40  1  0
 37 41  1  0
 38 42  1  0
 41 42  2  0
 42 43  1  0
M  END
