x1412_1-x0397_0-x1385_1-x1334_0-x0831_1-x0434_2-x1334_1-x0770_1-x1418_1-x1374_1-x0692_1-x0831_0
     RDKit          3D

 39 43  0  0  0  0  0  0  0  0999 V2000
    1.9620   -7.0820   23.8370 O   0  0  0  0  0  0  0  0  0  0  0  0
    2.3070   -8.0580   24.8050 C   0  0  0  0  0  0  0  0  0  0  0  0
    3.7120   -8.1000   24.9670 O   0  0  0  0  0  0  0  0  0  0  0  0
    4.3750   -7.3690   23.9540 C   0  0  0  0  0  0  0  0  0  0  0  0
    4.6300   -6.0470   24.3610 C   0  0  0  0  0  0  0  0  0  0  0  0
    5.7120   -5.6520   23.4140 C   0  0  2  0  0  0  0  0  0  0  0  0
    5.5580   -4.5830   22.4810 C   0  0  2  0  0  0  0  0  0  0  0  0
    5.8210   -6.1730   22.0710 C   0  0  0  0  0  0  0  0  0  0  0  0
    6.5710   -3.5110   22.5010 C   0  0  2  0  0  0  0  0  0  0  0  0
    6.6390   -2.7480   21.2590 N   0  0  0  0  0  0  0  0  0  0  0  0
    7.7780   -4.0000   22.9550 C   0  0  0  0  0  0  0  0  0  0  0  0
    6.4190   -3.2900   19.9630 C   0  0  0  0  0  0  0  0  0  0  0  0
    8.6360   -2.8730   23.2760 N   0  0  0  0  0  0  0  0  0  0  0  0
    7.4940   -1.5790   21.5810 C   0  0  2  0  0  0  0  0  0  0  0  0
    7.3990   -2.9710   18.8420 C   0  0  0  0  0  0  0  0  0  0  0  0
    5.4650   -4.0580   19.7400 O   0  0  0  0  0  0  0  0  0  0  0  0
    9.7090   -3.1750   24.0250 C   0  0  1  0  0  0  0  0  0  0  0  0
    7.6460   -0.6140   20.5610 N   0  0  0  0  0  0  0  0  0  0  0  0
    8.8420   -2.0370   22.1150 C   0  0  0  0  0  0  0  0  0  0  0  0
   10.0960   -1.9710   24.8420 C   0  0  0  0  0  0  0  0  0  0  0  0
    9.3960   -4.1940   25.0570 C   0  0  0  0  0  0  0  0  0  0  0  0
    6.6970    0.1070   19.9110 C   0  0  0  0  0  0  0  0  0  0  0  0
    9.8630   -5.4300   25.3050 C   0  0  0  0  0  0  0  0  0  0  0  0
    8.1820   -3.8660   26.2750 S   0  0  0  0  0  0  0  0  0  0  0  0
   10.8930   -0.8520   24.2170 C   0  0  0  0  0  0  0  0  0  0  0  0
    6.9820    0.2190   18.4460 C   0  0  0  0  0  0  0  0  0  0  0  0
    5.5510    0.7200   20.4450 C   0  0  0  0  0  0  0  0  0  0  0  0
    9.3200   -6.0740   26.3730 C   0  0  0  0  0  0  0  0  0  0  0  0
    8.3620   -5.3800   27.0510 C   0  0  0  0  0  0  0  0  0  0  0  0
   10.3940    0.4260   24.4910 C   0  0  0  0  0  0  0  0  0  0  0  0
   12.1930   -0.9840   23.3300 C   0  0  0  0  0  0  0  0  0  0  0  0
    6.1520    0.9400   17.5060 N   0  0  0  0  0  0  0  0  0  0  0  0
    4.6900    1.4370   19.6270 C   0  0  0  0  0  0  0  0  0  0  0  0
    7.4350   -5.8140   28.4210 Cl  0  0  0  0  0  0  0  0  0  0  0  0
   12.8320   -2.2890   22.9450 C   0  0  0  0  0  0  0  0  0  0  0  0
   10.9770    1.5900   24.0380 C   0  0  0  0  0  0  0  0  0  0  0  0
   12.8810    0.2980   22.8120 C   0  0  0  0  0  0  0  0  0  0  0  0
    4.9870    1.5670   18.1130 C   0  0  0  0  0  0  0  0  0  0  0  0
   12.2310    1.6170   23.1940 C   0  0  0  0  0  0  0  0  0  0  0  0
  1  2  1  0
  2  3  1  0
  3  4  1  0
  4  5  1  0
  6  5  1  6
  6  7  1  0
  6  8  1  0
  7  8  1  6
  7  9  1  0
  9 10  1  0
  9 11  1  6
 10 12  1  0
 11 13  1  0
 10 14  1  0
 12 15  1  0
 12 16  2  0
 13 17  1  0
 14 18  1  6
 13 19  1  0
 14 19  1  0
 17 20  1  1
 17 21  1  0
 18 22  1  0
 21 23  2  0
 21 24  1  0
 20 25  1  0
 22 26  2  0
 22 27  1  0
 23 28  1  0
 24 29  1  0
 28 29  2  0
 25 30  2  0
 25 31  1  0
 26 32  1  0
 27 33  2  0
 29 34  1  0
 31 35  1  0
 30 36  1  0
 31 37  2  0
 32 38  2  0
 33 38  1  0
 36 39  2  0
 37 39  1  0
M  END
