x1412_1-x1385_1-x0434_2-x1334_1-x0770_1-x1374_1-x1418_1-x0692_1-x1334_0-x0831_0-x0831_1-x0397_0
     RDKit          3D

 39 43  0  0  0  0  0  0  0  0999 V2000
    1.9840   -7.2600   23.7410 O   0  0  0  0  0  0  0  0  0  0  0  0
    2.3840   -8.0050   24.8740 C   0  0  0  0  0  0  0  0  0  0  0  0
    3.7950   -8.0390   24.9500 O   0  0  0  0  0  0  0  0  0  0  0  0
    4.4020   -7.3170   23.8950 C   0  0  0  0  0  0  0  0  0  0  0  0
    4.6620   -6.0900   24.2660 C   0  0  0  0  0  0  0  0  0  0  0  0
    5.7440   -5.6750   23.3190 C   0  0  2  0  0  0  0  0  0  0  0  0
    5.5400   -4.5990   22.3880 C   0  0  2  0  0  0  0  0  0  0  0  0
    5.8660   -6.1970   22.0650 C   0  0  0  0  0  0  0  0  0  0  0  0
    6.5690   -3.5140   22.4580 C   0  0  2  0  0  0  0  0  0  0  0  0
    6.5400   -2.6280   21.3060 N   0  0  0  0  0  0  0  0  0  0  0  0
    7.8350   -3.9770   22.7560 C   0  0  0  0  0  0  0  0  0  0  0  0
    6.4250   -3.2510   20.0130 C   0  0  0  0  0  0  0  0  0  0  0  0
    8.6650   -2.8610   23.2070 N   0  0  0  0  0  0  0  0  0  0  0  0
    7.4720   -1.4840   21.6110 C   0  0  2  0  0  0  0  0  0  0  0  0
    7.3940   -2.9580   18.8700 C   0  0  0  0  0  0  0  0  0  0  0  0
    5.5260   -4.0930   19.7820 O   0  0  0  0  0  0  0  0  0  0  0  0
    9.7240   -3.2720   23.9380 C   0  0  1  0  0  0  0  0  0  0  0  0
    7.7710   -0.7070   20.4530 N   0  0  0  0  0  0  0  0  0  0  0  0
    8.8690   -1.8840   22.1710 C   0  0  0  0  0  0  0  0  0  0  0  0
   10.1180   -2.0840   24.8380 C   0  0  0  0  0  0  0  0  0  0  0  0
    9.3760   -4.2390   25.0450 C   0  0  0  0  0  0  0  0  0  0  0  0
    6.8450   -0.0100   19.7310 C   0  0  0  0  0  0  0  0  0  0  0  0
    9.8770   -5.4920   25.3240 C   0  0  0  0  0  0  0  0  0  0  0  0
    8.1500   -3.7930   26.2060 S   0  0  0  0  0  0  0  0  0  0  0  0
   10.8790   -0.9290   24.2130 C   0  0  0  0  0  0  0  0  0  0  0  0
    7.0450    0.2240   18.4170 C   0  0  0  0  0  0  0  0  0  0  0  0
    5.5470    0.5670   20.2750 C   0  0  0  0  0  0  0  0  0  0  0  0
    9.3630   -6.1350   26.4050 C   0  0  0  0  0  0  0  0  0  0  0  0
    8.2910   -5.3200   27.1170 C   0  0  0  0  0  0  0  0  0  0  0  0
   10.3170    0.4120   24.5530 C   0  0  0  0  0  0  0  0  0  0  0  0
   12.0840   -0.9690   23.3470 C   0  0  0  0  0  0  0  0  0  0  0  0
    6.1380    0.9550   17.5790 N   0  0  0  0  0  0  0  0  0  0  0  0
    4.7420    1.2380   19.4550 C   0  0  0  0  0  0  0  0  0  0  0  0
    7.3440   -5.6690   28.4950 Cl  0  0  0  0  0  0  0  0  0  0  0  0
   12.7230   -2.2560   22.9300 C   0  0  0  0  0  0  0  0  0  0  0  0
   11.0040    1.6340   24.0140 C   0  0  0  0  0  0  0  0  0  0  0  0
   12.7130    0.1300   22.8610 C   0  0  0  0  0  0  0  0  0  0  0  0
    5.0280    1.4390   18.1200 C   0  0  0  0  0  0  0  0  0  0  0  0
   12.2600    1.4860   23.1350 C   0  0  0  0  0  0  0  0  0  0  0  0
  1  2  1  0
  2  3  1  0
  3  4  1  0
  4  5  1  0
  6  5  1  6
  6  7  1  0
  6  8  1  0
  7  8  1  6
  7  9  1  0
  9 10  1  0
  9 11  1  6
 10 12  1  0
 11 13  1  0
 10 14  1  0
 12 15  1  0
 12 16  2  0
 13 17  1  0
 14 18  1  6
 13 19  1  0
 14 19  1  0
 17 20  1  1
 17 21  1  0
 18 22  1  0
 21 23  2  0
 21 24  1  0
 20 25  1  0
 22 26  2  0
 22 27  1  0
 23 28  1  0
 24 29  1  0
 28 29  2  0
 25 30  2  0
 25 31  1  0
 26 32  1  0
 27 33  2  0
 29 34  1  0
 31 35  1  0
 30 36  1  0
 31 37  2  0
 32 38  2  0
 33 38  1  0
 36 39  2  0
 37 39  1  0
M  END
