x1412_1-x1334_1-x0831_0-x1334_0
     RDKit          3D

 24 26  0  0  0  0  0  0  0  0999 V2000
    6.3890   -3.3420   19.8980 C   0  0  0  0  0  0  0  0  0  0  0  0
    7.3670   -3.0290   18.7760 C   0  0  0  0  0  0  0  0  0  0  0  0
    5.4730   -4.1660   19.7600 O   0  0  0  0  0  0  0  0  0  0  0  0
    6.5880   -2.6640   21.0750 N   0  0  0  0  0  0  0  0  0  0  0  0
    7.3380   -1.3990   21.1750 C   0  0  0  0  0  0  0  0  0  0  0  0
    6.6100   -3.5180   22.2870 C   0  0  0  0  0  0  0  0  0  0  0  0
    8.6890   -1.5070   21.9010 C   0  0  0  0  0  0  0  0  0  0  0  0
    7.9780   -3.4480   23.0250 C   0  0  0  0  0  0  0  0  0  0  0  0
    8.4800   -2.0740   23.2310 N   0  0  0  0  0  0  0  0  0  0  0  0
    9.6400   -1.9820   24.1250 C   0  0  1  0  0  0  0  0  0  0  0  0
   10.2880   -3.3010   24.2230 C   0  0  0  0  0  0  0  0  0  0  0  0
   10.5360   -0.7830   23.8570 C   0  0  0  0  0  0  0  0  0  0  0  0
    9.9860    0.4620   24.4290 C   0  0  0  0  0  0  0  0  0  0  0  0
   11.7600   -0.9590   23.1220 C   0  0  0  0  0  0  0  0  0  0  0  0
    9.6260   -4.1710   25.2330 C   0  0  0  0  0  0  0  0  0  0  0  0
   12.2630   -2.2510   22.5570 C   0  0  0  0  0  0  0  0  0  0  0  0
   11.0330    1.5230   24.0490 C   0  0  0  0  0  0  0  0  0  0  0  0
   12.7000    0.2130   22.8350 C   0  0  0  0  0  0  0  0  0  0  0  0
    9.9390   -5.5930   25.5540 C   0  0  0  0  0  0  0  0  0  0  0  0
    8.3060   -3.7270   26.3000 S   0  0  0  0  0  0  0  0  0  0  0  0
   12.2800    1.5440   23.3460 C   0  0  0  0  0  0  0  0  0  0  0  0
    9.2490   -6.1420   26.4760 C   0  0  0  0  0  0  0  0  0  0  0  0
    8.2190   -5.2620   27.0910 C   0  0  0  0  0  0  0  0  0  0  0  0
    7.0910   -5.6220   28.3660 Cl  0  0  0  0  0  0  0  0  0  0  0  0
  1  2  1  0
  1  3  2  0
  1  4  1  0
  4  5  1  0
  4  6  1  0
  5  7  1  0
  6  8  1  0
  7  9  1  0
  8  9  1  0
  9 10  1  0
 10 11  1  6
 10 12  1  0
 12 13  2  0
 12 14  1  0
 11 15  1  0
 14 16  1  0
 13 17  1  0
 14 18  2  0
 15 19  2  0
 15 20  1  0
 17 21  2  0
 18 21  1  0
 19 22  1  0
 20 23  1  0
 22 23  2  0
 23 24  1  0
M  END
