x1418_1-x1418_0-x0540_3
     RDKit          3D

 21 22  0  0  0  0  0  0  0  0999 V2000
    6.3580   -3.3120   19.8950 C   0  0  0  0  0  0  0  0  0  0  0  0
    7.3880   -3.0140   18.8120 C   0  0  0  0  0  0  0  0  0  0  0  0
    5.4360   -4.1150   19.7380 O   0  0  0  0  0  0  0  0  0  0  0  0
    6.5380   -2.6340   21.1120 N   0  0  0  0  0  0  0  0  0  0  0  0
    6.5170   -3.3820   22.2340 C   0  0  0  0  0  0  0  0  0  0  0  0
    7.2730   -1.3750   21.2810 C   0  0  1  0  0  0  0  0  0  0  0  0
    6.6090   -0.4400   22.3140 C   0  0  0  0  0  0  0  0  0  0  0  0
    7.9040   -3.5720   22.8620 C   0  0  0  0  0  0  0  0  0  0  0  0
    8.7170   -1.6300   21.6940 C   0  0  0  0  0  0  0  0  0  0  0  0
    5.3530    0.3110   21.8490 C   0  0  0  0  0  0  0  0  0  0  0  0
    8.7450   -2.3530   22.9750 N   0  0  0  0  0  0  0  0  0  0  0  0
    5.2860    1.7020   22.4910 C   0  0  0  0  0  0  0  0  0  0  0  0
   10.1170   -2.7330   23.3210 C   0  0  0  0  0  0  0  0  0  0  0  0
    3.9560    2.3140   22.3670 N   0  0  0  0  0  0  0  0  0  0  0  0
   11.0550   -1.5770   23.2140 C   0  0  0  0  0  0  0  0  0  0  0  0
    2.9670    2.2540   23.4450 C   0  0  0  0  0  0  0  0  0  0  0  0
   12.4050   -1.5290   22.9260 C   0  0  0  0  0  0  0  0  0  0  0  0
   10.4850    0.0220   23.4620 S   0  0  0  0  0  0  0  0  0  0  0  0
    2.9550    1.4930   24.4120 O   0  0  0  0  0  0  0  0  0  0  0  0
   12.9950   -0.2500   22.9040 C   0  0  0  0  0  0  0  0  0  0  0  0
   12.0480    0.6780   23.1850 C   0  0  0  0  0  0  0  0  0  0  0  0
  1  2  1  0
  1  3  2  0
  1  4  1  0
  4  5  1  0
  4  6  1  0
  6  7  1  1
  5  8  1  0
  6  9  1  0
  7 10  1  0
  8 11  1  0
  9 11  1  0
 10 12  1  0
 11 13  1  0
 12 14  1  0
 13 15  1  0
 14 16  1  0
 15 17  2  0
 15 18  1  0
 16 19  2  0
 17 20  1  0
 18 21  1  0
 20 21  2  0
M  END
