x1418_1-x0831_0-x0692_1-x0540_3-x1334_1-x0397_0-x1374_1-x0831_1-x1385_1-x0770_1
     RDKit          3D

 31 33  0  0  0  0  0  0  0  0999 V2000
    2.2800   -7.7330   23.1980 O   0  0  0  0  0  0  0  0  0  0  0  0
    2.5480   -7.8730   24.5760 C   0  0  0  0  0  0  0  0  0  0  0  0
    3.9360   -7.8950   24.7950 O   0  0  0  0  0  0  0  0  0  0  0  0
    4.6530   -7.1670   23.8060 C   0  0  0  0  0  0  0  0  0  0  0  0
    5.0270   -5.9300   24.2620 C   0  0  0  0  0  0  0  0  0  0  0  0
    6.0950   -5.4810   23.3280 C   0  0  2  0  0  0  0  0  0  0  0  0
    5.7380   -4.7430   22.1040 C   0  0  2  0  0  0  0  0  0  0  0  0
    6.4960   -6.2340   22.1670 C   0  0  0  0  0  0  0  0  0  0  0  0
    6.3700   -3.3640   22.3900 C   0  0  1  0  0  0  0  0  0  0  0  0
    7.8800   -3.4750   22.9100 C   0  0  0  0  0  0  0  0  0  0  0  0
    6.3860   -2.5540   21.2180 N   0  0  0  0  0  0  0  0  0  0  0  0
    6.2990   -3.2060   19.9520 C   0  0  0  0  0  0  0  0  0  0  0  0
    8.6120   -2.2050   22.9610 N   0  0  0  0  0  0  0  0  0  0  0  0
    7.0270   -1.2450   21.4750 C   0  0  2  0  0  0  0  0  0  0  0  0
    7.3180   -2.9620   18.8570 C   0  0  0  0  0  0  0  0  0  0  0  0
    5.4020   -4.0420   19.7110 O   0  0  0  0  0  0  0  0  0  0  0  0
    6.6740   -0.0510   20.5190 C   0  0  0  0  0  0  0  0  0  0  0  0
   10.0100   -2.4030   23.3980 C   0  0  0  0  0  0  0  0  0  0  0  0
    8.4220   -1.4690   21.6670 C   0  0  0  0  0  0  0  0  0  0  0  0
    5.2690    0.5240   20.8240 C   0  0  0  0  0  0  0  0  0  0  0  0
   10.7760   -1.0790   23.4430 C   0  0  0  0  0  0  0  0  0  0  0  0
    5.3160    1.1920   22.2110 C   0  0  0  0  0  0  0  0  0  0  0  0
   10.2070    0.0250   24.0620 C   0  0  0  0  0  0  0  0  0  0  0  0
   12.1890   -0.8570   22.8140 C   0  0  0  0  0  0  0  0  0  0  0  0
    4.3150    2.2750   22.4200 N   0  0  0  0  0  0  0  0  0  0  0  0
   12.9120   -1.9590   22.1060 C   0  0  0  0  0  0  0  0  0  0  0  0
   10.9260    1.4020   24.1140 C   0  0  0  0  0  0  0  0  0  0  0  0
   12.8950    0.3070   22.8210 C   0  0  0  0  0  0  0  0  0  0  0  0
    3.2110    2.1310   23.2320 C   0  0  0  0  0  0  0  0  0  0  0  0
   12.1960    1.4910   23.5120 C   0  0  0  0  0  0  0  0  0  0  0  0
    3.0600    1.2560   24.0700 O   0  0  0  0  0  0  0  0  0  0  0  0
  1  2  1  0
  2  3  1  0
  3  4  1  0
  4  5  1  0
  6  5  1  6
  6  7  1  0
  6  8  1  0
  7  8  1  6
  7  9  1  0
  9 10  1  6
  9 11  1  0
 11 12  1  0
 10 13  1  0
 11 14  1  0
 12 15  1  0
 12 16  2  0
 14 17  1  6
 13 18  1  0
 13 19  1  0
 14 19  1  0
 17 20  1  0
 18 21  1  0
 20 22  1  0
 21 23  2  0
 21 24  1  0
 22 25  1  0
 24 26  1  0
 23 27  1  0
 24 28  2  0
 25 29  1  0
 27 30  2  0
 28 30  1  0
 29 31  2  0
M  END
