x1412_0-x1386_1-x1334_1
     RDKit          3D

 16 17  0  0  0  0  0  0  0  0999 V2000
    6.4100   -3.1200   19.8230 C   0  0  0  0  0  0  0  0  0  0  0  0
    7.3360   -2.9400   18.6550 C   0  0  0  0  0  0  0  0  0  0  0  0
    5.4730   -3.9280   19.6600 O   0  0  0  0  0  0  0  0  0  0  0  0
    6.6640   -2.4280   21.0120 N   0  0  0  0  0  0  0  0  0  0  0  0
    7.7630   -1.4380   21.2030 C   0  0  0  0  0  0  0  0  0  0  0  0
    6.2660   -3.1290   22.2180 C   0  0  0  0  0  0  0  0  0  0  0  0
    8.8600   -1.8230   22.2420 C   0  0  0  0  0  0  0  0  0  0  0  0
    7.4820   -3.7820   22.8410 C   0  0  0  0  0  0  0  0  0  0  0  0
    8.4080   -2.7600   23.2900 N   0  0  0  0  0  0  0  0  0  0  0  0
    8.5020   -2.4740   24.6650 C   0  0  0  0  0  0  0  0  0  0  0  0
    8.4680   -1.1580   25.1380 O   0  0  0  0  0  0  0  0  0  0  0  0
    8.6160   -3.6400   25.5430 C   0  0  0  0  0  0  0  0  0  0  0  0
    9.4280   -4.7420   25.3490 C   0  0  0  0  0  0  0  0  0  0  0  0
    7.6850   -3.7480   27.0000 S   0  0  0  0  0  0  0  0  0  0  0  0
    9.3330   -5.7310   26.3730 C   0  0  0  0  0  0  0  0  0  0  0  0
    8.3250   -5.2760   27.4400 C   0  0  0  0  0  0  0  0  0  0  0  0
  1  2  1  0
  1  3  2  0
  1  4  1  0
  4  5  1  0
  4  6  1  0
  5  7  1  0
  6  8  1  0
  7  9  1  0
  8  9  1  0
  9 10  1  0
 10 11  2  0
 10 12  1  0
 12 13  2  0
 12 14  1  0
 13 15  1  0
 14 16  1  0
 15 16  2  0
M  END
