x1418_1-x0831_0-x1334_0-x1334_1-x0426_1-x1412_1-x0692_1-x0434_2-x1375_1-x0397_0-x1385_1
     RDKit          3D

 42 47  0  0  0  0  0  0  0  0999 V2000
    2.8170   -6.7730   24.2050 O   0  0  0  0  0  0  0  0  0  0  0  0
    3.6320   -6.3680   25.2940 C   0  0  0  0  0  0  0  0  0  0  0  0
    5.0030   -6.7130   25.1320 O   0  0  0  0  0  0  0  0  0  0  0  0
    5.8060   -5.6540   24.5680 C   0  0  0  0  0  0  0  0  0  0  0  0
    5.2630   -5.3810   23.2140 C   0  0  1  0  0  0  0  0  0  0  0  0
    5.6560   -4.5570   22.0850 C   0  0  2  0  0  0  0  0  0  0  0  0
    5.7340   -6.0670   22.0290 C   0  0  0  0  0  0  0  0  0  0  0  0
    6.9880   -3.7660   22.0150 C   0  0  2  0  0  0  0  0  0  0  0  0
    7.6600   -3.1700   23.2630 C   0  0  0  0  0  0  0  0  0  0  0  0
    6.6750   -2.7140   21.0820 N   0  0  0  0  0  0  0  0  0  0  0  0
    6.3780   -3.2300   19.8210 C   0  0  0  0  0  0  0  0  0  0  0  0
    8.8760   -2.4910   22.7440 N   0  0  0  0  0  0  0  0  0  0  0  0
    7.3330   -1.3680   21.2290 C   0  0  1  0  0  0  0  0  0  0  0  0
    7.3070   -2.9570   18.6700 C   0  0  0  0  0  0  0  0  0  0  0  0
    5.3990   -3.9720   19.6370 O   0  0  0  0  0  0  0  0  0  0  0  0
    6.5190   -0.0800   21.4290 C   0  0  2  0  0  0  0  0  0  0  0  0
   10.0750   -2.4570   23.5930 C   0  0  2  0  0  0  0  0  0  0  0  0
    8.4510   -1.2260   22.1150 C   0  0  0  0  0  0  0  0  0  0  0  0
    5.2210   -0.1860   22.3050 C   0  0  0  0  0  0  0  0  0  0  0  0
    9.8020   -2.6040   25.0430 C   0  0  0  0  0  0  0  0  0  0  0  0
    6.0850    0.4640   20.0980 C   0  0  0  0  0  0  0  0  0  0  0  0
   10.9020   -1.1700   23.4940 C   0  0  0  0  0  0  0  0  0  0  0  0
    4.5210    1.2080   22.5230 C   0  0  2  0  0  0  0  0  0  0  0  0
    4.8650    1.2760   20.0470 C   0  0  0  0  0  0  0  0  0  0  0  0
    6.8580    0.2080   18.8320 C   0  0  0  0  0  0  0  0  0  0  0  0
   10.3070   -0.0870   24.1540 C   0  0  0  0  0  0  0  0  0  0  0  0
   12.1340   -0.9780   22.8390 C   0  0  0  0  0  0  0  0  0  0  0  0
    9.4100   -3.8770   25.7060 C   0  0  0  0  0  0  0  0  0  0  0  0
    3.5150    1.2670   23.5660 N   0  0  0  0  0  0  0  0  0  0  0  0
    3.9540    1.6260   21.1760 C   0  0  0  0  0  0  0  0  0  0  0  0
   12.8430   -2.0620   22.0960 C   0  0  0  0  0  0  0  0  0  0  0  0
    4.5260    1.7960   18.7160 C   0  0  0  0  0  0  0  0  0  0  0  0
    6.3440    0.8200   17.6230 N   0  0  0  0  0  0  0  0  0  0  0  0
   10.8980    1.1640   24.1720 C   0  0  0  0  0  0  0  0  0  0  0  0
   12.7490    0.2850   22.8600 C   0  0  0  0  0  0  0  0  0  0  0  0
    9.9240   -5.1470   25.6030 C   0  0  0  0  0  0  0  0  0  0  0  0
    8.1080   -3.8800   26.8410 S   0  0  0  0  0  0  0  0  0  0  0  0
    5.2110    1.5930   17.5960 C   0  0  0  0  0  0  0  0  0  0  0  0
   12.1260    1.3450   23.5210 C   0  0  0  0  0  0  0  0  0  0  0  0
    9.2060   -6.1210   26.5340 C   0  0  0  0  0  0  0  0  0  0  0  0
    8.2040   -5.5040   27.2530 C   0  0  0  0  0  0  0  0  0  0  0  0
    7.1130   -6.0990   28.4300 Cl  0  0  0  0  0  0  0  0  0  0  0  0
  1  2  1  0
  2  3  1  0
  3  4  1  0
  5  4  1  1
  5  6  1  0
  5  7  1  0
  6  7  1  6
  6  8  1  0
  8  9  1  1
  8 10  1  0
 10 11  1  0
  9 12  1  0
 10 13  1  0
 11 14  1  0
 11 15  2  0
 13 16  1  0
 12 17  1  0
 12 18  1  0
 13 18  1  1
 16 19  1  1
 17 20  1  1
 16 21  1  0
 17 22  1  0
 19 23  1  0
 21 24  2  0
 21 25  1  0
 22 26  2  0
 22 27  1  0
 20 28  1  0
 23 29  1  1
 23 30  1  0
 24 30  1  0
 27 31  1  0
 24 32  1  0
 25 33  2  0
 26 34  1  0
 27 35  2  0
 28 36  2  0
 28 37  1  0
 32 38  2  0
 33 38  1  0
 34 39  2  0
 35 39  1  0
 36 40  1  0
 37 41  1  0
 40 41  2  0
 41 42  1  0
M  END
