x1418_1-x1386_1-x0397_0-x1385_1-x0426_1-x0831_0-x0434_2-x1375_1-x1334_1-x1412_1-x0692_1-x0770_1
     RDKit          3D

 35 39  0  0  0  0  0  0  0  0999 V2000
    3.2270   -8.0820   24.6190 O   0  0  0  0  0  0  0  0  0  0  0  0
    3.8710   -6.9010   24.2210 C   0  0  0  0  0  0  0  0  0  0  0  0
    4.9660   -6.6110   25.0820 O   0  0  0  0  0  0  0  0  0  0  0  0
    5.8220   -5.6020   24.5260 C   0  0  0  0  0  0  0  0  0  0  0  0
    5.3860   -5.5140   23.1010 C   0  0  1  0  0  0  0  0  0  0  0  0
    5.8620   -4.7200   22.0430 C   0  0  2  0  0  0  0  0  0  0  0  0
    5.9600   -6.3150   22.0390 C   0  0  0  0  0  0  0  0  0  0  0  0
    7.1340   -3.8510   21.9710 C   0  0  2  0  0  0  0  0  0  0  0  0
    7.8590   -3.4720   23.2800 C   0  0  0  0  0  0  0  0  0  0  0  0
    6.6660   -2.7070   21.1660 N   0  0  0  0  0  0  0  0  0  0  0  0
    6.4140   -3.1330   19.8390 C   0  0  0  0  0  0  0  0  0  0  0  0
    8.7760   -2.2980   23.1850 N   0  0  0  0  0  0  0  0  0  0  0  0
    7.1470   -1.4470   21.7900 C   0  0  2  0  0  0  0  0  0  0  0  0
    7.4010   -2.8860   18.7150 C   0  0  0  0  0  0  0  0  0  0  0  0
    5.4080   -3.8230   19.5850 O   0  0  0  0  0  0  0  0  0  0  0  0
    6.4940   -0.0450   21.6400 C   0  0  2  0  0  0  0  0  0  0  0  0
   10.2010   -2.5000   23.4640 C   0  0  0  0  0  0  0  0  0  0  0  0
    8.5580   -1.5200   21.9570 C   0  0  0  0  0  0  0  0  0  0  0  0
    5.3020    0.1220   22.6110 C   0  0  0  0  0  0  0  0  0  0  0  0
    6.0620    0.4310   20.2300 C   0  0  0  0  0  0  0  0  0  0  0  0
   10.8930   -1.1540   23.5020 C   0  0  0  0  0  0  0  0  0  0  0  0
    4.5970    1.5150   22.5150 C   0  0  2  0  0  0  0  0  0  0  0  0
    4.8100    1.3420   20.0560 C   0  0  0  0  0  0  0  0  0  0  0  0
    6.8400    0.0440   19.0600 C   0  0  0  0  0  0  0  0  0  0  0  0
   10.2550   -0.1560   24.1800 C   0  0  0  0  0  0  0  0  0  0  0  0
   12.1360   -0.9410   22.8520 C   0  0  0  0  0  0  0  0  0  0  0  0
    3.5830    1.6510   23.5310 N   0  0  0  0  0  0  0  0  0  0  0  0
    3.9250    1.8080   21.1610 C   0  0  0  0  0  0  0  0  0  0  0  0
   12.8480   -2.0160   22.0960 C   0  0  0  0  0  0  0  0  0  0  0  0
    4.5780    1.7000   18.8160 C   0  0  0  0  0  0  0  0  0  0  0  0
    6.5230    0.4590   17.8320 N   0  0  0  0  0  0  0  0  0  0  0  0
   10.8940    1.1410   24.2020 C   0  0  0  0  0  0  0  0  0  0  0  0
   12.7170    0.3130   22.9090 C   0  0  0  0  0  0  0  0  0  0  0  0
    5.4590    1.2510   17.6980 C   0  0  0  0  0  0  0  0  0  0  0  0
   12.1050    1.3360   23.5670 C   0  0  0  0  0  0  0  0  0  0  0  0
  1  2  1  0
  2  3  1  0
  3  4  1  0
  5  4  1  1
  5  6  1  0
  5  7  1  0
  6  7  1  6
  6  8  1  0
  8  9  1  1
  8 10  1  0
 10 11  1  0
  9 12  1  0
 10 13  1  0
 11 14  1  0
 11 15  2  0
 13 16  1  0
 12 17  1  0
 12 18  1  0
 13 18  1  6
 16 19  1  1
 16 20  1  0
 17 21  1  0
 19 22  1  0
 20 23  2  0
 20 24  1  0
 21 25  2  0
 21 26  1  0
 22 27  1  1
 22 28  1  0
 23 28  1  0
 26 29  1  0
 23 30  1  0
 24 31  2  0
 25 32  1  0
 26 33  2  0
 30 34  2  0
 31 34  1  0
 32 35  2  0
 33 35  1  0
M  END
