x1412_1-x1334_1
     RDKit          3D

  9  9  0  0  0  0  0  0  0  0999 V2000
    6.3440   -3.4030   19.9330 C   0  0  0  0  0  0  0  0  0  0  0  0
    7.2560   -2.9980   18.7910 C   0  0  0  0  0  0  0  0  0  0  0  0
    5.3960   -4.1790   19.7630 O   0  0  0  0  0  0  0  0  0  0  0  0
    6.6510   -2.8790   21.1850 N   0  0  0  0  0  0  0  0  0  0  0  0
    7.6020   -1.7870   21.4580 C   0  0  0  0  0  0  0  0  0  0  0  0
    6.2660   -3.6320   22.3830 C   0  0  0  0  0  0  0  0  0  0  0  0
    8.8050   -2.2270   22.3050 C   0  0  0  0  0  0  0  0  0  0  0  0
    7.4740   -4.0490   23.1960 C   0  0  0  0  0  0  0  0  0  0  0  0
    8.3520   -2.9100   23.5340 N   0  0  0  0  0  0  0  0  0  0  0  0
  1  2  1  0
  1  3  2  0
  1  4  1  0
  4  5  1  0
  4  6  1  0
  5  7  1  0
  6  8  1  0
  7  9  1  0
  8  9  1  0
M  END
