x1412_0-x0771_0-x1375_2
     RDKit          3D

 17 18  0  0  0  0  0  0  0  0999 V2000
    6.4880   -4.2520   20.5010 C   0  0  0  0  0  0  0  0  0  0  0  0
    7.5440   -3.3600   19.8670 C   0  0  0  0  0  0  0  0  0  0  0  0
    5.4240   -4.4100   19.8940 O   0  0  0  0  0  0  0  0  0  0  0  0
    6.6970   -4.9480   21.6990 N   0  0  0  0  0  0  0  0  0  0  0  0
    5.9860   -6.2020   21.9400 C   0  0  0  0  0  0  0  0  0  0  0  0
    7.3130   -4.4510   22.9510 C   0  0  1  0  0  0  0  0  0  0  0  0
    8.1710   -3.1820   22.8840 C   0  0  0  0  0  0  0  0  0  0  0  0
    4.9520   -6.0700   23.0720 C   0  0  0  0  0  0  0  0  0  0  0  0
    6.2060   -4.1980   23.9930 C   0  0  0  0  0  0  0  0  0  0  0  0
    8.4140   -2.7340   24.3580 C   0  0  0  0  0  0  0  0  0  0  0  0
    5.4450   -5.4230   24.3080 N   0  0  0  0  0  0  0  0  0  0  0  0
    8.4780   -1.3950   24.8940 O   0  0  0  0  0  0  0  0  0  0  0  0
    8.6010   -3.8520   25.4130 C   0  0  0  0  0  0  0  0  0  0  0  0
    9.4560   -5.1090   25.3310 C   0  0  0  0  0  0  0  0  0  0  0  0
    7.8110   -3.8550   26.9600 S   0  0  0  0  0  0  0  0  0  0  0  0
    9.3840   -5.9180   26.4980 C   0  0  0  0  0  0  0  0  0  0  0  0
    8.5200   -5.3400   27.4570 C   0  0  0  0  0  0  0  0  0  0  0  0
  1  2  1  0
  1  3  2  0
  1  4  1  0
  4  5  1  0
  4  6  1  0
  6  7  1  6
  5  8  1  0
  6  9  1  0
  7 10  1  0
  8 11  1  0
  9 11  1  0
 10 12  2  0
 10 13  1  0
 13 14  2  0
 13 15  1  0
 14 16  1  0
 15 17  1  0
 16 17  2  0
M  END
