x1412_1-x0981_1-x0831_0-x0434_2-x1386_0-x1412_0
     RDKit          3D

 45 48  0  0  0  0  0  0  0  0999 V2000
    4.1680   -5.3540   23.1310 C   0  0  0  0  0  0  0  0  0  0  0  0
    2.8200   -6.0340   23.4770 C   0  0  1  0  0  0  0  0  0  0  0  0
    2.6350   -7.3860   22.9150 N   0  0  0  0  0  0  0  0  0  0  0  0
    4.3170   -4.1240   23.5200 N   0  0  0  0  0  0  0  0  0  0  0  0
    2.7270   -6.2330   24.9990 C   0  0  0  0  0  0  0  0  0  0  0  0
    5.4530   -3.1990   23.3480 C   0  0  0  0  0  0  0  0  0  0  0  0
    1.4500   -7.5840   22.1030 C   0  0  0  0  0  0  0  0  0  0  0  0
    3.1360   -7.6550   25.3320 C   0  0  0  0  0  0  0  0  0  0  0  0
    6.6300   -3.6400   22.4390 C   0  0  1  0  0  0  0  0  0  0  0  0
    1.2250   -8.7930   21.2400 C   0  0  0  0  0  0  0  0  0  0  0  0
    0.4530   -6.5710   22.1050 O   0  0  0  0  0  0  0  0  0  0  0  0
    2.5370   -8.2680   26.3910 N   0  0  0  0  0  0  0  0  0  0  0  0
    3.9740   -8.1990   24.6520 O   0  0  0  0  0  0  0  0  0  0  0  0
    6.6460   -2.7780   21.2190 N   0  0  0  0  0  0  0  0  0  0  0  0
    7.9090   -3.6810   23.0570 C   0  0  0  0  0  0  0  0  0  0  0  0
    6.4070   -3.3240   19.9420 C   0  0  0  0  0  0  0  0  0  0  0  0
    8.6010   -2.3550   23.0750 N   0  0  0  0  0  0  0  0  0  0  0  0
    7.4440   -1.5570   21.4530 C   0  0  2  0  0  0  0  0  0  0  0  0
    7.3710   -3.0240   18.8080 C   0  0  0  0  0  0  0  0  0  0  0  0
    5.4510   -4.0860   19.7320 O   0  0  0  0  0  0  0  0  0  0  0  0
    9.7260   -2.0380   23.9570 C   0  0  1  0  0  0  0  0  0  0  0  0
    7.6870   -0.6610   20.3830 N   0  0  0  0  0  0  0  0  0  0  0  0
    8.7010   -1.9210   21.7700 C   0  0  0  0  0  0  0  0  0  0  0  0
    9.1390   -1.6400   25.2580 C   0  0  0  0  0  0  0  0  0  0  0  0
   10.4510   -3.3760   24.0910 C   0  0  0  0  0  0  0  0  0  0  0  0
   10.7280   -0.8530   23.6240 C   0  0  0  0  0  0  0  0  0  0  0  0
    6.7430    0.0330   19.6960 C   0  0  0  0  0  0  0  0  0  0  0  0
    8.0030   -2.5590   25.6520 C   0  0  0  0  0  0  0  0  0  0  0  0
   10.1370    0.4310   24.3390 C   0  0  0  0  0  0  0  0  0  0  0  0
   11.9130   -0.9430   22.8650 C   0  0  0  0  0  0  0  0  0  0  0  0
    6.9520    0.3620   18.4080 C   0  0  0  0  0  0  0  0  0  0  0  0
    5.4110    0.5310   20.2060 C   0  0  0  0  0  0  0  0  0  0  0  0
   12.4700   -2.1510   22.1790 C   0  0  0  0  0  0  0  0  0  0  0  0
    6.8650   -2.1530   25.4940 O   0  0  0  0  0  0  0  0  0  0  0  0
   11.1450    1.4870   24.0080 C   0  0  0  0  0  0  0  0  0  0  0  0
   12.7910    0.2380   22.6610 C   0  0  0  0  0  0  0  0  0  0  0  0
    8.3360   -3.8380   26.2120 C   0  0  0  0  0  0  0  0  0  0  0  0
    6.1730    1.0360   17.5750 N   0  0  0  0  0  0  0  0  0  0  0  0
    4.5810    1.2500   19.3390 C   0  0  0  0  0  0  0  0  0  0  0  0
   12.4330    1.4320   23.2090 C   0  0  0  0  0  0  0  0  0  0  0  0
    9.0790   -4.9010   25.6560 C   0  0  0  0  0  0  0  0  0  0  0  0
    7.8360   -4.2670   27.8140 S   0  0  0  0  0  0  0  0  0  0  0  0
    5.0100    1.4760   18.0440 C   0  0  0  0  0  0  0  0  0  0  0  0
    9.2170   -5.9750   26.5070 C   0  0  0  0  0  0  0  0  0  0  0  0
    8.5960   -5.7930   27.7240 C   0  0  0  0  0  0  0  0  0  0  0  0
  2  1  1  1
  2  3  1  0
  1  4  2  3
  2  5  1  0
  4  6  1  0
  3  7  1  0
  5  8  1  0
  9  6  1  1
  7 10  1  0
  7 11  2  0
  8 12  1  0
  8 13  2  0
  9 14  1  0
  9 15  1  0
 14 16  1  0
 15 17  1  0
 14 18  1  0
 16 19  1  0
 16 20  2  0
 17 21  1  0
 18 22  1  6
 17 23  1  0
 18 23  1  0
 21 24  1  0
 21 25  1  1
 21 26  1  0
 22 27  1  0
 24 28  1  0
 26 29  2  0
 26 30  1  0
 27 31  2  0
 27 32  1  0
 30 33  1  0
 28 34  2  0
 29 35  1  0
 30 36  2  0
 28 37  1  0
 31 38  1  0
 32 39  2  0
 35 40  2  0
 36 40  1  0
 37 41  2  0
 37 42  1  0
 38 43  2  0
 39 43  1  0
 41 44  1  0
 42 45  1  0
 44 45  2  0
M  END
