x1412_0-x1418_0-x1418_1-x1334_1
     RDKit          3D

 23 25  0  0  0  0  0  0  0  0999 V2000
    6.3240   -3.2440   19.8660 C   0  0  0  0  0  0  0  0  0  0  0  0
    7.2830   -2.9460   18.7210 C   0  0  0  0  0  0  0  0  0  0  0  0
    5.3770   -4.0240   19.6720 O   0  0  0  0  0  0  0  0  0  0  0  0
    6.5370   -2.6830   21.1190 N   0  0  0  0  0  0  0  0  0  0  0  0
    6.1710   -3.4150   22.3270 C   0  0  0  0  0  0  0  0  0  0  0  0
    7.6000   -1.6350   21.3010 C   0  0  0  0  0  0  0  0  0  0  0  0
    7.4250   -4.0080   22.9610 C   0  0  0  0  0  0  0  0  0  0  0  0
    8.6140   -1.9960   22.2220 C   0  0  0  0  0  0  0  0  0  0  0  0
    8.1400   -2.8280   23.3730 N   0  0  0  0  0  0  0  0  0  0  0  0
    8.5820   -2.6700   24.7660 C   0  0  2  0  0  0  0  0  0  0  0  0
    7.7950   -1.6370   25.3690 O   0  0  0  0  0  0  0  0  0  0  0  0
    9.9510   -2.1630   24.9150 C   0  0  0  0  0  0  0  0  0  0  0  0
    8.6100   -3.8130   25.6780 C   0  0  0  0  0  0  0  0  0  0  0  0
   10.6970   -2.4890   23.8700 C   0  0  0  0  0  0  0  0  0  0  0  0
    9.4490   -4.9180   25.6550 C   0  0  0  0  0  0  0  0  0  0  0  0
    7.5520   -3.9990   27.0610 S   0  0  0  0  0  0  0  0  0  0  0  0
    9.3150   -5.8970   26.6390 C   0  0  0  0  0  0  0  0  0  0  0  0
    8.3200   -5.4830   27.4450 C   0  0  0  0  0  0  0  0  0  0  0  0
   11.4510   -1.2860   23.5910 C   0  0  0  0  0  0  0  0  0  0  0  0
   12.7130   -1.2060   22.7500 C   0  0  0  0  0  0  0  0  0  0  0  0
   11.0560    0.2800   24.1810 S   0  0  0  0  0  0  0  0  0  0  0  0
   13.2050    0.0610   22.6810 C   0  0  0  0  0  0  0  0  0  0  0  0
   12.4260    0.9800   23.3970 C   0  0  0  0  0  0  0  0  0  0  0  0
  1  2  1  0
  1  3  2  0
  1  4  1  0
  4  5  1  0
  4  6  1  0
  5  7  1  0
  6  8  1  0
  7  9  1  0
  8  9  1  0
  9 10  1  0
 10 11  1  1
 10 12  1  0
 10 13  1  0
 12 14  1  0
 13 15  2  0
 13 16  1  0
 15 17  1  0
 16 18  1  0
 17 18  2  0
 14 19  1  0
 19 20  2  0
 19 21  1  0
 20 22  1  0
 21 23  1  0
 22 23  2  0
M  END
