x1418_1-x1334_0-x0770_1-x1412_1-x1385_1-x0831_0-x0397_0-x0831_1-x1386_1-x0692_1
     RDKit          3D

 27 30  0  0  0  0  0  0  0  0999 V2000
    6.3820   -3.2340   19.8340 C   0  0  0  0  0  0  0  0  0  0  0  0
    7.3480   -2.9650   18.6980 C   0  0  0  0  0  0  0  0  0  0  0  0
    5.4090   -3.9840   19.6600 O   0  0  0  0  0  0  0  0  0  0  0  0
    6.6730   -2.6520   21.0750 N   0  0  0  0  0  0  0  0  0  0  0  0
    6.8930   -3.4840   22.2180 C   0  0  1  0  0  0  0  0  0  0  0  0
    7.4760   -1.5160   21.0740 C   0  0  0  0  0  0  0  0  0  0  0  0
    7.1350   -2.6710   23.4930 C   0  0  0  0  0  0  0  0  0  0  0  0
    8.7440   -1.7240   21.9430 C   0  0  0  0  0  0  0  0  0  0  0  0
    5.8580   -4.5790   22.4400 C   0  0  0  0  0  0  0  0  0  0  0  0
    8.5250   -2.2560   23.3200 N   0  0  0  0  0  0  0  0  0  0  0  0
    6.1150   -5.7250   23.3030 C   0  0  0  0  0  0  0  0  0  0  0  0
    6.0320   -6.1230   21.8710 C   0  0  0  0  0  0  0  0  0  0  0  0
    9.4640   -3.3000   23.7650 C   0  0  1  0  0  0  0  0  0  0  0  0
   10.9060   -2.8060   23.9920 C   0  0  0  0  0  0  0  0  0  0  0  0
    9.0850   -4.1600   24.9880 C   0  0  0  0  0  0  0  0  0  0  0  0
    9.6980   -5.3120   25.2340 C   0  0  0  0  0  0  0  0  0  0  0  0
    7.9060   -3.8220   26.1850 S   0  0  0  0  0  0  0  0  0  0  0  0
   11.1270   -1.3290   23.8780 C   0  0  0  0  0  0  0  0  0  0  0  0
    9.2900   -6.0780   26.4260 C   0  0  0  0  0  0  0  0  0  0  0  0
    8.1440   -5.2490   27.1370 C   0  0  0  0  0  0  0  0  0  0  0  0
   10.3620   -0.2180   24.5020 C   0  0  0  0  0  0  0  0  0  0  0  0
   12.2670   -0.7800   23.0430 C   0  0  0  0  0  0  0  0  0  0  0  0
    7.2490   -5.5960   28.5490 Cl  0  0  0  0  0  0  0  0  0  0  0  0
   13.1660   -1.7120   22.2990 C   0  0  0  0  0  0  0  0  0  0  0  0
   10.7580    1.2190   24.2720 C   0  0  0  0  0  0  0  0  0  0  0  0
   12.5290    0.7560   22.9350 C   0  0  0  0  0  0  0  0  0  0  0  0
   11.9100    1.8530   23.4520 C   0  0  0  0  0  0  0  0  0  0  0  0
  1  2  1  0
  1  3  2  0
  1  4  1  0
  4  5  1  0
  4  6  1  0
  5  7  1  0
  6  8  1  0
  5  9  1  1
  7 10  1  0
  8 10  1  0
  9 11  1  0
  9 12  1  0
 11 12  1  0
 10 13  1  0
 13 14  1  1
 13 15  1  0
 15 16  2  0
 15 17  1  0
 14 18  1  0
 16 19  1  0
 17 20  1  0
 19 20  2  0
 18 21  2  0
 18 22  1  0
 20 23  1  0
 22 24  1  0
 21 25  1  0
 22 26  2  0
 25 27  2  0
 26 27  1  0
M  END
