x1412_1-x0771_1
     RDKit          3D

 22 23  0  0  0  0  0  0  0  0999 V2000
    4.9400   -5.5710   25.4840 S   0  0  0  0  0  0  0  0  0  0  0  0
    5.0400   -5.2590   23.7180 C   0  0  0  0  0  0  0  0  0  0  0  0
    5.4110   -3.9570   23.2690 C   0  0  0  0  0  0  0  0  0  0  0  0
    4.5000   -6.9350   25.6630 O   0  0  0  0  0  0  0  0  0  0  0  0
    6.0760   -5.0240   26.1740 O   0  0  0  0  0  0  0  0  0  0  0  0
    3.6810   -4.4410   25.6720 C   0  0  0  0  0  0  0  0  0  0  0  0
    2.3490   -4.7460   25.3760 C   0  0  0  0  0  0  0  0  0  0  0  0
    4.0340   -3.1570   26.1520 C   0  0  0  0  0  0  0  0  0  0  0  0
    1.8510   -6.0670   24.8630 C   0  0  0  0  0  0  0  0  0  0  0  0
    1.3040   -3.6840   25.5830 C   0  0  0  0  0  0  0  0  0  0  0  0
    3.0760   -2.1490   26.3520 C   0  0  0  0  0  0  0  0  0  0  0  0
    6.6420   -4.0710   22.3830 C   0  0  1  0  0  0  0  0  0  0  0  0
    1.6120   -2.4210   26.0540 C   0  0  0  0  0  0  0  0  0  0  0  0
    6.6070   -3.0110   21.3330 N   0  0  0  0  0  0  0  0  0  0  0  0
    7.8810   -4.0510   23.0010 C   0  0  0  0  0  0  0  0  0  0  0  0
    0.5750   -1.3840   26.2620 C   0  0  0  0  0  0  0  0  0  0  0  0
    6.3340   -3.4500   20.0320 C   0  0  0  0  0  0  0  0  0  0  0  0
    8.2770   -2.7440   23.5210 N   0  0  0  0  0  0  0  0  0  0  0  0
    7.4150   -1.8100   21.5480 C   0  0  0  0  0  0  0  0  0  0  0  0
    7.2560   -3.0230   18.8970 C   0  0  0  0  0  0  0  0  0  0  0  0
    5.3860   -4.2060   19.7800 O   0  0  0  0  0  0  0  0  0  0  0  0
    8.5190   -1.9650   22.3640 C   0  0  0  0  0  0  0  0  0  0  0  0
  1  2  1  0
  2  3  1  0
  1  4  2  0
  1  5  2  0
  1  6  1  0
  6  7  2  0
  6  8  1  0
  7  9  1  0
  7 10  1  0
  8 11  2  0
 12  3  1  1
 10 13  2  0
 11 13  1  0
 12 14  1  0
 12 15  1  0
 13 16  1  0
 14 17  1  0
 15 18  1  0
 14 19  1  0
 17 20  1  0
 17 21  2  0
 18 22  1  0
 19 22  1  0
M  END
