x1418_1-x0692_0-x1374_1
     RDKit          3D

 25 27  0  0  0  0  0  0  0  0999 V2000
    6.3180   -3.1270   19.7560 C   0  0  0  0  0  0  0  0  0  0  0  0
    7.3600   -2.9460   18.6500 C   0  0  0  0  0  0  0  0  0  0  0  0
    5.4530   -4.0090   19.6520 O   0  0  0  0  0  0  0  0  0  0  0  0
    6.3670   -2.3190   20.8790 N   0  0  0  0  0  0  0  0  0  0  0  0
    6.1470   -2.9350   22.1660 C   0  0  0  0  0  0  0  0  0  0  0  0
    7.4510   -1.3000   20.9320 C   0  0  0  0  0  0  0  0  0  0  0  0
    7.4090   -3.7030   22.4920 C   0  0  2  0  0  0  0  0  0  0  0  0
    8.5590   -1.7520   21.6780 C   0  0  0  0  0  0  0  0  0  0  0  0
    7.4770   -4.9150   23.2550 C   0  0  0  0  0  0  0  0  0  0  0  0
    8.2530   -2.5620   22.8860 N   0  0  0  0  0  0  0  0  0  0  0  0
    9.4300   -2.7500   23.7120 C   0  0  0  0  0  0  0  0  0  0  0  0
    6.1670   -5.3680   23.7770 C   0  0  1  0  0  0  0  0  0  0  0  0
   10.4220   -1.6710   23.5790 C   0  0  0  0  0  0  0  0  0  0  0  0
    5.2280   -4.6700   24.5260 C   0  0  0  0  0  0  0  0  0  0  0  0
    5.3590   -6.2140   22.9730 C   0  0  0  0  0  0  0  0  0  0  0  0
   10.2310   -0.3030   23.7780 C   0  0  0  0  0  0  0  0  0  0  0  0
   11.8640   -1.9870   23.1650 C   0  0  0  0  0  0  0  0  0  0  0  0
    4.0030   -5.2250   24.7200 C   0  0  0  0  0  0  0  0  0  0  0  0
    3.9510   -6.7040   23.8970 S   0  0  0  0  0  0  0  0  0  0  0  0
    2.7740   -6.7600   23.0610 O   0  0  0  0  0  0  0  0  0  0  0  0
    4.2990   -7.8280   24.7310 O   0  0  0  0  0  0  0  0  0  0  0  0
   11.1780    0.7710   23.6370 C   0  0  0  0  0  0  0  0  0  0  0  0
   12.8910   -0.8660   23.0120 C   0  0  0  0  0  0  0  0  0  0  0  0
   10.7650    2.1820   23.8810 C   0  0  0  0  0  0  0  0  0  0  0  0
   12.4650    0.4270   23.2600 C   0  0  0  0  0  0  0  0  0  0  0  0
  1  2  1  0
  1  3  2  0
  1  4  1  0
  4  5  1  0
  4  6  1  0
  5  7  1  0
  6  8  1  0
  7  9  1  1
  7 10  1  0
  8 10  1  0
 10 11  1  0
 12  9  1  6
 11 13  1  0
 12 14  1  0
 12 15  1  0
 13 16  2  0
 13 17  1  0
 14 18  2  0
 15 19  1  0
 18 19  1  0
 19 20  1  0
 19 21  1  0
 16 22  1  0
 17 23  2  0
 22 24  1  0
 22 25  2  0
 23 25  1  0
M  END
