x1418_1-x1374_1-x0770_1-x1386_0-x1418_0
     RDKit          3D

 24 26  0  0  0  0  0  0  0  0999 V2000
    6.4180   -3.0340   19.6620 C   0  0  0  0  0  0  0  0  0  0  0  0
    7.4330   -2.9430   18.5620 C   0  0  0  0  0  0  0  0  0  0  0  0
    5.4890   -3.8560   19.5710 O   0  0  0  0  0  0  0  0  0  0  0  0
    6.5820   -2.2260   20.7620 N   0  0  0  0  0  0  0  0  0  0  0  0
    6.3090   -2.8360   22.0440 C   0  0  0  0  0  0  0  0  0  0  0  0
    7.4470   -1.2130   20.8170 C   0  0  0  0  0  0  0  0  0  0  0  0
    7.5870   -3.4760   22.5380 C   0  0  2  0  0  0  0  0  0  0  0  0
    8.6190   -1.4860   21.7920 C   0  0  0  0  0  0  0  0  0  0  0  0
    7.1720   -4.5590   23.5410 C   0  0  0  0  0  0  0  0  0  0  0  0
    8.4620   -2.3600   22.9640 N   0  0  0  0  0  0  0  0  0  0  0  0
    9.5600   -2.3760   23.9420 C   0  0  1  0  0  0  0  0  0  0  0  0
    5.6620   -4.9190   23.3450 C   0  0  2  0  0  0  0  0  0  0  0  0
   10.2460   -3.6980   23.9320 C   0  0  0  0  0  0  0  0  0  0  0  0
    4.8860   -4.5560   24.6020 C   0  0  0  0  0  0  0  0  0  0  0  0
    5.3540   -6.4260   23.0060 C   0  0  0  0  0  0  0  0  0  0  0  0
   10.6160   -1.3420   23.7090 C   0  0  0  0  0  0  0  0  0  0  0  0
    3.9490   -5.4500   25.0760 C   0  0  0  0  0  0  0  0  0  0  0  0
    3.9700   -6.8060   23.9880 S   0  0  0  0  0  0  0  0  0  0  0  0
   11.8420   -1.5230   22.7910 C   0  0  0  0  0  0  0  0  0  0  0  0
   10.8010    0.0710   24.2530 C   0  0  0  0  0  0  0  0  0  0  0  0
    2.7510   -6.7410   23.2000 O   0  0  0  0  0  0  0  0  0  0  0  0
    4.2350   -7.9690   24.8030 O   0  0  0  0  0  0  0  0  0  0  0  0
   12.6640   -0.3470   22.7890 C   0  0  0  0  0  0  0  0  0  0  0  0
   12.1560    0.9720   23.7500 S   0  0  0  0  0  0  0  0  0  0  0  0
  1  2  1  0
  1  3  2  0
  1  4  1  0
  4  5  1  0
  4  6  1  0
  5  7  1  0
  6  8  1  0
  7  9  1  1
  7 10  1  0
  8 10  1  0
 10 11  1  0
 12  9  1  1
 11 13  1  6
 12 14  1  0
 12 15  1  0
 11 16  1  0
 14 17  2  0
 15 18  1  0
 17 18  1  0
 16 19  1  0
 16 20  2  0
 18 21  1  0
 18 22  1  0
 19 23  2  0
 20 24  1  0
 23 24  1  0
M  END
