x1412_1-x0397_0-x0831_0-x1334_1-x1334_0-x0434_2-x0770_1
     RDKit          3D

 34 38  0  0  0  0  0  0  0  0999 V2000
    6.3750   -3.4020   19.9600 C   0  0  0  0  0  0  0  0  0  0  0  0
    7.3360   -3.0400   18.8300 C   0  0  0  0  0  0  0  0  0  0  0  0
    5.4720   -4.2390   19.8090 O   0  0  0  0  0  0  0  0  0  0  0  0
    6.5770   -2.7320   21.1880 N   0  0  0  0  0  0  0  0  0  0  0  0
    7.4620   -1.5840   21.1690 C   0  0  1  0  0  0  0  0  0  0  0  0
    6.4890   -3.4330   22.4540 C   0  0  2  0  0  0  0  0  0  0  0  0
    6.6400   -0.3740   21.2680 N   0  0  0  0  0  0  0  0  0  0  0  0
    8.3770   -1.3730   22.3760 C   0  0  0  0  0  0  0  0  0  0  0  0
    7.9100   -3.6880   22.9710 C   0  0  0  0  0  0  0  0  0  0  0  0
    5.6550   -4.7010   22.2980 C   0  0  0  0  0  0  0  0  0  0  0  0
    8.5810   -2.4370   23.3780 N   0  0  0  0  0  0  0  0  0  0  0  0
    6.1900   -5.9020   23.1110 C   0  0  0  0  0  0  0  0  0  0  0  0
    6.2310   -6.1290   21.8590 C   0  0  0  0  0  0  0  0  0  0  0  0
    6.1930    0.2180   20.0990 C   0  0  0  0  0  0  0  0  0  0  0  0
    9.9340   -2.5280   23.2860 C   0  0  2  0  0  0  0  0  0  0  0  0
    6.8800    0.1060   18.7690 C   0  0  0  0  0  0  0  0  0  0  0  0
    5.0280    0.9620   20.1820 C   0  0  0  0  0  0  0  0  0  0  0  0
   10.5810   -3.2060   24.4290 C   0  0  0  0  0  0  0  0  0  0  0  0
   10.6720   -1.2010   23.3380 C   0  0  0  0  0  0  0  0  0  0  0  0
    6.4300    0.6980   17.6630 N   0  0  0  0  0  0  0  0  0  0  0  0
    4.5680    1.5550   19.0780 C   0  0  0  0  0  0  0  0  0  0  0  0
    9.9670   -0.0000   23.9360 C   0  0  0  0  0  0  0  0  0  0  0  0
   12.1100   -0.9660   22.8210 C   0  0  0  0  0  0  0  0  0  0  0  0
    9.7540   -4.0890   25.3330 C   0  0  0  0  0  0  0  0  0  0  0  0
    5.1930    1.4700   17.8470 C   0  0  0  0  0  0  0  0  0  0  0  0
   12.9410   -2.0230   22.1870 C   0  0  0  0  0  0  0  0  0  0  0  0
   10.6990    1.3290   24.0040 C   0  0  0  0  0  0  0  0  0  0  0  0
   12.6920    0.3880   22.9560 C   0  0  0  0  0  0  0  0  0  0  0  0
   10.1050   -5.3890   25.6950 C   0  0  0  0  0  0  0  0  0  0  0  0
    8.2370   -3.6950   26.1240 S   0  0  0  0  0  0  0  0  0  0  0  0
   12.1470    1.4800   23.4690 C   0  0  0  0  0  0  0  0  0  0  0  0
    9.2160   -5.9240   26.5280 C   0  0  0  0  0  0  0  0  0  0  0  0
    8.1320   -5.2110   26.9210 C   0  0  0  0  0  0  0  0  0  0  0  0
    6.8730   -5.6580   27.9910 Cl  0  0  0  0  0  0  0  0  0  0  0  0
  1  2  1  0
  1  3  2  0
  1  4  1  0
  4  5  1  0
  4  6  1  0
  5  7  1  1
  5  8  1  0
  6  9  1  0
  6 10  1  6
  8 11  1  0
  9 11  1  0
 10 12  1  0
 10 13  1  0
 12 13  1  0
  7 14  1  0
 11 15  1  0
 14 16  2  0
 14 17  1  0
 15 18  1  1
 15 19  1  0
 16 20  1  0
 17 21  2  0
 19 22  2  0
 19 23  1  0
 18 24  1  0
 20 25  2  0
 21 25  1  0
 23 26  1  0
 22 27  1  0
 23 28  2  0
 24 29  2  0
 24 30  1  0
 27 31  2  0
 28 31  1  0
 29 32  1  0
 30 33  1  0
 32 33  2  0
 33 34  1  0
M  END
