x1412_0-x0981_1-x1386_0-x0831_0-x0434_2-x1412_1
     RDKit          3D

 45 49  0  0  0  0  0  0  0  0999 V2000
    4.1070   -5.2660   23.3330 C   0  0  0  0  0  0  0  0  0  0  0  0
    2.7850   -6.0120   23.5560 C   0  0  1  0  0  0  0  0  0  0  0  0
    2.6000   -7.2340   22.7700 N   0  0  0  0  0  0  0  0  0  0  0  0
    4.2620   -4.0380   23.7540 N   0  0  0  0  0  0  0  0  0  0  0  0
    2.6500   -6.2910   25.0530 C   0  0  0  0  0  0  0  0  0  0  0  0
    5.5370   -3.2970   23.5470 C   0  0  0  0  0  0  0  0  0  0  0  0
    1.3870   -7.4300   22.1460 C   0  0  0  0  0  0  0  0  0  0  0  0
    3.0850   -7.7060   25.2600 C   0  0  0  0  0  0  0  0  0  0  0  0
    6.4060   -3.8610   22.3890 C   0  0  1  0  0  0  0  0  0  0  0  0
    1.2310   -8.7180   21.3810 C   0  0  0  0  0  0  0  0  0  0  0  0
    0.4880   -6.5900   22.1900 O   0  0  0  0  0  0  0  0  0  0  0  0
    2.4640   -8.4010   26.2550 N   0  0  0  0  0  0  0  0  0  0  0  0
    3.9590   -8.1720   24.5590 O   0  0  0  0  0  0  0  0  0  0  0  0
    6.4940   -2.9580   21.2630 N   0  0  0  0  0  0  0  0  0  0  0  0
    7.8210   -4.0840   23.0400 C   0  0  0  0  0  0  0  0  0  0  0  0
    6.2820   -3.3840   19.9600 C   0  0  0  0  0  0  0  0  0  0  0  0
    8.5910   -2.8300   23.5320 C   0  0  1  0  0  0  0  0  0  0  0  0
    7.3690   -1.7780   21.3460 C   0  0  1  0  0  0  0  0  0  0  0  0
    7.1780   -2.9870   18.7970 C   0  0  0  0  0  0  0  0  0  0  0  0
    5.3460   -4.1640   19.7190 O   0  0  0  0  0  0  0  0  0  0  0  0
    8.4640   -2.6360   25.0670 C   0  0  2  0  0  0  0  0  0  0  0  0
    9.8360   -2.8690   23.1210 C   0  0  0  0  0  0  0  0  0  0  0  0
    6.5060   -0.6330   21.2250 N   0  0  0  0  0  0  0  0  0  0  0  0
    8.1480   -1.5880   22.7230 C   0  0  0  0  0  0  0  0  0  0  0  0
    7.5590   -1.8610   25.3820 O   0  0  0  0  0  0  0  0  0  0  0  0
   10.6440   -2.1330   24.1950 C   0  0  2  0  0  0  0  0  0  0  0  0
    9.7660   -1.9630   25.4140 C   0  0  0  0  0  0  0  0  0  0  0  0
    8.4950   -3.8680   25.9470 C   0  0  0  0  0  0  0  0  0  0  0  0
    6.1540    0.0170   20.0650 C   0  0  0  0  0  0  0  0  0  0  0  0
    9.4170   -5.0290   25.7400 C   0  0  0  0  0  0  0  0  0  0  0  0
    7.4980   -4.2630   27.4600 S   0  0  0  0  0  0  0  0  0  0  0  0
   11.2180   -0.8190   23.8410 C   0  0  0  0  0  0  0  0  0  0  0  0
    6.8240    0.0090   18.8220 C   0  0  0  0  0  0  0  0  0  0  0  0
    4.9940    0.7810   20.1010 C   0  0  0  0  0  0  0  0  0  0  0  0
    9.3140   -6.0350   26.6450 C   0  0  0  0  0  0  0  0  0  0  0  0
    8.3360   -5.7620   27.6170 C   0  0  0  0  0  0  0  0  0  0  0  0
   10.4840    0.4400   24.3220 C   0  0  0  0  0  0  0  0  0  0  0  0
   12.3990   -0.7170   23.1020 C   0  0  0  0  0  0  0  0  0  0  0  0
    6.4130    0.6800   17.7230 N   0  0  0  0  0  0  0  0  0  0  0  0
    4.5670    1.4680   18.9880 C   0  0  0  0  0  0  0  0  0  0  0  0
   13.0730   -1.9740   22.6390 C   0  0  0  0  0  0  0  0  0  0  0  0
   11.1320    1.7150   23.9480 C   0  0  0  0  0  0  0  0  0  0  0  0
   13.0040    0.4280   22.7590 C   0  0  0  0  0  0  0  0  0  0  0  0
    5.2830    1.4060   17.8240 C   0  0  0  0  0  0  0  0  0  0  0  0
   12.3900    1.7600   23.1730 C   0  0  0  0  0  0  0  0  0  0  0  0
  2  1  1  1
  2  3  1  0
  1  4  2  3
  2  5  1  0
  4  6  1  0
  3  7  1  0
  5  8  1  0
  9  6  1  1
  7 10  1  0
  7 11  2  0
  8 12  1  0
  8 13  2  0
  9 14  1  0
  9 15  1  0
 14 16  1  0
 17 15  1  6
 14 18  1  0
 16 19  1  0
 16 20  2  0
 17 21  1  0
 17 22  1  0
 18 23  1  1
 17 24  1  0
 18 24  1  0
 21 25  1  6
 22 26  1  0
 21 27  1  0
 26 27  1  0
 21 28  1  0
 23 29  1  0
 28 30  2  0
 28 31  1  0
 26 32  1  6
 29 33  2  0
 29 34  1  0
 30 35  1  0
 31 36  1  0
 35 36  2  0
 32 37  2  0
 32 38  1  0
 33 39  1  0
 34 40  2  0
 38 41  1  0
 37 42  1  0
 38 43  2  0
 39 44  2  0
 40 44  1  0
 42 45  2  0
 43 45  1  0
M  END
