x1412_1-x0770_1-x0434_2-x0831_0-x1385_1-x1418_1-x0831_1-x1375_1-x0692_1-x0397_0-x1386_1
     RDKit          3D

 31 34  0  0  0  0  0  0  0  0999 V2000
    2.5130   -7.6200   23.6330 O   0  0  0  0  0  0  0  0  0  0  0  0
    3.1990   -7.1010   24.7530 C   0  0  0  0  0  0  0  0  0  0  0  0
    4.5730   -7.3810   24.6540 O   0  0  0  0  0  0  0  0  0  0  0  0
    5.0920   -7.0250   23.3710 C   0  0  0  0  0  0  0  0  0  0  0  0
    5.6910   -5.6840   23.2250 C   0  0  2  0  0  0  0  0  0  0  0  0
    5.6880   -4.5830   22.4920 C   0  0  2  0  0  0  0  0  0  0  0  0
    6.1300   -5.9870   21.8110 C   0  0  0  0  0  0  0  0  0  0  0  0
    6.6680   -3.4170   22.5050 C   0  0  2  0  0  0  0  0  0  0  0  0
    6.7340   -2.7200   21.2230 N   0  0  0  0  0  0  0  0  0  0  0  0
    8.0900   -3.7870   23.0110 C   0  0  0  0  0  0  0  0  0  0  0  0
    6.4490   -3.3610   19.9960 C   0  0  0  0  0  0  0  0  0  0  0  0
    8.8850   -2.5530   23.2540 N   0  0  0  0  0  0  0  0  0  0  0  0
    7.6700   -1.6160   21.1130 C   0  0  1  0  0  0  0  0  0  0  0  0
    7.3450   -3.0440   18.8140 C   0  0  0  0  0  0  0  0  0  0  0  0
    5.5230   -4.1890   19.8030 O   0  0  0  0  0  0  0  0  0  0  0  0
   10.2280   -2.6500   23.5280 C   0  0  0  0  0  0  0  0  0  0  0  0
    6.9390   -0.4040   21.3070 N   0  0  0  0  0  0  0  0  0  0  0  0
    8.7950   -1.5910   22.1210 C   0  0  0  0  0  0  0  0  0  0  0  0
   10.8900   -1.2620   23.5200 C   0  0  0  0  0  0  0  0  0  0  0  0
    6.3530    0.2130   20.1550 C   0  0  0  0  0  0  0  0  0  0  0  0
   10.0650   -0.1910   24.2920 C   0  0  0  0  0  0  0  0  0  0  0  0
   12.0660   -1.0630   22.8770 C   0  0  0  0  0  0  0  0  0  0  0  0
    6.9170    0.1190   18.7300 C   0  0  0  0  0  0  0  0  0  0  0  0
    5.1910    0.9580   20.2840 C   0  0  0  0  0  0  0  0  0  0  0  0
   12.8610   -2.0690   22.1240 C   0  0  0  0  0  0  0  0  0  0  0  0
   10.5670    1.2660   24.3690 C   0  0  0  0  0  0  0  0  0  0  0  0
   12.5550    0.1800   22.9200 C   0  0  0  0  0  0  0  0  0  0  0  0
    6.3670    0.7060   17.6630 N   0  0  0  0  0  0  0  0  0  0  0  0
    4.5980    1.5980   19.0730 C   0  0  0  0  0  0  0  0  0  0  0  0
   11.9170    1.4530   23.6250 C   0  0  0  0  0  0  0  0  0  0  0  0
    5.2020    1.4410   17.8850 C   0  0  0  0  0  0  0  0  0  0  0  0
  1  2  1  0
  2  3  1  0
  3  4  1  0
  5  4  1  6
  5  6  1  0
  5  7  1  0
  6  7  1  6
  6  8  1  0
  8  9  1  0
  8 10  1  6
  9 11  1  0
 10 12  1  0
  9 13  1  0
 11 14  1  0
 11 15  2  0
 12 16  1  0
 13 17  1  1
 12 18  1  0
 13 18  1  0
 16 19  1  0
 17 20  1  0
 19 21  2  0
 19 22  1  0
 20 23  2  0
 20 24  1  0
 22 25  1  0
 21 26  1  0
 22 27  2  0
 23 28  1  0
 24 29  2  0
 26 30  2  0
 27 30  1  0
 28 31  2  0
 29 31  1  0
M  END
