x1418
     RDKit          3D

 16 17  0  0  0  0  0  0  0  0999 V2000
    6.9090   -2.5550   20.8100 N   0  0  0  0  0  0  0  0  0  0  0  0
    7.1740   -2.5200   18.3610 C   0  0  0  0  0  0  0  0  0  0  0  0
    5.8870   -4.1230   19.5740 O   0  0  0  0  0  0  0  0  0  0  0  0
    6.5850   -3.1130   19.6270 C   0  0  0  0  0  0  0  0  0  0  0  0
    8.7490   -2.2870   22.9660 N   0  0  0  0  0  0  0  0  0  0  0  0
    7.6260   -1.3000   21.0140 C   0  0  0  0  0  0  0  0  0  0  0  0
    8.9430   -1.6010   21.6850 C   0  0  0  0  0  0  0  0  0  0  0  0
   10.0540   -2.6430   23.5460 C   0  0  0  0  0  0  0  0  0  0  0  0
   11.0210   -1.5060   23.5860 C   0  0  0  0  0  0  0  0  0  0  0  0
   12.1120   -1.2610   22.7430 C   0  0  0  0  0  0  0  0  0  0  0  0
   12.7990   -0.0810   23.1240 C   0  0  0  0  0  0  0  0  0  0  0  0
   12.1210    0.6380   24.0450 C   0  0  0  0  0  0  0  0  0  0  0  0
    7.9640   -3.5080   22.7600 C   0  0  0  0  0  0  0  0  0  0  0  0
    6.6470   -3.2090   22.0840 C   0  0  0  0  0  0  0  0  0  0  0  0
   10.8900   -0.2770   24.7770 S   0  0  0  0  0  0  0  0  0  0  0  0
    8.8250   -3.2140   18.1260 R   0  0  0  0  0  0  0  0  0  0  0  0
  1  4  1  0
  2  4  1  0
  3  4  2  0
  1  6  1  0
  5  7  1  0
  6  7  1  0
  5  8  1  0
  8  9  1  0
  9 10  2  0
 10 11  1  0
 11 12  2  0
  5 13  1  0
  1 14  1  0
 13 14  1  0
  9 15  1  0
 12 15  1  0
  2 16  1  0
M  END
