x1412_1-x0736_1-x1418_0
     RDKit          3D

 15 16  0  0  0  0  0  0  0  0999 V2000
    6.3380   -3.3920   19.9700 C   0  0  0  0  0  0  0  0  0  0  0  0
    7.2670   -2.9980   18.8240 C   0  0  0  0  0  0  0  0  0  0  0  0
    5.3780   -4.1470   19.7460 O   0  0  0  0  0  0  0  0  0  0  0  0
    6.6270   -2.9230   21.2500 N   0  0  0  0  0  0  0  0  0  0  0  0
    7.3720   -1.6660   21.4330 C   0  0  0  0  0  0  0  0  0  0  0  0
    6.5400   -3.7210   22.4470 C   0  0  0  0  0  0  0  0  0  0  0  0
    8.6140   -1.8760   21.8780 C   0  0  0  0  0  0  0  0  0  0  0  0
    7.8410   -3.7050   23.3560 C   0  0  0  0  0  0  0  0  0  0  0  0
    8.6750   -2.4930   23.2290 N   0  0  0  0  0  0  0  0  0  0  0  0
   10.0720   -2.7620   23.5430 C   0  0  0  0  0  0  0  0  0  0  0  0
   10.9870   -1.5790   23.5150 C   0  0  0  0  0  0  0  0  0  0  0  0
   12.1060   -1.3880   22.7150 C   0  0  0  0  0  0  0  0  0  0  0  0
   10.8000   -0.1730   24.5160 S   0  0  0  0  0  0  0  0  0  0  0  0
   12.7330   -0.2110   22.9010 C   0  0  0  0  0  0  0  0  0  0  0  0
   12.1840    0.6180   23.8420 C   0  0  0  0  0  0  0  0  0  0  0  0
  1  2  1  0
  1  3  2  0
  1  4  1  0
  4  5  1  0
  4  6  1  0
  5  7  1  0
  6  8  1  0
  7  9  1  0
  8  9  1  0
  9 10  1  0
 10 11  1  0
 11 12  2  0
 11 13  1  0
 12 14  1  0
 13 15  1  0
 14 15  2  0
M  END
