x1418_0-x0692_1
     RDKit          3D

 15 16  0  0  0  0  0  0  0  0999 V2000
    6.3240   -3.2650   19.8890 C   0  0  0  0  0  0  0  0  0  0  0  0
    7.2890   -2.9940   18.7480 C   0  0  0  0  0  0  0  0  0  0  0  0
    5.4240   -4.1090   19.7370 O   0  0  0  0  0  0  0  0  0  0  0  0
    6.5250   -2.5510   21.0840 N   0  0  0  0  0  0  0  0  0  0  0  0
    7.4020   -1.3700   21.1270 C   0  0  0  0  0  0  0  0  0  0  0  0
    6.3750   -3.1930   22.3850 C   0  0  0  0  0  0  0  0  0  0  0  0
    8.8050   -1.7350   21.6870 C   0  0  0  0  0  0  0  0  0  0  0  0
    7.7070   -3.4160   23.1030 C   0  0  0  0  0  0  0  0  0  0  0  0
    8.6450   -2.2620   23.0680 N   0  0  0  0  0  0  0  0  0  0  0  0
    9.9280   -2.6680   23.3330 C   0  0  0  0  0  0  0  0  0  0  0  0
   10.8030   -1.5790   23.4550 C   0  0  0  0  0  0  0  0  0  0  0  0
   11.9320   -1.4860   22.6340 C   0  0  0  0  0  0  0  0  0  0  0  0
   10.6900   -0.1400   24.6130 S   0  0  0  0  0  0  0  0  0  0  0  0
   12.6960   -0.3520   22.8640 C   0  0  0  0  0  0  0  0  0  0  0  0
   12.1820    0.4650   23.8680 C   0  0  0  0  0  0  0  0  0  0  0  0
  1  2  1  0
  1  3  2  0
  1  4  1  0
  4  5  1  0
  4  6  1  0
  5  7  1  0
  6  8  1  0
  7  9  1  0
  8  9  1  0
  9 10  1  0
 10 11  1  0
 11 12  2  0
 11 13  1  0
 12 14  1  0
 13 15  1  0
 14 15  2  0
M  END
