x1412_1-x0434_2-x1334_1-x0387_0-x1374_1-x1385_1-x0397_0-x1386_0-x0770_1-x0736_1-x1412_0
     RDKit          3D

 41 47  0  0  0  0  0  0  0  0999 V2000
    1.9940   -7.3060   23.6740 O   0  0  0  0  0  0  0  0  0  0  0  0
    2.3680   -8.0750   24.8010 C   0  0  0  0  0  0  0  0  0  0  0  0
    3.7770   -8.1300   24.8710 O   0  0  0  0  0  0  0  0  0  0  0  0
    4.3750   -7.3270   23.8700 C   0  0  0  0  0  0  0  0  0  0  0  0
    4.7360   -6.1680   24.4520 C   0  0  0  0  0  0  0  0  0  0  0  0
    5.7660   -5.5090   23.5880 C   0  0  2  0  0  0  0  0  0  0  0  0
    5.4130   -4.7520   22.4220 C   0  0  2  0  0  0  0  0  0  0  0  0
    6.3230   -6.1620   22.4030 C   0  0  0  0  0  0  0  0  0  0  0  0
    6.2960   -3.5020   22.4190 C   0  0  2  0  0  0  0  0  0  0  0  0
    6.6860   -2.8600   21.1580 N   0  0  0  0  0  0  0  0  0  0  0  0
    7.4380   -3.8830   23.0840 C   0  0  0  0  0  0  0  0  0  0  0  0
    6.3930   -3.3690   19.9030 C   0  0  0  0  0  0  0  0  0  0  0  0
    7.7570   -2.6470   23.7090 N   0  0  0  0  0  0  0  0  0  0  0  0
    7.6840   -1.7620   21.3260 C   0  0  1  0  0  0  0  0  0  0  0  0
    7.3250   -3.0270   18.7630 C   0  0  0  0  0  0  0  0  0  0  0  0
    5.4210   -4.1140   19.7150 O   0  0  0  0  0  0  0  0  0  0  0  0
    8.5350   -2.6100   24.8060 C   0  0  2  0  0  0  0  0  0  0  0  0
    6.8710   -0.5420   21.3960 N   0  0  0  0  0  0  0  0  0  0  0  0
    8.3680   -1.7360   22.7330 C   0  0  2  0  0  0  0  0  0  0  0  0
    8.3260   -1.3900   25.5080 O   0  0  0  0  0  0  0  0  0  0  0  0
    9.8800   -2.6140   24.1790 C   0  0  1  0  0  0  0  0  0  0  0  0
    9.9000   -1.9940   22.7800 C   0  0  0  0  0  0  0  0  0  0  0  0
    8.5580   -3.8170   25.7560 C   0  0  0  0  0  0  0  0  0  0  0  0
    6.3240    0.0780   20.2500 C   0  0  0  0  0  0  0  0  0  0  0  0
    9.3710   -4.9010   25.5920 C   0  0  0  0  0  0  0  0  0  0  0  0
    7.5840   -4.0710   27.2620 S   0  0  0  0  0  0  0  0  0  0  0  0
    7.0080   -0.0700   18.8910 C   0  0  0  0  0  0  0  0  0  0  0  0
    5.1590    0.8310   20.3780 C   0  0  0  0  0  0  0  0  0  0  0  0
   10.8710   -2.0950   25.1620 C   0  0  0  0  0  0  0  0  0  0  0  0
    9.2660   -5.8620   26.5460 C   0  0  0  0  0  0  0  0  0  0  0  0
    8.3500   -5.5880   27.5340 C   0  0  0  0  0  0  0  0  0  0  0  0
    6.4490    0.5940   17.7310 N   0  0  0  0  0  0  0  0  0  0  0  0
    4.4870    1.5660   19.1920 C   0  0  0  0  0  0  0  0  0  0  0  0
   12.1980   -2.7440   24.9020 C   0  0  0  0  0  0  0  0  0  0  0  0
   11.0540   -0.7140   24.9320 C   0  0  0  0  0  0  0  0  0  0  0  0
    5.2290    1.3970   17.8300 C   0  0  0  0  0  0  0  0  0  0  0  0
   12.2970   -1.8910   23.7060 C   0  0  1  0  0  0  0  0  0  0  0  0
   12.4600   -0.5880   24.3070 C   0  0  1  0  0  0  0  0  0  0  0  0
   12.6940    0.3000   23.3690 C   0  0  0  0  0  0  0  0  0  0  0  0
   13.1270   -2.0540   22.6750 C   0  0  0  0  0  0  0  0  0  0  0  0
   13.4120   -0.5120   22.0480 S   0  0  0  0  0  0  0  0  0  0  0  0
  1  2  1  0
  2  3  1  0
  3  4  1  0
  4  5  1  0
  6  5  1  6
  6  7  1  0
  6  8  1  0
  7  8  1  6
  7  9  1  0
  9 10  1  0
  9 11  1  6
 10 12  1  0
 11 13  1  0
 10 14  1  0
 12 15  1  0
 12 16  2  0
 13 17  1  0
 14 18  1  1
 13 19  1  0
 14 19  1  0
 17 20  1  1
 17 21  1  0
 19 22  1  6
 21 22  1  0
 17 23  1  0
 18 24  1  0
 23 25  2  0
 23 26  1  0
 24 27  2  0
 24 28  1  0
 21 29  1  1
 25 30  1  0
 26 31  1  0
 30 31  2  0
 27 32  1  0
 28 33  2  0
 29 34  1  0
 29 35  1  0
 32 36  2  0
 33 36  1  0
 37 34  1  1
 38 35  1  6
 37 38  1  0
 38 39  1  0
 37 40  1  0
 39 41  2  0
 40 41  2  0
M  END
