x1418_0-x0736_1
     RDKit          3D

 15 16  0  0  0  0  0  0  0  0999 V2000
    6.3880   -3.4040   19.9850 C   0  0  0  0  0  0  0  0  0  0  0  0
    7.3720   -3.0250   18.8800 C   0  0  0  0  0  0  0  0  0  0  0  0
    5.4490   -4.1650   19.7620 O   0  0  0  0  0  0  0  0  0  0  0  0
    6.5910   -2.8700   21.2560 N   0  0  0  0  0  0  0  0  0  0  0  0
    7.3030   -1.6140   21.4760 C   0  0  0  0  0  0  0  0  0  0  0  0
    6.5300   -3.7570   22.4200 C   0  0  0  0  0  0  0  0  0  0  0  0
    8.6900   -1.8300   22.1320 C   0  0  0  0  0  0  0  0  0  0  0  0
    7.8820   -3.9400   23.1430 C   0  0  0  0  0  0  0  0  0  0  0  0
    8.6930   -2.6930   23.3180 N   0  0  0  0  0  0  0  0  0  0  0  0
   10.0990   -3.0020   23.5340 C   0  0  0  0  0  0  0  0  0  0  0  0
   10.9800   -1.7760   23.5140 C   0  0  0  0  0  0  0  0  0  0  0  0
   12.1850   -1.5440   22.5790 C   0  0  0  0  0  0  0  0  0  0  0  0
   10.7590   -0.4190   24.5620 S   0  0  0  0  0  0  0  0  0  0  0  0
   12.7320   -0.2110   22.9150 C   0  0  0  0  0  0  0  0  0  0  0  0
   12.0850    0.4730   23.9140 C   0  0  0  0  0  0  0  0  0  0  0  0
  1  2  1  0
  1  3  2  0
  1  4  1  0
  4  5  1  0
  4  6  1  0
  5  7  1  0
  6  8  1  0
  7  9  1  0
  8  9  1  0
  9 10  1  0
 10 11  1  0
 11 12  2  0
 11 13  1  0
 12 14  1  0
 13 15  1  0
 14 15  2  0
M  END
