x1412_1-x0874_0-x0769_1
     RDKit          3D

 27 29  0  0  0  0  0  0  0  0999 V2000
    6.4120   -3.3760   19.9320 C   0  0  0  0  0  0  0  0  0  0  0  0
    7.3600   -3.0020   18.8010 C   0  0  0  0  0  0  0  0  0  0  0  0
    5.4370   -4.1180   19.7490 O   0  0  0  0  0  0  0  0  0  0  0  0
    6.7130   -2.8830   21.2090 N   0  0  0  0  0  0  0  0  0  0  0  0
    7.8460   -1.9420   21.4820 C   0  0  0  0  0  0  0  0  0  0  0  0
    6.1820   -3.5490   22.4550 C   0  0  0  0  0  0  0  0  0  0  0  0
    8.7650   -2.7040   22.4310 C   0  0  1  0  0  0  0  0  0  0  0  0
    7.1430   -3.9490   23.4390 C   0  0  0  0  0  0  0  0  0  0  0  0
   10.2220   -2.2150   22.3670 C   0  0  0  0  0  0  0  0  0  0  0  0
    8.1620   -2.9400   23.7380 N   0  0  0  0  0  0  0  0  0  0  0  0
    7.7040   -1.7290   24.3360 C   0  0  0  0  0  0  0  0  0  0  0  0
   10.6590   -0.9140   22.9540 C   0  0  0  0  0  0  0  0  0  0  0  0
    6.3040   -1.5950   24.6420 C   0  0  0  0  0  0  0  0  0  0  0  0
   11.5450    0.1660   23.2850 C   0  0  0  0  0  0  0  0  0  0  0  0
   11.6560   -1.6520   22.2480 C   0  0  0  0  0  0  0  0  0  0  0  0
    5.7930   -2.4620   25.6880 O   0  0  0  0  0  0  0  0  0  0  0  0
   12.8980    0.1860   22.8890 C   0  0  0  0  0  0  0  0  0  0  0  0
   13.2610   -1.1730   22.0330 S   0  0  0  0  0  0  0  0  0  0  0  0
    4.4210   -2.5750   25.7930 C   0  0  0  0  0  0  0  0  0  0  0  0
    3.8650   -3.8490   25.8370 C   0  0  0  0  0  0  0  0  0  0  0  0
    3.5300   -1.5000   25.8570 C   0  0  0  0  0  0  0  0  0  0  0  0
    4.8560   -5.2500   25.7750 S   0  0  0  0  0  0  0  0  0  0  0  0
    2.4900   -3.9580   25.9300 C   0  0  0  0  0  0  0  0  0  0  0  0
    2.1260   -1.5740   25.9580 C   0  0  0  0  0  0  0  0  0  0  0  0
    5.8450   -5.1280   26.8340 O   0  0  0  0  0  0  0  0  0  0  0  0
    3.9790   -6.4020   25.7330 O   0  0  0  0  0  0  0  0  0  0  0  0
    1.6060   -2.9030   25.9920 C   0  0  0  0  0  0  0  0  0  0  0  0
  1  2  1  0
  1  3  2  0
  1  4  1  0
  4  5  1  0
  4  6  1  0
  5  7  1  0
  6  8  1  0
  7  9  1  1
  7 10  1  0
  8 10  1  0
 10 11  1  0
  9 12  1  0
 11 13  1  0
 12 14  1  0
 12 15  2  0
 13 16  1  0
 14 17  2  0
 15 18  1  0
 17 18  1  0
 16 19  1  0
 19 20  2  0
 19 21  1  0
 20 22  1  0
 20 23  1  0
 21 24  2  0
 22 25  2  0
 22 26  2  0
 23 27  2  0
 24 27  1  0
M  END
