x1412_0-x0736_1-x0434_2-x1412_1-x0874_0-x0387_0-x1334_1
     RDKit          3D

 29 32  0  0  0  0  0  0  0  0999 V2000
    6.3950   -3.3390   19.9870 C   0  0  0  0  0  0  0  0  0  0  0  0
    7.4220   -3.0150   18.9050 C   0  0  0  0  0  0  0  0  0  0  0  0
    5.4240   -4.0560   19.7050 O   0  0  0  0  0  0  0  0  0  0  0  0
    6.5990   -2.8530   21.2980 N   0  0  0  0  0  0  0  0  0  0  0  0
    7.4770   -1.7640   21.7170 C   0  0  2  0  0  0  0  0  0  0  0  0
    6.3530   -3.8150   22.3610 C   0  0  0  0  0  0  0  0  0  0  0  0
    7.7850   -0.7940   20.6770 N   0  0  0  0  0  0  0  0  0  0  0  0
    8.8030   -2.2550   22.3130 C   0  0  0  0  0  0  0  0  0  0  0  0
    7.6410   -4.1600   23.1820 C   0  0  0  0  0  0  0  0  0  0  0  0
    8.6330   -3.0670   23.3810 N   0  0  0  0  0  0  0  0  0  0  0  0
    6.8520   -0.0800   19.9320 C   0  0  0  0  0  0  0  0  0  0  0  0
    8.7820   -2.5380   24.7310 C   0  0  2  0  0  0  0  0  0  0  0  0
    7.0880   -0.0580   18.5670 C   0  0  0  0  0  0  0  0  0  0  0  0
    5.6040    0.6910   20.4240 C   0  0  0  0  0  0  0  0  0  0  0  0
    7.6740   -1.7140   25.1500 O   0  0  0  0  0  0  0  0  0  0  0  0
   10.0010   -1.5290   24.8870 C   0  0  0  0  0  0  0  0  0  0  0  0
    8.7950   -3.7330   25.6990 C   0  0  0  0  0  0  0  0  0  0  0  0
    6.2070    0.6660   17.6540 N   0  0  0  0  0  0  0  0  0  0  0  0
    4.8010    1.3630   19.5120 C   0  0  0  0  0  0  0  0  0  0  0  0
    9.5760   -4.8490   25.5330 C   0  0  0  0  0  0  0  0  0  0  0  0
    7.8420   -3.8710   27.1080 S   0  0  0  0  0  0  0  0  0  0  0  0
    5.0590    1.3810   18.1680 C   0  0  0  0  0  0  0  0  0  0  0  0
   11.1600   -1.3560   23.8620 C   0  0  0  0  0  0  0  0  0  0  0  0
    9.5210   -6.0020   26.5330 C   0  0  0  0  0  0  0  0  0  0  0  0
    8.4940   -5.3910   27.4500 C   0  0  0  0  0  0  0  0  0  0  0  0
   11.9180   -0.2540   23.9690 C   0  0  0  0  0  0  0  0  0  0  0  0
   11.6000   -2.1700   22.7940 C   0  0  0  0  0  0  0  0  0  0  0  0
   13.0240   -0.1510   22.9650 C   0  0  0  0  0  0  0  0  0  0  0  0
   12.9870   -1.5570   21.9180 S   0  0  0  0  0  0  0  0  0  0  0  0
  1  2  1  0
  1  3  2  0
  1  4  1  0
  4  5  1  0
  4  6  1  0
  5  7  1  6
  5  8  1  0
  6  9  1  0
  8 10  1  0
  9 10  1  0
  7 11  1  0
 10 12  1  0
 11 13  2  0
 11 14  1  0
 12 15  1  1
 12 16  1  0
 12 17  1  0
 13 18  1  0
 14 19  2  0
 17 20  2  0
 17 21  1  0
 18 22  2  0
 19 22  1  0
 16 23  1  0
 20 24  1  0
 21 25  1  0
 24 25  2  0
 23 26  1  0
 23 27  2  0
 26 28  2  0
 27 29  1  0
 28 29  1  0
M  END
