x1418_1-x0831_0-x0397_0-x0692_1-x0770_1-x1334_1-x1334_0-x0831_1
     RDKit          3D

 27 30  0  0  0  0  0  0  0  0999 V2000
    6.2610   -3.2520   19.8090 C   0  0  0  0  0  0  0  0  0  0  0  0
    7.2670   -3.0010   18.7210 C   0  0  0  0  0  0  0  0  0  0  0  0
    5.3480   -4.0650   19.6560 O   0  0  0  0  0  0  0  0  0  0  0  0
    6.4580   -2.5380   20.9940 N   0  0  0  0  0  0  0  0  0  0  0  0
    6.3480   -3.1350   22.3180 C   0  0  2  0  0  0  0  0  0  0  0  0
    7.3560   -1.3330   20.8940 C   0  0  0  0  0  0  0  0  0  0  0  0
    7.7900   -3.3270   22.8510 C   0  0  0  0  0  0  0  0  0  0  0  0
    8.7060   -1.5370   21.5720 C   0  0  0  0  0  0  0  0  0  0  0  0
    5.5950   -4.4950   22.1440 C   0  0  0  0  0  0  0  0  0  0  0  0
    8.4580   -2.0330   22.9250 N   0  0  0  0  0  0  0  0  0  0  0  0
    6.3910   -5.4790   23.2490 C   0  0  0  0  0  0  0  0  0  0  0  0
    6.1910   -5.8100   21.8790 C   0  0  0  0  0  0  0  0  0  0  0  0
    9.4730   -2.0160   23.7920 C   0  0  1  0  0  0  0  0  0  0  0  0
   10.0630   -3.3410   24.0390 C   0  0  0  0  0  0  0  0  0  0  0  0
   10.4590   -0.8360   23.6000 C   0  0  0  0  0  0  0  0  0  0  0  0
   10.0940    0.5140   23.9440 C   0  0  0  0  0  0  0  0  0  0  0  0
   11.9300   -0.9150   23.0430 C   0  0  0  0  0  0  0  0  0  0  0  0
    9.4440   -4.1860   25.1360 C   0  0  0  0  0  0  0  0  0  0  0  0
   12.5520   -2.2030   22.6010 C   0  0  0  0  0  0  0  0  0  0  0  0
   10.9550    1.7860   23.8310 C   0  0  0  0  0  0  0  0  0  0  0  0
   12.8020    0.3050   22.9170 C   0  0  0  0  0  0  0  0  0  0  0  0
    9.9890   -5.5940   25.2920 C   0  0  0  0  0  0  0  0  0  0  0  0
    8.2260   -3.6200   26.1370 S   0  0  0  0  0  0  0  0  0  0  0  0
   12.4150    1.5880   23.2640 C   0  0  0  0  0  0  0  0  0  0  0  0
    9.1370   -5.9760   26.4330 C   0  0  0  0  0  0  0  0  0  0  0  0
    8.1380   -5.0300   27.0100 C   0  0  0  0  0  0  0  0  0  0  0  0
    7.0770   -5.3050   28.3230 Cl  0  0  0  0  0  0  0  0  0  0  0  0
  1  2  1  0
  1  3  2  0
  1  4  1  0
  4  5  1  0
  4  6  1  0
  5  7  1  0
  6  8  1  0
  5  9  1  6
  7 10  1  0
  8 10  1  0
  9 11  1  0
  9 12  1  0
 11 12  1  0
 10 13  1  0
 13 14  1  6
 13 15  1  0
 15 16  2  0
 15 17  1  0
 14 18  1  0
 17 19  1  0
 16 20  1  0
 17 21  2  0
 18 22  2  0
 18 23  1  0
 20 24  2  0
 21 24  1  0
 22 25  1  0
 23 26  1  0
 25 26  2  0
 26 27  1  0
M  END
