x1418_1-x1334_1-x0434_2-x1385_1-x0692_1-x1374_1-x0831_0-x0831_1-x1334_0-x0770_1-x0397_0-x0426_1
     RDKit          3D

 43 48  0  0  0  0  0  0  0  0999 V2000
    2.2210   -7.7700   23.2490 O   0  0  0  0  0  0  0  0  0  0  0  0
    2.4520   -8.0160   24.6190 C   0  0  0  0  0  0  0  0  0  0  0  0
    3.8400   -7.9650   24.8530 O   0  0  0  0  0  0  0  0  0  0  0  0
    4.5100   -7.2510   23.8290 C   0  0  0  0  0  0  0  0  0  0  0  0
    4.9140   -6.0330   24.2830 C   0  0  0  0  0  0  0  0  0  0  0  0
    6.0130   -5.5240   23.4150 C   0  0  2  0  0  0  0  0  0  0  0  0
    5.7150   -4.7290   22.4370 C   0  0  2  0  0  0  0  0  0  0  0  0
    6.3680   -6.2330   22.2070 C   0  0  0  0  0  0  0  0  0  0  0  0
    6.4550   -3.4340   22.4540 C   0  0  1  0  0  0  0  0  0  0  0  0
    7.9750   -3.6040   22.7380 C   0  0  0  0  0  0  0  0  0  0  0  0
    6.2170   -2.5970   21.3190 N   0  0  0  0  0  0  0  0  0  0  0  0
    6.2710   -3.2510   20.0430 C   0  0  0  0  0  0  0  0  0  0  0  0
    8.5940   -2.2930   22.9030 N   0  0  0  0  0  0  0  0  0  0  0  0
    6.8400   -1.3260   21.7090 C   0  0  2  0  0  0  0  0  0  0  0  0
    7.3310   -2.9530   18.9750 C   0  0  0  0  0  0  0  0  0  0  0  0
    5.4370   -4.1350   19.7770 O   0  0  0  0  0  0  0  0  0  0  0  0
    6.0720    0.0060   21.6020 C   0  0  2  0  0  0  0  0  0  0  0  0
   10.0080   -2.3680   23.1780 C   0  0  2  0  0  0  0  0  0  0  0  0
    8.2340   -1.4280   21.7570 C   0  0  0  0  0  0  0  0  0  0  0  0
    4.7830   -0.0720   22.4490 C   0  0  0  0  0  0  0  0  0  0  0  0
   10.4830   -3.2240   24.3380 C   0  0  0  0  0  0  0  0  0  0  0  0
    5.8020    0.5350   20.2590 C   0  0  0  0  0  0  0  0  0  0  0  0
   10.7280   -0.9980   23.3090 C   0  0  0  0  0  0  0  0  0  0  0  0
    3.8050    1.1350   22.3190 C   0  0  1  0  0  0  0  0  0  0  0  0
    4.7370    1.4080   19.9820 C   0  0  0  0  0  0  0  0  0  0  0  0
    6.6590    0.1630   19.1710 C   0  0  0  0  0  0  0  0  0  0  0  0
   10.1190    0.1860   23.8970 C   0  0  0  0  0  0  0  0  0  0  0  0
   12.1890   -0.8670   22.7770 C   0  0  0  0  0  0  0  0  0  0  0  0
    9.6330   -4.0950   25.2900 C   0  0  0  0  0  0  0  0  0  0  0  0
    4.0230    2.1080   23.3740 N   0  0  0  0  0  0  0  0  0  0  0  0
    3.7380    1.9070   20.9840 C   0  0  0  0  0  0  0  0  0  0  0  0
   12.9620   -1.9680   22.1340 C   0  0  0  0  0  0  0  0  0  0  0  0
    4.6100    1.8720   18.5780 C   0  0  0  0  0  0  0  0  0  0  0  0
    6.5980    0.5390   17.8940 N   0  0  0  0  0  0  0  0  0  0  0  0
   10.7960    1.3790   23.9900 C   0  0  0  0  0  0  0  0  0  0  0  0
   12.7460    0.3460   22.9250 C   0  0  0  0  0  0  0  0  0  0  0  0
    9.9690   -5.3490   25.5060 C   0  0  0  0  0  0  0  0  0  0  0  0
    8.2600   -3.6640   26.1880 S   0  0  0  0  0  0  0  0  0  0  0  0
    5.6140    1.3790   17.5790 C   0  0  0  0  0  0  0  0  0  0  0  0
   12.2100    1.4900   23.4740 C   0  0  0  0  0  0  0  0  0  0  0  0
    9.1370   -6.0640   26.4670 C   0  0  0  0  0  0  0  0  0  0  0  0
    8.1580   -5.2180   26.9210 C   0  0  0  0  0  0  0  0  0  0  0  0
    6.9500   -5.5840   28.0760 Cl  0  0  0  0  0  0  0  0  0  0  0  0
  1  2  1  0
  2  3  1  0
  3  4  1  0
  4  5  1  0
  6  5  1  6
  6  7  1  0
  6  8  1  0
  7  8  1  6
  7  9  1  0
  9 10  1  6
  9 11  1  0
 11 12  1  0
 10 13  1  0
 11 14  1  0
 12 15  1  0
 12 16  2  0
 14 17  1  0
 13 18  1  0
 13 19  1  0
 14 19  1  6
 17 20  1  6
 18 21  1  1
 17 22  1  0
 18 23  1  0
 20 24  1  0
 22 25  2  0
 22 26  1  0
 23 27  2  0
 23 28  1  0
 21 29  1  0
 24 30  1  1
 24 31  1  0
 25 31  1  0
 28 32  1  0
 25 33  1  0
 26 34  2  0
 27 35  1  0
 28 36  2  0
 29 37  2  0
 29 38  1  0
 33 39  2  0
 34 39  1  0
 35 40  2  0
 36 40  1  0
 37 41  1  0
 38 42  1  0
 41 42  2  0
 42 43  1  0
M  END
