x1418_0-x0397_0-x0770_1-x1385_1-x1374_1-x0540_3-x0831_0-x0692_1
     RDKit          3D

 32 34  0  0  0  0  0  0  0  0999 V2000
    2.2380   -6.5960   24.5060 O   0  0  0  0  0  0  0  0  0  0  0  0
    3.2300   -7.2650   23.7630 C   0  0  0  0  0  0  0  0  0  0  0  0
    4.3010   -7.7430   24.5720 O   0  0  0  0  0  0  0  0  0  0  0  0
    5.5510   -7.4940   23.9230 C   0  0  0  0  0  0  0  0  0  0  0  0
    6.0610   -6.3120   24.3570 C   0  0  0  0  0  0  0  0  0  0  0  0
    6.4510   -5.4670   23.1290 C   0  0  2  0  0  0  0  0  0  0  0  0
    5.7420   -4.5550   22.5350 C   0  0  2  0  0  0  0  0  0  0  0  0
    6.3090   -5.9740   21.9320 C   0  0  0  0  0  0  0  0  0  0  0  0
    6.3710   -3.1790   22.5240 C   0  0  2  0  0  0  0  0  0  0  0  0
    6.3180   -2.5180   21.2100 N   0  0  0  0  0  0  0  0  0  0  0  0
    7.7060   -3.3210   22.9160 C   0  0  0  0  0  0  0  0  0  0  0  0
    6.2180   -3.2530   19.9750 C   0  0  0  0  0  0  0  0  0  0  0  0
    8.4990   -2.0560   22.8880 N   0  0  0  0  0  0  0  0  0  0  0  0
    6.9430   -1.1810   21.4300 C   0  0  2  0  0  0  0  0  0  0  0  0
    7.2320   -2.9490   18.8680 C   0  0  0  0  0  0  0  0  0  0  0  0
    5.3740   -4.1470   19.7860 O   0  0  0  0  0  0  0  0  0  0  0  0
    6.6180   -0.0650   20.3690 C   0  0  0  0  0  0  0  0  0  0  0  0
    9.6810   -2.0060   23.8220 C   0  0  1  0  0  0  0  0  0  0  0  0
    8.3070   -1.2400   21.6830 C   0  0  0  0  0  0  0  0  0  0  0  0
    5.3390    0.7290   20.7160 C   0  0  0  0  0  0  0  0  0  0  0  0
   10.5430   -3.2280   23.7840 C   0  0  0  0  0  0  0  0  0  0  0  0
   10.6050   -0.8010   23.6370 C   0  0  0  0  0  0  0  0  0  0  0  0
    5.2600    1.2730   22.1690 C   0  0  0  0  0  0  0  0  0  0  0  0
   10.1960    0.4140   24.1660 C   0  0  0  0  0  0  0  0  0  0  0  0
   11.8640   -0.8170   22.9730 C   0  0  0  0  0  0  0  0  0  0  0  0
    4.2260    2.3270   22.3420 N   0  0  0  0  0  0  0  0  0  0  0  0
   12.5750   -2.0320   22.2760 C   0  0  0  0  0  0  0  0  0  0  0  0
   10.9710    1.5670   24.0520 C   0  0  0  0  0  0  0  0  0  0  0  0
   12.6460    0.3300   22.8630 C   0  0  0  0  0  0  0  0  0  0  0  0
    3.0860    2.1960   23.3150 C   0  0  0  0  0  0  0  0  0  0  0  0
   12.2010    1.5290   23.4000 C   0  0  0  0  0  0  0  0  0  0  0  0
    2.9790    1.2930   24.1360 O   0  0  0  0  0  0  0  0  0  0  0  0
  1  2  1  0
  2  3  1  0
  3  4  1  0
  4  5  1  0
  6  5  1  1
  6  7  1  0
  6  8  1  0
  7  8  1  6
  7  9  1  0
  9 10  1  0
  9 11  1  6
 10 12  1  0
 11 13  1  0
 10 14  1  0
 12 15  1  0
 12 16  2  0
 14 17  1  6
 13 18  1  0
 13 19  1  0
 14 19  1  0
 17 20  1  0
 18 21  1  6
 18 22  1  0
 20 23  1  0
 22 24  2  0
 22 25  1  0
 23 26  1  0
 25 27  1  0
 24 28  1  0
 25 29  2  0
 26 30  1  0
 28 31  2  0
 29 31  1  0
 30 32  2  0
M  END
