x1418_0-x1334_1
     RDKit          3D

 15 16  0  0  0  0  0  0  0  0999 V2000
    6.3700   -3.3030   19.9350 C   0  0  0  0  0  0  0  0  0  0  0  0
    7.3480   -3.0240   18.8020 C   0  0  0  0  0  0  0  0  0  0  0  0
    5.4430   -4.1110   19.7450 O   0  0  0  0  0  0  0  0  0  0  0  0
    6.5640   -2.6610   21.1540 N   0  0  0  0  0  0  0  0  0  0  0  0
    7.4750   -1.5200   21.2970 C   0  0  0  0  0  0  0  0  0  0  0  0
    6.5060   -3.5000   22.3550 C   0  0  0  0  0  0  0  0  0  0  0  0
    8.7300   -1.8520   21.8040 C   0  0  0  0  0  0  0  0  0  0  0  0
    7.8730   -3.7290   23.0300 C   0  0  0  0  0  0  0  0  0  0  0  0
    8.6920   -2.5120   23.1180 N   0  0  0  0  0  0  0  0  0  0  0  0
   10.0920   -2.8510   23.4280 C   0  0  0  0  0  0  0  0  0  0  0  0
   10.9780   -1.5890   23.5130 C   0  0  0  0  0  0  0  0  0  0  0  0
   12.0750   -1.4560   22.6480 C   0  0  0  0  0  0  0  0  0  0  0  0
   10.7750   -0.2630   24.5890 S   0  0  0  0  0  0  0  0  0  0  0  0
   12.7380   -0.2570   22.8730 C   0  0  0  0  0  0  0  0  0  0  0  0
   12.1410    0.4710   23.8770 C   0  0  0  0  0  0  0  0  0  0  0  0
  1  2  1  0
  1  3  2  0
  1  4  1  0
  4  5  1  0
  4  6  1  0
  5  7  1  0
  6  8  1  0
  7  9  1  0
  8  9  1  0
  9 10  1  0
 10 11  1  0
 11 12  2  0
 11 13  1  0
 12 14  1  0
 13 15  1  0
 14 15  2  0
M  END
