x1418_0-x0831_1-x0770_1-x1418_1
     RDKit          3D

 16 17  0  0  0  0  0  0  0  0999 V2000
    6.1780   -3.4570   19.9860 C   0  0  0  0  0  0  0  0  0  0  0  0
    7.1540   -3.0360   18.8890 C   0  0  0  0  0  0  0  0  0  0  0  0
    5.2790   -4.2620   19.7530 O   0  0  0  0  0  0  0  0  0  0  0  0
    6.3270   -2.9440   21.2670 N   0  0  0  0  0  0  0  0  0  0  0  0
    6.0700   -1.5220   21.5140 C   0  0  0  0  0  0  0  0  0  0  0  0
    6.9500   -3.7120   22.3560 C   0  0  0  0  0  0  0  0  0  0  0  0
    7.3750   -0.7010   21.4090 C   0  0  0  0  0  0  0  0  0  0  0  0
    7.5010   -2.8250   23.5080 C   0  0  0  0  0  0  0  0  0  0  0  0
    8.6580   -2.0440   23.0900 N   0  0  0  0  0  0  0  0  0  0  0  0
    8.6350   -1.5280   21.7100 C   0  0  0  0  0  0  0  0  0  0  0  0
   10.0120   -2.5220   23.4110 C   0  0  0  0  0  0  0  0  0  0  0  0
   10.9960   -1.3860   23.4630 C   0  0  0  0  0  0  0  0  0  0  0  0
   12.1350   -1.2470   22.7370 C   0  0  0  0  0  0  0  0  0  0  0  0
   10.8010   -0.0420   24.4660 S   0  0  0  0  0  0  0  0  0  0  0  0
   13.0730   -0.0630   22.8170 C   0  0  0  0  0  0  0  0  0  0  0  0
   12.2310    0.6420   23.8600 C   0  0  0  0  0  0  0  0  0  0  0  0
  1  2  1  0
  1  3  2  0
  1  4  1  0
  4  5  1  0
  4  6  1  0
  5  7  1  0
  6  8  1  0
  8  9  1  0
  7 10  1  0
  9 10  1  0
  9 11  1  0
 11 12  1  0
 12 13  2  0
 12 14  1  0
 13 15  1  0
 14 16  1  0
 15 16  2  0
M  END
