x1418_0-x0874_0-x0387_0-x0434_2-x0981_1-x0820_1-x1334_1
     RDKit          3D

 48 54  0  0  0  0  0  0  0  0999 V2000
    4.5100   -5.5080   23.1820 C   0  0  0  0  0  0  0  0  0  0  0  0
    3.0940   -6.0780   23.3390 C   0  0  1  0  0  0  0  0  0  0  0  0
    2.7840   -7.2380   22.5050 N   0  0  0  0  0  0  0  0  0  0  0  0
    4.1540   -4.5400   24.7490 C   0  0  0  0  0  0  0  0  0  0  0  0
    2.7930   -6.3500   24.8150 C   0  0  0  0  0  0  0  0  0  0  0  0
    4.5530   -4.5590   26.0430 C   0  0  0  0  0  0  0  0  0  0  0  0
    5.0990   -4.3650   23.7200 C   0  0  0  0  0  0  0  0  0  0  0  0
    1.5900   -7.3850   21.9160 C   0  0  0  0  0  0  0  0  0  0  0  0
    3.0600   -7.7920   25.1920 C   0  0  0  0  0  0  0  0  0  0  0  0
    6.4390   -4.2050   23.9830 C   0  0  0  0  0  0  0  0  0  0  0  0
    5.9160   -4.3990   26.3890 C   0  0  0  0  0  0  0  0  0  0  0  0
    1.3430   -8.6730   21.1970 C   0  0  0  0  0  0  0  0  0  0  0  0
    0.7360   -6.5000   21.9450 O   0  0  0  0  0  0  0  0  0  0  0  0
    2.4110   -8.2650   26.2450 N   0  0  0  0  0  0  0  0  0  0  0  0
    3.8600   -8.4710   24.5530 O   0  0  0  0  0  0  0  0  0  0  0  0
    7.6400   -3.7960   22.9530 C   0  0  2  0  0  0  0  0  0  0  0  0
    6.8860   -4.2170   25.3580 C   0  0  0  0  0  0  0  0  0  0  0  0
    6.3270   -4.4200   27.7430 C   0  0  0  0  0  0  0  0  0  0  0  0
    7.5420   -2.5260   22.4730 C   0  0  1  0  0  0  0  0  0  0  0  0
    8.2410   -4.0590   25.7640 C   0  0  0  0  0  0  0  0  0  0  0  0
    7.6330   -4.2720   28.0760 C   0  0  0  0  0  0  0  0  0  0  0  0
    7.0350   -3.5860   22.5530 C   0  0  0  0  0  0  0  0  0  0  0  0
    8.4690   -2.6360   23.2960 N   0  0  0  0  0  0  0  0  0  0  0  0
    6.8670   -2.7290   20.9200 C   0  0  2  0  0  0  0  0  0  0  0  0
    6.4300   -3.3760   22.1540 C   0  0  0  0  0  0  0  0  0  0  0  0
    8.6000   -4.0860   27.0800 C   0  0  0  0  0  0  0  0  0  0  0  0
    6.5330   -3.1970   19.6980 C   0  0  0  0  0  0  0  0  0  0  0  0
   10.0540   -2.6430   23.5460 C   0  0  2  0  0  0  0  0  0  0  0  0
    8.8930   -1.9680   22.0610 C   0  0  0  0  0  0  0  0  0  0  0  0
    7.7100   -1.5650   21.2060 C   0  0  2  0  0  0  0  0  0  0  0  0
    7.1360   -2.5360   18.4720 C   0  0  0  0  0  0  0  0  0  0  0  0
    5.7910   -4.1670   19.5620 O   0  0  0  0  0  0  0  0  0  0  0  0
    9.7170   -1.5590   24.2350 C   0  0  0  0  0  0  0  0  0  0  0  0
    7.3290   -0.6840   20.9150 N   0  0  0  0  0  0  0  0  0  0  0  0
   11.0210   -1.5060   23.5860 C   0  0  0  0  0  0  0  0  0  0  0  0
   12.1120   -1.2610   22.7430 C   0  0  1  0  0  0  0  0  0  0  0  0
   10.8900   -0.2770   24.7770 S   0  0  0  0  0  0  0  0  0  0  0  0
    6.6490    0.0080   19.8530 C   0  0  0  0  0  0  0  0  0  0  0  0
   12.7990   -0.0810   23.1240 C   0  0  0  0  0  0  0  0  0  0  0  0
   12.1210    0.6380   24.0450 C   0  0  0  0  0  0  0  0  0  0  0  0
    7.1890    0.0390   18.5790 C   0  0  0  0  0  0  0  0  0  0  0  0
    5.4460    0.6340   20.1390 C   0  0  0  0  0  0  0  0  0  0  0  0
   12.6440   -1.2170   22.5020 C   0  0  0  0  0  0  0  0  0  0  0  0
   13.1760   -1.1740   22.2600 S   0  0  0  0  0  0  0  0  0  0  0  0
    6.5560    0.6700   17.6270 N   0  0  0  0  0  0  0  0  0  0  0  0
    4.8170    1.2970   19.0970 C   0  0  0  0  0  0  0  0  0  0  0  0
   12.9880   -0.6270   22.6920 C   0  0  0  0  0  0  0  0  0  0  0  0
    5.4080    1.2680   17.8390 C   0  0  0  0  0  0  0  0  0  0  0  0
  2  1  1  1
  2  3  1  0
  1  4  1  0
  2  5  1  0
  4  6  2  0
  4  7  1  0
  3  8  1  0
  5  9  1  0
  7 10  2  0
  6 11  1  0
  8 12  1  0
  8 13  2  0
  9 14  1  0
  9 15  2  0
 16 10  1  1
 10 17  1  0
 11 17  2  0
 11 18  1  0
 16 19  1  0
 17 20  1  0
 18 21  2  0
 16 22  1  0
 19 23  1  6
 19 24  1  0
 22 25  2  0
 24 25  1  0
 20 26  2  0
 21 26  1  0
 24 27  1  6
 23 28  1  0
 23 29  1  0
 24 30  1  0
 29 30  1  0
 27 31  1  0
 27 32  2  0
 28 33  1  1
 30 34  1  1
 28 35  1  0
 35 36  1  0
 35 37  1  0
 34 38  1  0
 36 39  1  0
 37 40  2  0
 39 40  1  0
 38 41  2  0
 38 42  1  0
 36 43  1  1
 43 44  2  0
 41 45  1  0
 42 46  2  0
 39 47  1  0
 44 47  2  0
 45 48  2  0
 46 48  1  0
M  END
