x1412_1-x0434_2-x0397_0-x0831_1-x1374_1-x0831_0-x0692_1-x1385_1-x0770_1-x1334_0-x1334_1
     RDKit          3D

 39 43  0  0  0  0  0  0  0  0999 V2000
    2.1310   -7.1970   23.6580 O   0  0  0  0  0  0  0  0  0  0  0  0
    2.5510   -7.8260   24.8490 C   0  0  0  0  0  0  0  0  0  0  0  0
    3.9630   -7.9140   24.8460 O   0  0  0  0  0  0  0  0  0  0  0  0
    4.5500   -7.1850   23.7810 C   0  0  0  0  0  0  0  0  0  0  0  0
    4.8970   -5.9370   24.2390 C   0  0  0  0  0  0  0  0  0  0  0  0
    5.9740   -5.4970   23.2980 C   0  0  2  0  0  0  0  0  0  0  0  0
    5.6660   -4.4580   22.2920 C   0  0  2  0  0  0  0  0  0  0  0  0
    6.1660   -6.0730   21.9990 C   0  0  0  0  0  0  0  0  0  0  0  0
    6.5580   -3.2570   22.3090 C   0  0  2  0  0  0  0  0  0  0  0  0
    6.7150   -2.6850   21.1210 N   0  0  0  0  0  0  0  0  0  0  0  0
    7.9740   -3.5990   22.8460 C   0  0  0  0  0  0  0  0  0  0  0  0
    6.4390   -3.3640   19.9480 C   0  0  0  0  0  0  0  0  0  0  0  0
    8.6300   -2.3570   23.2110 N   0  0  0  0  0  0  0  0  0  0  0  0
    7.5300   -1.5530   21.1150 C   0  0  1  0  0  0  0  0  0  0  0  0
    7.3580   -3.0540   18.7900 C   0  0  0  0  0  0  0  0  0  0  0  0
    5.5190   -4.1960   19.7990 O   0  0  0  0  0  0  0  0  0  0  0  0
   10.0340   -2.5230   23.3820 C   0  0  2  0  0  0  0  0  0  0  0  0
    6.5290   -0.5080   21.2360 N   0  0  0  0  0  0  0  0  0  0  0  0
    8.5570   -1.3270   22.2100 C   0  0  0  0  0  0  0  0  0  0  0  0
   10.5490   -3.3470   24.5390 C   0  0  0  0  0  0  0  0  0  0  0  0
   10.7530   -1.1530   23.3960 C   0  0  0  0  0  0  0  0  0  0  0  0
    6.0660    0.1490   20.1190 C   0  0  0  0  0  0  0  0  0  0  0  0
   10.0850    0.1140   23.9270 C   0  0  0  0  0  0  0  0  0  0  0  0
   12.1920   -0.9720   22.8680 C   0  0  0  0  0  0  0  0  0  0  0  0
    9.6230   -4.1260   25.4450 C   0  0  0  0  0  0  0  0  0  0  0  0
    6.7960    0.0740   18.8200 C   0  0  0  0  0  0  0  0  0  0  0  0
    4.9010    0.9080   20.1690 C   0  0  0  0  0  0  0  0  0  0  0  0
   12.9640   -2.1090   22.3000 C   0  0  0  0  0  0  0  0  0  0  0  0
   10.7240    1.5220   23.9860 C   0  0  0  0  0  0  0  0  0  0  0  0
   12.8110    0.4320   22.9360 C   0  0  0  0  0  0  0  0  0  0  0  0
   10.0150   -5.4030   25.6700 C   0  0  0  0  0  0  0  0  0  0  0  0
    8.1810   -3.7140   26.2710 S   0  0  0  0  0  0  0  0  0  0  0  0
    6.3890    0.6990   17.7100 N   0  0  0  0  0  0  0  0  0  0  0  0
    4.5000    1.5480   18.9980 C   0  0  0  0  0  0  0  0  0  0  0  0
   12.0180    1.6160   23.5020 C   0  0  0  0  0  0  0  0  0  0  0  0
    9.1560   -6.0760   26.5490 C   0  0  0  0  0  0  0  0  0  0  0  0
    8.1280   -5.2760   26.9640 C   0  0  0  0  0  0  0  0  0  0  0  0
    5.2600    1.4190   17.8200 C   0  0  0  0  0  0  0  0  0  0  0  0
    6.8830   -5.7050   28.0550 Cl  0  0  0  0  0  0  0  0  0  0  0  0
  1  2  1  0
  2  3  1  0
  3  4  1  0
  4  5  1  0
  6  5  1  6
  6  7  1  0
  6  8  1  0
  7  8  1  6
  7  9  1  0
  9 10  1  0
  9 11  1  6
 10 12  1  0
 11 13  1  0
 10 14  1  0
 12 15  1  0
 12 16  2  0
 13 17  1  0
 14 18  1  1
 13 19  1  0
 14 19  1  0
 17 20  1  1
 17 21  1  0
 18 22  1  0
 21 23  2  0
 21 24  1  0
 20 25  1  0
 22 26  2  0
 22 27  1  0
 24 28  1  0
 23 29  1  0
 24 30  2  0
 25 31  2  0
 25 32  1  0
 26 33  1  0
 27 34  2  0
 29 35  2  0
 30 35  1  0
 31 36  1  0
 32 37  1  0
 36 37  2  0
 33 38  2  0
 34 38  1  0
 37 39  1  0
M  END
