x1412_1-x0874_0-x1412_0-x1385_1
     RDKit          3D

 23 25  0  0  0  0  0  0  0  0999 V2000
    6.3230   -3.3630   19.9120 C   0  0  0  0  0  0  0  0  0  0  0  0
    7.3070   -3.0180   18.8070 C   0  0  0  0  0  0  0  0  0  0  0  0
    5.3640   -4.1090   19.6930 O   0  0  0  0  0  0  0  0  0  0  0  0
    6.5410   -2.8590   21.1690 N   0  0  0  0  0  0  0  0  0  0  0  0
    7.5370   -1.8040   21.4360 C   0  0  0  0  0  0  0  0  0  0  0  0
    6.2320   -3.7490   22.2830 C   0  0  0  0  0  0  0  0  0  0  0  0
    8.8080   -2.3380   22.1650 C   0  0  0  0  0  0  0  0  0  0  0  0
    7.5000   -4.2980   22.9410 C   0  0  0  0  0  0  0  0  0  0  0  0
    8.4040   -3.2020   23.2720 N   0  0  0  0  0  0  0  0  0  0  0  0
    8.5510   -2.8440   24.5880 C   0  0  0  0  0  0  0  0  0  0  0  0
    8.6070   -1.6220   24.9760 N   0  0  0  0  0  0  0  0  0  0  0  0
    8.6570   -3.9130   25.5760 C   0  0  0  0  0  0  0  0  0  0  0  0
    8.5310   -0.5940   23.9510 C   0  0  0  0  0  0  0  0  0  0  0  0
    9.4360   -5.0900   25.4360 C   0  0  0  0  0  0  0  0  0  0  0  0
    7.8430   -3.9250   27.1070 S   0  0  0  0  0  0  0  0  0  0  0  0
    9.7780    0.2790   23.9880 C   0  0  0  0  0  0  0  0  0  0  0  0
    9.3230   -5.9730   26.6330 C   0  0  0  0  0  0  0  0  0  0  0  0
    8.4860   -5.4440   27.6090 C   0  0  0  0  0  0  0  0  0  0  0  0
   11.0530   -0.1850   23.3050 C   0  0  0  0  0  0  0  0  0  0  0  0
   12.1980    0.6580   23.3280 C   0  0  0  0  0  0  0  0  0  0  0  0
   11.3290   -1.3650   22.6120 C   0  0  0  0  0  0  0  0  0  0  0  0
   13.2700    0.1180   22.6770 C   0  0  0  0  0  0  0  0  0  0  0  0
   12.9390   -1.4240   22.0230 S   0  0  0  0  0  0  0  0  0  0  0  0
  1  2  1  0
  1  3  2  0
  1  4  1  0
  4  5  1  0
  4  6  1  0
  5  7  1  0
  6  8  1  0
  7  9  1  0
  8  9  1  0
  9 10  1  0
 10 11  2  3
 10 12  1  0
 11 13  1  0
 12 14  2  0
 12 15  1  0
 13 16  1  0
 14 17  1  0
 15 18  1  0
 17 18  2  0
 16 19  1  0
 19 20  1  0
 19 21  2  0
 20 22  2  0
 21 23  1  0
 22 23  1  0
M  END
