x1412_1-x0831_0-x0770_1-x0692_1-x0434_2-x1334_1-x0397_0-x1334_0-x1418_1
     RDKit          3D

 34 38  0  0  0  0  0  0  0  0999 V2000
    6.3840   -3.3460   20.0700 C   0  0  0  0  0  0  0  0  0  0  0  0
    7.3470   -3.0310   18.9430 C   0  0  0  0  0  0  0  0  0  0  0  0
    5.4970   -4.1980   19.8300 O   0  0  0  0  0  0  0  0  0  0  0  0
    6.5100   -2.7090   21.3300 N   0  0  0  0  0  0  0  0  0  0  0  0
    6.9840   -1.3690   21.7270 C   0  0  2  0  0  0  0  0  0  0  0  0
    6.4340   -3.5170   22.5400 C   0  0  2  0  0  0  0  0  0  0  0  0
    7.5710   -0.5930   20.6830 N   0  0  0  0  0  0  0  0  0  0  0  0
    8.0430   -1.3000   22.8220 C   0  0  0  0  0  0  0  0  0  0  0  0
    7.8660   -3.7610   23.0900 C   0  0  0  0  0  0  0  0  0  0  0  0
    5.6250   -4.7500   22.3200 C   0  0  0  0  0  0  0  0  0  0  0  0
    8.5530   -2.5210   23.4960 N   0  0  0  0  0  0  0  0  0  0  0  0
    6.1280   -5.9150   22.9600 C   0  0  0  0  0  0  0  0  0  0  0  0
    6.1870   -6.1670   21.6800 C   0  0  0  0  0  0  0  0  0  0  0  0
    6.7450    0.0760   19.8240 C   0  0  0  0  0  0  0  0  0  0  0  0
    9.9970   -2.5010   23.2600 C   0  0  2  0  0  0  0  0  0  0  0  0
    7.0020    0.2020   18.4930 C   0  0  0  0  0  0  0  0  0  0  0  0
    5.5690    0.6840   20.2410 C   0  0  0  0  0  0  0  0  0  0  0  0
   10.5910   -3.3270   24.3560 C   0  0  0  0  0  0  0  0  0  0  0  0
   10.7270   -1.1150   23.3420 C   0  0  0  0  0  0  0  0  0  0  0  0
    6.2450    0.8440   17.6010 N   0  0  0  0  0  0  0  0  0  0  0  0
    4.7450    1.3660   19.3560 C   0  0  0  0  0  0  0  0  0  0  0  0
   10.1120    0.0480   23.8910 C   0  0  0  0  0  0  0  0  0  0  0  0
   12.0410   -0.9300   22.8790 C   0  0  0  0  0  0  0  0  0  0  0  0
    9.7380   -4.1650   25.2900 C   0  0  0  0  0  0  0  0  0  0  0  0
    5.1190    1.4280   18.0370 C   0  0  0  0  0  0  0  0  0  0  0  0
   12.8360   -2.0230   22.2590 C   0  0  0  0  0  0  0  0  0  0  0  0
   10.7360    1.3400   24.0050 C   0  0  0  0  0  0  0  0  0  0  0  0
   12.6520    0.3170   22.9860 C   0  0  0  0  0  0  0  0  0  0  0  0
   10.0080   -5.4100   25.6210 C   0  0  0  0  0  0  0  0  0  0  0  0
    8.2950   -3.6810   26.1180 S   0  0  0  0  0  0  0  0  0  0  0  0
   12.0330    1.4250   23.5290 C   0  0  0  0  0  0  0  0  0  0  0  0
    9.2030   -6.0480   26.4930 C   0  0  0  0  0  0  0  0  0  0  0  0
    8.1500   -5.2610   26.9390 C   0  0  0  0  0  0  0  0  0  0  0  0
    6.9120   -5.6520   28.0550 Cl  0  0  0  0  0  0  0  0  0  0  0  0
  1  2  1  0
  1  3  2  0
  1  4  1  0
  4  5  1  0
  4  6  1  0
  5  7  1  6
  5  8  1  0
  6  9  1  0
  6 10  1  6
  8 11  1  0
  9 11  1  0
 10 12  1  0
 10 13  1  0
 12 13  1  0
  7 14  1  0
 11 15  1  0
 14 16  2  0
 14 17  1  0
 15 18  1  1
 15 19  1  0
 16 20  1  0
 17 21  2  0
 19 22  2  0
 19 23  1  0
 18 24  1  0
 20 25  2  0
 21 25  1  0
 23 26  1  0
 22 27  1  0
 23 28  2  0
 24 29  2  0
 24 30  1  0
 27 31  2  0
 28 31  1  0
 29 32  1  0
 30 33  1  0
 32 33  2  0
 33 34  1  0
M  END
