x1412_1-x1418_0-x0981_1
     RDKit          3D

 27 28  0  0  0  0  0  0  0  0999 V2000
    4.1700   -5.2710   23.2340 C   0  0  0  0  0  0  0  0  0  0  0  0
    2.8350   -5.9990   23.5220 C   0  0  1  0  0  0  0  0  0  0  0  0
    2.6120   -7.2010   22.7160 N   0  0  0  0  0  0  0  0  0  0  0  0
    4.3560   -3.9080   23.7700 N   0  0  0  0  0  0  0  0  0  0  0  0
    2.6030   -6.2610   25.0450 C   0  0  0  0  0  0  0  0  0  0  0  0
    5.6050   -3.1360   23.5390 C   0  0  0  0  0  0  0  0  0  0  0  0
    1.3760   -7.4180   22.1430 C   0  0  0  0  0  0  0  0  0  0  0  0
    3.0520   -7.7380   25.3200 C   0  0  0  0  0  0  0  0  0  0  0  0
    6.5180   -3.6810   22.4280 C   0  0  1  0  0  0  0  0  0  0  0  0
    1.2170   -8.7130   21.3820 C   0  0  0  0  0  0  0  0  0  0  0  0
    0.4650   -6.6030   22.2200 O   0  0  0  0  0  0  0  0  0  0  0  0
    2.4160   -8.4470   26.2930 N   0  0  0  0  0  0  0  0  0  0  0  0
    3.9550   -8.2150   24.6630 O   0  0  0  0  0  0  0  0  0  0  0  0
    6.4660   -2.7970   21.2330 N   0  0  0  0  0  0  0  0  0  0  0  0
    7.8270   -3.7310   22.8950 C   0  0  0  0  0  0  0  0  0  0  0  0
    6.2650   -3.3910   19.9830 C   0  0  0  0  0  0  0  0  0  0  0  0
    8.5380   -2.4440   23.1270 N   0  0  0  0  0  0  0  0  0  0  0  0
    7.1000   -1.4760   21.3890 C   0  0  0  0  0  0  0  0  0  0  0  0
    7.2230   -3.0090   18.8610 C   0  0  0  0  0  0  0  0  0  0  0  0
    5.3650   -4.2130   19.7760 O   0  0  0  0  0  0  0  0  0  0  0  0
    9.9650   -2.6840   23.4500 C   0  0  0  0  0  0  0  0  0  0  0  0
    8.5340   -1.6520   21.8950 C   0  0  0  0  0  0  0  0  0  0  0  0
   10.8810   -1.6140   23.2790 C   0  0  0  0  0  0  0  0  0  0  0  0
   12.2550   -1.6700   23.0540 C   0  0  0  0  0  0  0  0  0  0  0  0
   10.4290    0.0430   23.3110 S   0  0  0  0  0  0  0  0  0  0  0  0
   12.8690   -0.3310   22.9230 C   0  0  0  0  0  0  0  0  0  0  0  0
   12.0220    0.6680   23.0390 C   0  0  0  0  0  0  0  0  0  0  0  0
  2  1  1  1
  2  3  1  0
  1  4  2  3
  2  5  1  0
  4  6  1  0
  3  7  1  0
  5  8  1  0
  9  6  1  1
  7 10  1  0
  7 11  2  0
  8 12  1  0
  8 13  2  0
  9 14  1  0
  9 15  1  0
 14 16  1  0
 15 17  1  0
 14 18  1  0
 16 19  1  0
 16 20  2  0
 17 21  1  0
 17 22  1  0
 18 22  1  0
 21 23  1  0
 23 24  2  0
 23 25  1  0
 24 26  1  0
 25 27  1  0
 26 27  2  0
M  END
