x1418_1-x1412_0
     RDKit          3D

 16 17  0  0  0  0  0  0  0  0999 V2000
    6.3900   -3.2480   19.8840 C   0  0  0  0  0  0  0  0  0  0  0  0
    7.3520   -2.9660   18.7460 C   0  0  0  0  0  0  0  0  0  0  0  0
    5.4600   -4.0410   19.7150 O   0  0  0  0  0  0  0  0  0  0  0  0
    6.6020   -2.6190   21.1170 N   0  0  0  0  0  0  0  0  0  0  0  0
    6.3850   -3.3410   22.3600 C   0  0  0  0  0  0  0  0  0  0  0  0
    7.5700   -1.5070   21.2280 C   0  0  0  0  0  0  0  0  0  0  0  0
    7.7370   -3.9170   22.8550 C   0  0  0  0  0  0  0  0  0  0  0  0
    8.8410   -1.7910   22.0900 C   0  0  0  0  0  0  0  0  0  0  0  0
    8.6730   -2.8410   23.1600 N   0  0  0  0  0  0  0  0  0  0  0  0
    8.5550   -2.4060   24.5510 C   0  0  0  0  0  0  0  0  0  0  0  0
    8.3750   -1.2840   25.0070 O   0  0  0  0  0  0  0  0  0  0  0  0
    8.6800   -3.5970   25.4880 C   0  0  0  0  0  0  0  0  0  0  0  0
    9.6730   -4.7550   25.3550 C   0  0  0  0  0  0  0  0  0  0  0  0
    7.6950   -3.8570   26.8910 S   0  0  0  0  0  0  0  0  0  0  0  0
    9.4520   -5.7020   26.4700 C   0  0  0  0  0  0  0  0  0  0  0  0
    8.4520   -5.3430   27.3390 C   0  0  0  0  0  0  0  0  0  0  0  0
  1  2  1  0
  1  3  2  0
  1  4  1  0
  4  5  1  0
  4  6  1  0
  5  7  1  0
  6  8  1  0
  7  9  1  0
  8  9  1  0
  9 10  1  0
 10 11  2  0
 10 12  1  0
 12 13  2  0
 12 14  1  0
 13 15  1  0
 14 16  1  0
 15 16  2  0
M  END
