x1418_0-x0749_1-x0978_0
     RDKit          3D

 16 17  0  0  0  0  0  0  0  0999 V2000
    6.4100   -3.9660   20.2160 C   0  0  0  0  0  0  0  0  0  0  0  0
    7.4500   -3.2580   19.3100 C   0  0  0  0  0  0  0  0  0  0  0  0
    5.3100   -4.2990   19.8000 O   0  0  0  0  0  0  0  0  0  0  0  0
    6.7590   -4.2720   21.5240 N   0  0  0  0  0  0  0  0  0  0  0  0
    8.0330   -3.7590   22.0880 C   0  0  0  0  0  0  0  0  0  0  0  0
    6.3250   -5.5150   22.1360 C   0  0  0  0  0  0  0  0  0  0  0  0
    8.3860   -4.1930   23.5010 C   0  0  2  0  0  0  0  0  0  0  0  0
    7.5350   -6.2540   22.6790 C   0  0  0  0  0  0  0  0  0  0  0  0
    9.8150   -3.6900   23.7340 C   0  0  0  0  0  0  0  0  0  0  0  0
    8.1810   -5.7030   23.7170 C   0  0  0  0  0  0  0  0  0  0  0  0
    9.6660   -2.1230   23.8550 C   0  0  0  0  0  0  0  0  0  0  0  0
   10.8730   -1.2560   23.5760 C   0  0  0  0  0  0  0  0  0  0  0  0
   11.9790   -1.4890   22.7740 C   0  0  0  0  0  0  0  0  0  0  0  0
   10.9700    0.2830   24.3210 S   0  0  0  0  0  0  0  0  0  0  0  0
   12.8880   -0.3900   22.7810 C   0  0  0  0  0  0  0  0  0  0  0  0
   12.4340    0.5920   23.5670 C   0  0  0  0  0  0  0  0  0  0  0  0
  1  2  1  0
  1  3  2  0
  1  4  1  0
  4  5  1  0
  4  6  1  0
  5  7  1  0
  6  8  1  0
  7  9  1  6
  7 10  1  0
  8 10  1  0
  9 11  1  0
 11 12  1  0
 12 13  2  0
 12 14  1  0
 13 15  1  0
 14 16  1  0
 15 16  2  0
M  END
