x1418_0-x0397_1
     RDKit          3D

 17 18  0  0  0  0  0  0  0  0999 V2000
    7.1060   -1.6900   20.3210 N   0  0  0  0  0  0  0  0  0  0  0  0
    7.9990   -1.0080   21.2800 C   0  0  0  0  0  0  0  0  0  0  0  0
    9.1380   -1.9680   21.6740 C   0  0  0  0  0  0  0  0  0  0  0  0
    6.9690   -1.3720   18.9530 C   0  0  0  0  0  0  0  0  0  0  0  0
    6.1680   -0.1740   18.6720 C   0  0  0  0  0  0  0  0  0  0  0  0
    9.0980   -2.6130   23.1550 C   0  0  0  0  0  0  0  0  0  0  0  0
    5.1450    0.3050   19.4060 C   0  0  0  0  0  0  0  0  0  0  0  0
    6.2840    0.7660   17.5470 N   0  0  0  0  0  0  0  0  0  0  0  0
   10.5480   -2.7720   23.6330 C   0  0  0  0  0  0  0  0  0  0  0  0
    4.6020    1.4310   18.8930 C   0  0  0  0  0  0  0  0  0  0  0  0
    5.3640    1.6880   17.7030 O   0  0  0  0  0  0  0  0  0  0  0  0
    3.4390    2.3080   19.3880 C   0  0  0  0  0  0  0  0  0  0  0  0
   11.2870   -1.4880   23.5550 C   0  0  0  0  0  0  0  0  0  0  0  0
   12.4430   -1.3360   22.7910 C   0  0  0  0  0  0  0  0  0  0  0  0
   10.7870   -0.0580   24.3900 S   0  0  0  0  0  0  0  0  0  0  0  0
   12.9620    0.0620   22.8880 C   0  0  0  0  0  0  0  0  0  0  0  0
   12.0820    0.8930   23.7790 C   0  0  0  0  0  0  0  0  0  0  0  0
  1  2  1  0
  2  3  1  0
  1  4  1  0
  4  5  1  0
  3  6  1  0
  5  7  1  0
  5  8  2  0
  6  9  1  0
  7 10  2  0
  8 11  1  0
 10 11  1  0
 10 12  1  0
  9 13  1  0
 13 14  2  0
 13 15  1  0
 14 16  1  0
 15 17  1  0
 16 17  2  0
M  END
