x1412_1-x0831_0-x0770_1-x1334_1-x0692_1-x0434_2-x0397_0-x1385_1
     RDKit          3D

 27 30  0  0  0  0  0  0  0  0999 V2000
    6.4070   -3.3250   19.9590 C   0  0  0  0  0  0  0  0  0  0  0  0
    7.3340   -2.9540   18.7980 C   0  0  0  0  0  0  0  0  0  0  0  0
    5.4190   -4.0420   19.7240 O   0  0  0  0  0  0  0  0  0  0  0  0
    6.6960   -2.9520   21.2970 N   0  0  0  0  0  0  0  0  0  0  0  0
    7.3840   -1.6810   21.5880 C   0  0  2  0  0  0  0  0  0  0  0  0
    7.0770   -4.0030   22.2880 C   0  0  1  0  0  0  0  0  0  0  0  0
    7.5600   -0.8510   20.4140 N   0  0  0  0  0  0  0  0  0  0  0  0
    8.7680   -2.0610   22.0790 C   0  0  0  0  0  0  0  0  0  0  0  0
    7.9970   -3.5890   23.4930 C   0  0  0  0  0  0  0  0  0  0  0  0
    5.8470   -4.7820   22.7070 C   0  0  0  0  0  0  0  0  0  0  0  0
    8.7640   -2.4830   23.3350 N   0  0  0  0  0  0  0  0  0  0  0  0
    6.2150   -6.0580   23.0750 C   0  0  0  0  0  0  0  0  0  0  0  0
    5.4050   -6.2560   22.0670 C   0  0  0  0  0  0  0  0  0  0  0  0
    6.6370   -0.0780   19.7540 C   0  0  0  0  0  0  0  0  0  0  0  0
   10.2190   -2.5670   23.6940 C   0  0  0  0  0  0  0  0  0  0  0  0
    7.0090    0.1240   18.4590 C   0  0  0  0  0  0  0  0  0  0  0  0
    5.4540    0.4690   20.2720 C   0  0  0  0  0  0  0  0  0  0  0  0
   10.8860   -1.2010   23.6490 C   0  0  0  0  0  0  0  0  0  0  0  0
    6.1840    0.9240   17.5750 N   0  0  0  0  0  0  0  0  0  0  0  0
    4.6500    1.2410   19.4370 C   0  0  0  0  0  0  0  0  0  0  0  0
   10.2330   -0.1080   24.3070 C   0  0  0  0  0  0  0  0  0  0  0  0
   12.1180   -0.9930   22.9710 C   0  0  0  0  0  0  0  0  0  0  0  0
    5.0620    1.4270   18.1360 C   0  0  0  0  0  0  0  0  0  0  0  0
   12.8320   -2.1000   22.2580 C   0  0  0  0  0  0  0  0  0  0  0  0
   10.8260    1.1370   24.2560 C   0  0  0  0  0  0  0  0  0  0  0  0
   12.7020    0.2710   22.9440 C   0  0  0  0  0  0  0  0  0  0  0  0
   12.0260    1.2760   23.5850 C   0  0  0  0  0  0  0  0  0  0  0  0
  1  2  1  0
  1  3  2  0
  1  4  1  0
  4  5  1  0
  4  6  1  0
  5  7  1  6
  5  8  1  0
  6  9  1  0
  6 10  1  1
  8 11  1  0
  9 11  1  0
 10 12  1  0
 10 13  1  0
 12 13  1  0
  7 14  1  0
 11 15  1  0
 14 16  2  0
 14 17  1  0
 15 18  1  0
 16 19  1  0
 17 20  2  0
 18 21  2  0
 18 22  1  0
 19 23  2  0
 20 23  1  0
 22 24  1  0
 21 25  1  0
 22 26  2  0
 25 27  2  0
 26 27  1  0
M  END
