x1418_1-x1334_0-x0770_1-x0397_0-x1334_1-x0692_1-x0831_0
     RDKit          3D

 27 30  0  0  0  0  0  0  0  0999 V2000
    6.4000   -3.2430   19.8530 C   0  0  0  0  0  0  0  0  0  0  0  0
    7.3820   -2.9910   18.7340 C   0  0  0  0  0  0  0  0  0  0  0  0
    5.4130   -3.9640   19.6540 O   0  0  0  0  0  0  0  0  0  0  0  0
    6.6820   -2.6960   21.0910 N   0  0  0  0  0  0  0  0  0  0  0  0
    6.9400   -3.5360   22.1290 C   0  0  1  0  0  0  0  0  0  0  0  0
    7.5840   -1.5100   21.1330 C   0  0  0  0  0  0  0  0  0  0  0  0
    7.2690   -2.7620   23.4090 C   0  0  0  0  0  0  0  0  0  0  0  0
    8.8830   -1.7450   21.9910 C   0  0  0  0  0  0  0  0  0  0  0  0
    5.8520   -4.5660   22.2850 C   0  0  0  0  0  0  0  0  0  0  0  0
    8.6220   -2.2040   23.3780 N   0  0  0  0  0  0  0  0  0  0  0  0
    6.0360   -5.7280   23.1480 C   0  0  0  0  0  0  0  0  0  0  0  0
    5.9870   -6.1430   21.8390 C   0  0  0  0  0  0  0  0  0  0  0  0
    9.5420   -3.1840   23.7980 C   0  0  1  0  0  0  0  0  0  0  0  0
   10.9450   -2.6900   24.0470 C   0  0  0  0  0  0  0  0  0  0  0  0
    9.1600   -4.0920   24.9810 C   0  0  0  0  0  0  0  0  0  0  0  0
    9.7550   -5.3240   25.2190 C   0  0  0  0  0  0  0  0  0  0  0  0
    7.9960   -3.7950   26.1920 S   0  0  0  0  0  0  0  0  0  0  0  0
   11.2300   -1.2210   23.8580 C   0  0  0  0  0  0  0  0  0  0  0  0
    9.3100   -5.9910   26.3020 C   0  0  0  0  0  0  0  0  0  0  0  0
    8.2530   -5.2770   27.0390 C   0  0  0  0  0  0  0  0  0  0  0  0
   10.5060   -0.2430   24.4670 C   0  0  0  0  0  0  0  0  0  0  0  0
   12.2630   -0.8050   23.0500 C   0  0  0  0  0  0  0  0  0  0  0  0
    7.3870   -5.7140   28.4450 Cl  0  0  0  0  0  0  0  0  0  0  0  0
   13.1110   -1.7940   22.3150 C   0  0  0  0  0  0  0  0  0  0  0  0
   10.8020    1.0820   24.2830 C   0  0  0  0  0  0  0  0  0  0  0  0
   12.5110    0.5560   22.9210 C   0  0  0  0  0  0  0  0  0  0  0  0
   11.9380    1.7490   23.4240 C   0  0  0  0  0  0  0  0  0  0  0  0
  1  2  1  0
  1  3  2  0
  1  4  1  0
  4  5  1  0
  4  6  1  0
  5  7  1  0
  6  8  1  0
  5  9  1  1
  7 10  1  0
  8 10  1  0
  9 11  1  0
  9 12  1  0
 11 12  1  0
 10 13  1  0
 13 14  1  1
 13 15  1  0
 15 16  2  0
 15 17  1  0
 14 18  1  0
 16 19  1  0
 17 20  1  0
 19 20  2  0
 18 21  2  0
 18 22  1  0
 20 23  1  0
 22 24  1  0
 21 25  1  0
 22 26  2  0
 25 27  2  0
 26 27  1  0
M  END
