x1412_1-x1334_1-x1386_1-x0770_1-x1374_1-x1334_0-x0434_2-x1385_1-x1375_1-x1418_1-x0831_0-x0397_0-x0692_1-x0831_1
     RDKit          3D

 39 43  0  0  0  0  0  0  0  0999 V2000
    2.0500   -6.6890   24.1770 O   0  0  0  0  0  0  0  0  0  0  0  0
    2.9430   -7.5970   23.5830 C   0  0  0  0  0  0  0  0  0  0  0  0
    3.9750   -7.8890   24.5120 O   0  0  0  0  0  0  0  0  0  0  0  0
    4.8640   -6.7750   24.6060 C   0  0  0  0  0  0  0  0  0  0  0  0
    6.0640   -7.1220   24.0050 C   0  0  0  0  0  0  0  0  0  0  0  0
    6.4200   -6.1740   22.8940 C   0  0  2  0  0  0  0  0  0  0  0  0
    5.6590   -4.9570   22.6220 C   0  0  2  0  0  0  0  0  0  0  0  0
    5.5410   -6.0490   21.5350 C   0  0  0  0  0  0  0  0  0  0  0  0
    6.4320   -3.6820   22.5780 C   0  0  2  0  0  0  0  0  0  0  0  0
    6.4580   -2.8670   21.3630 N   0  0  0  0  0  0  0  0  0  0  0  0
    7.7220   -4.0440   22.9090 C   0  0  0  0  0  0  0  0  0  0  0  0
    6.3040   -3.4440   20.0870 C   0  0  0  0  0  0  0  0  0  0  0  0
    8.3990   -2.8430   23.2680 N   0  0  0  0  0  0  0  0  0  0  0  0
    7.1870   -1.6620   21.5480 C   0  0  2  0  0  0  0  0  0  0  0  0
    7.2880   -3.0670   18.9730 C   0  0  0  0  0  0  0  0  0  0  0  0
    5.4140   -4.2630   19.8240 O   0  0  0  0  0  0  0  0  0  0  0  0
    9.3340   -2.7810   24.1980 C   0  0  2  0  0  0  0  0  0  0  0  0
    7.3870   -1.1150   20.2680 N   0  0  0  0  0  0  0  0  0  0  0  0
    8.5600   -1.8640   22.2090 C   0  0  0  0  0  0  0  0  0  0  0  0
   10.6850   -2.5820   23.5770 C   0  0  0  0  0  0  0  0  0  0  0  0
    9.1400   -3.8160   25.2540 C   0  0  0  0  0  0  0  0  0  0  0  0
    6.5820   -0.2450   19.6080 C   0  0  0  0  0  0  0  0  0  0  0  0
    9.9180   -4.9540   25.4380 C   0  0  0  0  0  0  0  0  0  0  0  0
    7.8450   -3.6740   26.4070 S   0  0  0  0  0  0  0  0  0  0  0  0
   11.1190   -1.1270   23.5360 C   0  0  0  0  0  0  0  0  0  0  0  0
    6.9490    0.2050   18.4110 C   0  0  0  0  0  0  0  0  0  0  0  0
    5.2270    0.2970   20.1110 C   0  0  0  0  0  0  0  0  0  0  0  0
    9.4620   -5.7950   26.6210 C   0  0  0  0  0  0  0  0  0  0  0  0
    8.2580   -5.1660   27.3020 C   0  0  0  0  0  0  0  0  0  0  0  0
   10.4140    0.0500   23.9610 C   0  0  0  0  0  0  0  0  0  0  0  0
   12.4360   -0.8820   22.9910 C   0  0  0  0  0  0  0  0  0  0  0  0
    6.2320    1.1140   17.5570 N   0  0  0  0  0  0  0  0  0  0  0  0
    4.5420    1.1890   19.2640 C   0  0  0  0  0  0  0  0  0  0  0  0
    7.3170   -5.6120   28.6560 Cl  0  0  0  0  0  0  0  0  0  0  0  0
   13.1960   -2.0660   22.5180 C   0  0  0  0  0  0  0  0  0  0  0  0
   10.7350    1.3620   23.9690 C   0  0  0  0  0  0  0  0  0  0  0  0
   13.0140    0.5500   22.9060 C   0  0  0  0  0  0  0  0  0  0  0  0
    5.0630    1.5600   18.0320 C   0  0  0  0  0  0  0  0  0  0  0  0
   12.1040    1.6850   23.4220 C   0  0  0  0  0  0  0  0  0  0  0  0
  1  2  1  0
  2  3  1  0
  3  4  1  0
  4  5  1  0
  6  5  1  1
  6  7  1  0
  6  8  1  0
  7  8  1  6
  7  9  1  0
  9 10  1  0
  9 11  1  6
 10 12  1  0
 11 13  1  0
 10 14  1  0
 12 15  1  0
 12 16  2  0
 13 17  1  0
 14 18  1  6
 13 19  1  0
 14 19  1  0
 17 20  1  6
 17 21  1  0
 18 22  1  0
 21 23  2  0
 21 24  1  0
 20 25  1  0
 22 26  2  0
 22 27  1  0
 23 28  1  0
 24 29  1  0
 28 29  2  0
 25 30  2  0
 25 31  1  0
 26 32  1  0
 27 33  2  0
 29 34  1  0
 31 35  1  0
 30 36  1  0
 31 37  2  0
 32 38  2  0
 33 38  1  0
 36 39  2  0
 37 39  1  0
M  END
