x1412_1-x0434_2-x1386_0-x1412_0-x0981_1-x0831_0
     RDKit          3D

 45 49  0  0  0  0  0  0  0  0999 V2000
    4.1150   -5.3540   23.2270 C   0  0  0  0  0  0  0  0  0  0  0  0
    2.7870   -6.0560   23.5430 C   0  0  1  0  0  0  0  0  0  0  0  0
    2.5590   -7.2420   22.7200 N   0  0  0  0  0  0  0  0  0  0  0  0
    4.2710   -4.1460   23.6530 N   0  0  0  0  0  0  0  0  0  0  0  0
    2.6220   -6.3260   25.0280 C   0  0  0  0  0  0  0  0  0  0  0  0
    5.4900   -3.3440   23.4300 C   0  0  0  0  0  0  0  0  0  0  0  0
    1.3490   -7.4530   22.0990 C   0  0  0  0  0  0  0  0  0  0  0  0
    3.0760   -7.7200   25.3130 C   0  0  0  0  0  0  0  0  0  0  0  0
    6.4800   -3.9060   22.3730 C   0  0  1  0  0  0  0  0  0  0  0  0
    1.2250   -8.7460   21.3350 C   0  0  0  0  0  0  0  0  0  0  0  0
    0.4370   -6.6330   22.1420 O   0  0  0  0  0  0  0  0  0  0  0  0
    2.4410   -8.3850   26.3250 N   0  0  0  0  0  0  0  0  0  0  0  0
    3.9700   -8.2190   24.6670 O   0  0  0  0  0  0  0  0  0  0  0  0
    6.5510   -2.9710   21.3060 N   0  0  0  0  0  0  0  0  0  0  0  0
    7.6320   -4.1060   23.0000 C   0  0  0  0  0  0  0  0  0  0  0  0
    6.2690   -3.4390   20.0190 C   0  0  0  0  0  0  0  0  0  0  0  0
    8.2610   -2.7510   23.4890 C   0  0  1  0  0  0  0  0  0  0  0  0
    6.7320   -1.6050   21.7860 C   0  0  2  0  0  0  0  0  0  0  0  0
    7.1310   -3.0030   18.8620 C   0  0  0  0  0  0  0  0  0  0  0  0
    5.3510   -4.2340   19.7860 O   0  0  0  0  0  0  0  0  0  0  0  0
    8.4520   -2.6660   25.0130 C   0  0  2  0  0  0  0  0  0  0  0  0
    7.4450   -0.7620   20.8350 N   0  0  0  0  0  0  0  0  0  0  0  0
    9.6200   -2.5960   22.8700 C   0  0  0  0  0  0  0  0  0  0  0  0
    7.3660   -1.5140   23.0250 C   0  0  0  0  0  0  0  0  0  0  0  0
    7.5380   -1.7350   25.6030 O   0  0  0  0  0  0  0  0  0  0  0  0
   10.6130   -2.1440   23.8830 C   0  0  2  0  0  0  0  0  0  0  0  0
    9.8770   -2.0600   25.2060 C   0  0  0  0  0  0  0  0  0  0  0  0
    8.5260   -3.8990   25.9020 C   0  0  0  0  0  0  0  0  0  0  0  0
    6.6630   -0.0520   20.0280 C   0  0  0  0  0  0  0  0  0  0  0  0
    9.4590   -4.9990   25.6220 C   0  0  0  0  0  0  0  0  0  0  0  0
    7.6120   -4.2470   27.3540 S   0  0  0  0  0  0  0  0  0  0  0  0
   11.2020   -0.8030   23.6790 C   0  0  0  0  0  0  0  0  0  0  0  0
    6.9660    0.0670   18.5510 C   0  0  0  0  0  0  0  0  0  0  0  0
    5.5180    0.6320   20.4650 C   0  0  0  0  0  0  0  0  0  0  0  0
    9.3150   -6.0680   26.6830 C   0  0  0  0  0  0  0  0  0  0  0  0
    8.3660   -5.7470   27.6320 C   0  0  0  0  0  0  0  0  0  0  0  0
   10.5460    0.3280   24.1450 C   0  0  0  0  0  0  0  0  0  0  0  0
   12.4270   -0.7460   23.0160 C   0  0  0  0  0  0  0  0  0  0  0  0
    6.2820    0.7460   17.6100 N   0  0  0  0  0  0  0  0  0  0  0  0
    4.7980    1.3370   19.5110 C   0  0  0  0  0  0  0  0  0  0  0  0
   13.1100   -1.9740   22.5080 C   0  0  0  0  0  0  0  0  0  0  0  0
   10.9940    1.5880   24.0200 C   0  0  0  0  0  0  0  0  0  0  0  0
   13.0490    0.5570   22.8140 C   0  0  0  0  0  0  0  0  0  0  0  0
    5.2060    1.3830   18.0730 C   0  0  0  0  0  0  0  0  0  0  0  0
   12.3000    1.7480   23.3330 C   0  0  0  0  0  0  0  0  0  0  0  0
  2  1  1  1
  2  3  1  0
  1  4  2  3
  2  5  1  0
  4  6  1  0
  3  7  1  0
  5  8  1  0
  9  6  1  1
  7 10  1  0
  7 11  2  0
  8 12  1  0
  8 13  2  0
  9 14  1  0
  9 15  1  0
 14 16  1  0
 17 15  1  1
 14 18  1  0
 16 19  1  0
 16 20  2  0
 17 21  1  0
 18 22  1  6
 17 23  1  0
 17 24  1  0
 18 24  1  0
 21 25  1  1
 23 26  1  0
 21 27  1  0
 26 27  1  0
 21 28  1  0
 22 29  1  0
 28 30  2  0
 28 31  1  0
 26 32  1  6
 29 33  2  0
 29 34  1  0
 30 35  1  0
 31 36  1  0
 35 36  2  0
 32 37  2  0
 32 38  1  0
 33 39  1  0
 34 40  2  0
 38 41  1  0
 37 42  1  0
 38 43  2  0
 39 44  2  0
 40 44  1  0
 42 45  2  0
 43 45  1  0
M  END
