x1412_0-x0692_1-x0434_2
     RDKit          3D

 23 25  0  0  0  0  0  0  0  0999 V2000
    6.2060   -3.2140   19.8890 C   0  0  0  0  0  0  0  0  0  0  0  0
    7.2280   -2.9490   18.7940 C   0  0  0  0  0  0  0  0  0  0  0  0
    5.2970   -4.0240   19.6620 O   0  0  0  0  0  0  0  0  0  0  0  0
    6.3050   -2.6120   21.1450 N   0  0  0  0  0  0  0  0  0  0  0  0
    7.0440   -1.3770   21.4530 C   0  0  1  0  0  0  0  0  0  0  0  0
    6.0220   -3.3640   22.3570 C   0  0  0  0  0  0  0  0  0  0  0  0
    8.2540   -1.6330   22.4030 C   0  0  0  0  0  0  0  0  0  0  0  0
    7.3200   -3.8780   23.0020 C   0  0  0  0  0  0  0  0  0  0  0  0
    7.7630   -0.6710   20.3190 C   0  0  0  0  0  0  0  0  0  0  0  0
    8.1690   -2.7470   23.3650 N   0  0  0  0  0  0  0  0  0  0  0  0
    7.0820   -0.2710   19.0330 C   0  0  0  0  0  0  0  0  0  0  0  0
    8.3490   -2.4780   24.7130 C   0  0  0  0  0  0  0  0  0  0  0  0
    6.3660    0.3450   20.1350 C   0  0  0  0  0  0  0  0  0  0  0  0
    6.2190    0.2890   17.9670 N   0  0  0  0  0  0  0  0  0  0  0  0
    8.3190   -1.3500   25.1860 O   0  0  0  0  0  0  0  0  0  0  0  0
    8.5940   -3.6920   25.5890 C   0  0  0  0  0  0  0  0  0  0  0  0
    5.0890    1.1470   18.0500 C   0  0  0  0  0  0  0  0  0  0  0  0
    5.2430    1.1930   20.3430 C   0  0  0  0  0  0  0  0  0  0  0  0
    9.5110   -4.7110   25.3830 C   0  0  0  0  0  0  0  0  0  0  0  0
    7.6740   -3.9390   27.0460 S   0  0  0  0  0  0  0  0  0  0  0  0
    4.6090    1.5880   19.2090 C   0  0  0  0  0  0  0  0  0  0  0  0
    9.4940   -5.7070   26.3840 C   0  0  0  0  0  0  0  0  0  0  0  0
    8.4620   -5.3970   27.4500 C   0  0  0  0  0  0  0  0  0  0  0  0
  1  2  1  0
  1  3  2  0
  1  4  1  0
  4  5  1  0
  4  6  1  0
  5  7  1  0
  6  8  1  0
  5  9  1  6
  7 10  1  0
  8 10  1  0
  9 11  1  0
 10 12  1  0
 11 13  2  0
 11 14  1  0
 12 15  2  0
 12 16  1  0
 14 17  2  0
 13 18  1  0
 16 19  2  0
 16 20  1  0
 17 21  1  0
 18 21  2  0
 19 22  1  0
 20 23  1  0
 22 23  2  0
M  END
