x1412_1-x0692_1-x1418_1-x0831_1-x1334_1-x1385_1-x0434_2-x1334_0-x0831_0-x0397_0-x0770_1-x1374_1
     RDKit          3D

 39 43  0  0  0  0  0  0  0  0999 V2000
    2.0060   -6.5780   23.9290 O   0  0  0  0  0  0  0  0  0  0  0  0
    2.8980   -7.5910   23.5210 C   0  0  0  0  0  0  0  0  0  0  0  0
    3.7290   -8.0480   24.5810 O   0  0  0  0  0  0  0  0  0  0  0  0
    4.8100   -7.1630   24.8820 C   0  0  0  0  0  0  0  0  0  0  0  0
    4.6000   -5.9850   24.1660 C   0  0  0  0  0  0  0  0  0  0  0  0
    5.8170   -5.8270   23.3030 C   0  0  2  0  0  0  0  0  0  0  0  0
    5.7730   -4.7670   22.4020 C   0  0  2  0  0  0  0  0  0  0  0  0
    5.9160   -6.2730   21.9000 C   0  0  0  0  0  0  0  0  0  0  0  0
    6.9270   -3.8220   22.2690 C   0  0  1  0  0  0  0  0  0  0  0  0
    6.7430   -2.8110   21.2470 N   0  0  0  0  0  0  0  0  0  0  0  0
    7.2340   -3.2550   23.4780 C   0  0  0  0  0  0  0  0  0  0  0  0
    6.4510   -3.2530   19.9290 C   0  0  0  0  0  0  0  0  0  0  0  0
    8.5000   -2.4900   23.5730 N   0  0  0  0  0  0  0  0  0  0  0  0
    7.3960   -1.5970   21.5730 C   0  0  2  0  0  0  0  0  0  0  0  0
    7.4350   -2.9780   18.8100 C   0  0  0  0  0  0  0  0  0  0  0  0
    5.4460   -3.9420   19.6640 O   0  0  0  0  0  0  0  0  0  0  0  0
    9.5140   -3.3160   23.9010 C   0  0  1  0  0  0  0  0  0  0  0  0
    7.6360   -0.8780   20.3750 N   0  0  0  0  0  0  0  0  0  0  0  0
    8.7640   -1.8100   22.3240 C   0  0  0  0  0  0  0  0  0  0  0  0
   10.9060   -2.7620   24.0810 C   0  0  0  0  0  0  0  0  0  0  0  0
    9.1390   -4.0790   25.1400 C   0  0  0  0  0  0  0  0  0  0  0  0
    6.6850   -0.0700   19.6700 C   0  0  0  0  0  0  0  0  0  0  0  0
    9.8350   -5.2090   25.4910 C   0  0  0  0  0  0  0  0  0  0  0  0
    7.9070   -3.7140   26.2330 S   0  0  0  0  0  0  0  0  0  0  0  0
   11.1430   -1.3340   23.9040 C   0  0  0  0  0  0  0  0  0  0  0  0
    6.9430    0.2700   18.4110 C   0  0  0  0  0  0  0  0  0  0  0  0
    5.4840    0.3860   20.2520 C   0  0  0  0  0  0  0  0  0  0  0  0
    9.3810   -5.7670   26.6300 C   0  0  0  0  0  0  0  0  0  0  0  0
    8.3050   -5.0760   27.1860 C   0  0  0  0  0  0  0  0  0  0  0  0
   10.4000   -0.3960   24.4830 C   0  0  0  0  0  0  0  0  0  0  0  0
   12.2920   -0.8850   23.0370 C   0  0  0  0  0  0  0  0  0  0  0  0
    6.2190    1.0010   17.5890 N   0  0  0  0  0  0  0  0  0  0  0  0
    4.6430    1.1770   19.4520 C   0  0  0  0  0  0  0  0  0  0  0  0
    7.4050   -5.4050   28.5980 Cl  0  0  0  0  0  0  0  0  0  0  0  0
   13.1670   -1.8580   22.3290 C   0  0  0  0  0  0  0  0  0  0  0  0
   10.5380    1.1060   24.4050 C   0  0  0  0  0  0  0  0  0  0  0  0
   12.5190    0.6360   22.9170 C   0  0  0  0  0  0  0  0  0  0  0  0
    5.0410    1.4590   18.1490 C   0  0  0  0  0  0  0  0  0  0  0  0
   11.6090    1.6130   23.6220 C   0  0  0  0  0  0  0  0  0  0  0  0
  1  2  1  0
  2  3  1  0
  3  4  1  0
  4  5  1  0
  6  5  1  6
  6  7  1  0
  6  8  1  0
  7  8  1  6
  7  9  1  0
  9 10  1  0
  9 11  1  1
 10 12  1  0
 11 13  1  0
 10 14  1  0
 12 15  1  0
 12 16  2  0
 13 17  1  0
 14 18  1  6
 13 19  1  0
 14 19  1  0
 17 20  1  1
 17 21  1  0
 18 22  1  0
 21 23  2  0
 21 24  1  0
 20 25  1  0
 22 26  2  0
 22 27  1  0
 23 28  1  0
 24 29  1  0
 28 29  2  0
 25 30  2  0
 25 31  1  0
 26 32  1  0
 27 33  2  0
 29 34  1  0
 31 35  1  0
 30 36  1  0
 31 37  2  0
 32 38  2  0
 33 38  1  0
 36 39  2  0
 37 39  1  0
M  END
