x1418_0-x0830_0
     RDKit          3D

 15 16  0  0  0  0  0  0  0  0999 V2000
    6.4250   -2.8920   19.8480 C   0  0  0  0  0  0  0  0  0  0  0  0
    7.6890   -3.6150   19.6440 C   0  0  0  0  0  0  0  0  0  0  0  0
    5.4510   -3.1750   19.1190 O   0  0  0  0  0  0  0  0  0  0  0  0
    6.4550   -2.0040   20.9120 N   0  0  0  0  0  0  0  0  0  0  0  0
    6.3190   -2.6680   22.2220 C   0  0  0  0  0  0  0  0  0  0  0  0
    7.4890   -0.9590   20.9290 C   0  0  0  0  0  0  0  0  0  0  0  0
    7.6780   -3.1140   22.8210 C   0  0  0  0  0  0  0  0  0  0  0  0
    8.8070   -1.4230   21.6020 C   0  0  0  0  0  0  0  0  0  0  0  0
    8.6710   -2.0290   22.9430 N   0  0  0  0  0  0  0  0  0  0  0  0
    9.9280   -2.5120   23.3830 C   0  0  0  0  0  0  0  0  0  0  0  0
   10.8480   -1.4850   23.4610 C   0  0  0  0  0  0  0  0  0  0  0  0
   11.9660   -1.4690   22.6510 C   0  0  0  0  0  0  0  0  0  0  0  0
   10.7720   -0.1140   24.4990 S   0  0  0  0  0  0  0  0  0  0  0  0
   12.8240   -0.2540   22.8770 C   0  0  0  0  0  0  0  0  0  0  0  0
   12.2420    0.5380   23.8630 C   0  0  0  0  0  0  0  0  0  0  0  0
  1  2  1  0
  1  3  2  0
  1  4  1  0
  4  5  1  0
  4  6  1  0
  5  7  1  0
  6  8  1  0
  7  9  1  0
  8  9  1  0
  9 10  1  0
 10 11  1  0
 11 12  2  0
 11 13  1  0
 12 14  1  0
 13 15  1  0
 14 15  2  0
M  END
