x1418_1-x1385_1-x0434_2-x1374_1-x1386_1-x0831_0-x1412_1-x1375_1-x0831_1-x0770_1-x1334_0-x0692_1-x0397_0-x1334_1
     RDKit          3D

 39 43  0  0  0  0  0  0  0  0999 V2000
    6.4300   -3.2360   19.7720 C   0  0  0  0  0  0  0  0  0  0  0  0
    7.3970   -3.0390   18.6260 C   0  0  0  0  0  0  0  0  0  0  0  0
    5.5260   -4.0850   19.7060 O   0  0  0  0  0  0  0  0  0  0  0  0
    6.6390   -2.4330   20.8690 N   0  0  0  0  0  0  0  0  0  0  0  0
    6.3630   -2.8360   22.2380 C   0  0  2  0  0  0  0  0  0  0  0  0
    7.7700   -1.5030   20.6600 C   0  0  2  0  0  0  0  0  0  0  0  0
    7.6120   -2.8860   23.0820 C   0  0  0  0  0  0  0  0  0  0  0  0
    8.9340   -1.6360   21.6250 C   0  0  0  0  0  0  0  0  0  0  0  0
    5.6140   -4.1450   22.4200 C   0  0  2  0  0  0  0  0  0  0  0  0
    7.4030   -0.0880   20.6660 C   0  0  0  0  0  0  0  0  0  0  0  0
    8.4650   -1.7070   22.9810 N   0  0  0  0  0  0  0  0  0  0  0  0
    6.0410   -5.1790   23.3480 C   0  0  2  0  0  0  0  0  0  0  0  0
    6.2310   -5.5720   22.1600 C   0  0  0  0  0  0  0  0  0  0  0  0
    7.0210    0.3450   19.2440 C   0  0  0  0  0  0  0  0  0  0  0  0
    9.5250   -1.9680   23.8850 C   0  0  1  0  0  0  0  0  0  0  0  0
    6.0820    0.5170   20.2630 C   0  0  0  0  0  0  0  0  0  0  0  0
    6.3750    0.8550   17.9890 N   0  0  0  0  0  0  0  0  0  0  0  0
    5.1320   -5.8260   24.3230 C   0  0  0  0  0  0  0  0  0  0  0  0
    9.9860   -3.3830   23.8410 C   0  0  0  0  0  0  0  0  0  0  0  0
   10.5480   -0.8500   23.6430 C   0  0  0  0  0  0  0  0  0  0  0  0
    5.1250    1.4150   17.8070 C   0  0  0  0  0  0  0  0  0  0  0  0
    4.6940    1.0980   20.1730 C   0  0  0  0  0  0  0  0  0  0  0  0
    4.7050   -7.1540   23.7320 C   0  0  0  0  0  0  0  0  0  0  0  0
   10.2530    0.5560   24.2370 C   0  0  0  0  0  0  0  0  0  0  0  0
   11.8870   -0.9340   22.8480 C   0  0  0  0  0  0  0  0  0  0  0  0
    9.4300   -4.1980   24.9640 C   0  0  0  0  0  0  0  0  0  0  0  0
    4.2130    1.5610   18.9090 C   0  0  0  0  0  0  0  0  0  0  0  0
    4.0800   -7.9320   24.7520 O   0  0  0  0  0  0  0  0  0  0  0  0
   12.4350   -2.1450   22.1550 C   0  0  0  0  0  0  0  0  0  0  0  0
   11.2360    1.7110   24.0160 C   0  0  0  0  0  0  0  0  0  0  0  0
   12.6710    0.3300   22.7920 C   0  0  0  0  0  0  0  0  0  0  0  0
    9.8580   -5.5840   25.3280 C   0  0  0  0  0  0  0  0  0  0  0  0
    8.1750   -3.7320   26.0970 S   0  0  0  0  0  0  0  0  0  0  0  0
    2.6760   -7.9660   24.5760 C   0  0  0  0  0  0  0  0  0  0  0  0
   12.3890    1.5150   23.3070 C   0  0  0  0  0  0  0  0  0  0  0  0
    9.1010   -6.0500   26.5000 C   0  0  0  0  0  0  0  0  0  0  0  0
    8.2110   -5.2100   26.9960 C   0  0  0  0  0  0  0  0  0  0  0  0
    2.3690   -7.6640   23.2330 O   0  0  0  0  0  0  0  0  0  0  0  0
    7.1930   -5.4800   28.3440 Cl  0  0  0  0  0  0  0  0  0  0  0  0
  1  2  1  0
  1  3  2  0
  1  4  1  0
  4  5  1  0
  4  6  1  0
  5  7  1  1
  6  8  1  0
  5  9  1  0
  6 10  1  1
  7 11  1  0
  8 11  1  0
  9 12  1  0
  9 13  1  6
 12 13  1  0
 10 14  1  0
 11 15  1  0
 14 16  2  0
 14 17  1  0
 12 18  1  6
 15 19  1  6
 15 20  1  0
 17 21  2  0
 16 22  1  0
 18 23  1  0
 20 24  2  0
 20 25  1  0
 19 26  1  0
 21 27  1  0
 22 27  2  0
 23 28  1  0
 25 29  1  0
 24 30  1  0
 25 31  2  0
 26 32  2  0
 26 33  1  0
 28 34  1  0
 30 35  2  0
 31 35  1  0
 32 36  1  0
 33 37  1  0
 36 37  2  0
 34 38  1  0
 37 39  1  0
M  END
