x1412_0-x1374_1-x0770_1-x1386_0
     RDKit          3D

 30 33  0  0  0  0  0  0  0  0999 V2000
    6.3180   -3.3090   19.8540 C   0  0  0  0  0  0  0  0  0  0  0  0
    7.2530   -2.9980   18.7230 C   0  0  0  0  0  0  0  0  0  0  0  0
    5.3580   -4.0680   19.6870 O   0  0  0  0  0  0  0  0  0  0  0  0
    6.6270   -2.7550   21.0770 N   0  0  0  0  0  0  0  0  0  0  0  0
    7.4550   -1.5520   21.2680 C   0  0  0  0  0  0  0  0  0  0  0  0
    6.3630   -3.6180   22.2170 C   0  0  2  0  0  0  0  0  0  0  0  0
    5.1240   -3.2780   23.0130 C   0  0  0  0  0  0  0  0  0  0  0  0
    8.5870   -1.7520   22.3110 C   0  0  0  0  0  0  0  0  0  0  0  0
    7.5640   -3.7720   23.1620 C   0  0  0  0  0  0  0  0  0  0  0  0
    8.1680   -2.4940   23.5010 N   0  0  0  0  0  0  0  0  0  0  0  0
    4.2130   -4.4490   23.2640 C   0  0  2  0  0  0  0  0  0  0  0  0
    8.9970   -2.5040   24.5870 C   0  0  2  0  0  0  0  0  0  0  0  0
    3.6010   -4.3700   24.5360 C   0  0  0  0  0  0  0  0  0  0  0  0
    4.7910   -5.7090   23.1430 C   0  0  0  0  0  0  0  0  0  0  0  0
    9.0030   -1.4760   25.2550 O   0  0  0  0  0  0  0  0  0  0  0  0
   10.4100   -2.6660   24.0410 C   0  0  0  0  0  0  0  0  0  0  0  0
    8.8410   -3.6110   25.5570 C   0  0  0  0  0  0  0  0  0  0  0  0
    3.2960   -5.6040   25.0390 C   0  0  0  0  0  0  0  0  0  0  0  0
    3.7790   -6.8210   23.9540 S   0  0  0  0  0  0  0  0  0  0  0  0
    2.6270   -7.4340   23.0520 O   0  0  0  0  0  0  0  0  0  0  0  0
    4.4640   -7.9980   24.7290 O   0  0  0  0  0  0  0  0  0  0  0  0
    9.7050   -4.7300   25.7000 C   0  0  0  0  0  0  0  0  0  0  0  0
    7.5730   -3.7720   26.7380 S   0  0  0  0  0  0  0  0  0  0  0  0
   11.1980   -1.4340   23.7770 C   0  0  0  0  0  0  0  0  0  0  0  0
    9.3150   -5.6980   26.7610 C   0  0  0  0  0  0  0  0  0  0  0  0
    8.1640   -5.2610   27.3890 C   0  0  0  0  0  0  0  0  0  0  0  0
   12.2670   -1.4320   22.8910 C   0  0  0  0  0  0  0  0  0  0  0  0
   11.0260   -0.1710   24.3210 C   0  0  0  0  0  0  0  0  0  0  0  0
   12.9060   -0.2290   22.7410 C   0  0  0  0  0  0  0  0  0  0  0  0
   12.1770    0.9590   23.7180 S   0  0  0  0  0  0  0  0  0  0  0  0
  1  2  1  0
  1  3  2  0
  1  4  1  0
  4  5  1  0
  4  6  1  0
  6  7  1  1
  5  8  1  0
  6  9  1  0
  8 10  1  0
  9 10  1  0
 11  7  1  1
 10 12  1  0
 11 13  1  0
 11 14  1  0
 12 15  1  1
 12 16  1  0
 12 17  1  0
 13 18  2  0
 14 19  1  0
 18 19  1  0
 19 20  1  0
 19 21  1  0
 17 22  2  0
 17 23  1  0
 16 24  1  0
 22 25  1  0
 23 26  1  0
 25 26  2  0
 24 27  1  0
 24 28  2  0
 27 29  2  0
 28 30  1  0
 29 30  1  0
M  END
