x1418_1-x1412_1-x1386_0-x0387_0-x1412_0
     RDKit          3D

 26 29  0  0  0  0  0  0  0  0999 V2000
    6.5850   -3.1130   19.6270 C   0  0  0  0  0  0  0  0  0  0  0  0
    7.1740   -2.5200   18.3610 C   0  0  0  0  0  0  0  0  0  0  0  0
    5.8870   -4.1230   19.5740 O   0  0  0  0  0  0  0  0  0  0  0  0
    6.9090   -2.5550   20.8100 N   0  0  0  0  0  0  0  0  0  0  0  0
    6.6470   -3.2090   22.0840 C   0  0  0  0  0  0  0  0  0  0  0  0
    7.6260   -1.3000   21.0140 C   0  0  0  0  0  0  0  0  0  0  0  0
    7.9640   -3.5080   22.7600 C   0  0  0  0  0  0  0  0  0  0  0  0
    8.9430   -1.6010   21.6850 C   0  0  0  0  0  0  0  0  0  0  0  0
    8.7490   -2.2870   22.9660 N   0  0  0  0  0  0  0  0  0  0  0  0
    8.4350   -2.5230   24.8290 C   0  0  1  0  0  0  0  0  0  0  0  0
    8.3330   -1.3830   25.2750 O   0  0  0  0  0  0  0  0  0  0  0  0
    9.9360   -2.5250   23.8300 C   0  0  1  0  0  0  0  0  0  0  0  0
    8.7250   -3.6160   25.6980 C   0  0  0  0  0  0  0  0  0  0  0  0
    9.7170   -1.5590   24.2350 C   0  0  0  0  0  0  0  0  0  0  0  0
    9.6190   -4.6380   25.4440 C   0  0  0  0  0  0  0  0  0  0  0  0
    7.9560   -3.8280   27.2250 S   0  0  0  0  0  0  0  0  0  0  0  0
   11.0160   -1.4730   23.8260 C   0  0  0  0  0  0  0  0  0  0  0  0
    9.4890   -5.6710   26.3930 C   0  0  0  0  0  0  0  0  0  0  0  0
    8.7150   -5.3290   27.4460 C   0  0  0  0  0  0  0  0  0  0  0  0
   12.1170   -1.4010   22.9200 C   0  0  0  0  0  0  0  0  0  0  0  0
   11.0500   -0.3900   24.6970 C   0  0  0  0  0  0  0  0  0  0  0  0
   12.8260   -0.2560   23.0140 C   0  0  0  0  0  0  0  0  0  0  0  0
   12.1910    0.7640   24.2010 S   0  0  0  0  0  0  0  0  0  0  0  0
   12.6460   -1.2880   22.5900 C   0  0  0  0  0  0  0  0  0  0  0  0
   13.1760   -1.1740   22.2600 S   0  0  0  0  0  0  0  0  0  0  0  0
   13.0010   -0.7150   22.6370 C   0  0  0  0  0  0  0  0  0  0  0  0
  1  2  1  0
  1  3  2  0
  1  4  1  0
  4  5  1  0
  4  6  1  0
  5  7  1  0
  6  8  1  0
  7  9  1  0
  8  9  1  0
  9 10  1  0
 10 11  1  1
 10 12  1  0
 10 13  1  0
 12 14  1  6
 13 15  2  0
 13 16  1  0
 12 17  1  0
 15 18  1  0
 16 19  1  0
 18 19  2  0
 17 20  1  0
 17 21  2  0
 20 22  1  0
 21 23  1  0
 22 23  1  0
 20 24  2  0
 24 25  1  0
 22 26  2  0
 25 26  1  0
M  END
