x1418_0-x0397_0-x0770_1-x0831_0-x1418_1-x0692_1
     RDKit          3D

 21 23  0  0  0  0  0  0  0  0999 V2000
    6.2790   -3.3300   19.9280 C   0  0  0  0  0  0  0  0  0  0  0  0
    7.2460   -3.0170   18.7970 C   0  0  0  0  0  0  0  0  0  0  0  0
    5.3930   -4.1840   19.7690 O   0  0  0  0  0  0  0  0  0  0  0  0
    6.4670   -2.6290   21.1210 N   0  0  0  0  0  0  0  0  0  0  0  0
    7.2360   -1.3650   21.1130 C   0  0  0  0  0  0  0  0  0  0  0  0
    6.3600   -3.2420   22.4700 C   0  0  2  0  0  0  0  0  0  0  0  0
    8.6080   -1.5010   21.7950 C   0  0  0  0  0  0  0  0  0  0  0  0
    7.7750   -3.3540   23.1170 C   0  0  0  0  0  0  0  0  0  0  0  0
    5.6380   -4.5790   22.4570 C   0  0  0  0  0  0  0  0  0  0  0  0
    8.4800   -2.0460   23.1470 N   0  0  0  0  0  0  0  0  0  0  0  0
    6.1620   -5.7550   23.2620 C   0  0  0  0  0  0  0  0  0  0  0  0
    6.2360   -5.7890   21.7650 C   0  0  0  0  0  0  0  0  0  0  0  0
    9.7360   -1.9980   23.9350 C   0  0  1  0  0  0  0  0  0  0  0  0
   10.5450   -3.2650   23.7730 C   0  0  0  0  0  0  0  0  0  0  0  0
   10.6770   -0.8070   23.7020 C   0  0  0  0  0  0  0  0  0  0  0  0
   10.2500    0.4270   24.2090 C   0  0  0  0  0  0  0  0  0  0  0  0
   11.9320   -0.8650   23.0190 C   0  0  0  0  0  0  0  0  0  0  0  0
   12.5250   -2.1060   22.4080 C   0  0  0  0  0  0  0  0  0  0  0  0
   11.0150    1.5710   24.0580 C   0  0  0  0  0  0  0  0  0  0  0  0
   12.6880    0.3070   22.8900 C   0  0  0  0  0  0  0  0  0  0  0  0
   12.2340    1.5110   23.4010 C   0  0  0  0  0  0  0  0  0  0  0  0
  1  2  1  0
  1  3  2  0
  1  4  1  0
  4  5  1  0
  4  6  1  0
  5  7  1  0
  6  8  1  0
  6  9  1  6
  7 10  1  0
  8 10  1  0
  9 11  1  0
  9 12  1  0
 11 12  1  0
 10 13  1  0
 13 14  1  6
 13 15  1  0
 15 16  2  0
 15 17  1  0
 17 18  1  0
 16 19  1  0
 17 20  2  0
 19 21  2  0
 20 21  1  0
M  END
