x1412_1-x0397_0-x1334_1-x0770_1-x0434_2-x0831_0-x1374_1
     RDKit          3D

 32 35  0  0  0  0  0  0  0  0999 V2000
    2.5680   -7.4630   23.3780 O   0  0  0  0  0  0  0  0  0  0  0  0
    2.7900   -7.7270   24.7490 C   0  0  0  0  0  0  0  0  0  0  0  0
    4.1680   -7.9160   25.0050 O   0  0  0  0  0  0  0  0  0  0  0  0
    5.0160   -7.4420   23.9700 C   0  0  0  0  0  0  0  0  0  0  0  0
    6.0440   -6.5030   24.3800 C   0  0  0  0  0  0  0  0  0  0  0  0
    6.5560   -5.7550   23.2150 C   0  0  2  0  0  0  0  0  0  0  0  0
    5.8610   -4.7130   22.5690 C   0  0  2  0  0  0  0  0  0  0  0  0
    6.4480   -6.1520   21.9680 C   0  0  0  0  0  0  0  0  0  0  0  0
    6.5850   -3.4370   22.6270 C   0  0  2  0  0  0  0  0  0  0  0  0
    6.5650   -2.7450   21.3420 N   0  0  0  0  0  0  0  0  0  0  0  0
    7.9810   -3.6900   23.2490 C   0  0  0  0  0  0  0  0  0  0  0  0
    6.3600   -3.3420   20.0630 C   0  0  0  0  0  0  0  0  0  0  0  0
    8.7540   -2.4610   23.4580 N   0  0  0  0  0  0  0  0  0  0  0  0
    7.3850   -1.5600   21.5430 C   0  0  2  0  0  0  0  0  0  0  0  0
    7.2870   -2.9720   18.9080 C   0  0  0  0  0  0  0  0  0  0  0  0
    5.4670   -4.1830   19.8180 O   0  0  0  0  0  0  0  0  0  0  0  0
   10.1000   -2.6440   23.6530 C   0  0  0  0  0  0  0  0  0  0  0  0
    7.5330   -0.9640   20.2820 N   0  0  0  0  0  0  0  0  0  0  0  0
    8.7370   -1.7700   22.1800 C   0  0  0  0  0  0  0  0  0  0  0  0
   10.8100   -1.3030   23.6000 C   0  0  0  0  0  0  0  0  0  0  0  0
    6.6010   -0.1530   19.7190 C   0  0  0  0  0  0  0  0  0  0  0  0
   10.1710   -0.0680   24.2960 C   0  0  0  0  0  0  0  0  0  0  0  0
   12.1390   -1.0280   22.8900 C   0  0  0  0  0  0  0  0  0  0  0  0
    6.8560    0.4060   18.3680 C   0  0  0  0  0  0  0  0  0  0  0  0
    5.2560    0.3230   20.2290 C   0  0  0  0  0  0  0  0  0  0  0  0
   12.9020   -2.0750   22.1520 C   0  0  0  0  0  0  0  0  0  0  0  0
   10.9100    1.2880   24.2040 C   0  0  0  0  0  0  0  0  0  0  0  0
   12.6860    0.3490   22.9310 C   0  0  0  0  0  0  0  0  0  0  0  0
    6.1510    1.1830   17.5960 N   0  0  0  0  0  0  0  0  0  0  0  0
    4.5030    1.1670   19.3970 C   0  0  0  0  0  0  0  0  0  0  0  0
   12.1260    1.4070   23.5270 C   0  0  0  0  0  0  0  0  0  0  0  0
    4.9460    1.5410   18.1970 C   0  0  0  0  0  0  0  0  0  0  0  0
  1  2  1  0
  2  3  1  0
  3  4  1  0
  4  5  1  0
  6  5  1  1
  6  7  1  0
  6  8  1  0
  7  8  1  6
  7  9  1  0
  9 10  1  0
  9 11  1  6
 10 12  1  0
 11 13  1  0
 10 14  1  0
 12 15  1  0
 12 16  2  0
 13 17  1  0
 14 18  1  6
 13 19  1  0
 14 19  1  0
 17 20  1  0
 18 21  1  0
 20 22  2  0
 20 23  1  0
 21 24  2  0
 21 25  1  0
 23 26  1  0
 22 27  1  0
 23 28  2  0
 24 29  1  0
 25 30  2  0
 27 31  2  0
 28 31  1  0
 29 32  2  0
 30 32  1  0
M  END
