x1412_1-x1412_0
     RDKit          3D

 16 17  0  0  0  0  0  0  0  0999 V2000
    6.3940   -3.4020   19.9020 C   0  0  0  0  0  0  0  0  0  0  0  0
    7.3450   -3.0220   18.7870 C   0  0  0  0  0  0  0  0  0  0  0  0
    5.3650   -4.0370   19.6640 O   0  0  0  0  0  0  0  0  0  0  0  0
    6.7650   -3.0890   21.2020 N   0  0  0  0  0  0  0  0  0  0  0  0
    7.6470   -1.9170   21.4840 C   0  0  0  0  0  0  0  0  0  0  0  0
    6.5280   -4.1210   22.2240 C   0  0  0  0  0  0  0  0  0  0  0  0
    8.6880   -2.1730   22.6100 C   0  0  0  0  0  0  0  0  0  0  0  0
    7.5770   -4.1580   23.3130 C   0  0  0  0  0  0  0  0  0  0  0  0
    7.8590   -2.7720   23.6650 N   0  0  0  0  0  0  0  0  0  0  0  0
    8.4580   -2.5820   24.8610 C   0  0  0  0  0  0  0  0  0  0  0  0
    8.8090   -1.4220   25.0690 O   0  0  0  0  0  0  0  0  0  0  0  0
    8.5650   -3.6980   25.7040 C   0  0  0  0  0  0  0  0  0  0  0  0
    9.3510   -4.8000   25.3560 C   0  0  0  0  0  0  0  0  0  0  0  0
    7.7650   -3.9730   27.3620 S   0  0  0  0  0  0  0  0  0  0  0  0
    9.3750   -5.8240   26.2840 C   0  0  0  0  0  0  0  0  0  0  0  0
    8.5900   -5.5420   27.4000 C   0  0  0  0  0  0  0  0  0  0  0  0
  1  2  1  0
  1  3  2  0
  1  4  1  0
  4  5  1  0
  4  6  1  0
  5  7  1  0
  6  8  1  0
  7  9  1  0
  8  9  1  0
  9 10  1  0
 10 11  2  0
 10 12  1  0
 12 13  2  0
 12 14  1  0
 13 15  1  0
 14 16  1  0
 15 16  2  0
M  END
