x1412_0-x1374_1-x0770_1
     RDKit          3D

 24 26  0  0  0  0  0  0  0  0999 V2000
    6.3850   -3.3900   19.9270 C   0  0  0  0  0  0  0  0  0  0  0  0
    7.3320   -3.0010   18.7990 C   0  0  0  0  0  0  0  0  0  0  0  0
    5.3790   -4.0800   19.7250 O   0  0  0  0  0  0  0  0  0  0  0  0
    6.7530   -3.0020   21.2230 N   0  0  0  0  0  0  0  0  0  0  0  0
    7.3420   -1.6380   21.3080 C   0  0  0  0  0  0  0  0  0  0  0  0
    7.3810   -4.0150   22.1010 C   0  0  2  0  0  0  0  0  0  0  0  0
    6.4840   -4.4570   23.2570 C   0  0  0  0  0  0  0  0  0  0  0  0
    8.0310   -1.2230   22.6290 C   0  0  0  0  0  0  0  0  0  0  0  0
    8.7310   -3.5260   22.6140 C   0  0  0  0  0  0  0  0  0  0  0  0
    8.6200   -2.3190   23.3930 N   0  0  0  0  0  0  0  0  0  0  0  0
    5.0460   -4.8250   22.9340 C   0  0  2  0  0  0  0  0  0  0  0  0
    8.4300   -2.3590   24.7980 C   0  0  0  0  0  0  0  0  0  0  0  0
    4.1950   -4.3410   24.0730 C   0  0  0  0  0  0  0  0  0  0  0  0
    4.8260   -6.3620   22.7740 C   0  0  0  0  0  0  0  0  0  0  0  0
    8.1170   -1.3230   25.3920 O   0  0  0  0  0  0  0  0  0  0  0  0
    8.6190   -3.6230   25.5270 C   0  0  0  0  0  0  0  0  0  0  0  0
    3.3110   -5.3940   24.7510 C   0  0  0  0  0  0  0  0  0  0  0  0
    3.5540   -6.8300   23.9470 S   0  0  0  0  0  0  0  0  0  0  0  0
    2.2560   -7.2990   23.1560 O   0  0  0  0  0  0  0  0  0  0  0  0
    4.1660   -7.9630   24.8670 O   0  0  0  0  0  0  0  0  0  0  0  0
    9.4060   -4.7600   25.2560 C   0  0  0  0  0  0  0  0  0  0  0  0
    7.7680   -3.8700   27.0310 S   0  0  0  0  0  0  0  0  0  0  0  0
    9.3020   -5.7360   26.2290 C   0  0  0  0  0  0  0  0  0  0  0  0
    8.4620   -5.4220   27.2620 C   0  0  0  0  0  0  0  0  0  0  0  0
  1  2  1  0
  1  3  2  0
  1  4  1  0
  4  5  1  0
  4  6  1  0
  6  7  1  1
  5  8  1  0
  6  9  1  0
  8 10  1  0
  9 10  1  0
 11  7  1  1
 10 12  1  0
 11 13  1  0
 11 14  1  0
 12 15  2  0
 12 16  1  0
 13 17  2  0
 14 18  1  0
 17 18  1  0
 18 19  1  0
 18 20  1  0
 16 21  2  0
 16 22  1  0
 21 23  1  0
 22 24  1  0
 23 24  2  0
M  END
