x1412_1-x0874_0-x0831_1-x1412_0
     RDKit          3D

 23 25  0  0  0  0  0  0  0  0999 V2000
    6.3090   -3.3840   19.8860 C   0  0  0  0  0  0  0  0  0  0  0  0
    7.3170   -3.0180   18.8030 C   0  0  0  0  0  0  0  0  0  0  0  0
    5.3450   -4.1210   19.6990 O   0  0  0  0  0  0  0  0  0  0  0  0
    6.5400   -2.8790   21.1470 N   0  0  0  0  0  0  0  0  0  0  0  0
    7.5220   -1.8110   21.3890 C   0  0  0  0  0  0  0  0  0  0  0  0
    6.1970   -3.6560   22.3320 C   0  0  0  0  0  0  0  0  0  0  0  0
    8.7500   -2.3000   22.1430 C   0  0  0  0  0  0  0  0  0  0  0  0
    7.4760   -4.2910   22.8770 C   0  0  0  0  0  0  0  0  0  0  0  0
    8.3570   -3.1780   23.2460 N   0  0  0  0  0  0  0  0  0  0  0  0
    8.5080   -2.8020   24.6480 C   0  0  0  0  0  0  0  0  0  0  0  0
    8.6070   -1.5720   25.0170 N   0  0  0  0  0  0  0  0  0  0  0  0
    8.5580   -3.8600   25.7130 C   0  0  0  0  0  0  0  0  0  0  0  0
    8.5760   -0.6420   23.8970 C   0  0  0  0  0  0  0  0  0  0  0  0
    9.3640   -5.0990   25.5590 C   0  0  0  0  0  0  0  0  0  0  0  0
    7.7820   -3.9410   27.2600 S   0  0  0  0  0  0  0  0  0  0  0  0
    9.7900    0.2880   23.8920 C   0  0  0  0  0  0  0  0  0  0  0  0
    9.3500   -5.9840   26.5660 C   0  0  0  0  0  0  0  0  0  0  0  0
    8.5140   -5.5350   27.6440 C   0  0  0  0  0  0  0  0  0  0  0  0
   11.0620   -0.1880   23.2210 C   0  0  0  0  0  0  0  0  0  0  0  0
   12.2010    0.6570   23.3050 C   0  0  0  0  0  0  0  0  0  0  0  0
   11.3410   -1.3520   22.5020 C   0  0  0  0  0  0  0  0  0  0  0  0
   13.2900    0.1430   22.6720 C   0  0  0  0  0  0  0  0  0  0  0  0
   12.9670   -1.3780   21.9640 S   0  0  0  0  0  0  0  0  0  0  0  0
  1  2  1  0
  1  3  2  0
  1  4  1  0
  4  5  1  0
  4  6  1  0
  5  7  1  0
  6  8  1  0
  7  9  1  0
  8  9  1  0
  9 10  1  0
 10 11  2  3
 10 12  1  0
 11 13  1  0
 12 14  2  0
 12 15  1  0
 13 16  1  0
 14 17  1  0
 15 18  1  0
 17 18  2  0
 16 19  1  0
 19 20  1  0
 19 21  2  0
 20 22  2  0
 21 23  1  0
 22 23  1  0
M  END
