x1412_1-x0831_0-x1375_1
     RDKit          3D

 25 27  0  0  0  0  0  0  0  0999 V2000
    6.3980   -3.3200   19.9360 C   0  0  0  0  0  0  0  0  0  0  0  0
    7.3420   -2.9850   18.8040 C   0  0  0  0  0  0  0  0  0  0  0  0
    5.4450   -4.0960   19.7420 O   0  0  0  0  0  0  0  0  0  0  0  0
    6.6730   -2.7370   21.1710 N   0  0  0  0  0  0  0  0  0  0  0  0
    7.3010   -1.4290   21.3040 C   0  0  0  0  0  0  0  0  0  0  0  0
    6.8020   -3.5960   22.3420 C   0  0  1  0  0  0  0  0  0  0  0  0
    6.2400   -4.9950   22.1690 C   0  0  0  0  0  0  0  0  0  0  0  0
    8.6520   -1.4930   22.0250 C   0  0  0  0  0  0  0  0  0  0  0  0
    8.0710   -3.7020   22.8020 C   0  0  0  0  0  0  0  0  0  0  0  0
    8.7280   -2.4330   23.1500 N   0  0  0  0  0  0  0  0  0  0  0  0
    4.9620   -5.2440   22.8680 C   0  0  2  0  0  0  0  0  0  0  0  0
   10.1280   -2.5690   23.5820 C   0  0  0  0  0  0  0  0  0  0  0  0
    4.7960   -4.5770   24.1300 C   0  0  0  0  0  0  0  0  0  0  0  0
    4.5950   -6.5780   22.9640 C   0  0  0  0  0  0  0  0  0  0  0  0
   10.7850   -1.1510   23.6010 C   0  0  0  0  0  0  0  0  0  0  0  0
    4.1140   -5.2760   25.0710 C   0  0  0  0  0  0  0  0  0  0  0  0
    3.6650   -6.7730   24.4430 S   0  0  0  0  0  0  0  0  0  0  0  0
    2.2780   -6.8420   24.0490 O   0  0  0  0  0  0  0  0  0  0  0  0
    4.2620   -7.8690   25.1420 O   0  0  0  0  0  0  0  0  0  0  0  0
   10.1800    0.0510   24.2540 C   0  0  0  0  0  0  0  0  0  0  0  0
   12.1090   -0.9660   22.9060 C   0  0  0  0  0  0  0  0  0  0  0  0
   12.8330   -2.0640   22.1950 C   0  0  0  0  0  0  0  0  0  0  0  0
   10.8270    1.3270   24.2160 C   0  0  0  0  0  0  0  0  0  0  0  0
   12.7610    0.4200   22.9080 C   0  0  0  0  0  0  0  0  0  0  0  0
   12.1700    1.4950   23.5120 C   0  0  0  0  0  0  0  0  0  0  0  0
  1  2  1  0
  1  3  2  0
  1  4  1  0
  4  5  1  0
  4  6  1  0
  6  7  1  6
  5  8  1  0
  6  9  1  0
  8 10  1  0
  9 10  1  0
 11  7  1  1
 10 12  1  0
 11 13  1  0
 11 14  1  0
 12 15  1  0
 13 16  2  0
 14 17  1  0
 16 17  1  0
 17 18  1  0
 17 19  1  0
 15 20  2  0
 15 21  1  0
 21 22  1  0
 20 23  1  0
 21 24  2  0
 23 25  2  0
 24 25  1  0
M  END
