x1412_1-x0831_1-x1418_0-x1334_1
     RDKit          3D

 15 16  0  0  0  0  0  0  0  0999 V2000
    6.3270   -3.4140   19.9950 C   0  0  0  0  0  0  0  0  0  0  0  0
    7.3090   -3.0480   18.8920 C   0  0  0  0  0  0  0  0  0  0  0  0
    5.3650   -4.1460   19.7420 O   0  0  0  0  0  0  0  0  0  0  0  0
    6.5440   -2.9560   21.2860 N   0  0  0  0  0  0  0  0  0  0  0  0
    7.2830   -1.7090   21.4590 C   0  0  0  0  0  0  0  0  0  0  0  0
    6.5700   -3.8510   22.4630 C   0  0  0  0  0  0  0  0  0  0  0  0
    8.7370   -1.9360   21.8480 C   0  0  0  0  0  0  0  0  0  0  0  0
    7.9350   -3.9350   23.2100 C   0  0  0  0  0  0  0  0  0  0  0  0
    8.8280   -2.7060   23.0670 N   0  0  0  0  0  0  0  0  0  0  0  0
   10.1780   -2.8600   23.6100 C   0  0  0  0  0  0  0  0  0  0  0  0
   10.9980   -1.6640   23.5960 C   0  0  0  0  0  0  0  0  0  0  0  0
   12.1760   -1.5380   22.6370 C   0  0  0  0  0  0  0  0  0  0  0  0
   10.7740   -0.2680   24.6060 S   0  0  0  0  0  0  0  0  0  0  0  0
   12.8360   -0.2120   22.8230 C   0  0  0  0  0  0  0  0  0  0  0  0
   12.1580    0.6040   23.8810 C   0  0  0  0  0  0  0  0  0  0  0  0
  1  2  1  0
  1  3  2  0
  1  4  1  0
  4  5  1  0
  4  6  1  0
  5  7  1  0
  6  8  1  0
  7  9  1  0
  8  9  1  0
  9 10  1  0
 10 11  1  0
 11 12  2  0
 11 13  1  0
 12 14  1  0
 13 15  1  0
 14 15  2  0
M  END
