x1412_1-x1412_0-x1386_0
     RDKit          3D

 22 24  0  0  0  0  0  0  0  0999 V2000
    6.3280   -3.3910   19.9260 C   0  0  0  0  0  0  0  0  0  0  0  0
    7.3020   -3.0230   18.8240 C   0  0  0  0  0  0  0  0  0  0  0  0
    5.3660   -4.1140   19.7010 O   0  0  0  0  0  0  0  0  0  0  0  0
    6.5650   -2.9320   21.1990 N   0  0  0  0  0  0  0  0  0  0  0  0
    7.4730   -1.7730   21.4030 C   0  0  0  0  0  0  0  0  0  0  0  0
    6.3400   -3.8560   22.3450 C   0  0  0  0  0  0  0  0  0  0  0  0
    8.6440   -2.0970   22.3430 C   0  0  0  0  0  0  0  0  0  0  0  0
    7.5750   -4.0760   23.1940 C   0  0  0  0  0  0  0  0  0  0  0  0
    8.1990   -2.8020   23.5370 N   0  0  0  0  0  0  0  0  0  0  0  0
    8.9360   -2.6580   24.6640 C   0  0  2  0  0  0  0  0  0  0  0  0
    8.7420   -1.6410   25.3160 O   0  0  0  0  0  0  0  0  0  0  0  0
   10.4250   -2.7900   24.3170 C   0  0  0  0  0  0  0  0  0  0  0  0
    8.8260   -3.8040   25.6640 C   0  0  0  0  0  0  0  0  0  0  0  0
    9.6030   -4.9450   25.5460 C   0  0  0  0  0  0  0  0  0  0  0  0
    7.8020   -3.9040   27.0450 S   0  0  0  0  0  0  0  0  0  0  0  0
   11.2340   -1.5850   23.8970 C   0  0  0  0  0  0  0  0  0  0  0  0
    9.3880   -5.8440   26.5110 C   0  0  0  0  0  0  0  0  0  0  0  0
    8.4300   -5.4580   27.4410 C   0  0  0  0  0  0  0  0  0  0  0  0
   12.2470   -1.5750   22.9640 C   0  0  0  0  0  0  0  0  0  0  0  0
   11.0750   -0.2830   24.3990 C   0  0  0  0  0  0  0  0  0  0  0  0
   12.8810   -0.2530   22.7390 C   0  0  0  0  0  0  0  0  0  0  0  0
   12.1540    0.9070   23.7220 S   0  0  0  0  0  0  0  0  0  0  0  0
  1  2  1  0
  1  3  2  0
  1  4  1  0
  4  5  1  0
  4  6  1  0
  5  7  1  0
  6  8  1  0
  7  9  1  0
  8  9  1  0
  9 10  1  0
 10 11  1  1
 10 12  1  0
 10 13  1  0
 13 14  2  0
 13 15  1  0
 12 16  1  0
 14 17  1  0
 15 18  1  0
 17 18  2  0
 16 19  1  0
 16 20  2  0
 19 21  2  0
 20 22  1  0
 21 22  1  0
M  END
