x1412_1-x0831_0-x0397_0-x0692_1-x1334_1-x0831_1-x1374_1-x1334_0-x1385_1-x0770_1-x0434_2
     RDKit          3D

 39 43  0  0  0  0  0  0  0  0999 V2000
    2.2550   -7.6710   23.2540 O   0  0  0  0  0  0  0  0  0  0  0  0
    2.4330   -8.0180   24.6120 C   0  0  0  0  0  0  0  0  0  0  0  0
    3.8080   -7.9550   24.9190 O   0  0  0  0  0  0  0  0  0  0  0  0
    4.5090   -7.2230   23.9330 C   0  0  0  0  0  0  0  0  0  0  0  0
    4.9410   -6.0660   24.3950 C   0  0  0  0  0  0  0  0  0  0  0  0
    6.0560   -5.7680   23.4430 C   0  0  2  0  0  0  0  0  0  0  0  0
    6.0020   -4.7090   22.4720 C   0  0  2  0  0  0  0  0  0  0  0  0
    6.0220   -6.3420   22.2050 C   0  0  0  0  0  0  0  0  0  0  0  0
    7.2220   -3.8900   22.1580 C   0  0  1  0  0  0  0  0  0  0  0  0
    6.7340   -2.8260   21.2780 N   0  0  0  0  0  0  0  0  0  0  0  0
    8.0160   -3.5970   23.2950 C   0  0  0  0  0  0  0  0  0  0  0  0
    6.4630   -3.2820   19.9550 C   0  0  0  0  0  0  0  0  0  0  0  0
    8.5830   -2.2200   23.3640 N   0  0  0  0  0  0  0  0  0  0  0  0
    7.3460   -1.4970   21.5370 C   0  0  2  0  0  0  0  0  0  0  0  0
    7.4070   -2.9680   18.8010 C   0  0  0  0  0  0  0  0  0  0  0  0
    5.4760   -4.0130   19.7220 O   0  0  0  0  0  0  0  0  0  0  0  0
    9.6060   -1.9880   24.2290 C   0  0  1  0  0  0  0  0  0  0  0  0
    7.6250   -0.7840   20.3490 N   0  0  0  0  0  0  0  0  0  0  0  0
    8.7500   -1.6110   22.1060 C   0  0  0  0  0  0  0  0  0  0  0  0
   10.4110   -3.2030   24.4600 C   0  0  0  0  0  0  0  0  0  0  0  0
   10.5040   -0.7610   23.9480 C   0  0  0  0  0  0  0  0  0  0  0  0
    6.7390   -0.0390   19.6500 C   0  0  0  0  0  0  0  0  0  0  0  0
   10.1820    0.5220   24.3620 C   0  0  0  0  0  0  0  0  0  0  0  0
   11.7240   -1.0040   23.2160 C   0  0  0  0  0  0  0  0  0  0  0  0
    9.6750   -4.1400   25.4020 C   0  0  0  0  0  0  0  0  0  0  0  0
    7.0070    0.2680   18.3730 C   0  0  0  0  0  0  0  0  0  0  0  0
    5.4270    0.5100   20.1740 C   0  0  0  0  0  0  0  0  0  0  0  0
   12.1950   -2.3240   22.6940 C   0  0  0  0  0  0  0  0  0  0  0  0
   11.0150    1.5840   24.0850 C   0  0  0  0  0  0  0  0  0  0  0  0
   12.6140    0.0290   22.9120 C   0  0  0  0  0  0  0  0  0  0  0  0
    9.9980   -5.5800   25.5610 C   0  0  0  0  0  0  0  0  0  0  0  0
    8.3880   -3.7240   26.4200 S   0  0  0  0  0  0  0  0  0  0  0  0
    6.1480    1.0480   17.5360 N   0  0  0  0  0  0  0  0  0  0  0  0
    4.6640    1.2380   19.3610 C   0  0  0  0  0  0  0  0  0  0  0  0
   12.3250    1.3300   23.3120 C   0  0  0  0  0  0  0  0  0  0  0  0
    9.1120   -6.1420   26.5720 C   0  0  0  0  0  0  0  0  0  0  0  0
    8.2430   -5.2990   27.0980 C   0  0  0  0  0  0  0  0  0  0  0  0
    5.0190    1.5110   18.0550 C   0  0  0  0  0  0  0  0  0  0  0  0
    7.0760   -5.6250   28.3060 Cl  0  0  0  0  0  0  0  0  0  0  0  0
  1  2  1  0
  2  3  1  0
  3  4  1  0
  4  5  1  0
  6  5  1  1
  6  7  1  0
  6  8  1  0
  7  8  1  6
  7  9  1  0
  9 10  1  0
  9 11  1  1
 10 12  1  0
 11 13  1  0
 10 14  1  0
 12 15  1  0
 12 16  2  0
 13 17  1  0
 14 18  1  6
 13 19  1  0
 14 19  1  0
 17 20  1  6
 17 21  1  0
 18 22  1  0
 21 23  2  0
 21 24  1  0
 20 25  1  0
 22 26  2  0
 22 27  1  0
 24 28  1  0
 23 29  1  0
 24 30  2  0
 25 31  2  0
 25 32  1  0
 26 33  1  0
 27 34  2  0
 29 35  2  0
 30 35  1  0
 31 36  1  0
 32 37  1  0
 36 37  2  0
 33 38  2  0
 34 38  1  0
 37 39  1  0
M  END
