x1418_1-x0831_1-x1334_1-x0387_0-x0769_1
     RDKit          3D

 27 29  0  0  0  0  0  0  0  0999 V2000
    6.4090   -3.2800   19.8770 C   0  0  0  0  0  0  0  0  0  0  0  0
    7.3630   -2.9990   18.7240 C   0  0  0  0  0  0  0  0  0  0  0  0
    5.4440   -4.0460   19.7070 O   0  0  0  0  0  0  0  0  0  0  0  0
    6.6980   -2.6770   21.0930 N   0  0  0  0  0  0  0  0  0  0  0  0
    6.6810   -3.4640   22.3250 C   0  0  0  0  0  0  0  0  0  0  0  0
    7.5500   -1.4790   21.1700 C   0  0  0  0  0  0  0  0  0  0  0  0
    7.4610   -2.7640   23.4780 C   0  0  2  0  0  0  0  0  0  0  0  0
    8.8100   -1.7270   21.6960 C   0  0  0  0  0  0  0  0  0  0  0  0
    6.6550   -1.5710   24.0320 C   0  0  0  0  0  0  0  0  0  0  0  0
    8.7830   -2.2620   23.0580 N   0  0  0  0  0  0  0  0  0  0  0  0
    6.5240   -1.5290   25.5810 C   0  0  0  0  0  0  0  0  0  0  0  0
    9.5430   -1.4070   23.9700 C   0  0  0  0  0  0  0  0  0  0  0  0
    5.7690   -2.6490   26.0610 O   0  0  0  0  0  0  0  0  0  0  0  0
   10.9510   -1.1320   23.4140 C   0  0  0  0  0  0  0  0  0  0  0  0
    4.3960   -2.6200   25.9830 C   0  0  0  0  0  0  0  0  0  0  0  0
   11.7600   -0.0670   23.7990 C   0  0  0  0  0  0  0  0  0  0  0  0
   11.6540   -1.9820   22.3570 C   0  0  0  0  0  0  0  0  0  0  0  0
    3.7730   -3.8700   25.8360 C   0  0  0  0  0  0  0  0  0  0  0  0
    3.5240   -1.3500   26.0470 C   0  0  0  0  0  0  0  0  0  0  0  0
   12.9840   -0.0240   23.1480 C   0  0  0  0  0  0  0  0  0  0  0  0
   13.1900   -1.3170   22.0300 S   0  0  0  0  0  0  0  0  0  0  0  0
    4.7830   -5.2490   25.7760 S   0  0  0  0  0  0  0  0  0  0  0  0
    2.3940   -4.0410   25.7410 C   0  0  0  0  0  0  0  0  0  0  0  0
    2.2120   -1.5440   25.9560 C   0  0  0  0  0  0  0  0  0  0  0  0
    5.7580   -5.1600   26.8410 O   0  0  0  0  0  0  0  0  0  0  0  0
    3.8780   -6.5600   25.8330 O   0  0  0  0  0  0  0  0  0  0  0  0
    1.6090   -2.9400   25.7950 C   0  0  0  0  0  0  0  0  0  0  0  0
  1  2  1  0
  1  3  2  0
  1  4  1  0
  4  5  1  0
  4  6  1  0
  5  7  1  0
  6  8  1  0
  7  9  1  6
  7 10  1  0
  8 10  1  0
  9 11  1  0
 10 12  1  0
 11 13  1  0
 12 14  1  0
 13 15  1  0
 14 16  1  0
 14 17  2  0
 15 18  2  0
 15 19  1  0
 16 20  2  0
 17 21  1  0
 20 21  1  0
 18 22  1  0
 18 23  1  0
 19 24  2  0
 22 25  2  0
 22 26  2  0
 23 27  2  0
 24 27  1  0
M  END
