x1418_1-x1418_0-x1412_0
     RDKit          3D

 23 25  0  0  0  0  0  0  0  0999 V2000
    6.2960   -3.2660   19.8650 C   0  0  0  0  0  0  0  0  0  0  0  0
    7.2790   -2.9540   18.7470 C   0  0  0  0  0  0  0  0  0  0  0  0
    5.3690   -4.0610   19.6960 O   0  0  0  0  0  0  0  0  0  0  0  0
    6.5010   -2.6460   21.1130 N   0  0  0  0  0  0  0  0  0  0  0  0
    6.1510   -3.3240   22.3430 C   0  0  0  0  0  0  0  0  0  0  0  0
    7.5270   -1.6050   21.2860 C   0  0  0  0  0  0  0  0  0  0  0  0
    7.4060   -4.0100   22.9860 C   0  0  0  0  0  0  0  0  0  0  0  0
    8.6240   -1.9430   22.2810 C   0  0  0  0  0  0  0  0  0  0  0  0
    8.3700   -2.9680   23.3600 N   0  0  0  0  0  0  0  0  0  0  0  0
    8.4560   -2.6060   24.7370 C   0  0  2  0  0  0  0  0  0  0  0  0
    7.7540   -1.7040   25.1900 O   0  0  0  0  0  0  0  0  0  0  0  0
    9.9100   -2.1980   24.9430 C   0  0  0  0  0  0  0  0  0  0  0  0
    8.4840   -3.7830   25.7340 C   0  0  0  0  0  0  0  0  0  0  0  0
   10.8510   -2.5880   23.8340 C   0  0  0  0  0  0  0  0  0  0  0  0
    9.3760   -4.8010   25.5980 C   0  0  0  0  0  0  0  0  0  0  0  0
    7.4980   -4.0590   27.1560 S   0  0  0  0  0  0  0  0  0  0  0  0
    9.3110   -5.7890   26.5590 C   0  0  0  0  0  0  0  0  0  0  0  0
    8.3100   -5.5350   27.5210 C   0  0  0  0  0  0  0  0  0  0  0  0
   11.5950   -1.3610   23.5540 C   0  0  0  0  0  0  0  0  0  0  0  0
   12.7760   -1.2240   22.7680 C   0  0  0  0  0  0  0  0  0  0  0  0
   11.1160    0.1520   24.1820 S   0  0  0  0  0  0  0  0  0  0  0  0
   13.1970    0.1830   22.7610 C   0  0  0  0  0  0  0  0  0  0  0  0
   12.4160    1.0080   23.4570 C   0  0  0  0  0  0  0  0  0  0  0  0
  1  2  1  0
  1  3  2  0
  1  4  1  0
  4  5  1  0
  4  6  1  0
  5  7  1  0
  6  8  1  0
  7  9  1  0
  8  9  1  0
  9 10  1  0
 10 11  1  1
 10 12  1  0
 10 13  1  0
 12 14  1  0
 13 15  2  0
 13 16  1  0
 15 17  1  0
 16 18  1  0
 17 18  2  0
 14 19  1  0
 19 20  2  0
 19 21  1  0
 20 22  1  0
 21 23  1  0
 22 23  2  0
M  END
