x1418_1-x0434_2-x1374_1-x1334_0-x0770_1-x1412_1-x0831_1-x0692_1-x1375_1-x0397_0-x1334_1-x0831_0-x0540_3-x1385_1
     RDKit          3D

 44 48  0  0  0  0  0  0  0  0999 V2000
    2.1440   -7.6980   23.8390 O   0  0  0  0  0  0  0  0  0  0  0  0
    3.3980   -7.0600   23.8700 C   0  0  0  0  0  0  0  0  0  0  0  0
    4.3650   -7.7860   24.6130 O   0  0  0  0  0  0  0  0  0  0  0  0
    5.6970   -7.4270   24.2210 C   0  0  0  0  0  0  0  0  0  0  0  0
    5.7530   -5.9650   24.0280 C   0  0  0  0  0  0  0  0  0  0  0  0
    5.3250   -5.4840   22.7060 C   0  0  1  0  0  0  0  0  0  0  0  0
    5.6290   -4.5050   21.9530 C   0  0  2  0  0  0  0  0  0  0  0  0
    5.7180   -6.1240   21.6510 C   0  0  0  0  0  0  0  0  0  0  0  0
    6.8520   -3.6670   21.9880 C   0  0  2  0  0  0  0  0  0  0  0  0
    7.1160   -3.1510   23.1830 C   0  0  0  0  0  0  0  0  0  0  0  0
    6.6840   -2.6860   20.9880 N   0  0  0  0  0  0  0  0  0  0  0  0
    6.3550   -3.2330   19.7550 C   0  0  0  0  0  0  0  0  0  0  0  0
    8.3900   -2.4530   23.0580 N   0  0  0  0  0  0  0  0  0  0  0  0
    7.4970   -1.5830   20.9740 C   0  0  1  0  0  0  0  0  0  0  0  0
    7.3490   -2.9810   18.6490 C   0  0  0  0  0  0  0  0  0  0  0  0
    5.3560   -3.9400   19.6060 O   0  0  0  0  0  0  0  0  0  0  0  0
    6.8140   -0.2210   21.2930 C   0  0  2  0  0  0  0  0  0  0  0  0
    9.5400   -2.8330   23.8740 C   0  0  1  0  0  0  0  0  0  0  0  0
    8.6360   -1.8050   21.7490 C   0  0  0  0  0  0  0  0  0  0  0  0
    5.6260   -0.1930   22.2730 C   0  0  0  0  0  0  0  0  0  0  0  0
    9.8170   -1.6150   24.4940 C   0  0  0  0  0  0  0  0  0  0  0  0
    9.1920   -3.8120   24.9990 C   0  0  0  0  0  0  0  0  0  0  0  0
    6.2580    0.3750   20.0210 C   0  0  0  0  0  0  0  0  0  0  0  0
    5.4760    1.1680   23.0190 C   0  0  0  0  0  0  0  0  0  0  0  0
    9.7560   -5.0580   25.2320 C   0  0  0  0  0  0  0  0  0  0  0  0
    7.9250   -3.4710   26.3090 S   0  0  0  0  0  0  0  0  0  0  0  0
   10.8790   -0.6010   23.8690 C   0  0  0  0  0  0  0  0  0  0  0  0
    6.8590    0.2410   18.7910 C   0  0  0  0  0  0  0  0  0  0  0  0
    5.0820    1.0930   20.0990 C   0  0  0  0  0  0  0  0  0  0  0  0
    4.3370    2.0150   22.5720 N   0  0  0  0  0  0  0  0  0  0  0  0
    9.2780   -5.7370   26.3450 C   0  0  0  0  0  0  0  0  0  0  0  0
    8.2920   -5.0640   27.0730 C   0  0  0  0  0  0  0  0  0  0  0  0
   10.5890    0.6770   24.2970 C   0  0  0  0  0  0  0  0  0  0  0  0
   11.9980   -0.7970   23.0080 C   0  0  0  0  0  0  0  0  0  0  0  0
    6.3910    0.7710   17.6550 N   0  0  0  0  0  0  0  0  0  0  0  0
    4.6080    1.6280   18.9450 C   0  0  0  0  0  0  0  0  0  0  0  0
    3.0560    2.0940   23.3470 C   0  0  0  0  0  0  0  0  0  0  0  0
    7.4420   -5.5000   28.4900 Cl  0  0  0  0  0  0  0  0  0  0  0  0
   12.4710   -2.0940   22.4080 C   0  0  0  0  0  0  0  0  0  0  0  0
   11.3030    1.7940   23.9670 C   0  0  0  0  0  0  0  0  0  0  0  0
   12.7260    0.3510   22.6990 C   0  0  0  0  0  0  0  0  0  0  0  0
    5.2500    1.4770   17.7360 C   0  0  0  0  0  0  0  0  0  0  0  0
    2.7800    1.3590   24.2850 O   0  0  0  0  0  0  0  0  0  0  0  0
   12.4030    1.6240   23.1550 C   0  0  0  0  0  0  0  0  0  0  0  0
  1  2  1  0
  2  3  1  0
  3  4  1  0
  4  5  1  0
  6  5  1  1
  6  7  1  0
  6  8  1  0
  7  8  1  6
  7  9  1  0
  9 10  1  1
  9 11  1  0
 11 12  1  0
 10 13  1  0
 11 14  1  0
 12 15  1  0
 12 16  2  0
 14 17  1  0
 13 18  1  0
 13 19  1  0
 14 19  1  1
 17 20  1  1
 18 21  1  1
 18 22  1  0
 17 23  1  0
 20 24  1  0
 22 25  2  0
 22 26  1  0
 21 27  1  0
 23 28  2  0
 23 29  1  0
 24 30  1  0
 25 31  1  0
 26 32  1  0
 31 32  2  0
 27 33  2  0
 27 34  1  0
 28 35  1  0
 29 36  2  0
 30 37  1  0
 32 38  1  0
 34 39  1  0
 33 40  1  0
 34 41  2  0
 35 42  2  0
 36 42  1  0
 37 43  2  0
 40 44  2  0
 41 44  1  0
M  END
