x1412_0-x0978_1-x1386_0-x1412_1-x0434_2
     RDKit          3D

 40 43  0  0  0  0  0  0  0  0999 V2000
    4.2380   -5.5290   23.0550 C   0  0  0  0  0  0  0  0  0  0  0  0
    3.1210   -6.5470   23.2790 C   0  0  2  0  0  0  0  0  0  0  0  0
    1.8760   -5.7610   23.2470 N   0  0  0  0  0  0  0  0  0  0  0  0
    4.0940   -4.3090   23.4630 N   0  0  0  0  0  0  0  0  0  0  0  0
    3.2400   -7.2670   24.6180 C   0  0  1  0  0  0  0  0  0  0  0  0
    5.1970   -3.3530   23.2300 C   0  0  0  0  0  0  0  0  0  0  0  0
    0.7670   -6.2320   22.5760 C   0  0  0  0  0  0  0  0  0  0  0  0
    2.1870   -8.3420   24.7530 C   0  0  0  0  0  0  0  0  0  0  0  0
    4.3190   -7.8200   24.7190 O   0  0  0  0  0  0  0  0  0  0  0  0
    6.2770   -3.8710   22.4660 C   0  0  1  0  0  0  0  0  0  0  0  0
    0.7660   -7.2710   21.9240 O   0  0  0  0  0  0  0  0  0  0  0  0
   -0.4620   -5.3800   22.6920 C   0  0  0  0  0  0  0  0  0  0  0  0
    6.5640   -2.9640   21.3240 N   0  0  0  0  0  0  0  0  0  0  0  0
    7.3690   -4.0360   23.2870 C   0  0  0  0  0  0  0  0  0  0  0  0
    6.3550   -3.3990   20.0140 C   0  0  0  0  0  0  0  0  0  0  0  0
    8.3560   -2.9830   23.3910 N   0  0  0  0  0  0  0  0  0  0  0  0
    7.3110   -1.7310   21.6600 C   0  0  2  0  0  0  0  0  0  0  0  0
    7.2990   -3.0210   18.8780 C   0  0  0  0  0  0  0  0  0  0  0  0
    5.4040   -4.1480   19.7480 O   0  0  0  0  0  0  0  0  0  0  0  0
    8.9930   -2.6980   24.5840 C   0  0  2  0  0  0  0  0  0  0  0  0
    7.5410   -0.9830   20.4370 N   0  0  0  0  0  0  0  0  0  0  0  0
    8.5200   -2.0190   22.2990 C   0  0  0  0  0  0  0  0  0  0  0  0
    8.5490   -1.7580   25.2580 O   0  0  0  0  0  0  0  0  0  0  0  0
   10.4870   -2.7270   24.2650 C   0  0  0  0  0  0  0  0  0  0  0  0
    8.8160   -3.8110   25.6050 C   0  0  0  0  0  0  0  0  0  0  0  0
    6.6430   -0.2000   19.8300 C   0  0  0  0  0  0  0  0  0  0  0  0
    9.6030   -4.9610   25.4940 C   0  0  0  0  0  0  0  0  0  0  0  0
    7.7280   -3.8430   26.9640 S   0  0  0  0  0  0  0  0  0  0  0  0
   11.2470   -1.4900   23.8920 C   0  0  0  0  0  0  0  0  0  0  0  0
    7.0030    0.1080   18.5770 C   0  0  0  0  0  0  0  0  0  0  0  0
    5.4340    0.2990   20.3480 C   0  0  0  0  0  0  0  0  0  0  0  0
    9.3640   -5.9790   26.5500 C   0  0  0  0  0  0  0  0  0  0  0  0
    8.2980   -5.4780   27.4930 C   0  0  0  0  0  0  0  0  0  0  0  0
   12.3070   -1.5160   22.9330 C   0  0  0  0  0  0  0  0  0  0  0  0
   11.0570   -0.2150   24.3870 C   0  0  0  0  0  0  0  0  0  0  0  0
    6.3410    0.8820   17.6860 N   0  0  0  0  0  0  0  0  0  0  0  0
    4.6170    1.1100   19.5730 C   0  0  0  0  0  0  0  0  0  0  0  0
   12.8720   -0.2830   22.7400 C   0  0  0  0  0  0  0  0  0  0  0  0
   12.1430    0.9300   23.6950 S   0  0  0  0  0  0  0  0  0  0  0  0
    5.0510    1.4500   18.1600 C   0  0  0  0  0  0  0  0  0  0  0  0
  2  1  1  1
  2  3  1  0
  1  4  2  3
  2  5  1  0
  4  6  1  0
  3  7  1  0
  5  8  1  6
  5  9  1  0
 10  6  1  1
  7 11  2  0
  7 12  1  0
 10 13  1  0
 10 14  1  0
 13 15  1  0
 14 16  1  0
 13 17  1  0
 15 18  1  0
 15 19  2  0
 16 20  1  0
 17 21  1  6
 16 22  1  0
 17 22  1  0
 20 23  1  1
 20 24  1  0
 20 25  1  0
 21 26  1  0
 25 27  2  0
 25 28  1  0
 24 29  1  0
 26 30  2  0
 26 31  1  0
 27 32  1  0
 28 33  1  0
 32 33  2  0
 29 34  1  0
 29 35  2  0
 30 36  1  0
 31 37  2  0
 34 38  2  0
 35 39  1  0
 38 39  1  0
 36 40  2  0
 37 40  1  0
M  END
