x1412_1-x1385_0-x0981_1-x0434_2-x0831_0-x1412_0-x1334_0
     RDKit          3D

 47 50  0  0  0  0  0  0  0  0999 V2000
    3.8070   -5.9090   22.9320 C   0  0  0  0  0  0  0  0  0  0  0  0
    2.4630   -6.2280   23.5500 C   0  0  1  0  0  0  0  0  0  0  0  0
    2.1920   -7.4990   22.8920 N   0  0  0  0  0  0  0  0  0  0  0  0
    4.5310   -4.6750   22.8660 N   0  0  0  0  0  0  0  0  0  0  0  0
    2.5490   -6.3810   25.0680 C   0  0  0  0  0  0  0  0  0  0  0  0
    5.7410   -4.9090   22.1280 C   0  0  0  0  0  0  0  0  0  0  0  0
    1.1400   -7.5770   22.0290 C   0  0  0  0  0  0  0  0  0  0  0  0
    3.0500   -7.7410   25.3720 C   0  0  0  0  0  0  0  0  0  0  0  0
    6.6130   -3.6880   22.2810 C   0  0  2  0  0  0  0  0  0  0  0  0
    1.1710   -8.7940   21.1480 C   0  0  0  0  0  0  0  0  0  0  0  0
    0.2550   -6.7320   21.9690 O   0  0  0  0  0  0  0  0  0  0  0  0
    2.5060   -8.4380   26.3890 N   0  0  0  0  0  0  0  0  0  0  0  0
    3.9390   -8.2260   24.7100 O   0  0  0  0  0  0  0  0  0  0  0  0
    6.6480   -2.7640   21.1510 N   0  0  0  0  0  0  0  0  0  0  0  0
    8.0430   -4.1020   22.7590 C   0  0  0  0  0  0  0  0  0  0  0  0
    6.3900   -3.2940   19.8940 C   0  0  0  0  0  0  0  0  0  0  0  0
    8.8460   -2.8570   23.0800 C   0  0  1  0  0  0  0  0  0  0  0  0
    7.5290   -1.6160   21.3220 C   0  0  1  0  0  0  0  0  0  0  0  0
    7.3620   -3.0060   18.7750 C   0  0  0  0  0  0  0  0  0  0  0  0
    5.4080   -4.0250   19.6710 O   0  0  0  0  0  0  0  0  0  0  0  0
    9.3000   -2.7680   24.5280 C   0  0  1  0  0  0  0  0  0  0  0  0
   10.2640   -2.9030   22.4690 C   0  0  0  0  0  0  0  0  0  0  0  0
    6.7000   -0.4640   21.1870 N   0  0  0  0  0  0  0  0  0  0  0  0
    8.0190   -1.6620   22.6350 C   0  0  0  0  0  0  0  0  0  0  0  0
   10.7190   -2.2730   24.7230 C   0  0  0  0  0  0  0  0  0  0  0  0
    8.3170   -1.7310   25.0960 C   0  0  0  0  0  0  0  0  0  0  0  0
    9.2170   -4.0690   25.4200 C   0  0  0  0  0  0  0  0  0  0  0  0
    6.2650    0.1100   20.0610 C   0  0  0  0  0  0  0  0  0  0  0  0
    8.1700   -0.5690   24.7500 O   0  0  0  0  0  0  0  0  0  0  0  0
    9.7850   -5.2510   25.3740 C   0  0  0  0  0  0  0  0  0  0  0  0
    8.2010   -4.1300   26.8350 S   0  0  0  0  0  0  0  0  0  0  0  0
   11.1570   -0.9010   24.2300 C   0  0  0  0  0  0  0  0  0  0  0  0
    6.8690    0.0310   18.8660 C   0  0  0  0  0  0  0  0  0  0  0  0
    5.0810    0.8560   20.1700 C   0  0  0  0  0  0  0  0  0  0  0  0
    9.4640   -6.1680   26.3810 C   0  0  0  0  0  0  0  0  0  0  0  0
    8.6080   -5.7420   27.2870 C   0  0  0  0  0  0  0  0  0  0  0  0
   10.4520    0.4020   24.5600 C   0  0  0  0  0  0  0  0  0  0  0  0
   12.3360   -0.9210   23.3980 C   0  0  0  0  0  0  0  0  0  0  0  0
    6.4210    0.6350   17.7220 N   0  0  0  0  0  0  0  0  0  0  0  0
    4.6080    1.4680   19.0470 C   0  0  0  0  0  0  0  0  0  0  0  0
    8.0410   -6.2480   28.3770 O   0  0  0  0  0  0  0  0  0  0  0  0
   13.0620   -2.1720   23.0270 C   0  0  0  0  0  0  0  0  0  0  0  0
   10.9180    1.6190   24.0800 C   0  0  0  0  0  0  0  0  0  0  0  0
   12.8790    0.2330   22.8830 C   0  0  0  0  0  0  0  0  0  0  0  0
    5.2500    1.3740   17.8460 C   0  0  0  0  0  0  0  0  0  0  0  0
   12.1710    1.5390   23.2210 C   0  0  0  0  0  0  0  0  0  0  0  0
    6.5380   -5.6210   28.7140 Cl  0  0  0  0  0  0  0  0  0  0  0  0
  2  1  1  6
  2  3  1  0
  1  4  2  3
  2  5  1  0
  4  6  1  0
  3  7  1  0
  5  8  1  0
  9  6  1  6
  7 10  1  0
  7 11  2  0
  8 12  1  0
  8 13  2  0
  9 14  1  0
  9 15  1  0
 14 16  1  0
 15 17  1  0
 14 18  1  0
 16 19  1  0
 16 20  2  0
 17 21  1  0
 17 22  1  6
 18 23  1  1
 17 24  1  0
 18 24  1  0
 21 25  1  6
 21 26  1  0
 21 27  1  0
 23 28  1  0
 26 29  2  0
 27 30  2  0
 27 31  1  0
 25 32  1  0
 28 33  2  0
 28 34  1  0
 30 35  1  0
 31 36  1  0
 35 36  2  0
 32 37  2  0
 32 38  1  0
 33 39  1  0
 34 40  2  0
 36 41  1  0
 38 42  1  0
 37 43  1  0
 38 44  2  0
 39 45  2  0
 40 45  1  0
 43 46  2  0
 44 46  1  0
 41 47  1  0
M  END
