x1418_1-x0831_1-x1385_1-x0831_0-x0692_1-x0426_1-x0434_2-x1374_1-x0770_1-x1334_0-x1334_1-x0397_0-x1386_1
     RDKit          3D

 43 48  0  0  0  0  0  0  0  0999 V2000
    2.0970   -7.1700   23.5110 O   0  0  0  0  0  0  0  0  0  0  0  0
    2.4250   -7.5400   24.8390 C   0  0  0  0  0  0  0  0  0  0  0  0
    3.7910   -7.9170   24.8700 O   0  0  0  0  0  0  0  0  0  0  0  0
    4.5280   -7.2400   23.8660 C   0  0  0  0  0  0  0  0  0  0  0  0
    4.8950   -6.0420   24.3630 C   0  0  0  0  0  0  0  0  0  0  0  0
    6.0290   -5.6540   23.4760 C   0  0  2  0  0  0  0  0  0  0  0  0
    5.7340   -4.8440   22.4990 C   0  0  2  0  0  0  0  0  0  0  0  0
    6.2800   -6.3830   22.2720 C   0  0  0  0  0  0  0  0  0  0  0  0
    6.5060   -3.5460   22.4750 C   0  0  1  0  0  0  0  0  0  0  0  0
    8.0080   -3.5620   22.8820 C   0  0  0  0  0  0  0  0  0  0  0  0
    6.3370   -2.8120   21.2920 N   0  0  0  0  0  0  0  0  0  0  0  0
    6.2020   -3.3040   19.9880 C   0  0  0  0  0  0  0  0  0  0  0  0
    8.5850   -2.1960   22.9350 N   0  0  0  0  0  0  0  0  0  0  0  0
    6.7190   -1.4750   21.6880 C   0  0  2  0  0  0  0  0  0  0  0  0
    7.2260   -2.9570   18.9150 C   0  0  0  0  0  0  0  0  0  0  0  0
    5.2820   -4.0740   19.6990 O   0  0  0  0  0  0  0  0  0  0  0  0
    5.6030   -0.3530   21.4450 C   0  0  1  0  0  0  0  0  0  0  0  0
   10.0250   -2.3230   23.1810 C   0  0  2  0  0  0  0  0  0  0  0  0
    8.1400   -1.3160   21.7950 C   0  0  0  0  0  0  0  0  0  0  0  0
    5.4840    0.7180   22.5400 C   0  0  0  0  0  0  0  0  0  0  0  0
   10.5230   -3.2760   24.3180 C   0  0  0  0  0  0  0  0  0  0  0  0
    5.5680    0.2940   20.1060 C   0  0  0  0  0  0  0  0  0  0  0  0
   10.7910   -0.9880   23.2860 C   0  0  0  0  0  0  0  0  0  0  0  0
    4.0760    1.3690   22.4850 C   0  0  1  0  0  0  0  0  0  0  0  0
    4.6110    1.2470   19.8960 C   0  0  0  0  0  0  0  0  0  0  0  0
    6.5070   -0.0340   18.9900 C   0  0  0  0  0  0  0  0  0  0  0  0
   10.1580    0.1210   23.8890 C   0  0  0  0  0  0  0  0  0  0  0  0
   12.1220   -0.8090   22.7960 C   0  0  0  0  0  0  0  0  0  0  0  0
    9.5970   -3.9930   25.2650 C   0  0  0  0  0  0  0  0  0  0  0  0
    3.9960    2.6340   23.2300 N   0  0  0  0  0  0  0  0  0  0  0  0
    3.6480    1.5960   21.0130 C   0  0  0  0  0  0  0  0  0  0  0  0
   12.9200   -1.8780   22.1220 C   0  0  0  0  0  0  0  0  0  0  0  0
    4.6350    1.8270   18.5810 C   0  0  0  0  0  0  0  0  0  0  0  0
    6.4570    0.5530   17.8050 N   0  0  0  0  0  0  0  0  0  0  0  0
   10.7550    1.3620   24.0280 C   0  0  0  0  0  0  0  0  0  0  0  0
   12.6910    0.4550   22.9550 C   0  0  0  0  0  0  0  0  0  0  0  0
   10.0600   -5.2410   25.5980 C   0  0  0  0  0  0  0  0  0  0  0  0
    8.1160   -3.7270   26.1010 S   0  0  0  0  0  0  0  0  0  0  0  0
    5.5080    1.4960   17.5970 C   0  0  0  0  0  0  0  0  0  0  0  0
   12.0290    1.4920   23.5440 C   0  0  0  0  0  0  0  0  0  0  0  0
    9.2650   -5.9340   26.5070 C   0  0  0  0  0  0  0  0  0  0  0  0
    8.1700   -5.2450   26.8980 C   0  0  0  0  0  0  0  0  0  0  0  0
    6.9690   -5.7340   28.0130 Cl  0  0  0  0  0  0  0  0  0  0  0  0
  1  2  1  0
  2  3  1  0
  3  4  1  0
  4  5  1  0
  6  5  1  1
  6  7  1  0
  6  8  1  0
  7  8  1  6
  7  9  1  0
  9 10  1  6
  9 11  1  0
 11 12  1  0
 10 13  1  0
 11 14  1  0
 12 15  1  0
 12 16  2  0
 14 17  1  0
 13 18  1  0
 13 19  1  0
 14 19  1  6
 17 20  1  1
 18 21  1  1
 17 22  1  0
 18 23  1  0
 20 24  1  0
 22 25  2  0
 22 26  1  0
 23 27  2  0
 23 28  1  0
 21 29  1  0
 24 30  1  1
 24 31  1  0
 25 31  1  0
 28 32  1  0
 25 33  1  0
 26 34  2  0
 27 35  1  0
 28 36  2  0
 29 37  2  0
 29 38  1  0
 33 39  2  0
 34 39  1  0
 35 40  2  0
 36 40  1  0
 37 41  1  0
 38 42  1  0
 41 42  2  0
 42 43  1  0
M  END
