x1412_1-x0874_0-x0107_0
     RDKit          3D

 25 28  0  0  0  0  0  0  0  0999 V2000
    9.2750   -0.5720   22.7120 C   0  0  1  0  0  0  0  0  0  0  0  0
    8.7060    0.1970   21.5310 C   0  0  0  0  0  0  0  0  0  0  0  0
    9.0730    1.3420   21.2380 O   0  0  0  0  0  0  0  0  0  0  0  0
    8.3350   -1.8270   22.7560 C   0  0  2  0  0  0  0  0  0  0  0  0
   10.8300   -0.6750   22.5950 C   0  0  0  0  0  0  0  0  0  0  0  0
    7.7530   -0.5990   20.9040 N   0  0  0  0  0  0  0  0  0  0  0  0
    8.9290   -3.1660   22.8340 N   0  0  0  0  0  0  0  0  0  0  0  0
    7.3060   -1.6470   21.8000 C   0  0  1  0  0  0  0  0  0  0  0  0
   11.7440    0.3060   22.9920 C   0  0  0  0  0  0  0  0  0  0  0  0
   11.5020   -1.7610   22.0610 C   0  0  0  0  0  0  0  0  0  0  0  0
    6.8040   -0.0180   20.0100 C   0  0  0  0  0  0  0  0  0  0  0  0
    6.8480   -2.9910   21.3150 N   0  0  0  0  0  0  0  0  0  0  0  0
    7.9060   -4.1590   23.1730 C   0  0  0  0  0  0  0  0  0  0  0  0
   13.0720   -0.0210   22.7660 C   0  0  0  0  0  0  0  0  0  0  0  0
   13.2040   -1.5620   22.0540 S   0  0  0  0  0  0  0  0  0  0  0  0
    6.4990   -3.3810   20.0090 C   0  0  0  0  0  0  0  0  0  0  0  0
    5.5830    0.6990   20.6620 C   0  0  0  0  0  0  0  0  0  0  0  0
    7.0800   -0.1540   18.7050 C   0  0  0  0  0  0  0  0  0  0  0  0
    6.7780   -4.0190   22.3530 C   0  0  0  0  0  0  0  0  0  0  0  0
    5.2300    0.8700   22.1070 C   0  0  0  0  0  0  0  0  0  0  0  0
    7.4030   -2.9970   18.8580 C   0  0  0  0  0  0  0  0  0  0  0  0
    5.4970   -4.0860   19.7610 O   0  0  0  0  0  0  0  0  0  0  0  0
    4.6480    1.2940   19.5200 C   0  0  0  0  0  0  0  0  0  0  0  0
    6.3520    0.3130   17.7820 N   0  0  0  0  0  0  0  0  0  0  0  0
    5.1980    0.9990   18.2630 C   0  0  0  0  0  0  0  0  0  0  0  0
  1  2  1  0
  2  3  2  0
  1  4  1  0
  1  5  1  6
  2  6  1  0
  4  7  1  6
  4  8  1  0
  8  6  1  6
  5  9  1  0
  5 10  2  0
  6 11  1  0
  8 12  1  0
  7 13  1  0
  9 14  2  0
 10 15  1  0
 14 15  1  0
 12 16  1  0
 11 17  2  0
 11 18  1  0
 12 19  1  0
 13 19  1  0
 17 20  1  0
 16 21  1  0
 16 22  2  0
 17 23  1  0
 18 24  2  0
 23 25  2  0
 24 25  1  0
M  END
