x1418_1-x1385_1-x0397_0-x0770_1-x1334_0-x1386_1-x0692_1-x1412_1-x1334_1-x0831_0-x0831_1-x0434_2
     RDKit          3D

 34 38  0  0  0  0  0  0  0  0999 V2000
    6.2920   -3.2190   19.8610 C   0  0  0  0  0  0  0  0  0  0  0  0
    7.3620   -2.9820   18.8060 C   0  0  0  0  0  0  0  0  0  0  0  0
    5.3320   -3.9640   19.6400 O   0  0  0  0  0  0  0  0  0  0  0  0
    6.4430   -2.6170   21.1220 N   0  0  0  0  0  0  0  0  0  0  0  0
    6.3440   -3.4480   22.3200 C   0  0  2  0  0  0  0  0  0  0  0  0
    7.1140   -1.4140   21.3550 C   0  0  1  0  0  0  0  0  0  0  0  0
    7.7220   -3.8440   22.8470 C   0  0  0  0  0  0  0  0  0  0  0  0
    8.3310   -1.6090   22.2820 C   0  0  0  0  0  0  0  0  0  0  0  0
    5.5110   -4.6920   21.9890 C   0  0  0  0  0  0  0  0  0  0  0  0
    7.6980   -0.7550   20.1560 C   0  0  0  0  0  0  0  0  0  0  0  0
    8.1450   -2.5800   23.3730 N   0  0  0  0  0  0  0  0  0  0  0  0
    5.9600   -5.7590   22.9120 C   0  0  0  0  0  0  0  0  0  0  0  0
    6.0780   -6.1410   21.7290 C   0  0  0  0  0  0  0  0  0  0  0  0
    6.9760   -0.3330   19.0510 C   0  0  0  0  0  0  0  0  0  0  0  0
    9.1840   -2.6810   24.3730 C   0  0  2  0  0  0  0  0  0  0  0  0
    6.4530    0.3370   20.4220 C   0  0  0  0  0  0  0  0  0  0  0  0
    6.1410    0.2070   18.0660 N   0  0  0  0  0  0  0  0  0  0  0  0
   10.6000   -2.5410   23.8030 C   0  0  0  0  0  0  0  0  0  0  0  0
    9.0660   -3.8990   25.2730 C   0  0  0  0  0  0  0  0  0  0  0  0
    5.1160    1.0720   18.0410 C   0  0  0  0  0  0  0  0  0  0  0  0
    5.3000    1.3010   20.4110 C   0  0  0  0  0  0  0  0  0  0  0  0
    9.7710   -5.1570   25.3550 C   0  0  0  0  0  0  0  0  0  0  0  0
    7.8350   -3.8210   26.4950 S   0  0  0  0  0  0  0  0  0  0  0  0
   11.0900   -1.1130   23.7090 C   0  0  0  0  0  0  0  0  0  0  0  0
    4.6000    1.6780   19.1090 C   0  0  0  0  0  0  0  0  0  0  0  0
    9.2830   -5.9310   26.3710 C   0  0  0  0  0  0  0  0  0  0  0  0
    8.2360   -5.3880   27.1080 C   0  0  0  0  0  0  0  0  0  0  0  0
   10.4830   -0.0050   24.2670 C   0  0  0  0  0  0  0  0  0  0  0  0
   12.3720   -0.8250   22.9290 C   0  0  0  0  0  0  0  0  0  0  0  0
    7.3640   -6.0200   28.4310 Cl  0  0  0  0  0  0  0  0  0  0  0  0
   13.1300   -1.9100   22.2520 C   0  0  0  0  0  0  0  0  0  0  0  0
   10.9490    1.2840   24.1620 C   0  0  0  0  0  0  0  0  0  0  0  0
   12.8160    0.6440   22.8860 C   0  0  0  0  0  0  0  0  0  0  0  0
   12.0870    1.6450   23.4980 C   0  0  0  0  0  0  0  0  0  0  0  0
  1  2  1  0
  1  3  2  0
  1  4  1  0
  4  5  1  0
  4  6  1  0
  5  7  1  0
  6  8  1  0
  5  9  1  6
  6 10  1  6
  7 11  1  0
  8 11  1  0
  9 12  1  0
  9 13  1  0
 12 13  1  0
 10 14  1  0
 11 15  1  0
 14 16  2  0
 14 17  1  0
 15 18  1  6
 15 19  1  0
 17 20  2  0
 16 21  1  0
 19 22  2  0
 19 23  1  0
 18 24  1  0
 20 25  1  0
 21 25  2  0
 22 26  1  0
 23 27  1  0
 26 27  2  0
 24 28  2  0
 24 29  1  0
 27 30  1  0
 29 31  1  0
 28 32  1  0
 29 33  2  0
 32 34  2  0
 33 34  1  0
M  END
