x1418_0-x1412_1
     RDKit          3D

 15 16  0  0  0  0  0  0  0  0999 V2000
    6.3470   -3.4190   19.9610 C   0  0  0  0  0  0  0  0  0  0  0  0
    7.2580   -3.0190   18.8120 C   0  0  0  0  0  0  0  0  0  0  0  0
    5.3900   -4.1780   19.7590 O   0  0  0  0  0  0  0  0  0  0  0  0
    6.6540   -2.9310   21.2320 N   0  0  0  0  0  0  0  0  0  0  0  0
    7.2410   -1.6090   21.4730 C   0  0  0  0  0  0  0  0  0  0  0  0
    6.5940   -3.7440   22.4580 C   0  0  0  0  0  0  0  0  0  0  0  0
    8.6930   -1.9220   21.8350 C   0  0  0  0  0  0  0  0  0  0  0  0
    7.8140   -3.6750   23.3910 C   0  0  0  0  0  0  0  0  0  0  0  0
    8.6940   -2.4970   23.1850 N   0  0  0  0  0  0  0  0  0  0  0  0
   10.0820   -2.7280   23.5740 C   0  0  0  0  0  0  0  0  0  0  0  0
   10.9970   -1.5240   23.5400 C   0  0  0  0  0  0  0  0  0  0  0  0
   12.1040   -1.3880   22.7850 C   0  0  0  0  0  0  0  0  0  0  0  0
   10.7410   -0.0450   24.5230 S   0  0  0  0  0  0  0  0  0  0  0  0
   12.7990   -0.1060   22.9470 C   0  0  0  0  0  0  0  0  0  0  0  0
   12.1320    0.6530   23.8460 C   0  0  0  0  0  0  0  0  0  0  0  0
  1  2  1  0
  1  3  2  0
  1  4  1  0
  4  5  1  0
  4  6  1  0
  5  7  1  0
  6  8  1  0
  7  9  1  0
  8  9  1  0
  9 10  1  0
 10 11  1  0
 11 12  2  0
 11 13  1  0
 12 14  1  0
 13 15  1  0
 14 15  2  0
M  END
