x1412_0-x0736_1-x0434_2
     RDKit          3D

 23 25  0  0  0  0  0  0  0  0999 V2000
    6.4070   -3.3690   19.8870 C   0  0  0  0  0  0  0  0  0  0  0  0
    7.4110   -3.0260   18.7780 C   0  0  0  0  0  0  0  0  0  0  0  0
    5.4280   -4.0990   19.6910 O   0  0  0  0  0  0  0  0  0  0  0  0
    6.6250   -2.8620   21.1530 N   0  0  0  0  0  0  0  0  0  0  0  0
    7.7180   -1.8870   21.3250 C   0  0  1  0  0  0  0  0  0  0  0  0
    6.2270   -3.6390   22.3140 C   0  0  0  0  0  0  0  0  0  0  0  0
    7.1120   -0.5430   21.4320 N   0  0  0  0  0  0  0  0  0  0  0  0
    8.6800   -2.1350   22.5020 C   0  0  0  0  0  0  0  0  0  0  0  0
    7.4520   -4.2300   22.9820 C   0  0  0  0  0  0  0  0  0  0  0  0
    8.2990   -3.1650   23.4760 N   0  0  0  0  0  0  0  0  0  0  0  0
    6.4110    0.0950   20.3120 C   0  0  0  0  0  0  0  0  0  0  0  0
    8.3260   -2.8610   24.8250 C   0  0  0  0  0  0  0  0  0  0  0  0
    6.9800   -0.0270   18.8760 C   0  0  0  0  0  0  0  0  0  0  0  0
    5.0930    0.9190   20.4520 C   0  0  0  0  0  0  0  0  0  0  0  0
    8.1570   -1.7270   25.2410 O   0  0  0  0  0  0  0  0  0  0  0  0
    8.5490   -3.9650   25.7160 C   0  0  0  0  0  0  0  0  0  0  0  0
    6.4300    0.5260   17.8140 N   0  0  0  0  0  0  0  0  0  0  0  0
    4.5940    1.4540   19.2710 C   0  0  0  0  0  0  0  0  0  0  0  0
    9.3520   -5.0550   25.4590 C   0  0  0  0  0  0  0  0  0  0  0  0
    7.8120   -4.0630   27.2600 S   0  0  0  0  0  0  0  0  0  0  0  0
    5.2980    1.2410   17.9390 C   0  0  0  0  0  0  0  0  0  0  0  0
    9.3630   -5.9740   26.5350 C   0  0  0  0  0  0  0  0  0  0  0  0
    8.5710   -5.5600   27.5800 C   0  0  0  0  0  0  0  0  0  0  0  0
  1  2  1  0
  1  3  2  0
  1  4  1  0
  4  5  1  0
  4  6  1  0
  5  7  1  1
  5  8  1  0
  6  9  1  0
  8 10  1  0
  9 10  1  0
  7 11  1  0
 10 12  1  0
 11 13  2  0
 11 14  1  0
 12 15  2  0
 12 16  1  0
 13 17  1  0
 14 18  2  0
 16 19  2  0
 16 20  1  0
 17 21  2  0
 18 21  1  0
 19 22  1  0
 20 23  1  0
 22 23  2  0
M  END
