x1418_0-x0874_0-x0736_1-x1385_1-x1412_0-x0540_3-x0820_1-x0434_2-x1412_1
     RDKit          3D

 51 60  0  0  0  0  0  0  0  0999 V2000
    6.7120   -3.3030   19.7970 C   0  0  0  0  0  0  0  0  0  0  0  0
    7.4380   -2.5810   18.6710 C   0  0  0  0  0  0  0  0  0  0  0  0
    5.8860   -4.1690   19.5300 O   0  0  0  0  0  0  0  0  0  0  0  0
    6.9640   -2.9710   21.0810 C   0  0  1  0  0  0  0  0  0  0  0  0
    7.5420   -2.5260   22.4730 C   0  0  0  0  0  0  0  0  0  0  0  0
    7.7810   -1.8350   21.5330 C   0  0  1  0  0  0  0  0  0  0  0  0
    6.3070   -3.7040   22.1680 C   0  0  0  0  0  0  0  0  0  0  0  0
    7.3290   -0.6840   20.9150 N   0  0  0  0  0  0  0  0  0  0  0  0
    7.9190   -2.8400   23.7650 N   0  0  0  0  0  0  0  0  0  0  0  0
    8.6850   -2.1910   22.6980 C   0  0  1  0  0  0  0  0  0  0  0  0
    7.2810   -4.0600   23.2700 C   0  0  0  0  0  0  0  0  0  0  0  0
    6.7940   -3.8820   22.7190 C   0  0  0  0  0  0  0  0  0  0  0  0
    8.4350   -2.5230   24.8290 C   0  0  0  0  0  0  0  0  0  0  0  0
   10.0540   -2.6430   23.5460 C   0  0  2  0  0  0  0  0  0  0  0  0
    6.5630   -0.7410   21.4350 C   0  0  0  0  0  0  0  0  0  0  0  0
    6.4390   -4.2050   23.9830 C   0  0  0  0  0  0  0  0  0  0  0  0
    6.6490    0.0080   19.8530 C   0  0  0  0  0  0  0  0  0  0  0  0
    5.7960   -0.7980   21.9550 C   0  0  0  0  0  0  0  0  0  0  0  0
    8.3330   -1.3830   25.2750 O   0  0  0  0  0  0  0  0  0  0  0  0
    9.2450   -2.5830   24.1880 C   0  0  0  0  0  0  0  0  0  0  0  0
    6.8860   -4.2170   25.3580 C   0  0  0  0  0  0  0  0  0  0  0  0
    5.0990   -4.3650   23.7200 C   0  0  0  0  0  0  0  0  0  0  0  0
   11.0210   -1.5060   23.5860 C   0  0  0  0  0  0  0  0  0  0  0  0
    7.1890    0.0390   18.5790 C   0  0  0  0  0  0  0  0  0  0  0  0
    5.4460    0.6340   20.1390 C   0  0  0  0  0  0  0  0  0  0  0  0
    4.9500    0.2690   21.7230 C   0  0  2  0  0  0  0  0  0  0  0  0
    5.9160   -4.3990   26.3890 C   0  0  0  0  0  0  0  0  0  0  0  0
    4.1540   -4.5400   24.7490 C   0  0  0  0  0  0  0  0  0  0  0  0
    8.2410   -4.0590   25.7640 C   0  0  1  0  0  0  0  0  0  0  0  0
   12.1120   -1.2610   22.7430 C   0  0  0  0  0  0  0  0  0  0  0  0
   10.8900   -0.2770   24.7770 S   0  0  0  0  0  0  0  0  0  0  0  0
    6.5560    0.6700   17.6270 N   0  0  0  0  0  0  0  0  0  0  0  0
    4.8170    1.2970   19.0970 C   0  0  0  0  0  0  0  0  0  0  0  0
    5.2800    1.5020   22.5600 C   0  0  0  0  0  0  0  0  0  0  0  0
    4.5530   -4.5590   26.0430 C   0  0  0  0  0  0  0  0  0  0  0  0
    8.6000   -4.0860   27.0800 C   0  0  1  0  0  0  0  0  0  0  0  0
    6.3270   -4.4200   27.7430 C   0  0  0  0  0  0  0  0  0  0  0  0
    9.6190   -4.6380   25.4440 C   0  0  0  0  0  0  0  0  0  0  0  0
   12.1210    0.6380   24.0450 C   0  0  0  0  0  0  0  0  0  0  0  0
    5.4080    1.2680   17.8390 C   0  0  0  0  0  0  0  0  0  0  0  0
   11.0770   -0.4550   23.0860 C   0  0  1  0  0  0  0  0  0  0  0  0
    4.1480    2.3990   22.4820 N   0  0  0  0  0  0  0  0  0  0  0  0
    7.6330   -4.2720   28.0760 C   0  0  0  0  0  0  0  0  0  0  0  0
    9.4890   -5.6710   26.3930 C   0  0  0  0  0  0  0  0  0  0  0  0
    8.7150   -5.3290   27.4460 C   0  0  0  0  0  0  0  0  0  0  0  0
   12.7990   -0.0810   23.1240 C   0  0  0  0  0  0  0  0  0  0  0  0
   12.1110   -0.7950   22.4440 C   0  0  0  0  0  0  0  0  0  0  0  0
    3.0060    2.2640   23.3710 C   0  0  0  0  0  0  0  0  0  0  0  0
   13.1460   -1.1360   21.8020 S   0  0  0  0  0  0  0  0  0  0  0  0
   12.9730   -0.6080   22.4630 C   0  0  0  0  0  0  0  0  0  0  0  0
    2.9690    1.4200   24.2170 O   0  0  0  0  0  0  0  0  0  0  0  0
  1  2  1  0
  1  3  2  0
  4  1  1  6
  4  5  1  0
  4  6  1  0
  4  7  1  0
  6  8  1  1
  5  9  1  0
  6 10  1  0
 10  9  1  6
  5 11  2  0
  7 12  2  0
 11 12  1  0
  9 13  1  0
 10 14  1  0
  8 15  1  0
 11 16  1  0
  8 17  1  0
 15 18  1  0
 13 19  2  0
 13 20  1  0
 14 20  1  0
 16 21  1  0
 16 22  1  0
 14 23  1  1
 17 24  1  0
 17 25  2  0
 18 26  1  0
 25 26  1  0
 21 27  1  0
 22 28  1  0
 21 29  1  0
 23 30  1  0
 23 31  1  0
 24 32  2  0
 25 33  1  0
 26 34  1  1
 27 35  1  0
 28 35  2  0
 29 36  1  0
 27 37  1  0
 29 38  1  6
 31 39  2  0
 32 40  1  0
 33 40  2  0
 41 30  1  1
 34 42  1  0
 36 43  1  1
 37 43  2  0
 38 44  2  0
 36 45  1  0
 44 45  1  0
 39 46  1  0
 41 46  1  0
 41 47  1  0
 42 48  1  0
 47 49  2  0
 46 50  1  0
 49 50  2  0
 48 51  2  0
M  END
