x1412_1-x0831_0-x1386_1-x0770_1-x0397_0-x1385_1-x1334_0-x1374_1-x0434_2-x1334_1-x0692_1
     RDKit          3D

 39 43  0  0  0  0  0  0  0  0999 V2000
    2.6660   -7.3760   23.2370 O   0  0  0  0  0  0  0  0  0  0  0  0
    2.8910   -7.5750   24.6190 C   0  0  0  0  0  0  0  0  0  0  0  0
    4.2310   -7.9690   24.8430 O   0  0  0  0  0  0  0  0  0  0  0  0
    5.1500   -7.4030   23.9130 C   0  0  0  0  0  0  0  0  0  0  0  0
    5.8430   -6.4580   24.4900 C   0  0  0  0  0  0  0  0  0  0  0  0
    6.4660   -5.6990   23.3740 C   0  0  2  0  0  0  0  0  0  0  0  0
    5.7260   -4.6930   22.7000 C   0  0  2  0  0  0  0  0  0  0  0  0
    6.4360   -6.0250   21.9560 C   0  0  0  0  0  0  0  0  0  0  0  0
    6.5390   -3.3890   22.6030 C   0  0  2  0  0  0  0  0  0  0  0  0
    6.5670   -2.7230   21.3070 N   0  0  0  0  0  0  0  0  0  0  0  0
    7.8610   -3.6560   23.0000 C   0  0  0  0  0  0  0  0  0  0  0  0
    6.3920   -3.3090   20.0190 C   0  0  0  0  0  0  0  0  0  0  0  0
    8.6350   -2.4270   23.2800 N   0  0  0  0  0  0  0  0  0  0  0  0
    7.1180   -1.3880   21.5730 C   0  0  2  0  0  0  0  0  0  0  0  0
    7.3610   -3.0020   18.8860 C   0  0  0  0  0  0  0  0  0  0  0  0
    5.4700   -4.1180   19.7780 O   0  0  0  0  0  0  0  0  0  0  0  0
    9.9870   -2.5190   23.2850 C   0  0  2  0  0  0  0  0  0  0  0  0
    7.4640   -0.7480   20.3550 N   0  0  0  0  0  0  0  0  0  0  0  0
    8.4470   -1.3720   22.3190 C   0  0  0  0  0  0  0  0  0  0  0  0
   10.5530   -3.3670   24.3330 C   0  0  0  0  0  0  0  0  0  0  0  0
   10.6860   -1.1390   23.3800 C   0  0  0  0  0  0  0  0  0  0  0  0
    6.6080    0.0340   19.6510 C   0  0  0  0  0  0  0  0  0  0  0  0
   10.1290    0.0010   23.9590 C   0  0  0  0  0  0  0  0  0  0  0  0
   12.1300   -0.8670   22.8180 C   0  0  0  0  0  0  0  0  0  0  0  0
    9.6660   -4.0070   25.3540 C   0  0  0  0  0  0  0  0  0  0  0  0
    7.0010    0.2220   18.4210 C   0  0  0  0  0  0  0  0  0  0  0  0
    5.4260    0.5950   20.1610 C   0  0  0  0  0  0  0  0  0  0  0  0
   12.9030   -1.9500   22.1420 C   0  0  0  0  0  0  0  0  0  0  0  0
   10.7310    1.2590   24.0590 C   0  0  0  0  0  0  0  0  0  0  0  0
   12.7490    0.3590   22.9050 C   0  0  0  0  0  0  0  0  0  0  0  0
   10.1980   -5.1270   25.9510 C   0  0  0  0  0  0  0  0  0  0  0  0
    8.0830   -3.6610   26.0160 S   0  0  0  0  0  0  0  0  0  0  0  0
    6.2600    1.0320   17.4800 N   0  0  0  0  0  0  0  0  0  0  0  0
    4.5960    1.3980   19.3910 C   0  0  0  0  0  0  0  0  0  0  0  0
   11.9960    1.5100   23.5700 C   0  0  0  0  0  0  0  0  0  0  0  0
    9.3800   -5.6090   26.8850 C   0  0  0  0  0  0  0  0  0  0  0  0
    8.2120   -4.9690   27.0900 C   0  0  0  0  0  0  0  0  0  0  0  0
    5.0160    1.6580   17.9520 C   0  0  0  0  0  0  0  0  0  0  0  0
    6.9870   -5.3300   28.2320 Cl  0  0  0  0  0  0  0  0  0  0  0  0
  1  2  1  0
  2  3  1  0
  3  4  1  0
  4  5  1  0
  6  5  1  1
  6  7  1  0
  6  8  1  0
  7  8  1  6
  7  9  1  0
  9 10  1  0
  9 11  1  6
 10 12  1  0
 11 13  1  0
 10 14  1  0
 12 15  1  0
 12 16  2  0
 13 17  1  0
 14 18  1  6
 13 19  1  0
 14 19  1  0
 17 20  1  1
 17 21  1  0
 18 22  1  0
 21 23  2  0
 21 24  1  0
 20 25  1  0
 22 26  2  0
 22 27  1  0
 24 28  1  0
 23 29  1  0
 24 30  2  0
 25 31  2  0
 25 32  1  0
 26 33  1  0
 27 34  2  0
 29 35  2  0
 30 35  1  0
 31 36  1  0
 32 37  1  0
 36 37  2  0
 33 38  2  0
 34 38  1  0
 37 39  1  0
M  END
