x1418_1-x1334_0-x1375_1-x0426_1-x0397_0-x0692_1-x0831_1-x0770_1-x1334_1-x0831_0
     RDKit          3D

 42 47  0  0  0  0  0  0  0  0999 V2000
    2.4070   -6.8920   24.0880 O   0  0  0  0  0  0  0  0  0  0  0  0
    3.4150   -6.5720   25.0300 C   0  0  0  0  0  0  0  0  0  0  0  0
    4.5960   -7.2360   24.6300 O   0  0  0  0  0  0  0  0  0  0  0  0
    5.0450   -6.8340   23.3280 C   0  0  0  0  0  0  0  0  0  0  0  0
    5.9720   -5.6630   23.2580 C   0  0  2  0  0  0  0  0  0  0  0  0
    6.0100   -4.8970   22.0340 C   0  0  2  0  0  0  0  0  0  0  0  0
    7.1100   -5.9500   22.6670 C   0  0  0  0  0  0  0  0  0  0  0  0
    6.0680   -3.3750   22.2530 C   0  0  1  0  0  0  0  0  0  0  0  0
    6.7180   -2.8850   23.5890 C   0  0  0  0  0  0  0  0  0  0  0  0
    6.7480   -2.8520   21.0960 N   0  0  0  0  0  0  0  0  0  0  0  0
    6.3750   -3.3250   19.8500 C   0  0  0  0  0  0  0  0  0  0  0  0
    8.0610   -2.2520   23.4060 N   0  0  0  0  0  0  0  0  0  0  0  0
    7.1430   -1.4670   21.2400 C   0  0  1  0  0  0  0  0  0  0  0  0
    7.3470   -2.9870   18.7420 C   0  0  0  0  0  0  0  0  0  0  0  0
    5.3710   -4.0140   19.6670 O   0  0  0  0  0  0  0  0  0  0  0  0
    5.8350   -0.6200   21.3130 C   0  0  1  0  0  0  0  0  0  0  0  0
    9.0990   -3.2830   23.5470 C   0  0  1  0  0  0  0  0  0  0  0  0
    8.2680   -1.4170   22.2950 C   0  0  0  0  0  0  0  0  0  0  0  0
    5.7700    0.4680   22.4470 C   0  0  0  0  0  0  0  0  0  0  0  0
   10.4760   -2.7100   23.1590 C   0  0  0  0  0  0  0  0  0  0  0  0
    5.6180    0.1560   20.0600 C   0  0  0  0  0  0  0  0  0  0  0  0
    9.0250   -4.2010   24.7970 C   0  0  0  0  0  0  0  0  0  0  0  0
    4.3190    1.0760   22.5030 C   0  0  1  0  0  0  0  0  0  0  0  0
    4.5730    1.0880   19.9650 C   0  0  0  0  0  0  0  0  0  0  0  0
    6.4820   -0.0510   18.9580 C   0  0  0  0  0  0  0  0  0  0  0  0
    9.7000   -5.3390   25.1700 C   0  0  0  0  0  0  0  0  0  0  0  0
    7.8780   -3.8610   26.0690 S   0  0  0  0  0  0  0  0  0  0  0  0
   10.9410   -1.2700   23.3320 C   0  0  0  0  0  0  0  0  0  0  0  0
    4.2910    2.3230   23.2570 N   0  0  0  0  0  0  0  0  0  0  0  0
    3.6630    1.2980   21.1390 C   0  0  0  0  0  0  0  0  0  0  0  0
    4.3900    1.7950   18.8070 C   0  0  0  0  0  0  0  0  0  0  0  0
    6.4010    0.5790   17.7780 N   0  0  0  0  0  0  0  0  0  0  0  0
    9.3520   -5.9400   26.3600 C   0  0  0  0  0  0  0  0  0  0  0  0
    8.3380   -5.2270   26.9670 C   0  0  0  0  0  0  0  0  0  0  0  0
   10.2390   -0.3240   24.0690 C   0  0  0  0  0  0  0  0  0  0  0  0
   12.1380   -0.8390   22.7460 C   0  0  0  0  0  0  0  0  0  0  0  0
    7.5830   -5.6640   28.4900 Cl  0  0  0  0  0  0  0  0  0  0  0  0
   12.9890   -1.7520   21.9270 C   0  0  0  0  0  0  0  0  0  0  0  0
    5.3760    1.4970   17.6730 C   0  0  0  0  0  0  0  0  0  0  0  0
   10.6610    1.0030   24.2420 C   0  0  0  0  0  0  0  0  0  0  0  0
   12.5640    0.4690   22.9190 C   0  0  0  0  0  0  0  0  0  0  0  0
   11.8580    1.4000   23.6460 C   0  0  0  0  0  0  0  0  0  0  0  0
  1  2  1  0
  2  3  1  0
  3  4  1  0
  5  4  1  6
  5  6  1  0
  5  7  1  0
  6  7  1  1
  6  8  1  0
  8  9  1  1
  8 10  1  0
 10 11  1  0
  9 12  1  0
 10 13  1  0
 11 14  1  0
 11 15  2  0
 13 16  1  0
 12 17  1  0
 12 18  1  0
 13 18  1  1
 16 19  1  1
 17 20  1  1
 16 21  1  0
 17 22  1  0
 19 23  1  0
 21 24  2  0
 21 25  1  0
 22 26  2  0
 22 27  1  0
 20 28  1  0
 23 29  1  6
 23 30  1  0
 24 30  1  0
 24 31  1  0
 25 32  2  0
 26 33  1  0
 27 34  1  0
 33 34  2  0
 28 35  2  0
 28 36  1  0
 34 37  1  0
 36 38  1  0
 31 39  2  0
 32 39  1  0
 35 40  1  0
 36 41  2  0
 40 42  2  0
 41 42  1  0
M  END
