x1418_0-x1412_0-x0981_1-x0831_0-x0434_2-x1412_1
     RDKit          3D

 45 49  0  0  0  0  0  0  0  0999 V2000
    4.0940   -5.4480   23.3440 C   0  0  0  0  0  0  0  0  0  0  0  0
    2.7000   -6.0430   23.5250 C   0  0  1  0  0  0  0  0  0  0  0  0
    2.5470   -7.2520   22.7130 N   0  0  0  0  0  0  0  0  0  0  0  0
    4.4370   -4.2640   23.7300 N   0  0  0  0  0  0  0  0  0  0  0  0
    2.5280   -6.3380   25.0260 C   0  0  0  0  0  0  0  0  0  0  0  0
    5.7530   -3.6410   23.6150 C   0  0  0  0  0  0  0  0  0  0  0  0
    1.3370   -7.4850   22.0970 C   0  0  0  0  0  0  0  0  0  0  0  0
    3.0300   -7.7380   25.3060 C   0  0  0  0  0  0  0  0  0  0  0  0
    6.5380   -4.0880   22.3730 C   0  0  1  0  0  0  0  0  0  0  0  0
    1.2290   -8.7590   21.3040 C   0  0  0  0  0  0  0  0  0  0  0  0
    0.4010   -6.6920   22.1700 O   0  0  0  0  0  0  0  0  0  0  0  0
    2.4610   -8.4140   26.3370 N   0  0  0  0  0  0  0  0  0  0  0  0
    3.9160   -8.2010   24.6180 O   0  0  0  0  0  0  0  0  0  0  0  0
    6.5920   -3.0410   21.3640 N   0  0  0  0  0  0  0  0  0  0  0  0
    7.8390   -4.3250   22.7970 C   0  0  0  0  0  0  0  0  0  0  0  0
    6.3650   -3.4230   20.0070 C   0  0  0  0  0  0  0  0  0  0  0  0
    8.4770   -3.0160   23.3110 C   0  0  1  0  0  0  0  0  0  0  0  0
    7.0500   -1.7280   21.7830 C   0  0  2  0  0  0  0  0  0  0  0  0
    7.3100   -3.0310   18.8740 C   0  0  0  0  0  0  0  0  0  0  0  0
    5.3950   -4.1430   19.7450 O   0  0  0  0  0  0  0  0  0  0  0  0
    8.2370   -2.6990   24.8300 C   0  0  2  0  0  0  0  0  0  0  0  0
    9.8920   -3.0500   23.1710 C   0  0  0  0  0  0  0  0  0  0  0  0
    7.4100   -1.0450   20.5490 N   0  0  0  0  0  0  0  0  0  0  0  0
    8.1310   -1.6960   22.5610 C   0  0  0  0  0  0  0  0  0  0  0  0
    7.2190   -2.1160   25.2190 O   0  0  0  0  0  0  0  0  0  0  0  0
    9.9230   -1.6320   23.6780 C   0  0  1  0  0  0  0  0  0  0  0  0
    9.3300   -1.6480   25.0420 C   0  0  0  0  0  0  0  0  0  0  0  0
    8.4310   -3.8760   25.8060 C   0  0  0  0  0  0  0  0  0  0  0  0
    6.6200   -0.2580   19.8220 C   0  0  0  0  0  0  0  0  0  0  0  0
    9.2330   -4.9450   25.5110 C   0  0  0  0  0  0  0  0  0  0  0  0
    7.7440   -4.1240   27.4040 S   0  0  0  0  0  0  0  0  0  0  0  0
   10.8950   -0.5170   23.5140 C   0  0  0  0  0  0  0  0  0  0  0  0
    6.9800    0.0920   18.5470 C   0  0  0  0  0  0  0  0  0  0  0  0
    5.4030    0.2720   20.2520 C   0  0  0  0  0  0  0  0  0  0  0  0
    9.3280   -5.9020   26.4380 C   0  0  0  0  0  0  0  0  0  0  0  0
    8.5690   -5.6070   27.5470 C   0  0  0  0  0  0  0  0  0  0  0  0
   10.5350    0.8150   24.0040 C   0  0  0  0  0  0  0  0  0  0  0  0
   12.1130   -0.7330   22.8950 C   0  0  0  0  0  0  0  0  0  0  0  0
    6.2980    0.8780   17.6920 N   0  0  0  0  0  0  0  0  0  0  0  0
    4.6700    1.0770   19.4090 C   0  0  0  0  0  0  0  0  0  0  0  0
   12.5440   -2.0620   22.3690 C   0  0  0  0  0  0  0  0  0  0  0  0
   11.3330    1.8570   23.8710 C   0  0  0  0  0  0  0  0  0  0  0  0
   12.9790    0.3040   22.7370 C   0  0  0  0  0  0  0  0  0  0  0  0
    5.1290    1.3720   18.1350 C   0  0  0  0  0  0  0  0  0  0  0  0
   12.6820    1.7030   23.1970 C   0  0  0  0  0  0  0  0  0  0  0  0
  2  1  1  1
  2  3  1  0
  1  4  2  3
  2  5  1  0
  4  6  1  0
  3  7  1  0
  5  8  1  0
  9  6  1  1
  7 10  1  0
  7 11  2  0
  8 12  1  0
  8 13  2  0
  9 14  1  0
  9 15  1  0
 14 16  1  0
 17 15  1  6
 14 18  1  0
 16 19  1  0
 16 20  2  0
 17 21  1  0
 17 22  1  0
 18 23  1  6
 17 24  1  0
 18 24  1  0
 21 25  1  6
 22 26  1  0
 21 27  1  0
 26 27  1  0
 21 28  1  0
 23 29  1  0
 28 30  2  0
 28 31  1  0
 26 32  1  1
 29 33  2  0
 29 34  1  0
 30 35  1  0
 31 36  1  0
 35 36  2  0
 32 37  2  0
 32 38  1  0
 33 39  1  0
 34 40  2  0
 38 41  1  0
 37 42  1  0
 38 43  2  0
 39 44  2  0
 40 44  1  0
 42 45  2  0
 43 45  1  0
M  END
