x1412_1-x0397_0-x1374_1-x1385_1-x0692_1-x0831_0-x0434_2-x1334_1-x1386_1-x1418_1-x0770_1
     RDKit          3D

 32 35  0  0  0  0  0  0  0  0999 V2000
    2.2680   -7.6660   23.2800 O   0  0  0  0  0  0  0  0  0  0  0  0
    2.3910   -8.0390   24.6360 C   0  0  0  0  0  0  0  0  0  0  0  0
    3.7500   -7.9600   25.0090 O   0  0  0  0  0  0  0  0  0  0  0  0
    4.4610   -7.2490   24.0200 C   0  0  0  0  0  0  0  0  0  0  0  0
    5.0320   -5.8990   24.5780 C   0  0  0  0  0  0  0  0  0  0  0  0
    6.1640   -5.6720   23.6310 C   0  0  2  0  0  0  0  0  0  0  0  0
    6.0290   -4.8150   22.4810 C   0  0  2  0  0  0  0  0  0  0  0  0
    6.2310   -6.4290   22.3360 C   0  0  0  0  0  0  0  0  0  0  0  0
    7.1780   -3.9170   22.1480 C   0  0  1  0  0  0  0  0  0  0  0  0
    6.6540   -2.8340   21.3050 N   0  0  0  0  0  0  0  0  0  0  0  0
    7.9210   -3.5660   23.4660 C   0  0  0  0  0  0  0  0  0  0  0  0
    6.3980   -3.2820   19.9720 C   0  0  0  0  0  0  0  0  0  0  0  0
    8.8060   -2.5140   23.3930 N   0  0  0  0  0  0  0  0  0  0  0  0
    7.4240   -1.6200   21.5700 C   0  0  2  0  0  0  0  0  0  0  0  0
    7.3240   -2.9320   18.8060 C   0  0  0  0  0  0  0  0  0  0  0  0
    5.4360   -4.0420   19.7300 O   0  0  0  0  0  0  0  0  0  0  0  0
   10.1250   -2.5940   23.7530 C   0  0  0  0  0  0  0  0  0  0  0  0
    7.6100   -0.7370   20.4330 N   0  0  0  0  0  0  0  0  0  0  0  0
    8.8080   -2.0100   22.0600 C   0  0  0  0  0  0  0  0  0  0  0  0
   10.7330   -1.2310   23.7200 C   0  0  0  0  0  0  0  0  0  0  0  0
    6.6210   -0.0200   19.8180 C   0  0  0  0  0  0  0  0  0  0  0  0
   10.2350   -0.1070   24.2410 C   0  0  0  0  0  0  0  0  0  0  0  0
   12.1090   -1.0100   22.9890 C   0  0  0  0  0  0  0  0  0  0  0  0
    7.0010    0.3220   18.4130 C   0  0  0  0  0  0  0  0  0  0  0  0
    5.3860    0.3960   20.3340 C   0  0  0  0  0  0  0  0  0  0  0  0
   12.8080   -2.1570   22.3330 C   0  0  0  0  0  0  0  0  0  0  0  0
   10.7810    1.3020   24.2250 C   0  0  0  0  0  0  0  0  0  0  0  0
   12.8540    0.3550   22.8660 C   0  0  0  0  0  0  0  0  0  0  0  0
    6.2420    1.0200   17.5680 N   0  0  0  0  0  0  0  0  0  0  0  0
    4.5920    1.1220   19.4750 C   0  0  0  0  0  0  0  0  0  0  0  0
   12.1870    1.5720   23.4920 C   0  0  0  0  0  0  0  0  0  0  0  0
    5.0730    1.4320   18.0370 C   0  0  0  0  0  0  0  0  0  0  0  0
  1  2  1  0
  2  3  1  0
  3  4  1  0
  4  5  1  0
  6  5  1  1
  6  7  1  0
  6  8  1  0
  7  8  1  6
  7  9  1  0
  9 10  1  0
  9 11  1  1
 10 12  1  0
 11 13  1  0
 10 14  1  0
 12 15  1  0
 12 16  2  0
 13 17  1  0
 14 18  1  6
 13 19  1  0
 14 19  1  0
 17 20  1  0
 18 21  1  0
 20 22  2  0
 20 23  1  0
 21 24  2  0
 21 25  1  0
 23 26  1  0
 22 27  1  0
 23 28  2  0
 24 29  1  0
 25 30  2  0
 27 31  2  0
 28 31  1  0
 29 32  2  0
 30 32  1  0
M  END
