x1412_1-x1385_1-x0434_2-x0831_1-x1334_0-x1374_1-x0770_1-x1334_1-x1418_1-x0692_1-x0397_0-x1386_1-x0831_0
     RDKit          3D

 39 43  0  0  0  0  0  0  0  0999 V2000
    2.1640   -7.7660   23.3180 O   0  0  0  0  0  0  0  0  0  0  0  0
    2.4150   -8.0780   24.6730 C   0  0  0  0  0  0  0  0  0  0  0  0
    3.7950   -7.9820   24.9240 O   0  0  0  0  0  0  0  0  0  0  0  0
    4.4080   -7.2960   23.8420 C   0  0  0  0  0  0  0  0  0  0  0  0
    4.7720   -5.9460   24.2820 C   0  0  0  0  0  0  0  0  0  0  0  0
    5.7940   -5.5150   23.2830 C   0  0  2  0  0  0  0  0  0  0  0  0
    5.5090   -4.5470   22.3850 C   0  0  2  0  0  0  0  0  0  0  0  0
    5.8720   -5.9780   21.8630 C   0  0  0  0  0  0  0  0  0  0  0  0
    6.4280   -3.3840   22.3960 C   0  0  2  0  0  0  0  0  0  0  0  0
    6.6410   -2.6970   21.1260 N   0  0  0  0  0  0  0  0  0  0  0  0
    7.7870   -3.8150   23.0710 C   0  0  0  0  0  0  0  0  0  0  0  0
    6.4140   -3.3490   19.9140 C   0  0  0  0  0  0  0  0  0  0  0  0
    8.4930   -2.6270   23.3930 N   0  0  0  0  0  0  0  0  0  0  0  0
    7.7480   -1.6740   21.1700 C   0  0  1  0  0  0  0  0  0  0  0  0
    7.3620   -3.0460   18.7780 C   0  0  0  0  0  0  0  0  0  0  0  0
    5.4860   -4.1690   19.7560 O   0  0  0  0  0  0  0  0  0  0  0  0
    9.3500   -2.6790   24.4340 C   0  0  2  0  0  0  0  0  0  0  0  0
    7.1490   -0.3480   21.3750 N   0  0  0  0  0  0  0  0  0  0  0  0
    8.9050   -1.9460   22.1760 C   0  0  0  0  0  0  0  0  0  0  0  0
   10.7690   -2.6550   23.9800 C   0  0  0  0  0  0  0  0  0  0  0  0
    9.1270   -3.8710   25.3560 C   0  0  0  0  0  0  0  0  0  0  0  0
    6.4960    0.2170   20.2750 C   0  0  0  0  0  0  0  0  0  0  0  0
    9.8250   -5.0550   25.3690 C   0  0  0  0  0  0  0  0  0  0  0  0
    7.8470   -3.8530   26.6040 S   0  0  0  0  0  0  0  0  0  0  0  0
   11.1930   -1.2240   23.8230 C   0  0  0  0  0  0  0  0  0  0  0  0
    6.9600    0.0530   18.8380 C   0  0  0  0  0  0  0  0  0  0  0  0
    5.3540    0.9750   20.5210 C   0  0  0  0  0  0  0  0  0  0  0  0
    9.3510   -6.0060   26.4110 C   0  0  0  0  0  0  0  0  0  0  0  0
    8.1960   -5.4250   27.2070 C   0  0  0  0  0  0  0  0  0  0  0  0
   10.4100    0.0000   24.4510 C   0  0  0  0  0  0  0  0  0  0  0  0
   12.4430   -0.8020   23.0250 C   0  0  0  0  0  0  0  0  0  0  0  0
    6.2800    0.6650   17.6420 N   0  0  0  0  0  0  0  0  0  0  0  0
    4.6920    1.5760   19.2780 C   0  0  0  0  0  0  0  0  0  0  0  0
    7.2790   -6.0590   28.4950 Cl  0  0  0  0  0  0  0  0  0  0  0  0
   13.1990   -1.9180   22.3930 C   0  0  0  0  0  0  0  0  0  0  0  0
   10.9600    1.2800   24.1960 C   0  0  0  0  0  0  0  0  0  0  0  0
   12.8670    0.5410   22.8800 C   0  0  0  0  0  0  0  0  0  0  0  0
    5.1910    1.3970   17.8870 C   0  0  0  0  0  0  0  0  0  0  0  0
   12.0730    1.4350   23.4810 C   0  0  0  0  0  0  0  0  0  0  0  0
  1  2  1  0
  2  3  1  0
  3  4  1  0
  4  5  1  0
  6  5  1  1
  6  7  1  0
  6  8  1  0
  7  8  1  6
  7  9  1  0
  9 10  1  0
  9 11  1  6
 10 12  1  0
 11 13  1  0
 10 14  1  0
 12 15  1  0
 12 16  2  0
 13 17  1  0
 14 18  1  1
 13 19  1  0
 14 19  1  0
 17 20  1  6
 17 21  1  0
 18 22  1  0
 21 23  2  0
 21 24  1  0
 20 25  1  0
 22 26  2  0
 22 27  1  0
 23 28  1  0
 24 29  1  0
 28 29  2  0
 25 30  2  0
 25 31  1  0
 26 32  1  0
 27 33  2  0
 29 34  1  0
 31 35  1  0
 30 36  1  0
 31 37  2  0
 32 38  2  0
 33 38  1  0
 36 39  2  0
 37 39  1  0
M  END
