x1418_1-x1374_1-x0831_1-x1334_0-x1386_1-x1375_1-x0692_1-x1385_1-x0434_2-x1334_1-x0426_1-x0770_1-x0397_0-x0831_0
     RDKit          3D

 43 48  0  0  0  0  0  0  0  0999 V2000
    2.2500   -7.6990   23.2630 O   0  0  0  0  0  0  0  0  0  0  0  0
    2.5270   -7.9850   24.6180 C   0  0  0  0  0  0  0  0  0  0  0  0
    3.9160   -7.9320   24.8470 O   0  0  0  0  0  0  0  0  0  0  0  0
    4.5540   -7.1460   23.8410 C   0  0  0  0  0  0  0  0  0  0  0  0
    5.0950   -5.9740   24.2980 C   0  0  0  0  0  0  0  0  0  0  0  0
    6.1150   -5.5420   23.2940 C   0  0  2  0  0  0  0  0  0  0  0  0
    5.8410   -4.7090   22.1300 C   0  0  2  0  0  0  0  0  0  0  0  0
    6.1180   -6.1780   21.9940 C   0  0  0  0  0  0  0  0  0  0  0  0
    6.9440   -3.6460   22.0890 C   0  0  2  0  0  0  0  0  0  0  0  0
    7.0800   -2.9350   23.4310 C   0  0  0  0  0  0  0  0  0  0  0  0
    6.6080   -2.6730   21.0930 N   0  0  0  0  0  0  0  0  0  0  0  0
    6.3650   -3.2360   19.8420 C   0  0  0  0  0  0  0  0  0  0  0  0
    8.2850   -2.1090   23.4380 N   0  0  0  0  0  0  0  0  0  0  0  0
    7.4300   -1.4370   21.2290 C   0  0  1  0  0  0  0  0  0  0  0  0
    7.3370   -2.9820   18.7110 C   0  0  0  0  0  0  0  0  0  0  0  0
    5.3980   -3.9930   19.6530 O   0  0  0  0  0  0  0  0  0  0  0  0
    6.7770   -0.0590   21.4740 C   0  0  2  0  0  0  0  0  0  0  0  0
    9.3000   -2.5240   24.4310 C   0  0  2  0  0  0  0  0  0  0  0  0
    8.6180   -1.6340   22.0410 C   0  0  0  0  0  0  0  0  0  0  0  0
    5.5410   -0.0520   22.4490 C   0  0  0  0  0  0  0  0  0  0  0  0
   10.6700   -2.5700   23.7450 C   0  0  0  0  0  0  0  0  0  0  0  0
    6.2430    0.4660   20.1510 C   0  0  0  0  0  0  0  0  0  0  0  0
    9.0150   -3.6960   25.3700 C   0  0  0  0  0  0  0  0  0  0  0  0
    4.8310    1.3490   22.6230 C   0  0  2  0  0  0  0  0  0  0  0  0
    5.0180    1.2830   20.1380 C   0  0  0  0  0  0  0  0  0  0  0  0
    6.9270    0.1750   18.8400 C   0  0  0  0  0  0  0  0  0  0  0  0
    9.7570   -4.8730   25.3340 C   0  0  0  0  0  0  0  0  0  0  0  0
    7.8120   -3.7790   26.5880 S   0  0  0  0  0  0  0  0  0  0  0  0
   11.1950   -1.1550   23.6370 C   0  0  0  0  0  0  0  0  0  0  0  0
    3.8640    1.4130   23.6980 N   0  0  0  0  0  0  0  0  0  0  0  0
    4.1720    1.6750   21.2980 C   0  0  0  0  0  0  0  0  0  0  0  0
    4.5940    1.7660   18.8120 C   0  0  0  0  0  0  0  0  0  0  0  0
    6.3350    0.7540   17.6470 N   0  0  0  0  0  0  0  0  0  0  0  0
    9.3650   -5.8070   26.2720 C   0  0  0  0  0  0  0  0  0  0  0  0
    8.2920   -5.3380   27.0530 C   0  0  0  0  0  0  0  0  0  0  0  0
   10.4270   -0.0180   24.3200 C   0  0  0  0  0  0  0  0  0  0  0  0
   12.3510   -0.8710   22.9320 C   0  0  0  0  0  0  0  0  0  0  0  0
    7.4420   -6.0730   28.3390 Cl  0  0  0  0  0  0  0  0  0  0  0  0
   13.1180   -1.9360   22.2350 C   0  0  0  0  0  0  0  0  0  0  0  0
    5.2070    1.5280   17.6600 C   0  0  0  0  0  0  0  0  0  0  0  0
   10.9550    1.2680   24.1840 C   0  0  0  0  0  0  0  0  0  0  0  0
   12.8110    0.4390   22.8620 C   0  0  0  0  0  0  0  0  0  0  0  0
   12.1270    1.4760   23.4700 C   0  0  0  0  0  0  0  0  0  0  0  0
  1  2  1  0
  2  3  1  0
  3  4  1  0
  4  5  1  0
  6  5  1  1
  6  7  1  0
  6  8  1  0
  7  8  1  6
  7  9  1  0
  9 10  1  1
  9 11  1  0
 11 12  1  0
 10 13  1  0
 11 14  1  0
 12 15  1  0
 12 16  2  0
 14 17  1  0
 13 18  1  0
 13 19  1  0
 14 19  1  1
 17 20  1  1
 18 21  1  6
 17 22  1  0
 18 23  1  0
 20 24  1  0
 22 25  2  0
 22 26  1  0
 23 27  2  0
 23 28  1  0
 21 29  1  0
 24 30  1  1
 24 31  1  0
 25 31  1  0
 25 32  1  0
 26 33  2  0
 27 34  1  0
 28 35  1  0
 34 35  2  0
 29 36  2  0
 29 37  1  0
 35 38  1  0
 37 39  1  0
 32 40  2  0
 33 40  1  0
 36 41  1  0
 37 42  2  0
 41 43  2  0
 42 43  1  0
M  END
