x1412_0-x0691_0-x1386_0
     RDKit          3D

 23 25  0  0  0  0  0  0  0  0999 V2000
    6.4090   -4.4330   20.6130 C   0  0  0  0  0  0  0  0  0  0  0  0
    7.4120   -3.4410   19.9820 C   0  0  0  0  0  0  0  0  0  0  0  0
    5.3780   -4.6740   19.9710 O   0  0  0  0  0  0  0  0  0  0  0  0
    6.6130   -5.1110   21.8340 N   0  0  0  0  0  0  0  0  0  0  0  0
    5.8480   -6.3420   22.0390 C   0  0  0  0  0  0  0  0  0  0  0  0
    7.1320   -4.5890   23.1360 C   0  0  1  0  0  0  0  0  0  0  0  0
    8.0400   -3.3310   23.0190 C   0  0  0  0  0  0  0  0  0  0  0  0
    4.7440   -6.1520   23.1100 C   0  0  0  0  0  0  0  0  0  0  0  0
    6.1030   -4.3360   24.0320 C   0  0  0  0  0  0  0  0  0  0  0  0
    8.9120   -2.9290   24.2720 C   0  0  2  0  0  0  0  0  0  0  0  0
    5.2300   -5.4800   24.3260 N   0  0  0  0  0  0  0  0  0  0  0  0
    8.5500   -1.8080   24.6630 O   0  0  0  0  0  0  0  0  0  0  0  0
   10.3450   -2.9120   23.8030 C   0  0  0  0  0  0  0  0  0  0  0  0
    8.8110   -3.9250   25.4040 C   0  0  0  0  0  0  0  0  0  0  0  0
    9.5420   -5.0900   25.4440 C   0  0  0  0  0  0  0  0  0  0  0  0
    7.8090   -3.7960   26.8240 S   0  0  0  0  0  0  0  0  0  0  0  0
   11.1200   -1.6200   23.6920 C   0  0  0  0  0  0  0  0  0  0  0  0
    9.3520   -5.8510   26.5090 C   0  0  0  0  0  0  0  0  0  0  0  0
    8.3540   -5.2890   27.4980 C   0  0  0  0  0  0  0  0  0  0  0  0
   12.3370   -1.4510   22.7470 C   0  0  0  0  0  0  0  0  0  0  0  0
   10.9220   -0.4210   24.3550 C   0  0  0  0  0  0  0  0  0  0  0  0
   12.9040   -0.2140   22.7860 C   0  0  0  0  0  0  0  0  0  0  0  0
   12.0670    0.7810   23.8890 S   0  0  0  0  0  0  0  0  0  0  0  0
  1  2  1  0
  1  3  2  0
  1  4  1  0
  4  5  1  0
  4  6  1  0
  6  7  1  6
  5  8  1  0
  6  9  1  0
  7 10  1  0
  8 11  1  0
  9 11  1  0
 10 12  1  1
 10 13  1  0
 10 14  1  0
 14 15  2  0
 14 16  1  0
 13 17  1  0
 15 18  1  0
 16 19  1  0
 18 19  2  0
 17 20  1  0
 17 21  2  0
 20 22  2  0
 21 23  1  0
 22 23  1  0
M  END
