x1412_1-x0874_0-x0981_1
     RDKit          3D

 27 28  0  0  0  0  0  0  0  0999 V2000
    3.9880   -5.2500   23.2270 C   0  0  0  0  0  0  0  0  0  0  0  0
    2.7080   -6.0230   23.5650 C   0  0  1  0  0  0  0  0  0  0  0  0
    2.4970   -7.2840   22.8320 N   0  0  0  0  0  0  0  0  0  0  0  0
    4.2110   -4.0260   23.6110 N   0  0  0  0  0  0  0  0  0  0  0  0
    2.7210   -6.2820   25.0720 C   0  0  0  0  0  0  0  0  0  0  0  0
    5.3740   -3.1800   23.3340 C   0  0  0  0  0  0  0  0  0  0  0  0
    1.3270   -7.4660   22.1170 C   0  0  0  0  0  0  0  0  0  0  0  0
    3.1290   -7.7010   25.2980 C   0  0  0  0  0  0  0  0  0  0  0  0
    6.4150   -3.8660   22.4270 C   0  0  1  0  0  0  0  0  0  0  0  0
    1.2490   -8.7440   21.3220 C   0  0  0  0  0  0  0  0  0  0  0  0
    0.4180   -6.6460   22.1150 O   0  0  0  0  0  0  0  0  0  0  0  0
    2.4740   -8.3740   26.2870 N   0  0  0  0  0  0  0  0  0  0  0  0
    4.0030   -8.1960   24.6230 O   0  0  0  0  0  0  0  0  0  0  0  0
    6.7210   -2.9570   21.2710 N   0  0  0  0  0  0  0  0  0  0  0  0
    7.5620   -4.1770   23.2340 C   0  0  0  0  0  0  0  0  0  0  0  0
    6.4300   -3.3920   19.9600 C   0  0  0  0  0  0  0  0  0  0  0  0
    8.3380   -2.9480   23.4870 N   0  0  0  0  0  0  0  0  0  0  0  0
    7.8090   -1.9510   21.4740 C   0  0  0  0  0  0  0  0  0  0  0  0
    7.3950   -2.9910   18.8470 C   0  0  0  0  0  0  0  0  0  0  0  0
    5.4460   -4.1090   19.7420 O   0  0  0  0  0  0  0  0  0  0  0  0
    8.8560   -2.6760   22.1510 C   0  0  1  0  0  0  0  0  0  0  0  0
   10.2010   -2.2700   22.2220 C   0  0  0  0  0  0  0  0  0  0  0  0
   10.6250   -1.0070   22.6630 C   0  0  0  0  0  0  0  0  0  0  0  0
   11.3530    0.1930   23.0300 C   0  0  0  0  0  0  0  0  0  0  0  0
   11.7790   -1.6880   22.1960 C   0  0  0  0  0  0  0  0  0  0  0  0
   12.7310    0.2970   22.8480 C   0  0  0  0  0  0  0  0  0  0  0  0
   13.3160   -1.0940   22.1850 S   0  0  0  0  0  0  0  0  0  0  0  0
  2  1  1  6
  2  3  1  0
  1  4  2  3
  2  5  1  0
  4  6  1  0
  3  7  1  0
  5  8  1  0
  9  6  1  1
  7 10  1  0
  7 11  2  0
  8 12  1  0
  8 13  2  0
  9 14  1  0
  9 15  1  0
 14 16  1  0
 15 17  1  0
 14 18  1  0
 16 19  1  0
 16 20  2  0
 17 21  1  0
 18 21  1  0
 21 22  1  1
 22 23  1  0
 23 24  1  0
 23 25  2  0
 24 26  2  0
 25 27  1  0
 26 27  1  0
M  END
