x1412_1-x0874_0-x0736_1-x1412_0
     RDKit          3D

 23 25  0  0  0  0  0  0  0  0999 V2000
    6.3080   -3.3130   19.8520 C   0  0  0  0  0  0  0  0  0  0  0  0
    7.3390   -3.0180   18.7670 C   0  0  0  0  0  0  0  0  0  0  0  0
    5.3320   -4.0360   19.6340 O   0  0  0  0  0  0  0  0  0  0  0  0
    6.4830   -2.8030   21.1130 N   0  0  0  0  0  0  0  0  0  0  0  0
    7.5270   -1.7600   21.2810 C   0  0  0  0  0  0  0  0  0  0  0  0
    6.1000   -3.5980   22.3040 C   0  0  0  0  0  0  0  0  0  0  0  0
    8.6040   -2.2720   22.2490 C   0  0  0  0  0  0  0  0  0  0  0  0
    7.2240   -4.0550   22.9590 C   0  0  0  0  0  0  0  0  0  0  0  0
    7.9660   -2.9030   23.4160 N   0  0  0  0  0  0  0  0  0  0  0  0
    8.4670   -2.9160   24.7370 C   0  0  0  0  0  0  0  0  0  0  0  0
    8.7700   -1.7150   25.0700 N   0  0  0  0  0  0  0  0  0  0  0  0
    8.6480   -4.0040   25.6720 C   0  0  0  0  0  0  0  0  0  0  0  0
    8.5840   -0.7100   24.1520 C   0  0  0  0  0  0  0  0  0  0  0  0
    9.4190   -5.1320   25.5210 C   0  0  0  0  0  0  0  0  0  0  0  0
    7.8580   -4.0440   27.2070 S   0  0  0  0  0  0  0  0  0  0  0  0
    9.7750    0.2310   24.0520 C   0  0  0  0  0  0  0  0  0  0  0  0
    9.3870   -6.0190   26.6100 C   0  0  0  0  0  0  0  0  0  0  0  0
    8.5710   -5.5490   27.6110 C   0  0  0  0  0  0  0  0  0  0  0  0
   10.9880   -0.3220   23.2740 C   0  0  0  0  0  0  0  0  0  0  0  0
   12.2040    0.5830   23.3330 C   0  0  0  0  0  0  0  0  0  0  0  0
   11.3260   -1.4440   22.5050 C   0  0  0  0  0  0  0  0  0  0  0  0
   13.3050    0.1420   22.6680 C   0  0  0  0  0  0  0  0  0  0  0  0
   12.9730   -1.3820   21.9350 S   0  0  0  0  0  0  0  0  0  0  0  0
  1  2  1  0
  1  3  2  0
  1  4  1  0
  4  5  1  0
  4  6  1  0
  5  7  1  0
  6  8  1  0
  7  9  1  0
  8  9  1  0
  9 10  1  0
 10 11  2  3
 10 12  1  0
 11 13  1  0
 12 14  2  0
 12 15  1  0
 13 16  1  0
 14 17  1  0
 15 18  1  0
 17 18  2  0
 16 19  1  0
 19 20  1  0
 19 21  2  0
 20 22  2  0
 21 23  1  0
 22 23  1  0
M  END
