x1418_1-x0831_1-x0874_0-x0387_0-x1412_0
     RDKit          3D

 22 24  0  0  0  0  0  0  0  0999 V2000
    6.3680   -3.2360   19.8920 C   0  0  0  0  0  0  0  0  0  0  0  0
    7.3110   -2.9610   18.7280 C   0  0  0  0  0  0  0  0  0  0  0  0
    5.4410   -4.0560   19.7290 O   0  0  0  0  0  0  0  0  0  0  0  0
    6.6080   -2.5780   21.1010 N   0  0  0  0  0  0  0  0  0  0  0  0
    6.3740   -3.2060   22.3920 C   0  0  0  0  0  0  0  0  0  0  0  0
    7.5830   -1.4770   21.2200 C   0  0  0  0  0  0  0  0  0  0  0  0
    7.6800   -3.7900   22.9320 C   0  0  0  0  0  0  0  0  0  0  0  0
    8.8590   -1.7910   22.0640 C   0  0  0  0  0  0  0  0  0  0  0  0
    8.7520   -2.7960   23.1780 N   0  0  0  0  0  0  0  0  0  0  0  0
    8.7470   -2.3000   24.5050 C   0  0  2  0  0  0  0  0  0  0  0  0
    7.9020   -1.4340   24.7370 O   0  0  0  0  0  0  0  0  0  0  0  0
    9.9830   -1.4240   24.8530 C   0  0  0  0  0  0  0  0  0  0  0  0
    8.7310   -3.5100   25.5160 C   0  0  0  0  0  0  0  0  0  0  0  0
    9.7520   -4.4900   25.4630 C   0  0  0  0  0  0  0  0  0  0  0  0
    7.5820   -3.8460   26.7680 S   0  0  0  0  0  0  0  0  0  0  0  0
   11.1220   -1.2190   23.9190 C   0  0  0  0  0  0  0  0  0  0  0  0
    9.5000   -5.4150   26.4280 C   0  0  0  0  0  0  0  0  0  0  0  0
    8.4300   -5.2610   27.2120 C   0  0  0  0  0  0  0  0  0  0  0  0
   12.0280    0.0000   23.9160 C   0  0  0  0  0  0  0  0  0  0  0  0
   11.5810   -2.0760   22.8980 C   0  0  0  0  0  0  0  0  0  0  0  0
   13.1230   -0.0660   22.8550 C   0  0  0  0  0  0  0  0  0  0  0  0
   12.9680   -1.5290   21.9950 S   0  0  0  0  0  0  0  0  0  0  0  0
  1  2  1  0
  1  3  2  0
  1  4  1  0
  4  5  1  0
  4  6  1  0
  5  7  1  0
  6  8  1  0
  7  9  1  0
  8  9  1  0
  9 10  1  0
 10 11  1  6
 10 12  1  0
 10 13  1  0
 13 14  2  0
 13 15  1  0
 12 16  1  0
 14 17  1  0
 15 18  1  0
 17 18  2  0
 16 19  1  0
 16 20  2  0
 19 21  2  0
 20 22  1  0
 21 22  1  0
M  END
