x1412_1-x0397_0-x0689_0-x0831_0
     RDKit          3D

 29 32  0  0  0  0  0  0  0  0999 V2000
    6.3400   -3.3320   19.8970 C   0  0  0  0  0  0  0  0  0  0  0  0
    7.3230   -2.9920   18.7920 C   0  0  0  0  0  0  0  0  0  0  0  0
    5.3800   -4.0840   19.7090 O   0  0  0  0  0  0  0  0  0  0  0  0
    6.5940   -2.7710   21.1490 N   0  0  0  0  0  0  0  0  0  0  0  0
    7.3050   -1.5040   21.2090 C   0  0  0  0  0  0  0  0  0  0  0  0
    6.6200   -3.5530   22.3780 C   0  0  2  0  0  0  0  0  0  0  0  0
    8.6680   -1.6160   21.8610 C   0  0  0  0  0  0  0  0  0  0  0  0
    7.8790   -3.6920   22.8800 C   0  0  0  0  0  0  0  0  0  0  0  0
    5.8480   -4.8460   22.1930 C   0  0  2  0  0  0  0  0  0  0  0  0
    8.6690   -2.4540   23.0540 N   0  0  0  0  0  0  0  0  0  0  0  0
    5.5820   -5.5950   23.3260 C   0  0  1  0  0  0  0  0  0  0  0  0
    6.4540   -6.2410   22.4240 C   0  0  0  0  0  0  0  0  0  0  0  0
    5.9470   -4.9700   24.6220 C   0  0  0  0  0  0  0  0  0  0  0  0
   10.0340   -2.5540   23.5610 C   0  0  0  0  0  0  0  0  0  0  0  0
    4.7380   -5.2280   25.9390 S   0  0  0  0  0  0  0  0  0  0  0  0
   10.7750   -1.2110   23.5620 C   0  0  0  0  0  0  0  0  0  0  0  0
    4.0400   -6.4770   25.7470 O   0  0  0  0  0  0  0  0  0  0  0  0
    5.4060   -4.9560   27.1900 O   0  0  0  0  0  0  0  0  0  0  0  0
    3.5800   -4.0050   25.7300 C   0  0  0  0  0  0  0  0  0  0  0  0
   10.1210   -0.0510   24.2770 C   0  0  0  0  0  0  0  0  0  0  0  0
   12.0220   -0.9980   22.9220 C   0  0  0  0  0  0  0  0  0  0  0  0
   12.7170   -2.1050   22.1880 C   0  0  0  0  0  0  0  0  0  0  0  0
    4.0430   -2.3470   26.0010 S   0  0  0  0  0  0  0  0  0  0  0  0
    2.2420   -4.0550   25.3740 C   0  0  0  0  0  0  0  0  0  0  0  0
   10.8890    1.2170   24.2090 C   0  0  0  0  0  0  0  0  0  0  0  0
   12.6870    0.2460   22.9180 C   0  0  0  0  0  0  0  0  0  0  0  0
    2.4680   -1.7410   25.6520 C   0  0  0  0  0  0  0  0  0  0  0  0
    1.6230   -2.8260   25.3310 C   0  0  0  0  0  0  0  0  0  0  0  0
   12.1490    1.3770   23.5470 C   0  0  0  0  0  0  0  0  0  0  0  0
  1  2  1  0
  1  3  2  0
  1  4  1  0
  4  5  1  0
  4  6  1  0
  5  7  1  0
  6  8  1  6
  6  9  1  0
  7 10  1  0
  8 10  1  0
  9 11  1  0
  9 12  1  6
 11 12  1  0
 11 13  1  1
 10 14  1  0
 15 13  1  0
 14 16  1  0
 15 17  2  0
 15 18  2  0
 15 19  1  0
 16 20  2  0
 16 21  1  0
 21 22  1  0
 19 23  1  0
 19 24  2  0
 20 25  1  0
 21 26  2  0
 23 27  1  0
 24 28  1  0
 27 28  2  0
 25 29  2  0
 26 29  1  0
M  END
