x1412_1-x1385_0-x1093_0
     RDKit          3D

 24 27  0  0  0  0  0  0  0  0999 V2000
    6.4390   -3.3060   19.9150 C   0  0  0  0  0  0  0  0  0  0  0  0
    7.3880   -3.0260   18.7680 C   0  0  0  0  0  0  0  0  0  0  0  0
    5.4660   -4.0500   19.7050 O   0  0  0  0  0  0  0  0  0  0  0  0
    6.7350   -2.7490   21.1520 N   0  0  0  0  0  0  0  0  0  0  0  0
    7.7800   -1.7030   21.3130 C   0  0  0  0  0  0  0  0  0  0  0  0
    6.4910   -3.5070   22.3690 C   0  0  0  0  0  0  0  0  0  0  0  0
    8.5340   -1.6310   22.6540 C   0  0  1  0  0  0  0  0  0  0  0  0
    7.6720   -3.9820   22.8670 C   0  0  0  0  0  0  0  0  0  0  0  0
    8.3840   -2.8720   23.4840 N   0  0  0  0  0  0  0  0  0  0  0  0
    9.9990   -1.1320   22.4030 C   0  0  1  0  0  0  0  0  0  0  0  0
    9.5520   -3.3150   24.0520 C   0  0  1  0  0  0  0  0  0  0  0  0
    9.9110    0.3440   22.4260 N   0  0  0  0  0  0  0  0  0  0  0  0
   10.9520   -1.6780   23.2720 C   0  0  2  0  0  0  0  0  0  0  0  0
   10.2720   -2.1190   24.5380 C   0  0  0  0  0  0  0  0  0  0  0  0
    9.1770   -4.2280   25.1350 C   0  0  0  0  0  0  0  0  0  0  0  0
   10.8390    0.9410   23.2030 C   0  0  0  0  0  0  0  0  0  0  0  0
   12.1740   -0.9380   23.6400 N   0  0  0  0  0  0  0  0  0  0  0  0
   13.3420   -1.6430   23.1610 C   0  0  0  0  0  0  0  0  0  0  0  0
    9.6850   -5.6070   25.4220 C   0  0  0  0  0  0  0  0  0  0  0  0
    7.9890   -3.8240   26.3190 S   0  0  0  0  0  0  0  0  0  0  0  0
   12.1470    0.4610   23.2190 C   0  0  0  0  0  0  0  0  0  0  0  0
    9.0040   -6.1860   26.6190 C   0  0  0  0  0  0  0  0  0  0  0  0
    8.0830   -5.3110   27.1530 C   0  0  0  0  0  0  0  0  0  0  0  0
    6.9990   -5.7010   28.6620 Br  0  0  0  0  0  0  0  0  0  0  0  0
  1  2  1  0
  1  3  2  0
  1  4  1  0
  4  5  1  0
  4  6  1  0
  7  5  1  6
  6  8  1  0
  7  9  1  0
  8  9  1  0
  7 10  1  0
  9 11  1  0
 10 12  1  1
 10 13  1  0
 11 14  1  0
 13 14  1  1
 11 15  1  1
 12 16  1  0
 13 17  1  0
 17 18  1  0
 15 19  2  0
 15 20  1  0
 16 21  1  0
 17 21  1  0
 19 22  1  0
 20 23  1  0
 22 23  2  0
 23 24  1  0
M  END
