x1418_1-x0831_1-x1334_0-x1386_1-x0692_1-x1334_1-x1412_1-x1374_1-x0426_1-x0831_0-x0397_0-x0770_1
     RDKit          3D

 43 48  0  0  0  0  0  0  0  0999 V2000
    2.0960   -7.1580   23.6750 O   0  0  0  0  0  0  0  0  0  0  0  0
    2.5870   -7.4120   24.9860 C   0  0  0  0  0  0  0  0  0  0  0  0
    3.9520   -7.7670   24.8570 O   0  0  0  0  0  0  0  0  0  0  0  0
    4.5360   -7.0630   23.7710 C   0  0  0  0  0  0  0  0  0  0  0  0
    5.1440   -5.9180   24.2230 C   0  0  0  0  0  0  0  0  0  0  0  0
    6.0840   -5.5090   23.1440 C   0  0  2  0  0  0  0  0  0  0  0  0
    5.7280   -4.5640   22.1300 C   0  0  2  0  0  0  0  0  0  0  0  0
    6.0400   -6.1740   22.0050 C   0  0  0  0  0  0  0  0  0  0  0  0
    6.8160   -3.5220   22.1240 C   0  0  2  0  0  0  0  0  0  0  0  0
    7.0820   -2.8350   23.4800 C   0  0  0  0  0  0  0  0  0  0  0  0
    6.4840   -2.5880   21.0850 N   0  0  0  0  0  0  0  0  0  0  0  0
    6.2770   -3.1970   19.8420 C   0  0  0  0  0  0  0  0  0  0  0  0
    8.3940   -2.1860   23.3570 N   0  0  0  0  0  0  0  0  0  0  0  0
    7.3770   -1.4270   21.1830 C   0  0  1  0  0  0  0  0  0  0  0  0
    7.3080   -2.9290   18.7600 C   0  0  0  0  0  0  0  0  0  0  0  0
    5.3340   -3.9690   19.6470 O   0  0  0  0  0  0  0  0  0  0  0  0
    6.5830   -0.1050   21.4550 C   0  0  2  0  0  0  0  0  0  0  0  0
    9.3910   -3.2130   23.7590 C   0  0  1  0  0  0  0  0  0  0  0  0
    8.6500   -1.8010   22.0270 C   0  0  0  0  0  0  0  0  0  0  0  0
    5.3700   -0.1980   22.4650 C   0  0  0  0  0  0  0  0  0  0  0  0
   10.8020   -2.6230   23.8890 C   0  0  0  0  0  0  0  0  0  0  0  0
    6.0320    0.4760   20.1750 C   0  0  0  0  0  0  0  0  0  0  0  0
    9.1200   -4.1540   24.9480 C   0  0  0  0  0  0  0  0  0  0  0  0
    4.6960    1.2120   22.5420 C   0  0  2  0  0  0  0  0  0  0  0  0
    4.8400    1.2460   20.0670 C   0  0  0  0  0  0  0  0  0  0  0  0
    6.7800    0.2250   19.0050 C   0  0  0  0  0  0  0  0  0  0  0  0
    9.6930   -5.3570   25.2830 C   0  0  0  0  0  0  0  0  0  0  0  0
    7.9260   -3.7920   26.1690 S   0  0  0  0  0  0  0  0  0  0  0  0
   11.1590   -1.1690   23.7620 C   0  0  0  0  0  0  0  0  0  0  0  0
    3.7550    1.3360   23.6460 N   0  0  0  0  0  0  0  0  0  0  0  0
    3.9860    1.5430   21.2580 C   0  0  0  0  0  0  0  0  0  0  0  0
    4.4450    1.7410   18.8620 C   0  0  0  0  0  0  0  0  0  0  0  0
    6.4870    0.6560   17.7730 N   0  0  0  0  0  0  0  0  0  0  0  0
    9.2460   -5.9870   26.4180 C   0  0  0  0  0  0  0  0  0  0  0  0
    8.2550   -5.2310   27.0170 C   0  0  0  0  0  0  0  0  0  0  0  0
   10.4280   -0.1670   24.3740 C   0  0  0  0  0  0  0  0  0  0  0  0
   12.2670   -0.7650   23.0100 C   0  0  0  0  0  0  0  0  0  0  0  0
    7.4150   -5.6990   28.4880 Cl  0  0  0  0  0  0  0  0  0  0  0  0
   13.1260   -1.7420   22.2850 C   0  0  0  0  0  0  0  0  0  0  0  0
    5.3430    1.4130   17.6780 C   0  0  0  0  0  0  0  0  0  0  0  0
   10.7390    1.1900   24.2800 C   0  0  0  0  0  0  0  0  0  0  0  0
   12.5850    0.5730   22.9280 C   0  0  0  0  0  0  0  0  0  0  0  0
   11.8560    1.5700   23.5370 C   0  0  0  0  0  0  0  0  0  0  0  0
  1  2  1  0
  2  3  1  0
  3  4  1  0
  4  5  1  0
  6  5  1  1
  6  7  1  0
  6  8  1  0
  7  8  1  6
  7  9  1  0
  9 10  1  1
  9 11  1  0
 11 12  1  0
 10 13  1  0
 11 14  1  0
 12 15  1  0
 12 16  2  0
 14 17  1  0
 13 18  1  0
 13 19  1  0
 14 19  1  1
 17 20  1  1
 18 21  1  1
 17 22  1  0
 18 23  1  0
 20 24  1  0
 22 25  2  0
 22 26  1  0
 23 27  2  0
 23 28  1  0
 21 29  1  0
 24 30  1  1
 24 31  1  0
 25 31  1  0
 25 32  1  0
 26 33  2  0
 27 34  1  0
 28 35  1  0
 34 35  2  0
 29 36  2  0
 29 37  1  0
 35 38  1  0
 37 39  1  0
 32 40  2  0
 33 40  1  0
 36 41  1  0
 37 42  2  0
 41 43  2  0
 42 43  1  0
M  END
