x1418_0-x0770_1-x0540_3
     RDKit          3D

 21 22  0  0  0  0  0  0  0  0999 V2000
    6.2020   -3.3790   20.0550 C   0  0  0  0  0  0  0  0  0  0  0  0
    7.1920   -2.9740   18.9520 C   0  0  0  0  0  0  0  0  0  0  0  0
    5.3410   -4.2360   19.8030 O   0  0  0  0  0  0  0  0  0  0  0  0
    6.3000   -2.7950   21.3440 N   0  0  0  0  0  0  0  0  0  0  0  0
    6.7630   -1.4250   21.6090 C   0  0  2  0  0  0  0  0  0  0  0  0
    6.5120   -3.6030   22.3620 C   0  0  0  0  0  0  0  0  0  0  0  0
    6.3130   -0.3750   20.5670 C   0  0  0  0  0  0  0  0  0  0  0  0
    8.2560   -1.4980   21.9280 C   0  0  0  0  0  0  0  0  0  0  0  0
    7.7910   -3.6430   22.9240 C   0  0  0  0  0  0  0  0  0  0  0  0
    5.0760    0.4120   21.0700 C   0  0  0  0  0  0  0  0  0  0  0  0
    8.5160   -2.4720   23.0270 N   0  0  0  0  0  0  0  0  0  0  0  0
    5.3640    1.2920   22.3240 C   0  0  0  0  0  0  0  0  0  0  0  0
    9.9250   -2.7960   23.2970 C   0  0  0  0  0  0  0  0  0  0  0  0
    4.3130    2.3080   22.4830 N   0  0  0  0  0  0  0  0  0  0  0  0
   10.8890   -1.6450   23.3350 C   0  0  0  0  0  0  0  0  0  0  0  0
    3.1110    2.0790   23.2820 C   0  0  0  0  0  0  0  0  0  0  0  0
   12.1610   -1.4370   22.5190 C   0  0  0  0  0  0  0  0  0  0  0  0
   10.6800   -0.2780   24.3910 S   0  0  0  0  0  0  0  0  0  0  0  0
    3.0430    1.4530   24.3420 O   0  0  0  0  0  0  0  0  0  0  0  0
   12.8700   -0.1590   22.8180 C   0  0  0  0  0  0  0  0  0  0  0  0
   12.0920    0.6130   23.8980 C   0  0  0  0  0  0  0  0  0  0  0  0
  1  2  1  0
  1  3  2  0
  1  4  1  0
  4  5  1  0
  4  6  1  0
  5  7  1  6
  5  8  1  0
  6  9  1  0
  7 10  1  0
  8 11  1  0
  9 11  1  0
 10 12  1  0
 11 13  1  0
 12 14  1  0
 13 15  1  0
 14 16  1  0
 15 17  2  0
 15 18  1  0
 16 19  2  0
 17 20  1  0
 18 21  1  0
 20 21  2  0
M  END
