x1412_1-x1334_0-x0434_2-x0397_0-x0692_1-x0831_0-x1334_1
     RDKit          3D

 34 38  0  0  0  0  0  0  0  0999 V2000
    6.3960   -3.4380   19.9650 C   0  0  0  0  0  0  0  0  0  0  0  0
    7.3320   -3.0710   18.8240 C   0  0  0  0  0  0  0  0  0  0  0  0
    5.4350   -4.1990   19.7710 O   0  0  0  0  0  0  0  0  0  0  0  0
    6.6960   -2.8910   21.2210 N   0  0  0  0  0  0  0  0  0  0  0  0
    7.7310   -1.8260   21.1920 C   0  0  1  0  0  0  0  0  0  0  0  0
    6.2720   -3.4490   22.4210 C   0  0  2  0  0  0  0  0  0  0  0  0
    7.0610   -0.5320   21.2970 N   0  0  0  0  0  0  0  0  0  0  0  0
    8.7300   -1.9400   22.3390 C   0  0  0  0  0  0  0  0  0  0  0  0
    7.5020   -3.7650   23.2560 C   0  0  0  0  0  0  0  0  0  0  0  0
    5.4570   -4.6930   22.2620 C   0  0  0  0  0  0  0  0  0  0  0  0
    8.1990   -2.5450   23.5770 N   0  0  0  0  0  0  0  0  0  0  0  0
    5.8300   -5.9070   22.9610 C   0  0  0  0  0  0  0  0  0  0  0  0
    6.0770   -6.0460   21.5420 C   0  0  0  0  0  0  0  0  0  0  0  0
    6.4220    0.0940   20.2470 C   0  0  0  0  0  0  0  0  0  0  0  0
    9.3100   -2.7320   24.4630 C   0  0  2  0  0  0  0  0  0  0  0  0
    6.9360    0.0560   18.8000 C   0  0  0  0  0  0  0  0  0  0  0  0
    5.1610    0.8970   20.2870 C   0  0  0  0  0  0  0  0  0  0  0  0
   10.7360   -2.6510   23.9790 C   0  0  0  0  0  0  0  0  0  0  0  0
    9.1440   -3.9450   25.3570 C   0  0  0  0  0  0  0  0  0  0  0  0
    6.3790    0.6420   17.7390 N   0  0  0  0  0  0  0  0  0  0  0  0
    4.6350    1.4840   19.1030 C   0  0  0  0  0  0  0  0  0  0  0  0
    9.7870   -5.1090   25.4160 C   0  0  0  0  0  0  0  0  0  0  0  0
    7.8980   -3.9060   26.5740 S   0  0  0  0  0  0  0  0  0  0  0  0
   11.1340   -1.2020   23.8390 C   0  0  0  0  0  0  0  0  0  0  0  0
    5.2540    1.3330   17.9240 C   0  0  0  0  0  0  0  0  0  0  0  0
    9.3560   -6.0810   26.4410 C   0  0  0  0  0  0  0  0  0  0  0  0
    8.2030   -5.4540   27.2110 C   0  0  0  0  0  0  0  0  0  0  0  0
   10.4280   -0.1230   24.4200 C   0  0  0  0  0  0  0  0  0  0  0  0
   12.3850   -0.8540   23.0100 C   0  0  0  0  0  0  0  0  0  0  0  0
    7.2640   -6.0430   28.5070 Cl  0  0  0  0  0  0  0  0  0  0  0  0
   13.1930   -1.8920   22.3320 C   0  0  0  0  0  0  0  0  0  0  0  0
   10.8340    1.1960   24.2610 C   0  0  0  0  0  0  0  0  0  0  0  0
   12.7900    0.5710   22.8850 C   0  0  0  0  0  0  0  0  0  0  0  0
   12.0390    1.5550   23.4840 C   0  0  0  0  0  0  0  0  0  0  0  0
  1  2  1  0
  1  3  2  0
  1  4  1  0
  4  5  1  0
  4  6  1  0
  5  7  1  1
  5  8  1  0
  6  9  1  0
  6 10  1  6
  8 11  1  0
  9 11  1  0
 10 12  1  0
 10 13  1  0
 12 13  1  0
  7 14  1  0
 11 15  1  0
 14 16  2  0
 14 17  1  0
 15 18  1  6
 15 19  1  0
 16 20  1  0
 17 21  2  0
 19 22  2  0
 19 23  1  0
 18 24  1  0
 20 25  2  0
 21 25  1  0
 22 26  1  0
 23 27  1  0
 26 27  2  0
 24 28  2  0
 24 29  1  0
 27 30  1  0
 29 31  1  0
 28 32  1  0
 29 33  2  0
 32 34  2  0
 33 34  1  0
M  END
