x1418_0-x0874_0-x0387_0-x0434_2-x0426_1-x0820_1-x1334_1-x1412_1
     RDKit          3D

 44 52  0  0  0  0  0  0  0  0999 V2000
    6.5330   -3.1970   19.6980 C   0  0  0  0  0  0  0  0  0  0  0  0
    7.1360   -2.5360   18.4720 C   0  0  0  0  0  0  0  0  0  0  0  0
    5.7910   -4.1670   19.5620 O   0  0  0  0  0  0  0  0  0  0  0  0
    6.8670   -2.7290   20.9200 C   0  0  1  0  0  0  0  0  0  0  0  0
    7.5420   -2.5260   22.4730 C   0  0  2  0  0  0  0  0  0  0  0  0
    7.7100   -1.5650   21.2060 C   0  0  1  0  0  0  0  0  0  0  0  0
    6.4300   -3.3760   22.1540 C   0  0  0  0  0  0  0  0  0  0  0  0
    7.3290   -0.6840   20.9150 N   0  0  0  0  0  0  0  0  0  0  0  0
    8.4690   -2.6360   23.2960 N   0  0  0  0  0  0  0  0  0  0  0  0
    8.8930   -1.9680   22.0610 C   0  0  0  0  0  0  0  0  0  0  0  0
    7.6400   -3.7960   22.9530 C   0  0  2  0  0  0  0  0  0  0  0  0
    7.0350   -3.5860   22.5530 C   0  0  0  0  0  0  0  0  0  0  0  0
   10.0540   -2.6430   23.5460 C   0  0  2  0  0  0  0  0  0  0  0  0
    6.6760   -0.5940   21.5920 C   0  0  0  0  0  0  0  0  0  0  0  0
    6.7350   -0.1650   19.1490 C   0  0  0  0  0  0  0  0  0  0  0  0
    6.4390   -4.2050   23.9830 C   0  0  0  0  0  0  0  0  0  0  0  0
    6.0230   -0.5040   22.2680 C   0  0  2  0  0  0  0  0  0  0  0  0
    9.7170   -1.5590   24.2350 C   0  0  0  0  0  0  0  0  0  0  0  0
    6.5960    0.3390   17.9310 N   0  0  0  0  0  0  0  0  0  0  0  0
    5.8900    0.2020   20.1980 C   0  0  0  0  0  0  0  0  0  0  0  0
    6.8860   -4.2170   25.3580 C   0  0  0  0  0  0  0  0  0  0  0  0
    5.0990   -4.3650   23.7200 C   0  0  0  0  0  0  0  0  0  0  0  0
   11.0210   -1.5060   23.5860 C   0  0  0  0  0  0  0  0  0  0  0  0
    5.2000    0.5830   22.3530 C   0  0  0  0  0  0  0  0  0  0  0  0
    4.8790    1.1270   19.9350 C   0  0  0  0  0  0  0  0  0  0  0  0
    5.6440    1.2070   17.6790 C   0  0  0  0  0  0  0  0  0  0  0  0
    5.9160   -4.3990   26.3890 C   0  0  0  0  0  0  0  0  0  0  0  0
    4.1540   -4.5400   24.7490 C   0  0  0  0  0  0  0  0  0  0  0  0
    8.2410   -4.0590   25.7640 C   0  0  0  0  0  0  0  0  0  0  0  0
   12.1120   -1.2610   22.7430 C   0  0  1  0  0  0  0  0  0  0  0  0
   10.8900   -0.2770   24.7770 S   0  0  0  0  0  0  0  0  0  0  0  0
    4.3770    1.6700   22.4380 C   0  0  1  0  0  0  0  0  0  0  0  0
    3.8800    1.6020   20.9930 C   0  0  0  0  0  0  0  0  0  0  0  0
    4.7650    1.6300   18.6610 C   0  0  0  0  0  0  0  0  0  0  0  0
    4.5530   -4.5590   26.0430 C   0  0  0  0  0  0  0  0  0  0  0  0
    8.6000   -4.0860   27.0800 C   0  0  0  0  0  0  0  0  0  0  0  0
    6.3270   -4.4200   27.7430 C   0  0  0  0  0  0  0  0  0  0  0  0
   12.7990   -0.0810   23.1240 C   0  0  0  0  0  0  0  0  0  0  0  0
   12.1210    0.6380   24.0450 C   0  0  0  0  0  0  0  0  0  0  0  0
   12.6440   -1.2170   22.5020 C   0  0  0  0  0  0  0  0  0  0  0  0
    3.3700    2.4260   23.1840 N   0  0  0  0  0  0  0  0  0  0  0  0
    7.6330   -4.2720   28.0760 C   0  0  0  0  0  0  0  0  0  0  0  0
   13.1760   -1.1740   22.2600 S   0  0  0  0  0  0  0  0  0  0  0  0
   12.9880   -0.6270   22.6920 C   0  0  0  0  0  0  0  0  0  0  0  0
  1  2  1  0
  1  3  2  0
  4  1  1  6
  4  5  1  0
  4  6  1  0
  4  7  1  0
  6  8  1  1
  5  9  1  6
  6 10  1  0
  9 10  1  0
  5 11  1  0
  7 12  2  0
 11 12  1  0
  9 13  1  0
  8 14  1  0
  8 15  1  0
 11 16  1  1
 17 14  1  1
 13 18  1  1
 15 19  2  0
 15 20  1  0
 17 20  1  0
 16 21  1  0
 16 22  2  0
 13 23  1  0
 17 24  1  0
 20 25  2  0
 19 26  1  0
 21 27  2  0
 22 28  1  0
 21 29  1  0
 23 30  1  0
 23 31  1  0
 24 32  1  0
 25 33  1  0
 32 33  1  0
 25 34  1  0
 26 34  2  0
 27 35  1  0
 28 35  2  0
 29 36  2  0
 27 37  1  0
 30 38  1  0
 31 39  2  0
 38 39  1  0
 30 40  1  1
 32 41  1  1
 36 42  1  0
 37 42  2  0
 40 43  2  0
 38 44  1  0
 43 44  2  0
M  END
