x1412_1-x1334_0-x0692_1-x1334_1-x0831_0-x0770_1-x1385_1-x0397_0-x1412_0-x0434_2
     RDKit          3D

 36 40  0  0  0  0  0  0  0  0999 V2000
    6.2590   -3.4370   19.9280 C   0  0  0  0  0  0  0  0  0  0  0  0
    7.2720   -3.0840   18.8340 C   0  0  0  0  0  0  0  0  0  0  0  0
    5.3850   -4.2840   19.7720 O   0  0  0  0  0  0  0  0  0  0  0  0
    6.3680   -2.7570   21.1260 N   0  0  0  0  0  0  0  0  0  0  0  0
    7.4420   -1.7420   21.1180 C   0  0  1  0  0  0  0  0  0  0  0  0
    6.2130   -3.5140   22.4000 C   0  0  2  0  0  0  0  0  0  0  0  0
    6.9440   -0.3930   21.3080 N   0  0  0  0  0  0  0  0  0  0  0  0
    8.5800   -1.9800   22.1470 C   0  0  0  0  0  0  0  0  0  0  0  0
    7.5350   -4.0050   22.9260 C   0  0  0  0  0  0  0  0  0  0  0  0
    5.3580   -4.7270   22.2770 C   0  0  0  0  0  0  0  0  0  0  0  0
    8.1050   -2.7500   23.3080 N   0  0  0  0  0  0  0  0  0  0  0  0
    5.7490   -5.8940   22.8440 C   0  0  0  0  0  0  0  0  0  0  0  0
    5.9240   -6.0910   21.5430 C   0  0  0  0  0  0  0  0  0  0  0  0
    6.3400    0.2040   20.2070 C   0  0  0  0  0  0  0  0  0  0  0  0
    9.1430   -2.7210   24.2600 C   0  0  1  0  0  0  0  0  0  0  0  0
    6.8930    0.0910   18.9370 C   0  0  0  0  0  0  0  0  0  0  0  0
    5.1560    0.9320   20.3880 C   0  0  0  0  0  0  0  0  0  0  0  0
   10.4270   -2.5820   23.4560 C   0  0  0  0  0  0  0  0  0  0  0  0
    8.7800   -1.5410   25.2010 C   0  0  0  0  0  0  0  0  0  0  0  0
    9.1140   -3.9560   25.1290 C   0  0  0  0  0  0  0  0  0  0  0  0
    6.4360    0.6210   17.7810 N   0  0  0  0  0  0  0  0  0  0  0  0
    4.4860    1.5920   19.2470 C   0  0  0  0  0  0  0  0  0  0  0  0
    9.4870   -0.7370   25.7750 O   0  0  0  0  0  0  0  0  0  0  0  0
    9.7920   -5.1680   25.1850 C   0  0  0  0  0  0  0  0  0  0  0  0
    7.9110   -3.8970   26.4590 S   0  0  0  0  0  0  0  0  0  0  0  0
   11.0220   -1.1720   23.3970 C   0  0  0  0  0  0  0  0  0  0  0  0
    5.1970    1.4100   17.8730 C   0  0  0  0  0  0  0  0  0  0  0  0
    9.2990   -5.9830   26.3100 C   0  0  0  0  0  0  0  0  0  0  0  0
    8.2640   -5.4310   27.1080 C   0  0  0  0  0  0  0  0  0  0  0  0
   10.3600   -0.1240   24.0260 C   0  0  0  0  0  0  0  0  0  0  0  0
   12.2050   -0.9000   22.7540 C   0  0  0  0  0  0  0  0  0  0  0  0
    7.4170   -6.0190   28.4680 Cl  0  0  0  0  0  0  0  0  0  0  0  0
   13.0370   -1.8890   22.0120 C   0  0  0  0  0  0  0  0  0  0  0  0
   10.6580    1.4160   24.2020 C   0  0  0  0  0  0  0  0  0  0  0  0
   12.6230    0.3930   22.8240 C   0  0  0  0  0  0  0  0  0  0  0  0
   11.9550    1.4150   23.4560 C   0  0  0  0  0  0  0  0  0  0  0  0
  1  2  1  0
  1  3  2  0
  1  4  1  0
  4  5  1  0
  4  6  1  0
  5  7  1  1
  5  8  1  0
  6  9  1  0
  6 10  1  6
  8 11  1  0
  9 11  1  0
 10 12  1  0
 10 13  1  0
 12 13  1  0
  7 14  1  0
 11 15  1  0
 14 16  2  0
 14 17  1  0
 15 18  1  6
 15 19  1  0
 15 20  1  0
 16 21  1  0
 17 22  2  0
 19 23  2  0
 20 24  2  0
 20 25  1  0
 18 26  1  0
 21 27  2  0
 22 27  1  0
 24 28  1  0
 25 29  1  0
 28 29  2  0
 26 30  2  0
 26 31  1  0
 29 32  1  0
 31 33  1  0
 30 34  1  0
 31 35  2  0
 34 36  2  0
 35 36  1  0
M  END
