x1412_0-x0736_1-x0770_1-x1386_0
     RDKit          3D

 22 24  0  0  0  0  0  0  0  0999 V2000
    6.3330   -3.3770   19.9070 C   0  0  0  0  0  0  0  0  0  0  0  0
    7.3720   -3.0560   18.8450 C   0  0  0  0  0  0  0  0  0  0  0  0
    5.3540   -4.0760   19.6660 O   0  0  0  0  0  0  0  0  0  0  0  0
    6.5230   -2.8990   21.1680 N   0  0  0  0  0  0  0  0  0  0  0  0
    7.3660   -1.7210   21.4130 C   0  0  0  0  0  0  0  0  0  0  0  0
    6.1600   -3.7260   22.3320 C   0  0  0  0  0  0  0  0  0  0  0  0
    8.4680   -2.0240   22.4150 C   0  0  0  0  0  0  0  0  0  0  0  0
    7.3430   -3.9500   23.2810 C   0  0  0  0  0  0  0  0  0  0  0  0
    7.9560   -2.6620   23.6330 N   0  0  0  0  0  0  0  0  0  0  0  0
    8.9680   -2.6890   24.6720 C   0  0  2  0  0  0  0  0  0  0  0  0
    8.7940   -1.4580   25.3750 O   0  0  0  0  0  0  0  0  0  0  0  0
   10.4320   -2.7730   24.1010 C   0  0  0  0  0  0  0  0  0  0  0  0
    8.8700   -3.8500   25.6660 C   0  0  0  0  0  0  0  0  0  0  0  0
    9.6670   -5.1390   25.5920 C   0  0  0  0  0  0  0  0  0  0  0  0
    7.8400   -3.9080   27.0550 S   0  0  0  0  0  0  0  0  0  0  0  0
   11.2160   -1.5240   23.8130 C   0  0  0  0  0  0  0  0  0  0  0  0
    9.3520   -6.0060   26.6600 C   0  0  0  0  0  0  0  0  0  0  0  0
    8.3780   -5.4640   27.5290 C   0  0  0  0  0  0  0  0  0  0  0  0
   12.2640   -1.4890   22.8960 C   0  0  0  0  0  0  0  0  0  0  0  0
   11.0500   -0.2690   24.3700 C   0  0  0  0  0  0  0  0  0  0  0  0
   12.8840   -0.2850   22.7410 C   0  0  0  0  0  0  0  0  0  0  0  0
   12.1650    0.8760   23.7490 S   0  0  0  0  0  0  0  0  0  0  0  0
  1  2  1  0
  1  3  2  0
  1  4  1  0
  4  5  1  0
  4  6  1  0
  5  7  1  0
  6  8  1  0
  7  9  1  0
  8  9  1  0
  9 10  1  0
 10 11  1  1
 10 12  1  0
 10 13  1  0
 13 14  2  0
 13 15  1  0
 12 16  1  0
 14 17  1  0
 15 18  1  0
 17 18  2  0
 16 19  1  0
 16 20  2  0
 19 21  2  0
 20 22  1  0
 21 22  1  0
M  END
