x1418_1-x1386_1-x1418_0
     RDKit          3D

 15 16  0  0  0  0  0  0  0  0999 V2000
    6.3810   -3.2340   19.8670 C   0  0  0  0  0  0  0  0  0  0  0  0
    7.3540   -2.9830   18.7290 C   0  0  0  0  0  0  0  0  0  0  0  0
    5.4860   -4.0850   19.7280 O   0  0  0  0  0  0  0  0  0  0  0  0
    6.5530   -2.5080   21.0360 N   0  0  0  0  0  0  0  0  0  0  0  0
    6.4420   -3.2370   22.3020 C   0  0  0  0  0  0  0  0  0  0  0  0
    7.4620   -1.3650   21.1290 C   0  0  0  0  0  0  0  0  0  0  0  0
    7.8260   -3.6310   22.9300 C   0  0  0  0  0  0  0  0  0  0  0  0
    8.8180   -1.6950   21.7790 C   0  0  0  0  0  0  0  0  0  0  0  0
    8.7790   -2.4880   23.0250 N   0  0  0  0  0  0  0  0  0  0  0  0
   10.1540   -2.7460   23.4670 C   0  0  0  0  0  0  0  0  0  0  0  0
   11.0690   -1.6310   23.4120 C   0  0  0  0  0  0  0  0  0  0  0  0
   12.3270   -1.4580   22.5640 C   0  0  0  0  0  0  0  0  0  0  0  0
   10.7590   -0.2580   24.4130 S   0  0  0  0  0  0  0  0  0  0  0  0
   12.9430   -0.0990   22.8470 C   0  0  0  0  0  0  0  0  0  0  0  0
   12.1150    0.6440   23.8750 C   0  0  0  0  0  0  0  0  0  0  0  0
  1  2  1  0
  1  3  2  0
  1  4  1  0
  4  5  1  0
  4  6  1  0
  5  7  1  0
  6  8  1  0
  7  9  1  0
  8  9  1  0
  9 10  1  0
 10 11  1  0
 11 12  2  0
 11 13  1  0
 12 14  1  0
 13 15  1  0
 14 15  2  0
M  END
