x1412_1-x1412_0-x1418_0-x1334_1
     RDKit          3D

 23 26  0  0  0  0  0  0  0  0999 V2000
    6.4930   -3.4000   19.9120 C   0  0  0  0  0  0  0  0  0  0  0  0
    7.4090   -3.0390   18.7630 C   0  0  0  0  0  0  0  0  0  0  0  0
    5.4760   -4.0850   19.7160 O   0  0  0  0  0  0  0  0  0  0  0  0
    6.9030   -2.9890   21.1700 N   0  0  0  0  0  0  0  0  0  0  0  0
    8.1910   -2.2650   21.3530 C   0  0  0  0  0  0  0  0  0  0  0  0
    6.4670   -3.8920   22.2410 C   0  0  0  0  0  0  0  0  0  0  0  0
    8.5920   -1.9320   22.8120 C   0  0  2  0  0  0  0  0  0  0  0  0
    7.5540   -4.0580   23.3070 C   0  0  0  0  0  0  0  0  0  0  0  0
   10.0720   -2.2630   23.1010 C   0  0  2  0  0  0  0  0  0  0  0  0
    7.9270   -2.7490   23.8180 N   0  0  0  0  0  0  0  0  0  0  0  0
    8.6420   -2.7400   24.9790 C   0  0  1  0  0  0  0  0  0  0  0  0
   10.0620   -2.8340   24.4730 C   0  0  0  0  0  0  0  0  0  0  0  0
   11.0450   -1.1380   23.1580 C   0  0  0  0  0  0  0  0  0  0  0  0
    8.3150   -1.7990   25.6760 O   0  0  0  0  0  0  0  0  0  0  0  0
    8.6160   -3.8930   25.8610 C   0  0  0  0  0  0  0  0  0  0  0  0
   12.2880   -1.1260   22.4850 C   0  0  0  0  0  0  0  0  0  0  0  0
   10.8160    0.2980   24.0620 S   0  0  0  0  0  0  0  0  0  0  0  0
    9.4520   -5.0210   25.7380 C   0  0  0  0  0  0  0  0  0  0  0  0
    7.5790   -4.0910   27.2370 S   0  0  0  0  0  0  0  0  0  0  0  0
   13.0060    0.0190   22.7050 C   0  0  0  0  0  0  0  0  0  0  0  0
   12.3210    0.9030   23.5490 C   0  0  0  0  0  0  0  0  0  0  0  0
    9.2050   -6.0200   26.7900 C   0  0  0  0  0  0  0  0  0  0  0  0
    8.2110   -5.6370   27.6750 C   0  0  0  0  0  0  0  0  0  0  0  0
  1  2  1  0
  1  3  2  0
  1  4  1  0
  4  5  1  0
  4  6  1  0
  7  5  1  6
  6  8  1  0
  7  9  1  0
  7 10  1  0
  8 10  1  0
 10 11  1  0
  9 12  1  0
 11 12  1  0
  9 13  1  1
 11 14  1  1
 11 15  1  0
 13 16  2  0
 13 17  1  0
 15 18  2  0
 15 19  1  0
 16 20  1  0
 17 21  1  0
 20 21  2  0
 18 22  1  0
 19 23  1  0
 22 23  2  0
M  END
