x1412_0-x1386_1-x0692_0
     RDKit          3D

 24 26  0  0  0  0  0  0  0  0999 V2000
    6.4060   -3.1780   19.8080 C   0  0  0  0  0  0  0  0  0  0  0  0
    7.3690   -2.9620   18.6710 C   0  0  0  0  0  0  0  0  0  0  0  0
    5.4560   -3.9640   19.6650 O   0  0  0  0  0  0  0  0  0  0  0  0
    6.6570   -2.4930   20.9910 N   0  0  0  0  0  0  0  0  0  0  0  0
    7.7210   -1.4750   21.1480 C   0  0  0  0  0  0  0  0  0  0  0  0
    6.2060   -3.1540   22.2180 C   0  0  0  0  0  0  0  0  0  0  0  0
    8.8130   -1.8910   22.1830 C   0  0  0  0  0  0  0  0  0  0  0  0
    7.3770   -3.6610   23.0700 C   0  0  0  0  0  0  0  0  0  0  0  0
    8.2590   -2.5530   23.3770 N   0  0  0  0  0  0  0  0  0  0  0  0
    8.9240   -2.5610   24.5770 C   0  0  2  0  0  0  0  0  0  0  0  0
    8.7940   -1.5610   25.2760 O   0  0  0  0  0  0  0  0  0  0  0  0
   10.3760   -2.6610   24.2560 C   0  0  0  0  0  0  0  0  0  0  0  0
    8.7830   -3.7040   25.5020 C   0  0  0  0  0  0  0  0  0  0  0  0
    9.5740   -4.8890   25.4850 C   0  0  0  0  0  0  0  0  0  0  0  0
    7.6540   -3.8440   26.8200 S   0  0  0  0  0  0  0  0  0  0  0  0
   11.1030   -1.4230   23.8250 C   0  0  0  0  0  0  0  0  0  0  0  0
    9.2470   -5.8770   26.5490 C   0  0  0  0  0  0  0  0  0  0  0  0
    8.2140   -5.3990   27.3340 C   0  0  0  0  0  0  0  0  0  0  0  0
   10.5520   -0.1230   24.0850 C   0  0  0  0  0  0  0  0  0  0  0  0
   12.3290   -1.5670   23.1660 C   0  0  0  0  0  0  0  0  0  0  0  0
   11.2350    1.0100   23.6820 C   0  0  0  0  0  0  0  0  0  0  0  0
   12.9870   -0.4250   22.7830 C   0  0  0  0  0  0  0  0  0  0  0  0
   10.6690    2.3690   23.9300 C   0  0  0  0  0  0  0  0  0  0  0  0
   12.4630    0.8310   23.0320 C   0  0  0  0  0  0  0  0  0  0  0  0
  1  2  1  0
  1  3  2  0
  1  4  1  0
  4  5  1  0
  4  6  1  0
  5  7  1  0
  6  8  1  0
  7  9  1  0
  8  9  1  0
  9 10  1  0
 10 11  1  1
 10 12  1  0
 10 13  1  0
 13 14  2  0
 13 15  1  0
 12 16  1  0
 14 17  1  0
 15 18  1  0
 17 18  2  0
 16 19  2  0
 16 20  1  0
 19 21  1  0
 20 22  2  0
 21 23  1  0
 21 24  2  0
 22 24  1  0
M  END
