x1412_0-x1418_1-x0692_1
     RDKit          3D

 16 17  0  0  0  0  0  0  0  0999 V2000
    6.3910   -3.2620   19.8620 C   0  0  0  0  0  0  0  0  0  0  0  0
    7.3650   -2.9660   18.7330 C   0  0  0  0  0  0  0  0  0  0  0  0
    5.4610   -4.0650   19.7200 O   0  0  0  0  0  0  0  0  0  0  0  0
    6.5910   -2.6160   21.0920 N   0  0  0  0  0  0  0  0  0  0  0  0
    6.4060   -3.3250   22.3580 C   0  0  0  0  0  0  0  0  0  0  0  0
    7.5800   -1.5090   21.1700 C   0  0  0  0  0  0  0  0  0  0  0  0
    7.7500   -3.8940   22.7510 C   0  0  0  0  0  0  0  0  0  0  0  0
    8.7770   -1.7360   22.1560 C   0  0  0  0  0  0  0  0  0  0  0  0
    8.7130   -2.8710   23.1360 N   0  0  0  0  0  0  0  0  0  0  0  0
    8.5690   -2.5290   24.5100 C   0  0  0  0  0  0  0  0  0  0  0  0
    8.3850   -1.3680   24.9010 O   0  0  0  0  0  0  0  0  0  0  0  0
    8.6580   -3.7130   25.4530 C   0  0  0  0  0  0  0  0  0  0  0  0
    9.4310   -4.8840   25.3080 C   0  0  0  0  0  0  0  0  0  0  0  0
    7.7690   -3.8060   26.9450 S   0  0  0  0  0  0  0  0  0  0  0  0
    9.3250   -5.8040   26.3360 C   0  0  0  0  0  0  0  0  0  0  0  0
    8.4610   -5.3950   27.3330 C   0  0  0  0  0  0  0  0  0  0  0  0
  1  2  1  0
  1  3  2  0
  1  4  1  0
  4  5  1  0
  4  6  1  0
  5  7  1  0
  6  8  1  0
  7  9  1  0
  8  9  1  0
  9 10  1  0
 10 11  2  0
 10 12  1  0
 12 13  2  0
 12 14  1  0
 13 15  1  0
 14 16  1  0
 15 16  2  0
M  END
