x1418_1-x0770_1-x0692_1-x0397_0-x1334_0-x1412_1-x1334_1-x0831_1-x0831_0-x0434_2
     RDKit          3D

 34 38  0  0  0  0  0  0  0  0999 V2000
    6.2780   -3.2520   19.8590 C   0  0  0  0  0  0  0  0  0  0  0  0
    7.3360   -2.9680   18.7870 C   0  0  0  0  0  0  0  0  0  0  0  0
    5.3450   -4.0300   19.6600 O   0  0  0  0  0  0  0  0  0  0  0  0
    6.4060   -2.6320   21.1210 N   0  0  0  0  0  0  0  0  0  0  0  0
    6.1480   -3.3640   22.3530 C   0  0  2  0  0  0  0  0  0  0  0  0
    7.1610   -1.3420   21.3250 C   0  0  1  0  0  0  0  0  0  0  0  0
    6.7600   -2.6810   23.6070 C   0  0  0  0  0  0  0  0  0  0  0  0
    8.3420   -1.6020   22.0940 C   0  0  0  0  0  0  0  0  0  0  0  0
    6.6450   -4.7830   22.1700 C   0  0  0  0  0  0  0  0  0  0  0  0
    7.7400   -0.5350   20.2340 C   0  0  0  0  0  0  0  0  0  0  0  0
    8.1750   -2.3240   23.3810 N   0  0  0  0  0  0  0  0  0  0  0  0
    6.4780   -5.6330   23.1440 C   0  0  0  0  0  0  0  0  0  0  0  0
    5.7150   -6.1920   22.0890 C   0  0  0  0  0  0  0  0  0  0  0  0
    6.9930   -0.1150   18.9950 C   0  0  0  0  0  0  0  0  0  0  0  0
    9.1940   -3.3430   23.5820 C   0  0  1  0  0  0  0  0  0  0  0  0
    6.3640    0.4060   20.1760 C   0  0  0  0  0  0  0  0  0  0  0  0
    6.1630    0.3870   18.0130 N   0  0  0  0  0  0  0  0  0  0  0  0
   10.5800   -2.8150   23.2440 C   0  0  0  0  0  0  0  0  0  0  0  0
    9.0300   -4.1990   24.8470 C   0  0  0  0  0  0  0  0  0  0  0  0
    5.0620    1.1570   17.9730 C   0  0  0  0  0  0  0  0  0  0  0  0
    5.2350    1.1960   20.3450 C   0  0  0  0  0  0  0  0  0  0  0  0
    9.7120   -5.3570   25.1680 C   0  0  0  0  0  0  0  0  0  0  0  0
    7.9070   -3.8610   26.1180 S   0  0  0  0  0  0  0  0  0  0  0  0
   10.9780   -1.3260   23.3990 C   0  0  0  0  0  0  0  0  0  0  0  0
    4.5170    1.6200   19.2780 C   0  0  0  0  0  0  0  0  0  0  0  0
    9.3350   -5.9310   26.3540 C   0  0  0  0  0  0  0  0  0  0  0  0
    8.3390   -5.2490   27.0190 C   0  0  0  0  0  0  0  0  0  0  0  0
   10.1230   -0.3660   24.2280 C   0  0  0  0  0  0  0  0  0  0  0  0
   12.1510   -0.8360   22.7910 C   0  0  0  0  0  0  0  0  0  0  0  0
    7.5670   -5.6150   28.4930 Cl  0  0  0  0  0  0  0  0  0  0  0  0
   12.9910   -1.7690   21.9730 C   0  0  0  0  0  0  0  0  0  0  0  0
   10.5710    0.9380   24.3220 C   0  0  0  0  0  0  0  0  0  0  0  0
   12.5550    0.4950   22.9320 C   0  0  0  0  0  0  0  0  0  0  0  0
   11.7570    1.3580   23.6900 C   0  0  0  0  0  0  0  0  0  0  0  0
  1  2  1  0
  1  3  2  0
  1  4  1  0
  4  5  1  0
  4  6  1  0
  5  7  1  0
  6  8  1  0
  5  9  1  6
  6 10  1  6
  7 11  1  0
  8 11  1  0
  9 12  1  0
  9 13  1  0
 12 13  1  0
 10 14  1  0
 11 15  1  0
 14 16  2  0
 14 17  1  0
 15 18  1  1
 15 19  1  0
 17 20  2  0
 16 21  1  0
 19 22  2  0
 19 23  1  0
 18 24  1  0
 20 25  1  0
 21 25  2  0
 22 26  1  0
 23 27  1  0
 26 27  2  0
 24 28  2  0
 24 29  1  0
 27 30  1  0
 29 31  1  0
 28 32  1  0
 29 33  2  0
 32 34  2  0
 33 34  1  0
M  END
