x1418_1-x0831_1-x0397_0-x1334_0-x0692_1-x0426_1-x0831_0-x0434_2-x1374_1-x1334_1-x1385_1-x0770_1-x1412_1
     RDKit          3D

 43 48  0  0  0  0  0  0  0  0999 V2000
    1.8510   -7.3450   23.8960 O   0  0  0  0  0  0  0  0  0  0  0  0
    2.3680   -8.0790   24.9920 C   0  0  0  0  0  0  0  0  0  0  0  0
    3.7780   -8.0520   24.9750 O   0  0  0  0  0  0  0  0  0  0  0  0
    4.2520   -7.3170   23.8650 C   0  0  0  0  0  0  0  0  0  0  0  0
    4.6770   -5.9150   24.1950 C   0  0  0  0  0  0  0  0  0  0  0  0
    5.8740   -5.6140   23.3560 C   0  0  2  0  0  0  0  0  0  0  0  0
    5.8240   -4.6680   22.4700 C   0  0  2  0  0  0  0  0  0  0  0  0
    6.1080   -6.2640   22.0930 C   0  0  0  0  0  0  0  0  0  0  0  0
    6.8640   -3.5790   22.2210 C   0  0  2  0  0  0  0  0  0  0  0  0
    7.2800   -2.8930   23.5370 C   0  0  0  0  0  0  0  0  0  0  0  0
    6.4510   -2.6090   21.2620 N   0  0  0  0  0  0  0  0  0  0  0  0
    6.3520   -3.1770   19.9580 C   0  0  0  0  0  0  0  0  0  0  0  0
    8.5870   -2.3100   23.2760 N   0  0  0  0  0  0  0  0  0  0  0  0
    7.0850   -1.4510   21.6300 C   0  0  2  0  0  0  0  0  0  0  0  0
    7.3620   -2.9400   18.8410 C   0  0  0  0  0  0  0  0  0  0  0  0
    5.4230   -3.9730   19.6860 O   0  0  0  0  0  0  0  0  0  0  0  0
    6.4930   -0.0120   21.5470 C   0  0  2  0  0  0  0  0  0  0  0  0
    9.6670   -3.2020   23.6750 C   0  0  1  0  0  0  0  0  0  0  0  0
    8.6040   -1.6470   21.9210 C   0  0  0  0  0  0  0  0  0  0  0  0
    5.4580    0.2430   22.6750 C   0  0  0  0  0  0  0  0  0  0  0  0
   10.9430   -2.5170   24.1440 C   0  0  0  0  0  0  0  0  0  0  0  0
    6.0120    0.5180   20.2130 C   0  0  0  0  0  0  0  0  0  0  0  0
    9.2340   -4.0780   24.8830 C   0  0  0  0  0  0  0  0  0  0  0  0
    4.6790    1.5510   22.5770 C   0  0  2  0  0  0  0  0  0  0  0  0
    4.8190    1.3010   20.1020 C   0  0  0  0  0  0  0  0  0  0  0  0
    6.7580    0.2400   19.1340 C   0  0  0  0  0  0  0  0  0  0  0  0
    9.7780   -5.2920   25.1650 C   0  0  0  0  0  0  0  0  0  0  0  0
    7.9570   -3.7660   26.2150 S   0  0  0  0  0  0  0  0  0  0  0  0
   11.2430   -1.0910   23.9030 C   0  0  0  0  0  0  0  0  0  0  0  0
    3.7030    1.6750   23.6310 N   0  0  0  0  0  0  0  0  0  0  0  0
    3.9420    1.6350   21.2550 C   0  0  0  0  0  0  0  0  0  0  0  0
    4.4460    1.8270   18.6960 C   0  0  0  0  0  0  0  0  0  0  0  0
    6.5540    0.6480   17.7240 N   0  0  0  0  0  0  0  0  0  0  0  0
    9.2780   -6.0640   26.3890 C   0  0  0  0  0  0  0  0  0  0  0  0
    8.2130   -5.3180   27.1070 C   0  0  0  0  0  0  0  0  0  0  0  0
   10.4310   -0.0510   24.4950 C   0  0  0  0  0  0  0  0  0  0  0  0
   12.3370   -0.7550   23.0950 C   0  0  0  0  0  0  0  0  0  0  0  0
    7.3320   -5.7320   28.5050 Cl  0  0  0  0  0  0  0  0  0  0  0  0
   13.2030   -1.7740   22.4270 C   0  0  0  0  0  0  0  0  0  0  0  0
    5.3820    1.4500   17.5780 C   0  0  0  0  0  0  0  0  0  0  0  0
   10.7020    1.2480   24.2960 C   0  0  0  0  0  0  0  0  0  0  0  0
   12.6700    0.5440   22.8740 C   0  0  0  0  0  0  0  0  0  0  0  0
   11.8900    1.5280   23.4450 C   0  0  0  0  0  0  0  0  0  0  0  0
  1  2  1  0
  2  3  1  0
  3  4  1  0
  4  5  1  0
  6  5  1  6
  6  7  1  0
  6  8  1  0
  7  8  1  6
  7  9  1  0
  9 10  1  1
  9 11  1  0
 11 12  1  0
 10 13  1  0
 11 14  1  0
 12 15  1  0
 12 16  2  0
 14 17  1  0
 13 18  1  0
 13 19  1  0
 14 19  1  6
 17 20  1  1
 18 21  1  1
 17 22  1  0
 18 23  1  0
 20 24  1  0
 22 25  2  0
 22 26  1  0
 23 27  2  0
 23 28  1  0
 21 29  1  0
 24 30  1  1
 24 31  1  0
 25 31  1  0
 25 32  1  0
 26 33  2  0
 27 34  1  0
 28 35  1  0
 34 35  2  0
 29 36  2  0
 29 37  1  0
 35 38  1  0
 37 39  1  0
 32 40  2  0
 33 40  1  0
 36 41  1  0
 37 42  2  0
 41 43  2  0
 42 43  1  0
M  END
