x1412_0-x0736_1-x1386_0
     RDKit          3D

 22 24  0  0  0  0  0  0  0  0999 V2000
    6.3700   -3.3870   19.9390 C   0  0  0  0  0  0  0  0  0  0  0  0
    7.3700   -3.0320   18.8430 C   0  0  0  0  0  0  0  0  0  0  0  0
    5.4100   -4.1140   19.7050 O   0  0  0  0  0  0  0  0  0  0  0  0
    6.5660   -2.9060   21.2080 N   0  0  0  0  0  0  0  0  0  0  0  0
    7.4940   -1.7790   21.4320 C   0  0  0  0  0  0  0  0  0  0  0  0
    6.2030   -3.7470   22.3820 C   0  0  0  0  0  0  0  0  0  0  0  0
    8.6200   -2.1580   22.3970 C   0  0  0  0  0  0  0  0  0  0  0  0
    7.3820   -4.0190   23.3010 C   0  0  0  0  0  0  0  0  0  0  0  0
    8.1100   -2.7850   23.6030 N   0  0  0  0  0  0  0  0  0  0  0  0
    8.8940   -2.6720   24.6980 C   0  0  2  0  0  0  0  0  0  0  0  0
    8.7330   -1.6610   25.3670 O   0  0  0  0  0  0  0  0  0  0  0  0
   10.3710   -2.8100   24.2920 C   0  0  0  0  0  0  0  0  0  0  0  0
    8.8150   -3.8250   25.6840 C   0  0  0  0  0  0  0  0  0  0  0  0
    9.5830   -4.9720   25.5330 C   0  0  0  0  0  0  0  0  0  0  0  0
    7.8330   -3.9320   27.0970 S   0  0  0  0  0  0  0  0  0  0  0  0
   11.1910   -1.6090   23.8820 C   0  0  0  0  0  0  0  0  0  0  0  0
    9.3910   -5.8750   26.4980 C   0  0  0  0  0  0  0  0  0  0  0  0
    8.4660   -5.4900   27.4590 C   0  0  0  0  0  0  0  0  0  0  0  0
   12.1980   -1.5920   22.9400 C   0  0  0  0  0  0  0  0  0  0  0  0
   11.0590   -0.3060   24.4070 C   0  0  0  0  0  0  0  0  0  0  0  0
   12.8490   -0.2760   22.7290 C   0  0  0  0  0  0  0  0  0  0  0  0
   12.1470    0.8770   23.7400 S   0  0  0  0  0  0  0  0  0  0  0  0
  1  2  1  0
  1  3  2  0
  1  4  1  0
  4  5  1  0
  4  6  1  0
  5  7  1  0
  6  8  1  0
  7  9  1  0
  8  9  1  0
  9 10  1  0
 10 11  1  1
 10 12  1  0
 10 13  1  0
 13 14  2  0
 13 15  1  0
 12 16  1  0
 14 17  1  0
 15 18  1  0
 17 18  2  0
 16 19  1  0
 16 20  2  0
 19 21  2  0
 20 22  1  0
 21 22  1  0
M  END
