x1412_1-x1412_0-x0734_1-x0387_0-x1334_1
     RDKit          3D

 22 24  0  0  0  0  0  0  0  0999 V2000
    6.3790   -3.3570   19.9610 C   0  0  0  0  0  0  0  0  0  0  0  0
    7.3280   -3.0140   18.8270 C   0  0  0  0  0  0  0  0  0  0  0  0
    5.4070   -4.0910   19.7190 O   0  0  0  0  0  0  0  0  0  0  0  0
    6.6290   -2.8950   21.2350 N   0  0  0  0  0  0  0  0  0  0  0  0
    7.5060   -1.7190   21.4190 C   0  0  0  0  0  0  0  0  0  0  0  0
    6.4250   -3.7000   22.4190 C   0  0  0  0  0  0  0  0  0  0  0  0
    8.8210   -2.0100   22.1570 C   0  0  0  0  0  0  0  0  0  0  0  0
    7.7650   -4.1080   23.0500 C   0  0  0  0  0  0  0  0  0  0  0  0
    8.7400   -3.0150   23.2390 N   0  0  0  0  0  0  0  0  0  0  0  0
    8.8470   -2.5110   24.6020 C   0  0  2  0  0  0  0  0  0  0  0  0
    7.6830   -1.7700   24.9620 O   0  0  0  0  0  0  0  0  0  0  0  0
   10.0340   -1.4900   24.8350 C   0  0  0  0  0  0  0  0  0  0  0  0
    8.8490   -3.6750   25.5890 C   0  0  0  0  0  0  0  0  0  0  0  0
    9.6730   -4.7920   25.4260 C   0  0  0  0  0  0  0  0  0  0  0  0
    7.8860   -3.8730   27.0410 S   0  0  0  0  0  0  0  0  0  0  0  0
   11.1860   -1.2960   23.8580 C   0  0  0  0  0  0  0  0  0  0  0  0
    9.4650   -5.7800   26.5280 C   0  0  0  0  0  0  0  0  0  0  0  0
    8.5340   -5.4120   27.4720 C   0  0  0  0  0  0  0  0  0  0  0  0
   12.0910   -0.0650   23.9070 C   0  0  0  0  0  0  0  0  0  0  0  0
   11.5960   -2.1300   22.8380 C   0  0  0  0  0  0  0  0  0  0  0  0
   13.0610   -0.1080   22.9480 C   0  0  0  0  0  0  0  0  0  0  0  0
   12.9610   -1.5230   21.9930 S   0  0  0  0  0  0  0  0  0  0  0  0
  1  2  1  0
  1  3  2  0
  1  4  1  0
  4  5  1  0
  4  6  1  0
  5  7  1  0
  6  8  1  0
  7  9  1  0
  8  9  1  0
  9 10  1  0
 10 11  1  1
 10 12  1  0
 10 13  1  0
 13 14  2  0
 13 15  1  0
 12 16  1  0
 14 17  1  0
 15 18  1  0
 17 18  2  0
 16 19  1  0
 16 20  2  0
 19 21  2  0
 20 22  1  0
 21 22  1  0
M  END
