x1412_0-x1418_1-x0434_2
     RDKit          3D

 23 25  0  0  0  0  0  0  0  0999 V2000
    6.2820   -3.1960   19.8790 C   0  0  0  0  0  0  0  0  0  0  0  0
    7.3200   -2.9710   18.7940 C   0  0  0  0  0  0  0  0  0  0  0  0
    5.3140   -3.9110   19.5910 O   0  0  0  0  0  0  0  0  0  0  0  0
    6.4440   -2.6900   21.1730 N   0  0  0  0  0  0  0  0  0  0  0  0
    6.3150   -3.5810   22.3110 C   0  0  0  0  0  0  0  0  0  0  0  0
    7.1520   -1.4210   21.4780 C   0  0  1  0  0  0  0  0  0  0  0  0
    7.6890   -3.9300   22.8690 C   0  0  0  0  0  0  0  0  0  0  0  0
    8.4370   -1.6490   22.3290 C   0  0  0  0  0  0  0  0  0  0  0  0
    7.7430   -0.6600   20.2900 C   0  0  0  0  0  0  0  0  0  0  0  0
    8.3580   -2.7360   23.3230 N   0  0  0  0  0  0  0  0  0  0  0  0
    7.0080   -0.1930   19.0360 C   0  0  0  0  0  0  0  0  0  0  0  0
    8.4440   -2.5600   24.7140 C   0  0  0  0  0  0  0  0  0  0  0  0
    6.3080    0.3260   20.3130 C   0  0  0  0  0  0  0  0  0  0  0  0
    6.2010    0.3360   18.0380 N   0  0  0  0  0  0  0  0  0  0  0  0
    8.3630   -1.2770   25.2640 O   0  0  0  0  0  0  0  0  0  0  0  0
    8.6190   -3.7500   25.5430 C   0  0  0  0  0  0  0  0  0  0  0  0
    5.1070    1.1010   18.0360 C   0  0  0  0  0  0  0  0  0  0  0  0
    5.0700    1.1780   20.3030 C   0  0  0  0  0  0  0  0  0  0  0  0
    9.4080   -4.8750   25.2930 C   0  0  0  0  0  0  0  0  0  0  0  0
    7.7740   -3.8450   27.0540 S   0  0  0  0  0  0  0  0  0  0  0  0
    4.4950    1.5510   19.1430 C   0  0  0  0  0  0  0  0  0  0  0  0
    9.3530   -5.8520   26.3320 C   0  0  0  0  0  0  0  0  0  0  0  0
    8.4160   -5.3770   27.4580 C   0  0  0  0  0  0  0  0  0  0  0  0
  1  2  1  0
  1  3  2  0
  1  4  1  0
  4  5  1  0
  4  6  1  0
  5  7  1  0
  6  8  1  0
  6  9  1  6
  7 10  1  0
  8 10  1  0
  9 11  1  0
 10 12  1  0
 11 13  2  0
 11 14  1  0
 12 15  2  0
 12 16  1  0
 14 17  2  0
 13 18  1  0
 16 19  2  0
 16 20  1  0
 17 21  1  0
 18 21  2  0
 19 22  1  0
 20 23  1  0
 22 23  2  0
M  END
