x1418_1-x0831_0-x1385_1-x0692_1-x0434_2-x1334_0-x1334_1-x0831_1-x0770_1-x0397_0
     RDKit          3D

 34 38  0  0  0  0  0  0  0  0999 V2000
    6.3530   -3.3900   19.8820 C   0  0  0  0  0  0  0  0  0  0  0  0
    7.2990   -3.0790   18.7320 C   0  0  0  0  0  0  0  0  0  0  0  0
    5.4380   -4.2210   19.7590 O   0  0  0  0  0  0  0  0  0  0  0  0
    6.5950   -2.6990   21.0540 N   0  0  0  0  0  0  0  0  0  0  0  0
    7.0710   -3.4940   22.1830 C   0  0  1  0  0  0  0  0  0  0  0  0
    7.3440   -1.4480   20.8670 C   0  0  1  0  0  0  0  0  0  0  0  0
    7.2740   -2.6590   23.1990 C   0  0  0  0  0  0  0  0  0  0  0  0
    8.7110   -1.5850   21.5520 C   0  0  0  0  0  0  0  0  0  0  0  0
    6.0580   -4.5530   22.5000 C   0  0  0  0  0  0  0  0  0  0  0  0
    7.2270   -1.1100   19.3360 C   0  0  0  0  0  0  0  0  0  0  0  0
    8.4590   -1.8080   22.9800 N   0  0  0  0  0  0  0  0  0  0  0  0
    6.4440   -5.7400   23.2390 C   0  0  0  0  0  0  0  0  0  0  0  0
    6.0610   -6.0910   21.8830 C   0  0  0  0  0  0  0  0  0  0  0  0
    6.3360   -0.0760   19.1580 C   0  0  0  0  0  0  0  0  0  0  0  0
    9.5100   -1.9430   23.8470 C   0  0  1  0  0  0  0  0  0  0  0  0
    5.5900    0.2720   20.2650 C   0  0  0  0  0  0  0  0  0  0  0  0
    6.2340    0.5140   17.9490 N   0  0  0  0  0  0  0  0  0  0  0  0
    9.9390   -3.3500   23.9750 C   0  0  0  0  0  0  0  0  0  0  0  0
   10.5750   -0.8610   23.6270 C   0  0  0  0  0  0  0  0  0  0  0  0
    5.3360    1.5080   17.8210 C   0  0  0  0  0  0  0  0  0  0  0  0
    4.6730    1.2820   20.1530 C   0  0  0  0  0  0  0  0  0  0  0  0
   10.2080    0.3910   24.1430 C   0  0  0  0  0  0  0  0  0  0  0  0
   11.9650   -0.9410   22.9280 C   0  0  0  0  0  0  0  0  0  0  0  0
    9.4340   -4.2120   25.0890 C   0  0  0  0  0  0  0  0  0  0  0  0
    4.5110    1.9710   18.8380 C   0  0  0  0  0  0  0  0  0  0  0  0
   12.6110   -2.1190   22.2890 C   0  0  0  0  0  0  0  0  0  0  0  0
   10.9670    1.5500   24.0740 C   0  0  0  0  0  0  0  0  0  0  0  0
   12.8130    0.3890   22.8710 C   0  0  0  0  0  0  0  0  0  0  0  0
    9.9010   -5.5150   25.3810 C   0  0  0  0  0  0  0  0  0  0  0  0
    8.1930   -3.7570   26.2100 S   0  0  0  0  0  0  0  0  0  0  0  0
   12.3440    1.5730   23.4070 C   0  0  0  0  0  0  0  0  0  0  0  0
    9.2960   -6.0530   26.4150 C   0  0  0  0  0  0  0  0  0  0  0  0
    8.3030   -5.2460   27.0350 C   0  0  0  0  0  0  0  0  0  0  0  0
    7.3240   -5.6150   28.3840 Cl  0  0  0  0  0  0  0  0  0  0  0  0
  1  2  1  0
  1  3  2  0
  1  4  1  0
  4  5  1  0
  4  6  1  0
  5  7  1  0
  6  8  1  0
  5  9  1  1
  6 10  1  6
  7 11  1  0
  8 11  1  0
  9 12  1  0
  9 13  1  0
 12 13  1  0
 10 14  1  0
 11 15  1  0
 14 16  2  0
 14 17  1  0
 15 18  1  6
 15 19  1  0
 17 20  2  0
 16 21  1  0
 19 22  2  0
 19 23  1  0
 18 24  1  0
 20 25  1  0
 21 25  2  0
 23 26  1  0
 22 27  1  0
 23 28  2  0
 24 29  2  0
 24 30  1  0
 27 31  2  0
 28 31  1  0
 29 32  1  0
 30 33  1  0
 32 33  2  0
 33 34  1  0
M  END
