x1425_0-x1458_1
     RDKit          3D

 20 22  0  0  0  0  0  0  0  0999 V2000
    6.2240   -3.5710   25.4510 C   0  0  0  0  0  0  0  0  0  0  0  0
    6.8720   -4.1390   24.2000 C   0  0  0  0  0  0  0  0  0  0  0  0
    5.9290   -5.0730   23.4400 C   0  0  0  0  0  0  0  0  0  0  0  0
    4.9450   -3.3650   24.8600 C   0  0  2  0  0  0  0  0  0  0  0  0
    7.3180   -2.9970   23.2790 C   0  0  0  0  0  0  0  0  0  0  0  0
    5.4370   -2.4050   25.7470 C   0  0  2  0  0  0  0  0  0  0  0  0
    4.3270   -3.6560   25.0020 C   0  0  0  0  0  0  0  0  0  0  0  0
    4.3030   -2.9060   26.3970 C   0  0  2  0  0  0  0  0  0  0  0  0
    7.9170   -3.5230   21.9960 C   0  0  0  0  0  0  0  0  0  0  0  0
    6.5870   -5.5690   22.1770 C   0  0  0  0  0  0  0  0  0  0  0  0
    4.7300   -2.0540   26.8820 C   0  0  0  0  0  0  0  0  0  0  0  0
    3.7090   -3.9470   25.1450 C   0  0  0  0  0  0  0  0  0  0  0  0
    6.9790   -4.4350   21.3330 N   0  0  0  0  0  0  0  0  0  0  0  0
    3.5060   -2.6500   27.1520 C   0  0  0  0  0  0  0  0  0  0  0  0
    2.9980   -3.6020   26.2780 C   0  0  0  0  0  0  0  0  0  0  0  0
    6.4870   -4.2700   20.0840 C   0  0  0  0  0  0  0  0  0  0  0  0
    2.8260   -2.2860   28.2840 O   0  0  0  0  0  0  0  0  0  0  0  0
    5.6280   -5.0060   19.6180 O   0  0  0  0  0  0  0  0  0  0  0  0
    7.0360   -3.1350   19.2610 C   0  0  0  0  0  0  0  0  0  0  0  0
    1.4050   -2.4080   28.2820 C   0  0  0  0  0  0  0  0  0  0  0  0
  1  2  1  0
  2  3  1  0
  4  1  1  1
  2  5  1  0
  4  6  1  0
  4  7  1  0
  6  8  1  0
  5  9  1  0
  3 10  1  0
  6 11  1  6
  7 12  2  0
  8 12  1  1
  9 13  1  0
 10 13  1  0
 11 14  1  0
  8 15  1  0
 14 15  1  0
 13 16  1  0
 14 17  1  0
 16 18  2  0
 16 19  1  0
 17 20  1  0
M  END
