x1425_1-x0434_1
     RDKit          3D

 19 20  0  0  0  0  0  0  0  0999 V2000
    6.2670   -4.1390   20.2630 C   0  0  0  0  0  0  0  0  0  0  0  0
    7.0620   -3.2680   19.2930 C   0  0  0  0  0  0  0  0  0  0  0  0
    5.2030   -4.6170   19.8930 O   0  0  0  0  0  0  0  0  0  0  0  0
    6.8200   -4.4370   21.5070 N   0  0  0  0  0  0  0  0  0  0  0  0
    7.5570   -3.4070   22.2520 C   0  0  0  0  0  0  0  0  0  0  0  0
    6.2220   -5.3700   22.2530 C   0  0  0  0  0  0  0  0  0  0  0  0
    6.5920   -2.5640   23.0940 C   0  0  1  0  0  0  0  0  0  0  0  0
    5.5160   -4.7680   23.5070 C   0  0  0  0  0  0  0  0  0  0  0  0
    6.2110   -1.2480   22.3470 C   0  0  0  0  0  0  0  0  0  0  0  0
    5.3400   -3.3140   23.3870 N   0  0  0  0  0  0  0  0  0  0  0  0
    6.9440   -0.8620   21.2010 N   0  0  0  0  0  0  0  0  0  0  0  0
    8.3710   -0.7180   21.4630 C   0  0  0  0  0  0  0  0  0  0  0  0
    6.3480   -0.1170   20.1250 C   0  0  0  0  0  0  0  0  0  0  0  0
    8.9790    0.5900   21.4430 O   0  0  0  0  0  0  0  0  0  0  0  0
    6.9090   -0.0970   18.8380 C   0  0  0  0  0  0  0  0  0  0  0  0
    5.1650    0.6280   20.3310 C   0  0  0  0  0  0  0  0  0  0  0  0
    6.4310    0.5800   17.7570 N   0  0  0  0  0  0  0  0  0  0  0  0
    4.6280    1.3290   19.2860 C   0  0  0  0  0  0  0  0  0  0  0  0
    5.1990    1.3300   18.0610 C   0  0  0  0  0  0  0  0  0  0  0  0
  1  2  1  0
  1  3  2  0
  1  4  1  0
  4  5  1  0
  4  6  1  0
  5  7  1  0
  6  8  1  0
  7  9  1  6
  7 10  1  0
  8 10  1  0
  9 11  1  0
 11 12  1  0
 11 13  1  0
 12 14  2  0
 13 15  2  0
 13 16  1  0
 15 17  1  0
 16 18  2  0
 17 19  2  0
 18 19  1  0
M  END
