x1425_1-x1418_0-x0540_3
     RDKit          3D

 23 24  0  0  0  0  0  0  0  0999 V2000
    6.4010   -4.0870   20.2510 C   0  0  0  0  0  0  0  0  0  0  0  0
    7.1620   -3.2670   19.2190 C   0  0  0  0  0  0  0  0  0  0  0  0
    5.3530   -4.6460   19.9330 O   0  0  0  0  0  0  0  0  0  0  0  0
    7.0080   -4.2040   21.5040 N   0  0  0  0  0  0  0  0  0  0  0  0
    7.5070   -2.9720   22.1740 C   0  0  2  0  0  0  0  0  0  0  0  0
    6.6290   -5.3430   22.3530 C   0  0  0  0  0  0  0  0  0  0  0  0
    8.3060   -2.8850   23.5230 C   0  0  0  0  0  0  0  0  0  0  0  0
    6.5320   -2.6740   23.3250 C   0  0  1  0  0  0  0  0  0  0  0  0
    5.6730   -5.0130   23.2800 C   0  0  0  0  0  0  0  0  0  0  0  0
    5.2510   -1.9640   22.8370 C   0  0  0  0  0  0  0  0  0  0  0  0
    9.8390   -3.0130   23.2750 C   0  0  0  0  0  0  0  0  0  0  0  0
    6.1080   -3.8810   24.1160 N   0  0  0  0  0  0  0  0  0  0  0  0
    5.2750   -0.4570   23.1660 C   0  0  0  0  0  0  0  0  0  0  0  0
   10.7330   -1.7860   23.4100 C   0  0  0  0  0  0  0  0  0  0  0  0
    4.8930    0.3900   21.9500 C   0  0  0  0  0  0  0  0  0  0  0  0
   11.9810   -1.5080   22.5660 C   0  0  0  0  0  0  0  0  0  0  0  0
   10.5160   -0.4830   24.5390 S   0  0  0  0  0  0  0  0  0  0  0  0
    5.2830    1.8420   22.2090 C   0  0  0  0  0  0  0  0  0  0  0  0
   12.6290   -0.3530   22.8530 C   0  0  0  0  0  0  0  0  0  0  0  0
   11.9620    0.4240   23.9670 C   0  0  0  0  0  0  0  0  0  0  0  0
    4.1500    2.6730   22.7080 N   0  0  0  0  0  0  0  0  0  0  0  0
    3.0540    2.1300   23.3340 C   0  0  0  0  0  0  0  0  0  0  0  0
    3.0460    1.4660   24.3680 O   0  0  0  0  0  0  0  0  0  0  0  0
  1  2  1  0
  1  3  2  0
  1  4  1  0
  4  5  1  0
  4  6  1  0
  5  7  1  1
  5  8  1  0
  6  9  1  0
  8 10  1  6
  7 11  1  0
  8 12  1  0
  9 12  1  0
 10 13  1  0
 11 14  1  0
 13 15  1  0
 14 16  2  0
 14 17  1  0
 15 18  1  0
 16 19  1  0
 17 20  1  0
 19 20  2  0
 18 21  1  0
 21 22  1  0
 22 23  2  0
M  END
