x1425_0-x0692_0
     RDKit          3D

 19 20  0  0  0  0  0  0  0  0999 V2000
    2.7100   -2.3620   28.2630 O   0  0  0  0  0  0  0  0  0  0  0  0
    1.3190   -2.4180   28.0360 C   0  0  0  0  0  0  0  0  0  0  0  0
    3.5290   -2.6130   27.1960 C   0  0  0  0  0  0  0  0  0  0  0  0
    4.8900   -2.1410   26.9220 C   0  0  0  0  0  0  0  0  0  0  0  0
    3.0960   -3.4180   26.1810 C   0  0  0  0  0  0  0  0  0  0  0  0
    5.5780   -2.5070   25.7680 C   0  0  0  0  0  0  0  0  0  0  0  0
    3.8430   -3.7580   25.0250 C   0  0  0  0  0  0  0  0  0  0  0  0
    5.1820   -3.4090   24.5600 C   0  0  0  0  0  0  0  0  0  0  0  0
    6.6160   -2.8850   24.3170 C   0  0  0  0  0  0  0  0  0  0  0  0
    7.3950   -3.3660   23.0950 C   0  0  0  0  0  0  0  0  0  0  0  0
    8.5950   -2.7170   22.8190 C   0  0  0  0  0  0  0  0  0  0  0  0
    9.5330   -2.5700   23.8900 C   0  0  0  0  0  0  0  0  0  0  0  0
   10.5830   -1.5260   23.6280 C   0  0  0  0  0  0  0  0  0  0  0  0
   10.2960   -0.1580   23.8150 C   0  0  0  0  0  0  0  0  0  0  0  0
   11.8810   -1.8820   23.1910 C   0  0  0  0  0  0  0  0  0  0  0  0
   11.2350    0.8550   23.5820 C   0  0  0  0  0  0  0  0  0  0  0  0
   12.8120   -0.8720   22.9660 C   0  0  0  0  0  0  0  0  0  0  0  0
   10.8750    2.2920   23.7770 C   0  0  0  0  0  0  0  0  0  0  0  0
   12.4870    0.4620   23.1600 C   0  0  0  0  0  0  0  0  0  0  0  0
  1  2  1  0
  1  3  1  0
  3  4  2  0
  3  5  1  0
  4  6  1  0
  5  7  2  0
  6  8  2  0
  7  8  1  0
  8  9  1  0
  9 10  1  0
 10 11  1  0
 11 12  1  0
 12 13  1  0
 13 14  2  0
 13 15  1  0
 14 16  1  0
 15 17  2  0
 16 18  1  0
 16 19  2  0
 17 19  1  0
M  END
