x1425
     RDKit          3D

 18 19  0  0  0  0  0  0  0  0999 V2000
    5.6340   -3.7150   23.7090 N   0  0  0  0  0  0  0  0  0  0  0  0
    1.4050   -2.4080   28.2820 C   0  0  0  0  0  0  0  0  0  0  0  0
    2.8260   -2.2860   28.2840 O   0  0  0  0  0  0  0  0  0  0  0  0
    3.5060   -2.6500   27.1520 C   0  0  0  0  0  0  0  0  0  0  0  0
    6.7770   -4.3180   21.2360 N   0  0  0  0  0  0  0  0  0  0  0  0
    5.6690   -5.0070   19.3980 O   0  0  0  0  0  0  0  0  0  0  0  0
    2.9980   -3.6020   26.2780 C   0  0  0  0  0  0  0  0  0  0  0  0
    3.7090   -3.9470   25.1450 C   0  0  0  0  0  0  0  0  0  0  0  0
    4.9450   -3.3650   24.8600 C   0  0  0  0  0  0  0  0  0  0  0  0
    5.4370   -2.4050   25.7470 C   0  0  0  0  0  0  0  0  0  0  0  0
    4.7300   -2.0540   26.8820 C   0  0  0  0  0  0  0  0  0  0  0  0
    5.3530   -5.0130   23.0680 C   0  0  0  0  0  0  0  0  0  0  0  0
    6.3890   -5.4540   22.0580 C   0  0  0  0  0  0  0  0  0  0  0  0
    7.4960   -3.3560   22.0590 C   0  0  0  0  0  0  0  0  0  0  0  0
    6.5530   -2.7500   23.0740 C   0  0  0  0  0  0  0  0  0  0  0  0
    6.4210   -4.2050   19.9360 C   0  0  0  0  0  0  0  0  0  0  0  0
    6.9750   -3.0560   19.1310 C   0  0  0  0  0  0  0  0  0  0  0  0
    8.6000   -3.4160   18.4000 R   0  0  0  0  0  0  0  0  0  0  0  0
  2  3  1  0
  3  4  1  0
  4  7  2  0
  7  8  1  0
  1  9  1  0
  8  9  2  0
  9 10  1  0
  4 11  1  0
 10 11  2  0
  1 12  1  0
  5 13  1  0
 12 13  1  0
  5 14  1  0
  1 15  1  0
 14 15  1  0
  5 16  1  0
  6 16  2  0
 16 17  1  0
 17 18  1  0
M  END
