x1458_1-x0874_0
     RDKit          3D

 18 19  0  0  0  0  0  0  0  0999 V2000
    6.2320   -3.3190   25.3950 C   0  0  0  0  0  0  0  0  0  0  0  0
    6.4580   -3.5970   23.9170 C   0  0  2  0  0  0  0  0  0  0  0  0
    6.7600   -5.0830   23.6270 C   0  0  0  0  0  0  0  0  0  0  0  0
    5.1560   -3.4290   25.9790 O   0  0  0  0  0  0  0  0  0  0  0  0
    7.5460   -2.7080   23.2850 C   0  0  1  0  0  0  0  0  0  0  0  0
    8.9180   -2.5300   23.9890 C   0  0  0  0  0  0  0  0  0  0  0  0
    7.8420   -3.2670   21.9320 C   0  0  0  0  0  0  0  0  0  0  0  0
    6.6140   -5.3770   22.2620 C   0  0  0  0  0  0  0  0  0  0  0  0
    9.9550   -2.0130   22.9660 C   0  0  0  0  0  0  0  0  0  0  0  0
    6.7730   -4.1450   21.4990 N   0  0  0  0  0  0  0  0  0  0  0  0
    6.2930   -4.0630   20.2080 C   0  0  0  0  0  0  0  0  0  0  0  0
   10.7430   -0.8150   23.2160 C   0  0  0  0  0  0  0  0  0  0  0  0
    5.2450   -4.5920   19.8870 O   0  0  0  0  0  0  0  0  0  0  0  0
    7.1980   -3.3040   19.2370 C   0  0  0  0  0  0  0  0  0  0  0  0
   11.8650    0.0690   23.1770 C   0  0  0  0  0  0  0  0  0  0  0  0
   11.5420   -1.7460   22.4310 C   0  0  0  0  0  0  0  0  0  0  0  0
   13.0720   -0.0800   22.6090 C   0  0  0  0  0  0  0  0  0  0  0  0
   13.2170   -1.5100   21.8540 S   0  0  0  0  0  0  0  0  0  0  0  0
  2  1  1  1
  2  3  1  0
  1  4  2  0
  2  5  1  0
  5  6  1  1
  5  7  1  0
  3  8  1  0
  6  9  1  0
  7 10  1  0
  8 10  1  0
 10 11  1  0
  9 12  1  0
 11 13  2  0
 11 14  1  0
 12 15  1  0
 12 16  2  0
 15 17  2  0
 16 18  1  0
 17 18  1  0
M  END
