x1458_0-x0749_1-x1382_1
     RDKit          3D

 27 28  0  0  0  0  0  0  0  0999 V2000
    6.8150   -3.8680   26.6130 N   0  0  0  0  0  0  0  0  0  0  0  0
    7.6910   -4.9770   26.9980 C   0  0  0  0  0  0  0  0  0  0  0  0
    9.0400   -4.4970   27.5650 C   0  0  0  0  0  0  0  0  0  0  0  0
    7.2590   -2.5280   27.0260 C   0  0  0  0  0  0  0  0  0  0  0  0
    6.2190   -3.8510   25.3220 C   0  0  0  0  0  0  0  0  0  0  0  0
    7.0600   -5.7950   28.1340 C   0  0  0  0  0  0  0  0  0  0  0  0
    6.9010   -3.2190   24.2840 C   0  0  2  0  0  0  0  0  0  0  0  0
    5.8690   -2.4900   23.3690 C   0  0  0  0  0  0  0  0  0  0  0  0
    7.9490   -4.1370   23.5220 C   0  0  2  0  0  0  0  0  0  0  0  0
    6.2630   -1.1020   22.8100 C   0  0  0  0  0  0  0  0  0  0  0  0
    7.9640   -4.0100   22.1410 C   0  0  0  0  0  0  0  0  0  0  0  0
    7.7660   -5.6460   23.7910 C   0  0  0  0  0  0  0  0  0  0  0  0
    7.6090   -0.6020   23.3380 C   0  0  0  0  0  0  0  0  0  0  0  0
    6.6770   -4.3120   21.5390 N   0  0  0  0  0  0  0  0  0  0  0  0
    6.9840   -6.3200   22.6660 C   0  0  0  0  0  0  0  0  0  0  0  0
    6.4160   -3.9270   20.2190 C   0  0  0  0  0  0  0  0  0  0  0  0
    8.7100   -1.5590   23.0210 C   0  0  0  0  0  0  0  0  0  0  0  0
    6.0210   -5.4860   22.1040 C   0  0  0  0  0  0  0  0  0  0  0  0
    7.4760   -3.1740   19.3720 C   0  0  0  0  0  0  0  0  0  0  0  0
    5.3130   -4.2300   19.7700 O   0  0  0  0  0  0  0  0  0  0  0  0
   10.0720   -0.9630   22.9480 C   0  0  0  0  0  0  0  0  0  0  0  0
   11.0410   -1.6340   22.1970 C   0  0  0  0  0  0  0  0  0  0  0  0
   10.3800    0.2310   23.6090 C   0  0  0  0  0  0  0  0  0  0  0  0
   12.2650   -1.0540   22.1610 C   0  0  0  0  0  0  0  0  0  0  0  0
   11.6500    0.7750   23.5480 C   0  0  0  0  0  0  0  0  0  0  0  0
   13.3930   -1.8460   21.2290 Cl  0  0  0  0  0  0  0  0  0  0  0  0
   12.6090    0.1230   22.8130 C   0  0  0  0  0  0  0  0  0  0  0  0
  1  2  1  0
  2  3  1  0
  1  4  1  0
  1  5  1  0
  2  6  1  0
  7  5  1  1
  7  8  1  0
  7  9  1  0
  8 10  1  0
  9 11  1  6
  9 12  1  0
 10 13  1  0
 11 14  1  0
 12 15  1  0
 14 16  1  0
 13 17  1  0
 14 18  1  0
 15 18  1  0
 16 19  1  0
 16 20  2  0
 17 21  1  0
 21 22  2  0
 21 23  1  0
 22 24  1  0
 23 25  2  0
 24 26  1  0
 24 27  2  0
 25 27  1  0
M  END
