x1458_1-x1380_1
     RDKit          3D

 11 11  0  0  0  0  0  0  0  0999 V2000
    5.8060   -4.0180   25.4820 C   0  0  0  0  0  0  0  0  0  0  0  0
    6.5510   -4.2530   24.2050 C   0  0  0  0  0  0  0  0  0  0  0  0
    5.6690   -5.0630   23.2480 C   0  0  0  0  0  0  0  0  0  0  0  0
    5.0200   -3.1080   25.6890 O   0  0  0  0  0  0  0  0  0  0  0  0
    7.2730   -3.0990   23.4900 C   0  0  0  0  0  0  0  0  0  0  0  0
    7.7550   -3.4620   22.0940 C   0  0  0  0  0  0  0  0  0  0  0  0
    6.3990   -5.5570   22.1670 C   0  0  0  0  0  0  0  0  0  0  0  0
    6.8600   -4.4120   21.4060 N   0  0  0  0  0  0  0  0  0  0  0  0
    6.3390   -4.0690   20.1730 C   0  0  0  0  0  0  0  0  0  0  0  0
    5.2310   -4.4620   19.8490 O   0  0  0  0  0  0  0  0  0  0  0  0
    7.2140   -3.2510   19.2300 C   0  0  0  0  0  0  0  0  0  0  0  0
  1  2  1  0
  2  3  1  0
  1  4  2  0
  2  5  1  0
  5  6  1  0
  3  7  1  0
  6  8  1  0
  7  8  1  0
  8  9  1  0
  9 10  2  0
  9 11  1  0
M  END
