x1478_1-x0734_0
     RDKit          3D

 18 20  0  0  0  0  0  0  0  0999 V2000
    5.2190   -4.8500   26.1030 N   0  0  0  0  0  0  0  0  0  0  0  0
    4.5890   -5.7290   25.5360 N   0  0  0  0  0  0  0  0  0  0  0  0
    5.1830   -5.7880   24.2730 C   0  0  0  0  0  0  0  0  0  0  0  0
    4.6890   -3.8940   26.6460 O   0  0  0  0  0  0  0  0  0  0  0  0
    6.6760   -4.9730   26.1820 C   0  0  0  0  0  0  0  0  0  0  0  0
    7.5300   -4.7050   25.0870 C   0  0  0  0  0  0  0  0  0  0  0  0
    7.1970   -5.3720   27.4070 C   0  0  0  0  0  0  0  0  0  0  0  0
    5.7770   -5.8480   23.0110 C   0  0  0  0  0  0  0  0  0  0  0  0
    8.9030   -4.8510   25.2710 C   0  0  0  0  0  0  0  0  0  0  0  0
    8.5620   -5.5090   27.5560 C   0  0  0  0  0  0  0  0  0  0  0  0
    4.9410   -4.6800   23.5360 N   0  0  0  0  0  0  0  0  0  0  0  0
    6.3710   -5.9070   21.7480 C   0  0  0  0  0  0  0  0  0  0  0  0
    9.4120   -5.2520   26.4960 C   0  0  0  0  0  0  0  0  0  0  0  0
    5.8670   -4.5000   22.6190 C   0  0  0  0  0  0  0  0  0  0  0  0
    4.5330   -3.6170   24.2350 C   0  0  0  0  0  0  0  0  0  0  0  0
    6.4280   -3.2600   22.3460 C   0  0  0  0  0  0  0  0  0  0  0  0
    5.0290   -2.3460   24.0450 C   0  0  0  0  0  0  0  0  0  0  0  0
    5.9980   -2.1590   23.0830 C   0  0  0  0  0  0  0  0  0  0  0  0
  1  2  2  3
  2  3  1  0
  1  4  1  0
  1  5  1  0
  5  6  2  0
  5  7  1  0
  3  8  1  0
  6  9  1  0
  7 10  2  0
  3 11  1  0
  8 12  2  0
  9 13  2  0
 10 13  1  0
 11 14  1  0
 12 14  1  0
 11 15  1  0
 14 16  1  0
 15 17  2  0
 16 18  2  0
 17 18  1  0
M  CHG  2   1   1   4  -1
M  END
