x1493_0-x1418_0-x0689_1
     RDKit          3D

 20 21  0  0  0  0  0  0  0  0999 V2000
    4.8020   -6.1590   26.1140 C   0  0  0  0  0  0  0  0  0  0  0  0
    6.1020   -5.5450   25.5730 C   0  0  0  0  0  0  0  0  0  0  0  0
    7.1320   -5.4980   26.2350 O   0  0  0  0  0  0  0  0  0  0  0  0
    5.8960   -5.0570   24.1970 N   0  0  0  0  0  0  0  0  0  0  0  0
    6.8350   -4.1610   23.5160 C   0  0  1  0  0  0  0  0  0  0  0  0
    5.0170   -5.8240   23.2920 C   0  0  0  0  0  0  0  0  0  0  0  0
    7.7290   -3.3880   24.4600 C   0  0  0  0  0  0  0  0  0  0  0  0
    7.7210   -4.9950   22.6720 C   0  0  0  0  0  0  0  0  0  0  0  0
    5.7520   -6.3330   22.0310 C   0  0  0  0  0  0  0  0  0  0  0  0
    8.5490   -2.2520   23.7960 C   0  0  0  0  0  0  0  0  0  0  0  0
    6.8090   -5.3690   21.6100 N   0  0  0  0  0  0  0  0  0  0  0  0
    6.5720   -4.4950   20.5580 C   0  0  0  0  0  0  0  0  0  0  0  0
    9.9630   -2.7160   23.3520 C   0  0  0  0  0  0  0  0  0  0  0  0
    5.5180   -4.4610   19.9150 O   0  0  0  0  0  0  0  0  0  0  0  0
    7.7450   -3.5840   20.2250 C   0  0  0  0  0  0  0  0  0  0  0  0
   10.9660   -1.6010   23.3530 C   0  0  0  0  0  0  0  0  0  0  0  0
   12.1050   -1.4810   22.5820 C   0  0  0  0  0  0  0  0  0  0  0  0
   10.7500   -0.2380   24.4180 S   0  0  0  0  0  0  0  0  0  0  0  0
   12.8660   -0.2100   22.8480 C   0  0  0  0  0  0  0  0  0  0  0  0
   12.1600    0.5890   23.8950 C   0  0  0  0  0  0  0  0  0  0  0  0
  1  2  1  0
  2  3  2  0
  2  4  1  0
  4  5  1  0
  4  6  1  0
  5  7  1  1
  5  8  1  0
  6  9  1  0
  7 10  1  0
  8 11  1  0
  9 11  1  0
 11 12  1  0
 10 13  1  0
 12 14  2  0
 12 15  1  0
 13 16  1  0
 16 17  2  0
 16 18  1  0
 17 19  1  0
 18 20  1  0
 19 20  2  0
M  END
