x1493_0-x0769_0-x1386_0
     RDKit          3D

 20 21  0  0  0  0  0  0  0  0999 V2000
    4.9460   -6.1870   26.3870 C   0  0  0  0  0  0  0  0  0  0  0  0
    6.1810   -5.5690   25.7330 C   0  0  0  0  0  0  0  0  0  0  0  0
    7.2250   -5.5180   26.3910 O   0  0  0  0  0  0  0  0  0  0  0  0
    6.1250   -5.0860   24.4250 N   0  0  0  0  0  0  0  0  0  0  0  0
    7.3540   -4.4320   23.8980 C   0  0  2  0  0  0  0  0  0  0  0  0
    5.0990   -5.5120   23.4350 C   0  0  0  0  0  0  0  0  0  0  0  0
    7.1660   -2.9040   23.9380 C   0  0  0  0  0  0  0  0  0  0  0  0
    7.7960   -5.0350   22.7140 C   0  0  0  0  0  0  0  0  0  0  0  0
    5.6900   -6.0390   22.1180 C   0  0  0  0  0  0  0  0  0  0  0  0
    8.3260   -2.0310   23.3890 C   0  0  0  0  0  0  0  0  0  0  0  0
    6.7470   -5.1500   21.7150 N   0  0  0  0  0  0  0  0  0  0  0  0
    6.6490   -4.3670   20.5780 C   0  0  0  0  0  0  0  0  0  0  0  0
    9.7210   -2.6860   23.3380 C   0  0  0  0  0  0  0  0  0  0  0  0
    5.6190   -4.3350   19.8860 O   0  0  0  0  0  0  0  0  0  0  0  0
    7.9190   -3.5880   20.2510 C   0  0  0  0  0  0  0  0  0  0  0  0
   10.8340   -1.6750   23.2180 C   0  0  0  0  0  0  0  0  0  0  0  0
   12.1220   -1.9270   22.8390 C   0  0  0  0  0  0  0  0  0  0  0  0
   10.7570   -0.1710   23.4790 C   0  0  0  0  0  0  0  0  0  0  0  0
   12.9970   -0.6850   22.8020 C   0  0  0  0  0  0  0  0  0  0  0  0
   12.1890    0.7400   23.2410 S   0  0  0  0  0  0  0  0  0  0  0  0
  1  2  1  0
  2  3  2  0
  2  4  1  0
  4  5  1  0
  4  6  1  0
  5  7  1  6
  5  8  1  0
  6  9  1  0
  7 10  1  0
  8 11  1  0
  9 11  1  0
 11 12  1  0
 10 13  1  0
 12 14  2  0
 12 15  1  0
 13 16  1  0
 16 17  1  0
 16 18  2  0
 17 19  2  0
 18 20  1  0
 19 20  1  0
M  END
