x2563
     RDKit          3D

 20 22  0  0  0  0  0  0  0  0999 V2000
    6.1560    0.7260   17.2360 N   0  0  0  0  0  0  0  0  0  0  0  0
    8.6610   -0.1470   21.0580 C   0  0  0  0  0  0  0  0  0  0  0  0
    8.8490    1.0470   20.8270 O   0  0  0  0  0  0  0  0  0  0  0  0
    7.6490   -0.9670   20.2850 C   0  0  0  0  0  0  0  0  0  0  0  0
    9.2830   -0.8240   22.0430 N   0  0  0  0  0  0  0  0  0  0  0  0
    6.7210   -0.1400   19.4260 C   0  0  0  0  0  0  0  0  0  0  0  0
    6.9170    0.0020   18.0660 C   0  0  0  0  0  0  0  0  0  0  0  0
    5.1230    1.3700   17.7580 C   0  0  0  0  0  0  0  0  0  0  0  0
    4.7820    1.3340   19.1270 C   0  0  0  0  0  0  0  0  0  0  0  0
    3.6850    2.0430   19.6750 C   0  0  0  0  0  0  0  0  0  0  0  0
    3.4080    1.9700   21.0070 C   0  0  0  0  0  0  0  0  0  0  0  0
    4.2040    1.2120   21.8540 C   0  0  0  0  0  0  0  0  0  0  0  0
    5.2740    0.5140   21.3670 C   0  0  0  0  0  0  0  0  0  0  0  0
    5.6020    0.5500   19.9860 C   0  0  0  0  0  0  0  0  0  0  0  0
   10.0840   -0.2510   23.0480 C   0  0  0  0  0  0  0  0  0  0  0  0
   11.4230    0.0370   22.8040 C   0  0  0  0  0  0  0  0  0  0  0  0
   12.1410    0.7910   23.7170 C   0  0  0  0  0  0  0  0  0  0  0  0
   11.5400    1.2460   24.8710 C   0  0  0  0  0  0  0  0  0  0  0  0
   10.2190    0.9390   25.1290 C   0  0  0  0  0  0  0  0  0  0  0  0
    9.4880    0.1870   24.2270 C   0  0  0  0  0  0  0  0  0  0  0  0
  2  3  2  0
  2  4  1  0
  2  5  1  0
  4  6  1  0
  1  7  2  0
  6  7  1  0
  1  8  1  0
  8  9  2  0
  9 10  1  0
 10 11  2  0
 11 12  1  0
 12 13  2  0
  6 14  2  0
  9 14  1  0
 13 14  1  0
  5 15  1  0
 15 16  2  0
 16 17  1  0
 17 18  2  0
 18 19  1  0
 15 20  1  0
 19 20  2  0
M  END
