x3108
     RDKit          3D

 21 22  0  0  0  0  0  0  0  0999 V2000
    6.7540    0.1870   17.9080 N   0  0  0  0  0  0  0  0  0  0  0  0
    6.0590    1.4860   21.9640 C   0  0  0  0  0  0  0  0  0  0  0  0
    9.8180    1.5040   21.1660 O   0  0  0  0  0  0  0  0  0  0  0  0
    6.2820    0.9690   20.5670 C   0  0  0  0  0  0  0  0  0  0  0  0
    8.3140   -0.1970   21.2520 N   0  0  0  0  0  0  0  0  0  0  0  0
    8.2970    0.1290   25.0160 O   0  0  0  0  0  0  0  0  0  0  0  0
    5.3950    1.2910   19.5400 C   0  0  0  0  0  0  0  0  0  0  0  0
    9.4080   -1.1760   23.5670 N   0  0  0  0  0  0  0  0  0  0  0  0
    5.6670    0.8840   18.2490 C   0  0  0  0  0  0  0  0  0  0  0  0
    9.8070   -5.1830   24.5150 N   0  0  0  0  0  0  0  0  0  0  0  0
    7.6030   -0.1470   18.8880 C   0  0  0  0  0  0  0  0  0  0  0  0
    7.4160    0.2060   20.2280 C   0  0  0  0  0  0  0  0  0  0  0  0
    9.4010    0.4820   21.6910 C   0  0  0  0  0  0  0  0  0  0  0  0
   10.0950   -0.0820   22.9190 C   0  0  0  0  0  0  0  0  0  0  0  0
    8.4650   -0.9630   24.4790 C   0  0  0  0  0  0  0  0  0  0  0  0
    7.5670   -2.1450   24.7890 C   0  0  0  0  0  0  0  0  0  0  0  0
    8.2980   -3.4180   25.1560 C   0  0  0  0  0  0  0  0  0  0  0  0
    8.0550   -4.0710   26.3530 C   0  0  0  0  0  0  0  0  0  0  0  0
    8.6770   -5.2730   26.6230 C   0  0  0  0  0  0  0  0  0  0  0  0
    9.5420   -5.7890   25.6770 C   0  0  0  0  0  0  0  0  0  0  0  0
    9.1840   -4.0200   24.2760 C   0  0  0  0  0  0  0  0  0  0  0  0
  2  4  1  0
  4  7  2  0
  1  9  2  0
  7  9  1  0
  1 11  1  0
  4 12  1  0
  5 12  1  0
 11 12  2  0
  3 13  2  0
  5 13  1  0
  8 14  1  0
 13 14  1  0
  6 15  2  0
  8 15  1  0
 15 16  1  0
 16 17  1  0
 17 18  1  0
 18 19  2  0
 10 20  2  0
 19 20  1  0
 10 21  1  0
 17 21  2  0
M  END
