x3113
     RDKit          3D

 31 32  0  0  0  0  0  0  0  0999 V2000
    7.6080   -1.4270   21.7800 N   0  0  0  0  0  0  0  0  0  0  0  0
    8.1940   -4.4420   20.6320 C   0  0  0  0  0  0  0  0  0  0  0  0
    5.6170   -2.2210   21.0590 O   0  0  0  0  0  0  0  0  0  0  0  0
    7.1930   -3.8710   21.6600 C   0  0  0  0  0  0  0  0  0  0  0  0
    8.2490    1.6860   22.9580 N   0  0  0  0  0  0  0  0  0  0  0  0
    9.2210    1.2110   20.9950 O   0  0  0  0  0  0  0  0  0  0  0  0
    6.7510   -2.4420   21.4470 C   0  0  0  0  0  0  0  0  0  0  0  0
    6.7210    0.3060   17.7590 N   0  0  0  0  0  0  0  0  0  0  0  0
   11.8720    4.0570   22.8720 O   0  0  0  0  0  0  0  0  0  0  0  0
    7.2190   -0.0140   21.5080 C   0  0  1  0  0  0  0  0  0  0  0  0
    8.3290    1.0080   21.8120 C   0  0  0  0  0  0  0  0  0  0  0  0
    9.2410    2.6840   23.3450 C   0  0  0  0  0  0  0  0  0  0  0  0
   10.6200    2.0730   23.5610 C   0  0  0  0  0  0  0  0  0  0  0  0
   11.7080    3.0740   23.8710 C   0  0  0  0  0  0  0  0  0  0  0  0
   13.1600    4.6600   22.9240 C   0  0  0  0  0  0  0  0  0  0  0  0
    6.5570    0.2580   20.1640 C   0  0  0  0  0  0  0  0  0  0  0  0
    7.1650   -0.0780   18.9610 C   0  0  0  0  0  0  0  0  0  0  0  0
    5.6000    1.0350   17.7270 C   0  0  0  0  0  0  0  0  0  0  0  0
    4.8980    1.4020   18.8610 C   0  0  0  0  0  0  0  0  0  0  0  0
    5.3890    1.0040   20.0880 C   0  0  0  0  0  0  0  0  0  0  0  0
    8.8540   -1.6710   22.4560 C   0  0  0  0  0  0  0  0  0  0  0  0
   10.0480   -1.7040   21.7420 C   0  0  0  0  0  0  0  0  0  0  0  0
   11.2540   -1.8520   22.4060 C   0  0  0  0  0  0  0  0  0  0  0  0
   11.3040   -1.9770   23.7930 C   0  0  0  0  0  0  0  0  0  0  0  0
   10.1010   -1.9730   24.4960 C   0  0  0  0  0  0  0  0  0  0  0  0
    8.8890   -1.8170   23.8420 C   0  0  0  0  0  0  0  0  0  0  0  0
   12.6430   -2.0100   24.5410 C   0  0  2  0  0  0  0  0  0  0  0  0
   13.8350   -2.2260   23.5990 C   0  0  0  0  0  0  0  0  0  0  0  0
   12.6640   -3.1350   25.5900 C   0  0  0  0  0  0  0  0  0  0  0  0
   12.8490   -0.6680   25.2350 C   0  0  0  0  0  0  0  0  0  0  0  0
    8.1370   -3.7570   18.9460 R   0  0  0  0  0  0  0  0  0  0  0  0
  2  4  1  0
  1  7  1  0
  3  7  2  0
  4  7  1  0
  1 10  1  0
  5 11  1  0
  6 11  2  0
 10 11  1  1
  5 12  1  0
 12 13  1  0
  9 14  1  0
 13 14  1  0
  9 15  1  0
 10 16  1  0
  8 17  2  0
 16 17  1  0
  8 18  1  0
 18 19  2  0
 16 20  2  0
 19 20  1  0
  1 21  1  0
 21 22  2  0
 22 23  1  0
 23 24  2  0
 24 25  1  0
 21 26  1  0
 25 26  2  0
 24 27  1  0
 27 28  1  6
 27 29  1  0
 27 30  1  0
  2 31  1  0
M  END
