CVD-0003034|dock_bobby27042020.89|mol2|17|dock3
     RDKit          3D

 42 44  0  0  0  0  0  0  0  0999 V2000
   10.8981   -0.2270   24.6180 C   0  0  0  0  0  0  0  0  0  0  0  0
   11.2380   -1.3204   23.6174 C   0  0  0  0  0  0  0  0  0  0  0  0
   12.7098   -1.6789   23.7128 C   0  0  0  0  0  0  0  0  0  0  0  0
   10.8226   -0.9552   22.1895 C   0  0  0  0  0  0  0  0  0  0  0  0
    9.3388   -0.8498   21.8110 C   0  0  0  0  0  0  0  0  0  0  0  0
    9.1279   -0.5564   20.3906 N   0  0  0  0  0  0  0  0  0  0  0  0
    7.8040   -0.6451   19.8693 C   0  0  0  0  0  0  0  0  0  0  0  0
    7.6629   -0.3136   18.3886 C   0  0  0  0  0  0  0  0  0  0  0  0
    6.2256    0.2114   18.3076 C   0  0  0  0  0  0  0  0  0  0  0  0
    6.0846    0.9948   19.6034 C   0  0  0  0  0  0  0  0  0  0  0  0
    4.6969    1.0084   20.1974 C   0  0  0  0  0  0  0  0  0  0  0  0
    3.7736    1.8429   19.4393 N   0  0  0  0  0  0  0  0  0  0  0  0
    2.9358    2.6940   20.0316 C   0  0  0  0  0  0  0  0  0  0  0  0
    2.8809    2.8364   21.2523 O   0  0  0  0  0  0  0  0  0  0  0  0
    2.0528    3.4796   19.1340 C   0  0  0  0  0  0  0  0  0  0  0  0
    0.8616    4.2258   19.4686 C   0  0  0  0  0  0  0  0  0  0  0  0
    0.4486    4.7513   18.2794 C   0  0  0  0  0  0  0  0  0  0  0  0
    1.3058    4.3474   17.3303 N   0  0  0  0  0  0  0  0  0  0  0  0
    1.2867    4.6792   15.9108 C   0  0  0  0  0  0  0  0  0  0  0  0
    2.3144    3.5712   17.8144 N   0  0  0  0  0  0  0  0  0  0  0  0
    6.9738    0.3254   20.5491 O   0  0  0  0  0  0  0  0  0  0  0  0
    8.5494   -2.0956   22.2115 C   0  0  0  0  0  0  0  0  0  0  0  0
    9.0832   -3.2016   22.2098 O   0  0  0  0  0  0  0  0  0  0  0  0
    7.2676   -1.9019   22.5392 N   0  0  0  0  0  0  0  0  0  0  0  0
    6.3856   -2.9799   22.9642 C   0  0  0  0  0  0  0  0  0  0  0  0
    6.4436   -4.1903   22.0180 C   0  0  0  0  0  0  0  0  0  0  0  0
    5.3920   -5.2277   22.3474 C   0  0  0  0  0  0  0  0  0  0  0  0
    6.2725   -3.7359   20.6746 O   0  0  0  0  0  0  0  0  0  0  0  0
    6.7725   -3.4089   24.3753 C   0  0  0  0  0  0  0  0  0  0  0  0
    7.9549   -3.5149   24.6895 O   0  0  0  0  0  0  0  0  0  0  0  0
    5.7593   -3.6491   25.2156 N   0  0  0  0  0  0  0  0  0  0  0  0
    5.9463   -4.0974   26.5890 C   0  0  0  0  0  0  0  0  0  0  0  0
    6.6718   -5.4525   26.6300 C   0  0  0  0  0  0  0  0  0  0  0  0
    6.3247   -6.2771   27.8458 C   0  0  0  0  0  0  0  0  0  0  0  0
    5.1908   -7.0746   27.8609 C   0  0  0  0  0  0  0  0  0  0  0  0
    4.8704   -7.8289   28.9774 C   0  0  0  0  0  0  0  0  0  0  0  0
    5.6799   -7.7934   30.0923 C   0  0  0  0  0  0  0  0  0  0  0  0
    6.8095   -7.0036   30.0909 C   0  0  0  0  0  0  0  0  0  0  0  0
    7.1295   -6.2497   28.9741 C   0  0  0  0  0  0  0  0  0  0  0  0
    6.6969   -3.0675   27.4224 C   0  0  0  0  0  0  0  0  0  0  0  0
    6.6711   -3.3370   28.7033 O   0  0  0  0  0  0  0  0  0  0  0  0
    7.2542   -2.1004   26.9513 O   0  0  0  0  0  0  0  0  0  0  0  0
  1  2  1  0
  2  3  1  0
  2  4  1  0
  4  5  1  0
  5  6  1  0
  6  7  1  0
  7  8  1  0
  8  9  1  0
  9 10  1  0
 10 11  1  0
 11 12  1  0
 12 13  1  0
 13 14  2  0
 13 15  1  0
 15 16  1  0
 16 17  2  0
 17 18  1  0
 18 19  1  0
 18 20  1  0
 10 21  1  0
  5 22  1  0
 22 23  2  0
 22 24  1  0
 24 25  1  0
 25 26  1  0
 26 27  1  0
 26 28  1  0
 25 29  1  0
 29 30  2  0
 29 31  1  0
 31 32  1  0
 32 33  1  0
 33 34  1  0
 34 35  2  0
 35 36  1  0
 36 37  2  0
 37 38  1  0
 38 39  2  0
 32 40  1  0
 40 41  1  0
 40 42  2  0
 21  7  1  0
 39 34  1  0
 20 15  2  0
M  END
