CVD-0000196|dock_bobby27042020.42|mol2|24|dock1
     RDKit          3D

 29 33  0  0  0  0  0  0  0  0999 V2000
   15.1986    5.3021   23.7602 O   0  0  0  0  0  0  0  0  0  0  0  0
   13.9856    5.4625   23.0048 S   0  0  0  0  0  0  0  0  0  0  0  0
   13.9828    6.4209   21.9328 O   0  0  0  0  0  0  0  0  0  0  0  0
   12.6042    5.7915   24.1026 C   0  0  0  0  0  0  0  0  0  0  0  0
   11.9122    4.4538   24.3148 C   0  0  0  0  0  0  0  0  0  0  0  0
   12.0130    3.6817   22.9922 C   0  0  0  0  0  0  0  0  0  0  0  0
   13.4082    3.8603   22.4327 C   0  0  0  0  0  0  0  0  0  0  0  0
   11.6787    2.2456   23.0924 N   0  0  0  0  0  0  0  0  0  0  0  0
   10.4140    2.0114   23.7683 C   0  0  0  0  0  0  0  0  0  0  0  0
   10.2229    0.5354   24.0555 C   0  0  0  0  0  0  0  0  0  0  0  0
   10.3441   -0.2611   22.8228 N   0  0  0  0  0  0  0  0  0  0  0  0
   11.5291    0.0654   22.0326 C   0  0  0  0  0  0  0  0  0  0  0  0
   11.6610    1.5423   21.8161 C   0  0  0  0  0  0  0  0  0  0  0  0
    9.5883   -1.3890   22.5871 C   0  0  0  0  0  0  0  0  0  0  0  0
    9.6337   -2.2624   23.5778 N   0  0  0  0  0  0  0  0  0  0  0  0
    8.8287   -3.3303   23.5310 C   0  0  0  0  0  0  0  0  0  0  0  0
    7.9818   -3.6354   22.5557 N   0  0  0  0  0  0  0  0  0  0  0  0
    7.9894   -2.8047   21.4689 C   0  0  0  0  0  0  0  0  0  0  0  0
    7.1447   -3.1268   20.3807 C   0  0  0  0  0  0  0  0  0  0  0  0
    7.1322   -2.3510   19.2609 C   0  0  0  0  0  0  0  0  0  0  0  0
    7.9513   -1.2472   19.1640 C   0  0  0  0  0  0  0  0  0  0  0  0
    8.7793   -0.9003   20.1897 C   0  0  0  0  0  0  0  0  0  0  0  0
    8.8100   -1.6469   21.3993 C   0  0  0  0  0  0  0  0  0  0  0  0
    8.8830   -4.2662   24.6777 C   0  0  0  0  0  0  0  0  0  0  0  0
   10.0277   -4.3918   25.4557 C   0  0  0  0  0  0  0  0  0  0  0  0
   10.0447   -5.2759   26.5201 C   0  0  0  0  0  0  0  0  0  0  0  0
    8.9118   -6.0134   26.7784 C   0  0  0  0  0  0  0  0  0  0  0  0
    7.7968   -5.9181   26.0528 N   0  0  0  0  0  0  0  0  0  0  0  0
    7.7986   -5.0592   25.0288 C   0  0  0  0  0  0  0  0  0  0  0  0
  1  2  2  0
  2  3  2  0
  2  4  1  0
  4  5  1  0
  5  6  1  0
  6  7  1  0
  6  8  1  0
  8  9  1  0
  9 10  1  0
 10 11  1  0
 11 12  1  0
 12 13  1  0
 11 14  1  0
 14 15  2  0
 15 16  1  0
 16 17  2  0
 17 18  1  0
 18 19  2  0
 19 20  1  0
 20 21  2  0
 21 22  1  0
 22 23  2  0
 16 24  1  0
 24 25  2  0
 25 26  1  0
 26 27  2  0
 27 28  1  0
 28 29  2  0
  7  2  1  0
 13  8  1  0
 23 14  1  0
 29 24  1  0
 23 18  1  0
M  END
