CVD-0001444|dock_bobby27042020.52|mol2|35|dock2
     RDKit          3D

 24 26  0  0  0  0  0  0  0  0999 V2000
    8.0664   -5.8700   27.9917 C   0  0  0  0  0  0  0  0  0  0  0  0
    7.6230   -6.0786   26.5727 C   0  0  0  0  0  0  0  0  0  0  0  0
    6.6615   -6.8009   26.3338 O   0  0  0  0  0  0  0  0  0  0  0  0
    8.3008   -5.4752   25.5584 N   0  0  0  0  0  0  0  0  0  0  0  0
    7.9378   -5.6444   24.1496 C   0  0  0  0  0  0  0  0  0  0  0  0
    7.7326   -4.2937   23.4893 C   0  0  0  0  0  0  0  0  0  0  0  0
    8.9480   -3.4823   23.6052 N   0  0  0  0  0  0  0  0  0  0  0  0
    8.7681   -2.1875   22.9322 C   0  0  0  0  0  0  0  0  0  0  0  0
   10.0384   -1.3744   22.8619 C   0  0  0  0  0  0  0  0  0  0  0  0
   11.2687   -2.0100   22.7832 C   0  0  0  0  0  0  0  0  0  0  0  0
   12.4306   -1.3026   22.7156 C   0  0  0  0  0  0  0  0  0  0  0  0
   12.4210    0.1122   22.7226 C   0  0  0  0  0  0  0  0  0  0  0  0
   13.5978    0.8958   22.6552 C   0  0  0  0  0  0  0  0  0  0  0  0
   13.5361    2.2563   22.6644 C   0  0  0  0  0  0  0  0  0  0  0  0
   12.3085    2.8957   22.7394 C   0  0  0  0  0  0  0  0  0  0  0  0
   11.1448    2.1879   22.8084 C   0  0  0  0  0  0  0  0  0  0  0  0
   11.1698    0.7743   22.8011 C   0  0  0  0  0  0  0  0  0  0  0  0
    9.9921   -0.0052   22.8695 C   0  0  0  0  0  0  0  0  0  0  0  0
   12.2502    4.6619   22.7564 S   0  0  0  0  0  0  0  0  0  0  0  0
   13.0903    5.2092   21.5083 N   0  0  0  0  0  0  0  0  0  0  0  0
   12.9210    5.1006   23.9434 O   0  0  0  0  0  0  0  0  0  0  0  0
   10.8863    5.0469   22.5502 O   0  0  0  0  0  0  0  0  0  0  0  0
    9.2565   -3.2853   25.0193 C   0  0  0  0  0  0  0  0  0  0  0  0
    9.4800   -4.6175   25.7116 C   0  0  0  0  0  0  0  0  0  0  0  0
  1  2  1  0
  2  3  2  0
  2  4  1  0
  4  5  1  0
  5  6  1  0
  6  7  1  0
  7  8  1  0
  8  9  1  0
  9 10  2  0
 10 11  1  0
 11 12  2  0
 12 13  1  0
 13 14  2  0
 14 15  1  0
 15 16  2  0
 16 17  1  0
 17 18  2  0
 15 19  1  0
 19 20  1  0
 19 21  2  0
 19 22  2  0
  7 23  1  0
 23 24  1  0
 24  4  1  0
 18  9  1  0
 17 12  1  0
M  END
