CVD-0001335|dock_bobby27042020.38|mol2|28|dock3
     RDKit          3D

 31 33  0  0  0  0  0  0  0  0999 V2000
   11.7646    6.5220   26.3255 C   0  0  0  0  0  0  0  0  0  0  0  0
   12.4894    6.5636   25.0122 C   0  0  0  0  0  0  0  0  0  0  0  0
   12.9593    7.6040   24.5627 O   0  0  0  0  0  0  0  0  0  0  0  0
   12.5786    5.4063   24.3537 N   0  0  0  0  0  0  0  0  0  0  0  0
   13.2356    5.2881   23.0599 C   0  0  0  0  0  0  0  0  0  0  0  0
   12.2953    4.7607   21.9945 C   0  0  0  0  0  0  0  0  0  0  0  0
   11.5888    3.5026   22.4067 C   0  0  0  0  0  0  0  0  0  0  0  0
   10.2504    3.3325   22.6089 C   0  0  0  0  0  0  0  0  0  0  0  0
    9.9824    2.0422   22.9778 N   0  0  0  0  0  0  0  0  0  0  0  0
   11.1654    1.3465   23.0202 C   0  0  0  0  0  0  0  0  0  0  0  0
   11.3986    0.0068   23.3430 C   0  0  0  0  0  0  0  0  0  0  0  0
   10.2781   -0.9359   23.7216 C   0  0  0  0  0  0  0  0  0  0  0  0
   10.1520   -2.1418   22.7950 C   0  0  0  0  0  0  0  0  0  0  0  0
    9.0325   -3.1251   23.1368 C   0  0  0  0  0  0  0  0  0  0  0  0
    7.5709   -2.6807   23.0123 C   0  0  0  0  0  0  0  0  0  0  0  0
    6.9997   -2.5376   24.4101 C   0  0  0  0  0  0  0  0  0  0  0  0
    6.7382   -3.8535   25.0011 N   0  0  0  0  0  0  0  0  0  0  0  0
    5.8638   -4.6839   24.1721 C   0  0  0  0  0  0  0  0  0  0  0  0
    6.4350   -4.8270   22.7743 C   0  0  0  0  0  0  0  0  0  0  0  0
    6.6964   -3.5113   22.1832 N   0  0  0  0  0  0  0  0  0  0  0  0
    6.1362   -3.1175   20.9991 C   0  0  0  0  0  0  0  0  0  0  0  0
    6.4263   -1.7426   20.4695 C   0  0  0  0  0  0  0  0  0  0  0  0
    5.4103   -3.8337   20.3211 O   0  0  0  0  0  0  0  0  0  0  0  0
    7.2736   -4.2336   26.1858 C   0  0  0  0  0  0  0  0  0  0  0  0
    8.0037   -3.4905   26.8299 O   0  0  0  0  0  0  0  0  0  0  0  0
    6.9556   -5.6218   26.7079 C   0  0  0  0  0  0  0  0  0  0  0  0
    7.6937   -5.8996   28.2907 Cl  0  0  0  0  0  0  0  0  0  0  0  0
   12.7166   -0.4396   23.3044 C   0  0  0  0  0  0  0  0  0  0  0  0
   13.7536    0.4144   22.9589 C   0  0  0  0  0  0  0  0  0  0  0  0
   13.5065    1.7417   22.6410 C   0  0  0  0  0  0  0  0  0  0  0  0
   12.2010    2.2307   22.6670 C   0  0  0  0  0  0  0  0  0  0  0  0
  1  2  1  0
  2  3  2  0
  2  4  1  0
  4  5  1  0
  5  6  1  0
  6  7  1  0
  7  8  2  0
  8  9  1  0
  9 10  1  0
 10 11  2  0
 11 12  1  0
 12 13  1  0
 13 14  1  0
 14 15  1  0
 15 16  1  0
 16 17  1  0
 17 18  1  0
 18 19  1  0
 19 20  1  0
 20 21  1  0
 21 22  1  0
 21 23  2  0
 17 24  1  0
 24 25  2  0
 24 26  1  0
 26 27  1  0
 11 28  1  0
 28 29  2  0
 29 30  1  0
 30 31  2  0
 31  7  1  0
 31 10  1  0
 20 15  1  0
M  END
