CVD-0003461|dock_bobby27042020.16|mol2|30|dock2
     RDKit          3D

 39 43  0  0  0  0  0  0  0  0999 V2000
    7.8569   -5.3178   26.9574 N   0  0  0  0  0  0  0  0  0  0  0  0
    8.8524   -4.6202   26.3531 C   0  0  0  0  0  0  0  0  0  0  0  0
   10.1011   -4.9198   26.6482 N   0  0  0  0  0  0  0  0  0  0  0  0
    8.5153   -3.6140   25.4448 N   0  0  0  0  0  0  0  0  0  0  0  0
    7.2822   -3.6385   24.6556 C   0  0  0  0  0  0  0  0  0  0  0  0
    7.5682   -3.4042   23.1925 C   0  0  0  0  0  0  0  0  0  0  0  0
    8.2996   -2.1519   23.0102 N   0  0  0  0  0  0  0  0  0  0  0  0
    8.3855   -1.7126   21.6160 C   0  0  0  0  0  0  0  0  0  0  0  0
    7.8840   -0.3009   21.3636 C   0  0  0  0  0  0  0  0  0  0  0  0
    6.8219   -0.2456   20.3049 C   0  0  0  0  0  0  0  0  0  0  0  0
    6.7923   -0.9194   19.1192 C   0  0  0  0  0  0  0  0  0  0  0  0
    5.6576   -0.6095   18.4175 N   0  0  0  0  0  0  0  0  0  0  0  0
    4.9255    0.2809   19.1465 C   0  0  0  0  0  0  0  0  0  0  0  0
    3.7470    0.8337   18.8130 N   0  0  0  0  0  0  0  0  0  0  0  0
    3.2200    1.6872   19.7017 C   0  0  0  0  0  0  0  0  0  0  0  0
    3.8151    2.0109   20.9023 C   0  0  0  0  0  0  0  0  0  0  0  0
    5.0307    1.4315   21.2306 C   0  0  0  0  0  0  0  0  0  0  0  0
    5.6210    0.5369   20.3403 C   0  0  0  0  0  0  0  0  0  0  0  0
    9.5760   -2.2663   23.7084 C   0  0  0  0  0  0  0  0  0  0  0  0
    9.3514   -2.4389   25.1871 C   0  0  0  0  0  0  0  0  0  0  0  0
   10.4987   -1.1034   23.4408 C   0  0  0  0  0  0  0  0  0  0  0  0
   10.0267    0.1958   23.5182 N   0  0  0  0  0  0  0  0  0  0  0  0
   11.0527    1.0785   23.2312 C   0  0  0  0  0  0  0  0  0  0  0  0
   11.0900    2.4668   23.1763 C   0  0  0  0  0  0  0  0  0  0  0  0
   12.2900    3.0844   22.8514 C   0  0  0  0  0  0  0  0  0  0  0  0
   13.4350    2.3452   22.5882 C   0  0  0  0  0  0  0  0  0  0  0  0
   13.3891    0.9627   22.6455 C   0  0  0  0  0  0  0  0  0  0  0  0
   12.1997    0.3135   22.9673 C   0  0  0  0  0  0  0  0  0  0  0  0
   11.8133   -1.0746   23.1116 C   0  0  0  0  0  0  0  0  0  0  0  0
   12.6953   -2.1926   22.9340 C   0  0  0  0  0  0  0  0  0  0  0  0
   13.4439   -3.0490   22.8082 N   0  0  0  0  0  0  0  0  0  0  0  0
   12.3569    4.8490   22.7831 S   0  0  0  0  0  0  0  0  0  0  0  0
   10.8667    5.4067   22.6062 N   0  0  0  0  0  0  0  0  0  0  0  0
   13.0847    5.2040   21.6018 O   0  0  0  0  0  0  0  0  0  0  0  0
   12.8330    5.3084   24.0533 O   0  0  0  0  0  0  0  0  0  0  0  0
    6.2163   -3.3937   22.4773 C   0  0  0  0  0  0  0  0  0  0  0  0
    5.9424   -4.2573   21.6728 O   0  0  0  0  0  0  0  0  0  0  0  0
    5.2733   -2.2712   22.8081 C   0  0  0  0  0  0  0  0  0  0  0  0
    3.9881   -2.7683   23.9165 Cl  0  0  0  0  0  0  0  0  0  0  0  0
  1  2  1  0
  2  3  2  0
  2  4  1  0
  4  5  1  0
  5  6  1  0
  6  7  1  0
  7  8  1  0
  8  9  1  0
  9 10  1  0
 10 11  2  0
 11 12  1  0
 12 13  1  0
 13 14  2  0
 14 15  1  0
 15 16  2  0
 16 17  1  0
 17 18  2  0
  7 19  1  0
 19 20  1  0
 19 21  1  0
 21 22  1  0
 22 23  1  0
 23 24  2  0
 24 25  1  0
 25 26  2  0
 26 27  1  0
 27 28  2  0
 28 29  1  0
 29 30  1  0
 30 31  3  0
 25 32  1  0
 32 33  1  0
 32 34  2  0
 32 35  2  0
  6 36  1  0
 36 37  2  0
 36 38  1  0
 38 39  1  0
 20  4  1  0
 29 21  2  0
 18 10  1  0
 28 23  1  0
 18 13  1  0
M  END
