CVD-0000173|dock_bobby27042020.71|mol2|14|dock2
     RDKit          3D

 19 21  0  0  0  0  0  0  0  0999 V2000
    4.9597    0.2375   17.9357 C   0  0  0  0  0  0  0  0  0  0  0  0
    5.8421   -0.9349   18.3367 C   0  0  0  0  0  0  0  0  0  0  0  0
    6.8973   -0.5611   19.3480 C   0  0  0  0  0  0  0  0  0  0  0  0
    8.0150   -0.1879   19.0057 O   0  0  0  0  0  0  0  0  0  0  0  0
    6.5357   -0.6632   20.6241 N   0  0  0  0  0  0  0  0  0  0  0  0
    7.4327   -0.3416   21.7267 C   0  0  0  0  0  0  0  0  0  0  0  0
    8.6947   -1.1871   21.7041 C   0  0  0  0  0  0  0  0  0  0  0  0
    8.8537   -2.4328   22.5342 C   0  0  0  0  0  0  0  0  0  0  0  0
    9.3932   -1.1297   23.0322 C   0  0  0  0  0  0  0  0  0  0  0  0
   10.8939   -0.9167   23.0324 C   0  0  0  0  0  0  0  0  0  0  0  0
   11.7518   -1.9687   23.2225 C   0  0  0  0  0  0  0  0  0  0  0  0
   13.1255   -1.7944   23.2278 C   0  0  0  0  0  0  0  0  0  0  0  0
   13.6736   -0.5607   23.0432 C   0  0  0  0  0  0  0  0  0  0  0  0
   12.8463    0.5700   22.8421 C   0  0  0  0  0  0  0  0  0  0  0  0
   13.3725    1.8697   22.6469 C   0  0  0  0  0  0  0  0  0  0  0  0
   12.5451    2.9360   22.4563 C   0  0  0  0  0  0  0  0  0  0  0  0
   11.1759    2.7724   22.4495 C   0  0  0  0  0  0  0  0  0  0  0  0
   10.6217    1.5408   22.6331 C   0  0  0  0  0  0  0  0  0  0  0  0
   11.4311    0.3932   22.8361 C   0  0  0  0  0  0  0  0  0  0  0  0
  1  2  1  0
  2  3  1  0
  3  4  2  0
  3  5  1  0
  5  6  1  0
  7  6  1  0
  7  8  1  0
  8  9  1  0
  9 10  1  0
 10 11  2  0
 11 12  1  0
 12 13  2  0
 13 14  1  0
 14 15  2  0
 15 16  1  0
 16 17  2  0
 17 18  1  0
 18 19  2  0
  9  7  1  0
 19 10  1  0
 19 14  1  0
M  END
