CVD-0004078|dock_bobby27042020.0|mol2|1|dock1
     RDKit          3D

 26 30  0  0  0  0  0  0  0  0999 V2000
   14.1788   -2.6048   23.6690 C   0  0  0  0  0  0  0  0  0  0  0  0
   13.0667   -1.6679   23.2859 C   0  0  0  0  0  0  0  0  0  0  0  0
   12.9522   -0.4049   23.9221 C   0  0  0  0  0  0  0  0  0  0  0  0
   11.9654    0.4545   23.6078 C   0  0  0  0  0  0  0  0  0  0  0  0
   11.0372    0.1081   22.6435 N   0  0  0  0  0  0  0  0  0  0  0  0
    9.9304    0.7861   22.1351 C   0  0  0  0  0  0  0  0  0  0  0  0
    9.3894   -0.0659   21.1882 C   0  0  0  0  0  0  0  0  0  0  0  0
   10.1131   -1.2421   21.1220 N   0  0  0  0  0  0  0  0  0  0  0  0
   11.1027   -1.1176   21.9985 C   0  0  0  0  0  0  0  0  0  0  0  0
   12.1439   -2.0080   22.3407 C   0  0  0  0  0  0  0  0  0  0  0  0
    8.2356    0.0694   20.2742 C   0  0  0  0  0  0  0  0  0  0  0  0
    7.5284    1.2607   20.1482 C   0  0  0  0  0  0  0  0  0  0  0  0
    6.4416    1.3586   19.2975 C   0  0  0  0  0  0  0  0  0  0  0  0
    6.0863    0.2589   18.5658 C   0  0  0  0  0  0  0  0  0  0  0  0
    5.0180    0.3499   17.7285 F   0  0  0  0  0  0  0  0  0  0  0  0
    6.7614   -0.9283   18.6406 C   0  0  0  0  0  0  0  0  0  0  0  0
    7.8418   -1.0168   19.5002 C   0  0  0  0  0  0  0  0  0  0  0  0
    9.5589    2.1326   22.6311 C   0  0  0  0  0  0  0  0  0  0  0  0
    8.2773    2.3782   23.1276 C   0  0  0  0  0  0  0  0  0  0  0  0
    7.9670    3.6377   23.6108 C   0  0  0  0  0  0  0  0  0  0  0  0
    8.8219    4.6706   23.6403 N   0  0  0  0  0  0  0  0  0  0  0  0
   10.0449    4.4405   23.1338 C   0  0  0  0  0  0  0  0  0  0  0  0
   11.0854    5.3161   23.0191 N   0  0  0  0  0  0  0  0  0  0  0  0
   12.1411    4.6608   22.4249 C   0  0  0  0  0  0  0  0  0  0  0  0
   11.8121    3.3727   22.1553 C   0  0  0  0  0  0  0  0  0  0  0  0
   10.4639    3.2127   22.6167 C   0  0  0  0  0  0  0  0  0  0  0  0
  1  2  1  0
  2  3  1  0
  3  4  2  0
  4  5  1  0
  5  6  1  0
  6  7  2  0
  7  8  1  0
  8  9  2  0
  9 10  1  0
  7 11  1  0
 11 12  2  0
 12 13  1  0
 13 14  2  0
 14 15  1  0
 14 16  1  0
 16 17  2  0
  6 18  1  0
 18 19  2  0
 19 20  1  0
 20 21  2  0
 21 22  1  0
 22 23  1  0
 23 24  1  0
 24 25  2  0
 25 26  1  0
 10  2  2  0
 17 11  1  0
 26 18  1  0
  9  5  1  0
 26 22  2  0
M  END
