CVD-0001381|dock_bobby27042020.81|mol2|18|dock1
     RDKit          3D

 18 19  0  0  0  0  0  0  0  0999 V2000
   10.5143    0.0248   24.7444 O   0  0  0  0  0  0  0  0  0  0  0  0
   10.6702   -0.6850   23.5209 C   0  0  0  0  0  0  0  0  0  0  0  0
   12.0899   -0.4239   22.9579 C   0  0  0  0  0  0  0  0  0  0  0  0
   12.4245    1.0704   22.9640 C   0  0  0  0  0  0  0  0  0  0  0  0
   13.7082    1.3300   22.9088 O   0  0  0  0  0  0  0  0  0  0  0  0
   11.5724    1.9301   23.0108 O   0  0  0  0  0  0  0  0  0  0  0  0
   13.0936   -1.1893   23.6998 N   0  0  0  0  0  0  0  0  0  0  0  0
   13.5129   -2.4611   23.3962 C   0  0  0  0  0  0  0  0  0  0  0  0
   14.4391   -2.8347   24.3273 C   0  0  0  0  0  0  0  0  0  0  0  0
   14.5869   -1.7636   25.2333 C   0  0  0  0  0  0  0  0  0  0  0  0
   13.7470   -0.7653   24.8307 C   0  0  0  0  0  0  0  0  0  0  0  0
    9.6022   -0.2890   22.5214 C   0  0  0  0  0  0  0  0  0  0  0  0
    8.7495    0.7801   22.7617 C   0  0  0  0  0  0  0  0  0  0  0  0
    7.7816    1.1324   21.8364 C   0  0  0  0  0  0  0  0  0  0  0  0
    7.6525    0.4189   20.6569 C   0  0  0  0  0  0  0  0  0  0  0  0
    8.4998   -0.6499   20.4117 C   0  0  0  0  0  0  0  0  0  0  0  0
    8.3811   -1.3601   19.2528 O   0  0  0  0  0  0  0  0  0  0  0  0
    9.4696   -1.0025   21.3392 C   0  0  0  0  0  0  0  0  0  0  0  0
  1  2  1  0
  2  3  1  0
  3  4  1  0
  4  5  1  0
  4  6  2  0
  3  7  1  0
  7  8  1  0
  8  9  2  0
  9 10  1  0
 10 11  2  0
  2 12  1  0
 12 13  2  0
 13 14  1  0
 14 15  2  0
 15 16  1  0
 16 17  1  0
 16 18  2  0
 11  7  1  0
 18 12  1  0
M  END
