CVD-0001202|dock_bobby27042020.53|mol2|26|dock1
     RDKit          3D

 26 29  0  0  0  0  0  0  0  0999 V2000
    0.7183    3.1561   19.6382 C   0  0  0  0  0  0  0  0  0  0  0  0
    1.6660    2.0694   20.0536 C   0  0  0  0  0  0  0  0  0  0  0  0
    1.3259    1.1656   20.8107 O   0  0  0  0  0  0  0  0  0  0  0  0
    2.8954    2.1337   19.5386 N   0  0  0  0  0  0  0  0  0  0  0  0
    3.9221    1.1440   19.8322 C   0  0  0  0  0  0  0  0  0  0  0  0
    4.9324    1.0271   18.7084 C   0  0  0  0  0  0  0  0  0  0  0  0
    6.2421    0.4464   19.1551 C   0  0  0  0  0  0  0  0  0  0  0  0
    6.8309   -0.7024   18.7165 C   0  0  0  0  0  0  0  0  0  0  0  0
    8.0219   -0.9025   19.3590 N   0  0  0  0  0  0  0  0  0  0  0  0
    8.2283    0.1311   20.2400 C   0  0  0  0  0  0  0  0  0  0  0  0
    9.2925    0.3759   21.1191 C   0  0  0  0  0  0  0  0  0  0  0  0
   10.3537   -0.5615   21.1449 N   0  0  0  0  0  0  0  0  0  0  0  0
   11.2898   -0.7879   22.0965 C   0  0  0  0  0  0  0  0  0  0  0  0
   11.4892   -0.1512   23.2116 N   0  0  0  0  0  0  0  0  0  0  0  0
   12.5726   -0.8101   23.7844 C   0  0  0  0  0  0  0  0  0  0  0  0
   13.2534   -0.5950   24.9823 C   0  0  0  0  0  0  0  0  0  0  0  0
   14.3183   -1.4267   25.3002 C   0  0  0  0  0  0  0  0  0  0  0  0
   14.7043   -2.4498   24.4543 C   0  0  0  0  0  0  0  0  0  0  0  0
   14.0313   -2.6678   23.2630 C   0  0  0  0  0  0  0  0  0  0  0  0
   12.9699   -1.8321   22.9549 C   0  0  0  0  0  0  0  0  0  0  0  0
   12.1452   -1.8338   21.8486 O   0  0  0  0  0  0  0  0  0  0  0  0
    9.2334    1.5243   21.9075 C   0  0  0  0  0  0  0  0  0  0  0  0
    8.1460    2.3577   21.7895 C   0  0  0  0  0  0  0  0  0  0  0  0
    8.1133    3.4713   22.5702 F   0  0  0  0  0  0  0  0  0  0  0  0
    7.0907    2.1424   20.9374 C   0  0  0  0  0  0  0  0  0  0  0  0
    7.1264    1.0019   20.1394 C   0  0  0  0  0  0  0  0  0  0  0  0
  1  2  1  0
  2  3  2  0
  2  4  1  0
  4  5  1  0
  5  6  1  0
  6  7  1  0
  7  8  2  0
  8  9  1  0
  9 10  1  0
 10 11  2  0
 11 12  1  0
 12 13  1  0
 13 14  2  0
 14 15  1  0
 15 16  2  0
 16 17  1  0
 17 18  2  0
 18 19  1  0
 19 20  2  0
 20 21  1  0
 11 22  1  0
 22 23  2  0
 23 24  1  0
 23 25  1  0
 25 26  2  0
 26  7  1  0
 26 10  1  0
 21 13  1  0
 20 15  1  0
M  END
