CVD-0001985|dock_bobby27042020.79|mol2|15|dock2
     RDKit          3D

 19 21  0  0  0  0  0  0  0  0999 V2000
   13.6810   -2.5418   23.1346 C   0  0  0  0  0  0  0  0  0  0  0  0
   13.4729   -1.7314   21.9361 N   0  0  0  0  0  0  0  0  0  0  0  0
   13.9128   -2.2472   20.7364 C   0  0  0  0  0  0  0  0  0  0  0  0
   14.5203   -3.4336   20.6745 O   0  0  0  0  0  0  0  0  0  0  0  0
   13.7619   -1.6004   19.6822 O   0  0  0  0  0  0  0  0  0  0  0  0
   12.8131   -0.4676   22.1663 C   0  0  0  0  0  0  0  0  0  0  0  0
   11.4208   -0.4141   22.1765 C   0  0  0  0  0  0  0  0  0  0  0  0
   10.7425    0.7705   22.4150 C   0  0  0  0  0  0  0  0  0  0  0  0
   11.4570    1.9430   22.6487 C   0  0  0  0  0  0  0  0  0  0  0  0
   12.8615    1.8967   22.6388 C   0  0  0  0  0  0  0  0  0  0  0  0
   13.5300    0.7029   22.4013 C   0  0  0  0  0  0  0  0  0  0  0  0
   13.3563    3.1627   22.8902 N   0  0  0  0  0  0  0  0  0  0  0  0
   12.2937    4.0308   23.0643 C   0  0  0  0  0  0  0  0  0  0  0  0
   12.2920    5.3945   23.3361 C   0  0  0  0  0  0  0  0  0  0  0  0
   11.0816    6.0535   23.4688 C   0  0  0  0  0  0  0  0  0  0  0  0
    9.9002    5.3539   23.3306 C   0  0  0  0  0  0  0  0  0  0  0  0
    8.3903    6.2044   23.5018 Cl  0  0  0  0  0  0  0  0  0  0  0  0
    9.8758    3.9998   23.0606 C   0  0  0  0  0  0  0  0  0  0  0  0
   11.0850    3.3211   22.9240 C   0  0  0  0  0  0  0  0  0  0  0  0
  1  2  1  0
  2  3  1  0
  3  4  1  0
  3  5  2  0
  2  6  1  0
  6  7  2  0
  7  8  1  0
  8  9  2  0
  9 10  1  0
 10 11  2  0
 10 12  1  0
 12 13  1  0
 13 14  2  0
 14 15  1  0
 15 16  2  0
 16 17  1  0
 16 18  1  0
 18 19  2  0
 11  6  1  0
 19 13  1  0
 19  9  1  0
M  END
