CVD-0003249|dock_bobby27042020.60|mol2|23|dock2
     RDKit          3D

 26 28  0  0  0  0  0  0  0  0999 V2000
   12.1343    4.3455   22.6330 C   0  0  0  0  0  0  0  0  0  0  0  0
   10.9590    3.4109   22.4805 C   0  0  0  0  0  0  0  0  0  0  0  0
    9.6601    3.8897   22.4778 C   0  0  0  0  0  0  0  0  0  0  0  0
    8.5757    3.0430   22.3346 C   0  0  0  0  0  0  0  0  0  0  0  0
    8.7780    1.6726   22.1857 C   0  0  0  0  0  0  0  0  0  0  0  0
    7.6251    0.8252   22.0236 N   0  0  0  0  0  0  0  0  0  0  0  0
    7.0755    0.5998   20.6492 C   0  0  0  0  0  0  0  0  0  0  0  0
    7.3178   -0.8375   20.1839 C   0  0  0  0  0  0  0  0  0  0  0  0
    5.6720   -1.5383   19.8528 S   0  0  0  0  0  0  0  0  0  0  0  0
    5.3052   -2.5088   20.8468 O   0  0  0  0  0  0  0  0  0  0  0  0
    5.5382   -1.9324   18.4772 O   0  0  0  0  0  0  0  0  0  0  0  0
    4.7961   -0.0461   20.1464 C   0  0  0  0  0  0  0  0  0  0  0  0
    5.6233    0.9245   20.5533 C   0  0  0  0  0  0  0  0  0  0  0  0
    7.0189    0.2153   23.0881 C   0  0  0  0  0  0  0  0  0  0  0  0
    6.0199   -0.4804   22.9554 O   0  0  0  0  0  0  0  0  0  0  0  0
    7.6479    0.4322   24.4509 C   0  0  0  0  0  0  0  0  0  0  0  0
    7.3394    2.0679   25.0481 Cl  0  0  0  0  0  0  0  0  0  0  0  0
   10.0840    1.1587   22.2037 C   0  0  0  0  0  0  0  0  0  0  0  0
   10.3698   -0.3285   22.0767 C   0  0  0  0  0  0  0  0  0  0  0  0
   11.6465   -0.7890   22.7515 C   0  0  0  0  0  0  0  0  0  0  0  0
   12.0001   -0.3196   24.0075 C   0  0  0  0  0  0  0  0  0  0  0  0
   13.1683   -0.7419   24.6197 C   0  0  0  0  0  0  0  0  0  0  0  0
   13.9971   -1.6411   23.9842 C   0  0  0  0  0  0  0  0  0  0  0  0
   13.6570   -2.1179   22.7367 C   0  0  0  0  0  0  0  0  0  0  0  0
   12.4889   -1.6944   22.1249 C   0  0  0  0  0  0  0  0  0  0  0  0
   11.1468    2.0452   22.3454 C   0  0  0  0  0  0  0  0  0  0  0  0
  1  2  1  0
  2  3  2  0
  3  4  1  0
  4  5  2  0
  5  6  1  0
  6  7  1  0
  7  8  1  0
  8  9  1  0
  9 10  2  0
  9 11  2  0
  9 12  1  0
 12 13  2  0
  6 14  1  0
 14 15  2  0
 14 16  1  0
 16 17  1  0
  5 18  1  0
 18 19  1  0
 19 20  1  0
 20 21  2  0
 21 22  1  0
 22 23  2  0
 23 24  1  0
 24 25  2  0
 18 26  2  0
 26  2  1  0
 13  7  1  0
 25 20  1  0
M  END
