CVD-0003790|dock_bobby27042020.72|mol2|39|dock2
     RDKit          3D

 23 25  0  0  0  0  0  0  0  0999 V2000
   13.4193    5.2922   21.3108 N   0  0  0  0  0  0  0  0  0  0  0  0
   13.3684    4.7336   22.8103 S   0  0  0  0  0  0  0  0  0  0  0  0
   14.7208    4.5095   23.2249 O   0  0  0  0  0  0  0  0  0  0  0  0
   12.5522    5.6326   23.5695 O   0  0  0  0  0  0  0  0  0  0  0  0
   12.5540    3.1654   22.7963 C   0  0  0  0  0  0  0  0  0  0  0  0
   13.3008    2.0012   22.7616 C   0  0  0  0  0  0  0  0  0  0  0  0
   12.6583    0.7759   22.7546 C   0  0  0  0  0  0  0  0  0  0  0  0
   11.2698    0.6910   22.7906 C   0  0  0  0  0  0  0  0  0  0  0  0
   10.5399    1.8754   22.8258 C   0  0  0  0  0  0  0  0  0  0  0  0
   11.1723    3.1060   22.8283 C   0  0  0  0  0  0  0  0  0  0  0  0
   10.6272   -0.5396   22.7905 N   0  0  0  0  0  0  0  0  0  0  0  0
   11.1079   -1.6883   23.5642 C   0  0  0  0  0  0  0  0  0  0  0  0
    9.9953   -2.3779   24.3017 C   0  0  0  0  0  0  0  0  0  0  0  0
    8.8837   -2.8118   23.3397 C   0  0  0  0  0  0  0  0  0  0  0  0
    8.4145   -1.6049   22.5669 C   0  0  0  0  0  0  0  0  0  0  0  0
    9.5385   -0.8892   21.8486 C   0  0  0  0  0  0  0  0  0  0  0  0
    7.7816   -3.4953   24.0514 N   0  0  0  0  0  0  0  0  0  0  0  0
    6.8483   -4.3249   23.2575 C   0  0  0  0  0  0  0  0  0  0  0  0
    5.4321   -4.3103   23.8687 C   0  0  0  0  0  0  0  0  0  0  0  0
    4.4616   -5.2158   23.1127 C   0  0  0  0  0  0  0  0  0  0  0  0
    5.0019   -6.6355   22.9993 C   0  0  0  0  0  0  0  0  0  0  0  0
    6.3860   -6.6475   22.3666 C   0  0  0  0  0  0  0  0  0  0  0  0
    7.3585   -5.7720   23.1502 C   0  0  0  0  0  0  0  0  0  0  0  0
  1  2  1  0
  2  3  2  0
  2  4  2  0
  2  5  1  0
  5  6  2  0
  6  7  1  0
  7  8  2  0
  8  9  1  0
  9 10  2  0
  8 11  1  0
 11 12  1  0
 12 13  1  0
 13 14  1  0
 14 15  1  0
 15 16  1  0
 14 17  1  0
 17 18  1  0
 18 19  1  0
 19 20  1  0
 20 21  1  0
 21 22  1  0
 22 23  1  0
 10  5  1  0
 16 11  1  0
 23 18  1  0
M  END
