CVD-0003741|dock_bobby27042020.72|mol2|46|dock1
     RDKit          3D

 21 22  0  0  0  0  0  0  0  0999 V2000
    5.6217    1.5776   17.2739 C   0  0  0  0  0  0  0  0  0  0  0  0
    6.0322    0.5578   18.3082 C   0  0  0  0  0  0  0  0  0  0  0  0
    5.4554   -0.7007   18.3430 C   0  0  0  0  0  0  0  0  0  0  0  0
    5.8303   -1.6330   19.2933 C   0  0  0  0  0  0  0  0  0  0  0  0
    6.7988   -1.3580   20.2563 C   0  0  0  0  0  0  0  0  0  0  0  0
    7.1677   -2.4079   21.2709 C   0  0  0  0  0  0  0  0  0  0  0  0
    7.3759   -0.0808   20.2147 C   0  0  0  0  0  0  0  0  0  0  0  0
    6.9962    0.8521   19.2596 C   0  0  0  0  0  0  0  0  0  0  0  0
    8.6157    0.4019   21.3844 S   0  0  0  0  0  0  0  0  0  0  0  0
    7.9947    0.4593   22.6723 O   0  0  0  0  0  0  0  0  0  0  0  0
    9.2715    1.5623   20.8638 O   0  0  0  0  0  0  0  0  0  0  0  0
    9.7177   -0.7710   21.4469 N   0  0  0  0  0  0  0  0  0  0  0  0
    9.9667   -1.4714   22.7124 C   0  0  0  0  0  0  0  0  0  0  0  0
   11.3950   -1.3098   23.1720 C   0  0  0  0  0  0  0  0  0  0  0  0
   12.2458   -2.4042   23.3027 C   0  0  0  0  0  0  0  0  0  0  0  0
   13.5568   -2.2487   23.7221 C   0  0  0  0  0  0  0  0  0  0  0  0
   14.0455   -0.9945   24.0193 C   0  0  0  0  0  0  0  0  0  0  0  0
   13.2251    0.1140   23.8987 C   0  0  0  0  0  0  0  0  0  0  0  0
   11.9028   -0.0355   23.4768 C   0  0  0  0  0  0  0  0  0  0  0  0
   11.0608    1.1260   23.3560 C   0  0  0  0  0  0  0  0  0  0  0  0
   10.4027    2.0506   23.2273 N   0  0  0  0  0  0  0  0  0  0  0  0
  1  2  1  0
  2  3  2  0
  3  4  1  0
  4  5  2  0
  5  6  1  0
  5  7  1  0
  7  8  2  0
  7  9  1  0
  9 10  2  0
  9 11  2  0
  9 12  1  0
 12 13  1  0
 13 14  1  0
 14 15  2  0
 15 16  1  0
 16 17  2  0
 17 18  1  0
 18 19  2  0
 19 20  1  0
 20 21  3  0
  8  2  1  0
 19 14  1  0
M  END
