CVD-0002850|dock_bobby27042020.47|mol2|12|dock1
     RDKit          3D

 12 12  0  0  0  0  0  0  0  0999 V2000
   14.2746   -0.4831   24.7274 O   0  0  0  0  0  0  0  0  0  0  0  0
   13.4112   -0.5631   23.5902 C   0  0  0  0  0  0  0  0  0  0  0  0
   12.3023    0.4926   23.7185 C   0  0  0  0  0  0  0  0  0  0  0  0
   11.2166    0.2901   22.7142 C   0  0  0  0  0  0  0  0  0  0  0  0
   11.0613   -0.8049   21.9689 C   0  0  0  0  0  0  0  0  0  0  0  0
   11.9612   -2.0004   22.0821 C   0  0  0  0  0  0  0  0  0  0  0  0
   12.7678   -2.1211   20.9072 O   0  0  0  0  0  0  0  0  0  0  0  0
   12.7585   -1.9443   23.3954 C   0  0  0  0  0  0  0  0  0  0  0  0
   13.7052   -3.0026   23.5059 O   0  0  0  0  0  0  0  0  0  0  0  0
   10.1943    1.3713   22.5894 C   0  0  0  0  0  0  0  0  0  0  0  0
    9.3626    1.3683   21.5739 O   0  0  0  0  0  0  0  0  0  0  0  0
   10.1366    2.2491   23.4308 O   0  0  0  0  0  0  0  0  0  0  0  0
  2  1  1  0
  2  3  1  0
  3  4  1  0
  4  5  2  0
  5  6  1  0
  6  7  1  0
  6  8  1  0
  8  9  1  0
  4 10  1  0
 10 11  1  0
 10 12  2  0
  8  2  1  0
M  END
