CVD-0000745|dock_bobby27042020.97|mol2|33|dock3
     RDKit          3D

 17 18  0  0  0  0  0  0  0  0999 V2000
    7.3120   -1.2075   22.2554 O   0  0  0  0  0  0  0  0  0  0  0  0
    8.2467   -1.4236   21.4910 C   0  0  0  0  0  0  0  0  0  0  0  0
    9.4438   -2.2288   21.9503 C   0  0  0  0  0  0  0  0  0  0  0  0
   10.5635   -1.3171   22.3652 C   0  0  0  0  0  0  0  0  0  0  0  0
   10.6677   -0.0485   22.1934 N   0  0  0  0  0  0  0  0  0  0  0  0
   11.8695    0.2869   22.7642 C   0  0  0  0  0  0  0  0  0  0  0  0
   12.4522   -0.8061   23.2685 C   0  0  0  0  0  0  0  0  0  0  0  0
   11.6202   -1.8703   23.0245 O   0  0  0  0  0  0  0  0  0  0  0  0
   13.6653   -1.0733   23.9546 C   0  0  0  0  0  0  0  0  0  0  0  0
   14.6340   -1.3175   24.5128 N   0  0  0  0  0  0  0  0  0  0  0  0
    8.3291   -0.9974   20.2075 N   0  0  0  0  0  0  0  0  0  0  0  0
    7.4321   -0.2332   19.4209 C   0  0  0  0  0  0  0  0  0  0  0  0
    6.2429    0.3048   19.9024 C   0  0  0  0  0  0  0  0  0  0  0  0
    5.4371    1.0373   19.0480 C   0  0  0  0  0  0  0  0  0  0  0  0
    5.8383    1.2118   17.7435 C   0  0  0  0  0  0  0  0  0  0  0  0
    6.9715    0.7088   17.2541 N   0  0  0  0  0  0  0  0  0  0  0  0
    7.7422    0.0033   18.0866 C   0  0  0  0  0  0  0  0  0  0  0  0
  1  2  2  0
  2  3  1  0
  3  4  1  0
  4  5  2  0
  5  6  1  0
  6  7  2  0
  7  8  1  0
  7  9  1  0
  9 10  3  0
  2 11  1  0
 11 12  1  0
 12 13  2  0
 13 14  1  0
 14 15  2  0
 15 16  1  0
 16 17  2  0
  8  4  1  0
 17 12  1  0
M  END
