CVD-0001188|dock_bobby27042020.53|mol2|28|dock1
     RDKit          3D

 19 21  0  0  0  0  0  0  0  0999 V2000
   13.9208   -1.7333   20.7148 N   0  0  0  0  0  0  0  0  0  0  0  0
   13.6275   -1.5164   22.1531 C   0  0  0  0  0  0  0  0  0  0  0  0
   12.7225   -0.3387   22.3875 C   0  0  0  0  0  0  0  0  0  0  0  0
   13.2064    0.9543   22.4553 C   0  0  0  0  0  0  0  0  0  0  0  0
   12.4385    2.0274   22.6635 N   0  0  0  0  0  0  0  0  0  0  0  0
   11.1265    1.8261   22.8148 C   0  0  0  0  0  0  0  0  0  0  0  0
   10.5259    0.5820   22.7696 C   0  0  0  0  0  0  0  0  0  0  0  0
    9.0340    0.4100   22.9449 C   0  0  0  0  0  0  0  0  0  0  0  0
    8.2979    0.3721   21.6204 C   0  0  0  0  0  0  0  0  0  0  0  0
    8.8869    0.4938   20.5508 O   0  0  0  0  0  0  0  0  0  0  0  0
    6.9779    0.1903   21.6993 N   0  0  0  0  0  0  0  0  0  0  0  0
    6.1162    0.1199   20.5195 C   0  0  0  0  0  0  0  0  0  0  0  0
    6.5518   -1.0368   19.6092 C   0  0  0  0  0  0  0  0  0  0  0  0
    5.6323   -1.0800   18.3726 C   0  0  0  0  0  0  0  0  0  0  0  0
    5.3146    0.2700   17.7893 C   0  0  0  0  0  0  0  0  0  0  0  0
    6.4109    1.1345   17.4180 O   0  0  0  0  0  0  0  0  0  0  0  0
    5.5339    1.5268   18.5124 C   0  0  0  0  0  0  0  0  0  0  0  0
    6.1176    1.5352   19.9103 C   0  0  0  0  0  0  0  0  0  0  0  0
   11.3546   -0.5099   22.5503 C   0  0  0  0  0  0  0  0  0  0  0  0
  1  2  1  0
  2  3  1  0
  3  4  2  0
  4  5  1  0
  5  6  2  0
  6  7  1  0
  7  8  1  0
  8  9  1  0
  9 10  2  0
  9 11  1  0
 12 11  1  0
 12 13  1  0
 13 14  1  0
 15 14  1  0
 15 16  1  0
 16 17  1  0
 17 18  1  0
  7 19  2  0
 19  3  1  0
 18 12  1  0
 17 15  1  0
M  CHG  1   1   1
M  END
