CVD-0002114|dock_bobby27042020.7|mol2|20|dock2
     RDKit          3D

 19 21  0  0  0  0  0  0  0  0999 V2000
    5.3547    0.4288   17.3506 O   0  0  0  0  0  0  0  0  0  0  0  0
    5.8880   -0.5002   18.3099 S   0  0  0  0  0  0  0  0  0  0  0  0
    5.6220   -1.9011   18.1243 O   0  0  0  0  0  0  0  0  0  0  0  0
    7.6694   -0.1622   18.6453 C   0  0  0  0  0  0  0  0  0  0  0  0
    7.2473    0.2912   20.1081 C   0  0  0  0  0  0  0  0  0  0  0  0
    5.7136    0.0781   20.0401 C   0  0  0  0  0  0  0  0  0  0  0  0
    7.8108   -0.5033   21.1593 O   0  0  0  0  0  0  0  0  0  0  0  0
    9.2089   -0.3685   21.4108 C   0  0  0  0  0  0  0  0  0  0  0  0
    9.6253   -1.1584   22.6566 C   0  0  0  0  0  0  0  0  0  0  0  0
    8.8137   -0.6972   23.9008 C   0  0  0  0  0  0  0  0  0  0  0  0
    7.8339   -1.7835   24.2046 C   0  0  0  0  0  0  0  0  0  0  0  0
    8.1240   -2.9173   23.3376 C   0  0  0  0  0  0  0  0  0  0  0  0
    9.2755   -2.6503   22.4581 C   0  0  0  0  0  0  0  0  0  0  0  0
   11.1131   -0.9579   22.7867 C   0  0  0  0  0  0  0  0  0  0  0  0
   11.9937   -1.5687   21.9073 C   0  0  0  0  0  0  0  0  0  0  0  0
   13.3514   -1.3534   22.0701 C   0  0  0  0  0  0  0  0  0  0  0  0
   13.7948   -0.5443   23.0931 C   0  0  0  0  0  0  0  0  0  0  0  0
   12.8530    0.0224   23.9206 C   0  0  0  0  0  0  0  0  0  0  0  0
   11.5345   -0.1708   23.7835 N   0  0  0  0  0  0  0  0  0  0  0  0
  1  2  2  0
  2  3  2  0
  2  4  1  0
  4  5  1  0
  5  6  1  0
  5  7  1  0
  7  8  1  0
  8  9  1  0
  9 10  1  0
 10 11  1  0
 11 12  1  0
 12 13  1  0
  9 14  1  0
 14 15  2  0
 15 16  1  0
 16 17  2  0
 17 18  1  0
 18 19  2  0
  6  2  1  0
 13  9  1  0
 19 14  1  0
M  END
