CVD-0000840|dock_bobby27042020.83|mol2|12|dock3
     RDKit          3D

 18 20  0  0  0  0  0  0  0  0999 V2000
   10.1960   -1.8377   21.2252 O   0  0  0  0  0  0  0  0  0  0  0  0
   10.1948   -0.7020   21.6696 C   0  0  0  0  0  0  0  0  0  0  0  0
    9.2879    0.2959   21.3632 N   0  0  0  0  0  0  0  0  0  0  0  0
    9.5088    1.5066   22.1473 C   0  0  0  0  0  0  0  0  0  0  0  0
   10.8201    1.2380   22.8574 C   0  0  0  0  0  0  0  0  0  0  0  0
   11.0898   -0.1675   22.5775 N   0  0  0  0  0  0  0  0  0  0  0  0
   12.2289   -0.8226   23.1639 C   0  0  0  0  0  0  0  0  0  0  0  0
   12.8440   -1.8802   22.5033 C   0  0  0  0  0  0  0  0  0  0  0  0
   13.9319   -2.5075   23.0841 C   0  0  0  0  0  0  0  0  0  0  0  0
   14.3726   -2.0635   24.3080 C   0  0  0  0  0  0  0  0  0  0  0  0
   13.8043   -1.0509   24.9610 N   0  0  0  0  0  0  0  0  0  0  0  0
   12.7626   -0.4408   24.3871 C   0  0  0  0  0  0  0  0  0  0  0  0
    8.1644    0.1868   20.4697 C   0  0  0  0  0  0  0  0  0  0  0  0
    7.1301    1.1164   20.5450 C   0  0  0  0  0  0  0  0  0  0  0  0
    6.0364    1.0218   19.7010 C   0  0  0  0  0  0  0  0  0  0  0  0
    5.9546    0.0071   18.7744 C   0  0  0  0  0  0  0  0  0  0  0  0
    6.9737   -0.9139   18.6851 C   0  0  0  0  0  0  0  0  0  0  0  0
    8.0761   -0.8263   19.5186 C   0  0  0  0  0  0  0  0  0  0  0  0
  1  2  2  0
  2  3  1  0
  3  4  1  0
  4  5  1  0
  5  6  1  0
  6  7  1  0
  7  8  2  0
  8  9  1  0
  9 10  2  0
 10 11  1  0
 11 12  2  0
  3 13  1  0
 13 14  2  0
 14 15  1  0
 15 16  2  0
 16 17  1  0
 17 18  2  0
  6  2  1  0
 12  7  1  0
 18 13  1  0
M  END
