CVD-0004056|dock_bobby27042020.14|mol2|32|dock2
     RDKit          3D

 23 26  0  0  0  0  0  0  0  0999 V2000
    6.3388   -1.6867   20.5664 C   0  0  0  0  0  0  0  0  0  0  0  0
    7.7036   -1.3708   21.0918 C   0  0  0  0  0  0  0  0  0  0  0  0
    8.5475   -2.4101   21.5565 C   0  0  0  0  0  0  0  0  0  0  0  0
    9.7758   -2.0953   22.0214 C   0  0  0  0  0  0  0  0  0  0  0  0
   10.1751   -0.7420   22.0232 C   0  0  0  0  0  0  0  0  0  0  0  0
   11.3111   -0.0097   22.4058 C   0  0  0  0  0  0  0  0  0  0  0  0
   12.5425   -0.5494   22.9958 C   0  0  0  0  0  0  0  0  0  0  0  0
   13.0305   -0.3959   24.3272 C   0  0  0  0  0  0  0  0  0  0  0  0
   14.2270   -1.1009   24.3434 C   0  0  0  0  0  0  0  0  0  0  0  0
   14.5030   -1.6554   23.1693 N   0  0  0  0  0  0  0  0  0  0  0  0
   13.4644   -1.3205   22.3534 N   0  0  0  0  0  0  0  0  0  0  0  0
   13.5197   -1.7619   20.9653 C   0  0  0  0  0  0  0  0  0  0  0  0
   10.9608    1.3471   22.1008 C   0  0  0  0  0  0  0  0  0  0  0  0
    9.7209    1.4296   21.6148 N   0  0  0  0  0  0  0  0  0  0  0  0
    9.2826    0.1657   21.5645 N   0  0  0  0  0  0  0  0  0  0  0  0
    8.0475   -0.1104   21.0917 N   0  0  0  0  0  0  0  0  0  0  0  0
   11.7080    2.6175   22.2155 C   0  0  0  0  0  0  0  0  0  0  0  0
   13.0984    2.6639   22.2371 C   0  0  0  0  0  0  0  0  0  0  0  0
   13.7695    3.8642   22.3911 C   0  0  0  0  0  0  0  0  0  0  0  0
   13.0350    5.0140   22.4869 C   0  0  0  0  0  0  0  0  0  0  0  0
   13.6906    6.1961   22.6391 F   0  0  0  0  0  0  0  0  0  0  0  0
   11.6684    5.0239   22.4343 C   0  0  0  0  0  0  0  0  0  0  0  0
   11.0075    3.8164   22.2963 C   0  0  0  0  0  0  0  0  0  0  0  0
  1  2  1  0
  2  3  1  0
  3  4  2  0
  4  5  1  0
  5  6  2  0
  6  7  1  0
  7  8  2  0
  8  9  1  0
  9 10  2  0
 10 11  1  0
 11 12  1  0
  6 13  1  0
 13 14  2  0
 14 15  1  0
 15 16  1  0
 13 17  1  0
 17 18  2  0
 18 19  1  0
 19 20  2  0
 20 21  1  0
 20 22  1  0
 22 23  2  0
 16  2  2  0
 23 17  1  0
 15  5  1  0
 11  7  1  0
M  END
