CVD-0003656|dock_bobby27042020.87|mol2|16|dock1
     RDKit          3D

 27 28  0  0  0  0  0  0  0  0999 V2000
   14.1101    5.8334   21.4349 C   0  0  0  0  0  0  0  0  0  0  0  0
   13.1699    4.7605   21.7024 N   0  0  0  0  0  0  0  0  0  0  0  0
   13.4043    3.8617   22.6569 C   0  0  0  0  0  0  0  0  0  0  0  0
   14.4235    3.9169   23.3387 O   0  0  0  0  0  0  0  0  0  0  0  0
   12.4114    2.7629   22.9072 C   0  0  0  0  0  0  0  0  0  0  0  0
   12.8797    1.4990   23.2496 C   0  0  0  0  0  0  0  0  0  0  0  0
   12.0043    0.4551   23.4895 C   0  0  0  0  0  0  0  0  0  0  0  0
   10.6348    0.6389   23.3958 C   0  0  0  0  0  0  0  0  0  0  0  0
    9.6839   -0.4981   23.6552 C   0  0  0  0  0  0  0  0  0  0  0  0
    9.7697   -1.7655   22.4058 S   0  0  0  0  0  0  0  0  0  0  0  0
   11.1165   -2.2485   22.3456 O   0  0  0  0  0  0  0  0  0  0  0  0
    8.7084   -2.6981   22.6389 O   0  0  0  0  0  0  0  0  0  0  0  0
    9.4648   -1.0550   20.9975 N   0  0  0  0  0  0  0  0  0  0  0  0
    8.2334   -0.2645   20.8814 C   0  0  0  0  0  0  0  0  0  0  0  0
    7.4029   -0.7071   19.6960 C   0  0  0  0  0  0  0  0  0  0  0  0
    8.1986   -0.8536   18.5853 F   0  0  0  0  0  0  0  0  0  0  0  0
    6.8958   -1.9655   19.9131 F   0  0  0  0  0  0  0  0  0  0  0  0
    6.2620    0.2490   19.3807 C   0  0  0  0  0  0  0  0  0  0  0  0
    6.3016    1.0512   18.2505 C   0  0  0  0  0  0  0  0  0  0  0  0
    5.2781    1.9265   17.9367 C   0  0  0  0  0  0  0  0  0  0  0  0
    4.2039    1.9858   18.7819 C   0  0  0  0  0  0  0  0  0  0  0  0
    3.1892    2.8423   18.4861 F   0  0  0  0  0  0  0  0  0  0  0  0
    4.0987    1.2208   19.9180 C   0  0  0  0  0  0  0  0  0  0  0  0
    5.1397    0.3682   20.1858 C   0  0  0  0  0  0  0  0  0  0  0  0
    5.0642   -0.3977   21.2982 F   0  0  0  0  0  0  0  0  0  0  0  0
   10.1639    1.8963   23.0546 C   0  0  0  0  0  0  0  0  0  0  0  0
   11.0335    2.9454   22.8135 C   0  0  0  0  0  0  0  0  0  0  0  0
  1  2  1  0
  2  3  1  0
  3  4  2  0
  3  5  1  0
  5  6  2  0
  6  7  1  0
  7  8  2  0
  8  9  1  0
  9 10  1  0
 10 11  2  0
 10 12  2  0
 10 13  1  0
 13 14  1  0
 14 15  1  0
 15 16  1  0
 15 17  1  0
 15 18  1  0
 18 19  2  0
 19 20  1  0
 20 21  2  0
 21 22  1  0
 21 23  1  0
 23 24  2  0
 24 25  1  0
  8 26  1  0
 26 27  2  0
 27  5  1  0
 24 18  1  0
M  END
