CVD-0000739|dock_bobby27042020.83|mol2|27|dock2
     RDKit          3D

 15 16  0  0  0  0  0  0  0  0999 V2000
    9.0798   -0.6004   22.6986 O   0  0  0  0  0  0  0  0  0  0  0  0
    9.5595   -0.9937   21.6399 C   0  0  0  0  0  0  0  0  0  0  0  0
   10.8062   -1.6240   21.5761 N   0  0  0  0  0  0  0  0  0  0  0  0
   11.6894   -1.9084   22.6419 C   0  0  0  0  0  0  0  0  0  0  0  0
   13.1021   -1.7467   22.4703 C   0  0  0  0  0  0  0  0  0  0  0  0
   13.8158   -2.0606   23.5872 C   0  0  0  0  0  0  0  0  0  0  0  0
   12.7733   -2.5481   24.8337 S   0  0  0  0  0  0  0  0  0  0  0  0
   11.3773   -2.3410   23.8867 C   0  0  0  0  0  0  0  0  0  0  0  0
    8.9647   -0.8772   20.4073 N   0  0  0  0  0  0  0  0  0  0  0  0
    7.7198   -0.3113   20.0360 C   0  0  0  0  0  0  0  0  0  0  0  0
    6.6609   -0.1098   20.9159 C   0  0  0  0  0  0  0  0  0  0  0  0
    5.4869    0.4521   20.4447 C   0  0  0  0  0  0  0  0  0  0  0  0
    5.4019    0.7962   19.1153 C   0  0  0  0  0  0  0  0  0  0  0  0
    6.3987    0.6153   18.2491 N   0  0  0  0  0  0  0  0  0  0  0  0
    7.5274    0.0723   18.7136 C   0  0  0  0  0  0  0  0  0  0  0  0
  1  2  2  0
  2  3  1  0
  3  4  1  0
  4  5  1  0
  5  6  2  0
  6  7  1  0
  7  8  1  0
  2  9  1  0
  9 10  1  0
 10 11  2  0
 11 12  1  0
 12 13  2  0
 13 14  1  0
 14 15  2  0
  8  4  2  0
 15 10  1  0
M  END
