CVD-0000067|dock_bobby27042020.99|mol2|44|dock2
     RDKit          3D

 17 18  0  0  0  0  0  0  0  0999 V2000
    7.8874    6.0410   22.3343 C   0  0  0  0  0  0  0  0  0  0  0  0
    8.4354    4.9151   23.0172 O   0  0  0  0  0  0  0  0  0  0  0  0
    9.7666    4.6027   22.8920 C   0  0  0  0  0  0  0  0  0  0  0  0
   10.7183    5.5754   22.6084 C   0  0  0  0  0  0  0  0  0  0  0  0
   12.0535    5.2301   22.4880 C   0  0  0  0  0  0  0  0  0  0  0  0
   12.4283    3.9024   22.6540 C   0  0  0  0  0  0  0  0  0  0  0  0
   13.6573    3.2928   22.5906 N   0  0  0  0  0  0  0  0  0  0  0  0
   13.4991    1.9546   22.8287 C   0  0  0  0  0  0  0  0  0  0  0  0
   12.1850    1.6643   23.0495 C   0  0  0  0  0  0  0  0  0  0  0  0
   11.5849    0.3214   23.3468 C   0  0  0  0  0  0  0  0  0  0  0  0
   12.6201   -0.7224   23.7158 C   0  0  0  0  0  0  0  0  0  0  0  0
   13.3668   -1.1816   22.5534 N   0  0  0  0  0  0  0  0  0  0  0  0
   12.7997   -1.8659   21.5579 C   0  0  0  0  0  0  0  0  0  0  0  0
   13.7102   -2.2831   20.4407 C   0  0  0  0  0  0  0  0  0  0  0  0
   11.6062   -2.1506   21.5634 O   0  0  0  0  0  0  0  0  0  0  0  0
   11.4769    2.9077   22.9412 C   0  0  0  0  0  0  0  0  0  0  0  0
   10.1379    3.2761   23.0583 C   0  0  0  0  0  0  0  0  0  0  0  0
  1  2  1  0
  2  3  1  0
  3  4  2  0
  4  5  1  0
  5  6  2  0
  6  7  1  0
  7  8  1  0
  8  9  2  0
  9 10  1  0
 10 11  1  0
 11 12  1  0
 12 13  1  0
 13 14  1  0
 13 15  2  0
  9 16  1  0
 16 17  2  0
 17  3  1  0
 16  6  1  0
M  END
