CVD-0001630|dock_bobby27042020.23|mol2|19|dock1
     RDKit          3D

 19 20  0  0  0  0  0  0  0  0999 V2000
    9.1155   -1.9349   23.4520 C   0  0  0  0  0  0  0  0  0  0  0  0
    9.2327   -1.4221   22.0256 C   0  0  0  0  0  0  0  0  0  0  0  0
   10.6810   -1.0894   21.7190 C   0  0  0  0  0  0  0  0  0  0  0  0
   11.1297    0.0417   22.5340 N   0  0  0  0  0  0  0  0  0  0  0  0
   10.2613    1.2100   22.3588 C   0  0  0  0  0  0  0  0  0  0  0  0
    8.8172    0.8411   22.6460 C   0  0  0  0  0  0  0  0  0  0  0  0
    8.3814   -0.2537   21.7828 N   0  0  0  0  0  0  0  0  0  0  0  0
    6.9511   -0.4992   21.8705 C   0  0  0  0  0  0  0  0  0  0  0  0
    6.2795   -0.2561   20.6130 N   0  0  0  0  0  0  0  0  0  0  0  0
    6.2979    1.1543   20.1693 C   0  0  0  0  0  0  0  0  0  0  0  0
    5.0726    1.5471   19.3572 C   0  0  0  0  0  0  0  0  0  0  0  0
    5.2119    1.3688   17.8341 C   0  0  0  0  0  0  0  0  0  0  0  0
    5.9824    0.2013   17.5297 O   0  0  0  0  0  0  0  0  0  0  0  0
    5.6774   -0.9664   18.2849 C   0  0  0  0  0  0  0  0  0  0  0  0
    6.5820   -1.1437   19.4802 C   0  0  0  0  0  0  0  0  0  0  0  0
   12.2093    0.0472   23.3513 C   0  0  0  0  0  0  0  0  0  0  0  0
   12.5079    1.0425   23.9993 O   0  0  0  0  0  0  0  0  0  0  0  0
   13.0568   -1.2027   23.4500 C   0  0  0  0  0  0  0  0  0  0  0  0
   14.1195   -0.9520   24.2973 F   0  0  0  0  0  0  0  0  0  0  0  0
  1  2  1  0
  2  3  1  0
  3  4  1  0
  4  5  1  0
  5  6  1  0
  6  7  1  0
  7  8  1  0
  8  9  1  0
  9 10  1  0
 10 11  1  0
 11 12  1  0
 12 13  1  0
 13 14  1  0
 14 15  1  0
  4 16  1  0
 16 17  2  0
 16 18  1  0
 18 19  1  0
  7  2  1  0
 15  9  1  0
M  END
