CVD-0003829|dock_bobby27042020.15|mol2|23|dock1
     RDKit          3D

 26 28  0  0  0  0  0  0  0  0999 V2000
    7.8399   -6.0194   22.7772 C   0  0  0  0  0  0  0  0  0  0  0  0
    7.8771   -5.0278   23.8449 N   0  0  0  0  0  0  0  0  0  0  0  0
    7.6022   -3.6577   23.4587 C   0  0  0  0  0  0  0  0  0  0  0  0
    8.8035   -2.9370   22.8616 C   0  0  0  0  0  0  0  0  0  0  0  0
    8.3863   -1.6652   22.1149 C   0  0  0  0  0  0  0  0  0  0  0  0
    9.5811   -0.9672   21.5294 C   0  0  0  0  0  0  0  0  0  0  0  0
   10.5890   -0.6532   22.5466 N   0  0  0  0  0  0  0  0  0  0  0  0
   11.0259   -1.8407   23.3167 C   0  0  0  0  0  0  0  0  0  0  0  0
    9.8354   -2.5726   23.8989 C   0  0  0  0  0  0  0  0  0  0  0  0
   11.2177    0.5852   22.6294 C   0  0  0  0  0  0  0  0  0  0  0  0
   12.6043    0.6796   22.7067 C   0  0  0  0  0  0  0  0  0  0  0  0
   13.2411    1.9053   22.7834 C   0  0  0  0  0  0  0  0  0  0  0  0
   12.4901    3.0665   22.7962 C   0  0  0  0  0  0  0  0  0  0  0  0
   11.1102    3.0013   22.7289 C   0  0  0  0  0  0  0  0  0  0  0  0
   10.4862    1.7697   22.6384 C   0  0  0  0  0  0  0  0  0  0  0  0
   13.2943    4.6360   22.9094 S   0  0  0  0  0  0  0  0  0  0  0  0
   12.9196    5.4929   21.6100 N   0  0  0  0  0  0  0  0  0  0  0  0
   14.7057    4.3975   22.8668 O   0  0  0  0  0  0  0  0  0  0  0  0
   12.7419    5.3189   24.0407 O   0  0  0  0  0  0  0  0  0  0  0  0
    8.0174   -5.4084   25.1753 C   0  0  0  0  0  0  0  0  0  0  0  0
    9.2675   -5.6986   25.7142 C   0  0  0  0  0  0  0  0  0  0  0  0
    9.3875   -6.0790   27.0399 C   0  0  0  0  0  0  0  0  0  0  0  0
    8.2682   -6.1730   27.8462 C   0  0  0  0  0  0  0  0  0  0  0  0
    7.0126   -5.8863   27.3392 C   0  0  0  0  0  0  0  0  0  0  0  0
    5.7856   -5.9885   28.2120 C   0  0  0  0  0  0  0  0  0  0  0  0
    6.9050   -5.5078   26.0095 C   0  0  0  0  0  0  0  0  0  0  0  0
  1  2  1  0
  2  3  1  0
  3  4  1  0
  4  5  1  0
  5  6  1  0
  6  7  1  0
  7  8  1  0
  8  9  1  0
  7 10  1  0
 10 11  2  0
 11 12  1  0
 12 13  2  0
 13 14  1  0
 14 15  2  0
 13 16  1  0
 16 17  1  0
 16 18  2  0
 16 19  2  0
  2 20  1  0
 20 21  2  0
 21 22  1  0
 22 23  2  0
 23 24  1  0
 24 25  1  0
 24 26  2  0
  9  4  1  0
 15 10  1  0
 26 20  1  0
M  END
