CVD-0001299|dock_bobby27042020.95|mol2|42|dock1
     RDKit          3D

 18 19  0  0  0  0  0  0  0  0999 V2000
   14.1039   -2.9232   25.4659 S   0  0  0  0  0  0  0  0  0  0  0  0
   13.8105   -1.8635   24.0758 C   0  0  0  0  0  0  0  0  0  0  0  0
   14.6830   -1.6609   23.2707 O   0  0  0  0  0  0  0  0  0  0  0  0
   12.4045   -1.2688   24.0172 C   0  0  0  0  0  0  0  0  0  0  0  0
   11.4499   -2.2001   23.2804 C   0  0  0  0  0  0  0  0  0  0  0  0
   10.0680   -1.5857   23.1929 C   0  0  0  0  0  0  0  0  0  0  0  0
   10.1407   -0.2874   22.5278 N   0  0  0  0  0  0  0  0  0  0  0  0
   11.0034    0.6577   23.2286 C   0  0  0  0  0  0  0  0  0  0  0  0
   12.4173    0.0956   23.3315 C   0  0  0  0  0  0  0  0  0  0  0  0
    9.3153    0.1441   21.5514 C   0  0  0  0  0  0  0  0  0  0  0  0
    9.4560    1.2451   21.0338 O   0  0  0  0  0  0  0  0  0  0  0  0
    8.2038   -0.7877   21.1080 C   0  0  0  0  0  0  0  0  0  0  0  0
    7.1586   -0.0901   20.2671 C   0  0  0  0  0  0  0  0  0  0  0  0
    7.4444    0.3121   18.9716 C   0  0  0  0  0  0  0  0  0  0  0  0
    6.4882    0.9540   18.2024 C   0  0  0  0  0  0  0  0  0  0  0  0
    5.2353    1.2018   18.7205 C   0  0  0  0  0  0  0  0  0  0  0  0
    4.9387    0.8082   20.0077 C   0  0  0  0  0  0  0  0  0  0  0  0
    5.8951    0.1664   20.7766 C   0  0  0  0  0  0  0  0  0  0  0  0
  1  2  1  0
  2  3  2  0
  2  4  1  0
  4  5  1  0
  5  6  1  0
  6  7  1  0
  7  8  1  0
  8  9  1  0
  7 10  1  0
 10 11  2  0
 10 12  1  0
 12 13  1  0
 13 14  2  0
 14 15  1  0
 15 16  2  0
 16 17  1  0
 17 18  2  0
  9  4  1  0
 18 13  1  0
M  END
