CVD-0000554|dock_bobby27042020.26|mol2|49|dock3
     RDKit          3D

 30 32  0  0  0  0  0  0  0  0999 V2000
    4.2286    1.0927   20.8003 C   0  0  0  0  0  0  0  0  0  0  0  0
    4.9643    0.9795   19.4895 C   0  0  0  0  0  0  0  0  0  0  0  0
    4.7388    1.9547   18.5226 C   0  0  0  0  0  0  0  0  0  0  0  0
    5.3894    1.8813   17.3120 C   0  0  0  0  0  0  0  0  0  0  0  0
    6.2420    0.9083   17.0060 N   0  0  0  0  0  0  0  0  0  0  0  0
    6.4679   -0.0335   17.9273 C   0  0  0  0  0  0  0  0  0  0  0  0
    5.8639   -0.0620   19.1857 C   0  0  0  0  0  0  0  0  0  0  0  0
    6.0922   -1.0616   20.1753 N   0  0  0  0  0  0  0  0  0  0  0  0
    6.3221   -2.4123   20.0243 C   0  0  0  0  0  0  0  0  0  0  0  0
    6.3670   -2.9923   18.9452 O   0  0  0  0  0  0  0  0  0  0  0  0
    6.4945   -3.0311   21.2435 N   0  0  0  0  0  0  0  0  0  0  0  0
    6.7477   -4.4021   21.5335 C   0  0  0  0  0  0  0  0  0  0  0  0
    6.2002   -5.4891   20.8514 C   0  0  0  0  0  0  0  0  0  0  0  0
    6.4603   -6.7636   21.1569 N   0  0  0  0  0  0  0  0  0  0  0  0
    7.3042   -7.0101   22.1583 C   0  0  0  0  0  0  0  0  0  0  0  0
    7.9226   -6.0067   22.9098 C   0  0  0  0  0  0  0  0  0  0  0  0
    8.8415   -6.3436   23.9663 C   0  0  0  0  0  0  0  0  0  0  0  0
    9.5453   -6.6048   24.8273 N   0  0  0  0  0  0  0  0  0  0  0  0
    7.6236   -4.6713   22.5987 C   0  0  0  0  0  0  0  0  0  0  0  0
    8.1929   -3.6298   23.3353 O   0  0  0  0  0  0  0  0  0  0  0  0
    9.4662   -3.1365   23.0455 C   0  0  0  0  0  0  0  0  0  0  0  0
    9.5869   -2.1485   22.0836 C   0  0  0  0  0  0  0  0  0  0  0  0
   10.8320   -1.6342   21.7690 C   0  0  0  0  0  0  0  0  0  0  0  0
   11.9537   -2.1139   22.4243 C   0  0  0  0  0  0  0  0  0  0  0  0
   11.8389   -3.1027   23.3873 C   0  0  0  0  0  0  0  0  0  0  0  0
   10.5916   -3.6140   23.6997 C   0  0  0  0  0  0  0  0  0  0  0  0
   13.5474   -1.4655   22.0209 S   0  0  0  0  0  0  0  0  0  0  0  0
   13.7777   -1.6297   20.4451 N   0  0  0  0  0  0  0  0  0  0  0  0
   14.5212   -2.2840   22.6788 O   0  0  0  0  0  0  0  0  0  0  0  0
   13.5212   -0.0612   22.3009 O   0  0  0  0  0  0  0  0  0  0  0  0
  1  2  1  0
  2  3  2  0
  3  4  1  0
  4  5  2  0
  5  6  1  0
  6  7  2  0
  7  8  1  0
  8  9  1  0
  9 10  2  0
  9 11  1  0
 11 12  1  0
 12 13  2  0
 13 14  1  0
 14 15  2  0
 15 16  1  0
 16 17  1  0
 17 18  3  0
 16 19  2  0
 19 20  1  0
 20 21  1  0
 21 22  2  0
 22 23  1  0
 23 24  2  0
 24 25  1  0
 25 26  2  0
 24 27  1  0
 27 28  1  0
 27 29  2  0
 27 30  2  0
  7  2  1  0
 19 12  1  0
 26 21  1  0
M  END
