CVD-0004055|dock_bobby27042020.28|mol2|46|dock2
     RDKit          3D

 26 30  0  0  0  0  0  0  0  0999 V2000
    4.9840    0.4329   19.7540 C   0  0  0  0  0  0  0  0  0  0  0  0
    6.3618    0.3933   20.3358 C   0  0  0  0  0  0  0  0  0  0  0  0
    7.0268   -0.8454   20.5124 C   0  0  0  0  0  0  0  0  0  0  0  0
    8.2712   -0.8491   21.0373 C   0  0  0  0  0  0  0  0  0  0  0  0
    8.8659    0.3812   21.3888 C   0  0  0  0  0  0  0  0  0  0  0  0
   10.0761    0.8158   21.9449 C   0  0  0  0  0  0  0  0  0  0  0  0
    9.9518    2.2418   21.9864 C   0  0  0  0  0  0  0  0  0  0  0  0
    8.7516    2.6286   21.5506 N   0  0  0  0  0  0  0  0  0  0  0  0
    8.1335    1.5000   21.1815 N   0  0  0  0  0  0  0  0  0  0  0  0
    6.8884    1.5445   20.6587 N   0  0  0  0  0  0  0  0  0  0  0  0
   10.8738    3.3262   22.3896 C   0  0  0  0  0  0  0  0  0  0  0  0
   10.4295    4.5684   22.8325 C   0  0  0  0  0  0  0  0  0  0  0  0
   11.3237    5.5697   23.1681 C   0  0  0  0  0  0  0  0  0  0  0  0
   12.6624    5.3025   23.0850 C   0  0  0  0  0  0  0  0  0  0  0  0
   13.5455    6.2839   23.4129 F   0  0  0  0  0  0  0  0  0  0  0  0
   13.1491    4.0880   22.6872 C   0  0  0  0  0  0  0  0  0  0  0  0
   12.2453    3.0994   22.3411 C   0  0  0  0  0  0  0  0  0  0  0  0
   11.1785   -0.0999   22.3790 C   0  0  0  0  0  0  0  0  0  0  0  0
   11.5716   -1.1860   21.6000 C   0  0  0  0  0  0  0  0  0  0  0  0
   12.5986   -2.0202   22.0045 C   0  0  0  0  0  0  0  0  0  0  0  0
   13.2793   -1.7880   23.2085 C   0  0  0  0  0  0  0  0  0  0  0  0
   14.3412   -2.3800   23.9379 C   0  0  0  0  0  0  0  0  0  0  0  0
   14.5791   -1.7187   25.0538 N   0  0  0  0  0  0  0  0  0  0  0  0
   13.6859   -0.6869   25.0815 N   0  0  0  0  0  0  0  0  0  0  0  0
   12.8799   -0.6910   23.9863 C   0  0  0  0  0  0  0  0  0  0  0  0
   11.8405    0.1394   23.5813 C   0  0  0  0  0  0  0  0  0  0  0  0
  1  2  1  0
  2  3  1  0
  3  4  2  0
  4  5  1  0
  5  6  2  0
  6  7  1  0
  7  8  2  0
  8  9  1  0
  9 10  1  0
  7 11  1  0
 11 12  2  0
 12 13  1  0
 13 14  2  0
 14 15  1  0
 14 16  1  0
 16 17  2  0
  6 18  1  0
 18 19  2  0
 19 20  1  0
 20 21  2  0
 21 22  1  0
 22 23  2  0
 23 24  1  0
 24 25  1  0
 25 26  2  0
 10  2  2  0
 17 11  1  0
 26 18  1  0
  9  5  1  0
 25 21  1  0
M  END
