CVD-0003541|dock_bobby27042020.16|mol2|18|dock1
     RDKit          3D

 24 26  0  0  0  0  0  0  0  0999 V2000
   11.6121    0.1893   24.6316 O   0  0  0  0  0  0  0  0  0  0  0  0
   12.3542   -0.7216   23.9497 C   0  0  0  0  0  0  0  0  0  0  0  0
   13.4851   -1.2856   24.5232 C   0  0  0  0  0  0  0  0  0  0  0  0
   14.2210   -2.2104   23.8049 C   0  0  0  0  0  0  0  0  0  0  0  0
   13.8307   -2.5652   22.5307 C   0  0  0  0  0  0  0  0  0  0  0  0
   12.7031   -2.0094   21.9451 C   0  0  0  0  0  0  0  0  0  0  0  0
   11.9491   -1.0750   22.6578 C   0  0  0  0  0  0  0  0  0  0  0  0
   10.7758   -0.4205   22.2007 N   0  0  0  0  0  0  0  0  0  0  0  0
    9.7860   -0.8810   21.3661 C   0  0  0  0  0  0  0  0  0  0  0  0
    9.7764   -2.0182   20.9132 O   0  0  0  0  0  0  0  0  0  0  0  0
    8.7639   -0.0390   21.0245 N   0  0  0  0  0  0  0  0  0  0  0  0
    8.3741    1.1654   21.7557 C   0  0  0  0  0  0  0  0  0  0  0  0
    6.8962    1.1259   22.0811 C   0  0  0  0  0  0  0  0  0  0  0  0
    6.1185    0.9166   20.8620 N   0  0  0  0  0  0  0  0  0  0  0  0
    6.5083   -0.2878   20.1308 C   0  0  0  0  0  0  0  0  0  0  0  0
    7.9861   -0.2483   19.8053 C   0  0  0  0  0  0  0  0  0  0  0  0
    5.1093    1.7480   20.5246 C   0  0  0  0  0  0  0  0  0  0  0  0
    4.8008    2.7023   21.2273 O   0  0  0  0  0  0  0  0  0  0  0  0
    4.3414    1.4682   19.2337 C   0  0  0  0  0  0  0  0  0  0  0  0
    3.2458    2.4096   19.0537 N   0  0  0  0  0  0  0  0  0  0  0  0
    2.1347    2.5273   19.8016 C   0  0  0  0  0  0  0  0  0  0  0  0
    1.4070    3.5594   19.2829 C   0  0  0  0  0  0  0  0  0  0  0  0
    2.1619    4.0254   18.2147 C   0  0  0  0  0  0  0  0  0  0  0  0
    3.2885    3.3399   18.0655 N   0  0  0  0  0  0  0  0  0  0  0  0
  1  2  1  0
  2  3  2  0
  3  4  1  0
  4  5  2  0
  5  6  1  0
  6  7  2  0
  7  8  1  0
  8  9  1  0
  9 10  2  0
  9 11  1  0
 11 12  1  0
 12 13  1  0
 13 14  1  0
 14 15  1  0
 15 16  1  0
 14 17  1  0
 17 18  2  0
 17 19  1  0
 19 20  1  0
 20 21  1  0
 21 22  2  0
 22 23  1  0
 23 24  2  0
  7  2  1  0
 16 11  1  0
 24 20  1  0
M  END
