CVD-0002164|dock_bobby27042020.92|mol2|28|dock2
     RDKit          3D

 25 27  0  0  0  0  0  0  0  0999 V2000
    8.7256    0.9986   21.2584 O   0  0  0  0  0  0  0  0  0  0  0  0
    9.2798    0.1258   20.5988 C   0  0  0  0  0  0  0  0  0  0  0  0
    8.6891   -0.5507   19.5556 N   0  0  0  0  0  0  0  0  0  0  0  0
    7.3903   -0.4417   18.9970 C   0  0  0  0  0  0  0  0  0  0  0  0
    6.7993    0.8138   18.9324 C   0  0  0  0  0  0  0  0  0  0  0  0
    5.5327    0.9501   18.3924 C   0  0  0  0  0  0  0  0  0  0  0  0
    4.8898   -0.1743   17.9305 C   0  0  0  0  0  0  0  0  0  0  0  0
    5.4282   -1.3927   17.9776 N   0  0  0  0  0  0  0  0  0  0  0  0
    6.6521   -1.5148   18.5011 C   0  0  0  0  0  0  0  0  0  0  0  0
   10.5712   -0.3040   20.8049 N   0  0  0  0  0  0  0  0  0  0  0  0
   11.5457    0.1006   21.7527 C   0  0  0  0  0  0  0  0  0  0  0  0
   12.6338   -0.7398   21.9472 C   0  0  0  0  0  0  0  0  0  0  0  0
   13.6208   -0.4057   22.8564 C   0  0  0  0  0  0  0  0  0  0  0  0
   13.5396    0.7679   23.5846 C   0  0  0  0  0  0  0  0  0  0  0  0
   12.4565    1.6253   23.4052 C   0  0  0  0  0  0  0  0  0  0  0  0
   12.2916    2.8413   24.1034 N   0  0  0  0  0  0  0  0  0  0  0  0
   12.6949    4.1494   23.8764 C   0  0  0  0  0  0  0  0  0  0  0  0
   13.1942    4.4785   22.6166 C   0  0  0  0  0  0  0  0  0  0  0  0
   13.5994    5.7792   22.3781 C   0  0  0  0  0  0  0  0  0  0  0  0
   13.5029    6.7278   23.3889 C   0  0  0  0  0  0  0  0  0  0  0  0
   12.9925    6.3075   24.6127 C   0  0  0  0  0  0  0  0  0  0  0  0
   12.5973    5.0529   24.8561 N   0  0  0  0  0  0  0  0  0  0  0  0
   13.9153    8.0934   23.1776 C   0  0  0  0  0  0  0  0  0  0  0  0
   14.2103    9.1847   23.0135 N   0  0  0  0  0  0  0  0  0  0  0  0
   11.4670    1.2825   22.4881 C   0  0  0  0  0  0  0  0  0  0  0  0
  1  2  2  0
  2  3  1  0
  3  4  1  0
  4  5  2  0
  5  6  1  0
  6  7  2  0
  7  8  1  0
  8  9  2  0
  2 10  1  0
 10 11  1  0
 11 12  2  0
 12 13  1  0
 13 14  2  0
 14 15  1  0
 15 16  1  0
 16 17  1  0
 17 18  2  0
 18 19  1  0
 19 20  2  0
 20 21  1  0
 21 22  2  0
 20 23  1  0
 23 24  3  0
 15 25  2  0
  9  4  1  0
 25 11  1  0
 22 17  1  0
M  END
