CVD-0001811|dock_bobby27042020.22|mol2|37|dock3
     RDKit          3D

 21 22  0  0  0  0  0  0  0  0999 V2000
   10.6183    5.5775   23.1331 C   0  0  0  0  0  0  0  0  0  0  0  0
   11.6274    4.5516   22.7216 C   0  0  0  0  0  0  0  0  0  0  0  0
   10.9970    3.2753   22.4266 N   0  0  0  0  0  0  0  0  0  0  0  0
   11.6228    2.0579   22.5811 C   0  0  0  0  0  0  0  0  0  0  0  0
   13.0056    1.9464   22.4274 C   0  0  0  0  0  0  0  0  0  0  0  0
   13.6309    0.7220   22.5802 C   0  0  0  0  0  0  0  0  0  0  0  0
   12.8899   -0.4110   22.8898 C   0  0  0  0  0  0  0  0  0  0  0  0
   11.5120   -0.3058   23.0464 C   0  0  0  0  0  0  0  0  0  0  0  0
   10.8654    0.9163   22.8971 C   0  0  0  0  0  0  0  0  0  0  0  0
    9.3657    0.9678   23.0794 C   0  0  0  0  0  0  0  0  0  0  0  0
    8.6287    1.0862   21.8123 N   0  0  0  0  0  0  0  0  0  0  0  0
    7.2305    1.4469   22.0643 C   0  0  0  0  0  0  0  0  0  0  0  0
    6.4850    1.6081   20.7526 C   0  0  0  0  0  0  0  0  0  0  0  0
    6.5556    0.3727   19.9689 N   0  0  0  0  0  0  0  0  0  0  0  0
    7.9430   -0.0481   19.7505 C   0  0  0  0  0  0  0  0  0  0  0  0
    8.6704   -0.1749   21.0767 C   0  0  0  0  0  0  0  0  0  0  0  0
    5.4551   -0.2607   19.4949 C   0  0  0  0  0  0  0  0  0  0  0  0
    5.6560   -1.5103   18.6888 C   0  0  0  0  0  0  0  0  0  0  0  0
    4.3341    0.1857   19.7110 O   0  0  0  0  0  0  0  0  0  0  0  0
   13.5389   -1.6889   23.0491 C   0  0  0  0  0  0  0  0  0  0  0  0
   14.0406   -2.7030   23.2062 N   0  0  0  0  0  0  0  0  0  0  0  0
  1  2  1  0
  2  3  1  0
  3  4  1  0
  4  5  2  0
  5  6  1  0
  6  7  2  0
  7  8  1  0
  8  9  2  0
  9 10  1  0
 10 11  1  0
 11 12  1  0
 12 13  1  0
 13 14  1  0
 14 15  1  0
 15 16  1  0
 14 17  1  0
 17 18  1  0
 17 19  2  0
  7 20  1  0
 20 21  3  0
  9  4  1  0
 16 11  1  0
M  END
