CVD-0002838|dock_bobby27042020.18|mol2|28|dock2
     RDKit          3D

 21 23  0  0  0  0  0  0  0  0999 V2000
   13.3931   -1.8500   20.6253 O   0  0  0  0  0  0  0  0  0  0  0  0
   12.8568   -1.4992   21.8895 C   0  0  0  0  0  0  0  0  0  0  0  0
   12.1892   -0.1437   21.8826 C   0  0  0  0  0  0  0  0  0  0  0  0
   12.9806    0.9793   22.1137 C   0  0  0  0  0  0  0  0  0  0  0  0
   12.4022    2.2306   22.1574 C   0  0  0  0  0  0  0  0  0  0  0  0
   11.1015    2.4471   21.9791 N   0  0  0  0  0  0  0  0  0  0  0  0
   10.3452    1.3791   21.7151 C   0  0  0  0  0  0  0  0  0  0  0  0
   10.8112    0.0616   21.6679 C   0  0  0  0  0  0  0  0  0  0  0  0
    9.8488   -1.0360   21.3929 C   0  0  0  0  0  0  0  0  0  0  0  0
    9.7562   -2.1328   22.2432 N   0  0  0  0  0  0  0  0  0  0  0  0
    8.8319   -2.9150   21.7119 C   0  0  0  0  0  0  0  0  0  0  0  0
    8.3198   -2.4015   20.5830 N   0  0  0  0  0  0  0  0  0  0  0  0
    8.9507   -1.2024   20.3646 C   0  0  0  0  0  0  0  0  0  0  0  0
    8.5721   -0.3770   19.1657 C   0  0  0  0  0  0  0  0  0  0  0  0
    7.2408    0.3045   19.3230 C   0  0  0  0  0  0  0  0  0  0  0  0
    7.2032    1.4429   20.0318 N   0  0  0  0  0  0  0  0  0  0  0  0
    6.0244    2.0629   20.1850 C   0  0  0  0  0  0  0  0  0  0  0  0
    4.8394    1.6007   19.6577 C   0  0  0  0  0  0  0  0  0  0  0  0
    4.8605    0.4270   18.9252 C   0  0  0  0  0  0  0  0  0  0  0  0
    6.0714   -0.2205   18.7609 C   0  0  0  0  0  0  0  0  0  0  0  0
    6.1180   -1.6927   17.8473 Cl  0  0  0  0  0  0  0  0  0  0  0  0
  1  2  1  0
  2  3  1  0
  3  4  2  0
  4  5  1  0
  5  6  2  0
  6  7  1  0
  7  8  2  0
  8  9  1  0
  9 10  1  0
 10 11  2  0
 11 12  1  0
 12 13  1  0
 13 14  1  0
 14 15  1  0
 15 16  2  0
 16 17  1  0
 17 18  2  0
 18 19  1  0
 19 20  2  0
 20 21  1  0
  8  3  1  0
 13  9  2  0
 20 15  1  0
M  END
