CVD-0003146|dock_bobby27042020.31|mol2|43|dock1
     RDKit          3D

 26 29  0  0  0  0  0  0  0  0999 V2000
    5.1631    0.7007   19.8452 C   0  0  0  0  0  0  0  0  0  0  0  0
    6.5871    0.4257   20.0150 N   0  0  0  0  0  0  0  0  0  0  0  0
    7.2942   -0.0471   18.8280 C   0  0  0  0  0  0  0  0  0  0  0  0
    7.1965    0.5503   21.2056 C   0  0  0  0  0  0  0  0  0  0  0  0
    6.5778    0.9019   22.2022 O   0  0  0  0  0  0  0  0  0  0  0  0
    8.6736    0.2437   21.2571 C   0  0  0  0  0  0  0  0  0  0  0  0
    9.3544    0.7576   22.5326 C   0  0  0  0  0  0  0  0  0  0  0  0
    9.2856    2.2960   22.6874 C   0  0  0  0  0  0  0  0  0  0  0  0
   10.6822    2.7571   22.5623 N   0  0  0  0  0  0  0  0  0  0  0  0
   11.0581    4.0675   22.6235 C   0  0  0  0  0  0  0  0  0  0  0  0
   12.1950    4.4133   22.3251 O   0  0  0  0  0  0  0  0  0  0  0  0
   10.1201    5.1559   23.0438 C   0  0  0  0  0  0  0  0  0  0  0  0
    8.8976    5.5291   22.4448 C   0  0  0  0  0  0  0  0  0  0  0  0
    8.3484    6.5947   23.0127 N   0  0  0  0  0  0  0  0  0  0  0  0
    9.2306    6.9228   24.0018 N   0  0  0  0  0  0  0  0  0  0  0  0
    9.1829    7.9313   25.0554 C   0  0  0  0  0  0  0  0  0  0  0  0
   10.3172    7.4805   25.9613 C   0  0  0  0  0  0  0  0  0  0  0  0
   11.1986    6.5294   25.1598 C   0  0  0  0  0  0  0  0  0  0  0  0
   10.2897    6.0955   24.0510 C   0  0  0  0  0  0  0  0  0  0  0  0
   11.5498    1.6571   22.5147 C   0  0  0  0  0  0  0  0  0  0  0  0
   12.9451    1.6502   22.5230 C   0  0  0  0  0  0  0  0  0  0  0  0
   13.6164    0.4370   22.5330 C   0  0  0  0  0  0  0  0  0  0  0  0
   12.9000   -0.7403   22.5346 C   0  0  0  0  0  0  0  0  0  0  0  0
   13.7519   -2.2571   22.4455 Cl  0  0  0  0  0  0  0  0  0  0  0  0
   11.5201   -0.7396   22.5265 C   0  0  0  0  0  0  0  0  0  0  0  0
   10.8391    0.4756   22.5164 C   0  0  0  0  0  0  0  0  0  0  0  0
  1  2  1  0
  2  3  1  0
  2  4  1  0
  4  5  2  0
  4  6  1  0
  7  6  1  0
  7  8  1  0
  8  9  1  0
  9 10  1  0
 10 11  2  0
 10 12  1  0
 12 13  1  0
 13 14  2  0
 14 15  1  0
 15 16  1  0
 16 17  1  0
 17 18  1  0
 18 19  1  0
  9 20  1  0
 20 21  2  0
 21 22  1  0
 22 23  2  0
 23 24  1  0
 23 25  1  0
 25 26  2  0
 26  7  1  0
 19 12  2  0
 26 20  1  0
 19 15  1  0
M  END
