CVD-0001547|dock_bobby27042020.37|mol2|46|dock1
     RDKit          3D

 26 29  0  0  0  0  0  0  0  0999 V2000
   13.9566    5.5623   21.7226 C   0  0  0  0  0  0  0  0  0  0  0  0
   13.4415    5.8041   23.1176 C   0  0  0  0  0  0  0  0  0  0  0  0
   13.4682    7.0865   23.6598 C   0  0  0  0  0  0  0  0  0  0  0  0
   13.0065    7.3239   24.9418 C   0  0  0  0  0  0  0  0  0  0  0  0
   12.5217    6.2589   25.6638 C   0  0  0  0  0  0  0  0  0  0  0  0
   12.4721    5.0068   25.1913 N   0  0  0  0  0  0  0  0  0  0  0  0
   12.9221    4.7779   23.9430 C   0  0  0  0  0  0  0  0  0  0  0  0
   12.8528    3.4775   23.4308 N   0  0  0  0  0  0  0  0  0  0  0  0
   11.8838    2.5208   23.4627 C   0  0  0  0  0  0  0  0  0  0  0  0
   10.8191    2.7453   24.0305 O   0  0  0  0  0  0  0  0  0  0  0  0
   12.0473    1.1728   22.8159 C   0  0  0  0  0  0  0  0  0  0  0  0
   13.2709    0.5198   22.7092 C   0  0  0  0  0  0  0  0  0  0  0  0
   13.3558   -0.7193   22.0994 C   0  0  0  0  0  0  0  0  0  0  0  0
   12.2223   -1.3201   21.5803 C   0  0  0  0  0  0  0  0  0  0  0  0
   10.9841   -0.6891   21.6547 C   0  0  0  0  0  0  0  0  0  0  0  0
   10.9217    0.5606   22.2744 C   0  0  0  0  0  0  0  0  0  0  0  0
    9.7618   -1.3245   21.0917 C   0  0  0  0  0  0  0  0  0  0  0  0
    9.3314   -2.5771   21.5289 C   0  0  0  0  0  0  0  0  0  0  0  0
    8.1938   -3.1687   21.0064 C   0  0  0  0  0  0  0  0  0  0  0  0
    7.4372   -2.5284   20.0210 C   0  0  0  0  0  0  0  0  0  0  0  0
    6.2523   -3.0819   19.4367 C   0  0  0  0  0  0  0  0  0  0  0  0
    5.5670   -2.4771   18.5256 N   0  0  0  0  0  0  0  0  0  0  0  0
    5.9846   -1.2415   18.0879 N   0  0  0  0  0  0  0  0  0  0  0  0
    7.1141   -0.6485   18.6043 N   0  0  0  0  0  0  0  0  0  0  0  0
    7.8715   -1.2748   19.5863 C   0  0  0  0  0  0  0  0  0  0  0  0
    9.0122   -0.6752   20.1062 C   0  0  0  0  0  0  0  0  0  0  0  0
  1  2  1  0
  2  3  2  0
  3  4  1  0
  4  5  2  0
  5  6  1  0
  6  7  2  0
  7  8  1  0
  8  9  1  0
  9 10  2  0
  9 11  1  0
 11 12  2  0
 12 13  1  0
 13 14  2  0
 14 15  1  0
 15 16  2  0
 15 17  1  0
 17 18  2  0
 18 19  1  0
 19 20  2  0
 20 21  1  0
 21 22  2  0
 22 23  1  0
 23 24  1  0
 24 25  1  0
 25 26  2  0
  7  2  1  0
 16 11  1  0
 26 17  1  0
 25 20  1  0
M  END
