CVD-0002003|dock_bobby27042020.7|mol2|40|dock2
     RDKit          3D

 19 21  0  0  0  0  0  0  0  0999 V2000
   13.8666   -2.3934   23.2554 C   0  0  0  0  0  0  0  0  0  0  0  0
   12.8856   -1.8784   22.2043 C   0  0  0  0  0  0  0  0  0  0  0  0
   13.4763   -2.0001   20.8116 C   0  0  0  0  0  0  0  0  0  0  0  0
   14.5378   -1.2580   20.6189 O   0  0  0  0  0  0  0  0  0  0  0  0
   13.0039   -2.7203   19.9599 O   0  0  0  0  0  0  0  0  0  0  0  0
   12.4690   -0.4295   22.4291 C   0  0  0  0  0  0  0  0  0  0  0  0
   11.1276   -0.0710   22.5253 C   0  0  0  0  0  0  0  0  0  0  0  0
   10.7375    1.2425   22.7202 C   0  0  0  0  0  0  0  0  0  0  0  0
   11.7109    2.2323   22.8254 C   0  0  0  0  0  0  0  0  0  0  0  0
   13.0668    1.8695   22.7300 C   0  0  0  0  0  0  0  0  0  0  0  0
   13.4508    0.5479   22.5327 C   0  0  0  0  0  0  0  0  0  0  0  0
   13.8440    3.0051   22.8629 N   0  0  0  0  0  0  0  0  0  0  0  0
   13.0157    4.0980   23.0420 C   0  0  0  0  0  0  0  0  0  0  0  0
   13.3354    5.4398   23.2183 C   0  0  0  0  0  0  0  0  0  0  0  0
   12.3136    6.3601   23.3797 C   0  0  0  0  0  0  0  0  0  0  0  0
   11.0002    5.9375   23.3637 C   0  0  0  0  0  0  0  0  0  0  0  0
    9.7322    7.1134   23.5686 Cl  0  0  0  0  0  0  0  0  0  0  0  0
   10.6575    4.6109   23.1904 C   0  0  0  0  0  0  0  0  0  0  0  0
   11.6736    3.6715   23.0266 C   0  0  0  0  0  0  0  0  0  0  0  0
  2  1  1  0
  2  3  1  0
  3  4  1  0
  3  5  2  0
  2  6  1  0
  6  7  2  0
  7  8  1  0
  8  9  2  0
  9 10  1  0
 10 11  2  0
 10 12  1  0
 12 13  1  0
 13 14  2  0
 14 15  1  0
 15 16  2  0
 16 17  1  0
 16 18  1  0
 18 19  2  0
 11  6  1  0
 19 13  1  0
 19  9  1  0
M  END
