CVD-0001758|dock_bobby27042020.80|mol2|11|dock2
     RDKit          3D

 25 27  0  0  0  0  0  0  0  0999 V2000
    9.0562   -1.0494   22.3936 O   0  0  0  0  0  0  0  0  0  0  0  0
    9.3224    0.1407   22.2964 C   0  0  0  0  0  0  0  0  0  0  0  0
    8.7041    0.9367   21.3578 N   0  0  0  0  0  0  0  0  0  0  0  0
    7.7213    0.6128   20.3853 C   0  0  0  0  0  0  0  0  0  0  0  0
    6.6421    1.4161   20.0232 C   0  0  0  0  0  0  0  0  0  0  0  0
    5.7600    0.9728   19.0527 C   0  0  0  0  0  0  0  0  0  0  0  0
    5.9721   -0.2555   18.4715 C   0  0  0  0  0  0  0  0  0  0  0  0
    6.9917   -1.0486   18.7973 N   0  0  0  0  0  0  0  0  0  0  0  0
    7.8377   -0.6104   19.7338 C   0  0  0  0  0  0  0  0  0  0  0  0
   10.2661    0.6985   23.1742 N   0  0  0  0  0  0  0  0  0  0  0  0
   10.9535   -0.0948   24.1889 C   0  0  0  0  0  0  0  0  0  0  0  0
   12.2914   -0.5034   23.8127 N   0  0  0  0  0  0  0  0  0  0  0  0
   12.2821   -1.2568   22.5558 C   0  0  0  0  0  0  0  0  0  0  0  0
   13.6750   -1.6589   22.1979 C   0  0  0  0  0  0  0  0  0  0  0  0
   14.2641   -2.4671   23.2103 O   0  0  0  0  0  0  0  0  0  0  0  0
   14.2763   -1.7578   24.4379 C   0  0  0  0  0  0  0  0  0  0  0  0
   12.8993   -1.3332   24.8517 C   0  0  0  0  0  0  0  0  0  0  0  0
   10.6662    2.0844   23.1646 C   0  0  0  0  0  0  0  0  0  0  0  0
    9.7620    3.1161   23.4085 C   0  0  0  0  0  0  0  0  0  0  0  0
   10.1671    4.4402   23.3803 C   0  0  0  0  0  0  0  0  0  0  0  0
   11.4872    4.7632   23.1279 C   0  0  0  0  0  0  0  0  0  0  0  0
   12.4060    3.7476   22.8987 C   0  0  0  0  0  0  0  0  0  0  0  0
   11.9974    2.4159   22.9133 C   0  0  0  0  0  0  0  0  0  0  0  0
   13.7889    4.0669   22.6428 C   0  0  0  0  0  0  0  0  0  0  0  0
   14.8778    4.3189   22.4074 N   0  0  0  0  0  0  0  0  0  0  0  0
  1  2  2  0
  2  3  1  0
  3  4  1  0
  4  5  2  0
  5  6  1  0
  6  7  2  0
  7  8  1  0
  8  9  2  0
  2 10  1  0
 10 11  1  0
 11 12  1  0
 12 13  1  0
 13 14  1  0
 14 15  1  0
 15 16  1  0
 16 17  1  0
 10 18  1  0
 18 19  2  0
 19 20  1  0
 20 21  2  0
 21 22  1  0
 22 23  2  0
 22 24  1  0
 24 25  3  0
  9  4  1  0
 17 12  1  0
 23 18  1  0
M  END
