CVD-0003319|dock_bobby27042020.45|mol2|37|dock1
     RDKit          3D

 24 26  0  0  0  0  0  0  0  0999 V2000
    4.6789    0.8534   18.4558 C   0  0  0  0  0  0  0  0  0  0  0  0
    5.2851    0.1601   19.6391 C   0  0  0  0  0  0  0  0  0  0  0  0
    4.8826    0.1903   20.9318 C   0  0  0  0  0  0  0  0  0  0  0  0
    5.6731   -0.5718   21.7881 C   0  0  0  0  0  0  0  0  0  0  0  0
    6.7198   -1.2135   21.1413 C   0  0  0  0  0  0  0  0  0  0  0  0
    6.6834   -0.8367   19.4562 S   0  0  0  0  0  0  0  0  0  0  0  0
    7.7749   -2.1171   21.7427 C   0  0  0  0  0  0  0  0  0  0  0  0
    8.7946   -1.3763   22.4996 N   0  0  0  0  0  0  0  0  0  0  0  0
    9.9300   -2.2440   22.8534 C   0  0  0  0  0  0  0  0  0  0  0  0
   10.9467   -1.4897   23.6702 C   0  0  0  0  0  0  0  0  0  0  0  0
   11.4067   -0.2973   22.9516 N   0  0  0  0  0  0  0  0  0  0  0  0
   10.3019    0.5572   22.5205 C   0  0  0  0  0  0  0  0  0  0  0  0
    9.3160   -0.2554   21.7158 C   0  0  0  0  0  0  0  0  0  0  0  0
   12.6864    0.0999   22.8039 C   0  0  0  0  0  0  0  0  0  0  0  0
   12.9847    1.1081   22.1761 O   0  0  0  0  0  0  0  0  0  0  0  0
   13.7418   -0.7735   23.4532 C   0  0  0  0  0  0  0  0  0  0  0  0
   13.9145   -2.3141   22.6025 Cl  0  0  0  0  0  0  0  0  0  0  0  0
    7.1483   -3.2122   22.5935 C   0  0  0  0  0  0  0  0  0  0  0  0
    6.9723   -3.0436   23.9599 C   0  0  0  0  0  0  0  0  0  0  0  0
    6.3980   -4.0433   24.7268 C   0  0  0  0  0  0  0  0  0  0  0  0
    5.9904   -5.2273   24.1356 C   0  0  0  0  0  0  0  0  0  0  0  0
    6.1670   -5.3866   22.7786 C   0  0  0  0  0  0  0  0  0  0  0  0
    5.6584   -6.8703   22.0220 Cl  0  0  0  0  0  0  0  0  0  0  0  0
    6.7380   -4.3981   22.0032 C   0  0  0  0  0  0  0  0  0  0  0  0
  1  2  1  0
  2  3  2  0
  3  4  1  0
  4  5  2  0
  5  6  1  0
  7  5  1  0
  7  8  1  0
  8  9  1  0
  9 10  1  0
 10 11  1  0
 11 12  1  0
 12 13  1  0
 11 14  1  0
 14 15  2  0
 14 16  1  0
 16 17  1  0
  7 18  1  0
 18 19  2  0
 19 20  1  0
 20 21  2  0
 21 22  1  0
 22 23  1  0
 22 24  2  0
  6  2  1  0
 13  8  1  0
 24 18  1  0
M  END
