CVD-0002572|dock_bobby27042020.76|mol2|39|dock1
     RDKit          3D

 37 40  0  0  0  0  0  0  0  0999 V2000
    9.9949   -6.4127   25.1939 N   0  0  0  0  0  0  0  0  0  0  0  0
   10.0000   -4.8275   24.9702 S   0  0  0  0  0  0  0  0  0  0  0  0
   11.3206   -4.4631   24.5526 O   0  0  0  0  0  0  0  0  0  0  0  0
    9.4598   -4.2309   26.1547 O   0  0  0  0  0  0  0  0  0  0  0  0
    8.9017   -4.4462   23.6392 C   0  0  0  0  0  0  0  0  0  0  0  0
    7.8615   -5.3098   23.3381 C   0  0  0  0  0  0  0  0  0  0  0  0
    7.0083   -5.0077   22.2917 C   0  0  0  0  0  0  0  0  0  0  0  0
    7.1813   -3.8518   21.5389 C   0  0  0  0  0  0  0  0  0  0  0  0
    8.2334   -2.9985   21.8562 C   0  0  0  0  0  0  0  0  0  0  0  0
    9.0930   -3.2902   22.9004 C   0  0  0  0  0  0  0  0  0  0  0  0
    6.2472   -3.5434   20.4120 C   0  0  0  0  0  0  0  0  0  0  0  0
    5.2892   -4.2471   20.1379 O   0  0  0  0  0  0  0  0  0  0  0  0
    6.5752   -2.4290   19.7547 O   0  0  0  0  0  0  0  0  0  0  0  0
    5.8045   -2.0974   18.6279 C   0  0  0  0  0  0  0  0  0  0  0  0
    6.3641   -0.9970   17.8764 N   0  0  0  0  0  0  0  0  0  0  0  0
    7.0701    0.0109   18.6698 C   0  0  0  0  0  0  0  0  0  0  0  0
    6.1312    0.7671   19.5725 C   0  0  0  0  0  0  0  0  0  0  0  0
    4.7392    0.8635   19.3995 C   0  0  0  0  0  0  0  0  0  0  0  0
    4.1885    1.6287   20.4101 C   0  0  0  0  0  0  0  0  0  0  0  0
    2.7446    1.9377   20.5533 C   0  0  0  0  0  0  0  0  0  0  0  0
    2.1168    1.4567   21.7040 C   0  0  0  0  0  0  0  0  0  0  0  0
    0.7611    1.6469   21.9120 C   0  0  0  0  0  0  0  0  0  0  0  0
    0.0025    2.3236   20.9835 C   0  0  0  0  0  0  0  0  0  0  0  0
    0.6010    2.8436   19.8503 C   0  0  0  0  0  0  0  0  0  0  0  0
    1.9530    2.6655   19.6747 C   0  0  0  0  0  0  0  0  0  0  0  0
    2.5042    3.2553   18.5927 F   0  0  0  0  0  0  0  0  0  0  0  0
    5.2795    2.0404   21.2261 N   0  0  0  0  0  0  0  0  0  0  0  0
    6.4497    1.5027   20.7044 C   0  0  0  0  0  0  0  0  0  0  0  0
    5.3820    3.0179   22.6095 S   0  0  0  0  0  0  0  0  0  0  0  0
    6.4580    2.4643   23.3714 O   0  0  0  0  0  0  0  0  0  0  0  0
    4.0779    3.0774   23.1930 O   0  0  0  0  0  0  0  0  0  0  0  0
    5.8886    4.6170   22.0775 C   0  0  0  0  0  0  0  0  0  0  0  0
    7.2313    4.9534   22.0509 C   0  0  0  0  0  0  0  0  0  0  0  0
    7.5855    6.2207   21.6217 C   0  0  0  0  0  0  0  0  0  0  0  0
    6.5912    7.0924   21.2388 C   0  0  0  0  0  0  0  0  0  0  0  0
    5.2943    6.7815   21.2579 N   0  0  0  0  0  0  0  0  0  0  0  0
    4.9592    5.5564   21.6731 C   0  0  0  0  0  0  0  0  0  0  0  0
  1  2  1  0
  2  3  2  0
  2  4  2  0
  2  5  1  0
  5  6  2  0
  6  7  1  0
  7  8  2  0
  8  9  1  0
  9 10  2  0
  8 11  1  0
 11 12  2  0
 11 13  1  0
 13 14  1  0
 14 15  1  0
 15 16  1  0
 16 17  1  0
 17 18  1  0
 18 19  2  0
 19 20  1  0
 20 21  2  0
 21 22  1  0
 22 23  2  0
 23 24  1  0
 24 25  2  0
 25 26  1  0
 19 27  1  0
 27 28  1  0
 27 29  1  0
 29 30  2  0
 29 31  2  0
 29 32  1  0
 32 33  2  0
 33 34  1  0
 34 35  2  0
 35 36  1  0
 36 37  2  0
 10  5  1  0
 28 17  2  0
 37 32  1  0
 25 20  1  0
M  END
