CVD-0000244|dock_bobby27042020.56|mol2|36|dock3
     RDKit          3D

 26 28  0  0  0  0  0  0  0  0999 V2000
    5.2398    1.3664   17.8169 C   0  0  0  0  0  0  0  0  0  0  0  0
    6.1684    0.9208   18.8544 N   0  0  0  0  0  0  0  0  0  0  0  0
    6.1414   -0.5399   18.9734 C   0  0  0  0  0  0  0  0  0  0  0  0
    7.1365   -0.9999   20.0225 C   0  0  0  0  0  0  0  0  0  0  0  0
    6.8388   -0.3814   21.3161 N   0  0  0  0  0  0  0  0  0  0  0  0
    6.7992    1.0810   21.2176 C   0  0  0  0  0  0  0  0  0  0  0  0
    5.8164    1.5105   20.1435 C   0  0  0  0  0  0  0  0  0  0  0  0
    6.6577   -1.0987   22.4470 C   0  0  0  0  0  0  0  0  0  0  0  0
    6.4093   -0.5111   23.4861 O   0  0  0  0  0  0  0  0  0  0  0  0
    6.7563   -2.6080   22.4913 C   0  0  0  0  0  0  0  0  0  0  0  0
    5.5826   -3.3637   22.5726 C   0  0  0  0  0  0  0  0  0  0  0  0
    5.6241   -4.7441   22.6006 C   0  0  0  0  0  0  0  0  0  0  0  0
    6.8333   -5.3957   22.5761 C   0  0  0  0  0  0  0  0  0  0  0  0
    8.0171   -4.6821   22.5191 C   0  0  0  0  0  0  0  0  0  0  0  0
    8.0045   -3.2849   22.4685 C   0  0  0  0  0  0  0  0  0  0  0  0
    9.2076   -2.5263   22.3894 N   0  0  0  0  0  0  0  0  0  0  0  0
   10.4333   -2.7307   22.9352 C   0  0  0  0  0  0  0  0  0  0  0  0
   10.7694   -3.6697   23.6505 O   0  0  0  0  0  0  0  0  0  0  0  0
   11.4729   -1.6676   22.6047 C   0  0  0  0  0  0  0  0  0  0  0  0
   12.0937   -1.9847   21.3680 O   0  0  0  0  0  0  0  0  0  0  0  0
   12.5011   -1.5919   23.7168 C   0  0  0  0  0  0  0  0  0  0  0  0
   13.6642   -2.3455   23.6806 C   0  0  0  0  0  0  0  0  0  0  0  0
   14.5772   -2.2515   24.7165 C   0  0  0  0  0  0  0  0  0  0  0  0
   14.2968   -1.4023   25.7632 C   0  0  0  0  0  0  0  0  0  0  0  0
   13.1872   -0.6647   25.8291 N   0  0  0  0  0  0  0  0  0  0  0  0
   12.3199   -0.7716   24.8180 C   0  0  0  0  0  0  0  0  0  0  0  0
  1  2  1  0
  2  3  1  0
  3  4  1  0
  4  5  1  0
  5  6  1  0
  6  7  1  0
  5  8  1  0
  8  9  2  0
  8 10  1  0
 10 11  2  0
 11 12  1  0
 12 13  2  0
 13 14  1  0
 14 15  2  0
 15 16  1  0
 16 17  1  0
 17 18  2  0
 17 19  1  0
 19 20  1  0
 19 21  1  0
 21 22  2  0
 22 23  1  0
 23 24  2  0
 24 25  1  0
 25 26  2  0
  7  2  1  0
 15 10  1  0
 26 21  1  0
M  END
