CVD-0002983|dock_bobby27042020.3|mol2|34|dock1
     RDKit          3D

 19 20  0  0  0  0  0  0  0  0999 V2000
    4.8502    1.6616   22.3283 C   0  0  0  0  0  0  0  0  0  0  0  0
    5.7259    1.1462   21.2123 C   0  0  0  0  0  0  0  0  0  0  0  0
    5.4113    1.4038   19.8883 C   0  0  0  0  0  0  0  0  0  0  0  0
    6.2198    0.9231   18.8807 C   0  0  0  0  0  0  0  0  0  0  0  0
    5.8021    1.2623   17.2245 Cl  0  0  0  0  0  0  0  0  0  0  0  0
    7.3510    0.1804   19.1491 C   0  0  0  0  0  0  0  0  0  0  0  0
    7.6808   -0.0888   20.4757 C   0  0  0  0  0  0  0  0  0  0  0  0
    8.8028   -0.8305   20.8490 N   0  0  0  0  0  0  0  0  0  0  0  0
    9.2414   -1.1407   22.2094 C   0  0  0  0  0  0  0  0  0  0  0  0
   10.1902   -2.3359   22.2666 C   0  0  0  0  0  0  0  0  0  0  0  0
   10.7214   -2.5833   23.6641 C   0  0  0  0  0  0  0  0  0  0  0  0
   11.3191   -1.3634   24.2162 N   0  0  0  0  0  0  0  0  0  0  0  0
   10.3831   -0.2466   24.2764 C   0  0  0  0  0  0  0  0  0  0  0  0
    9.8863    0.0645   22.8819 C   0  0  0  0  0  0  0  0  0  0  0  0
   12.5666   -1.2590   24.7313 C   0  0  0  0  0  0  0  0  0  0  0  0
   12.9899   -0.1957   25.1672 O   0  0  0  0  0  0  0  0  0  0  0  0
   13.4460   -2.4948   24.7520 C   0  0  0  0  0  0  0  0  0  0  0  0
   14.9818   -2.1782   25.5694 Cl  0  0  0  0  0  0  0  0  0  0  0  0
    6.8607    0.3992   21.4886 C   0  0  0  0  0  0  0  0  0  0  0  0
  1  2  1  0
  2  3  2  0
  3  4  1  0
  4  5  1  0
  4  6  2  0
  6  7  1  0
  7  8  1  0
  8  9  1  0
  9 10  1  0
 10 11  1  0
 11 12  1  0
 12 13  1  0
 13 14  1  0
 12 15  1  0
 15 16  2  0
 15 17  1  0
 17 18  1  0
  7 19  2  0
 19  2  1  0
 14  9  1  0
M  END
