CVD-0002541|dock_bobby27042020.19|mol2|27|dock1
     RDKit          3D

 23 26  0  0  0  0  0  0  0  0999 V2000
    7.4513    0.0174   24.3137 C   0  0  0  0  0  0  0  0  0  0  0  0
    7.3030   -1.1533   23.1633 S   0  0  0  0  0  0  0  0  0  0  0  0
    6.9774   -2.6571   22.5734 C   0  0  0  0  0  0  0  0  0  0  0  0
    6.9428   -0.2446   21.8562 N   0  0  0  0  0  0  0  0  0  0  0  0
    7.7684   -0.4624   20.6582 C   0  0  0  0  0  0  0  0  0  0  0  0
    7.5066    0.6691   19.6631 C   0  0  0  0  0  0  0  0  0  0  0  0
    6.0789    0.7532   19.3600 N   0  0  0  0  0  0  0  0  0  0  0  0
    5.2129    0.8936   20.5261 C   0  0  0  0  0  0  0  0  0  0  0  0
    5.5051   -0.2253   21.5192 C   0  0  0  0  0  0  0  0  0  0  0  0
    5.6051    0.6791   18.1162 C   0  0  0  0  0  0  0  0  0  0  0  0
    6.2954    0.5356   17.1095 O   0  0  0  0  0  0  0  0  0  0  0  0
    9.0420   -1.3423   22.9764 C   0  0  0  0  0  0  0  0  0  0  0  0
    9.6672   -2.6109   22.6685 C   0  0  0  0  0  0  0  0  0  0  0  0
   10.9695   -2.4004   22.2864 C   0  0  0  0  0  0  0  0  0  0  0  0
   12.1497   -1.7622   22.0993 N   0  0  0  0  0  0  0  0  0  0  0  0
   12.3084   -0.4180   22.5346 C   0  0  0  0  0  0  0  0  0  0  0  0
   13.5688    0.1707   22.5642 C   0  0  0  0  0  0  0  0  0  0  0  0
   13.7662    1.4574   22.8754 N   0  0  0  0  0  0  0  0  0  0  0  0
   12.7030    2.2190   23.1452 C   0  0  0  0  0  0  0  0  0  0  0  0
   11.4045    1.7511   23.1803 C   0  0  0  0  0  0  0  0  0  0  0  0
   11.1932    0.4026   22.9100 C   0  0  0  0  0  0  0  0  0  0  0  0
    9.9350   -0.2957   22.9600 C   0  0  0  0  0  0  0  0  0  0  0  0
   11.0030   -1.3944   23.6681 S   0  0  0  0  0  0  0  0  0  0  0  0
  1  2  2  0
  2  3  2  0
  2  4  1  0
  4  5  1  0
  5  6  1  0
  6  7  1  0
  7  8  1  0
  8  9  1  0
  7 10  1  0
 10 11  2  0
  2 12  1  0
 12 13  1  0
 13 14  2  0
 14 15  1  0
 15 16  1  0
 16 17  2  0
 17 18  1  0
 18 19  2  0
 19 20  1  0
 20 21  2  0
 21 22  1  0
 22 23  1  0
  9  4  1  0
 22 12  2  0
 23 14  1  0
 21 16  1  0
M  END
