CVD-0001818|dock_bobby27042020.8|mol2|21|dock1
     RDKit          3D

 30 33  0  0  0  0  0  0  0  0999 V2000
    3.5001   -5.5446   24.1107 C   0  0  0  0  0  0  0  0  0  0  0  0
    4.5822   -6.5228   23.7751 C   0  0  0  0  0  0  0  0  0  0  0  0
    5.4428   -6.0015   22.2708 S   0  0  0  0  0  0  0  0  0  0  0  0
    6.5841   -4.7921   22.8563 C   0  0  0  0  0  0  0  0  0  0  0  0
    7.1563   -3.9473   21.9169 C   0  0  0  0  0  0  0  0  0  0  0  0
    8.0544   -2.9745   22.3330 C   0  0  0  0  0  0  0  0  0  0  0  0
    8.6968   -2.0361   21.3393 C   0  0  0  0  0  0  0  0  0  0  0  0
    9.2909   -0.8450   21.9621 N   0  0  0  0  0  0  0  0  0  0  0  0
   10.5910   -0.7442   22.3692 C   0  0  0  0  0  0  0  0  0  0  0  0
   10.8204    0.4521   22.8622 N   0  0  0  0  0  0  0  0  0  0  0  0
    9.6368    1.1812   22.7763 N   0  0  0  0  0  0  0  0  0  0  0  0
    8.7368    0.3910   22.2327 C   0  0  0  0  0  0  0  0  0  0  0  0
    7.4474    0.8135   21.9992 N   0  0  0  0  0  0  0  0  0  0  0  0
    7.1108    2.2214   21.8577 C   0  0  0  0  0  0  0  0  0  0  0  0
    6.1745    2.4207   20.6771 C   0  0  0  0  0  0  0  0  0  0  0  0
    4.9692    1.5352   20.7300 C   0  0  0  0  0  0  0  0  0  0  0  0
    5.3975    0.0865   20.9034 C   0  0  0  0  0  0  0  0  0  0  0  0
    6.3012   -0.0792   22.1220 C   0  0  0  0  0  0  0  0  0  0  0  0
    4.0927    1.6933   19.4979 C   0  0  0  0  0  0  0  0  0  0  0  0
    3.3533    2.7899   19.4524 N   0  0  0  0  0  0  0  0  0  0  0  0
    4.0779    0.8483   18.5998 O   0  0  0  0  0  0  0  0  0  0  0  0
   11.6542   -1.8083   22.2866 C   0  0  0  0  0  0  0  0  0  0  0  0
   12.7540   -1.5594   23.3229 C   0  0  0  0  0  0  0  0  0  0  0  0
   14.0447   -1.6554   22.5126 C   0  0  0  0  0  0  0  0  0  0  0  0
   13.6590   -1.5413   21.1014 C   0  0  0  0  0  0  0  0  0  0  0  0
   14.3342   -1.2914   20.1077 O   0  0  0  0  0  0  0  0  0  0  0  0
   12.3532   -1.7896   21.0171 N   0  0  0  0  0  0  0  0  0  0  0  0
    8.3357   -2.8921   23.6865 C   0  0  0  0  0  0  0  0  0  0  0  0
    7.7173   -3.7728   24.5518 C   0  0  0  0  0  0  0  0  0  0  0  0
    6.8495   -4.7158   24.1610 N   0  0  0  0  0  0  0  0  0  0  0  0
  1  2  1  0
  2  3  1  0
  3  4  1  0
  4  5  2  0
  5  6  1  0
  6  7  1  0
  7  8  1  0
  8  9  1  0
  9 10  2  0
 10 11  1  0
 11 12  2  0
 12 13  1  0
 13 14  1  0
 14 15  1  0
 15 16  1  0
 16 17  1  0
 17 18  1  0
 16 19  1  0
 19 20  1  0
 19 21  2  0
  9 22  1  0
 22 23  1  0
 23 24  1  0
 24 25  1  0
 25 26  2  0
 25 27  1  0
  6 28  2  0
 28 29  1  0
 29 30  2  0
 30  4  1  0
 12  8  1  0
 18 13  1  0
 27 22  1  0
M  END
