CVD-0001639|dock_bobby27042020.94|mol2|35|dock1
     RDKit          3D

 15 16  0  0  0  0  0  0  0  0999 V2000
   13.7145   -1.4621   23.2367 C   0  0  0  0  0  0  0  0  0  0  0  0
   12.7866   -0.6349   22.3605 C   0  0  0  0  0  0  0  0  0  0  0  0
   11.6638   -1.5104   21.8599 C   0  0  0  0  0  0  0  0  0  0  0  0
   10.7893   -1.8993   22.9647 N   0  0  0  0  0  0  0  0  0  0  0  0
   10.2023   -0.6873   23.5270 C   0  0  0  0  0  0  0  0  0  0  0  0
   11.2764    0.1981   24.1007 C   0  0  0  0  0  0  0  0  0  0  0  0
   12.2670    0.5330   23.0745 N   0  0  0  0  0  0  0  0  0  0  0  0
   12.6292    1.8600   22.7822 C   0  0  0  0  0  0  0  0  0  0  0  0
   11.6970    2.8874   22.6765 C   0  0  0  0  0  0  0  0  0  0  0  0
   12.1042    4.1718   22.3673 C   0  0  0  0  0  0  0  0  0  0  0  0
   13.4616    4.4024   22.1843 C   0  0  0  0  0  0  0  0  0  0  0  0
   14.3881    3.4346   22.2970 N   0  0  0  0  0  0  0  0  0  0  0  0
   13.9610    2.1993   22.5854 C   0  0  0  0  0  0  0  0  0  0  0  0
   13.9487    5.7282   21.8570 C   0  0  0  0  0  0  0  0  0  0  0  0
   14.2971    6.7861   21.6032 N   0  0  0  0  0  0  0  0  0  0  0  0
  1  2  1  0
  2  3  1  0
  3  4  1  0
  4  5  1  0
  5  6  1  0
  6  7  1  0
  7  8  1  0
  8  9  2  0
  9 10  1  0
 10 11  2  0
 11 12  1  0
 12 13  2  0
 11 14  1  0
 14 15  3  0
  7  2  1  0
 13  8  1  0
M  END
