CVD-0002149|dock_bobby27042020.50|mol2|6|dock2
     RDKit          3D

 16 16  0  0  0  0  0  0  0  0999 V2000
    5.0052    0.2702   18.3776 C   0  0  0  0  0  0  0  0  0  0  0  0
    5.8596   -1.2532   18.5036 S   0  0  0  0  0  0  0  0  0  0  0  0
    6.9449   -1.2318   17.5722 O   0  0  0  0  0  0  0  0  0  0  0  0
    4.8997   -2.3095   18.4095 O   0  0  0  0  0  0  0  0  0  0  0  0
    6.5013   -1.3307   19.9707 N   0  0  0  0  0  0  0  0  0  0  0  0
    7.7720   -0.6490   20.2444 C   0  0  0  0  0  0  0  0  0  0  0  0
    8.1109   -0.7208   21.7224 C   0  0  0  0  0  0  0  0  0  0  0  0
    9.4621   -0.1280   22.0413 C   0  0  0  0  0  0  0  0  0  0  0  0
    9.5870    1.2086   22.3841 C   0  0  0  0  0  0  0  0  0  0  0  0
   10.8279    1.7458   22.6781 C   0  0  0  0  0  0  0  0  0  0  0  0
   11.9568    0.9465   22.6318 C   0  0  0  0  0  0  0  0  0  0  0  0
   11.8587   -0.3981   22.2917 C   0  0  0  0  0  0  0  0  0  0  0  0
   10.6014   -0.9224   21.9987 C   0  0  0  0  0  0  0  0  0  0  0  0
   13.1015   -1.2255   22.2539 C   0  0  0  0  0  0  0  0  0  0  0  0
   13.9672   -1.1991   23.2924 N   0  0  0  0  0  0  0  0  0  0  0  0
   13.3712   -1.9749   21.2391 N   0  0  0  0  0  0  0  0  0  0  0  0
  1  2  1  0
  2  3  2  0
  2  4  2  0
  2  5  1  0
  5  6  1  0
  6  7  1  0
  7  8  1  0
  8  9  2  0
  9 10  1  0
 10 11  2  0
 11 12  1  0
 12 13  2  0
 12 14  1  0
 14 15  1  0
 14 16  2  0
 13  8  1  0
M  END
