CVD-0003726|dock_bobby27042020.15|mol2|38|dock3
     RDKit          3D

 27 29  0  0  0  0  0  0  0  0999 V2000
    4.8385   -0.9195   18.3568 O   0  0  0  0  0  0  0  0  0  0  0  0
    6.0129   -0.9676   19.1723 C   0  0  0  0  0  0  0  0  0  0  0  0
    5.7784   -0.3484   20.5366 C   0  0  0  0  0  0  0  0  0  0  0  0
    7.0126   -0.4249   21.4390 C   0  0  0  0  0  0  0  0  0  0  0  0
    7.4595   -1.8774   21.5712 C   0  0  0  0  0  0  0  0  0  0  0  0
    7.7612   -2.4858   20.2107 C   0  0  0  0  0  0  0  0  0  0  0  0
    6.5123   -2.3956   19.3262 C   0  0  0  0  0  0  0  0  0  0  0  0
    8.6187   -2.0043   22.4764 N   0  0  0  0  0  0  0  0  0  0  0  0
    9.8680   -1.5028   21.8834 C   0  0  0  0  0  0  0  0  0  0  0  0
   10.7817   -0.8207   22.8749 C   0  0  0  0  0  0  0  0  0  0  0  0
   10.2592   -0.2380   24.0264 C   0  0  0  0  0  0  0  0  0  0  0  0
   11.0803    0.3895   24.9490 C   0  0  0  0  0  0  0  0  0  0  0  0
   12.4417    0.4466   24.7396 C   0  0  0  0  0  0  0  0  0  0  0  0
   12.9919   -0.1245   23.6048 C   0  0  0  0  0  0  0  0  0  0  0  0
   12.1704   -0.7583   22.6709 C   0  0  0  0  0  0  0  0  0  0  0  0
   12.7545   -1.3491   21.4952 C   0  0  0  0  0  0  0  0  0  0  0  0
   13.2492   -1.8093   20.5742 N   0  0  0  0  0  0  0  0  0  0  0  0
    8.7427   -3.2871   23.2023 C   0  0  0  0  0  0  0  0  0  0  0  0
   10.0904   -3.3861   23.9062 C   0  0  0  0  0  0  0  0  0  0  0  0
   10.1935   -4.6853   24.6785 C   0  0  0  0  0  0  0  0  0  0  0  0
    9.0990   -4.7817   25.6406 N   0  0  0  0  0  0  0  0  0  0  0  0
    7.7857   -4.7454   25.0061 C   0  0  0  0  0  0  0  0  0  0  0  0
    7.6198   -3.4461   24.2249 C   0  0  0  0  0  0  0  0  0  0  0  0
    9.2175   -5.1533   26.9380 C   0  0  0  0  0  0  0  0  0  0  0  0
   10.3014   -5.5509   27.3623 O   0  0  0  0  0  0  0  0  0  0  0  0
    8.0524   -5.0909   27.8663 C   0  0  0  0  0  0  0  0  0  0  0  0
    7.7064   -6.1361   28.5701 C   0  0  0  0  0  0  0  0  0  0  0  0
  1  2  1  0
  2  3  1  0
  3  4  1  0
  4  5  1  0
  5  6  1  0
  6  7  1  0
  5  8  1  0
  8  9  1  0
  9 10  1  0
 10 11  2  0
 11 12  1  0
 12 13  2  0
 13 14  1  0
 14 15  2  0
 15 16  1  0
 16 17  3  0
  8 18  1  0
 18 19  1  0
 19 20  1  0
 20 21  1  0
 21 22  1  0
 22 23  1  0
 21 24  1  0
 24 25  2  0
 24 26  1  0
 26 27  2  0
  7  2  1  0
 15 10  1  0
 23 18  1  0
M  END
