CVD-0003881|dock_bobby27042020.72|mol2|26|dock1
     RDKit          3D

 21 22  0  0  0  0  0  0  0  0999 V2000
    9.9932   -5.6040   26.6836 C   0  0  0  0  0  0  0  0  0  0  0  0
    8.6832   -5.5010   25.9452 C   0  0  0  0  0  0  0  0  0  0  0  0
    8.3381   -4.2402   25.2617 N   0  0  0  0  0  0  0  0  0  0  0  0
    6.9336   -4.3692   24.8717 C   0  0  0  0  0  0  0  0  0  0  0  0
    9.1956   -3.9595   24.1053 C   0  0  0  0  0  0  0  0  0  0  0  0
    9.1231   -2.5479   23.5343 C   0  0  0  0  0  0  0  0  0  0  0  0
   10.2371   -2.2928   22.5130 C   0  0  0  0  0  0  0  0  0  0  0  0
   10.1507   -0.8995   21.9575 C   0  0  0  0  0  0  0  0  0  0  0  0
   10.1849    0.1175   23.0128 N   0  0  0  0  0  0  0  0  0  0  0  0
    9.1393   -0.0803   24.0433 C   0  0  0  0  0  0  0  0  0  0  0  0
    9.1939   -1.4860   24.6026 C   0  0  0  0  0  0  0  0  0  0  0  0
   10.9749    1.2600   22.9349 C   0  0  0  0  0  0  0  0  0  0  0  0
   10.4025    2.5286   22.9438 C   0  0  0  0  0  0  0  0  0  0  0  0
   11.1786    3.6709   22.8604 C   0  0  0  0  0  0  0  0  0  0  0  0
   12.5546    3.5584   22.7784 C   0  0  0  0  0  0  0  0  0  0  0  0
   13.1499    2.3100   22.7762 C   0  0  0  0  0  0  0  0  0  0  0  0
   12.3616    1.1752   22.8461 C   0  0  0  0  0  0  0  0  0  0  0  0
   13.5545    5.0125   22.6869 S   0  0  0  0  0  0  0  0  0  0  0  0
   13.8648    5.3187   21.1463 N   0  0  0  0  0  0  0  0  0  0  0  0
   14.8041    4.7128   23.3191 O   0  0  0  0  0  0  0  0  0  0  0  0
   12.7708    6.1025   23.1857 O   0  0  0  0  0  0  0  0  0  0  0  0
  1  2  1  0
  2  3  1  0
  3  4  1  0
  3  5  1  0
  5  6  1  0
  6  7  1  0
  7  8  1  0
  8  9  1  0
  9 10  1  0
 10 11  1  0
  9 12  1  0
 12 13  2  0
 13 14  1  0
 14 15  2  0
 15 16  1  0
 16 17  2  0
 15 18  1  0
 18 19  1  0
 18 20  2  0
 18 21  2  0
 11  6  1  0
 17 12  1  0
M  END
