CVD-0001286|dock_bobby27042020.81|mol2|32|dock1
     RDKit          3D

 18 18  0  0  0  0  0  0  0  0999 V2000
   13.9948   -2.4155   22.8268 Cl  0  0  0  0  0  0  0  0  0  0  0  0
   14.4007   -1.9044   24.4703 C   0  0  0  0  0  0  0  0  0  0  0  0
   13.2093   -1.8741   25.3910 C   0  0  0  0  0  0  0  0  0  0  0  0
   13.0751   -2.6499   26.3131 O   0  0  0  0  0  0  0  0  0  0  0  0
   12.1807   -0.8060   25.0918 C   0  0  0  0  0  0  0  0  0  0  0  0
   11.7132   -0.7515   23.7235 N   0  0  0  0  0  0  0  0  0  0  0  0
   11.0153   -1.7504   23.1899 C   0  0  0  0  0  0  0  0  0  0  0  0
   10.7269   -2.7673   23.8132 O   0  0  0  0  0  0  0  0  0  0  0  0
   10.5999   -1.5740   21.7447 C   0  0  0  0  0  0  0  0  0  0  0  0
    9.2905   -0.8199   21.6491 C   0  0  0  0  0  0  0  0  0  0  0  0
    8.7917   -0.3142   22.6490 O   0  0  0  0  0  0  0  0  0  0  0  0
    8.7653   -0.7880   20.4001 N   0  0  0  0  0  0  0  0  0  0  0  0
    7.5735   -0.2083   19.8983 C   0  0  0  0  0  0  0  0  0  0  0  0
    6.4635   -0.1720   20.7347 C   0  0  0  0  0  0  0  0  0  0  0  0
    5.2720    0.3824   20.2989 C   0  0  0  0  0  0  0  0  0  0  0  0
    5.1734    0.9053   19.0285 C   0  0  0  0  0  0  0  0  0  0  0  0
    6.2665    0.8749   18.1907 C   0  0  0  0  0  0  0  0  0  0  0  0
    7.4640    0.3228   18.6152 C   0  0  0  0  0  0  0  0  0  0  0  0
  1  2  1  0
  2  3  1  0
  3  4  2  0
  3  5  1  0
  5  6  1  0
  6  7  1  0
  7  8  2  0
  7  9  1  0
  9 10  1  0
 10 11  2  0
 10 12  1  0
 12 13  1  0
 13 14  2  0
 14 15  1  0
 15 16  2  0
 16 17  1  0
 17 18  2  0
 18 13  1  0
M  END
