CVD-0000598|dock_bobby27042020.69|mol2|41|dock3
     RDKit          3D

 27 29  0  0  0  0  0  0  0  0999 V2000
    4.6465    1.3294   18.4667 N   0  0  0  0  0  0  0  0  0  0  0  0
    5.7375    0.2179   18.0963 S   0  0  0  0  0  0  0  0  0  0  0  0
    6.7607    0.8668   17.3326 O   0  0  0  0  0  0  0  0  0  0  0  0
    5.0358   -0.8869   17.5146 O   0  0  0  0  0  0  0  0  0  0  0  0
    6.4806   -0.3579   19.5927 C   0  0  0  0  0  0  0  0  0  0  0  0
    5.7442   -0.3652   20.7656 C   0  0  0  0  0  0  0  0  0  0  0  0
    6.3364   -0.8222   21.9307 C   0  0  0  0  0  0  0  0  0  0  0  0
    7.6472   -1.2688   21.9251 C   0  0  0  0  0  0  0  0  0  0  0  0
    8.3697   -1.2604   20.7445 C   0  0  0  0  0  0  0  0  0  0  0  0
    9.6908   -1.7118   20.7742 O   0  0  0  0  0  0  0  0  0  0  0  0
   10.6878   -1.1176   21.5505 C   0  0  0  0  0  0  0  0  0  0  0  0
   11.6631   -1.8846   22.1668 C   0  0  0  0  0  0  0  0  0  0  0  0
   12.6161   -1.2402   22.9255 C   0  0  0  0  0  0  0  0  0  0  0  0
   13.8536   -2.1825   23.7083 Cl  0  0  0  0  0  0  0  0  0  0  0  0
   12.6173    0.1300   23.0822 C   0  0  0  0  0  0  0  0  0  0  0  0
   11.6368    0.9031   22.4665 C   0  0  0  0  0  0  0  0  0  0  0  0
   10.6669    0.2603   21.6960 C   0  0  0  0  0  0  0  0  0  0  0  0
   11.6885    2.3941   22.6744 C   0  0  0  0  0  0  0  0  0  0  0  0
   10.6529    2.9488   23.0266 O   0  0  0  0  0  0  0  0  0  0  0  0
   12.8612    3.0564   22.4672 N   0  0  0  0  0  0  0  0  0  0  0  0
   13.1773    4.4329   22.6016 C   0  0  0  0  0  0  0  0  0  0  0  0
   12.7085    5.2633   23.6162 C   0  0  0  0  0  0  0  0  0  0  0  0
   13.0918    6.5934   23.6358 C   0  0  0  0  0  0  0  0  0  0  0  0
   13.9285    7.0589   22.6483 C   0  0  0  0  0  0  0  0  0  0  0  0
   14.3938    6.2899   21.6645 N   0  0  0  0  0  0  0  0  0  0  0  0
   14.0178    5.0079   21.6548 C   0  0  0  0  0  0  0  0  0  0  0  0
    7.7934   -0.8033   19.5686 C   0  0  0  0  0  0  0  0  0  0  0  0
  1  2  1  0
  2  3  2  0
  2  4  2  0
  2  5  1  0
  5  6  2  0
  6  7  1  0
  7  8  2  0
  8  9  1  0
  9 10  1  0
 10 11  1  0
 11 12  2  0
 12 13  1  0
 13 14  1  0
 13 15  2  0
 15 16  1  0
 16 17  2  0
 16 18  1  0
 18 19  2  0
 18 20  1  0
 20 21  1  0
 21 22  2  0
 22 23  1  0
 23 24  2  0
 24 25  1  0
 25 26  2  0
  9 27  2  0
 27  5  1  0
 17 11  1  0
 26 21  1  0
M  END
