CVD-0001748|dock_bobby27042020.23|mol2|2|dock1
     RDKit          3D

 25 27  0  0  0  0  0  0  0  0999 V2000
    7.4296   -2.1397   22.9582 O   0  0  0  0  0  0  0  0  0  0  0  0
    8.5084   -1.6919   22.5939 C   0  0  0  0  0  0  0  0  0  0  0  0
    8.7143   -1.3350   21.2786 N   0  0  0  0  0  0  0  0  0  0  0  0
    7.8343   -1.3924   20.1651 C   0  0  0  0  0  0  0  0  0  0  0  0
    6.7304   -2.2336   20.0403 C   0  0  0  0  0  0  0  0  0  0  0  0
    5.9617   -2.1812   18.8901 C   0  0  0  0  0  0  0  0  0  0  0  0
    6.3080   -1.2943   17.8977 C   0  0  0  0  0  0  0  0  0  0  0  0
    7.3544   -0.4748   17.9870 N   0  0  0  0  0  0  0  0  0  0  0  0
    8.0901   -0.5349   19.1006 C   0  0  0  0  0  0  0  0  0  0  0  0
    9.5147   -1.5525   23.5658 N   0  0  0  0  0  0  0  0  0  0  0  0
    9.2644   -1.9449   24.9734 C   0  0  0  0  0  0  0  0  0  0  0  0
    9.8279   -3.3136   25.3370 C   0  0  0  0  0  0  0  0  0  0  0  0
    9.4819   -4.3627   24.2605 C   0  0  0  0  0  0  0  0  0  0  0  0
    9.9709   -5.7616   24.6312 C   0  0  0  0  0  0  0  0  0  0  0  0
    9.4576   -6.1835   26.0018 C   0  0  0  0  0  0  0  0  0  0  0  0
    9.8290   -5.1609   27.0660 C   0  0  0  0  0  0  0  0  0  0  0  0
    9.3030   -3.7750   26.7072 C   0  0  0  0  0  0  0  0  0  0  0  0
   10.8175   -0.9927   23.2967 C   0  0  0  0  0  0  0  0  0  0  0  0
   11.2849    0.1185   23.9946 C   0  0  0  0  0  0  0  0  0  0  0  0
   12.5284    0.6621   23.7171 C   0  0  0  0  0  0  0  0  0  0  0  0
   13.3399    0.1007   22.7487 C   0  0  0  0  0  0  0  0  0  0  0  0
   12.8954   -1.0133   22.0493 C   0  0  0  0  0  0  0  0  0  0  0  0
   11.6396   -1.5517   22.3194 C   0  0  0  0  0  0  0  0  0  0  0  0
   13.7303   -1.6168   21.0401 C   0  0  0  0  0  0  0  0  0  0  0  0
   14.3798   -2.0728   20.2186 N   0  0  0  0  0  0  0  0  0  0  0  0
  1  2  2  0
  2  3  1  0
  3  4  1  0
  4  5  2  0
  5  6  1  0
  6  7  2  0
  7  8  1  0
  8  9  2  0
  2 10  1  0
 10 11  1  0
 11 12  1  0
 12 13  1  0
 13 14  1  0
 14 15  1  0
 15 16  1  0
 16 17  1  0
 10 18  1  0
 18 19  2  0
 19 20  1  0
 20 21  2  0
 21 22  1  0
 22 23  2  0
 22 24  1  0
 24 25  3  0
  9  4  1  0
 17 12  1  0
 23 18  1  0
M  END
