CVD-0002398|dock_bobby27042020.49|mol2|4|dock1
     RDKit          3D

 26 29  0  0  0  0  0  0  0  0999 V2000
    6.5594   -6.5256   23.2028 F   0  0  0  0  0  0  0  0  0  0  0  0
    7.1740   -5.3659   22.8757 C   0  0  0  0  0  0  0  0  0  0  0  0
    6.5723   -4.5175   21.9852 C   0  0  0  0  0  0  0  0  0  0  0  0
    7.1953   -3.3161   21.6490 C   0  0  0  0  0  0  0  0  0  0  0  0
    8.4191   -2.9743   22.2438 C   0  0  0  0  0  0  0  0  0  0  0  0
    9.0257   -3.8704   23.1232 C   0  0  0  0  0  0  0  0  0  0  0  0
    8.3945   -5.0579   23.4412 C   0  0  0  0  0  0  0  0  0  0  0  0
    9.1496   -6.1523   24.5530 Cl  0  0  0  0  0  0  0  0  0  0  0  0
    8.9923   -1.7219   21.9088 N   0  0  0  0  0  0  0  0  0  0  0  0
   10.2203   -1.2835   22.5331 C   0  0  0  0  0  0  0  0  0  0  0  0
   11.4512   -1.6971   22.0370 C   0  0  0  0  0  0  0  0  0  0  0  0
   12.6242   -1.2717   22.6380 C   0  0  0  0  0  0  0  0  0  0  0  0
   12.5821   -0.4347   23.7318 C   0  0  0  0  0  0  0  0  0  0  0  0
   11.3662   -0.0190   24.2295 C   0  0  0  0  0  0  0  0  0  0  0  0
   10.1872   -0.4384   23.6362 C   0  0  0  0  0  0  0  0  0  0  0  0
    8.4106   -0.8419   20.9912 C   0  0  0  0  0  0  0  0  0  0  0  0
    8.9338    0.2348   20.7488 O   0  0  0  0  0  0  0  0  0  0  0  0
    7.2049   -1.2356   20.3902 N   0  0  0  0  0  0  0  0  0  0  0  0
    6.5998   -0.3327   19.4276 C   0  0  0  0  0  0  0  0  0  0  0  0
    5.3128    0.1606   19.6050 C   0  0  0  0  0  0  0  0  0  0  0  0
    4.7739    1.0223   18.6661 C   0  0  0  0  0  0  0  0  0  0  0  0
    5.5374    1.3673   17.5757 C   0  0  0  0  0  0  0  0  0  0  0  0
    6.7734    0.9094   17.3785 N   0  0  0  0  0  0  0  0  0  0  0  0
    7.2816    0.0750   18.2906 C   0  0  0  0  0  0  0  0  0  0  0  0
    6.5397   -2.4470   20.6654 C   0  0  0  0  0  0  0  0  0  0  0  0
    5.4973   -2.7719   20.1225 O   0  0  0  0  0  0  0  0  0  0  0  0
  1  2  1  0
  2  3  2  0
  3  4  1  0
  4  5  2  0
  5  6  1  0
  6  7  2  0
  7  8  1  0
  5  9  1  0
  9 10  1  0
 10 11  2  0
 11 12  1  0
 12 13  2  0
 13 14  1  0
 14 15  2  0
  9 16  1  0
 16 17  2  0
 16 18  1  0
 18 19  1  0
 19 20  2  0
 20 21  1  0
 21 22  2  0
 22 23  1  0
 23 24  2  0
 18 25  1  0
 25 26  2  0
  7  2  1  0
 15 10  1  0
 24 19  1  0
 25  4  1  0
M  END
