CVD-0000005|dock_bobby27042020.14|mol2|28|dock3
     RDKit          3D

 42 47  0  0  0  0  0  0  0  0999 V2000
   12.7648    7.4936   25.9238 C   0  0  0  0  0  0  0  0  0  0  0  0
   13.0393    6.9243   24.5607 C   0  0  0  0  0  0  0  0  0  0  0  0
   13.6662    7.6001   23.7296 O   0  0  0  0  0  0  0  0  0  0  0  0
   12.5691    5.5769   24.2138 C   0  0  0  0  0  0  0  0  0  0  0  0
   13.0170    4.8644   23.1940 C   0  0  0  0  0  0  0  0  0  0  0  0
   12.5650    3.4767   22.7979 C   0  0  0  0  0  0  0  0  0  0  0  0
   13.5728    2.4482   23.3470 C   0  0  0  0  0  0  0  0  0  0  0  0
   13.2194    1.0047   23.0815 C   0  0  0  0  0  0  0  0  0  0  0  0
   12.1262    0.4171   23.6990 C   0  0  0  0  0  0  0  0  0  0  0  0
   11.7997   -0.9062   23.4533 C   0  0  0  0  0  0  0  0  0  0  0  0
   12.5626   -1.6578   22.5857 C   0  0  0  0  0  0  0  0  0  0  0  0
   13.6515   -1.0857   21.9639 C   0  0  0  0  0  0  0  0  0  0  0  0
   13.9772    0.2377   22.2102 C   0  0  0  0  0  0  0  0  0  0  0  0
   12.2814    3.3648   21.2830 C   0  0  0  0  0  0  0  0  0  0  0  0
   10.8378    3.2490   21.2017 O   0  0  0  0  0  0  0  0  0  0  0  0
   10.3891    3.1846   22.4815 C   0  0  0  0  0  0  0  0  0  0  0  0
    8.9097    3.0343   22.6150 C   0  0  0  0  0  0  0  0  0  0  0  0
    8.4341    1.8084   21.9909 N   0  0  0  0  0  0  0  0  0  0  0  0
    7.3891    1.0465   22.3581 C   0  0  0  0  0  0  0  0  0  0  0  0
    7.3460   -0.0052   21.4950 C   0  0  0  0  0  0  0  0  0  0  0  0
    6.6297   -1.2664   21.0807 C   0  0  0  0  0  0  0  0  0  0  0  0
    7.3693   -1.7826   19.8615 C   0  0  0  0  0  0  0  0  0  0  0  0
    8.4856   -0.8432   19.5334 C   0  0  0  0  0  0  0  0  0  0  0  0
    8.4669    0.2233   20.5942 C   0  0  0  0  0  0  0  0  0  0  0  0
    9.1062    1.3263   20.9179 N   0  0  0  0  0  0  0  0  0  0  0  0
    6.4150   -1.8801   18.7615 N   0  0  0  0  0  0  0  0  0  0  0  0
    5.7496   -0.8862   18.2052 C   0  0  0  0  0  0  0  0  0  0  0  0
    4.8969   -1.0984   17.1975 N   0  0  0  0  0  0  0  0  0  0  0  0
    5.9234    0.3478   18.6469 N   0  0  0  0  0  0  0  0  0  0  0  0
    6.6212   -2.2620   22.2242 C   0  0  0  0  0  0  0  0  0  0  0  0
    7.0266   -3.4853   22.2302 N   0  0  0  0  0  0  0  0  0  0  0  0
    6.7969   -3.9323   23.5184 C   0  0  0  0  0  0  0  0  0  0  0  0
    7.1503   -5.3355   23.9007 C   0  0  0  0  0  0  0  0  0  0  0  0
    8.1407   -5.3927   25.0418 C   0  0  0  0  0  0  0  0  0  0  0  0
    9.4945   -5.1988   24.8152 C   0  0  0  0  0  0  0  0  0  0  0  0
   10.4014   -5.2478   25.8608 C   0  0  0  0  0  0  0  0  0  0  0  0
    9.9645   -5.4906   27.1453 C   0  0  0  0  0  0  0  0  0  0  0  0
    8.6208   -5.6837   27.3843 C   0  0  0  0  0  0  0  0  0  0  0  0
    7.7142   -5.6346   26.3385 C   0  0  0  0  0  0  0  0  0  0  0  0
    6.2567   -2.9351   24.2324 C   0  0  0  0  0  0  0  0  0  0  0  0
    6.1307   -1.8386   23.4229 O   0  0  0  0  0  0  0  0  0  0  0  0
   11.2339    3.2821   23.4272 N   0  0  0  0  0  0  0  0  0  0  0  0
  1  2  1  0
  2  3  2  0
  2  4  1  0
  4  5  2  0
  5  6  1  0
  6  7  1  0
  7  8  1  0
  8  9  2  0
  9 10  1  0
 10 11  2  0
 11 12  1  0
 12 13  2  0
  6 14  1  0
 14 15  1  0
 15 16  1  0
 16 17  1  0
 17 18  1  0
 18 19  1  0
 19 20  2  0
 20 21  1  0
 21 22  1  0
 22 23  1  0
 23 24  1  0
 24 25  2  0
 22 26  1  0
 26 27  1  0
 27 28  1  0
 27 29  2  0
 21 30  1  0
 30 31  2  0
 31 32  1  0
 32 33  1  0
 33 34  1  0
 34 35  2  0
 35 36  1  0
 36 37  2  0
 37 38  1  0
 38 39  2  0
 32 40  2  0
 40 41  1  0
 16 42  2  0
 42  6  1  0
 13  8  1  0
 25 18  1  0
 41 30  1  0
 24 20  1  0
 39 34  1  0
M  END
