CVD-0001566|dock_bobby27042020.66|mol2|40|dock2
     RDKit          3D

 29 31  0  0  0  0  0  0  0  0999 V2000
    5.9100    0.8988   18.4205 C   0  0  0  0  0  0  0  0  0  0  0  0
    5.7824   -0.2597   19.2427 O   0  0  0  0  0  0  0  0  0  0  0  0
    6.8104   -0.6482   20.0658 C   0  0  0  0  0  0  0  0  0  0  0  0
    7.8535    0.2137   20.3840 C   0  0  0  0  0  0  0  0  0  0  0  0
    8.8764   -0.2048   21.2181 C   0  0  0  0  0  0  0  0  0  0  0  0
    8.8461   -1.4954   21.7314 C   0  0  0  0  0  0  0  0  0  0  0  0
    9.7206   -2.1646   22.5771 N   0  0  0  0  0  0  0  0  0  0  0  0
    9.2302   -3.4374   22.7734 C   0  0  0  0  0  0  0  0  0  0  0  0
    8.0682   -3.6139   22.0931 C   0  0  0  0  0  0  0  0  0  0  0  0
    7.2183   -4.8496   22.0451 C   0  0  0  0  0  0  0  0  0  0  0  0
    7.2361   -5.6318   23.3433 C   0  0  0  0  0  0  0  0  0  0  0  0
    6.9152   -4.7914   24.4880 N   0  0  0  0  0  0  0  0  0  0  0  0
    7.2887   -5.0970   25.7320 C   0  0  0  0  0  0  0  0  0  0  0  0
    6.8635   -4.1370   26.8040 C   0  0  0  0  0  0  0  0  0  0  0  0
    7.9295   -6.1120   25.9865 O   0  0  0  0  0  0  0  0  0  0  0  0
    7.8009   -2.3767   21.4158 C   0  0  0  0  0  0  0  0  0  0  0  0
    6.7794   -1.9375   20.5761 C   0  0  0  0  0  0  0  0  0  0  0  0
   10.9500   -1.6164   23.1354 C   0  0  0  0  0  0  0  0  0  0  0  0
   11.1758   -2.3023   24.3873 O   0  0  0  0  0  0  0  0  0  0  0  0
   12.2835   -1.7976   25.1127 C   0  0  0  0  0  0  0  0  0  0  0  0
   13.5598   -1.9901   24.2934 C   0  0  0  0  0  0  0  0  0  0  0  0
   14.7171   -1.5026   24.9692 O   0  0  0  0  0  0  0  0  0  0  0  0
   13.4616   -1.3776   22.8989 C   0  0  0  0  0  0  0  0  0  0  0  0
   13.4948    0.0423   23.0079 O   0  0  0  0  0  0  0  0  0  0  0  0
   12.1589   -1.8157   22.2119 C   0  0  0  0  0  0  0  0  0  0  0  0
   11.9819   -1.1268   20.9776 O   0  0  0  0  0  0  0  0  0  0  0  0
   12.1182   -0.3246   25.4804 C   0  0  0  0  0  0  0  0  0  0  0  0
   10.9066   -0.0146   25.8660 O   0  0  0  0  0  0  0  0  0  0  0  0
   13.0353    0.4641   25.4105 O   0  0  0  0  0  0  0  0  0  0  0  0
  1  2  1  0
  2  3  1  0
  3  4  2  0
  4  5  1  0
  5  6  2  0
  6  7  1  0
  7  8  1  0
  8  9  2  0
  9 10  1  0
 10 11  1  0
 11 12  1  0
 12 13  1  0
 13 14  1  0
 13 15  2  0
  9 16  1  0
 16 17  2  0
  7 18  1  0
 18 19  1  0
 19 20  1  0
 20 21  1  0
 21 22  1  0
 21 23  1  0
 23 24  1  0
 23 25  1  0
 25 26  1  0
 20 27  1  0
 27 28  1  0
 27 29  2  0
 17  3  1  0
 25 18  1  0
 16  6  1  0
M  END
