CVD-0002920|dock_bobby27042020.47|mol2|2|dock2
     RDKit          3D

 30 33  0  0  0  0  0  0  0  0999 V2000
    1.3007    3.9310   21.5424 C   0  0  0  0  0  0  0  0  0  0  0  0
    2.2663    2.8349   21.5983 N   0  0  0  0  0  0  0  0  0  0  0  0
    3.3812    3.1785   22.4857 C   0  0  0  0  0  0  0  0  0  0  0  0
    4.3594    2.0218   22.5723 C   0  0  0  0  0  0  0  0  0  0  0  0
    4.8609    1.6750   21.2407 N   0  0  0  0  0  0  0  0  0  0  0  0
    3.7650    1.3836   20.3114 C   0  0  0  0  0  0  0  0  0  0  0  0
    2.7896    2.5457   20.2656 C   0  0  0  0  0  0  0  0  0  0  0  0
    6.1756    1.6124   20.9480 C   0  0  0  0  0  0  0  0  0  0  0  0
    7.0378    1.8328   21.7891 O   0  0  0  0  0  0  0  0  0  0  0  0
    6.5556    1.2476   19.5240 C   0  0  0  0  0  0  0  0  0  0  0  0
    6.1281   -0.1323   19.1222 C   0  0  0  0  0  0  0  0  0  0  0  0
    5.5651   -0.5102   17.9386 C   0  0  0  0  0  0  0  0  0  0  0  0
    5.3091   -1.8560   17.9343 N   0  0  0  0  0  0  0  0  0  0  0  0
    5.7072   -2.3783   19.1300 C   0  0  0  0  0  0  0  0  0  0  0  0
    5.6303   -3.6606   19.5272 N   0  0  0  0  0  0  0  0  0  0  0  0
    6.0931   -3.9175   20.7582 C   0  0  0  0  0  0  0  0  0  0  0  0
    6.6274   -2.9736   21.6197 C   0  0  0  0  0  0  0  0  0  0  0  0
    7.1272   -3.3617   22.9901 C   0  0  0  0  0  0  0  0  0  0  0  0
    8.0886   -2.4178   23.5408 N   0  0  0  0  0  0  0  0  0  0  0  0
    9.1395   -1.9806   22.8191 C   0  0  0  0  0  0  0  0  0  0  0  0
    9.3416   -2.3523   21.6660 O   0  0  0  0  0  0  0  0  0  0  0  0
    9.9557   -1.1067   23.4478 N   0  0  0  0  0  0  0  0  0  0  0  0
   11.1877   -0.5977   22.8449 C   0  0  0  0  0  0  0  0  0  0  0  0
   11.6717    0.6802   23.5603 C   0  0  0  0  0  0  0  0  0  0  0  0
   12.9960    1.1958   23.0003 C   0  0  0  0  0  0  0  0  0  0  0  0
   14.0656    0.1114   23.0183 C   0  0  0  0  0  0  0  0  0  0  0  0
   13.5955   -1.1359   22.2837 C   0  0  0  0  0  0  0  0  0  0  0  0
   12.2934   -1.6666   22.8747 C   0  0  0  0  0  0  0  0  0  0  0  0
    6.6919   -1.6594   21.1748 C   0  0  0  0  0  0  0  0  0  0  0  0
    6.2271   -1.3293   19.9052 C   0  0  0  0  0  0  0  0  0  0  0  0
  1  2  1  0
  2  3  1  0
  3  4  1  0
  4  5  1  0
  5  6  1  0
  6  7  1  0
  5  8  1  0
  8  9  2  0
  8 10  1  0
 10 11  1  0
 11 12  2  0
 12 13  1  0
 13 14  1  0
 14 15  2  0
 15 16  1  0
 16 17  2  0
 17 18  1  0
 18 19  1  0
 19 20  1  0
 20 21  2  0
 20 22  1  0
 22 23  1  0
 23 24  1  0
 24 25  1  0
 25 26  1  0
 26 27  1  0
 27 28  1  0
 17 29  1  0
 29 30  2  0
  7  2  1  0
 30 11  1  0
 30 14  1  0
 28 23  1  0
M  END
