CVD-0000194|dock_bobby27042020.71|mol2|11|dock1
     RDKit          3D

 24 26  0  0  0  0  0  0  0  0999 V2000
    6.7344    0.5824   23.0048 O   0  0  0  0  0  0  0  0  0  0  0  0
    7.2689   -0.1026   22.1379 C   0  0  0  0  0  0  0  0  0  0  0  0
    8.4348   -0.7165   22.3619 N   0  0  0  0  0  0  0  0  0  0  0  0
    9.1196   -0.5993   23.6413 C   0  0  0  0  0  0  0  0  0  0  0  0
    9.9060    0.6961   23.7531 C   0  0  0  0  0  0  0  0  0  0  0  0
   11.0624    0.7791   22.7490 C   0  0  0  0  0  0  0  0  0  0  0  0
   11.6694    2.1758   22.7200 C   0  0  0  0  0  0  0  0  0  0  0  0
   10.8641    3.2967   22.5745 C   0  0  0  0  0  0  0  0  0  0  0  0
   11.4169    4.5662   22.5452 C   0  0  0  0  0  0  0  0  0  0  0  0
   12.7806    4.7304   22.6601 C   0  0  0  0  0  0  0  0  0  0  0  0
   13.5927    3.6258   22.8040 C   0  0  0  0  0  0  0  0  0  0  0  0
   13.0408    2.3560   22.8334 C   0  0  0  0  0  0  0  0  0  0  0  0
   12.1374   -0.2548   23.0584 C   0  0  0  0  0  0  0  0  0  0  0  0
   12.7951   -0.2509   24.2805 C   0  0  0  0  0  0  0  0  0  0  0  0
   13.7746   -1.1890   24.5601 C   0  0  0  0  0  0  0  0  0  0  0  0
   14.1090   -2.1416   23.6216 C   0  0  0  0  0  0  0  0  0  0  0  0
   13.4648   -2.1566   22.4031 C   0  0  0  0  0  0  0  0  0  0  0  0
   12.4852   -1.2189   22.1224 C   0  0  0  0  0  0  0  0  0  0  0  0
    6.6002   -0.2564   20.7941 C   0  0  0  0  0  0  0  0  0  0  0  0
    5.3436    0.2616   20.5026 C   0  0  0  0  0  0  0  0  0  0  0  0
    4.7779    0.1106   19.3017 N   0  0  0  0  0  0  0  0  0  0  0  0
    5.4754   -0.5646   18.3891 C   0  0  0  0  0  0  0  0  0  0  0  0
    6.7222   -1.0834   18.6689 C   0  0  0  0  0  0  0  0  0  0  0  0
    7.2953   -0.9357   19.8693 N   0  0  0  0  0  0  0  0  0  0  0  0
  1  2  2  0
  2  3  1  0
  3  4  1  0
  4  5  1  0
  5  6  1  0
  6  7  1  0
  7  8  2  0
  8  9  1  0
  9 10  2  0
 10 11  1  0
 11 12  2  0
  6 13  1  0
 13 14  2  0
 14 15  1  0
 15 16  2  0
 16 17  1  0
 17 18  2  0
  2 19  1  0
 19 20  2  0
 20 21  1  0
 21 22  2  0
 22 23  1  0
 23 24  2  0
 12  7  1  0
 18 13  1  0
 24 19  1  0
M  END
