CVD-0003660|dock_bobby27042020.30|mol2|16|dock2
     RDKit          3D

 34 36  0  0  0  0  0  0  0  0999 V2000
   10.4730    5.8259   25.8618 C   0  0  0  0  0  0  0  0  0  0  0  0
   11.7717    5.8442   25.0718 C   0  0  0  0  0  0  0  0  0  0  0  0
   12.5980    7.0778   25.3960 C   0  0  0  0  0  0  0  0  0  0  0  0
   11.5249    5.7654   23.6507 N   0  0  0  0  0  0  0  0  0  0  0  0
   10.1865    6.0628   23.1171 C   0  0  0  0  0  0  0  0  0  0  0  0
   12.6340    5.1973   22.6072 S   0  0  0  0  0  0  0  0  0  0  0  0
   12.2015    5.5756   21.2978 O   0  0  0  0  0  0  0  0  0  0  0  0
   13.9101    5.6318   23.0844 O   0  0  0  0  0  0  0  0  0  0  0  0
   12.5904    3.4412   22.7057 C   0  0  0  0  0  0  0  0  0  0  0  0
   11.3749    2.7886   22.8291 C   0  0  0  0  0  0  0  0  0  0  0  0
   11.3517    1.4076   22.9102 C   0  0  0  0  0  0  0  0  0  0  0  0
   12.5220    0.6656   22.8704 C   0  0  0  0  0  0  0  0  0  0  0  0
   12.4851   -0.8407   22.9626 C   0  0  0  0  0  0  0  0  0  0  0  0
   11.3747   -1.4348   22.2332 N   0  0  0  0  0  0  0  0  0  0  0  0
   10.3496   -2.0164   22.8540 C   0  0  0  0  0  0  0  0  0  0  0  0
   10.2461   -2.1047   24.0766 O   0  0  0  0  0  0  0  0  0  0  0  0
    9.2830   -2.5808   21.9067 C   0  0  0  0  0  0  0  0  0  0  0  0
    9.3864   -2.4926   20.6841 O   0  0  0  0  0  0  0  0  0  0  0  0
    8.2578   -3.1623   22.5275 N   0  0  0  0  0  0  0  0  0  0  0  0
    7.1472   -3.7565   21.7981 C   0  0  0  0  0  0  0  0  0  0  0  0
    6.2950   -4.6682   22.6475 C   0  0  0  0  0  0  0  0  0  0  0  0
    5.8394   -4.2611   23.8917 C   0  0  0  0  0  0  0  0  0  0  0  0
    5.0554   -5.0925   24.6717 C   0  0  0  0  0  0  0  0  0  0  0  0
    4.7042   -6.3603   24.2234 C   0  0  0  0  0  0  0  0  0  0  0  0
    5.1591   -6.7697   22.9754 C   0  0  0  0  0  0  0  0  0  0  0  0
    5.9427   -5.9324   22.2014 C   0  0  0  0  0  0  0  0  0  0  0  0
    3.8717   -7.2471   25.0492 C   0  0  0  0  0  0  0  0  0  0  0  0
    3.3325   -8.3345   24.5768 N   0  0  0  0  0  0  0  0  0  0  0  0
    2.6380   -8.8607   25.6938 O   0  0  0  0  0  0  0  0  0  0  0  0
    2.8537   -8.0003   26.6988 C   0  0  0  0  0  0  0  0  0  0  0  0
    2.2399   -8.3122   28.0127 C   0  0  0  0  0  0  0  0  0  0  0  0
    3.6002   -7.0036   26.3653 N   0  0  0  0  0  0  0  0  0  0  0  0
   13.7274    1.3396   22.7498 C   0  0  0  0  0  0  0  0  0  0  0  0
   13.7722    2.7200   22.6673 C   0  0  0  0  0  0  0  0  0  0  0  0
  1  2  1  0
  2  3  1  0
  2  4  1  0
  4  5  1  0
  4  6  1  0
  6  7  2  0
  6  8  2  0
  6  9  1  0
  9 10  2  0
 10 11  1  0
 11 12  2  0
 12 13  1  0
 13 14  1  0
 14 15  1  0
 15 16  2  0
 15 17  1  0
 17 18  2  0
 17 19  1  0
 19 20  1  0
 20 21  1  0
 21 22  2  0
 22 23  1  0
 23 24  2  0
 24 25  1  0
 25 26  2  0
 24 27  1  0
 27 28  2  0
 28 29  1  0
 29 30  1  0
 30 31  1  0
 30 32  2  0
 12 33  1  0
 33 34  2  0
 34  9  1  0
 26 21  1  0
 32 27  1  0
M  END
