CVD-0000717|dock_bobby27042020.97|mol2|37|dock1
     RDKit          3D

 19 20  0  0  0  0  0  0  0  0999 V2000
   12.7295   -0.3276   25.5646 N   0  0  0  0  0  0  0  0  0  0  0  0
   12.8552   -0.7279   24.2549 C   0  0  0  0  0  0  0  0  0  0  0  0
   14.0498   -1.2536   23.7764 C   0  0  0  0  0  0  0  0  0  0  0  0
   14.2060   -1.6519   22.5114 N   0  0  0  0  0  0  0  0  0  0  0  0
   13.1695   -1.5385   21.6751 C   0  0  0  0  0  0  0  0  0  0  0  0
   11.9285   -1.0262   22.0490 C   0  0  0  0  0  0  0  0  0  0  0  0
   10.8177   -0.8982   21.1767 N   0  0  0  0  0  0  0  0  0  0  0  0
    9.6713   -0.1441   21.2839 C   0  0  0  0  0  0  0  0  0  0  0  0
    9.4147    0.5935   22.2295 O   0  0  0  0  0  0  0  0  0  0  0  0
    8.8510   -0.3251   20.1933 N   0  0  0  0  0  0  0  0  0  0  0  0
    7.5881    0.2376   19.8770 C   0  0  0  0  0  0  0  0  0  0  0  0
    7.3120    0.4746   18.5347 C   0  0  0  0  0  0  0  0  0  0  0  0
    6.1005    1.0219   18.1468 C   0  0  0  0  0  0  0  0  0  0  0  0
    5.1443    1.3415   19.0938 C   0  0  0  0  0  0  0  0  0  0  0  0
    5.4060    1.1104   20.4389 C   0  0  0  0  0  0  0  0  0  0  0  0
    6.6241    0.5599   20.8319 C   0  0  0  0  0  0  0  0  0  0  0  0
    4.4170    1.4395   21.4355 C   0  0  0  0  0  0  0  0  0  0  0  0
    3.6294    1.7300   22.2103 N   0  0  0  0  0  0  0  0  0  0  0  0
   11.7847   -0.6168   23.3698 C   0  0  0  0  0  0  0  0  0  0  0  0
  1  2  1  0
  2  3  2  0
  3  4  1  0
  4  5  2  0
  5  6  1  0
  6  7  1  0
  7  8  1  0
  8  9  2  0
  8 10  1  0
 10 11  1  0
 11 12  2  0
 12 13  1  0
 13 14  2  0
 14 15  1  0
 15 16  2  0
 15 17  1  0
 17 18  3  0
  6 19  2  0
 19  2  1  0
 16 11  1  0
M  END
