CVD-0003116|dock_bobby27042020.17|mol2|26|dock3
     RDKit          3D

 18 20  0  0  0  0  0  0  0  0999 V2000
   14.7064    5.6513   21.9587 C   0  0  0  0  0  0  0  0  0  0  0  0
   13.2205    5.6811   22.2826 C   0  0  0  0  0  0  0  0  0  0  0  0
   12.6864    4.3416   22.6977 C   0  0  0  0  0  0  0  0  0  0  0  0
   12.1472    3.3002   21.9895 C   0  0  0  0  0  0  0  0  0  0  0  0
   11.8290    2.3088   22.9332 C   0  0  0  0  0  0  0  0  0  0  0  0
   12.1587    2.7290   24.1652 N   0  0  0  0  0  0  0  0  0  0  0  0
   12.6801    3.9717   23.9895 N   0  0  0  0  0  0  0  0  0  0  0  0
   11.2089    0.9930   22.5735 C   0  0  0  0  0  0  0  0  0  0  0  0
   10.2313    1.0669   21.8379 O   0  0  0  0  0  0  0  0  0  0  0  0
   11.6499   -0.2079   22.9988 N   0  0  0  0  0  0  0  0  0  0  0  0
   11.1709   -1.5001   22.4900 C   0  0  0  0  0  0  0  0  0  0  0  0
   11.0812   -2.5028   23.6135 C   0  0  0  0  0  0  0  0  0  0  0  0
   12.3740   -2.5261   24.3080 N   0  0  0  0  0  0  0  0  0  0  0  0
   12.8347   -3.5195   25.0984 N   0  0  0  0  0  0  0  0  0  0  0  0
   13.9098   -3.0723   25.7061 N   0  0  0  0  0  0  0  0  0  0  0  0
   14.1446   -1.7955   25.3111 C   0  0  0  0  0  0  0  0  0  0  0  0
   13.1704   -1.4457   24.4225 C   0  0  0  0  0  0  0  0  0  0  0  0
   13.0202   -0.2770   23.5017 C   0  0  0  0  0  0  0  0  0  0  0  0
  1  2  1  0
  2  3  1  0
  3  4  2  0
  4  5  1  0
  5  6  2  0
  6  7  1  0
  5  8  1  0
  8  9  2  0
  8 10  1  0
 10 11  1  0
 11 12  1  0
 12 13  1  0
 13 14  1  0
 14 15  2  0
 15 16  1  0
 16 17  2  0
 17 18  1  0
  7  3  1  0
 18 10  1  0
 17 13  1  0
M  END
