CVD-0002521|dock_bobby27042020.5|mol2|23|dock1
     RDKit          3D

 29 32  0  0  0  0  0  0  0  0999 V2000
    9.0630    5.9816   22.6138 C   0  0  0  0  0  0  0  0  0  0  0  0
    7.9970    5.2270   23.3527 C   0  0  0  0  0  0  0  0  0  0  0  0
    7.0727    5.8099   23.9082 O   0  0  0  0  0  0  0  0  0  0  0  0
    8.0761    3.8741   23.3779 N   0  0  0  0  0  0  0  0  0  0  0  0
    9.1210    3.0552   22.7556 C   0  0  0  0  0  0  0  0  0  0  0  0
    8.5134    1.9055   21.9947 C   0  0  0  0  0  0  0  0  0  0  0  0
    7.6621    1.0874   22.8739 N   0  0  0  0  0  0  0  0  0  0  0  0
    6.5967    1.9475   23.3912 C   0  0  0  0  0  0  0  0  0  0  0  0
    7.1653    3.0852   24.2053 C   0  0  0  0  0  0  0  0  0  0  0  0
    7.1019   -0.0661   22.1497 C   0  0  0  0  0  0  0  0  0  0  0  0
    8.1760   -1.1300   21.9382 C   0  0  0  0  0  0  0  0  0  0  0  0
    7.5410   -2.5584   21.8781 C   0  0  0  0  0  0  0  0  0  0  0  0
    8.4528   -3.4940   21.2952 O   0  0  0  0  0  0  0  0  0  0  0  0
    7.0818   -3.0368   23.2667 C   0  0  0  0  0  0  0  0  0  0  0  0
    8.2100   -2.8571   24.2809 C   0  0  0  0  0  0  0  0  0  0  0  0
    8.7227   -1.4252   24.2671 C   0  0  0  0  0  0  0  0  0  0  0  0
    9.2281   -1.0754   22.9415 N   0  0  0  0  0  0  0  0  0  0  0  0
   10.4338   -1.8449   22.6073 C   0  0  0  0  0  0  0  0  0  0  0  0
   11.5019   -1.7409   23.6693 C   0  0  0  0  0  0  0  0  0  0  0  0
   12.0553   -2.8810   24.2310 C   0  0  0  0  0  0  0  0  0  0  0  0
   13.0329   -2.7857   25.2073 C   0  0  0  0  0  0  0  0  0  0  0  0
   13.4672   -1.5491   25.6336 C   0  0  0  0  0  0  0  0  0  0  0  0
   12.9240   -0.4077   25.0840 C   0  0  0  0  0  0  0  0  0  0  0  0
   11.9464   -0.5033   24.1077 C   0  0  0  0  0  0  0  0  0  0  0  0
    6.4924    0.3236   20.8343 C   0  0  0  0  0  0  0  0  0  0  0  0
    5.1558    0.6361   20.6142 C   0  0  0  0  0  0  0  0  0  0  0  0
    4.9253    0.9626   19.2559 C   0  0  0  0  0  0  0  0  0  0  0  0
    6.0303    0.9012   18.4941 C   0  0  0  0  0  0  0  0  0  0  0  0
    7.4045    0.4427   19.3959 S   0  0  0  0  0  0  0  0  0  0  0  0
  1  2  1  0
  2  3  2  0
  2  4  1  0
  4  5  1  0
  5  6  1  0
  6  7  1  0
  7  8  1  0
  8  9  1  0
  7 10  1  0
 10 11  1  0
 11 12  1  0
 12 13  1  0
 12 14  1  0
 14 15  1  0
 15 16  1  0
 16 17  1  0
 17 18  1  0
 18 19  1  0
 19 20  2  0
 20 21  1  0
 21 22  2  0
 22 23  1  0
 23 24  2  0
 10 25  1  0
 25 26  2  0
 26 27  1  0
 27 28  2  0
 28 29  1  0
  9  4  1  0
 17 11  1  0
 24 19  1  0
 29 25  1  0
M  END
