CVD-0001063|dock_bobby27042020.25|mol2|14|dock3
     RDKit          3D

 20 22  0  0  0  0  0  0  0  0999 V2000
    6.7818   -0.7219   17.6339 O   0  0  0  0  0  0  0  0  0  0  0  0
    6.7814   -0.0984   18.7011 C   0  0  0  0  0  0  0  0  0  0  0  0
    7.9708   -0.2064   19.5716 C   0  0  0  0  0  0  0  0  0  0  0  0
    8.1828    0.5008   20.6793 C   0  0  0  0  0  0  0  0  0  0  0  0
    9.3616    0.3951   21.5425 C   0  0  0  0  0  0  0  0  0  0  0  0
    9.5281    1.2318   22.6423 C   0  0  0  0  0  0  0  0  0  0  0  0
   10.5639    1.1789   23.4467 N   0  0  0  0  0  0  0  0  0  0  0  0
   11.5111    0.2348   23.1536 C   0  0  0  0  0  0  0  0  0  0  0  0
   12.6604    0.1070   23.9668 C   0  0  0  0  0  0  0  0  0  0  0  0
   13.6019   -0.8348   23.6716 C   0  0  0  0  0  0  0  0  0  0  0  0
   13.4534   -1.6734   22.5846 C   0  0  0  0  0  0  0  0  0  0  0  0
   12.3606   -1.5855   21.7727 C   0  0  0  0  0  0  0  0  0  0  0  0
   11.3585   -0.6246   22.0393 C   0  0  0  0  0  0  0  0  0  0  0  0
   10.2591   -0.5306   21.2290 N   0  0  0  0  0  0  0  0  0  0  0  0
    5.5611    0.7166   19.0065 C   0  0  0  0  0  0  0  0  0  0  0  0
    4.9040    0.4891   20.2118 C   0  0  0  0  0  0  0  0  0  0  0  0
    3.7765    1.2132   20.5607 C   0  0  0  0  0  0  0  0  0  0  0  0
    3.2814    2.1773   19.7109 C   0  0  0  0  0  0  0  0  0  0  0  0
    3.9096    2.4098   18.5074 C   0  0  0  0  0  0  0  0  0  0  0  0
    5.0333    1.6823   18.1518 C   0  0  0  0  0  0  0  0  0  0  0  0
  1  2  2  0
  2  3  1  0
  3  4  2  0
  4  5  1  0
  5  6  2  0
  6  7  1  0
  7  8  2  0
  8  9  1  0
  9 10  2  0
 10 11  1  0
 11 12  2  0
 12 13  1  0
 13 14  2  0
  2 15  1  0
 15 16  2  0
 16 17  1  0
 17 18  2  0
 18 19  1  0
 19 20  2  0
 14  5  1  0
 20 15  1  0
 13  8  1  0
M  END
