CVD-0001053|dock_bobby27042020.68|mol2|19|dock1
     RDKit          3D

 25 28  0  0  0  0  0  0  0  0999 V2000
    5.9597   -3.4407   20.1313 O   0  0  0  0  0  0  0  0  0  0  0  0
    6.3180   -4.3524   20.8742 N   0  0  0  0  0  0  0  0  0  0  0  0
    5.7459   -5.4290   20.8869 O   0  0  0  0  0  0  0  0  0  0  0  0
    7.4600   -4.1006   21.7470 C   0  0  0  0  0  0  0  0  0  0  0  0
    7.8922   -5.1465   22.5520 C   0  0  0  0  0  0  0  0  0  0  0  0
    8.9670   -4.9609   23.3949 C   0  0  0  0  0  0  0  0  0  0  0  0
    9.5268   -6.4164   24.4795 Br  0  0  0  0  0  0  0  0  0  0  0  0
    9.6384   -3.7828   23.4796 C   0  0  0  0  0  0  0  0  0  0  0  0
    9.2327   -2.6931   22.6790 C   0  0  0  0  0  0  0  0  0  0  0  0
    9.8872   -1.4426   22.7191 C   0  0  0  0  0  0  0  0  0  0  0  0
    9.4816   -0.3928   21.9352 C   0  0  0  0  0  0  0  0  0  0  0  0
   10.2553    0.8584   22.0770 C   0  0  0  0  0  0  0  0  0  0  0  0
   10.6449    1.3752   23.2057 N   0  0  0  0  0  0  0  0  0  0  0  0
   11.3295    2.5335   22.8516 C   0  0  0  0  0  0  0  0  0  0  0  0
   11.9726    3.5042   23.6187 C   0  0  0  0  0  0  0  0  0  0  0  0
   12.5724    4.5569   22.9530 C   0  0  0  0  0  0  0  0  0  0  0  0
   13.4555    5.8931   23.9740 Br  0  0  0  0  0  0  0  0  0  0  0  0
   12.5555    4.6767   21.5761 C   0  0  0  0  0  0  0  0  0  0  0  0
   11.9154    3.7100   20.8215 C   0  0  0  0  0  0  0  0  0  0  0  0
   11.3125    2.6525   21.4821 C   0  0  0  0  0  0  0  0  0  0  0  0
   10.6212    1.5763   20.9643 O   0  0  0  0  0  0  0  0  0  0  0  0
    8.3851   -0.6504   21.1037 C   0  0  0  0  0  0  0  0  0  0  0  0
    7.7346    0.5602   20.0432 Cl  0  0  0  0  0  0  0  0  0  0  0  0
    7.7442   -1.7773   21.0238 N   0  0  0  0  0  0  0  0  0  0  0  0
    8.1342   -2.8350   21.7976 C   0  0  0  0  0  0  0  0  0  0  0  0
  1  2  1  0
  2  3  2  0
  2  4  1  0
  4  5  2  0
  5  6  1  0
  6  7  1  0
  6  8  2  0
  8  9  1  0
  9 10  2  0
 10 11  1  0
 11 12  1  0
 12 13  2  0
 13 14  1  0
 14 15  2  0
 15 16  1  0
 16 17  1  0
 16 18  2  0
 18 19  1  0
 19 20  2  0
 20 21  1  0
 11 22  2  0
 22 23  1  0
 22 24  1  0
 24 25  2  0
 25  4  1  0
 25  9  1  0
 21 12  1  0
 20 14  1  0
M  CHG  2   1  -1   2   1
M  END
