CVD-0002453|dock_bobby27042020.34|mol2|19|dock3
     RDKit          3D

 19 20  0  0  0  0  0  0  0  0999 V2000
   10.3549    0.6387   22.0175 C   0  0  0  0  0  0  0  0  0  0  0  0
   10.6273   -0.8486   21.8626 C   0  0  0  0  0  0  0  0  0  0  0  0
    9.3298   -1.6500   21.9555 C   0  0  0  0  0  0  0  0  0  0  0  0
    8.2429   -1.1386   21.0435 C   0  0  0  0  0  0  0  0  0  0  0  0
    7.6952    0.0561   21.6192 O   0  0  0  0  0  0  0  0  0  0  0  0
    6.5684    0.6329   21.0868 C   0  0  0  0  0  0  0  0  0  0  0  0
    5.7810    1.4214   21.9079 C   0  0  0  0  0  0  0  0  0  0  0  0
    4.6393    2.0179   21.4039 C   0  0  0  0  0  0  0  0  0  0  0  0
    4.2591    1.8456   20.0832 C   0  0  0  0  0  0  0  0  0  0  0  0
    3.0099    2.4970   19.5417 C   0  0  0  0  0  0  0  0  0  0  0  0
    5.0584    1.0522   19.2764 C   0  0  0  0  0  0  0  0  0  0  0  0
    6.2044    0.4466   19.7611 C   0  0  0  0  0  0  0  0  0  0  0  0
   11.6257   -1.3423   22.8388 N   0  0  0  0  0  0  0  0  0  0  0  0
   13.0011   -1.2547   22.3419 C   0  0  0  0  0  0  0  0  0  0  0  0
   13.9634   -1.9607   23.2706 C   0  0  0  0  0  0  0  0  0  0  0  0
   13.8898   -1.4090   24.6786 C   0  0  0  0  0  0  0  0  0  0  0  0
   14.7467   -2.0928   25.5970 O   0  0  0  0  0  0  0  0  0  0  0  0
   12.4382   -1.4574   25.1392 C   0  0  0  0  0  0  0  0  0  0  0  0
   11.5225   -0.7431   24.1634 C   0  0  0  0  0  0  0  0  0  0  0  0
  1  2  1  0
  2  3  1  0
  3  4  1  0
  4  5  1  0
  5  6  1  0
  6  7  2  0
  7  8  1  0
  8  9  2  0
  9 10  1  0
  9 11  1  0
 11 12  2  0
  2 13  1  0
 13 14  1  0
 14 15  1  0
 15 16  1  0
 16 17  1  0
 16 18  1  0
 18 19  1  0
 12  6  1  0
 19 13  1  0
M  END
