CVD-0000764|dock_bobby27042020.26|mol2|18|dock1
     RDKit          3D

 22 24  0  0  0  0  0  0  0  0999 V2000
    8.5832   -0.7642   26.7249 C   0  0  0  0  0  0  0  0  0  0  0  0
    7.9937   -0.0484   25.6121 O   0  0  0  0  0  0  0  0  0  0  0  0
    8.5296   -0.1014   24.3637 C   0  0  0  0  0  0  0  0  0  0  0  0
    9.4246   -1.0237   23.9959 C   0  0  0  0  0  0  0  0  0  0  0  0
    9.9561   -1.1329   22.7535 N   0  0  0  0  0  0  0  0  0  0  0  0
   10.9344   -2.1456   22.3529 C   0  0  0  0  0  0  0  0  0  0  0  0
   12.3537   -1.6041   22.3837 C   0  0  0  0  0  0  0  0  0  0  0  0
   12.7987   -1.2154   23.7199 N   0  0  0  0  0  0  0  0  0  0  0  0
   14.2097   -1.5320   23.9106 C   0  0  0  0  0  0  0  0  0  0  0  0
   12.5852    0.2110   23.9357 C   0  0  0  0  0  0  0  0  0  0  0  0
    9.5413   -0.2246   21.6628 C   0  0  0  0  0  0  0  0  0  0  0  0
    8.1278    0.3084   21.9801 C   0  0  0  0  0  0  0  0  0  0  0  0
    8.0698    0.9397   23.3727 C   0  0  0  0  0  0  0  0  0  0  0  0
    7.0899   -0.7718   21.7592 C   0  0  0  0  0  0  0  0  0  0  0  0
    6.6214   -1.1929   20.4005 C   0  0  0  0  0  0  0  0  0  0  0  0
    5.7165   -0.3923   21.2859 C   0  0  0  0  0  0  0  0  0  0  0  0
    7.1550   -1.8803   22.8050 C   0  0  0  0  0  0  0  0  0  0  0  0
    7.9238   -3.0185   22.5933 C   0  0  0  0  0  0  0  0  0  0  0  0
    7.9816   -4.0255   23.5422 C   0  0  0  0  0  0  0  0  0  0  0  0
    7.2714   -3.9107   24.7178 C   0  0  0  0  0  0  0  0  0  0  0  0
    6.5031   -2.7890   24.9446 C   0  0  0  0  0  0  0  0  0  0  0  0
    6.4451   -1.7819   23.9958 C   0  0  0  0  0  0  0  0  0  0  0  0
  1  2  1  0
  2  3  1  0
  3  4  2  0
  4  5  1  0
  5  6  1  0
  6  7  1  0
  7  8  1  0
  8  9  1  0
  8 10  1  0
  5 11  1  0
 11 12  1  0
 12 13  1  0
 12 14  1  0
 14 15  1  0
 15 16  1  0
 14 17  1  0
 17 18  2  0
 18 19  1  0
 19 20  2  0
 20 21  1  0
 21 22  2  0
 13  3  1  0
 16 14  1  0
 22 17  1  0
M  END
