CVD-0000668|dock_bobby27042020.40|mol2|43|dock1
     RDKit          3D

 26 28  0  0  0  0  0  0  0  0999 V2000
    7.0448    0.7289   18.6173 C   0  0  0  0  0  0  0  0  0  0  0  0
    6.9836   -0.9531   19.1010 S   0  0  0  0  0  0  0  0  0  0  0  0
    7.2884   -1.7554   17.9567 O   0  0  0  0  0  0  0  0  0  0  0  0
    5.7444   -1.1748   19.7801 O   0  0  0  0  0  0  0  0  0  0  0  0
    8.1544   -1.1950   20.1693 N   0  0  0  0  0  0  0  0  0  0  0  0
    7.9487   -0.8306   21.5749 C   0  0  0  0  0  0  0  0  0  0  0  0
    9.2541   -0.7646   22.3791 C   0  0  0  0  0  0  0  0  0  0  0  0
   10.0968    0.3935   21.8496 C   0  0  0  0  0  0  0  0  0  0  0  0
    9.7386    0.8850   20.7978 O   0  0  0  0  0  0  0  0  0  0  0  0
   11.1940    0.8432   22.5457 N   0  0  0  0  0  0  0  0  0  0  0  0
   12.1230   -0.0646   23.2282 C   0  0  0  0  0  0  0  0  0  0  0  0
   13.5308    0.2211   22.7698 C   0  0  0  0  0  0  0  0  0  0  0  0
   13.9015    1.5595   23.1040 O   0  0  0  0  0  0  0  0  0  0  0  0
   12.9392    2.5090   22.8473 C   0  0  0  0  0  0  0  0  0  0  0  0
   13.3577    3.8289   22.9298 C   0  0  0  0  0  0  0  0  0  0  0  0
   12.4231    4.8138   22.7003 C   0  0  0  0  0  0  0  0  0  0  0  0
   11.1499    4.5636   22.4060 N   0  0  0  0  0  0  0  0  0  0  0  0
   10.7517    3.2881   22.3276 C   0  0  0  0  0  0  0  0  0  0  0  0
   11.6024    2.2052   22.5386 C   0  0  0  0  0  0  0  0  0  0  0  0
    8.9671   -0.5548   23.8578 C   0  0  0  0  0  0  0  0  0  0  0  0
    9.0497   -1.6104   24.7549 C   0  0  0  0  0  0  0  0  0  0  0  0
    8.7930   -1.4269   26.1020 C   0  0  0  0  0  0  0  0  0  0  0  0
    8.4507   -0.1712   26.5535 C   0  0  0  0  0  0  0  0  0  0  0  0
    8.1253    0.0696   28.2472 Cl  0  0  0  0  0  0  0  0  0  0  0  0
    8.3613    0.8973   25.6886 C   0  0  0  0  0  0  0  0  0  0  0  0
    8.6209    0.6980   24.3443 C   0  0  0  0  0  0  0  0  0  0  0  0
  1  2  1  0
  2  3  2  0
  2  4  2  0
  2  5  1  0
  5  6  1  0
  7  6  1  0
  7  8  1  0
  8  9  2  0
  8 10  1  0
 10 11  1  0
 11 12  1  0
 12 13  1  0
 13 14  1  0
 14 15  2  0
 15 16  1  0
 16 17  2  0
 17 18  1  0
 18 19  2  0
  7 20  1  0
 20 21  2  0
 21 22  1  0
 22 23  2  0
 23 24  1  0
 23 25  1  0
 25 26  2  0
 19 10  1  0
 26 20  1  0
 19 14  1  0
M  END
