CVD-0000110|dock_bobby27042020.99|mol2|37|dock2
     RDKit          3D

 17 19  0  0  0  0  0  0  0  0999 V2000
    8.5087    5.0744   22.7632 F   0  0  0  0  0  0  0  0  0  0  0  0
    9.7977    4.7115   23.0029 C   0  0  0  0  0  0  0  0  0  0  0  0
   10.7386    5.6949   23.1151 C   0  0  0  0  0  0  0  0  0  0  0  0
   12.0444    5.3079   23.3501 C   0  0  0  0  0  0  0  0  0  0  0  0
   12.3731    3.9670   23.4597 C   0  0  0  0  0  0  0  0  0  0  0  0
   11.3969    2.9781   23.3571 C   0  0  0  0  0  0  0  0  0  0  0  0
   10.0797    3.3726   23.1205 C   0  0  0  0  0  0  0  0  0  0  0  0
   11.7165    1.5833   23.4827 N   0  0  0  0  0  0  0  0  0  0  0  0
   13.2593    0.9401   22.6110 Se  0  0  0  0  0  2  0  0  0  0  0  0
   12.3662   -0.7778   22.7098 C   0  0  0  0  0  0  0  0  0  0  0  0
   13.3428   -1.9286   22.6282 C   0  0  0  0  0  0  0  0  0  0  0  0
   14.0015   -2.3549   23.7046 C   0  0  0  0  0  0  0  0  0  0  0  0
   13.7943   -1.7606   24.9645 C   0  0  0  0  0  0  0  0  0  0  0  0
   12.7416   -0.9754   25.1836 C   0  0  0  0  0  0  0  0  0  0  0  0
   11.7282   -0.7130   24.1030 C   0  0  0  0  0  0  0  0  0  0  0  0
   11.0167    0.6298   24.1686 C   0  0  0  0  0  0  0  0  0  0  0  0
    9.9652    0.8120   24.7514 O   0  0  0  0  0  0  0  0  0  0  0  0
  1  2  1  0
  2  3  2  0
  3  4  1  0
  4  5  2  0
  5  6  1  0
  6  7  2  0
  6  8  1  0
  8  9  1  0
  9 10  1  0
 10 11  1  0
 11 12  2  0
 12 13  1  0
 13 14  2  0
 14 15  1  0
 15 16  1  0
 16 17  2  0
  7  2  1  0
 16  8  1  0
 15 10  1  0
M  END
