CVD-0002074|dock_bobby27042020.21|mol2|38|dock2
     RDKit          3D

 26 28  0  0  0  0  0  0  0  0999 V2000
   12.5203    6.8271   25.4853 C   0  0  0  0  0  0  0  0  0  0  0  0
   12.8527    6.9603   24.1086 O   0  0  0  0  0  0  0  0  0  0  0  0
   13.0242    5.7194   23.4162 C   0  0  0  0  0  0  0  0  0  0  0  0
   13.9497    5.8974   22.2174 C   0  0  0  0  0  0  0  0  0  0  0  0
   14.1834    4.5510   21.5364 C   0  0  0  0  0  0  0  0  0  0  0  0
   12.8651    3.8839   21.1546 C   0  0  0  0  0  0  0  0  0  0  0  0
   11.8969    3.7776   22.3290 C   0  0  0  0  0  0  0  0  0  0  0  0
   11.6853    5.1446   22.9883 C   0  0  0  0  0  0  0  0  0  0  0  0
   12.4625    2.8364   23.2755 O   0  0  0  0  0  0  0  0  0  0  0  0
   12.4410    1.4766   23.0449 C   0  0  0  0  0  0  0  0  0  0  0  0
   13.6105    0.7358   22.9813 C   0  0  0  0  0  0  0  0  0  0  0  0
   13.5366   -0.6269   22.7471 C   0  0  0  0  0  0  0  0  0  0  0  0
   12.3076   -1.2407   22.5761 C   0  0  0  0  0  0  0  0  0  0  0  0
   11.1359   -0.5039   22.6364 C   0  0  0  0  0  0  0  0  0  0  0  0
    9.7947   -1.1714   22.4459 C   0  0  0  0  0  0  0  0  0  0  0  0
    9.2709   -1.7897   23.6726 N   0  0  0  0  0  0  0  0  0  0  0  0
    8.0443   -2.5393   23.3854 C   0  0  0  0  0  0  0  0  0  0  0  0
    7.5308   -3.2092   24.6464 C   0  0  0  0  0  0  0  0  0  0  0  0
    7.2819   -2.2123   25.6901 N   0  0  0  0  0  0  0  0  0  0  0  0
    8.4754   -1.4043   25.9588 C   0  0  0  0  0  0  0  0  0  0  0  0
    8.9817   -0.7690   24.6765 C   0  0  0  0  0  0  0  0  0  0  0  0
    6.0982   -2.0988   26.3254 C   0  0  0  0  0  0  0  0  0  0  0  0
    5.1526   -2.8345   26.0720 O   0  0  0  0  0  0  0  0  0  0  0  0
    5.9969   -1.0053   27.3704 C   0  0  0  0  0  0  0  0  0  0  0  0
    4.3980   -1.0013   28.1259 Cl  0  0  0  0  0  0  0  0  0  0  0  0
   11.2107    0.8631   22.8714 C   0  0  0  0  0  0  0  0  0  0  0  0
  1  2  1  0
  2  3  1  0
  3  4  1  0
  4  5  1  0
  5  6  1  0
  6  7  1  0
  7  8  1  0
  7  9  1  0
  9 10  1  0
 10 11  2  0
 11 12  1  0
 12 13  2  0
 13 14  1  0
 14 15  1  0
 15 16  1  0
 16 17  1  0
 17 18  1  0
 18 19  1  0
 19 20  1  0
 20 21  1  0
 19 22  1  0
 22 23  2  0
 22 24  1  0
 24 25  1  0
 14 26  2  0
  8  3  1  0
 26 10  1  0
 21 16  1  0
M  END
