CVD-0002418|dock_bobby27042020.34|mol2|24|dock2
     RDKit          3D

 30 34  0  0  0  0  0  0  0  0999 V2000
   10.0040   -3.8347   24.6422 C   0  0  0  0  0  0  0  0  0  0  0  0
    9.8881   -5.0798   25.3869 N   0  0  0  0  0  0  0  0  0  0  0  0
    8.9558   -5.2908   26.3229 C   0  0  0  0  0  0  0  0  0  0  0  0
    8.0417   -4.4063   26.6781 N   0  0  0  0  0  0  0  0  0  0  0  0
    7.3059   -5.0558   27.6658 C   0  0  0  0  0  0  0  0  0  0  0  0
    6.2116   -4.6194   28.4117 C   0  0  0  0  0  0  0  0  0  0  0  0
    5.6563   -5.4792   29.3476 C   0  0  0  0  0  0  0  0  0  0  0  0
    6.1687   -6.7468   29.5462 C   0  0  0  0  0  0  0  0  0  0  0  0
    7.2557   -7.1964   28.8136 C   0  0  0  0  0  0  0  0  0  0  0  0
    7.8129   -6.3357   27.8755 C   0  0  0  0  0  0  0  0  0  0  0  0
    8.8731   -6.4608   26.9994 N   0  0  0  0  0  0  0  0  0  0  0  0
    9.0102   -3.7188   23.5129 C   0  0  0  0  0  0  0  0  0  0  0  0
    7.9478   -4.6100   23.3950 C   0  0  0  0  0  0  0  0  0  0  0  0
    7.0407   -4.5018   22.3552 C   0  0  0  0  0  0  0  0  0  0  0  0
    7.1845   -3.5013   21.4185 C   0  0  0  0  0  0  0  0  0  0  0  0
    8.2347   -2.6034   21.5143 C   0  0  0  0  0  0  0  0  0  0  0  0
    9.1465   -2.7098   22.5583 C   0  0  0  0  0  0  0  0  0  0  0  0
   10.2207   -1.8770   22.7445 O   0  0  0  0  0  0  0  0  0  0  0  0
   10.0607   -0.5382   23.2764 C   0  0  0  0  0  0  0  0  0  0  0  0
   11.3653    0.2419   23.3846 C   0  0  0  0  0  0  0  0  0  0  0  0
   11.1532    1.6805   23.8136 C   0  0  0  0  0  0  0  0  0  0  0  0
   10.2343    2.3878   22.9138 N   0  0  0  0  0  0  0  0  0  0  0  0
   10.0857    3.7882   23.3167 C   0  0  0  0  0  0  0  0  0  0  0  0
   11.3747    4.5714   23.3381 C   0  0  0  0  0  0  0  0  0  0  0  0
   11.8048    5.3957   24.4072 C   0  0  0  0  0  0  0  0  0  0  0  0
   13.0010    6.0136   24.2008 C   0  0  0  0  0  0  0  0  0  0  0  0
   13.6119    5.5828   22.6761 S   0  0  0  0  0  0  0  0  0  0  0  0
   12.2785    4.5900   22.3192 C   0  0  0  0  0  0  0  0  0  0  0  0
    8.9408    1.6990   22.9041 C   0  0  0  0  0  0  0  0  0  0  0  0
    9.0889    0.2661   22.4201 C   0  0  0  0  0  0  0  0  0  0  0  0
  1  2  1  0
  2  3  1  0
  3  4  2  0
  4  5  1  0
  5  6  2  0
  6  7  1  0
  7  8  2  0
  8  9  1  0
  9 10  2  0
 10 11  1  0
  1 12  1  0
 12 13  2  0
 13 14  1  0
 14 15  2  0
 15 16  1  0
 16 17  2  0
 17 18  1  0
 18 19  1  0
 19 20  1  0
 20 21  1  0
 21 22  1  0
 22 23  1  0
 23 24  1  0
 24 25  1  0
 25 26  2  0
 26 27  1  0
 27 28  1  0
 22 29  1  0
 29 30  1  0
 11  3  1  0
 17 12  1  0
 30 19  1  0
 10  5  1  0
 28 24  2  0
M  END
