CVD-0002015|dock_bobby27042020.36|mol2|15|dock3
     RDKit          3D

 19 21  0  0  0  0  0  0  0  0999 V2000
   14.0262   -2.5694   23.3268 C   0  0  0  0  0  0  0  0  0  0  0  0
   13.1131   -2.1794   22.1671 C   0  0  0  0  0  0  0  0  0  0  0  0
   13.8704   -2.2389   20.8545 C   0  0  0  0  0  0  0  0  0  0  0  0
   14.3378   -3.4312   20.5849 O   0  0  0  0  0  0  0  0  0  0  0  0
   14.0224   -1.2776   20.1332 O   0  0  0  0  0  0  0  0  0  0  0  0
   12.5492   -0.7739   22.3244 C   0  0  0  0  0  0  0  0  0  0  0  0
   11.1850   -0.5461   22.1822 C   0  0  0  0  0  0  0  0  0  0  0  0
   10.6411    0.7187   22.3221 C   0  0  0  0  0  0  0  0  0  0  0  0
   11.4831    1.7887   22.6136 C   0  0  0  0  0  0  0  0  0  0  0  0
   12.8643    1.5578   22.7589 C   0  0  0  0  0  0  0  0  0  0  0  0
   13.4016    0.2833   22.6165 C   0  0  0  0  0  0  0  0  0  0  0  0
   13.4970    2.7555   23.0443 N   0  0  0  0  0  0  0  0  0  0  0  0
   12.5610    3.7540   23.0870 C   0  0  0  0  0  0  0  0  0  0  0  0
   12.8127    5.0501   23.3381 N   0  0  0  0  0  0  0  0  0  0  0  0
   11.7472    5.8624   23.3322 C   0  0  0  0  0  0  0  0  0  0  0  0
   10.4603    5.4252   23.0873 C   0  0  0  0  0  0  0  0  0  0  0  0
    9.1398    6.5603   23.1015 Cl  0  0  0  0  0  0  0  0  0  0  0  0
   10.2049    4.0931   22.8297 C   0  0  0  0  0  0  0  0  0  0  0  0
   11.2820    3.2116   22.8255 C   0  0  0  0  0  0  0  0  0  0  0  0
  2  1  1  0
  2  3  1  0
  3  4  1  0
  3  5  2  0
  2  6  1  0
  6  7  2  0
  7  8  1  0
  8  9  2  0
  9 10  1  0
 10 11  2  0
 10 12  1  0
 12 13  1  0
 13 14  2  0
 14 15  1  0
 15 16  2  0
 16 17  1  0
 16 18  1  0
 18 19  2  0
 11  6  1  0
 19 13  1  0
 19  9  1  0
M  END
