CVD-0001148|dock_bobby27042020.68|mol2|4|dock2
     RDKit          3D

 26 28  0  0  0  0  0  0  0  0999 V2000
    6.9005   -6.7985   22.0271 Cl  0  0  0  0  0  0  0  0  0  0  0  0
    5.5952   -5.7014   21.5583 C   0  0  0  0  0  0  0  0  0  0  0  0
    6.1447   -4.4658   20.8710 C   0  0  0  0  0  0  0  0  0  0  0  0
    6.0064   -4.3248   19.6623 O   0  0  0  0  0  0  0  0  0  0  0  0
    6.7775   -3.5343   21.6232 N   0  0  0  0  0  0  0  0  0  0  0  0
    7.0089   -3.5994   23.0696 C   0  0  0  0  0  0  0  0  0  0  0  0
    8.4338   -3.2360   23.3974 C   0  0  0  0  0  0  0  0  0  0  0  0
    8.7674   -1.9011   22.8740 N   0  0  0  0  0  0  0  0  0  0  0  0
    8.5941   -1.9346   21.4210 C   0  0  0  0  0  0  0  0  0  0  0  0
    7.1632   -2.2453   21.0522 C   0  0  0  0  0  0  0  0  0  0  0  0
   10.1367   -1.5197   23.2291 C   0  0  0  0  0  0  0  0  0  0  0  0
   10.2583   -1.4682   24.6779 O   0  0  0  0  0  0  0  0  0  0  0  0
   10.7491   -0.2602   25.0345 C   0  0  0  0  0  0  0  0  0  0  0  0
   10.9704    0.0208   26.1895 O   0  0  0  0  0  0  0  0  0  0  0  0
   10.9595    0.5611   23.8336 C   0  0  0  0  0  0  0  0  0  0  0  0
   11.4619    1.9273   23.9149 C   0  0  0  0  0  0  0  0  0  0  0  0
   11.7027    2.7662   22.9108 C   0  0  0  0  0  0  0  0  0  0  0  0
   12.2089    4.1403   23.0103 C   0  0  0  0  0  0  0  0  0  0  0  0
   13.1419    4.6276   22.0988 C   0  0  0  0  0  0  0  0  0  0  0  0
   13.6259    5.9210   22.1831 C   0  0  0  0  0  0  0  0  0  0  0  0
   13.1836    6.7688   23.1929 C   0  0  0  0  0  0  0  0  0  0  0  0
   12.2518    6.2964   24.1109 C   0  0  0  0  0  0  0  0  0  0  0  0
   11.7755    5.0008   24.0157 C   0  0  0  0  0  0  0  0  0  0  0  0
   13.6838    8.1181   23.2867 C   0  0  0  0  0  0  0  0  0  0  0  0
   14.0525    9.1976   23.3460 N   0  0  0  0  0  0  0  0  0  0  0  0
   10.6137   -0.1787   22.7891 C   0  0  0  0  0  0  0  0  0  0  0  0
  1  2  1  0
  2  3  1  0
  3  4  2  0
  3  5  1  0
  5  6  1  0
  6  7  1  0
  7  8  1  0
  8  9  1  0
  9 10  1  0
  8 11  1  0
 11 12  1  0
 12 13  1  0
 13 14  2  0
 13 15  1  0
 15 16  1  0
 16 17  2  0
 17 18  1  0
 18 19  2  0
 19 20  1  0
 20 21  2  0
 21 22  1  0
 22 23  2  0
 21 24  1  0
 24 25  3  0
 15 26  2  0
 10  5  1  0
 26 11  1  0
 23 18  1  0
M  END
