CVD-0002774|dock_bobby27042020.76|mol2|8|dock1
     RDKit          3D

 24 26  0  0  0  0  0  0  0  0999 V2000
   13.8020   -1.7348   20.3393 N   0  0  0  0  0  0  0  0  0  0  0  0
   13.6054   -1.5367   21.9158 S   0  0  0  0  0  0  0  0  0  0  0  0
   14.4146   -2.5205   22.5703 O   0  0  0  0  0  0  0  0  0  0  0  0
   13.8344   -0.1519   22.2003 O   0  0  0  0  0  0  0  0  0  0  0  0
   11.9205   -1.8864   22.3183 C   0  0  0  0  0  0  0  0  0  0  0  0
   10.8992   -1.2148   21.6723 C   0  0  0  0  0  0  0  0  0  0  0  0
    9.5658   -1.5175   21.9448 C   0  0  0  0  0  0  0  0  0  0  0  0
    8.5834   -0.7691   21.0861 C   0  0  0  0  0  0  0  0  0  0  0  0
    7.6641   -0.1586   21.6232 O   0  0  0  0  0  0  0  0  0  0  0  0
    8.7271   -0.7498   19.7535 N   0  0  0  0  0  0  0  0  0  0  0  0
    7.7830   -0.0527   18.8802 C   0  0  0  0  0  0  0  0  0  0  0  0
    6.7913   -1.3051   18.4913 C   0  0  0  0  0  0  0  0  0  0  0  0
    6.2348    0.0258   18.8481 C   0  0  0  0  0  0  0  0  0  0  0  0
    9.2427   -2.4502   22.9500 C   0  0  0  0  0  0  0  0  0  0  0  0
    7.4377   -2.8290   23.3771 Br  0  0  0  0  0  0  0  0  0  0  0  0
   10.2953   -3.0945   23.6295 C   0  0  0  0  0  0  0  0  0  0  0  0
   11.6190   -2.8386   23.2743 C   0  0  0  0  0  0  0  0  0  0  0  0
   10.1462   -4.0815   24.7547 C   0  0  0  0  0  0  0  0  0  0  0  0
   10.7083   -5.1695   24.6738 O   0  0  0  0  0  0  0  0  0  0  0  0
    9.4288   -3.7645   25.8417 N   0  0  0  0  0  0  0  0  0  0  0  0
    9.2771   -4.6761   26.9703 C   0  0  0  0  0  0  0  0  0  0  0  0
    7.9343   -4.8484   27.4711 C   0  0  0  0  0  0  0  0  0  0  0  0
    8.5747   -5.9279   26.6590 C   0  0  0  0  0  0  0  0  0  0  0  0
    8.0794   -6.1416   25.3611 F   0  0  0  0  0  0  0  0  0  0  0  0
  1  2  1  0
  2  3  2  0
  2  4  2  0
  2  5  1  0
  5  6  2  0
  6  7  1  0
  7  8  1  0
  8  9  2  0
  8 10  1  0
 10 11  1  0
 11 12  1  0
 12 13  1  0
  7 14  2  0
 14 15  1  0
 14 16  1  0
 16 17  2  0
 16 18  1  0
 18 19  2  0
 18 20  1  0
 21 20  1  0
 21 22  1  0
 22 23  1  0
 23 24  1  0
 17  5  1  0
 23 21  1  0
 13 11  1  0
M  END
