CVD-0001407|dock_bobby27042020.9|mol2|44|dock3
     RDKit          3D

 19 21  0  0  0  0  0  0  0  0999 V2000
   11.8253    2.1145   22.2591 F   0  0  0  0  0  0  0  0  0  0  0  0
   12.0892    0.7929   22.3784 C   0  0  0  0  0  0  0  0  0  0  0  0
   13.3437    0.4509   22.8250 C   0  0  0  0  0  0  0  0  0  0  0  0
   13.6596   -0.8890   22.9630 C   0  0  0  0  0  0  0  0  0  0  0  0
   12.7259   -1.8534   22.6552 C   0  0  0  0  0  0  0  0  0  0  0  0
   11.4668   -1.4913   22.2066 C   0  0  0  0  0  0  0  0  0  0  0  0
   11.1186   -0.1480   22.0573 C   0  0  0  0  0  0  0  0  0  0  0  0
    9.7545    0.1439   21.5734 C   0  0  0  0  0  0  0  0  0  0  0  0
    8.8665   -0.7102   21.1727 N   0  0  0  0  0  0  0  0  0  0  0  0
    7.7616    0.0438   20.8234 C   0  0  0  0  0  0  0  0  0  0  0  0
    6.5266   -0.6269   20.3085 C   0  0  0  0  0  0  0  0  0  0  0  0
    5.6237    0.3226   19.5541 C   0  0  0  0  0  0  0  0  0  0  0  0
    4.4162    0.7414   20.0881 C   0  0  0  0  0  0  0  0  0  0  0  0
    3.6230    1.6069   19.3608 C   0  0  0  0  0  0  0  0  0  0  0  0
    3.9497    2.0737   18.1552 N   0  0  0  0  0  0  0  0  0  0  0  0
    5.1132    1.6636   17.6488 C   0  0  0  0  0  0  0  0  0  0  0  0
    5.9714    0.8007   18.3014 C   0  0  0  0  0  0  0  0  0  0  0  0
    8.0381    1.3372   21.0325 C   0  0  0  0  0  0  0  0  0  0  0  0
    9.3145    1.4357   21.5157 O   0  0  0  0  0  0  0  0  0  0  0  0
  1  2  1  0
  2  3  2  0
  3  4  1  0
  4  5  2  0
  5  6  1  0
  6  7  2  0
  7  8  1  0
  8  9  2  0
  9 10  1  0
 10 11  1  0
 11 12  1  0
 12 13  2  0
 13 14  1  0
 14 15  2  0
 15 16  1  0
 16 17  2  0
 10 18  2  0
 18 19  1  0
  7  2  1  0
 19  8  1  0
 17 12  1  0
M  END
