CVD-0002477|dock_bobby27042020.34|mol2|15|dock3
     RDKit          3D

 29 32  0  0  0  0  0  0  0  0999 V2000
    6.6087    9.0759   19.6004 F   0  0  0  0  0  0  0  0  0  0  0  0
    6.2124    8.7884   20.8765 C   0  0  0  0  0  0  0  0  0  0  0  0
    5.5228    9.5797   21.6750 C   0  0  0  0  0  0  0  0  0  0  0  0
    5.1143    9.1742   23.0429 C   0  0  0  0  0  0  0  0  0  0  0  0
    5.9351    7.9808   23.5003 C   0  0  0  0  0  0  0  0  0  0  0  0
    6.0163    6.9209   22.5032 N   0  0  0  0  0  0  0  0  0  0  0  0
    4.7058    6.3293   22.2221 C   0  0  0  0  0  0  0  0  0  0  0  0
    4.8088    4.9974   21.5413 C   0  0  0  0  0  0  0  0  0  0  0  0
    3.8412    4.5103   20.8407 N   0  0  0  0  0  0  0  0  0  0  0  0
    4.1421    3.2619   20.2996 N   0  0  0  0  0  0  0  0  0  0  0  0
    5.3341    2.8518   20.6179 C   0  0  0  0  0  0  0  0  0  0  0  0
    6.2078    3.9674   21.6201 S   0  0  0  0  0  0  0  0  0  0  0  0
    5.8859    1.5642   20.1693 C   0  0  0  0  0  0  0  0  0  0  0  0
    5.1475    0.7486   19.3214 C   0  0  0  0  0  0  0  0  0  0  0  0
    5.6630   -0.4629   18.8974 C   0  0  0  0  0  0  0  0  0  0  0  0
    6.9182   -0.8698   19.3157 C   0  0  0  0  0  0  0  0  0  0  0  0
    7.6743   -0.0691   20.1643 C   0  0  0  0  0  0  0  0  0  0  0  0
    8.9507   -0.5519   20.5504 N   0  0  0  0  0  0  0  0  0  0  0  0
    9.6343   -0.4437   21.7403 C   0  0  0  0  0  0  0  0  0  0  0  0
    9.2109    0.1352   22.7352 O   0  0  0  0  0  0  0  0  0  0  0  0
   10.8577   -1.0700   21.6718 N   0  0  0  0  0  0  0  0  0  0  0  0
   11.8781   -1.2076   22.6464 C   0  0  0  0  0  0  0  0  0  0  0  0
   12.8454   -2.2083   22.6375 C   0  0  0  0  0  0  0  0  0  0  0  0
   13.7944   -2.2421   23.6448 C   0  0  0  0  0  0  0  0  0  0  0  0
   13.7536   -1.2817   24.6288 C   0  0  0  0  0  0  0  0  0  0  0  0
   12.8405   -0.3116   24.6643 N   0  0  0  0  0  0  0  0  0  0  0  0
   11.9290   -0.2878   23.6878 C   0  0  0  0  0  0  0  0  0  0  0  0
    7.1472    1.1509   20.5872 C   0  0  0  0  0  0  0  0  0  0  0  0
    6.6531    7.4325   21.2912 C   0  0  0  0  0  0  0  0  0  0  0  0
  1  2  1  0
  2  3  2  0
  3  4  1  0
  4  5  1  0
  5  6  1  0
  6  7  1  0
  7  8  1  0
  8  9  2  0
  9 10  1  0
 10 11  2  0
 11 12  1  0
 11 13  1  0
 13 14  2  0
 14 15  1  0
 15 16  2  0
 16 17  1  0
 17 18  1  0
 18 19  1  0
 19 20  2  0
 19 21  1  0
 21 22  1  0
 22 23  2  0
 23 24  1  0
 24 25  2  0
 25 26  1  0
 26 27  2  0
 17 28  2  0
  6 29  1  0
 29  2  1  0
 12  8  1  0
 28 13  1  0
 27 22  1  0
M  END
