CVD-0003593|dock_bobby27042020.87|mol2|25|dock3
     RDKit          3D

 14 14  0  0  0  0  0  0  0  0999 V2000
   12.2346    3.7668   21.8685 C   0  0  0  0  0  0  0  0  0  0  0  0
   11.0074    3.6768   22.2982 C   0  0  0  0  0  0  0  0  0  0  0  0
   10.1477    2.1519   22.3190 S   0  0  0  0  0  0  0  0  0  0  0  0
    9.2413    2.1744   23.4266 O   0  0  0  0  0  0  0  0  0  0  0  0
    9.6438    1.9146   21.0004 O   0  0  0  0  0  0  0  0  0  0  0  0
   11.2598    0.9817   22.6288 N   0  0  0  0  0  0  0  0  0  0  0  0
   12.0302    1.0827   23.8832 C   0  0  0  0  0  0  0  0  0  0  0  0
   13.2585    0.2004   23.7608 C   0  0  0  0  0  0  0  0  0  0  0  0
   12.8784   -1.1810   23.4945 N   0  0  0  0  0  0  0  0  0  0  0  0
   14.0655   -2.0312   23.4154 C   0  0  0  0  0  0  0  0  0  0  0  0
   14.7409   -2.2507   24.6972 C   0  0  0  0  0  0  0  0  0  0  0  0
   15.2544   -2.3995   25.7438 C   0  0  0  0  0  0  0  0  0  0  0  0
   12.1195   -1.2507   22.2528 C   0  0  0  0  0  0  0  0  0  0  0  0
   10.8640   -0.4103   22.3434 C   0  0  0  0  0  0  0  0  0  0  0  0
  1  2  2  0
  2  3  1  0
  3  4  2  0
  3  5  2  0
  3  6  1  0
  6  7  1  0
  7  8  1  0
  8  9  1  0
  9 10  1  0
 10 11  1  0
 11 12  3  0
  9 13  1  0
 13 14  1  0
 14  6  1  0
M  END
