CVD-0002442|dock_bobby27042020.91|mol2|24|dock1
     RDKit          3D

 26 28  0  0  0  0  0  0  0  0999 V2000
   13.5316    6.3339   22.5832 Cl  0  0  0  0  0  0  0  0  0  0  0  0
   12.6762    4.8499   22.1426 C   0  0  0  0  0  0  0  0  0  0  0  0
   13.2802    3.6266   22.8058 C   0  0  0  0  0  0  0  0  0  0  0  0
   14.1476    3.7377   23.6632 O   0  0  0  0  0  0  0  0  0  0  0  0
   12.8291    2.4175   22.4090 N   0  0  0  0  0  0  0  0  0  0  0  0
   11.7882    2.1818   21.4119 C   0  0  0  0  0  0  0  0  0  0  0  0
   10.8078    1.1461   21.9225 C   0  0  0  0  0  0  0  0  0  0  0  0
   11.5296   -0.1510   22.2665 C   0  0  0  0  0  0  0  0  0  0  0  0
   12.6458    0.1362   23.2680 C   0  0  0  0  0  0  0  0  0  0  0  0
   13.5846    1.2118   22.7313 C   0  0  0  0  0  0  0  0  0  0  0  0
   10.5626   -1.1792   22.8143 C   0  0  0  0  0  0  0  0  0  0  0  0
   10.3247   -1.2475   24.0168 O   0  0  0  0  0  0  0  0  0  0  0  0
   10.0189   -1.9755   21.8619 N   0  0  0  0  0  0  0  0  0  0  0  0
    9.0875   -3.0372   21.9790 C   0  0  0  0  0  0  0  0  0  0  0  0
    8.9994   -3.9133   23.0609 C   0  0  0  0  0  0  0  0  0  0  0  0
    8.0389   -4.9127   23.0500 C   0  0  0  0  0  0  0  0  0  0  0  0
    7.1716   -5.0528   21.9874 C   0  0  0  0  0  0  0  0  0  0  0  0
    7.2460   -4.1919   20.9066 C   0  0  0  0  0  0  0  0  0  0  0  0
    8.2023   -3.1865   20.9034 C   0  0  0  0  0  0  0  0  0  0  0  0
    8.3729   -2.2760   19.8930 O   0  0  0  0  0  0  0  0  0  0  0  0
    7.7157   -0.9865   19.9490 C   0  0  0  0  0  0  0  0  0  0  0  0
    7.9794   -0.0605   18.6854 C   0  0  0  0  0  0  0  0  0  0  0  0
    6.1653   -0.1072   18.3581 S   0  0  0  0  0  0  0  0  0  0  0  0
    5.5643    1.1805   18.5776 O   0  0  0  0  0  0  0  0  0  0  0  0
    5.8453   -0.8122   17.1463 O   0  0  0  0  0  0  0  0  0  0  0  0
    6.1777   -1.1567   19.8605 C   0  0  0  0  0  0  0  0  0  0  0  0
  1  2  1  0
  2  3  1  0
  3  4  2  0
  3  5  1  0
  5  6  1  0
  6  7  1  0
  7  8  1  0
  8  9  1  0
  9 10  1  0
  8 11  1  0
 11 12  2  0
 11 13  1  0
 13 14  1  0
 14 15  2  0
 15 16  1  0
 16 17  2  0
 17 18  1  0
 18 19  2  0
 19 20  1  0
 20 21  1  0
 21 22  1  0
 22 23  1  0
 23 24  2  0
 23 25  2  0
 23 26  1  0
 10  5  1  0
 19 14  1  0
 26 21  1  0
M  END
