CVD-0002382|dock_bobby27042020.34|mol2|30|dock2
     RDKit          3D

 38 42  0  0  0  0  0  0  0  0999 V2000
   13.4050   -1.6225   21.7065 C   0  0  0  0  0  0  0  0  0  0  0  0
   12.9533   -0.9831   22.9453 N   0  0  0  0  0  0  0  0  0  0  0  0
   11.9177    0.0213   22.8117 C   0  0  0  0  0  0  0  0  0  0  0  0
   11.7610    0.8129   24.0353 N   0  0  0  0  0  0  0  0  0  0  0  0
   10.9609    0.2129   25.1271 C   0  0  0  0  0  0  0  0  0  0  0  0
    9.5696    0.7957   25.1099 C   0  0  0  0  0  0  0  0  0  0  0  0
    9.6277    2.2883   25.2983 C   0  0  0  0  0  0  0  0  0  0  0  0
   10.8075    2.9668   24.6375 C   0  0  0  0  0  0  0  0  0  0  0  0
   10.9203    4.3525   24.6986 C   0  0  0  0  0  0  0  0  0  0  0  0
   12.0185    5.0136   24.1872 C   0  0  0  0  0  0  0  0  0  0  0  0
   13.0286    4.2714   23.6002 C   0  0  0  0  0  0  0  0  0  0  0  0
   12.9525    2.8884   23.5201 C   0  0  0  0  0  0  0  0  0  0  0  0
   11.8359    2.2367   24.0418 C   0  0  0  0  0  0  0  0  0  0  0  0
   14.4152    5.0981   22.8813 S   0  0  0  0  0  0  0  0  0  0  0  0
   14.1375    6.6745   22.9114 N   0  0  0  0  0  0  0  0  0  0  0  0
   14.4808    4.7059   21.5054 O   0  0  0  0  0  0  0  0  0  0  0  0
   15.5453    4.8510   23.7256 O   0  0  0  0  0  0  0  0  0  0  0  0
   10.6139   -0.5915   22.3794 C   0  0  0  0  0  0  0  0  0  0  0  0
    9.7037   -0.0146   21.4490 C   0  0  0  0  0  0  0  0  0  0  0  0
    8.6076   -0.8378   21.2641 C   0  0  0  0  0  0  0  0  0  0  0  0
    7.4409   -0.6014   20.3724 C   0  0  0  0  0  0  0  0  0  0  0  0
    6.8141   -1.6584   19.7040 C   0  0  0  0  0  0  0  0  0  0  0  0
    5.7103   -1.4419   18.8961 C   0  0  0  0  0  0  0  0  0  0  0  0
    5.2198   -0.1703   18.7063 C   0  0  0  0  0  0  0  0  0  0  0  0
    5.8311    0.9016   19.3289 C   0  0  0  0  0  0  0  0  0  0  0  0
    6.9138    0.6648   20.1423 C   0  0  0  0  0  0  0  0  0  0  0  0
    7.4642    1.7483   20.7367 F   0  0  0  0  0  0  0  0  0  0  0  0
    8.8324   -1.9561   22.1128 N   0  0  0  0  0  0  0  0  0  0  0  0
   10.0483   -1.7813   22.7631 C   0  0  0  0  0  0  0  0  0  0  0  0
    7.8960   -3.3396   22.4061 S   0  0  0  0  0  0  0  0  0  0  0  0
    8.1808   -4.2524   21.3427 O   0  0  0  0  0  0  0  0  0  0  0  0
    6.5607   -2.8860   22.6429 O   0  0  0  0  0  0  0  0  0  0  0  0
    8.5139   -4.0231   23.9052 C   0  0  0  0  0  0  0  0  0  0  0  0
    8.6073   -3.2423   25.0446 C   0  0  0  0  0  0  0  0  0  0  0  0
    9.1037   -3.8192   26.2006 C   0  0  0  0  0  0  0  0  0  0  0  0
    9.4843   -5.1417   26.1703 C   0  0  0  0  0  0  0  0  0  0  0  0
    9.4016   -5.9051   25.0797 N   0  0  0  0  0  0  0  0  0  0  0  0
    8.9218   -5.3420   23.9670 C   0  0  0  0  0  0  0  0  0  0  0  0
  1  2  1  0
  2  3  1  0
  3  4  1  0
  4  5  1  0
  5  6  1  0
  6  7  1  0
  7  8  1  0
  8  9  2  0
  9 10  1  0
 10 11  2  0
 11 12  1  0
 12 13  2  0
 11 14  1  0
 14 15  1  0
 14 16  2  0
 14 17  2  0
  3 18  1  0
 18 19  1  0
 19 20  2  0
 20 21  1  0
 21 22  2  0
 22 23  1  0
 23 24  2  0
 24 25  1  0
 25 26  2  0
 26 27  1  0
 20 28  1  0
 28 29  1  0
 28 30  1  0
 30 31  2  0
 30 32  2  0
 30 33  1  0
 33 34  2  0
 34 35  1  0
 35 36  2  0
 36 37  1  0
 37 38  2  0
 13  4  1  0
 29 18  2  0
 38 33  1  0
 13  8  1  0
 26 21  1  0
M  END
