CVD-0001934|dock_bobby27042020.50|mol2|44|dock2
     RDKit          3D

 23 24  0  0  0  0  0  0  0  0999 V2000
    6.9212    4.5846   21.5741 N   0  0  0  0  0  0  0  0  0  0  0  0
    7.1343    3.1398   22.2299 S   0  0  0  0  0  0  0  0  0  0  0  0
    6.2115    3.0299   23.3198 O   0  0  0  0  0  0  0  0  0  0  0  0
    8.5355    2.9952   22.4882 O   0  0  0  0  0  0  0  0  0  0  0  0
    6.6875    1.9114   21.0329 C   0  0  0  0  0  0  0  0  0  0  0  0
    5.4955    2.0898   20.3469 C   0  0  0  0  0  0  0  0  0  0  0  0
    5.0863    1.1705   19.3976 C   0  0  0  0  0  0  0  0  0  0  0  0
    5.8783    0.0721   19.1405 C   0  0  0  0  0  0  0  0  0  0  0  0
    5.3205   -1.1896   17.8348 Br  0  0  0  0  0  0  0  0  0  0  0  0
    7.0666   -0.1336   19.8084 C   0  0  0  0  0  0  0  0  0  0  0  0
    7.4828    0.7815   20.7654 C   0  0  0  0  0  0  0  0  0  0  0  0
    9.0168    0.4808   21.6003 S   0  0  0  0  0  0  0  0  0  0  0  0
    9.9976    1.3448   21.0177 O   0  0  0  0  0  0  0  0  0  0  0  0
    8.7662    0.5449   23.0077 O   0  0  0  0  0  0  0  0  0  0  0  0
    9.4757   -1.0298   21.2801 N   0  0  0  0  0  0  0  0  0  0  0  0
    9.1457   -2.1146   22.2124 C   0  0  0  0  0  0  0  0  0  0  0  0
   10.0918   -2.1068   23.3996 C   0  0  0  0  0  0  0  0  0  0  0  0
   11.3150   -1.2536   23.1661 C   0  0  0  0  0  0  0  0  0  0  0  0
   12.2509   -1.6027   22.2047 C   0  0  0  0  0  0  0  0  0  0  0  0
   13.3717   -0.8187   21.9879 C   0  0  0  0  0  0  0  0  0  0  0  0
   13.5701    0.3256   22.7299 C   0  0  0  0  0  0  0  0  0  0  0  0
   12.6472    0.6856   23.6881 C   0  0  0  0  0  0  0  0  0  0  0  0
   11.5268   -0.0992   23.9042 C   0  0  0  0  0  0  0  0  0  0  0  0
  1  2  1  0
  2  3  2  0
  2  4  2  0
  2  5  1  0
  5  6  2  0
  6  7  1  0
  7  8  2  0
  8  9  1  0
  8 10  1  0
 10 11  2  0
 11 12  1  0
 12 13  2  0
 12 14  2  0
 12 15  1  0
 15 16  1  0
 16 17  1  0
 17 18  1  0
 18 19  2  0
 19 20  1  0
 20 21  2  0
 21 22  1  0
 22 23  2  0
 11  5  1  0
 23 18  1  0
M  END
