CVD-0003387|dock_bobby27042020.74|mol2|7|dock3
     RDKit          3D

 19 21  0  0  0  0  0  0  0  0999 V2000
   10.3661   -0.8943   20.4905 O   0  0  0  0  0  0  0  0  0  0  0  0
    9.4971   -1.3266   21.2402 C   0  0  0  0  0  0  0  0  0  0  0  0
    9.8588   -2.1028   22.4868 C   0  0  0  0  0  0  0  0  0  0  0  0
   11.3112   -1.8987   22.9280 C   0  0  0  0  0  0  0  0  0  0  0  0
   11.5823   -0.4234   23.2878 C   0  0  0  0  0  0  0  0  0  0  0  0
   13.0035   -0.2003   23.8012 C   0  0  0  0  0  0  0  0  0  0  0  0
   13.3224   -1.1235   24.9699 C   0  0  0  0  0  0  0  0  0  0  0  0
   13.0838   -2.5804   24.6000 C   0  0  0  0  0  0  0  0  0  0  0  0
   11.6511   -2.8018   24.1259 C   0  0  0  0  0  0  0  0  0  0  0  0
    8.1631   -1.1707   21.0640 N   0  0  0  0  0  0  0  0  0  0  0  0
    7.4547   -0.5077   20.0311 C   0  0  0  0  0  0  0  0  0  0  0  0
    7.8166   -0.4472   18.6859 C   0  0  0  0  0  0  0  0  0  0  0  0
    7.1186    0.1908   17.7408 N   0  0  0  0  0  0  0  0  0  0  0  0
    5.9946    0.8207   18.0826 C   0  0  0  0  0  0  0  0  0  0  0  0
    5.5282    0.8344   19.3860 C   0  0  0  0  0  0  0  0  0  0  0  0
    4.4314    1.3890   20.0012 N   0  0  0  0  0  0  0  0  0  0  0  0
    4.4631    1.0838   21.3398 C   0  0  0  0  0  0  0  0  0  0  0  0
    5.5587    0.3391   21.6199 C   0  0  0  0  0  0  0  0  0  0  0  0
    6.2645    0.1618   20.3818 C   0  0  0  0  0  0  0  0  0  0  0  0
  1  2  2  0
  2  3  1  0
  3  4  1  0
  4  5  1  0
  5  6  1  0
  6  7  1  0
  7  8  1  0
  8  9  1  0
  2 10  1  0
 10 11  1  0
 11 12  2  0
 12 13  1  0
 13 14  2  0
 14 15  1  0
 15 16  1  0
 16 17  1  0
 17 18  2  0
 18 19  1  0
  9  4  1  0
 19 11  1  0
 19 15  2  0
M  END
