CVD-0003239|dock_bobby27042020.2|mol2|37|dock1
     RDKit          3D

 29 31  0  0  0  0  0  0  0  0999 V2000
    5.8870   -0.8848   18.9744 C   0  0  0  0  0  0  0  0  0  0  0  0
    5.7944   -2.3536   19.2667 C   0  0  0  0  0  0  0  0  0  0  0  0
    5.4220   -3.1436   18.4067 O   0  0  0  0  0  0  0  0  0  0  0  0
    6.1398   -2.6887   20.5518 N   0  0  0  0  0  0  0  0  0  0  0  0
    6.1985   -3.8740   21.2313 C   0  0  0  0  0  0  0  0  0  0  0  0
    5.8993   -4.9240   20.6686 O   0  0  0  0  0  0  0  0  0  0  0  0
    6.6356   -3.9420   22.6953 C   0  0  0  0  0  0  0  0  0  0  0  0
    5.4570   -3.8920   23.6756 C   0  0  0  0  0  0  0  0  0  0  0  0
    4.3152   -4.8829   23.4671 C   0  0  0  0  0  0  0  0  0  0  0  0
    4.7603   -6.2987   23.6435 C   0  0  0  0  0  0  0  0  0  0  0  0
    4.0126   -6.9056   24.6110 C   0  0  0  0  0  0  0  0  0  0  0  0
    3.0781   -6.0100   25.1431 N   0  0  0  0  0  0  0  0  0  0  0  0
    3.1686   -4.7830   24.5091 C   0  0  0  0  0  0  0  0  0  0  0  0
    2.4543   -3.8122   24.7415 O   0  0  0  0  0  0  0  0  0  0  0  0
    7.6020   -2.9022   23.0553 N   0  0  0  0  0  0  0  0  0  0  0  0
    8.9142   -2.9092   22.3947 C   0  0  0  0  0  0  0  0  0  0  0  0
    9.2824   -1.5788   21.7599 C   0  0  0  0  0  0  0  0  0  0  0  0
   10.7826   -1.2919   21.7733 C   0  0  0  0  0  0  0  0  0  0  0  0
   11.0069   -0.6436   23.1486 C   0  0  0  0  0  0  0  0  0  0  0  0
   12.4223   -0.0734   23.3732 C   0  0  0  0  0  0  0  0  0  0  0  0
   13.5981   -0.9344   22.9466 C   0  0  0  0  0  0  0  0  0  0  0  0
   13.7085   -2.0298   23.9898 C   0  0  0  0  0  0  0  0  0  0  0  0
   13.3214   -1.2627   25.5887 S   0  0  0  0  0  0  0  0  0  0  0  0
   12.6165    0.2342   24.8480 C   0  0  0  0  0  0  0  0  0  0  0  0
    9.8779    0.3919   23.1587 C   0  0  0  0  0  0  0  0  0  0  0  0
    8.6536   -0.2990   22.4985 C   0  0  0  0  0  0  0  0  0  0  0  0
   10.1496    1.6848   22.4129 C   0  0  0  0  0  0  0  0  0  0  0  0
   10.6188    2.6919   23.1326 N   0  0  0  0  0  0  0  0  0  0  0  0
    9.9350    1.7871   21.2026 O   0  0  0  0  0  0  0  0  0  0  0  0
  1  2  1  0
  2  3  2  0
  2  4  1  0
  4  5  1  0
  5  6  2  0
  5  7  1  0
  7  8  1  0
  8  9  1  0
  9 10  1  0
 10 11  2  0
 11 12  1  0
 12 13  1  0
 13 14  2  0
  7 15  1  0
 15 16  1  0
 16 17  1  0
 17 18  1  0
 18 19  1  0
 19 20  1  0
 20 21  1  0
 21 22  1  0
 22 23  1  0
 23 24  1  0
 19 25  1  0
 25 26  1  0
 25 27  1  0
 27 28  1  0
 27 29  2  0
 13  9  1  0
 26 17  1  0
 24 20  1  0
M  END
