CVD-0002417|dock_bobby27042020.49|mol2|1|dock1
     RDKit          3D

 32 34  0  0  0  0  0  0  0  0999 V2000
    4.9258   -5.3244   23.8451 C   0  0  0  0  0  0  0  0  0  0  0  0
    5.2355   -5.3522   25.3130 C   0  0  0  0  0  0  0  0  0  0  0  0
    4.3622   -5.2102   26.1633 O   0  0  0  0  0  0  0  0  0  0  0  0
    6.5212   -5.5239   25.6388 N   0  0  0  0  0  0  0  0  0  0  0  0
    6.9618   -5.5528   27.0238 C   0  0  0  0  0  0  0  0  0  0  0  0
    8.4780   -5.3191   27.1039 C   0  0  0  0  0  0  0  0  0  0  0  0
    8.9744   -4.2833   26.1246 C   0  0  0  0  0  0  0  0  0  0  0  0
    8.3190   -3.0716   25.9782 C   0  0  0  0  0  0  0  0  0  0  0  0
    8.7719   -2.1167   25.0856 C   0  0  0  0  0  0  0  0  0  0  0  0
    9.8989   -2.3634   24.3209 C   0  0  0  0  0  0  0  0  0  0  0  0
   10.3291   -1.3947   23.4374 O   0  0  0  0  0  0  0  0  0  0  0  0
   10.2947    0.0159   23.7708 C   0  0  0  0  0  0  0  0  0  0  0  0
    9.1622    0.7810   23.0969 C   0  0  0  0  0  0  0  0  0  0  0  0
    9.2305    2.2736   23.3534 C   0  0  0  0  0  0  0  0  0  0  0  0
   10.5187    2.8401   22.9362 N   0  0  0  0  0  0  0  0  0  0  0  0
   10.5423    4.2887   23.1443 C   0  0  0  0  0  0  0  0  0  0  0  0
   11.8653    4.9271   22.8049 C   0  0  0  0  0  0  0  0  0  0  0  0
   12.5978    4.6886   21.6160 C   0  0  0  0  0  0  0  0  0  0  0  0
   13.7729    5.3717   21.5285 C   0  0  0  0  0  0  0  0  0  0  0  0
   13.9884    6.3207   22.9203 S   0  0  0  0  0  0  0  0  0  0  0  0
   12.5231    5.8052   23.6119 C   0  0  0  0  0  0  0  0  0  0  0  0
   11.5990    2.1809   23.6750 C   0  0  0  0  0  0  0  0  0  0  0  0
   11.6139    0.6859   23.4027 C   0  0  0  0  0  0  0  0  0  0  0  0
   10.5648   -3.5718   24.4548 C   0  0  0  0  0  0  0  0  0  0  0  0
   10.1008   -4.5173   25.3522 C   0  0  0  0  0  0  0  0  0  0  0  0
    6.6119   -6.8871   27.6760 C   0  0  0  0  0  0  0  0  0  0  0  0
    6.0172   -7.7537   27.0406 O   0  0  0  0  0  0  0  0  0  0  0  0
    6.9848   -7.0449   28.9459 N   0  0  0  0  0  0  0  0  0  0  0  0
    6.7067   -8.2752   29.6751 C   0  0  0  0  0  0  0  0  0  0  0  0
    7.8120   -9.2380   29.6021 C   0  0  0  0  0  0  0  0  0  0  0  0
    8.6871  -10.0301   29.4881 C   0  0  0  0  0  0  0  0  0  0  0  0
    9.9750  -11.2787   29.3266 Br  0  0  0  0  0  0  0  0  0  0  0  0
  1  2  1  0
  2  3  2  0
  2  4  1  0
  4  5  1  0
  5  6  1  0
  6  7  1  0
  7  8  2  0
  8  9  1  0
  9 10  2  0
 10 11  1  0
 11 12  1  0
 12 13  1  0
 13 14  1  0
 14 15  1  0
 15 16  1  0
 16 17  1  0
 17 18  1  0
 18 19  2  0
 19 20  1  0
 20 21  1  0
 15 22  1  0
 22 23  1  0
 10 24  1  0
 24 25  2  0
  5 26  1  0
 26 27  2  0
 26 28  1  0
 28 29  1  0
 29 30  1  0
 30 31  3  0
 31 32  1  0
 25  7  1  0
 23 12  1  0
 21 17  2  0
M  END
