CVD-0003785|dock_bobby27042020.44|mol2|17|dock1
     RDKit          3D

 25 27  0  0  0  0  0  0  0  0999 V2000
    6.7372   -4.6132   21.6176 C   0  0  0  0  0  0  0  0  0  0  0  0
    6.5789   -3.1763   21.7745 N   0  0  0  0  0  0  0  0  0  0  0  0
    7.0254   -2.5865   23.0376 C   0  0  0  0  0  0  0  0  0  0  0  0
    8.4919   -2.1764   23.0607 C   0  0  0  0  0  0  0  0  0  0  0  0
    8.7861   -1.1921   24.1982 C   0  0  0  0  0  0  0  0  0  0  0  0
   10.2364   -0.7994   24.2098 C   0  0  0  0  0  0  0  0  0  0  0  0
   10.6652   -0.2368   22.9258 N   0  0  0  0  0  0  0  0  0  0  0  0
   10.3952   -1.1353   21.7794 C   0  0  0  0  0  0  0  0  0  0  0  0
    8.9427   -1.5612   21.7599 C   0  0  0  0  0  0  0  0  0  0  0  0
   11.4319    0.9163   22.8269 C   0  0  0  0  0  0  0  0  0  0  0  0
   10.8312    2.1690   22.7449 C   0  0  0  0  0  0  0  0  0  0  0  0
   11.5900    3.3216   22.6455 C   0  0  0  0  0  0  0  0  0  0  0  0
   12.9706    3.2330   22.6324 C   0  0  0  0  0  0  0  0  0  0  0  0
   13.5903    1.9987   22.7123 C   0  0  0  0  0  0  0  0  0  0  0  0
   12.8219    0.8519   22.8069 C   0  0  0  0  0  0  0  0  0  0  0  0
   13.9458    4.7009   22.5026 S   0  0  0  0  0  0  0  0  0  0  0  0
   13.1947    5.8796   23.2833 N   0  0  0  0  0  0  0  0  0  0  0  0
   13.9850    5.0673   21.1187 O   0  0  0  0  0  0  0  0  0  0  0  0
   15.1791    4.4572   23.1888 O   0  0  0  0  0  0  0  0  0  0  0  0
    6.1122   -2.4309   20.7618 C   0  0  0  0  0  0  0  0  0  0  0  0
    5.7470   -2.8836   19.5316 C   0  0  0  0  0  0  0  0  0  0  0  0
    5.3005   -1.8681   18.6892 C   0  0  0  0  0  0  0  0  0  0  0  0
    5.3331   -0.6623   19.2904 C   0  0  0  0  0  0  0  0  0  0  0  0
    4.8693    0.8392   18.6035 Cl  0  0  0  0  0  0  0  0  0  0  0  0
    5.9084   -0.7169   20.9036 S   0  0  0  0  0  0  0  0  0  0  0  0
  1  2  1  0
  2  3  1  0
  3  4  1  0
  4  5  1  0
  5  6  1  0
  6  7  1  0
  7  8  1  0
  8  9  1  0
  7 10  1  0
 10 11  2  0
 11 12  1  0
 12 13  2  0
 13 14  1  0
 14 15  2  0
 13 16  1  0
 16 17  1  0
 16 18  2  0
 16 19  2  0
  2 20  1  0
 20 21  2  0
 21 22  1  0
 22 23  2  0
 23 24  1  0
 23 25  1  0
  9  4  1  0
 15 10  1  0
 25 20  1  0
M  END
