CVD-0001107|dock_bobby27042020.39|mol2|19|dock3
     RDKit          3D

 27 29  0  0  0  0  0  0  0  0999 V2000
    9.2966    0.0340   24.9365 C   0  0  0  0  0  0  0  0  0  0  0  0
   10.6233    0.3545   24.4248 N   0  0  0  0  0  0  0  0  0  0  0  0
   11.4202    1.3257   24.9838 C   0  0  0  0  0  0  0  0  0  0  0  0
   12.6150    1.3803   24.3571 C   0  0  0  0  0  0  0  0  0  0  0  0
   12.6074    0.3717   23.3456 C   0  0  0  0  0  0  0  0  0  0  0  0
   13.5518   -0.0755   22.4117 C   0  0  0  0  0  0  0  0  0  0  0  0
   13.2496   -1.1138   21.5532 C   0  0  0  0  0  0  0  0  0  0  0  0
   11.9994   -1.7079   21.5801 C   0  0  0  0  0  0  0  0  0  0  0  0
   11.0187   -1.2650   22.4698 C   0  0  0  0  0  0  0  0  0  0  0  0
    9.7248   -1.8912   22.3642 N   0  0  0  0  0  0  0  0  0  0  0  0
    9.4532   -3.0261   23.2555 C   0  0  0  0  0  0  0  0  0  0  0  0
   10.6814   -3.4799   24.0185 C   0  0  0  0  0  0  0  0  0  0  0  0
   10.3588   -4.6451   24.8506 N   0  0  0  0  0  0  0  0  0  0  0  0
    9.3392   -4.4856   26.0776 S   0  0  0  0  0  0  0  0  0  0  0  0
    9.8588   -5.5765   27.3451 C   0  0  0  0  0  0  0  0  0  0  0  0
    8.0569   -4.9199   25.6161 O   0  0  0  0  0  0  0  0  0  0  0  0
    9.4730   -3.1464   26.5621 O   0  0  0  0  0  0  0  0  0  0  0  0
    8.7251   -1.4754   21.5358 C   0  0  0  0  0  0  0  0  0  0  0  0
    7.6437   -2.0500   21.5447 O   0  0  0  0  0  0  0  0  0  0  0  0
    8.9518   -0.3041   20.5977 C   0  0  0  0  0  0  0  0  0  0  0  0
    7.7954   -0.0849   19.6485 C   0  0  0  0  0  0  0  0  0  0  0  0
    6.5432    0.2851   20.1101 C   0  0  0  0  0  0  0  0  0  0  0  0
    5.5085    0.4806   19.2122 C   0  0  0  0  0  0  0  0  0  0  0  0
    5.7619    0.2990   17.8716 C   0  0  0  0  0  0  0  0  0  0  0  0
    6.9567   -0.0556   17.3966 N   0  0  0  0  0  0  0  0  0  0  0  0
    7.9405   -0.2385   18.2826 C   0  0  0  0  0  0  0  0  0  0  0  0
   11.3313   -0.2438   23.3892 C   0  0  0  0  0  0  0  0  0  0  0  0
  1  2  1  0
  2  3  1  0
  3  4  2  0
  4  5  1  0
  5  6  2  0
  6  7  1  0
  7  8  2  0
  8  9  1  0
  9 10  1  0
 10 11  1  0
 11 12  1  0
 12 13  1  0
 13 14  1  0
 14 15  1  0
 14 16  2  0
 14 17  2  0
 10 18  1  0
 18 19  2  0
 18 20  1  0
 20 21  1  0
 21 22  2  0
 22 23  1  0
 23 24  2  0
 24 25  1  0
 25 26  2  0
  9 27  2  0
 27  2  1  0
 27  5  1  0
 26 21  1  0
M  END
