CVD-0000258|dock_bobby27042020.42|mol2|15|dock3
     RDKit          3D

 25 27  0  0  0  0  0  0  0  0999 V2000
   10.1750    0.3849   25.8941 C   0  0  0  0  0  0  0  0  0  0  0  0
   10.2311   -0.1683   24.5810 O   0  0  0  0  0  0  0  0  0  0  0  0
   11.4006   -0.0843   23.8748 C   0  0  0  0  0  0  0  0  0  0  0  0
   12.3740    0.8889   24.0795 C   0  0  0  0  0  0  0  0  0  0  0  0
   13.5274    0.8818   23.3140 C   0  0  0  0  0  0  0  0  0  0  0  0
   13.7129   -0.0870   22.3530 C   0  0  0  0  0  0  0  0  0  0  0  0
   12.7435   -1.0535   22.1504 C   0  0  0  0  0  0  0  0  0  0  0  0
   11.5677   -1.0694   22.9009 C   0  0  0  0  0  0  0  0  0  0  0  0
   10.5032   -2.1335   22.6529 C   0  0  0  0  0  0  0  0  0  0  0  0
    9.3315   -1.5224   22.0423 N   0  0  0  0  0  0  0  0  0  0  0  0
    8.2267   -2.2339   21.8081 C   0  0  0  0  0  0  0  0  0  0  0  0
    8.1300   -3.4243   22.0897 O   0  0  0  0  0  0  0  0  0  0  0  0
    7.0856   -1.4857   21.1518 C   0  0  0  0  0  0  0  0  0  0  0  0
    6.4667   -2.2539   20.0310 C   0  0  0  0  0  0  0  0  0  0  0  0
    6.5618   -3.5670   19.6760 C   0  0  0  0  0  0  0  0  0  0  0  0
    5.8137   -3.7867   18.5695 N   0  0  0  0  0  0  0  0  0  0  0  0
    5.2534   -2.6540   18.2089 N   0  0  0  0  0  0  0  0  0  0  0  0
    5.6353   -1.7161   19.1057 N   0  0  0  0  0  0  0  0  0  0  0  0
    5.2018   -0.3299   18.9835 C   0  0  0  0  0  0  0  0  0  0  0  0
   10.0911   -2.8050   23.9367 C   0  0  0  0  0  0  0  0  0  0  0  0
    9.1710   -2.3419   24.7289 N   0  0  0  0  0  0  0  0  0  0  0  0
    9.1564   -3.3077   25.7657 O   0  0  0  0  0  0  0  0  0  0  0  0
   10.0873   -4.2183   25.4417 C   0  0  0  0  0  0  0  0  0  0  0  0
   10.2769   -5.3612   26.3680 C   0  0  0  0  0  0  0  0  0  0  0  0
   10.6896   -3.9655   24.3296 N   0  0  0  0  0  0  0  0  0  0  0  0
  1  2  1  0
  2  3  1  0
  3  4  2  0
  4  5  1  0
  5  6  2  0
  6  7  1  0
  7  8  2  0
  8  9  1  0
  9 10  1  0
 10 11  1  0
 11 12  2  0
 11 13  1  0
 13 14  1  0
 14 15  2  0
 15 16  1  0
 16 17  2  0
 17 18  1  0
 18 19  1  0
  9 20  1  0
 20 21  2  0
 21 22  1  0
 22 23  1  0
 23 24  1  0
 23 25  2  0
  8  3  1  0
 18 14  1  0
 25 20  1  0
M  END
