CVD-0003085|dock_bobby27042020.32|mol2|10|dock1
     RDKit          3D

 17 17  0  0  0  0  0  0  0  0999 V2000
    6.4318    1.7593   21.9141 C   0  0  0  0  0  0  0  0  0  0  0  0
    6.5271    1.2318   20.5055 C   0  0  0  0  0  0  0  0  0  0  0  0
    5.4650    1.4647   19.6368 C   0  0  0  0  0  0  0  0  0  0  0  0
    5.5248    0.9976   18.3430 C   0  0  0  0  0  0  0  0  0  0  0  0
    6.5640    0.3208   17.8629 N   0  0  0  0  0  0  0  0  0  0  0  0
    7.5908    0.0919   18.6875 C   0  0  0  0  0  0  0  0  0  0  0  0
    7.6377    0.5178   20.0152 C   0  0  0  0  0  0  0  0  0  0  0  0
    8.7298    0.2761   20.8951 N   0  0  0  0  0  0  0  0  0  0  0  0
    9.5272   -0.8127   21.0266 C   0  0  0  0  0  0  0  0  0  0  0  0
    9.4489   -1.8477   20.3737 O   0  0  0  0  0  0  0  0  0  0  0  0
   10.5814   -0.6547   22.0950 C   0  0  0  0  0  0  0  0  0  0  0  0
   11.7013   -1.6795   21.9849 C   0  0  0  0  0  0  0  0  0  0  0  0
   12.7890   -1.4744   23.0252 C   0  0  0  0  0  0  0  0  0  0  0  0
   12.3952   -1.9985   24.3988 C   0  0  0  0  0  0  0  0  0  0  0  0
   13.4236   -1.7268   25.4419 C   0  0  0  0  0  0  0  0  0  0  0  0
   13.5621   -0.5798   25.9327 N   0  0  0  0  0  0  0  0  0  0  0  0
   14.1597   -2.7604   25.7868 N   0  0  0  0  0  0  0  0  0  0  0  0
  1  2  1  0
  2  3  2  0
  3  4  1  0
  4  5  2  0
  5  6  1  0
  6  7  2  0
  7  8  1  0
  8  9  1  0
  9 10  2  0
  9 11  1  0
 11 12  1  0
 12 13  1  0
 13 14  1  0
 14 15  1  0
 15 16  1  0
 15 17  2  0
  7  2  1  0
M  END
