CVD-0002357|dock_bobby27042020.6|mol2|14|dock3
     RDKit          3D

 38 42  0  0  0  0  0  0  0  0999 V2000
   13.7456    5.4090   22.0703 C   0  0  0  0  0  0  0  0  0  0  0  0
   12.6860    4.7217   22.8132 N   0  0  0  0  0  0  0  0  0  0  0  0
   11.6449    4.1252   21.9683 C   0  0  0  0  0  0  0  0  0  0  0  0
   11.3267    2.7191   22.3957 C   0  0  0  0  0  0  0  0  0  0  0  0
   12.3860    1.8430   22.6470 C   0  0  0  0  0  0  0  0  0  0  0  0
   11.8852    0.6118   22.9568 C   0  0  0  0  0  0  0  0  0  0  0  0
   12.7613   -0.5317   23.3071 C   0  0  0  0  0  0  0  0  0  0  0  0
   12.9357   -1.5470   22.3657 C   0  0  0  0  0  0  0  0  0  0  0  0
   13.7490   -2.6337   22.6414 C   0  0  0  0  0  0  0  0  0  0  0  0
   14.4042   -2.7275   23.8500 C   0  0  0  0  0  0  0  0  0  0  0  0
   14.2594   -1.7298   24.7979 C   0  0  0  0  0  0  0  0  0  0  0  0
   13.4510   -0.6575   24.5041 C   0  0  0  0  0  0  0  0  0  0  0  0
   13.3323    0.3170   25.4350 F   0  0  0  0  0  0  0  0  0  0  0  0
   10.4468    0.6811   22.8774 N   0  0  0  0  0  0  0  0  0  0  0  0
   10.1157    2.0463   22.5621 C   0  0  0  0  0  0  0  0  0  0  0  0
    8.7849    2.5970   22.4290 N   0  0  0  0  0  0  0  0  0  0  0  0
    8.4386    3.9247   22.9879 C   0  0  0  0  0  0  0  0  0  0  0  0
    7.4500    3.8459   23.9702 C   0  0  0  0  0  0  0  0  0  0  0  0
    6.4576    2.7955   23.9770 C   0  0  0  0  0  0  0  0  0  0  0  0
    6.4700    1.9528   22.7393 C   0  0  0  0  0  0  0  0  0  0  0  0
    5.3176    1.3073   22.3053 C   0  0  0  0  0  0  0  0  0  0  0  0
    5.3041    0.5652   21.1437 C   0  0  0  0  0  0  0  0  0  0  0  0
    6.4723    0.4727   20.4083 C   0  0  0  0  0  0  0  0  0  0  0  0
    7.6356    1.1080   20.8210 C   0  0  0  0  0  0  0  0  0  0  0  0
    7.6419    1.8555   21.9950 C   0  0  0  0  0  0  0  0  0  0  0  0
    6.4327   -0.2868   18.8131 S   0  0  0  0  0  0  0  0  0  0  0  0
    7.9308   -0.6659   18.3944 N   0  0  0  0  0  0  0  0  0  0  0  0
    5.7056   -1.5139   18.9416 O   0  0  0  0  0  0  0  0  0  0  0  0
    5.9690    0.6977   17.8821 O   0  0  0  0  0  0  0  0  0  0  0  0
    9.4602   -0.6908   23.1949 S   0  0  0  0  0  0  0  0  0  0  0  0
   10.2500   -1.8781   23.2215 O   0  0  0  0  0  0  0  0  0  0  0  0
    8.3750   -0.7752   22.2732 O   0  0  0  0  0  0  0  0  0  0  0  0
    8.8568   -0.4770   24.8350 C   0  0  0  0  0  0  0  0  0  0  0  0
    9.7372   -0.3993   25.9004 C   0  0  0  0  0  0  0  0  0  0  0  0
    9.2198   -0.2269   27.1726 C   0  0  0  0  0  0  0  0  0  0  0  0
    7.8546   -0.1391   27.3261 C   0  0  0  0  0  0  0  0  0  0  0  0
    6.9949   -0.2109   26.3089 N   0  0  0  0  0  0  0  0  0  0  0  0
    7.5009   -0.3770   25.0835 C   0  0  0  0  0  0  0  0  0  0  0  0
  1  2  1  0
  2  3  1  0
  3  4  1  0
  4  5  1  0
  5  6  2  0
  6  7  1  0
  7  8  2  0
  8  9  1  0
  9 10  2  0
 10 11  1  0
 11 12  2  0
 12 13  1  0
  6 14  1  0
 14 15  1  0
 15 16  1  0
 16 17  1  0
 17 18  1  0
 18 19  1  0
 19 20  1  0
 20 21  2  0
 21 22  1  0
 22 23  2  0
 23 24  1  0
 24 25  2  0
 23 26  1  0
 26 27  1  0
 26 28  2  0
 26 29  2  0
 14 30  1  0
 30 31  2  0
 30 32  2  0
 30 33  1  0
 33 34  2  0
 34 35  1  0
 35 36  2  0
 36 37  1  0
 37 38  2  0
 15  4  2  0
 25 16  1  0
 38 33  1  0
 12  7  1  0
 25 20  1  0
M  END
