CVD-0002522|dock_bobby27042020.91|mol2|12|dock2
     RDKit          3D

 29 32  0  0  0  0  0  0  0  0999 V2000
    4.9779   -3.8966   23.9624 C   0  0  0  0  0  0  0  0  0  0  0  0
    5.6868   -3.9005   22.6139 C   0  0  0  0  0  0  0  0  0  0  0  0
    5.5011   -5.2886   21.9173 C   0  0  0  0  0  0  0  0  0  0  0  0
    5.7493   -5.1595   20.5147 O   0  0  0  0  0  0  0  0  0  0  0  0
    6.4170   -6.3618   22.5317 C   0  0  0  0  0  0  0  0  0  0  0  0
    7.8528   -5.8448   22.6032 C   0  0  0  0  0  0  0  0  0  0  0  0
    7.9078   -4.5080   23.3266 C   0  0  0  0  0  0  0  0  0  0  0  0
    7.0897   -3.5162   22.6319 N   0  0  0  0  0  0  0  0  0  0  0  0
    7.5771   -2.1333   22.5581 C   0  0  0  0  0  0  0  0  0  0  0  0
    7.8770   -1.6034   23.9705 C   0  0  0  0  0  0  0  0  0  0  0  0
    7.3557   -2.1132   24.9437 O   0  0  0  0  0  0  0  0  0  0  0  0
    8.7269   -0.5675   24.0963 N   0  0  0  0  0  0  0  0  0  0  0  0
    9.3008   -0.1628   25.3815 C   0  0  0  0  0  0  0  0  0  0  0  0
   10.8146   -0.1093   25.2927 C   0  0  0  0  0  0  0  0  0  0  0  0
   11.2286    0.8207   24.2379 N   0  0  0  0  0  0  0  0  0  0  0  0
   12.6883    0.9059   24.1744 C   0  0  0  0  0  0  0  0  0  0  0  0
   13.3312   -0.4482   24.1788 C   0  0  0  0  0  0  0  0  0  0  0  0
   13.6147   -1.2403   23.0870 C   0  0  0  0  0  0  0  0  0  0  0  0
   14.2248   -2.4556   23.4814 C   0  0  0  0  0  0  0  0  0  0  0  0
   14.3891   -2.5648   24.8102 C   0  0  0  0  0  0  0  0  0  0  0  0
   13.8069   -1.1907   25.6372 S   0  0  0  0  0  0  0  0  0  0  0  0
   10.6869    0.3642   22.9605 C   0  0  0  0  0  0  0  0  0  0  0  0
    9.1707    0.3092   23.0082 C   0  0  0  0  0  0  0  0  0  0  0  0
    6.6345   -1.1982   21.8106 C   0  0  0  0  0  0  0  0  0  0  0  0
    6.3967   -1.4031   20.4583 C   0  0  0  0  0  0  0  0  0  0  0  0
    5.5444   -0.5724   19.7505 C   0  0  0  0  0  0  0  0  0  0  0  0
    4.9160    0.4765   20.3855 C   0  0  0  0  0  0  0  0  0  0  0  0
    5.1404    0.6936   21.7277 C   0  0  0  0  0  0  0  0  0  0  0  0
    5.9928   -0.1367   22.4365 C   0  0  0  0  0  0  0  0  0  0  0  0
  1  2  1  0
  2  3  1  0
  3  4  1  0
  3  5  1  0
  5  6  1  0
  6  7  1  0
  7  8  1  0
  8  9  1  0
  9 10  1  0
 10 11  2  0
 10 12  1  0
 12 13  1  0
 13 14  1  0
 14 15  1  0
 15 16  1  0
 16 17  1  0
 17 18  2  0
 18 19  1  0
 19 20  2  0
 20 21  1  0
 15 22  1  0
 22 23  1  0
  9 24  1  0
 24 25  2  0
 25 26  1  0
 26 27  2  0
 27 28  1  0
 28 29  2  0
  8  2  1  0
 23 12  1  0
 29 24  1  0
 21 17  1  0
M  END
