CVD-0002936|dock_bobby27042020.18|mol2|14|dock1
     RDKit          3D

 17 18  0  0  0  0  0  0  0  0999 V2000
   13.7525   -0.9949   23.7549 N   0  0  0  0  0  0  0  0  0  0  0  0
   12.4354   -0.8864   23.3743 C   0  0  0  0  0  0  0  0  0  0  0  0
   11.9423   -1.6009   22.2805 C   0  0  0  0  0  0  0  0  0  0  0  0
   10.6161   -1.4878   21.9034 C   0  0  0  0  0  0  0  0  0  0  0  0
    9.7393   -0.6645   22.5961 C   0  0  0  0  0  0  0  0  0  0  0  0
   10.2281    0.0474   23.6831 C   0  0  0  0  0  0  0  0  0  0  0  0
   11.5522   -0.0583   24.0704 C   0  0  0  0  0  0  0  0  0  0  0  0
    8.2942   -0.5535   22.1772 C   0  0  0  0  0  0  0  0  0  0  0  0
    8.0722    0.5552   21.1747 C   0  0  0  0  0  0  0  0  0  0  0  0
    6.6193    0.5537   20.7522 C   0  0  0  0  0  0  0  0  0  0  0  0
    6.2530   -0.7877   20.2536 N   0  0  0  0  0  0  0  0  0  0  0  0
    6.5196   -1.8467   21.2228 C   0  0  0  0  0  0  0  0  0  0  0  0
    7.8713   -1.8119   21.6236 O   0  0  0  0  0  0  0  0  0  0  0  0
    5.7096   -1.0629   19.0473 C   0  0  0  0  0  0  0  0  0  0  0  0
    5.4403   -2.2122   18.7216 O   0  0  0  0  0  0  0  0  0  0  0  0
    5.4467    0.0931   18.1014 C   0  0  0  0  0  0  0  0  0  0  0  0
    4.2302    1.1852   18.7755 Cl  0  0  0  0  0  0  0  0  0  0  0  0
  1  2  1  0
  2  3  2  0
  3  4  1  0
  4  5  2  0
  5  6  1  0
  6  7  2  0
  5  8  1  0
  8  9  1  0
  9 10  1  0
 10 11  1  0
 11 12  1  0
 12 13  1  0
 11 14  1  0
 14 15  2  0
 14 16  1  0
 16 17  1  0
  7  2  1  0
 13  8  1  0
M  END
