CVD-0003504|dock_bobby27042020.1|mol2|45|dock2
     RDKit          3D

 25 28  0  0  0  0  0  0  0  0999 V2000
   10.5167    5.6962   24.4807 C   0  0  0  0  0  0  0  0  0  0  0  0
   11.5889    5.4725   23.4465 C   0  0  0  0  0  0  0  0  0  0  0  0
   12.7949    6.1618   23.5352 C   0  0  0  0  0  0  0  0  0  0  0  0
   13.7573    5.9793   22.5641 C   0  0  0  0  0  0  0  0  0  0  0  0
   13.6016    5.1700   21.5174 N   0  0  0  0  0  0  0  0  0  0  0  0
   12.4524    4.4932   21.4319 C   0  0  0  0  0  0  0  0  0  0  0  0
   11.4341    4.6010   22.3692 C   0  0  0  0  0  0  0  0  0  0  0  0
   10.2274    3.8149   22.2197 N   0  0  0  0  0  0  0  0  0  0  0  0
   10.2988    2.3975   22.2054 C   0  0  0  0  0  0  0  0  0  0  0  0
   11.5031    1.7033   22.2892 C   0  0  0  0  0  0  0  0  0  0  0  0
   11.5082    0.3160   22.2918 C   0  0  0  0  0  0  0  0  0  0  0  0
   10.3320   -0.4313   22.2046 C   0  0  0  0  0  0  0  0  0  0  0  0
    9.1328    0.2680   22.1021 C   0  0  0  0  0  0  0  0  0  0  0  0
    9.0967    1.6702   22.0907 C   0  0  0  0  0  0  0  0  0  0  0  0
    7.8636    2.3992   21.9593 C   0  0  0  0  0  0  0  0  0  0  0  0
    7.8437    3.7391   21.9556 C   0  0  0  0  0  0  0  0  0  0  0  0
    9.0330    4.5261   22.0897 C   0  0  0  0  0  0  0  0  0  0  0  0
    9.0243    5.7562   22.1024 O   0  0  0  0  0  0  0  0  0  0  0  0
   10.3376   -1.9483   22.2152 C   0  0  0  0  0  0  0  0  0  0  0  0
   10.5825   -2.4268   23.6027 C   0  0  0  0  0  0  0  0  0  0  0  0
    9.2779   -2.6918   22.9630 C   0  0  0  0  0  0  0  0  0  0  0  0
   13.0745   -0.5054   22.4062 S   0  0  0  0  0  0  0  0  0  0  0  0
   13.3631   -1.2423   21.0146 N   0  0  0  0  0  0  0  0  0  0  0  0
   12.9498   -1.5218   23.4074 O   0  0  0  0  0  0  0  0  0  0  0  0
   14.0752    0.5066   22.5665 O   0  0  0  0  0  0  0  0  0  0  0  0
  1  2  1  0
  2  3  2  0
  3  4  1  0
  4  5  2  0
  5  6  1  0
  6  7  2  0
  7  8  1  0
  8  9  1  0
  9 10  2  0
 10 11  1  0
 11 12  2  0
 12 13  1  0
 13 14  2  0
 14 15  1  0
 15 16  2  0
 16 17  1  0
 17 18  2  0
 12 19  1  0
 19 20  1  0
 20 21  1  0
 11 22  1  0
 22 23  1  0
 22 24  2  0
 22 25  2  0
  7  2  1  0
 17  8  1  0
 21 19  1  0
 14  9  1  0
M  END
