CVD-0000147|dock_bobby27042020.85|mol2|22|dock2
     RDKit          3D

 21 23  0  0  0  0  0  0  0  0999 V2000
    8.5483   -0.1245   22.9722 O   0  0  0  0  0  0  0  0  0  0  0  0
    9.1029   -0.6009   21.9877 C   0  0  0  0  0  0  0  0  0  0  0  0
   10.4536   -1.2708   22.1274 C   0  0  0  0  0  0  0  0  0  0  0  0
   11.3706   -0.6221   23.1206 C   0  0  0  0  0  0  0  0  0  0  0  0
   11.4553    0.7061   23.4197 C   0  0  0  0  0  0  0  0  0  0  0  0
   12.4091    0.9239   24.3781 N   0  0  0  0  0  0  0  0  0  0  0  0
   12.9640   -0.2746   24.7191 C   0  0  0  0  0  0  0  0  0  0  0  0
   13.9344   -0.4963   25.6218 N   0  0  0  0  0  0  0  0  0  0  0  0
   14.3151   -1.7710   25.7818 C   0  0  0  0  0  0  0  0  0  0  0  0
   13.7721   -2.8285   25.0838 C   0  0  0  0  0  0  0  0  0  0  0  0
   12.7720   -2.5821   24.1563 C   0  0  0  0  0  0  0  0  0  0  0  0
   12.3401   -1.2731   23.9524 C   0  0  0  0  0  0  0  0  0  0  0  0
    8.6200   -0.6118   20.7203 N   0  0  0  0  0  0  0  0  0  0  0  0
    7.3995   -0.1035   20.1906 C   0  0  0  0  0  0  0  0  0  0  0  0
    6.2916    0.2038   20.9866 C   0  0  0  0  0  0  0  0  0  0  0  0
    5.1276    0.6954   20.4172 C   0  0  0  0  0  0  0  0  0  0  0  0
    5.0314    0.8943   19.0592 C   0  0  0  0  0  0  0  0  0  0  0  0
    6.1092    0.6007   18.2472 C   0  0  0  0  0  0  0  0  0  0  0  0
    7.2916    0.1042   18.7967 C   0  0  0  0  0  0  0  0  0  0  0  0
    8.3745   -0.1804   17.8899 C   0  0  0  0  0  0  0  0  0  0  0  0
    9.2332   -0.4386   17.1822 N   0  0  0  0  0  0  0  0  0  0  0  0
  1  2  2  0
  2  3  1  0
  3  4  1  0
  4  5  2  0
  5  6  1  0
  6  7  1  0
  7  8  2  0
  8  9  1  0
  9 10  2  0
 10 11  1  0
 11 12  2  0
  2 13  1  0
 13 14  1  0
 14 15  2  0
 15 16  1  0
 16 17  2  0
 17 18  1  0
 18 19  2  0
 19 20  1  0
 20 21  3  0
 12  4  1  0
 19 14  1  0
 12  7  1  0
M  END
