CVD-0003800|dock_bobby27042020.29|mol2|38|dock3
     RDKit          3D

 22 24  0  0  0  0  0  0  0  0999 V2000
   12.9677    5.6334   23.3712 N   0  0  0  0  0  0  0  0  0  0  0  0
   13.4912    4.5047   22.3638 S   0  0  0  0  0  0  0  0  0  0  0  0
   14.8552    4.2323   22.7047 O   0  0  0  0  0  0  0  0  0  0  0  0
   13.1850    4.9468   21.0364 O   0  0  0  0  0  0  0  0  0  0  0  0
   12.5694    3.0249   22.6528 C   0  0  0  0  0  0  0  0  0  0  0  0
   11.1878    3.0723   22.7035 C   0  0  0  0  0  0  0  0  0  0  0  0
   10.4706    1.9095   22.9228 C   0  0  0  0  0  0  0  0  0  0  0  0
   11.1147    0.6884   23.0975 C   0  0  0  0  0  0  0  0  0  0  0  0
   12.5051    0.6657   23.0428 C   0  0  0  0  0  0  0  0  0  0  0  0
   13.2317    1.8217   22.8193 C   0  0  0  0  0  0  0  0  0  0  0  0
   10.3901   -0.4749   23.3200 N   0  0  0  0  0  0  0  0  0  0  0  0
   10.5563   -1.6834   22.5069 C   0  0  0  0  0  0  0  0  0  0  0  0
    9.2370   -2.2821   22.1089 C   0  0  0  0  0  0  0  0  0  0  0  0
    8.3756   -2.5832   23.3404 C   0  0  0  0  0  0  0  0  0  0  0  0
    8.2253   -1.3178   24.1467 C   0  0  0  0  0  0  0  0  0  0  0  0
    9.5530   -0.6950   24.5222 C   0  0  0  0  0  0  0  0  0  0  0  0
    7.0879   -3.1696   22.9684 N   0  0  0  0  0  0  0  0  0  0  0  0
    6.8721   -4.4652   22.7436 C   0  0  0  0  0  0  0  0  0  0  0  0
    5.6719   -4.9860   22.4004 C   0  0  0  0  0  0  0  0  0  0  0  0
    5.7754   -6.3892   22.2334 C   0  0  0  0  0  0  0  0  0  0  0  0
    7.0074   -6.8806   22.4465 C   0  0  0  0  0  0  0  0  0  0  0  0
    8.1229   -5.6605   22.8654 S   0  0  0  0  0  0  0  0  0  0  0  0
  1  2  1  0
  2  3  2  0
  2  4  2  0
  2  5  1  0
  5  6  2  0
  6  7  1  0
  7  8  2  0
  8  9  1  0
  9 10  2  0
  8 11  1  0
 11 12  1  0
 12 13  1  0
 13 14  1  0
 14 15  1  0
 15 16  1  0
 14 17  1  0
 17 18  1  0
 18 19  2  0
 19 20  1  0
 20 21  2  0
 21 22  1  0
 10  5  1  0
 16 11  1  0
 22 18  1  0
M  END
