CVD-0002259|dock_bobby27042020.78|mol2|8|dock2
     RDKit          3D

 25 25  0  0  0  0  0  0  0  0999 V2000
   12.4657    6.3861   24.8041 C   0  0  0  0  0  0  0  0  0  0  0  0
   13.0728    5.6334   23.6567 C   0  0  0  0  0  0  0  0  0  0  0  0
   13.8287    6.1722   22.8542 O   0  0  0  0  0  0  0  0  0  0  0  0
   12.7298    4.3482   23.5501 N   0  0  0  0  0  0  0  0  0  0  0  0
   13.2216    3.4906   22.4814 C   0  0  0  0  0  0  0  0  0  0  0  0
   12.5129    2.1509   22.4519 C   0  0  0  0  0  0  0  0  0  0  0  0
   12.8604    1.2771   23.6487 C   0  0  0  0  0  0  0  0  0  0  0  0
   12.1752   -0.0673   23.6190 C   0  0  0  0  0  0  0  0  0  0  0  0
   11.2851   -0.3510   24.4146 O   0  0  0  0  0  0  0  0  0  0  0  0
   12.5970   -0.9129   22.6829 N   0  0  0  0  0  0  0  0  0  0  0  0
   12.0227   -2.2339   22.5471 C   0  0  0  0  0  0  0  0  0  0  0  0
   10.5153   -2.2474   22.7115 C   0  0  0  0  0  0  0  0  0  0  0  0
   10.0049   -2.4094   23.8156 O   0  0  0  0  0  0  0  0  0  0  0  0
    9.8033   -2.0836   21.5999 N   0  0  0  0  0  0  0  0  0  0  0  0
    8.3744   -2.1051   21.6088 C   0  0  0  0  0  0  0  0  0  0  0  0
    7.7600   -1.0192   20.7606 N   0  0  0  0  0  0  0  0  0  0  0  0
    8.2274    0.3401   21.1571 C   0  0  0  0  0  0  0  0  0  0  0  0
    7.5037    1.3990   20.3474 C   0  0  0  0  0  0  0  0  0  0  0  0
    6.0519    1.2551   20.4534 N   0  0  0  0  0  0  0  0  0  0  0  0
    5.5940   -0.0716   20.0264 C   0  0  0  0  0  0  0  0  0  0  0  0
    6.2658   -1.1192   20.8764 C   0  0  0  0  0  0  0  0  0  0  0  0
    5.2830    2.2304   20.9935 C   0  0  0  0  0  0  0  0  0  0  0  0
    5.7732    3.2692   21.4183 O   0  0  0  0  0  0  0  0  0  0  0  0
    3.7825    2.0181   21.0590 C   0  0  0  0  0  0  0  0  0  0  0  0
    3.0820    1.8972   19.4397 Cl  0  0  0  0  0  0  0  0  0  0  0  0
  1  2  1  0
  2  3  2  0
  2  4  1  0
  4  5  1  0
  5  6  1  0
  6  7  1  0
  7  8  1  0
  8  9  2  0
  8 10  1  0
 10 11  1  0
 11 12  1  0
 12 13  2  0
 12 14  1  0
 14 15  1  0
 15 16  1  0
 16 17  1  0
 17 18  1  0
 18 19  1  0
 19 20  1  0
 20 21  1  0
 19 22  1  0
 22 23  2  0
 22 24  1  0
 24 25  1  0
 21 16  1  0
M  CHG  1  16   1
M  END
