CVD-0003725|dock_bobby27042020.30|mol2|6|dock3
     RDKit          3D

 25 27  0  0  0  0  0  0  0  0999 V2000
    7.4213   -5.2864   22.8877 Cl  0  0  0  0  0  0  0  0  0  0  0  0
    7.9486   -3.8590   23.7344 C   0  0  0  0  0  0  0  0  0  0  0  0
    7.1834   -3.3676   24.7668 C   0  0  0  0  0  0  0  0  0  0  0  0
    7.6165   -2.2294   25.4223 C   0  0  0  0  0  0  0  0  0  0  0  0
    8.7936   -1.6057   25.0431 C   0  0  0  0  0  0  0  0  0  0  0  0
    9.5798   -2.1064   24.0065 C   0  0  0  0  0  0  0  0  0  0  0  0
    9.1254   -3.2478   23.3533 C   0  0  0  0  0  0  0  0  0  0  0  0
   10.9064   -1.4861   23.5416 C   0  0  0  0  0  0  0  0  0  0  0  0
   10.5107   -1.0298   22.1103 C   0  0  0  0  0  0  0  0  0  0  0  0
    9.2248   -0.2472   21.9237 C   0  0  0  0  0  0  0  0  0  0  0  0
    8.6732    0.3518   22.8405 O   0  0  0  0  0  0  0  0  0  0  0  0
    8.7611   -0.2866   20.6517 N   0  0  0  0  0  0  0  0  0  0  0  0
    7.6213    0.2926   20.0685 C   0  0  0  0  0  0  0  0  0  0  0  0
    7.2404    0.1614   18.7316 C   0  0  0  0  0  0  0  0  0  0  0  0
    6.0863    0.7953   18.3074 C   0  0  0  0  0  0  0  0  0  0  0  0
    5.3354    1.5421   19.2073 C   0  0  0  0  0  0  0  0  0  0  0  0
    5.7944    1.6148   20.5182 C   0  0  0  0  0  0  0  0  0  0  0  0
    6.9076    1.0081   20.9443 N   0  0  0  0  0  0  0  0  0  0  0  0
    4.1275    2.2154   18.7979 C   0  0  0  0  0  0  0  0  0  0  0  0
    3.1695    2.7633   18.5035 N   0  0  0  0  0  0  0  0  0  0  0  0
   12.0706   -2.4709   23.4407 C   0  0  0  0  0  0  0  0  0  0  0  0
   13.3274   -1.7876   22.9315 C   0  0  0  0  0  0  0  0  0  0  0  0
   13.6984   -0.5932   23.7861 C   0  0  0  0  0  0  0  0  0  0  0  0
   12.5458    0.3930   23.8791 C   0  0  0  0  0  0  0  0  0  0  0  0
   11.2829   -0.2794   24.3949 C   0  0  0  0  0  0  0  0  0  0  0  0
  1  2  1  0
  2  3  2  0
  3  4  1  0
  4  5  2  0
  5  6  1  0
  6  7  2  0
  6  8  1  0
  8  9  1  0
  9 10  1  0
 10 11  2  0
 10 12  1  0
 12 13  1  0
 13 14  2  0
 14 15  1  0
 15 16  2  0
 16 17  1  0
 17 18  2  0
 16 19  1  0
 19 20  3  0
  8 21  1  0
 21 22  1  0
 22 23  1  0
 23 24  1  0
 24 25  1  0
  7  2  1  0
 25  8  1  0
 18 13  1  0
M  END
