CVD-0002159|dock_bobby27042020.7|mol2|11|dock2
     RDKit          3D

  7  7  0  0  0  0  0  0  0  0999 V2000
   14.1543    6.3441   21.8517 Br  0  0  0  0  0  0  0  0  0  0  0  0
   13.0714    4.8284   22.2225 C   0  0  0  0  0  0  0  0  0  0  0  0
   13.6576    3.5990   22.4284 C   0  0  0  0  0  0  0  0  0  0  0  0
   12.8312    2.5212   22.6957 C   0  0  0  0  0  0  0  0  0  0  0  0
   11.4706    2.7255   22.7433 C   0  0  0  0  0  0  0  0  0  0  0  0
   10.8979    3.9138   22.5448 N   0  0  0  0  0  0  0  0  0  0  0  0
   11.6994    4.9514   22.2871 C   0  0  0  0  0  0  0  0  0  0  0  0
  1  2  1  0
  2  3  2  0
  3  4  1  0
  4  5  2  0
  5  6  1  0
  6  7  2  0
  7  2  1  0
M  END
