CVD-0003981|dock_bobby27042020.0|mol2|16|dock1
     RDKit          3D

 32 33  0  0  0  0  0  0  0  0999 V2000
    2.5981   -7.0519   27.4201 O   0  0  0  0  0  0  0  0  0  0  0  0
    3.9317   -7.3745   27.3179 C   0  0  0  0  0  0  0  0  0  0  0  0
    4.7490   -6.8486   26.3033 O   0  0  0  0  0  0  0  0  0  0  0  0
    4.3999   -6.9237   25.0238 C   0  0  0  0  0  0  0  0  0  0  0  0
    3.2751   -7.6158   24.8027 O   0  0  0  0  0  0  0  0  0  0  0  0
    3.0791   -7.5768   23.4498 C   0  0  0  0  0  0  0  0  0  0  0  0
    4.0512   -6.8879   22.8467 C   0  0  0  0  0  0  0  0  0  0  0  0
    4.9458   -6.4470   23.8653 C   0  0  0  0  0  0  0  0  0  0  0  0
    6.1818   -5.6389   23.5564 C   0  0  0  0  0  0  0  0  0  0  0  0
    6.7998   -6.0085   22.2200 C   0  0  0  0  0  0  0  0  0  0  0  0
    6.2058   -5.2633   21.0576 C   0  0  0  0  0  0  0  0  0  0  0  0
    5.6261   -5.8003   20.1314 O   0  0  0  0  0  0  0  0  0  0  0  0
    6.4129   -3.9127   21.1966 O   0  0  0  0  0  0  0  0  0  0  0  0
    5.9738   -2.9854   20.2745 C   0  0  0  0  0  0  0  0  0  0  0  0
    5.3674   -3.2527   19.2570 O   0  0  0  0  0  0  0  0  0  0  0  0
    6.3510   -1.7384   20.7284 N   0  0  0  0  0  0  0  0  0  0  0  0
    6.1288   -0.5117   20.1365 C   0  0  0  0  0  0  0  0  0  0  0  0
    5.5396   -0.3829   19.0838 O   0  0  0  0  0  0  0  0  0  0  0  0
    6.6498    0.5298   20.8762 O   0  0  0  0  0  0  0  0  0  0  0  0
    6.5542    1.8472   20.4911 C   0  0  0  0  0  0  0  0  0  0  0  0
    6.0166    2.2479   19.4835 O   0  0  0  0  0  0  0  0  0  0  0  0
    7.2237    2.7782   21.5089 C   0  0  0  0  0  0  0  0  0  0  0  0
    7.1604    3.9956   21.3888 O   0  0  0  0  0  0  0  0  0  0  0  0
    7.9525    2.1128   22.6489 C   0  0  0  0  0  0  0  0  0  0  0  0
    9.3102    1.5482   22.2517 C   0  0  0  0  0  0  0  0  0  0  0  0
    9.9886    0.7819   23.3798 C   0  0  0  0  0  0  0  0  0  0  0  0
   11.3226    0.2139   23.0257 C   0  0  0  0  0  0  0  0  0  0  0  0
   12.4953    0.6335   23.5392 C   0  0  0  0  0  0  0  0  0  0  0  0
   13.8327    0.0249   23.1466 C   0  0  0  0  0  0  0  0  0  0  0  0
   13.5648   -1.1254   22.2119 C   0  0  0  0  0  0  0  0  0  0  0  0
   12.3690   -1.4489   21.7562 C   0  0  0  0  0  0  0  0  0  0  0  0
   11.2020   -0.7786   22.1250 O   0  0  0  0  0  0  0  0  0  0  0  0
  1  2  1  0
  2  3  1  0
  3  4  1  0
  4  5  1  0
  5  6  1  0
  6  7  2  0
  7  8  1  0
  8  9  1  0
  9 10  1  0
 10 11  1  0
 11 12  2  0
 11 13  1  0
 13 14  1  0
 14 15  2  0
 14 16  1  0
 16 17  1  0
 17 18  2  0
 17 19  1  0
 19 20  1  0
 20 21  2  0
 20 22  1  0
 22 23  2  0
 22 24  1  0
 24 25  1  0
 25 26  1  0
 26 27  1  0
 27 28  2  0
 28 29  1  0
 29 30  1  0
 30 31  2  0
 31 32  1  0
  8  4  2  0
 32 27  1  0
M  END
