CVD-0003629|dock_bobby27042020.73|mol2|14|dock1
     RDKit          3D

 19 20  0  0  0  0  0  0  0  0999 V2000
    4.7616    1.0763   21.0853 C   0  0  0  0  0  0  0  0  0  0  0  0
    5.5646    1.0801   19.8028 C   0  0  0  0  0  0  0  0  0  0  0  0
    4.9958    1.6151   18.6356 C   0  0  0  0  0  0  0  0  0  0  0  0
    3.7458    2.1939   18.6249 N   0  0  0  0  0  0  0  0  0  0  0  0
    5.7240    1.5558   17.4534 C   0  0  0  0  0  0  0  0  0  0  0  0
    6.9435    1.0301   17.3629 N   0  0  0  0  0  0  0  0  0  0  0  0
    7.5021    0.5618   18.4810 C   0  0  0  0  0  0  0  0  0  0  0  0
    6.8702    0.5560   19.7243 C   0  0  0  0  0  0  0  0  0  0  0  0
    7.4808    0.0523   20.9074 N   0  0  0  0  0  0  0  0  0  0  0  0
    8.7569    0.1633   21.3526 C   0  0  0  0  0  0  0  0  0  0  0  0
    9.6716    0.7503   20.7845 O   0  0  0  0  0  0  0  0  0  0  0  0
    8.9938   -0.5417   22.6734 C   0  0  0  0  0  0  0  0  0  0  0  0
   10.4613   -0.6194   23.0292 C   0  0  0  0  0  0  0  0  0  0  0  0
   10.9147   -0.1906   24.2668 C   0  0  0  0  0  0  0  0  0  0  0  0
   12.2594   -0.2593   24.5908 C   0  0  0  0  0  0  0  0  0  0  0  0
   13.1726   -0.7587   23.6775 C   0  0  0  0  0  0  0  0  0  0  0  0
   12.7168   -1.1821   22.4484 C   0  0  0  0  0  0  0  0  0  0  0  0
   13.8526   -1.8122   21.2885 Cl  0  0  0  0  0  0  0  0  0  0  0  0
   11.3795   -1.1187   22.1145 C   0  0  0  0  0  0  0  0  0  0  0  0
  1  2  1  0
  2  3  2  0
  3  4  1  0
  3  5  1  0
  5  6  2  0
  6  7  1  0
  7  8  2  0
  8  9  1  0
  9 10  1  0
 10 11  2  0
 10 12  1  0
 12 13  1  0
 13 14  2  0
 14 15  1  0
 15 16  2  0
 16 17  1  0
 17 18  1  0
 17 19  2  0
  8  2  1  0
 19 13  1  0
M  END
