CVD-0000306|dock_bobby27042020.42|mol2|8|dock3
     RDKit          3D

 21 22  0  0  0  0  0  0  0  0999 V2000
    5.8264   -5.9570   20.9620 C   0  0  0  0  0  0  0  0  0  0  0  0
    6.3609   -4.5680   21.1678 C   0  0  0  0  0  0  0  0  0  0  0  0
    5.9015   -3.6293   20.4982 O   0  0  0  0  0  0  0  0  0  0  0  0
    7.4204   -4.3222   22.1548 C   0  0  0  0  0  0  0  0  0  0  0  0
    8.1706   -3.2376   22.1940 C   0  0  0  0  0  0  0  0  0  0  0  0
    9.2497   -2.9810   23.1949 C   0  0  0  0  0  0  0  0  0  0  0  0
   10.1527   -1.9003   22.7691 N   0  0  0  0  0  0  0  0  0  0  0  0
   11.3966   -1.9381   23.5316 C   0  0  0  0  0  0  0  0  0  0  0  0
   12.3709   -0.8863   23.0299 C   0  0  0  0  0  0  0  0  0  0  0  0
   11.7410    0.4975   23.1689 C   0  0  0  0  0  0  0  0  0  0  0  0
   10.4070    0.5297   22.4377 C   0  0  0  0  0  0  0  0  0  0  0  0
    9.5214   -0.5901   22.9616 C   0  0  0  0  0  0  0  0  0  0  0  0
   12.6756    1.6084   22.7401 C   0  0  0  0  0  0  0  0  0  0  0  0
   13.7001    1.3575   22.1124 O   0  0  0  0  0  0  0  0  0  0  0  0
   12.2577    2.8420   23.1175 N   0  0  0  0  0  0  0  0  0  0  0  0
   12.8294    4.1237   22.9196 C   0  0  0  0  0  0  0  0  0  0  0  0
   12.6223    5.1956   23.7851 C   0  0  0  0  0  0  0  0  0  0  0  0
   13.2141    6.4215   23.5282 C   0  0  0  0  0  0  0  0  0  0  0  0
   14.0116    6.5955   22.4185 C   0  0  0  0  0  0  0  0  0  0  0  0
   14.2222    5.5417   21.5572 C   0  0  0  0  0  0  0  0  0  0  0  0
   13.6363    4.3116   21.8031 C   0  0  0  0  0  0  0  0  0  0  0  0
  1  2  1  0
  2  3  2  0
  2  4  1  0
  4  5  2  0
  5  6  1  0
  6  7  1  0
  7  8  1  0
  8  9  1  0
  9 10  1  0
 10 11  1  0
 11 12  1  0
 10 13  1  0
 13 14  2  0
 13 15  1  0
 15 16  1  0
 16 17  2  0
 17 18  1  0
 18 19  2  0
 19 20  1  0
 20 21  2  0
 12  7  1  0
 21 16  1  0
M  END
