CVD-0001986|dock_bobby27042020.65|mol2|17|dock2
     RDKit          3D

 19 21  0  0  0  0  0  0  0  0999 V2000
   14.1381   -2.6972   23.3201 C   0  0  0  0  0  0  0  0  0  0  0  0
   13.1923   -2.2898   22.1931 C   0  0  0  0  0  0  0  0  0  0  0  0
   13.9222   -2.3165   20.8639 C   0  0  0  0  0  0  0  0  0  0  0  0
   14.3952   -3.4979   20.5568 O   0  0  0  0  0  0  0  0  0  0  0  0
   14.0531   -1.3380   20.1620 O   0  0  0  0  0  0  0  0  0  0  0  0
   12.6281   -0.8908   22.4023 C   0  0  0  0  0  0  0  0  0  0  0  0
   11.2548   -0.6951   22.4952 C   0  0  0  0  0  0  0  0  0  0  0  0
   10.7110    0.5638   22.6824 C   0  0  0  0  0  0  0  0  0  0  0  0
   11.5613    1.6623   22.7794 C   0  0  0  0  0  0  0  0  0  0  0  0
   12.9510    1.4626   22.6842 C   0  0  0  0  0  0  0  0  0  0  0  0
   13.4896    0.1946   22.4960 C   0  0  0  0  0  0  0  0  0  0  0  0
   13.5878    2.6835   22.8072 N   0  0  0  0  0  0  0  0  0  0  0  0
   12.6357    3.6713   22.9808 C   0  0  0  0  0  0  0  0  0  0  0  0
   12.7938    5.0428   23.1472 C   0  0  0  0  0  0  0  0  0  0  0  0
   11.6701    5.8363   23.3047 C   0  0  0  0  0  0  0  0  0  0  0  0
   10.4162    5.2603   23.2946 C   0  0  0  0  0  0  0  0  0  0  0  0
    9.0177    6.2786   23.4947 Cl  0  0  0  0  0  0  0  0  0  0  0  0
   10.2334    3.9013   23.1311 C   0  0  0  0  0  0  0  0  0  0  0  0
   11.3537    3.0883   22.9712 C   0  0  0  0  0  0  0  0  0  0  0  0
  2  1  1  0
  2  3  1  0
  3  4  1  0
  3  5  2  0
  2  6  1  0
  6  7  2  0
  7  8  1  0
  8  9  2  0
  9 10  1  0
 10 11  2  0
 10 12  1  0
 12 13  1  0
 13 14  2  0
 14 15  1  0
 15 16  2  0
 16 17  1  0
 16 18  1  0
 18 19  2  0
 11  6  1  0
 19 13  1  0
 19  9  1  0
M  END
