CVD-0000976|dock_bobby27042020.82|mol2|31|dock3
     RDKit          3D

 33 37  0  0  0  0  0  0  0  0999 V2000
   14.3135    6.4034   21.6672 C   0  0  0  0  0  0  0  0  0  0  0  0
   13.0732    6.1473   22.3231 O   0  0  0  0  0  0  0  0  0  0  0  0
   12.6515    4.8568   22.5262 C   0  0  0  0  0  0  0  0  0  0  0  0
   11.2910    4.6207   22.6274 C   0  0  0  0  0  0  0  0  0  0  0  0
   10.8223    3.3356   22.8321 C   0  0  0  0  0  0  0  0  0  0  0  0
   11.7038    2.2672   22.9390 C   0  0  0  0  0  0  0  0  0  0  0  0
   13.0669    2.5164   22.8359 C   0  0  0  0  0  0  0  0  0  0  0  0
   13.5439    3.7992   22.6310 C   0  0  0  0  0  0  0  0  0  0  0  0
   11.2045    0.9005   23.1567 C   0  0  0  0  0  0  0  0  0  0  0  0
   11.9153   -0.1678   23.3718 N   0  0  0  0  0  0  0  0  0  0  0  0
   10.9708   -1.1797   23.5097 C   0  0  0  0  0  0  0  0  0  0  0  0
   11.0933   -2.5452   23.7526 C   0  0  0  0  0  0  0  0  0  0  0  0
    9.9465   -3.3190   23.8408 C   0  0  0  0  0  0  0  0  0  0  0  0
    8.6764   -2.7627   23.6922 C   0  0  0  0  0  0  0  0  0  0  0  0
    7.5600   -3.6295   23.7978 N   0  0  0  0  0  0  0  0  0  0  0  0
    6.2935   -3.4071   24.2286 C   0  0  0  0  0  0  0  0  0  0  0  0
    5.8504   -2.3368   24.6352 O   0  0  0  0  0  0  0  0  0  0  0  0
    5.4121   -4.6363   24.1717 C   0  0  0  0  0  0  0  0  0  0  0  0
    4.1014   -4.4551   24.9333 C   0  0  0  0  0  0  0  0  0  0  0  0
    3.3017   -5.7452   24.8779 C   0  0  0  0  0  0  0  0  0  0  0  0
    3.0053   -6.1143   23.4973 N   0  0  0  0  0  0  0  0  0  0  0  0
    2.1520   -7.3107   23.4518 C   0  0  0  0  0  0  0  0  0  0  0  0
    1.5806   -7.5898   22.0823 C   0  0  0  0  0  0  0  0  0  0  0  0
    2.0951   -8.6075   21.2942 C   0  0  0  0  0  0  0  0  0  0  0  0
    1.5690   -8.8656   20.0394 C   0  0  0  0  0  0  0  0  0  0  0  0
    0.5218   -8.1091   19.5589 C   0  0  0  0  0  0  0  0  0  0  0  0
    0.0003   -7.0950   20.3332 C   0  0  0  0  0  0  0  0  0  0  0  0
    0.5265   -6.8372   21.5879 C   0  0  0  0  0  0  0  0  0  0  0  0
    4.2690   -6.3507   22.7906 C   0  0  0  0  0  0  0  0  0  0  0  0
    5.1202   -5.0911   22.7492 C   0  0  0  0  0  0  0  0  0  0  0  0
    8.5562   -1.3942   23.4489 C   0  0  0  0  0  0  0  0  0  0  0  0
    9.7142   -0.6456   23.3655 C   0  0  0  0  0  0  0  0  0  0  0  0
    9.8440    0.7090   23.1348 O   0  0  0  0  0  0  0  0  0  0  0  0
  1  2  1  0
  2  3  1  0
  3  4  2  0
  4  5  1  0
  5  6  2  0
  6  7  1  0
  7  8  2  0
  6  9  1  0
  9 10  2  0
 10 11  1  0
 11 12  2  0
 12 13  1  0
 13 14  2  0
 14 15  1  0
 15 16  1  0
 16 17  2  0
 16 18  1  0
 18 19  1  0
 19 20  1  0
 20 21  1  0
 21 22  1  0
 22 23  1  0
 23 24  2  0
 24 25  1  0
 25 26  2  0
 26 27  1  0
 27 28  2  0
 21 29  1  0
 29 30  1  0
 14 31  1  0
 31 32  2  0
 32 33  1  0
  8  3  1  0
 33  9  1  0
 32 11  1  0
 30 18  1  0
 28 23  1  0
M  END
