CVD-0000866|dock_bobby27042020.83|mol2|8|dock2
     RDKit          3D

 25 26  0  0  0  0  0  0  0  0999 V2000
   13.0595    4.3688   21.3007 C   0  0  0  0  0  0  0  0  0  0  0  0
   13.1795    3.6156   22.6203 C   0  0  0  0  0  0  0  0  0  0  0  0
   12.6168    4.4598   23.6790 N   0  0  0  0  0  0  0  0  0  0  0  0
   12.9604    5.7384   23.8475 C   0  0  0  0  0  0  0  0  0  0  0  0
   13.7734    6.3216   23.1370 O   0  0  0  0  0  0  0  0  0  0  0  0
   12.2551    6.4314   24.9925 C   0  0  0  0  0  0  0  0  0  0  0  0
   10.4985    6.4349   24.7887 Cl  0  0  0  0  0  0  0  0  0  0  0  0
   12.4770    2.2716   22.5640 C   0  0  0  0  0  0  0  0  0  0  0  0
   13.1013    1.1265   23.0347 C   0  0  0  0  0  0  0  0  0  0  0  0
   12.4456   -0.0847   22.9695 C   0  0  0  0  0  0  0  0  0  0  0  0
   13.2448   -1.5141   23.5614 Cl  0  0  0  0  0  0  0  0  0  0  0  0
   11.1733   -0.1940   22.4483 C   0  0  0  0  0  0  0  0  0  0  0  0
   10.5250    0.9445   21.9683 C   0  0  0  0  0  0  0  0  0  0  0  0
   11.1987    2.1656   22.0348 C   0  0  0  0  0  0  0  0  0  0  0  0
    9.1522    0.8529   21.4012 C   0  0  0  0  0  0  0  0  0  0  0  0
    8.7724   -0.2237   20.6054 C   0  0  0  0  0  0  0  0  0  0  0  0
    7.4960   -0.3061   20.0805 C   0  0  0  0  0  0  0  0  0  0  0  0
    6.5712    0.6934   20.3372 C   0  0  0  0  0  0  0  0  0  0  0  0
    6.9063    1.7975   21.1320 C   0  0  0  0  0  0  0  0  0  0  0  0
    5.9476    2.9138   21.4525 C   0  0  0  0  0  0  0  0  0  0  0  0
    8.1990    1.8427   21.6486 C   0  0  0  0  0  0  0  0  0  0  0  0
    4.9585    0.5067   19.6263 S   0  0  0  0  0  0  0  0  0  0  0  0
    4.7299    1.6890   18.5714 N   0  0  0  0  0  0  0  0  0  0  0  0
    4.0053    0.6872   20.6798 O   0  0  0  0  0  0  0  0  0  0  0  0
    4.9565   -0.7234   18.8930 O   0  0  0  0  0  0  0  0  0  0  0  0
  1  2  1  0
  2  3  1  0
  3  4  1  0
  4  5  2  0
  4  6  1  0
  6  7  1  0
  2  8  1  0
  8  9  2  0
  9 10  1  0
 10 11  1  0
 10 12  2  0
 12 13  1  0
 13 14  2  0
 13 15  1  0
 15 16  2  0
 16 17  1  0
 17 18  2  0
 18 19  1  0
 19 20  1  0
 19 21  2  0
 18 22  1  0
 22 23  1  0
 22 24  2  0
 22 25  2  0
 14  8  1  0
 21 15  1  0
M  END
