CVD-0003539|dock_bobby27042020.73|mol2|28|dock3
     RDKit          3D

 25 28  0  0  0  0  0  0  0  0999 V2000
    5.7271   -2.6790   20.9403 O   0  0  0  0  0  0  0  0  0  0  0  0
    6.3652   -1.7305   20.5013 C   0  0  0  0  0  0  0  0  0  0  0  0
    6.0799   -1.2135   19.1019 C   0  0  0  0  0  0  0  0  0  0  0  0
    5.4872    0.1635   19.0796 C   0  0  0  0  0  0  0  0  0  0  0  0
    5.5356    1.0657   18.0577 C   0  0  0  0  0  0  0  0  0  0  0  0
    4.8820    2.2189   18.4020 N   0  0  0  0  0  0  0  0  0  0  0  0
    4.3938    2.0802   19.6681 C   0  0  0  0  0  0  0  0  0  0  0  0
    3.6927    2.9827   20.3749 N   0  0  0  0  0  0  0  0  0  0  0  0
    3.3209    2.6110   21.6075 C   0  0  0  0  0  0  0  0  0  0  0  0
    3.6171    1.3842   22.1622 C   0  0  0  0  0  0  0  0  0  0  0  0
    4.3411    0.4651   21.4193 C   0  0  0  0  0  0  0  0  0  0  0  0
    4.7517    0.8029   20.1314 C   0  0  0  0  0  0  0  0  0  0  0  0
    7.3309   -1.1401   21.2406 N   0  0  0  0  0  0  0  0  0  0  0  0
    8.1627   -0.0175   20.8153 C   0  0  0  0  0  0  0  0  0  0  0  0
    9.6129   -0.2891   21.1585 C   0  0  0  0  0  0  0  0  0  0  0  0
    9.7712   -0.5428   22.6525 C   0  0  0  0  0  0  0  0  0  0  0  0
    8.8498   -1.6841   23.0769 C   0  0  0  0  0  0  0  0  0  0  0  0
    7.4086   -1.3874   22.6762 C   0  0  0  0  0  0  0  0  0  0  0  0
   11.1823   -0.8470   22.9916 N   0  0  0  0  0  0  0  0  0  0  0  0
   11.8522   -2.1194   22.6522 C   0  0  0  0  0  0  0  0  0  0  0  0
   13.1659   -1.6867   21.9946 C   0  0  0  0  0  0  0  0  0  0  0  0
   13.7388   -0.5931   22.8844 C   0  0  0  0  0  0  0  0  0  0  0  0
   12.3016    0.2434   23.5470 S   0  0  0  0  0  0  0  0  0  0  0  0
   12.1171    1.4952   22.8841 O   0  0  0  0  0  0  0  0  0  0  0  0
   12.3428    0.2497   24.9749 O   0  0  0  0  0  0  0  0  0  0  0  0
  1  2  2  0
  2  3  1  0
  3  4  1  0
  4  5  2  0
  5  6  1  0
  6  7  1  0
  7  8  2  0
  8  9  1  0
  9 10  2  0
 10 11  1  0
 11 12  2  0
  2 13  1  0
 13 14  1  0
 14 15  1  0
 15 16  1  0
 16 17  1  0
 17 18  1  0
 16 19  1  0
 19 20  1  0
 20 21  1  0
 21 22  1  0
 22 23  1  0
 23 24  2  0
 23 25  2  0
 12  4  1  0
 18 13  1  0
 23 19  1  0
 12  7  1  0
M  END
