CVD-0003778|dock_bobby27042020.44|mol2|18|dock3
     RDKit          3D

 29 32  0  0  0  0  0  0  0  0999 V2000
   13.6177    5.5790   21.2463 N   0  0  0  0  0  0  0  0  0  0  0  0
   13.4499    5.1917   22.7907 S   0  0  0  0  0  0  0  0  0  0  0  0
   14.7540    4.8786   23.2929 O   0  0  0  0  0  0  0  0  0  0  0  0
   12.7034    6.2440   23.4124 O   0  0  0  0  0  0  0  0  0  0  0  0
   12.4764    3.7206   22.8964 C   0  0  0  0  0  0  0  0  0  0  0  0
   13.0881    2.4820   22.8313 C   0  0  0  0  0  0  0  0  0  0  0  0
   12.3213    1.3343   22.9268 C   0  0  0  0  0  0  0  0  0  0  0  0
   10.9387    1.3955   23.0752 C   0  0  0  0  0  0  0  0  0  0  0  0
   10.3480    2.6548   23.1326 C   0  0  0  0  0  0  0  0  0  0  0  0
   11.1051    3.8101   23.0524 C   0  0  0  0  0  0  0  0  0  0  0  0
   10.1757    0.2356   23.1637 N   0  0  0  0  0  0  0  0  0  0  0  0
   10.0228   -0.7031   22.0480 C   0  0  0  0  0  0  0  0  0  0  0  0
   10.1905   -2.1310   22.4843 C   0  0  0  0  0  0  0  0  0  0  0  0
    9.2125   -2.4801   23.6117 C   0  0  0  0  0  0  0  0  0  0  0  0
    9.3685   -3.9278   24.0636 C   0  0  0  0  0  0  0  0  0  0  0  0
    8.8192   -4.2319   25.3906 N   0  0  0  0  0  0  0  0  0  0  0  0
    9.3435   -5.5000   25.8870 C   0  0  0  0  0  0  0  0  0  0  0  0
    8.8549   -5.7722   27.2993 C   0  0  0  0  0  0  0  0  0  0  0  0
    7.3290   -5.8241   27.3080 C   0  0  0  0  0  0  0  0  0  0  0  0
    6.7685   -4.5350   26.7258 C   0  0  0  0  0  0  0  0  0  0  0  0
    7.3553   -4.3142   25.3403 C   0  0  0  0  0  0  0  0  0  0  0  0
    6.7695   -6.1455   28.6650 C   0  0  0  0  0  0  0  0  0  0  0  0
    5.9259   -5.3594   29.4372 C   0  0  0  0  0  0  0  0  0  0  0  0
    5.5855   -5.9451   30.6539 C   0  0  0  0  0  0  0  0  0  0  0  0
    6.1576   -7.1548   30.8085 C   0  0  0  0  0  0  0  0  0  0  0  0
    5.9843   -8.3008   32.2780 Br  0  0  0  0  0  0  0  0  0  0  0  0
    7.1328   -7.6258   29.4771 S   0  0  0  0  0  0  0  0  0  0  0  0
    9.4029   -1.4969   24.7389 C   0  0  0  0  0  0  0  0  0  0  0  0
    9.2661   -0.0559   24.2960 C   0  0  0  0  0  0  0  0  0  0  0  0
  1  2  1  0
  2  3  2  0
  2  4  2  0
  2  5  1  0
  5  6  2  0
  6  7  1  0
  7  8  2  0
  8  9  1  0
  9 10  2  0
  8 11  1  0
 11 12  1  0
 12 13  1  0
 13 14  1  0
 14 15  1  0
 15 16  1  0
 16 17  1  0
 17 18  1  0
 18 19  1  0
 19 20  1  0
 20 21  1  0
 19 22  1  0
 22 23  2  0
 23 24  1  0
 24 25  2  0
 25 26  1  0
 25 27  1  0
 14 28  1  0
 28 29  1  0
 10  5  1  0
 29 11  1  0
 21 16  1  0
 27 22  1  0
M  END
