CVD-0003666|dock_bobby27042020.15|mol2|47|dock3
     RDKit          3D

 16 17  0  0  0  0  0  0  0  0999 V2000
    9.6193   -1.9099   21.7013 Cl  0  0  0  0  0  0  0  0  0  0  0  0
   10.4223   -2.5186   23.1545 C   0  0  0  0  0  0  0  0  0  0  0  0
   11.8676   -2.0678   23.2373 C   0  0  0  0  0  0  0  0  0  0  0  0
   12.7927   -2.8483   23.0512 O   0  0  0  0  0  0  0  0  0  0  0  0
   12.0803   -0.7689   23.5310 N   0  0  0  0  0  0  0  0  0  0  0  0
   11.0982    0.2768   23.7722 C   0  0  0  0  0  0  0  0  0  0  0  0
   11.3962    1.5383   22.9697 C   0  0  0  0  0  0  0  0  0  0  0  0
   12.7848    1.9718   23.1837 N   0  0  0  0  0  0  0  0  0  0  0  0
   13.7222    0.8834   22.8065 C   0  0  0  0  0  0  0  0  0  0  0  0
   13.4664   -0.3056   23.6943 C   0  0  0  0  0  0  0  0  0  0  0  0
   13.1297    3.2576   22.9227 C   0  0  0  0  0  0  0  0  0  0  0  0
   13.8466    3.4563   21.8121 N   0  0  0  0  0  0  0  0  0  0  0  0
   14.1812    4.7287   21.5636 C   0  0  0  0  0  0  0  0  0  0  0  0
   13.8236    5.7767   22.3793 C   0  0  0  0  0  0  0  0  0  0  0  0
   13.0862    5.4464   23.4923 C   0  0  0  0  0  0  0  0  0  0  0  0
   12.7245    4.1919   23.7889 N   0  0  0  0  0  0  0  0  0  0  0  0
  1  2  1  0
  2  3  1  0
  3  4  2  0
  3  5  1  0
  5  6  1  0
  6  7  1  0
  7  8  1  0
  8  9  1  0
  9 10  1  0
  8 11  1  0
 11 12  2  0
 12 13  1  0
 13 14  2  0
 14 15  1  0
 15 16  2  0
 10  5  1  0
 16 11  1  0
M  END
