CVD-0003671|dock_bobby27042020.30|mol2|14|dock1
     RDKit          3D

 17 17  0  0  0  0  0  0  0  0999 V2000
    5.7980   -1.2912   18.8043 C   0  0  0  0  0  0  0  0  0  0  0  0
    6.4154   -0.1250   19.5633 C   0  0  0  0  0  0  0  0  0  0  0  0
    7.2498    0.7792   18.6672 C   0  0  0  0  0  0  0  0  0  0  0  0
    7.1672   -0.5714   20.7692 N   0  0  0  0  0  0  0  0  0  0  0  0
    6.5008   -0.2485   22.0316 C   0  0  0  0  0  0  0  0  0  0  0  0
    8.3844   -1.2237   20.6178 C   0  0  0  0  0  0  0  0  0  0  0  0
    8.6390   -1.7308   19.5375 O   0  0  0  0  0  0  0  0  0  0  0  0
    9.3173   -1.3272   21.6170 N   0  0  0  0  0  0  0  0  0  0  0  0
    9.3937   -0.4730   22.8008 C   0  0  0  0  0  0  0  0  0  0  0  0
   10.7824    0.1140   22.9353 C   0  0  0  0  0  0  0  0  0  0  0  0
   11.7814   -0.9525   22.9307 N   0  0  0  0  0  0  0  0  0  0  0  0
   11.7051   -1.8067   21.7468 C   0  0  0  0  0  0  0  0  0  0  0  0
   10.3163   -2.3936   21.6123 C   0  0  0  0  0  0  0  0  0  0  0  0
   12.7016   -1.0545   23.9162 C   0  0  0  0  0  0  0  0  0  0  0  0
   12.7270   -0.2486   24.8379 O   0  0  0  0  0  0  0  0  0  0  0  0
   13.7112   -2.1848   23.8543 C   0  0  0  0  0  0  0  0  0  0  0  0
   14.8457   -2.1275   25.2096 Cl  0  0  0  0  0  0  0  0  0  0  0  0
  1  2  1  0
  2  3  1  0
  2  4  1  0
  4  5  1  0
  4  6  1  0
  6  7  2  0
  6  8  1  0
  8  9  1  0
  9 10  1  0
 10 11  1  0
 11 12  1  0
 12 13  1  0
 11 14  1  0
 14 15  2  0
 14 16  1  0
 16 17  1  0
 13  8  1  0
M  END
