CVD-0004012|dock_bobby27042020.58|mol2|2|dock2
     RDKit          3D

 40 44  0  0  0  0  0  0  0  0999 V2000
   11.2009   -1.7450   21.7785 N   0  0  0  0  0  0  0  0  0  0  0  0
   10.3863   -0.5258   21.9497 C   0  0  0  0  0  0  0  0  0  0  0  0
   10.7605    0.2043   23.2495 C   0  0  0  0  0  0  0  0  0  0  0  0
   11.9490    1.1068   23.1128 C   0  0  0  0  0  0  0  0  0  0  0  0
   13.2618    0.7552   23.2242 C   0  0  0  0  0  0  0  0  0  0  0  0
   14.0644    1.8475   23.0380 N   0  0  0  0  0  0  0  0  0  0  0  0
   13.2737    2.9448   22.7986 C   0  0  0  0  0  0  0  0  0  0  0  0
   13.6069    4.2721   22.5511 C   0  0  0  0  0  0  0  0  0  0  0  0
   12.5845    5.1830   22.3405 C   0  0  0  0  0  0  0  0  0  0  0  0
   11.2646    4.7812   22.3754 C   0  0  0  0  0  0  0  0  0  0  0  0
   10.9305    3.4589   22.6218 C   0  0  0  0  0  0  0  0  0  0  0  0
   11.9335    2.5153   22.8383 C   0  0  0  0  0  0  0  0  0  0  0  0
    8.9118   -0.9018   21.9568 C   0  0  0  0  0  0  0  0  0  0  0  0
    8.2129   -0.5679   22.9104 O   0  0  0  0  0  0  0  0  0  0  0  0
    8.5352   -1.5883   20.8490 N   0  0  0  0  0  0  0  0  0  0  0  0
    7.2501   -2.0675   20.5560 N   0  0  0  0  0  0  0  0  0  0  0  0
    6.4178   -1.4022   19.5407 C   0  0  0  0  0  0  0  0  0  0  0  0
    5.5236   -0.3225   20.1012 C   0  0  0  0  0  0  0  0  0  0  0  0
    4.9880    0.6532   19.2749 C   0  0  0  0  0  0  0  0  0  0  0  0
    4.1651    1.6416   19.7884 C   0  0  0  0  0  0  0  0  0  0  0  0
    3.8681    1.6651   21.1341 C   0  0  0  0  0  0  0  0  0  0  0  0
    4.3933    0.6999   21.9662 C   0  0  0  0  0  0  0  0  0  0  0  0
    5.2161   -0.2885   21.4525 C   0  0  0  0  0  0  0  0  0  0  0  0
    6.8552   -3.1739   21.2497 C   0  0  0  0  0  0  0  0  0  0  0  0
    5.7881   -3.6904   20.9413 O   0  0  0  0  0  0  0  0  0  0  0  0
    7.6095   -3.6811   22.2431 N   0  0  0  0  0  0  0  0  0  0  0  0
    7.1503   -4.8715   22.9400 C   0  0  0  0  0  0  0  0  0  0  0  0
    6.4474   -4.4744   24.2448 C   0  0  0  0  0  0  0  0  0  0  0  0
    5.6581   -5.5791   24.8796 C   0  0  0  0  0  0  0  0  0  0  0  0
    5.8633   -6.1289   26.1105 C   0  0  0  0  0  0  0  0  0  0  0  0
    4.9448   -7.1142   26.3508 N   0  0  0  0  0  0  0  0  0  0  0  0
    4.1139   -7.2226   25.2627 C   0  0  0  0  0  0  0  0  0  0  0  0
    3.0346   -8.0654   25.0201 C   0  0  0  0  0  0  0  0  0  0  0  0
    2.3655   -7.9532   23.8122 C   0  0  0  0  0  0  0  0  0  0  0  0
    2.7620   -7.0250   22.8707 C   0  0  0  0  0  0  0  0  0  0  0  0
    3.8374   -6.1843   23.1105 C   0  0  0  0  0  0  0  0  0  0  0  0
    4.5336   -6.2697   24.3152 C   0  0  0  0  0  0  0  0  0  0  0  0
    8.3283   -5.7937   23.2149 C   0  0  0  0  0  0  0  0  0  0  0  0
    9.1779   -5.3034   24.0814 O   0  0  0  0  0  0  0  0  0  0  0  0
    8.4506   -6.8744   22.6818 O   0  0  0  0  0  0  0  0  0  0  0  0
  2  1  1  0
  2  3  1  0
  3  4  1  0
  4  5  2  0
  5  6  1  0
  6  7  1  0
  7  8  2  0
  8  9  1  0
  9 10  2  0
 10 11  1  0
 11 12  2  0
  2 13  1  0
 13 14  2  0
 13 15  1  0
 15 16  1  0
 16 17  1  0
 17 18  1  0
 18 19  2  0
 19 20  1  0
 20 21  2  0
 21 22  1  0
 22 23  2  0
 16 24  1  0
 24 25  2  0
 24 26  1  0
 26 27  1  0
 27 28  1  0
 28 29  1  0
 29 30  2  0
 30 31  1  0
 31 32  1  0
 32 33  2  0
 33 34  1  0
 34 35  2  0
 35 36  1  0
 36 37  2  0
 27 38  1  0
 38 39  1  0
 38 40  2  0
 12  4  1  0
 23 18  1  0
 37 29  1  0
 12  7  1  0
 37 32  1  0
M  END
