CVD-0002711|dock_bobby27042020.90|mol2|24|dock3
     RDKit          3D

 28 29  0  0  0  0  0  0  0  0999 V2000
   10.2773   -2.4661   24.1722 C   0  0  0  0  0  0  0  0  0  0  0  0
    9.8619   -2.5432   22.7078 C   0  0  0  0  0  0  0  0  0  0  0  0
    8.6375   -3.4396   22.5629 C   0  0  0  0  0  0  0  0  0  0  0  0
    9.5668   -1.1357   22.1592 C   0  0  0  0  0  0  0  0  0  0  0  0
    9.1614   -1.1996   20.7638 N   0  0  0  0  0  0  0  0  0  0  0  0
    7.9200   -0.8484   20.3894 C   0  0  0  0  0  0  0  0  0  0  0  0
    7.0550   -0.4633   21.1476 O   0  0  0  0  0  0  0  0  0  0  0  0
    7.7825   -0.9834   19.0543 O   0  0  0  0  0  0  0  0  0  0  0  0
    6.4462   -1.2174   18.5318 C   0  0  0  0  0  0  0  0  0  0  0  0
    5.5541   -0.0543   18.8583 C   0  0  0  0  0  0  0  0  0  0  0  0
    5.5313    1.0697   18.0474 C   0  0  0  0  0  0  0  0  0  0  0  0
    4.7061    2.1409   18.3467 C   0  0  0  0  0  0  0  0  0  0  0  0
    3.8942    2.0993   19.4599 C   0  0  0  0  0  0  0  0  0  0  0  0
    3.9068    0.9867   20.2734 C   0  0  0  0  0  0  0  0  0  0  0  0
    4.7320   -0.0846   19.9740 C   0  0  0  0  0  0  0  0  0  0  0  0
   10.7899   -0.2362   22.2997 C   0  0  0  0  0  0  0  0  0  0  0  0
   11.9156   -0.6681   22.0663 O   0  0  0  0  0  0  0  0  0  0  0  0
   10.5603    1.0224   22.6846 N   0  0  0  0  0  0  0  0  0  0  0  0
   11.6328    1.9944   22.8829 C   0  0  0  0  0  0  0  0  0  0  0  0
   11.0763    3.4198   22.7449 C   0  0  0  0  0  0  0  0  0  0  0  0
   12.1408    4.4885   22.8005 C   0  0  0  0  0  0  0  0  0  0  0  0
   13.0076    4.6818   21.7359 C   0  0  0  0  0  0  0  0  0  0  0  0
   13.9863    5.6602   21.7881 C   0  0  0  0  0  0  0  0  0  0  0  0
   14.1101    6.4565   22.9062 C   0  0  0  0  0  0  0  0  0  0  0  0
   13.2555    6.2741   23.9721 C   0  0  0  0  0  0  0  0  0  0  0  0
   12.2770    5.2955   23.9195 C   0  0  0  0  0  0  0  0  0  0  0  0
   12.2593    1.7388   24.2391 C   0  0  0  0  0  0  0  0  0  0  0  0
   13.3662    1.3177   24.4012 O   0  0  0  0  0  0  0  0  0  0  0  0
  1  2  1  0
  2  3  1  0
  2  4  1  0
  4  5  1  0
  5  6  1  0
  6  7  2  0
  6  8  1  0
  8  9  1  0
  9 10  1  0
 10 11  2  0
 11 12  1  0
 12 13  2  0
 13 14  1  0
 14 15  2  0
  4 16  1  0
 16 17  2  0
 16 18  1  0
 18 19  1  0
 19 20  1  0
 20 21  1  0
 21 22  2  0
 22 23  1  0
 23 24  2  0
 24 25  1  0
 25 26  2  0
 19 27  1  0
 27 28  2  0
 15 10  1  0
 26 21  1  0
M  END
