CVD-0000656|dock_bobby27042020.12|mol2|19|dock3
     RDKit          3D

 20 21  0  0  0  0  0  0  0  0999 V2000
   13.8288   -3.5813   26.1657 F   0  0  0  0  0  0  0  0  0  0  0  0
   13.6292   -2.3587   25.5527 C   0  0  0  0  0  0  0  0  0  0  0  0
   12.6415   -2.5230   24.4189 C   0  0  0  0  0  0  0  0  0  0  0  0
   12.1379   -3.6096   24.1635 O   0  0  0  0  0  0  0  0  0  0  0  0
   12.3515   -1.4161   23.7050 N   0  0  0  0  0  0  0  0  0  0  0  0
   11.4224   -1.4859   22.5891 C   0  0  0  0  0  0  0  0  0  0  0  0
   10.3514   -0.4504   22.7288 C   0  0  0  0  0  0  0  0  0  0  0  0
   10.9782    0.8724   22.8621 N   0  0  0  0  0  0  0  0  0  0  0  0
   11.8509    0.9461   24.0432 C   0  0  0  0  0  0  0  0  0  0  0  0
   12.9318   -0.0865   23.9181 C   0  0  0  0  0  0  0  0  0  0  0  0
   10.0628    2.1704   22.4948 S   0  0  0  0  0  0  0  0  0  0  0  0
    9.7039    2.0367   21.1171 O   0  0  0  0  0  0  0  0  0  0  0  0
    9.0418    2.2420   23.4934 O   0  0  0  0  0  0  0  0  0  0  0  0
   11.0858    3.5928   22.6569 C   0  0  0  0  0  0  0  0  0  0  0  0
   12.3869    3.5582   22.1817 C   0  0  0  0  0  0  0  0  0  0  0  0
   13.1855    4.6824   22.3098 C   0  0  0  0  0  0  0  0  0  0  0  0
   12.6909    5.8305   22.9052 C   0  0  0  0  0  0  0  0  0  0  0  0
   11.4000    5.8198   23.3587 C   0  0  0  0  0  0  0  0  0  0  0  0
   10.9104    6.9460   23.9440 F   0  0  0  0  0  0  0  0  0  0  0  0
   10.5686    4.7317   23.2555 C   0  0  0  0  0  0  0  0  0  0  0  0
  1  2  1  0
  2  3  1  0
  3  4  2  0
  3  5  1  0
  5  6  1  0
  6  7  1  0
  7  8  1  0
  8  9  1  0
  9 10  1  0
  8 11  1  0
 11 12  2  0
 11 13  2  0
 11 14  1  0
 14 15  2  0
 15 16  1  0
 16 17  2  0
 17 18  1  0
 18 19  1  0
 18 20  2  0
 10  5  1  0
 20 14  1  0
M  END
