CVD-0001754|dock_bobby27042020.37|mol2|16|dock2
     RDKit          3D

 26 28  0  0  0  0  0  0  0  0999 V2000
    9.2125   -0.6491   20.4318 O   0  0  0  0  0  0  0  0  0  0  0  0
    8.2745   -1.2898   20.8865 C   0  0  0  0  0  0  0  0  0  0  0  0
    6.9762   -1.0500   20.4903 N   0  0  0  0  0  0  0  0  0  0  0  0
    6.4559   -0.1090   19.5622 C   0  0  0  0  0  0  0  0  0  0  0  0
    5.2409    0.4924   19.8664 C   0  0  0  0  0  0  0  0  0  0  0  0
    4.6888    1.4157   18.9963 C   0  0  0  0  0  0  0  0  0  0  0  0
    5.3673    1.7160   17.8390 C   0  0  0  0  0  0  0  0  0  0  0  0
    6.5339    1.1595   17.5152 N   0  0  0  0  0  0  0  0  0  0  0  0
    7.0598    0.2694   18.3627 C   0  0  0  0  0  0  0  0  0  0  0  0
    8.5489   -2.2965   21.8246 N   0  0  0  0  0  0  0  0  0  0  0  0
    9.9490   -2.5286   22.2281 C   0  0  0  0  0  0  0  0  0  0  0  0
   10.4640   -1.3833   23.0850 C   0  0  0  0  0  0  0  0  0  0  0  0
   11.6065   -1.7643   23.9261 N   0  0  0  0  0  0  0  0  0  0  0  0
   11.9458   -0.6730   24.8423 C   0  0  0  0  0  0  0  0  0  0  0  0
   13.1581   -1.0184   25.6778 C   0  0  0  0  0  0  0  0  0  0  0  0
   14.3208   -1.3370   24.8357 N   0  0  0  0  0  0  0  0  0  0  0  0
   13.9760   -2.4054   23.8835 C   0  0  0  0  0  0  0  0  0  0  0  0
   12.7581   -2.0466   23.0732 C   0  0  0  0  0  0  0  0  0  0  0  0
    7.5505   -3.1552   22.4138 C   0  0  0  0  0  0  0  0  0  0  0  0
    6.5809   -2.6489   23.2755 C   0  0  0  0  0  0  0  0  0  0  0  0
    5.6278   -3.4787   23.8427 C   0  0  0  0  0  0  0  0  0  0  0  0
    5.6150   -4.8305   23.5527 C   0  0  0  0  0  0  0  0  0  0  0  0
    6.5699   -5.3523   22.6897 C   0  0  0  0  0  0  0  0  0  0  0  0
    7.5341   -4.5187   22.1278 C   0  0  0  0  0  0  0  0  0  0  0  0
    6.5686   -6.7591   22.3724 C   0  0  0  0  0  0  0  0  0  0  0  0
    6.5869   -7.8669   22.0944 N   0  0  0  0  0  0  0  0  0  0  0  0
  1  2  2  0
  2  3  1  0
  3  4  1  0
  4  5  2  0
  5  6  1  0
  6  7  2  0
  7  8  1  0
  8  9  2  0
  2 10  1  0
 10 11  1  0
 11 12  1  0
 12 13  1  0
 13 14  1  0
 14 15  1  0
 15 16  1  0
 16 17  1  0
 17 18  1  0
 10 19  1  0
 19 20  2  0
 20 21  1  0
 21 22  2  0
 22 23  1  0
 23 24  2  0
 23 25  1  0
 25 26  3  0
  9  4  1  0
 18 13  1  0
 24 19  1  0
M  END
