CVD-0000705|dock_bobby27042020.97|mol2|39|dock1
     RDKit          3D

 17 18  0  0  0  0  0  0  0  0999 V2000
    5.8355    1.3082   17.3274 Cl  0  0  0  0  0  0  0  0  0  0  0  0
    6.1701    0.7221   18.9327 C   0  0  0  0  0  0  0  0  0  0  0  0
    5.1890    0.8005   19.8946 C   0  0  0  0  0  0  0  0  0  0  0  0
    5.4664    0.3317   21.1664 C   0  0  0  0  0  0  0  0  0  0  0  0
    6.7073   -0.2061   21.4660 C   0  0  0  0  0  0  0  0  0  0  0  0
    7.6946   -0.2812   20.4854 C   0  0  0  0  0  0  0  0  0  0  0  0
    8.9883   -0.8170   20.7119 N   0  0  0  0  0  0  0  0  0  0  0  0
    9.7357   -0.9137   21.8638 C   0  0  0  0  0  0  0  0  0  0  0  0
    9.3674   -0.5182   22.9648 O   0  0  0  0  0  0  0  0  0  0  0  0
   10.9513   -1.5120   21.6213 N   0  0  0  0  0  0  0  0  0  0  0  0
   12.0266   -1.8144   22.4950 C   0  0  0  0  0  0  0  0  0  0  0  0
   11.7357   -2.1747   23.8046 C   0  0  0  0  0  0  0  0  0  0  0  0
   12.7648   -2.4752   24.6794 C   0  0  0  0  0  0  0  0  0  0  0  0
   14.0594   -2.4073   24.2205 C   0  0  0  0  0  0  0  0  0  0  0  0
   14.3726   -2.0651   22.9710 N   0  0  0  0  0  0  0  0  0  0  0  0
   13.3719   -1.7766   22.1330 C   0  0  0  0  0  0  0  0  0  0  0  0
    7.4132    0.1909   19.2071 C   0  0  0  0  0  0  0  0  0  0  0  0
  1  2  1  0
  2  3  2  0
  3  4  1  0
  4  5  2  0
  5  6  1  0
  6  7  1  0
  7  8  1  0
  8  9  2  0
  8 10  1  0
 10 11  1  0
 11 12  2  0
 12 13  1  0
 13 14  2  0
 14 15  1  0
 15 16  2  0
  6 17  2  0
 17  2  1  0
 16 11  1  0
M  END
