CVD-0003479|dock_bobby27042020.59|mol2|37|dock3
     RDKit          3D

 29 31  0  0  0  0  0  0  0  0999 V2000
   13.4576    5.6903   22.9025 C   0  0  0  0  0  0  0  0  0  0  0  0
   13.5871    4.2665   22.4468 C   0  0  0  0  0  0  0  0  0  0  0  0
   14.3270    3.9455   21.5221 O   0  0  0  0  0  0  0  0  0  0  0  0
   12.8381    3.3720   23.0947 N   0  0  0  0  0  0  0  0  0  0  0  0
   12.8400    1.9556   22.7578 C   0  0  0  0  0  0  0  0  0  0  0  0
   12.1696    1.1210   23.8354 C   0  0  0  0  0  0  0  0  0  0  0  0
   12.1580   -0.3642   23.5333 C   0  0  0  0  0  0  0  0  0  0  0  0
   13.3625   -1.0458   23.6754 C   0  0  0  0  0  0  0  0  0  0  0  0
   13.4003   -2.4094   23.4742 C   0  0  0  0  0  0  0  0  0  0  0  0
   12.3317   -3.1359   23.1533 N   0  0  0  0  0  0  0  0  0  0  0  0
   11.1761   -2.4867   22.9860 C   0  0  0  0  0  0  0  0  0  0  0  0
   11.0362   -1.1133   23.1385 C   0  0  0  0  0  0  0  0  0  0  0  0
    9.7533   -0.5064   22.8839 N   0  0  0  0  0  0  0  0  0  0  0  0
    9.5294    0.0163   21.5381 C   0  0  0  0  0  0  0  0  0  0  0  0
    8.3189   -0.6212   20.8765 C   0  0  0  0  0  0  0  0  0  0  0  0
    8.1492   -1.8365   20.8908 O   0  0  0  0  0  0  0  0  0  0  0  0
    7.4687    0.2288   20.2965 N   0  0  0  0  0  0  0  0  0  0  0  0
    6.2480   -0.2097   19.6197 C   0  0  0  0  0  0  0  0  0  0  0  0
    6.3558    0.6895   18.2474 C   0  0  0  0  0  0  0  0  0  0  0  0
    5.9663   -0.7435   18.1915 C   0  0  0  0  0  0  0  0  0  0  0  0
    8.7458   -0.4504   23.8533 C   0  0  0  0  0  0  0  0  0  0  0  0
    7.6583    0.0015   23.5194 O   0  0  0  0  0  0  0  0  0  0  0  0
    9.0005   -0.9067   25.1273 N   0  0  0  0  0  0  0  0  0  0  0  0
    8.1570   -0.9670   26.2680 C   0  0  0  0  0  0  0  0  0  0  0  0
    6.7857   -1.2185   26.2295 C   0  0  0  0  0  0  0  0  0  0  0  0
    6.0499   -1.2601   27.4027 C   0  0  0  0  0  0  0  0  0  0  0  0
    6.6583   -1.0519   28.6205 C   0  0  0  0  0  0  0  0  0  0  0  0
    8.0109   -0.8002   28.6710 C   0  0  0  0  0  0  0  0  0  0  0  0
    8.7565   -0.7574   27.5052 C   0  0  0  0  0  0  0  0  0  0  0  0
  1  2  1  0
  2  3  2  0
  2  4  1  0
  4  5  1  0
  5  6  1  0
  6  7  1  0
  7  8  2  0
  8  9  1  0
  9 10  2  0
 10 11  1  0
 11 12  2  0
 12 13  1  0
 13 14  1  0
 14 15  1  0
 15 16  2  0
 15 17  1  0
 17 18  1  0
 18 19  1  0
 19 20  1  0
 13 21  1  0
 21 22  2  0
 21 23  1  0
 23 24  1  0
 24 25  2  0
 25 26  1  0
 26 27  2  0
 27 28  1  0
 28 29  2  0
 12  7  1  0
 20 18  1  0
 29 24  1  0
M  END
