CVD-0003609|dock_bobby27042020.59|mol2|17|dock3
     RDKit          3D

 21 23  0  0  0  0  0  0  0  0999 V2000
   13.9018   -1.8153   20.7463 Cl  0  0  0  0  0  0  0  0  0  0  0  0
   12.8970   -1.0764   21.9616 C   0  0  0  0  0  0  0  0  0  0  0  0
   13.3244    0.0780   22.5797 C   0  0  0  0  0  0  0  0  0  0  0  0
   12.5162    0.6550   23.5447 C   0  0  0  0  0  0  0  0  0  0  0  0
   11.3024    0.0763   23.8757 C   0  0  0  0  0  0  0  0  0  0  0  0
   10.8759   -1.0847   23.2497 C   0  0  0  0  0  0  0  0  0  0  0  0
    9.5544   -1.7173   23.6132 C   0  0  0  0  0  0  0  0  0  0  0  0
    8.4290   -1.1645   22.8739 N   0  0  0  0  0  0  0  0  0  0  0  0
    7.7014   -1.8961   22.0345 C   0  0  0  0  0  0  0  0  0  0  0  0
    7.9245   -3.0841   21.8230 O   0  0  0  0  0  0  0  0  0  0  0  0
    6.5543   -1.1815   21.3518 C   0  0  0  0  0  0  0  0  0  0  0  0
    6.9009   -0.5721   20.0264 C   0  0  0  0  0  0  0  0  0  0  0  0
    8.0513   -0.7463   19.3143 C   0  0  0  0  0  0  0  0  0  0  0  0
    8.0088   -0.0293   18.1481 N   0  0  0  0  0  0  0  0  0  0  0  0
    6.8157    0.6286   18.0858 C   0  0  0  0  0  0  0  0  0  0  0  0
    6.3818    1.4387   17.1054 N   0  0  0  0  0  0  0  0  0  0  0  0
    5.1640    1.9724   17.2729 C   0  0  0  0  0  0  0  0  0  0  0  0
    4.3650    1.7340   18.3706 C   0  0  0  0  0  0  0  0  0  0  0  0
    4.8281    0.8959   19.3728 C   0  0  0  0  0  0  0  0  0  0  0  0
    6.0885    0.3154   19.2465 C   0  0  0  0  0  0  0  0  0  0  0  0
   11.6895   -1.6619   22.2833 C   0  0  0  0  0  0  0  0  0  0  0  0
  1  2  1  0
  2  3  2  0
  3  4  1  0
  4  5  2  0
  5  6  1  0
  6  7  1  0
  7  8  1  0
  8  9  1  0
  9 10  2  0
  9 11  1  0
 11 12  1  0
 12 13  2  0
 13 14  1  0
 14 15  1  0
 15 16  2  0
 16 17  1  0
 17 18  2  0
 18 19  1  0
 19 20  2  0
  6 21  2  0
 21  2  1  0
 20 12  1  0
 20 15  1  0
M  END
