CVD-0000709|dock_bobby27042020.12|mol2|11|dock2
     RDKit          3D

 22 24  0  0  0  0  0  0  0  0999 V2000
    8.9140   -0.4639   21.1328 O   0  0  0  0  0  0  0  0  0  0  0  0
    8.6049   -1.1908   22.0710 C   0  0  0  0  0  0  0  0  0  0  0  0
    7.1518   -1.3904   22.4536 C   0  0  0  0  0  0  0  0  0  0  0  0
    6.2426   -0.2850   21.9516 C   0  0  0  0  0  0  0  0  0  0  0  0
    5.7178    0.6615   22.8174 C   0  0  0  0  0  0  0  0  0  0  0  0
    4.9081    1.6618   22.4549 N   0  0  0  0  0  0  0  0  0  0  0  0
    4.5770    1.7645   21.1800 C   0  0  0  0  0  0  0  0  0  0  0  0
    5.0334    0.8745   20.1844 C   0  0  0  0  0  0  0  0  0  0  0  0
    4.6441    1.0483   18.8825 N   0  0  0  0  0  0  0  0  0  0  0  0
    5.1022    0.1845   17.9926 C   0  0  0  0  0  0  0  0  0  0  0  0
    5.9392   -0.8728   18.2788 C   0  0  0  0  0  0  0  0  0  0  0  0
    6.3397   -1.0651   19.5672 C   0  0  0  0  0  0  0  0  0  0  0  0
    5.8912   -0.1815   20.5794 C   0  0  0  0  0  0  0  0  0  0  0  0
    9.4689   -1.8864   22.8500 N   0  0  0  0  0  0  0  0  0  0  0  0
   10.8827   -1.9855   22.8283 C   0  0  0  0  0  0  0  0  0  0  0  0
   11.6413   -1.8065   21.6734 C   0  0  0  0  0  0  0  0  0  0  0  0
   13.0216   -1.9173   21.7205 C   0  0  0  0  0  0  0  0  0  0  0  0
   13.6644   -2.2061   22.9114 C   0  0  0  0  0  0  0  0  0  0  0  0
   12.9178   -2.3864   24.0694 C   0  0  0  0  0  0  0  0  0  0  0  0
   11.5304   -2.2757   24.0249 C   0  0  0  0  0  0  0  0  0  0  0  0
   13.5736   -2.6876   25.3180 C   0  0  0  0  0  0  0  0  0  0  0  0
   14.1208   -2.9121   26.2952 N   0  0  0  0  0  0  0  0  0  0  0  0
  1  2  2  0
  2  3  1  0
  3  4  1  0
  4  5  2  0
  5  6  1  0
  6  7  2  0
  7  8  1  0
  8  9  2  0
  9 10  1  0
 10 11  2  0
 11 12  1  0
 12 13  2  0
  2 14  1  0
 14 15  1  0
 15 16  2  0
 16 17  1  0
 17 18  2  0
 18 19  1  0
 19 20  2  0
 19 21  1  0
 21 22  3  0
 13  4  1  0
 20 15  1  0
 13  8  1  0
M  END
