CVD-0002656|dock_bobby27042020.47|mol2|42|dock1
     RDKit          3D

 28 30  0  0  0  0  0  0  0  0999 V2000
   10.1783    6.3927   26.7686 C   0  0  0  0  0  0  0  0  0  0  0  0
   11.5009    6.4346   26.0610 C   0  0  0  0  0  0  0  0  0  0  0  0
   12.5133    6.8082   26.6432 O   0  0  0  0  0  0  0  0  0  0  0  0
   11.4383    6.0449   24.7609 N   0  0  0  0  0  0  0  0  0  0  0  0
   12.4475    5.9591   23.7617 C   0  0  0  0  0  0  0  0  0  0  0  0
   13.4617    6.9018   23.5961 C   0  0  0  0  0  0  0  0  0  0  0  0
   14.4086    6.8213   22.6560 N   0  0  0  0  0  0  0  0  0  0  0  0
   14.3778    5.7772   21.8320 C   0  0  0  0  0  0  0  0  0  0  0  0
   13.4239    4.7863   21.9040 C   0  0  0  0  0  0  0  0  0  0  0  0
   12.4361    4.8633   22.8796 C   0  0  0  0  0  0  0  0  0  0  0  0
   11.3996    3.7642   22.9332 C   0  0  0  0  0  0  0  0  0  0  0  0
   11.9515    2.4413   22.6041 N   0  0  0  0  0  0  0  0  0  0  0  0
   10.9290    1.4163   22.2692 C   0  0  0  0  0  0  0  0  0  0  0  0
   11.1741    0.3361   23.2919 C   0  0  0  0  0  0  0  0  0  0  0  0
   11.3674   -1.0025   22.5682 C   0  0  0  0  0  0  0  0  0  0  0  0
   10.6026   -1.0825   21.3303 N   0  0  0  0  0  0  0  0  0  0  0  0
    9.2886   -0.7861   21.2863 C   0  0  0  0  0  0  0  0  0  0  0  0
    8.6635   -0.4333   22.2830 O   0  0  0  0  0  0  0  0  0  0  0  0
    8.7044   -0.9029   20.0736 N   0  0  0  0  0  0  0  0  0  0  0  0
    7.2707   -0.7035   19.8616 C   0  0  0  0  0  0  0  0  0  0  0  0
    6.7989   -1.3883   18.5625 C   0  0  0  0  0  0  0  0  0  0  0  0
    5.3199   -1.1372   18.2751 C   0  0  0  0  0  0  0  0  0  0  0  0
    5.0024    0.3525   18.2633 C   0  0  0  0  0  0  0  0  0  0  0  0
    5.4409    1.0179   19.5599 C   0  0  0  0  0  0  0  0  0  0  0  0
    6.9274    0.7954   19.8191 C   0  0  0  0  0  0  0  0  0  0  0  0
   12.3514    0.7730   24.1317 C   0  0  0  0  0  0  0  0  0  0  0  0
   12.7950    0.0664   25.0107 O   0  0  0  0  0  0  0  0  0  0  0  0
   12.8818    2.1373   23.7128 C   0  0  0  0  0  0  0  0  0  0  0  0
  1  2  1  0
  2  3  2  0
  2  4  1  0
  4  5  1  0
  5  6  2  0
  6  7  1  0
  7  8  2  0
  8  9  1  0
  9 10  2  0
 10 11  1  0
 11 12  1  0
 12 13  1  0
 13 14  1  0
 14 15  1  0
 15 16  1  0
 16 17  1  0
 17 18  2  0
 17 19  1  0
 19 20  1  0
 20 21  1  0
 21 22  1  0
 22 23  1  0
 23 24  1  0
 24 25  1  0
 14 26  1  0
 26 27  2  0
 26 28  1  0
 10  5  1  0
 28 12  1  0
 25 20  1  0
M  END
