CVD-0003843|dock_bobby27042020.15|mol2|21|dock2
     RDKit          3D

 18 19  0  0  0  0  0  0  0  0999 V2000
    5.8218   -1.9493   19.0268 N   0  0  0  0  0  0  0  0  0  0  0  0
    6.0666   -0.5482   19.7616 S   0  0  0  0  0  0  0  0  0  0  0  0
    5.0629   -0.4205   20.7752 O   0  0  0  0  0  0  0  0  0  0  0  0
    6.1524    0.4549   18.7429 O   0  0  0  0  0  0  0  0  0  0  0  0
    7.6339   -0.6090   20.5756 C   0  0  0  0  0  0  0  0  0  0  0  0
    8.1197   -1.8144   21.0486 C   0  0  0  0  0  0  0  0  0  0  0  0
    9.3486   -1.8553   21.6830 C   0  0  0  0  0  0  0  0  0  0  0  0
   10.1066   -0.7032   21.8717 C   0  0  0  0  0  0  0  0  0  0  0  0
    9.5898    0.4980   21.3943 C   0  0  0  0  0  0  0  0  0  0  0  0
    8.3687    0.5502   20.7459 C   0  0  0  0  0  0  0  0  0  0  0  0
   11.3388   -0.7539   22.5155 N   0  0  0  0  0  0  0  0  0  0  0  0
   11.7643    0.2465   23.4989 C   0  0  0  0  0  0  0  0  0  0  0  0
   12.3723   -0.3843   24.7195 C   0  0  0  0  0  0  0  0  0  0  0  0
   13.5475   -1.2928   24.3416 C   0  0  0  0  0  0  0  0  0  0  0  0
   14.1745   -1.9356   25.5653 C   0  0  0  0  0  0  0  0  0  0  0  0
   15.2341   -2.8218   25.2270 O   0  0  0  0  0  0  0  0  0  0  0  0
   13.0697   -2.3077   23.3339 C   0  0  0  0  0  0  0  0  0  0  0  0
   12.4278   -1.6758   22.1173 C   0  0  0  0  0  0  0  0  0  0  0  0
  1  2  1  0
  2  3  2  0
  2  4  2  0
  2  5  1  0
  5  6  2  0
  6  7  1  0
  7  8  2  0
  8  9  1  0
  9 10  2  0
  8 11  1  0
 11 12  1  0
 12 13  1  0
 13 14  1  0
 14 15  1  0
 15 16  1  0
 14 17  1  0
 17 18  1  0
 10  5  1  0
 18 11  1  0
M  END
