CVD-0003219|dock_bobby27042020.88|mol2|36|dock1
     RDKit          3D

 25 27  0  0  0  0  0  0  0  0999 V2000
    6.4054   -1.2003   19.0523 C   0  0  0  0  0  0  0  0  0  0  0  0
    7.3852   -0.3808   19.8780 C   0  0  0  0  0  0  0  0  0  0  0  0
    8.4376   -1.3317   20.4338 C   0  0  0  0  0  0  0  0  0  0  0  0
    9.2521   -0.7482   21.5118 N   0  0  0  0  0  0  0  0  0  0  0  0
    9.7519   -1.6731   22.5141 C   0  0  0  0  0  0  0  0  0  0  0  0
   11.2483   -1.6092   22.6882 C   0  0  0  0  0  0  0  0  0  0  0  0
   11.9113   -1.4050   23.9232 C   0  0  0  0  0  0  0  0  0  0  0  0
   13.2708   -1.3905   23.8404 C   0  0  0  0  0  0  0  0  0  0  0  0
   13.7483   -1.6307   22.2285 S   0  0  0  0  0  0  0  0  0  0  0  0
   12.1457   -1.7518   21.6737 C   0  0  0  0  0  0  0  0  0  0  0  0
    9.5598    0.5659   21.6007 C   0  0  0  0  0  0  0  0  0  0  0  0
    9.2111    1.3551   20.7318 O   0  0  0  0  0  0  0  0  0  0  0  0
   10.3626    1.0756   22.7981 C   0  0  0  0  0  0  0  0  0  0  0  0
   10.2650    2.5157   22.9402 N   0  0  0  0  0  0  0  0  0  0  0  0
    9.0505    3.1199   23.0212 N   0  0  0  0  0  0  0  0  0  0  0  0
    9.2219    4.4092   23.0944 N   0  0  0  0  0  0  0  0  0  0  0  0
   10.5731    4.6658   23.0262 C   0  0  0  0  0  0  0  0  0  0  0  0
   11.2928    5.8596   23.0454 C   0  0  0  0  0  0  0  0  0  0  0  0
   12.6750    5.8065   22.9523 C   0  0  0  0  0  0  0  0  0  0  0  0
   13.3367    4.5992   22.8421 C   0  0  0  0  0  0  0  0  0  0  0  0
   12.6390    3.4018   22.8238 C   0  0  0  0  0  0  0  0  0  0  0  0
   11.2537    3.4538   22.9199 C   0  0  0  0  0  0  0  0  0  0  0  0
    6.7671    0.4043   20.9580 N   0  0  0  0  0  0  0  0  0  0  0  0
    5.9943   -0.3872   21.9098 C   0  0  0  0  0  0  0  0  0  0  0  0
    5.9403    1.4972   20.4566 C   0  0  0  0  0  0  0  0  0  0  0  0
  1  2  1  0
  2  3  1  0
  3  4  1  0
  4  5  1  0
  5  6  1  0
  6  7  1  0
  7  8  2  0
  8  9  1  0
  9 10  1  0
  4 11  1  0
 11 12  2  0
 11 13  1  0
 13 14  1  0
 14 15  1  0
 15 16  2  0
 16 17  1  0
 17 18  2  0
 18 19  1  0
 19 20  2  0
 20 21  1  0
 21 22  2  0
  2 23  1  0
 23 24  1  0
 23 25  1  0
 10  6  2  0
 22 14  1  0
 22 17  1  0
M  END
