CVD-0000152|dock_bobby27042020.14|mol2|4|dock2
     RDKit          3D

 13 13  0  0  0  0  0  0  0  0999 V2000
    7.7413   -0.1043   19.4163 C   0  0  0  0  0  0  0  0  0  0  0  0
    8.5828    0.2261   20.9160 S   0  0  0  0  0  0  0  0  0  0  0  0
    9.1161    1.5514   20.8432 O   0  0  0  0  0  0  0  0  0  0  0  0
    7.7055   -0.0986   21.9981 O   0  0  0  0  0  0  0  0  0  0  0  0
    9.8298   -0.7777   21.0051 N   0  0  0  0  0  0  0  0  0  0  0  0
   10.7221   -0.7255   22.1694 C   0  0  0  0  0  0  0  0  0  0  0  0
   11.7352   -1.8550   22.1187 C   0  0  0  0  0  0  0  0  0  0  0  0
   12.6958   -1.8306   23.2829 C   0  0  0  0  0  0  0  0  0  0  0  0
   12.6233   -2.7719   24.2963 C   0  0  0  0  0  0  0  0  0  0  0  0
   13.5166   -2.7207   25.3521 C   0  0  0  0  0  0  0  0  0  0  0  0
   14.4618   -1.7206   25.3618 C   0  0  0  0  0  0  0  0  0  0  0  0
   14.5572   -0.7990   24.4025 N   0  0  0  0  0  0  0  0  0  0  0  0
   13.6833   -0.8695   23.3937 C   0  0  0  0  0  0  0  0  0  0  0  0
  1  2  1  0
  2  3  2  0
  2  4  2  0
  2  5  1  0
  5  6  1  0
  6  7  1  0
  7  8  1  0
  8  9  2  0
  9 10  1  0
 10 11  2  0
 11 12  1  0
 12 13  2  0
 13  8  1  0
M  END
