CVD-0001439|dock_bobby27042020.23|mol2|48|dock2
     RDKit          3D

 18 20  0  0  0  0  0  0  0  0999 V2000
    9.9522    2.4148   22.6628 O   0  0  0  0  0  0  0  0  0  0  0  0
   11.1006    2.8381   22.6585 C   0  0  0  0  0  0  0  0  0  0  0  0
   12.2029    2.0165   22.7132 N   0  0  0  0  0  0  0  0  0  0  0  0
   12.2916    0.6005   22.7653 C   0  0  0  0  0  0  0  0  0  0  0  0
   13.2879   -0.1065   23.4379 C   0  0  0  0  0  0  0  0  0  0  0  0
   13.2858   -1.4918   23.4327 C   0  0  0  0  0  0  0  0  0  0  0  0
   12.3049   -2.1896   22.7636 C   0  0  0  0  0  0  0  0  0  0  0  0
   11.3178   -1.5026   22.0937 C   0  0  0  0  0  0  0  0  0  0  0  0
   11.3089   -0.1181   22.0929 C   0  0  0  0  0  0  0  0  0  0  0  0
   11.2652    4.1945   22.5913 N   0  0  0  0  0  0  0  0  0  0  0  0
   12.4912    4.8921   22.1720 C   0  0  0  0  0  0  0  0  0  0  0  0
   13.2128    5.4294   23.4050 C   0  0  0  0  0  0  0  0  0  0  0  0
   12.2252    6.1962   24.2261 C   0  0  0  0  0  0  0  0  0  0  0  0
   12.6608    7.3766   25.4059 S   0  0  0  0  0  0  0  0  0  0  0  0
   11.0202    7.6762   25.7737 C   0  0  0  0  0  0  0  0  0  0  0  0
   10.1814    6.9077   25.0274 C   0  0  0  0  0  0  0  0  0  0  0  0
   10.8847    6.0519   24.1322 C   0  0  0  0  0  0  0  0  0  0  0  0
   10.2570    5.0944   23.1524 C   0  0  0  0  0  0  0  0  0  0  0  0
  1  2  2  0
  2  3  1  0
  3  4  1  0
  4  5  2  0
  5  6  1  0
  6  7  2  0
  7  8  1  0
  8  9  2  0
  2 10  1  0
 10 11  1  0
 11 12  1  0
 12 13  1  0
 13 14  1  0
 14 15  1  0
 15 16  2  0
 16 17  1  0
 17 18  1  0
  9  4  1  0
 18 10  1  0
 17 13  2  0
M  END
