CVD-0003615|dock_bobby27042020.73|mol2|16|dock1
     RDKit          3D

 18 19  0  0  0  0  0  0  0  0999 V2000
   13.4545   -1.6218   21.0756 C   0  0  0  0  0  0  0  0  0  0  0  0
   12.8937   -1.9321   22.4399 C   0  0  0  0  0  0  0  0  0  0  0  0
   13.7844   -2.2520   23.4602 C   0  0  0  0  0  0  0  0  0  0  0  0
   13.3081   -2.5372   24.7197 C   0  0  0  0  0  0  0  0  0  0  0  0
   12.0142   -2.5242   25.0249 N   0  0  0  0  0  0  0  0  0  0  0  0
   11.1489   -2.2186   24.0530 C   0  0  0  0  0  0  0  0  0  0  0  0
   11.5173   -1.9113   22.7418 C   0  0  0  0  0  0  0  0  0  0  0  0
   10.6057   -1.5815   21.6976 N   0  0  0  0  0  0  0  0  0  0  0  0
    9.3751   -0.9655   21.7672 C   0  0  0  0  0  0  0  0  0  0  0  0
    8.8437   -0.5830   22.8039 O   0  0  0  0  0  0  0  0  0  0  0  0
    8.8116   -0.8310   20.5177 N   0  0  0  0  0  0  0  0  0  0  0  0
    7.5754   -0.2666   20.1116 C   0  0  0  0  0  0  0  0  0  0  0  0
    6.5229   -0.3171   21.0187 C   0  0  0  0  0  0  0  0  0  0  0  0
    5.2854    0.2127   20.6956 C   0  0  0  0  0  0  0  0  0  0  0  0
    5.0785    0.8016   19.4612 C   0  0  0  0  0  0  0  0  0  0  0  0
    6.1244    0.8484   18.5675 C   0  0  0  0  0  0  0  0  0  0  0  0
    5.8742    1.5877   17.0108 Cl  0  0  0  0  0  0  0  0  0  0  0  0
    7.3669    0.3272   18.8670 C   0  0  0  0  0  0  0  0  0  0  0  0
  1  2  1  0
  2  3  2  0
  3  4  1  0
  4  5  2  0
  5  6  1  0
  6  7  2  0
  7  8  1  0
  8  9  1  0
  9 10  2  0
  9 11  1  0
 11 12  1  0
 12 13  2  0
 13 14  1  0
 14 15  2  0
 15 16  1  0
 16 17  1  0
 16 18  2  0
  7  2  1  0
 18 12  1  0
M  END
