CVD-0002547|dock_bobby27042020.5|mol2|19|dock2
     RDKit          3D

 32 33  0  0  0  0  0  0  0  0999 V2000
   12.5954    5.7708   24.1769 C   0  0  0  0  0  0  0  0  0  0  0  0
   13.9859    5.5609   23.1332 S   0  0  0  0  0  0  0  0  0  0  0  0
   14.9240    4.7177   23.8076 O   0  0  0  0  0  0  0  0  0  0  0  0
   14.4172    6.8550   22.7028 O   0  0  0  0  0  0  0  0  0  0  0  0
   13.4980    4.7700   21.8267 N   0  0  0  0  0  0  0  0  0  0  0  0
   12.5853    3.6290   21.9674 C   0  0  0  0  0  0  0  0  0  0  0  0
   13.2771    2.4730   22.6670 C   0  0  0  0  0  0  0  0  0  0  0  0
   12.7021    1.1306   22.2845 C   0  0  0  0  0  0  0  0  0  0  0  0
   13.5296    0.0568   22.0002 C   0  0  0  0  0  0  0  0  0  0  0  0
   12.9938   -1.1693   21.6468 C   0  0  0  0  0  0  0  0  0  0  0  0
   11.6212   -1.3357   21.5729 C   0  0  0  0  0  0  0  0  0  0  0  0
   10.7686   -0.2705   21.8535 C   0  0  0  0  0  0  0  0  0  0  0  0
   11.3267    0.9538   22.2064 C   0  0  0  0  0  0  0  0  0  0  0  0
    9.2724   -0.3861   21.7915 C   0  0  0  0  0  0  0  0  0  0  0  0
    8.6077    0.5902   21.4574 O   0  0  0  0  0  0  0  0  0  0  0  0
    8.6809   -1.5491   22.1002 N   0  0  0  0  0  0  0  0  0  0  0  0
    7.2350   -1.6899   22.0490 C   0  0  0  0  0  0  0  0  0  0  0  0
    6.8063   -2.1928   20.6606 C   0  0  0  0  0  0  0  0  0  0  0  0
    6.7128   -1.1109   19.6120 C   0  0  0  0  0  0  0  0  0  0  0  0
    5.5102   -0.4698   19.3584 C   0  0  0  0  0  0  0  0  0  0  0  0
    5.4180    0.5247   18.4011 C   0  0  0  0  0  0  0  0  0  0  0  0
    6.5414    0.8938   17.6789 C   0  0  0  0  0  0  0  0  0  0  0  0
    6.4574    1.8736   16.7332 O   0  0  0  0  0  0  0  0  0  0  0  0
    7.7506    0.2627   17.9225 C   0  0  0  0  0  0  0  0  0  0  0  0
    7.8285   -0.7303   18.8828 C   0  0  0  0  0  0  0  0  0  0  0  0
    6.7535   -2.6421   23.1415 C   0  0  0  0  0  0  0  0  0  0  0  0
    5.9502   -2.2558   23.9863 O   0  0  0  0  0  0  0  0  0  0  0  0
    7.2368   -3.8845   23.1218 N   0  0  0  0  0  0  0  0  0  0  0  0
    6.8365   -4.8730   24.1143 C   0  0  0  0  0  0  0  0  0  0  0  0
    7.8661   -5.0982   25.1356 C   0  0  0  0  0  0  0  0  0  0  0  0
    8.7189   -5.2256   25.9497 C   0  0  0  0  0  0  0  0  0  0  0  0
   10.0366   -5.3628   27.1699 Br  0  0  0  0  0  0  0  0  0  0  0  0
  1  2  1  0
  2  3  2  0
  2  4  2  0
  2  5  1  0
  5  6  1  0
  6  7  1  0
  7  8  1  0
  8  9  2  0
  9 10  1  0
 10 11  2  0
 11 12  1  0
 12 13  2  0
 12 14  1  0
 14 15  2  0
 14 16  1  0
 16 17  1  0
 17 18  1  0
 18 19  1  0
 19 20  2  0
 20 21  1  0
 21 22  2  0
 22 23  1  0
 22 24  1  0
 24 25  2  0
 17 26  1  0
 26 27  2  0
 26 28  1  0
 28 29  1  0
 29 30  1  0
 30 31  3  0
 31 32  1  0
 13  8  1  0
 25 19  1  0
M  END
