CVD-0003430|dock_bobby27042020.59|mol2|44|dock2
     RDKit          3D

 20 22  0  0  0  0  0  0  0  0999 V2000
    5.9049    1.1524   23.4248 Cl  0  0  0  0  0  0  0  0  0  0  0  0
    5.8320    1.1203   21.6870 C   0  0  0  0  0  0  0  0  0  0  0  0
    4.6273    1.4393   21.2437 N   0  0  0  0  0  0  0  0  0  0  0  0
    4.4019    1.4620   19.9275 C   0  0  0  0  0  0  0  0  0  0  0  0
    5.4083    1.1574   19.0277 C   0  0  0  0  0  0  0  0  0  0  0  0
    5.4489    1.1055   17.6709 N   0  0  0  0  0  0  0  0  0  0  0  0
    6.6878    0.7505   17.2264 N   0  0  0  0  0  0  0  0  0  0  0  0
    7.4279    0.5787   18.3046 C   0  0  0  0  0  0  0  0  0  0  0  0
    6.6924    0.8172   19.4914 C   0  0  0  0  0  0  0  0  0  0  0  0
    6.9248    0.7947   20.8812 C   0  0  0  0  0  0  0  0  0  0  0  0
    8.2595    0.4385   21.2803 N   0  0  0  0  0  0  0  0  0  0  0  0
    9.5510    0.5215   21.6709 C   0  0  0  0  0  0  0  0  0  0  0  0
   10.1370    1.5834   21.8587 O   0  0  0  0  0  0  0  0  0  0  0  0
   10.2343   -0.8133   21.8683 C   0  0  0  0  0  0  0  0  0  0  0  0
   11.5484   -0.7105   22.6483 C   0  0  0  0  0  0  0  0  0  0  0  0
   11.2885   -0.4456   24.1454 C   0  0  0  0  0  0  0  0  0  0  0  0
   12.5780   -0.4099   24.9636 C   0  0  0  0  0  0  0  0  0  0  0  0
   13.3997   -1.6761   24.7591 C   0  0  0  0  0  0  0  0  0  0  0  0
   13.6806   -1.9159   23.2826 C   0  0  0  0  0  0  0  0  0  0  0  0
   12.3861   -1.9894   22.4794 C   0  0  0  0  0  0  0  0  0  0  0  0
  1  2  1  0
  2  3  2  0
  3  4  1  0
  4  5  2  0
  5  6  1  0
  6  7  1  0
  7  8  2  0
  8  9  1  0
  9 10  2  0
 10 11  1  0
 11 12  1  0
 12 13  2  0
 12 14  1  0
 14 15  1  0
 15 16  1  0
 16 17  1  0
 17 18  1  0
 18 19  1  0
 19 20  1  0
 10  2  1  0
 20 15  1  0
  9  5  1  0
M  END
