CVD-0004057|dock_bobby27042020.0|mol2|4|dock3
     RDKit          3D

 23 26  0  0  0  0  0  0  0  0999 V2000
    5.6809   -1.4014   18.6815 C   0  0  0  0  0  0  0  0  0  0  0  0
    6.6890   -0.6374   19.4804 C   0  0  0  0  0  0  0  0  0  0  0  0
    6.5091    0.7489   19.7165 C   0  0  0  0  0  0  0  0  0  0  0  0
    7.4344    1.4126   20.4428 C   0  0  0  0  0  0  0  0  0  0  0  0
    8.5432    0.6966   20.9390 C   0  0  0  0  0  0  0  0  0  0  0  0
    9.6861    0.9932   21.6958 C   0  0  0  0  0  0  0  0  0  0  0  0
   10.0527    2.3413   22.2008 C   0  0  0  0  0  0  0  0  0  0  0  0
    9.2419    3.3817   22.6899 C   0  0  0  0  0  0  0  0  0  0  0  0
    9.9516    4.4388   23.0495 N   0  0  0  0  0  0  0  0  0  0  0  0
   11.2356    4.0825   22.8116 N   0  0  0  0  0  0  0  0  0  0  0  0
   12.3142    5.0273   23.0746 C   0  0  0  0  0  0  0  0  0  0  0  0
   11.3347    2.8491   22.3010 C   0  0  0  0  0  0  0  0  0  0  0  0
   10.3540   -0.2723   21.8197 C   0  0  0  0  0  0  0  0  0  0  0  0
    9.7021   -1.2238   21.1470 N   0  0  0  0  0  0  0  0  0  0  0  0
    8.6153   -0.6215   20.6487 N   0  0  0  0  0  0  0  0  0  0  0  0
    7.7106   -1.3191   19.9274 N   0  0  0  0  0  0  0  0  0  0  0  0
   11.5723   -0.7133   22.5326 C   0  0  0  0  0  0  0  0  0  0  0  0
   12.3922   -1.7342   22.0624 C   0  0  0  0  0  0  0  0  0  0  0  0
   13.5004   -2.1486   22.7800 C   0  0  0  0  0  0  0  0  0  0  0  0
   13.7967   -1.5060   23.9503 C   0  0  0  0  0  0  0  0  0  0  0  0
   14.8847   -1.9105   24.6598 F   0  0  0  0  0  0  0  0  0  0  0  0
   13.0444   -0.4721   24.4352 C   0  0  0  0  0  0  0  0  0  0  0  0
   11.9297   -0.0777   23.7172 C   0  0  0  0  0  0  0  0  0  0  0  0
  1  2  1  0
  2  3  1  0
  3  4  2  0
  4  5  1  0
  5  6  2  0
  6  7  1  0
  7  8  1  0
  8  9  2  0
  9 10  1  0
 10 11  1  0
 10 12  1  0
  6 13  1  0
 13 14  2  0
 14 15  1  0
 15 16  1  0
 13 17  1  0
 17 18  2  0
 18 19  1  0
 19 20  2  0
 20 21  1  0
 20 22  1  0
 22 23  2  0
 16  2  2  0
 23 17  1  0
 15  5  1  0
 12  7  2  0
M  END
