CVD-0000978|dock_bobby27042020.54|mol2|12|dock3
     RDKit          3D

 37 41  0  0  0  0  0  0  0  0999 V2000
   -0.0556   -9.7401   28.5127 C   0  0  0  0  0  0  0  0  0  0  0  0
    0.1092   -9.9908   27.1184 O   0  0  0  0  0  0  0  0  0  0  0  0
    1.0637   -9.3141   26.4002 C   0  0  0  0  0  0  0  0  0  0  0  0
    2.1163   -8.6582   27.0170 C   0  0  0  0  0  0  0  0  0  0  0  0
    3.0523   -7.9906   26.2482 C   0  0  0  0  0  0  0  0  0  0  0  0
    2.9752   -7.9522   24.8533 C   0  0  0  0  0  0  0  0  0  0  0  0
    4.0314   -7.2082   24.1329 C   0  0  0  0  0  0  0  0  0  0  0  0
    4.2617   -7.1873   22.8514 N   0  0  0  0  0  0  0  0  0  0  0  0
    5.3556   -6.3417   22.7030 C   0  0  0  0  0  0  0  0  0  0  0  0
    6.0680   -5.9195   21.5838 C   0  0  0  0  0  0  0  0  0  0  0  0
    7.1371   -5.0536   21.7542 C   0  0  0  0  0  0  0  0  0  0  0  0
    7.5142   -4.5970   23.0169 C   0  0  0  0  0  0  0  0  0  0  0  0
    8.6201   -3.7137   23.0943 N   0  0  0  0  0  0  0  0  0  0  0  0
    9.0386   -2.7270   22.2630 C   0  0  0  0  0  0  0  0  0  0  0  0
    8.4884   -2.4010   21.2150 O   0  0  0  0  0  0  0  0  0  0  0  0
   10.2912   -2.0283   22.7542 C   0  0  0  0  0  0  0  0  0  0  0  0
    9.9839   -0.8522   23.6779 C   0  0  0  0  0  0  0  0  0  0  0  0
   11.2850   -0.2430   24.1710 C   0  0  0  0  0  0  0  0  0  0  0  0
   12.0959    0.2270   23.0524 N   0  0  0  0  0  0  0  0  0  0  0  0
   13.3049    0.8973   23.5360 C   0  0  0  0  0  0  0  0  0  0  0  0
   13.5738    2.2066   22.8163 C   0  0  0  0  0  0  0  0  0  0  0  0
   14.6087    2.3669   22.1958 O   0  0  0  0  0  0  0  0  0  0  0  0
   12.5532    3.2922   22.8922 C   0  0  0  0  0  0  0  0  0  0  0  0
   11.2180    3.0562   22.5787 C   0  0  0  0  0  0  0  0  0  0  0  0
   10.2819    4.0724   22.6534 C   0  0  0  0  0  0  0  0  0  0  0  0
   10.6837    5.3309   23.0436 C   0  0  0  0  0  0  0  0  0  0  0  0
    9.5083    6.6122   23.1386 Cl  0  0  0  0  0  0  0  0  0  0  0  0
   11.9981    5.5944   23.3598 C   0  0  0  0  0  0  0  0  0  0  0  0
   12.9279    4.5731   23.2826 C   0  0  0  0  0  0  0  0  0  0  0  0
   12.4416   -0.9202   22.2058 C   0  0  0  0  0  0  0  0  0  0  0  0
   11.1960   -1.5677   21.6209 C   0  0  0  0  0  0  0  0  0  0  0  0
    6.7978   -5.0220   24.1364 C   0  0  0  0  0  0  0  0  0  0  0  0
    5.7373   -5.8848   23.9385 C   0  0  0  0  0  0  0  0  0  0  0  0
    4.8908   -6.4355   24.8788 O   0  0  0  0  0  0  0  0  0  0  0  0
    1.9027   -8.6230   24.2621 C   0  0  0  0  0  0  0  0  0  0  0  0
    1.6316   -8.6819   22.3857 Br  0  0  0  0  0  0  0  0  0  0  0  0
    0.9605   -9.2940   25.0203 C   0  0  0  0  0  0  0  0  0  0  0  0
  1  2  1  0
  2  3  1  0
  3  4  2  0
  4  5  1  0
  5  6  2  0
  6  7  1  0
  7  8  2  0
  8  9  1  0
  9 10  2  0
 10 11  1  0
 11 12  2  0
 12 13  1  0
 13 14  1  0
 14 15  2  0
 14 16  1  0
 16 17  1  0
 17 18  1  0
 18 19  1  0
 19 20  1  0
 20 21  1  0
 21 22  2  0
 21 23  1  0
 23 24  2  0
 24 25  1  0
 25 26  2  0
 26 27  1  0
 26 28  1  0
 28 29  2  0
 19 30  1  0
 30 31  1  0
 12 32  1  0
 32 33  2  0
 33 34  1  0
  6 35  1  0
 35 36  1  0
 35 37  2  0
 37  3  1  0
 34  7  1  0
 33  9  1  0
 31 16  1  0
 29 23  1  0
M  END
