CVD-0003109|dock_bobby27042020.74|mol2|48|dock1
     RDKit          3D

 21 22  0  0  0  0  0  0  0  0999 V2000
   10.0217   -2.3353   21.5460 N   0  0  0  0  0  0  0  0  0  0  0  0
   10.2606   -1.6229   22.6425 C   0  0  0  0  0  0  0  0  0  0  0  0
    9.7041   -1.9497   23.6967 O   0  0  0  0  0  0  0  0  0  0  0  0
   11.1926   -0.4379   22.5899 C   0  0  0  0  0  0  0  0  0  0  0  0
   12.5707   -0.6747   22.6466 C   0  0  0  0  0  0  0  0  0  0  0  0
   13.4883    0.3571   22.5975 C   0  0  0  0  0  0  0  0  0  0  0  0
   13.0484    1.6662   22.4698 C   0  0  0  0  0  0  0  0  0  0  0  0
   11.6834    1.9243   22.4061 C   0  0  0  0  0  0  0  0  0  0  0  0
   10.7438    0.8976   22.4809 C   0  0  0  0  0  0  0  0  0  0  0  0
    9.2796    1.2742   22.4512 C   0  0  0  0  0  0  0  0  0  0  0  0
    8.5709    0.8454   21.2541 N   0  0  0  0  0  0  0  0  0  0  0  0
    7.2885    1.1385   21.0404 C   0  0  0  0  0  0  0  0  0  0  0  0
    6.6166    1.7893   21.8361 O   0  0  0  0  0  0  0  0  0  0  0  0
    6.7035    0.6164   19.7456 C   0  0  0  0  0  0  0  0  0  0  0  0
    5.4302    1.3738   19.3892 C   0  0  0  0  0  0  0  0  0  0  0  0
    4.8748    0.8178   18.0835 C   0  0  0  0  0  0  0  0  0  0  0  0
    4.6247   -0.5715   18.1702 O   0  0  0  0  0  0  0  0  0  0  0  0
    5.8248   -1.2971   18.4370 C   0  0  0  0  0  0  0  0  0  0  0  0
    6.4432   -0.8839   19.7723 C   0  0  0  0  0  0  0  0  0  0  0  0
   13.9934    2.7535   22.4032 C   0  0  0  0  0  0  0  0  0  0  0  0
   14.7180    3.6341   22.3376 N   0  0  0  0  0  0  0  0  0  0  0  0
  1  2  1  0
  2  3  2  0
  2  4  1  0
  4  5  2  0
  5  6  1  0
  6  7  2  0
  7  8  1  0
  8  9  2  0
  9 10  1  0
 10 11  1  0
 11 12  1  0
 12 13  2  0
 12 14  1  0
 14 15  1  0
 15 16  1  0
 16 17  1  0
 17 18  1  0
 18 19  1  0
  7 20  1  0
 20 21  3  0
  9  4  1  0
 19 14  1  0
M  END
