CVD-0002035|dock_bobby27042020.36|mol2|12|dock2
     RDKit          3D

 26 28  0  0  0  0  0  0  0  0999 V2000
   12.6218    4.3276   22.4872 C   0  0  0  0  0  0  0  0  0  0  0  0
   11.1306    4.1815   22.6528 C   0  0  0  0  0  0  0  0  0  0  0  0
   10.3419    5.3235   22.5495 C   0  0  0  0  0  0  0  0  0  0  0  0
    8.9773    5.2292   22.7033 C   0  0  0  0  0  0  0  0  0  0  0  0
    8.3529    4.0805   22.9447 N   0  0  0  0  0  0  0  0  0  0  0  0
    9.0983    2.9740   23.0268 C   0  0  0  0  0  0  0  0  0  0  0  0
   10.4887    2.9525   22.9047 C   0  0  0  0  0  0  0  0  0  0  0  0
   11.2924    1.7810   23.0137 N   0  0  0  0  0  0  0  0  0  0  0  0
   11.1191    0.6656   23.7805 C   0  0  0  0  0  0  0  0  0  0  0  0
   10.1897    0.5426   24.5714 O   0  0  0  0  0  0  0  0  0  0  0  0
   12.1214   -0.4586   23.6511 C   0  0  0  0  0  0  0  0  0  0  0  0
   13.1345   -0.5525   24.6115 C   0  0  0  0  0  0  0  0  0  0  0  0
   14.0791   -1.5586   24.5597 C   0  0  0  0  0  0  0  0  0  0  0  0
   14.0504   -2.4743   23.5372 C   0  0  0  0  0  0  0  0  0  0  0  0
   13.0768   -2.4045   22.5573 C   0  0  0  0  0  0  0  0  0  0  0  0
   12.0878   -1.4158   22.5999 C   0  0  0  0  0  0  0  0  0  0  0  0
   11.0489   -1.3412   21.6269 N   0  0  0  0  0  0  0  0  0  0  0  0
    9.7318   -0.9538   21.7529 C   0  0  0  0  0  0  0  0  0  0  0  0
    9.2013   -0.5833   22.7946 O   0  0  0  0  0  0  0  0  0  0  0  0
    9.0723   -1.0304   20.5466 N   0  0  0  0  0  0  0  0  0  0  0  0
    7.7280   -0.7309   20.2091 C   0  0  0  0  0  0  0  0  0  0  0  0
    6.6766   -0.6827   21.1199 C   0  0  0  0  0  0  0  0  0  0  0  0
    5.4033   -0.3782   20.6698 C   0  0  0  0  0  0  0  0  0  0  0  0
    5.2133   -0.1314   19.3299 C   0  0  0  0  0  0  0  0  0  0  0  0
    6.1992   -0.1701   18.4341 N   0  0  0  0  0  0  0  0  0  0  0  0
    7.4241   -0.4648   18.8787 C   0  0  0  0  0  0  0  0  0  0  0  0
  1  2  1  0
  2  3  2  0
  3  4  1  0
  4  5  2  0
  5  6  1  0
  6  7  2  0
  7  8  1  0
  8  9  1  0
  9 10  2  0
  9 11  1  0
 11 12  2  0
 12 13  1  0
 13 14  2  0
 14 15  1  0
 15 16  2  0
 16 17  1  0
 17 18  1  0
 18 19  2  0
 18 20  1  0
 20 21  1  0
 21 22  2  0
 22 23  1  0
 23 24  2  0
 24 25  1  0
 25 26  2  0
  7  2  1  0
 16 11  1  0
 26 21  1  0
M  END
