CVD-0003131|dock_bobby27042020.46|mol2|16|dock2
     RDKit          3D

 18 21  0  0  0  0  0  0  0  0999 V2000
    9.8833   -6.0025   25.6561 O   0  0  0  0  0  0  0  0  0  0  0  0
    9.4398   -5.3204   24.6317 C   0  0  0  0  0  0  0  0  0  0  0  0
   10.1719   -4.2207   24.1447 C   0  0  0  0  0  0  0  0  0  0  0  0
    9.6742   -3.5152   23.0531 C   0  0  0  0  0  0  0  0  0  0  0  0
    8.4724   -3.9346   22.4970 C   0  0  0  0  0  0  0  0  0  0  0  0
    7.8072   -5.0293   23.0343 C   0  0  0  0  0  0  0  0  0  0  0  0
    8.2794   -5.7166   24.0855 N   0  0  0  0  0  0  0  0  0  0  0  0
    6.5028   -5.5062   22.4487 C   0  0  0  0  0  0  0  0  0  0  0  0
    6.6028   -6.9609   22.1519 C   0  0  0  0  0  0  0  0  0  0  0  0
    6.4561   -6.0012   21.0388 C   0  0  0  0  0  0  0  0  0  0  0  0
   10.3756   -2.3289   22.4556 C   0  0  0  0  0  0  0  0  0  0  0  0
    9.7180   -1.4740   21.8698 O   0  0  0  0  0  0  0  0  0  0  0  0
   11.7070   -2.2171   22.5681 N   0  0  0  0  0  0  0  0  0  0  0  0
   12.4472   -1.0902   22.0103 C   0  0  0  0  0  0  0  0  0  0  0  0
   13.9444   -1.0628   22.0138 C   0  0  0  0  0  0  0  0  0  0  0  0
   13.1956   -0.0735   22.8532 C   0  0  0  0  0  0  0  0  0  0  0  0
   13.1734    0.4271   24.2618 C   0  0  0  0  0  0  0  0  0  0  0  0
   13.1508    1.3978   23.1154 C   0  0  0  0  0  0  0  0  0  0  0  0
  1  2  1  0
  2  3  2  0
  3  4  1  0
  4  5  2  0
  5  6  1  0
  6  7  2  0
  6  8  1  0
  8  9  1  0
  9 10  1  0
  4 11  1  0
 11 12  2  0
 11 13  1  0
 14 13  1  0
 14 15  1  0
 15 16  1  0
 16 17  1  0
 17 18  1  0
  7  2  1  0
 10  8  1  0
 16 14  1  0
 18 16  1  0
M  END
