CVD-0000361|dock_bobby27042020.13|mol2|16|dock1
     RDKit          3D

 24 26  0  0  0  0  0  0  0  0999 V2000
    5.6363   -1.7744   18.4149 C   0  0  0  0  0  0  0  0  0  0  0  0
    5.9189   -2.4890   19.7038 C   0  0  0  0  0  0  0  0  0  0  0  0
    5.4881   -3.6169   19.9152 O   0  0  0  0  0  0  0  0  0  0  0  0
    6.6565   -1.8432   20.6398 N   0  0  0  0  0  0  0  0  0  0  0  0
    6.9813   -2.4328   21.9405 C   0  0  0  0  0  0  0  0  0  0  0  0
    8.4805   -2.4083   22.1740 C   0  0  0  0  0  0  0  0  0  0  0  0
    8.9829   -1.0331   22.1016 N   0  0  0  0  0  0  0  0  0  0  0  0
   10.4278   -0.9993   22.3665 C   0  0  0  0  0  0  0  0  0  0  0  0
   10.9697    0.4034   22.5018 C   0  0  0  0  0  0  0  0  0  0  0  0
   12.3231    0.6609   22.3733 C   0  0  0  0  0  0  0  0  0  0  0  0
   12.8223    1.9458   22.4898 C   0  0  0  0  0  0  0  0  0  0  0  0
   11.9768    3.0295   22.7435 C   0  0  0  0  0  0  0  0  0  0  0  0
   10.6136    2.7514   22.8932 C   0  0  0  0  0  0  0  0  0  0  0  0
    9.4499    3.9856   23.2555 Cl  0  0  0  0  0  0  0  0  0  0  0  0
   10.1195    1.4669   22.7649 C   0  0  0  0  0  0  0  0  0  0  0  0
   12.6117    4.3756   22.8317 C   0  0  0  0  0  0  0  0  0  0  0  0
   13.3736    4.8816   21.7888 C   0  0  0  0  0  0  0  0  0  0  0  0
   13.9170    6.1386   21.9617 C   0  0  0  0  0  0  0  0  0  0  0  0
   13.7441    6.8742   23.0663 N   0  0  0  0  0  0  0  0  0  0  0  0
   12.9999    6.2789   23.9766 C   0  0  0  0  0  0  0  0  0  0  0  0
   12.7437    7.1915   25.4294 Cl  0  0  0  0  0  0  0  0  0  0  0  0
   12.4197    5.0942   23.9519 N   0  0  0  0  0  0  0  0  0  0  0  0
    8.6926   -0.4888   20.7776 C   0  0  0  0  0  0  0  0  0  0  0  0
    7.1980   -0.4866   20.5129 C   0  0  0  0  0  0  0  0  0  0  0  0
  1  2  1  0
  2  3  2  0
  2  4  1  0
  4  5  1  0
  5  6  1  0
  6  7  1  0
  7  8  1  0
  8  9  1  0
  9 10  2  0
 10 11  1  0
 11 12  2  0
 12 13  1  0
 13 14  1  0
 13 15  2  0
 12 16  1  0
 16 17  2  0
 17 18  1  0
 18 19  2  0
 19 20  1  0
 20 21  1  0
 20 22  2  0
  7 23  1  0
 23 24  1  0
 24  4  1  0
 15  9  1  0
 22 16  1  0
M  END
