CVD-0002619|dock_bobby27042020.76|mol2|32|dock1
     RDKit          3D

 27 30  0  0  0  0  0  0  0  0999 V2000
   14.8715   -2.0226   25.7867 C   0  0  0  0  0  0  0  0  0  0  0  0
   13.7562   -1.5419   24.8905 C   0  0  0  0  0  0  0  0  0  0  0  0
   13.5284   -2.1207   23.6541 C   0  0  0  0  0  0  0  0  0  0  0  0
   12.5079   -1.6843   22.8276 C   0  0  0  0  0  0  0  0  0  0  0  0
   11.6419   -0.6690   23.2252 C   0  0  0  0  0  0  0  0  0  0  0  0
   11.8835   -0.0824   24.4650 C   0  0  0  0  0  0  0  0  0  0  0  0
   12.9200   -0.5089   25.2758 C   0  0  0  0  0  0  0  0  0  0  0  0
   10.4976   -0.1918   22.4046 C   0  0  0  0  0  0  0  0  0  0  0  0
    9.5462   -0.9973   21.7937 C   0  0  0  0  0  0  0  0  0  0  0  0
    9.4246   -2.4996   21.8406 C   0  0  0  0  0  0  0  0  0  0  0  0
    8.0434   -2.9790   21.9252 N   0  0  0  0  0  0  0  0  0  0  0  0
    7.9941   -4.4442   21.8520 C   0  0  0  0  0  0  0  0  0  0  0  0
    6.5694   -4.9619   21.8831 C   0  0  0  0  0  0  0  0  0  0  0  0
    5.7983   -4.4890   23.1095 C   0  0  0  0  0  0  0  0  0  0  0  0
    4.4162   -4.8564   23.1008 O   0  0  0  0  0  0  0  0  0  0  0  0
    5.9499   -2.9758   23.2192 C   0  0  0  0  0  0  0  0  0  0  0  0
    7.4031   -2.5348   23.1661 C   0  0  0  0  0  0  0  0  0  0  0  0
    8.6952   -0.1237   21.1162 C   0  0  0  0  0  0  0  0  0  0  0  0
    9.0541    1.1381   21.2635 N   0  0  0  0  0  0  0  0  0  0  0  0
   10.1649    1.1008   22.0727 N   0  0  0  0  0  0  0  0  0  0  0  0
   10.7488    2.3759   22.3569 C   0  0  0  0  0  0  0  0  0  0  0  0
   12.1085    2.5402   22.5776 C   0  0  0  0  0  0  0  0  0  0  0  0
   12.6174    3.8014   22.8370 C   0  0  0  0  0  0  0  0  0  0  0  0
   11.7730    4.8969   22.8962 C   0  0  0  0  0  0  0  0  0  0  0  0
   10.4090    4.7507   22.7014 C   0  0  0  0  0  0  0  0  0  0  0  0
    9.4846    5.9418   22.7720 C   0  0  0  0  0  0  0  0  0  0  0  0
    9.9135    3.4836   22.4335 C   0  0  0  0  0  0  0  0  0  0  0  0
  1  2  1  0
  2  3  2  0
  3  4  1  0
  4  5  2  0
  5  6  1  0
  6  7  2  0
  5  8  1  0
  8  9  2  0
  9 10  1  0
 10 11  1  0
 11 12  1  0
 12 13  1  0
 13 14  1  0
 14 15  1  0
 14 16  1  0
 16 17  1  0
  9 18  1  0
 18 19  2  0
 19 20  1  0
 20 21  1  0
 21 22  2  0
 22 23  1  0
 23 24  2  0
 24 25  1  0
 25 26  1  0
 25 27  2  0
  7  2  1  0
 20  8  1  0
 27 21  1  0
 17 11  1  0
M  END
