CVD-0001760|dock_bobby27042020.51|mol2|26|dock1
     RDKit          3D

 29 31  0  0  0  0  0  0  0  0999 V2000
    7.0850   -1.1210   26.2206 C   0  0  0  0  0  0  0  0  0  0  0  0
    6.1294   -0.8559   25.0997 C   0  0  0  0  0  0  0  0  0  0  0  0
    6.6719   -1.2971   23.8254 N   0  0  0  0  0  0  0  0  0  0  0  0
    6.7559   -2.5899   23.4714 C   0  0  0  0  0  0  0  0  0  0  0  0
    5.9662   -3.4496   24.1471 N   0  0  0  0  0  0  0  0  0  0  0  0
    5.9378   -4.7327   23.7719 C   0  0  0  0  0  0  0  0  0  0  0  0
    6.7028   -5.2503   22.7350 C   0  0  0  0  0  0  0  0  0  0  0  0
    7.5602   -4.3872   22.0640 C   0  0  0  0  0  0  0  0  0  0  0  0
    7.6125   -3.0490   22.4415 C   0  0  0  0  0  0  0  0  0  0  0  0
    8.5531   -2.1839   21.7747 N   0  0  0  0  0  0  0  0  0  0  0  0
    9.9748   -2.3771   22.0959 C   0  0  0  0  0  0  0  0  0  0  0  0
   10.5106   -1.2469   22.9597 C   0  0  0  0  0  0  0  0  0  0  0  0
   11.6511   -1.6542   23.7909 N   0  0  0  0  0  0  0  0  0  0  0  0
   12.0315   -0.5605   24.6932 C   0  0  0  0  0  0  0  0  0  0  0  0
   13.1820   -0.9592   25.5821 C   0  0  0  0  0  0  0  0  0  0  0  0
   14.3770   -1.4020   24.7794 C   0  0  0  0  0  0  0  0  0  0  0  0
   13.9656   -2.4761   23.7908 C   0  0  0  0  0  0  0  0  0  0  0  0
   12.8019   -2.0194   22.9528 C   0  0  0  0  0  0  0  0  0  0  0  0
    8.2837   -1.2183   20.8053 C   0  0  0  0  0  0  0  0  0  0  0  0
    9.2286   -0.5642   20.3833 O   0  0  0  0  0  0  0  0  0  0  0  0
    6.9894   -1.0391   20.3824 N   0  0  0  0  0  0  0  0  0  0  0  0
    6.4585   -0.1310   19.4302 C   0  0  0  0  0  0  0  0  0  0  0  0
    5.2363    0.5257   19.5478 C   0  0  0  0  0  0  0  0  0  0  0  0
    4.8291    1.3867   18.5433 C   0  0  0  0  0  0  0  0  0  0  0  0
    5.6483    1.5727   17.4541 C   0  0  0  0  0  0  0  0  0  0  0  0
    6.8247    0.9624   17.3143 N   0  0  0  0  0  0  0  0  0  0  0  0
    7.2073    0.1323   18.2886 C   0  0  0  0  0  0  0  0  0  0  0  0
    6.6159   -6.6410   22.3635 C   0  0  0  0  0  0  0  0  0  0  0  0
    6.5476   -7.7507   22.1015 N   0  0  0  0  0  0  0  0  0  0  0  0
  1  2  1  0
  2  3  1  0
  3  4  1  0
  4  5  2  0
  5  6  1  0
  6  7  2  0
  7  8  1  0
  8  9  2  0
  9 10  1  0
 10 11  1  0
 11 12  1  0
 12 13  1  0
 13 14  1  0
 14 15  1  0
 15 16  1  0
 16 17  1  0
 17 18  1  0
 10 19  1  0
 19 20  2  0
 19 21  1  0
 21 22  1  0
 22 23  2  0
 23 24  1  0
 24 25  2  0
 25 26  1  0
 26 27  2  0
  7 28  1  0
 28 29  3  0
  9  4  1  0
 18 13  1  0
 27 22  1  0
M  END
