CVD-0002106|dock_bobby27042020.35|mol2|35|dock1
     RDKit          3D

 23 25  0  0  0  0  0  0  0  0999 V2000
    5.3462   -1.0380   18.2820 N   0  0  0  0  0  0  0  0  0  0  0  0
    6.4301   -0.0325   18.2173 C   0  0  0  0  0  0  0  0  0  0  0  0
    6.6392    0.6928   19.5390 C   0  0  0  0  0  0  0  0  0  0  0  0
    7.3822   -0.1811   20.3933 O   0  0  0  0  0  0  0  0  0  0  0  0
    7.6187    0.4233   21.6735 C   0  0  0  0  0  0  0  0  0  0  0  0
    6.3248    0.5643   22.4279 C   0  0  0  0  0  0  0  0  0  0  0  0
    5.1759    1.0106   21.5615 C   0  0  0  0  0  0  0  0  0  0  0  0
    3.9368    1.3592   22.1222 C   0  0  0  0  0  0  0  0  0  0  0  0
    3.7220    1.3486   23.4739 O   0  0  0  0  0  0  0  0  0  0  0  0
    2.9027    1.8268   21.3114 C   0  0  0  0  0  0  0  0  0  0  0  0
    1.7330    2.2098   21.8859 O   0  0  0  0  0  0  0  0  0  0  0  0
    3.0868    1.9527   19.9419 C   0  0  0  0  0  0  0  0  0  0  0  0
    4.3075    1.6089   19.3925 C   0  0  0  0  0  0  0  0  0  0  0  0
    5.3510    1.1395   20.1915 C   0  0  0  0  0  0  0  0  0  0  0  0
    8.6334   -0.4503   22.3970 C   0  0  0  0  0  0  0  0  0  0  0  0
    9.1396    0.2806   23.6397 C   0  0  0  0  0  0  0  0  0  0  0  0
   10.1863   -0.5032   24.4031 C   0  0  0  0  0  0  0  0  0  0  0  0
    9.6303   -1.7435   24.8501 O   0  0  0  0  0  0  0  0  0  0  0  0
   11.3749   -0.7455   23.4889 C   0  0  0  0  0  0  0  0  0  0  0  0
   11.0414   -1.5153   22.1904 C   0  0  0  0  0  0  0  0  0  0  0  0
   12.1771   -1.5054   21.3243 O   0  0  0  0  0  0  0  0  0  0  0  0
    9.8224   -0.8285   21.5223 C   0  0  0  0  0  0  0  0  0  0  0  0
    9.3509   -1.6872   20.4879 O   0  0  0  0  0  0  0  0  0  0  0  0
  1  2  1  0
  2  3  1  0
  3  4  1  0
  4  5  1  0
  5  6  1  0
  6  7  1  0
  7  8  2  0
  8  9  1  0
  8 10  1  0
 10 11  1  0
 10 12  2  0
 12 13  1  0
 13 14  2  0
  5 15  1  0
 15 16  1  0
 16 17  1  0
 17 18  1  0
 17 19  1  0
 19 20  1  0
 20 21  1  0
 20 22  1  0
 22 23  1  0
 14  3  1  0
 22 15  1  0
 14  7  1  0
M  END
