CVD-0000311|dock_bobby27042020.70|mol2|32|dock3
     RDKit          3D

 23 24  0  0  0  0  0  0  0  0999 V2000
    7.5677    0.0827   18.7363 C   0  0  0  0  0  0  0  0  0  0  0  0
    8.0502    0.1198   20.4193 S   0  0  0  0  0  0  0  0  0  0  0  0
    6.9225   -0.2602   21.2128 O   0  0  0  0  0  0  0  0  0  0  0  0
    8.6711    1.3827   20.6754 O   0  0  0  0  0  0  0  0  0  0  0  0
    9.1723   -1.0061   20.6283 N   0  0  0  0  0  0  0  0  0  0  0  0
    9.6912   -1.2730   21.9751 C   0  0  0  0  0  0  0  0  0  0  0  0
   11.1588   -0.8845   22.0530 C   0  0  0  0  0  0  0  0  0  0  0  0
   11.8775   -1.4035   23.2977 C   0  0  0  0  0  0  0  0  0  0  0  0
   13.0241   -2.3557   22.9680 C   0  0  0  0  0  0  0  0  0  0  0  0
   13.7599   -2.8443   24.2045 C   0  0  0  0  0  0  0  0  0  0  0  0
   14.2101   -1.6599   25.0461 C   0  0  0  0  0  0  0  0  0  0  0  0
   13.0362   -0.7526   25.3354 C   0  0  0  0  0  0  0  0  0  0  0  0
   12.4634   -0.2828   24.0715 N   0  0  0  0  0  0  0  0  0  0  0  0
   11.3685    0.6299   24.4315 C   0  0  0  0  0  0  0  0  0  0  0  0
   11.3643    1.9094   23.6118 C   0  0  0  0  0  0  0  0  0  0  0  0
   10.3488    2.2718   23.0274 O   0  0  0  0  0  0  0  0  0  0  0  0
   12.5581    2.5506   23.6079 N   0  0  0  0  0  0  0  0  0  0  0  0
   12.9738    3.7486   22.9754 C   0  0  0  0  0  0  0  0  0  0  0  0
   14.2468    3.8117   22.4236 C   0  0  0  0  0  0  0  0  0  0  0  0
   14.6670    4.9746   21.8025 C   0  0  0  0  0  0  0  0  0  0  0  0
   13.8018    6.0426   21.7504 C   0  0  0  0  0  0  0  0  0  0  0  0
   12.5745    6.0136   22.2701 N   0  0  0  0  0  0  0  0  0  0  0  0
   12.1772    4.8862   22.8683 C   0  0  0  0  0  0  0  0  0  0  0  0
  1  2  1  0
  2  3  2  0
  2  4  2  0
  2  5  1  0
  5  6  1  0
  6  7  1  0
  8  7  1  0
  8  9  1  0
  9 10  1  0
 10 11  1  0
 11 12  1  0
 12 13  1  0
 13 14  1  0
 14 15  1  0
 15 16  2  0
 15 17  1  0
 17 18  1  0
 18 19  2  0
 19 20  1  0
 20 21  2  0
 21 22  1  0
 22 23  2  0
 13  8  1  0
 23 18  1  0
M  END
