CVD-0002443|dock_bobby27042020.77|mol2|20|dock3
     RDKit          3D

 26 28  0  0  0  0  0  0  0  0999 V2000
    2.5147    1.9411   20.2639 Cl  0  0  0  0  0  0  0  0  0  0  0  0
    3.5612    2.2832   18.8800 C   0  0  0  0  0  0  0  0  0  0  0  0
    4.5339    1.1538   18.5987 C   0  0  0  0  0  0  0  0  0  0  0  0
    4.5270    0.5962   17.5083 O   0  0  0  0  0  0  0  0  0  0  0  0
    5.4018    0.7901   19.5724 N   0  0  0  0  0  0  0  0  0  0  0  0
    5.5016    1.3999   20.8958 C   0  0  0  0  0  0  0  0  0  0  0  0
    6.9542    1.6626   21.2359 C   0  0  0  0  0  0  0  0  0  0  0  0
    7.7609    0.3714   21.1742 C   0  0  0  0  0  0  0  0  0  0  0  0
    7.5927   -0.2701   19.7986 C   0  0  0  0  0  0  0  0  0  0  0  0
    6.1157   -0.4788   19.4809 C   0  0  0  0  0  0  0  0  0  0  0  0
    9.2214    0.6313   21.4748 C   0  0  0  0  0  0  0  0  0  0  0  0
    9.7268    1.7219   21.2264 O   0  0  0  0  0  0  0  0  0  0  0  0
    9.8573   -0.4337   22.0234 N   0  0  0  0  0  0  0  0  0  0  0  0
   11.2079   -0.5831   22.4421 C   0  0  0  0  0  0  0  0  0  0  0  0
   11.9043   -1.7926   22.3901 C   0  0  0  0  0  0  0  0  0  0  0  0
   13.2107   -1.8600   22.8472 C   0  0  0  0  0  0  0  0  0  0  0  0
   13.8411   -0.7485   23.3612 C   0  0  0  0  0  0  0  0  0  0  0  0
   13.1771    0.4630   23.4126 C   0  0  0  0  0  0  0  0  0  0  0  0
   11.8747    0.5518   22.9412 C   0  0  0  0  0  0  0  0  0  0  0  0
   11.2198    1.7817   22.9611 O   0  0  0  0  0  0  0  0  0  0  0  0
   11.8572    2.9602   22.6792 C   0  0  0  0  0  0  0  0  0  0  0  0
   11.2049    4.1599   22.9806 C   0  0  0  0  0  0  0  0  0  0  0  0
   11.8823    5.3311   22.6866 C   0  0  0  0  0  0  0  0  0  0  0  0
   13.1369    5.2763   22.1213 C   0  0  0  0  0  0  0  0  0  0  0  0
   13.6785    4.0383   21.8649 C   0  0  0  0  0  0  0  0  0  0  0  0
   13.0573    2.8826   22.1342 N   0  0  0  0  0  0  0  0  0  0  0  0
  1  2  1  0
  2  3  1  0
  3  4  2  0
  3  5  1  0
  5  6  1  0
  6  7  1  0
  7  8  1  0
  8  9  1  0
  9 10  1  0
  8 11  1  0
 11 12  2  0
 11 13  1  0
 13 14  1  0
 14 15  2  0
 15 16  1  0
 16 17  2  0
 17 18  1  0
 18 19  2  0
 19 20  1  0
 20 21  1  0
 21 22  2  0
 22 23  1  0
 23 24  2  0
 24 25  1  0
 25 26  2  0
 10  5  1  0
 19 14  1  0
 26 21  1  0
M  END
