CVD-0000421|dock_bobby27042020.13|mol2|7|dock2
     RDKit          3D

 22 24  0  0  0  0  0  0  0  0999 V2000
   14.7195   -2.2688   25.7955 C   0  0  0  0  0  0  0  0  0  0  0  0
   13.5607   -2.3558   24.8294 C   0  0  0  0  0  0  0  0  0  0  0  0
   13.5718   -1.2276   23.8147 C   0  0  0  0  0  0  0  0  0  0  0  0
   12.4304   -1.2172   22.8404 C   0  0  0  0  0  0  0  0  0  0  0  0
   12.4600   -1.6622   21.5503 C   0  0  0  0  0  0  0  0  0  0  0  0
   11.2391   -1.5000   20.9545 N   0  0  0  0  0  0  0  0  0  0  0  0
   10.3857   -0.9364   21.8691 C   0  0  0  0  0  0  0  0  0  0  0  0
    9.0397   -0.5737   21.7537 C   0  0  0  0  0  0  0  0  0  0  0  0
    8.4562   -0.8262   20.5119 O   0  0  0  0  0  0  0  0  0  0  0  0
    7.2598   -0.2846   20.1306 C   0  0  0  0  0  0  0  0  0  0  0  0
    7.1879    0.3532   18.9022 C   0  0  0  0  0  0  0  0  0  0  0  0
    5.9757    0.8975   18.5061 C   0  0  0  0  0  0  0  0  0  0  0  0
    5.8374    1.6086   17.1820 C   0  0  0  0  0  0  0  0  0  0  0  0
    4.8995    0.7718   19.3674 C   0  0  0  0  0  0  0  0  0  0  0  0
    5.0758    0.1153   20.5674 C   0  0  0  0  0  0  0  0  0  0  0  0
    6.2402   -0.4160   20.9595 N   0  0  0  0  0  0  0  0  0  0  0  0
    8.3832   -0.0153   22.8383 C   0  0  0  0  0  0  0  0  0  0  0  0
    9.0854    0.1687   24.0015 C   0  0  0  0  0  0  0  0  0  0  0  0
    8.4496    0.7153   25.0631 F   0  0  0  0  0  0  0  0  0  0  0  0
   10.4172   -0.1810   24.1354 C   0  0  0  0  0  0  0  0  0  0  0  0
   11.2267    0.0853   25.6342 Cl  0  0  0  0  0  0  0  0  0  0  0  0
   11.1005   -0.7455   23.0652 C   0  0  0  0  0  0  0  0  0  0  0  0
  1  2  1  0
  2  3  1  0
  3  4  1  0
  4  5  2  0
  5  6  1  0
  6  7  1  0
  7  8  2  0
  8  9  1  0
  9 10  1  0
 10 11  2  0
 11 12  1  0
 12 13  1  0
 12 14  2  0
 14 15  1  0
 15 16  2  0
  8 17  1  0
 17 18  2  0
 18 19  1  0
 18 20  1  0
 20 21  1  0
 20 22  2  0
 22  4  1  0
 22  7  1  0
 16 10  1  0
M  END
