CVD-0000815|dock_bobby27042020.97|mol2|23|dock3
     RDKit          3D

 13 14  0  0  0  0  0  0  0  0999 V2000
   13.9774   -2.5704   25.2954 C   0  0  0  0  0  0  0  0  0  0  0  0
   13.3413   -1.2887   25.6111 N   0  0  0  0  0  0  0  0  0  0  0  0
   13.2601   -0.3567   24.4814 C   0  0  0  0  0  0  0  0  0  0  0  0
   12.2694   -0.8236   23.4433 C   0  0  0  0  0  0  0  0  0  0  0  0
   12.5270   -1.1179   22.1371 C   0  0  0  0  0  0  0  0  0  0  0  0
   11.3786   -1.5088   21.5041 N   0  0  0  0  0  0  0  0  0  0  0  0
   10.3410   -1.4739   22.4035 C   0  0  0  0  0  0  0  0  0  0  0  0
    8.9920   -1.7762   22.2547 C   0  0  0  0  0  0  0  0  0  0  0  0
    8.1522   -1.6517   23.3476 C   0  0  0  0  0  0  0  0  0  0  0  0
    8.6794   -1.2340   24.5413 C   0  0  0  0  0  0  0  0  0  0  0  0
    7.8428   -1.1159   25.6074 F   0  0  0  0  0  0  0  0  0  0  0  0
   10.0060   -0.9259   24.7289 C   0  0  0  0  0  0  0  0  0  0  0  0
   10.8653   -1.0461   23.6378 C   0  0  0  0  0  0  0  0  0  0  0  0
  1  2  1  0
  2  3  1  0
  3  4  1  0
  4  5  2  0
  5  6  1  0
  6  7  1  0
  7  8  2  0
  8  9  1  0
  9 10  2  0
 10 11  1  0
 10 12  1  0
 12 13  2  0
 13  4  1  0
 13  7  1  0
M  END
