CVD-0000123|dock_bobby27042020.99|mol2|35|dock1
     RDKit          3D

 20 21  0  0  0  0  0  0  0  0999 V2000
   13.8873   -1.9726   23.1466 C   0  0  0  0  0  0  0  0  0  0  0  0
   12.5829   -1.2122   23.2488 C   0  0  0  0  0  0  0  0  0  0  0  0
   11.3622   -1.9800   22.7547 C   0  0  0  0  0  0  0  0  0  0  0  0
    9.9862   -1.2632   22.7319 C   0  0  0  0  0  0  0  0  0  0  0  0
    9.8264   -0.4832   24.0441 C   0  0  0  0  0  0  0  0  0  0  0  0
    8.8335   -2.2927   22.5910 C   0  0  0  0  0  0  0  0  0  0  0  0
    8.5920   -3.3060   23.6775 C   0  0  0  0  0  0  0  0  0  0  0  0
    8.0203   -2.8239   24.7553 O   0  0  0  0  0  0  0  0  0  0  0  0
    8.9060   -4.4710   23.5688 O   0  0  0  0  0  0  0  0  0  0  0  0
   10.0136   -0.2761   21.5350 C   0  0  0  0  0  0  0  0  0  0  0  0
    8.8867    0.7072   21.3568 C   0  0  0  0  0  0  0  0  0  0  0  0
    8.7509    1.9075   21.9912 C   0  0  0  0  0  0  0  0  0  0  0  0
    7.6087    2.5411   21.5854 N   0  0  0  0  0  0  0  0  0  0  0  0
    6.9690    1.7494   20.6648 C   0  0  0  0  0  0  0  0  0  0  0  0
    5.7889    1.9393   19.9550 C   0  0  0  0  0  0  0  0  0  0  0  0
    5.3671    0.9490   19.0851 C   0  0  0  0  0  0  0  0  0  0  0  0
    6.0887   -0.2229   18.9083 C   0  0  0  0  0  0  0  0  0  0  0  0
    5.6033   -1.2928   17.9609 C   0  0  0  0  0  0  0  0  0  0  0  0
    7.2643   -0.3937   19.6257 C   0  0  0  0  0  0  0  0  0  0  0  0
    7.7362    0.5806   20.5044 C   0  0  0  0  0  0  0  0  0  0  0  0
  1  2  1  0
  2  3  1  0
  3  4  1  0
  4  5  1  0
  4  6  1  0
  6  7  1  0
  7  8  1  0
  7  9  2  0
  4 10  1  0
 10 11  1  0
 11 12  2  0
 12 13  1  0
 13 14  1  0
 14 15  2  0
 15 16  1  0
 16 17  2  0
 17 18  1  0
 17 19  1  0
 19 20  2  0
 20 11  1  0
 20 14  1  0
M  END
