CVD-0000082|dock_bobby27042020.28|mol2|29|dock1
     RDKit          3D

 17 18  0  0  0  0  0  0  0  0999 V2000
   13.2944   -2.1899   21.2457 C   0  0  0  0  0  0  0  0  0  0  0  0
   12.9271   -1.5277   22.5488 C   0  0  0  0  0  0  0  0  0  0  0  0
   13.8721   -1.5036   23.5701 C   0  0  0  0  0  0  0  0  0  0  0  0
   13.5640   -0.9084   24.7727 C   0  0  0  0  0  0  0  0  0  0  0  0
   12.3870   -0.3418   25.0213 N   0  0  0  0  0  0  0  0  0  0  0  0
   11.4706   -0.3595   24.0483 C   0  0  0  0  0  0  0  0  0  0  0  0
   11.6735   -0.9338   22.7929 C   0  0  0  0  0  0  0  0  0  0  0  0
   10.7026   -0.9573   21.7523 N   0  0  0  0  0  0  0  0  0  0  0  0
    9.4070   -0.4987   21.7556 C   0  0  0  0  0  0  0  0  0  0  0  0
    8.8265    0.0370   22.6950 O   0  0  0  0  0  0  0  0  0  0  0  0
    8.7878   -0.6972   20.5714 N   0  0  0  0  0  0  0  0  0  0  0  0
    7.3785   -0.3736   20.3494 C   0  0  0  0  0  0  0  0  0  0  0  0
    6.9078   -0.8560   18.9619 C   0  0  0  0  0  0  0  0  0  0  0  0
    5.4592   -0.4687   18.6706 C   0  0  0  0  0  0  0  0  0  0  0  0
    5.2408    1.0292   18.8401 C   0  0  0  0  0  0  0  0  0  0  0  0
    5.6772    1.4949   20.2217 C   0  0  0  0  0  0  0  0  0  0  0  0
    7.1361    1.1390   20.4889 C   0  0  0  0  0  0  0  0  0  0  0  0
  1  2  1  0
  2  3  2  0
  3  4  1  0
  4  5  2  0
  5  6  1  0
  6  7  2  0
  7  8  1  0
  8  9  1  0
  9 10  2  0
  9 11  1  0
 11 12  1  0
 12 13  1  0
 13 14  1  0
 14 15  1  0
 15 16  1  0
 16 17  1  0
  7  2  1  0
 17 12  1  0
M  END
