CVD-0000495|dock_bobby27042020.70|mol2|4|dock1
     RDKit          3D

 30 31  0  0  0  0  0  0  0  0999 V2000
   13.9487   -0.0009   23.7258 N   0  0  0  0  0  0  0  0  0  0  0  0
   13.4648   -0.4675   22.5855 C   0  0  0  0  0  0  0  0  0  0  0  0
   14.1507   -1.1101   21.7852 O   0  0  0  0  0  0  0  0  0  0  0  0
   12.0121   -0.1730   22.3042 C   0  0  0  0  0  0  0  0  0  0  0  0
   11.0480   -0.9553   23.1846 C   0  0  0  0  0  0  0  0  0  0  0  0
   11.1618   -2.4541   22.9671 C   0  0  0  0  0  0  0  0  0  0  0  0
    9.9568   -3.1891   23.3696 N   0  0  0  0  0  0  0  0  0  0  0  0
    9.9605   -3.6815   24.7634 C   0  0  0  0  0  0  0  0  0  0  0  0
   10.0499   -5.1896   24.7909 C   0  0  0  0  0  0  0  0  0  0  0  0
    9.9628   -5.7178   26.2191 C   0  0  0  0  0  0  0  0  0  0  0  0
    8.7121   -5.2375   26.9080 C   0  0  0  0  0  0  0  0  0  0  0  0
    8.6060   -3.7314   26.8658 C   0  0  0  0  0  0  0  0  0  0  0  0
    8.6968   -3.1975   25.4426 C   0  0  0  0  0  0  0  0  0  0  0  0
    8.8747   -3.4119   22.5468 C   0  0  0  0  0  0  0  0  0  0  0  0
    8.0567   -4.2701   22.8516 O   0  0  0  0  0  0  0  0  0  0  0  0
    8.7562   -2.6478   21.4078 N   0  0  0  0  0  0  0  0  0  0  0  0
    7.7484   -2.6730   20.3996 C   0  0  0  0  0  0  0  0  0  0  0  0
    6.9703   -3.7898   20.0901 C   0  0  0  0  0  0  0  0  0  0  0  0
    6.0071   -3.8004   19.1642 N   0  0  0  0  0  0  0  0  0  0  0  0
    5.8012   -2.6828   18.4747 C   0  0  0  0  0  0  0  0  0  0  0  0
    6.5202   -1.5266   18.6791 C   0  0  0  0  0  0  0  0  0  0  0  0
    7.5130   -1.5001   19.6549 C   0  0  0  0  0  0  0  0  0  0  0  0
    8.2929   -0.2243   19.8768 C   0  0  0  0  0  0  0  0  0  0  0  0
    8.2303    0.2817   21.2402 N   0  0  0  0  0  0  0  0  0  0  0  0
    8.9486    1.3542   21.6274 C   0  0  0  0  0  0  0  0  0  0  0  0
    9.6904    1.9605   20.8589 O   0  0  0  0  0  0  0  0  0  0  0  0
    8.7960    1.7150   22.9170 N   0  0  0  0  0  0  0  0  0  0  0  0
    9.5054    2.8532   23.4836 C   0  0  0  0  0  0  0  0  0  0  0  0
   10.0738    2.5336   24.8411 C   0  0  0  0  0  0  0  0  0  0  0  0
    9.0605    2.1406   25.7528 O   0  0  0  0  0  0  0  0  0  0  0  0
  1  2  1  0
  2  3  2  0
  2  4  1  0
  4  5  1  0
  5  6  1  0
  6  7  1  0
  7  8  1  0
  8  9  1  0
  9 10  1  0
 10 11  1  0
 11 12  1  0
 12 13  1  0
  7 14  1  0
 14 15  2  0
 14 16  1  0
 16 17  1  0
 17 18  2  0
 18 19  1  0
 19 20  2  0
 20 21  1  0
 21 22  2  0
 22 23  1  0
 23 24  1  0
 24 25  1  0
 25 26  2  0
 25 27  1  0
 27 28  1  0
 28 29  1  0
 29 30  1  0
 13  8  1  0
 22 17  1  0
M  END
