CVD-0000823|dock_bobby27042020.83|mol2|15|dock1
     RDKit          3D

 21 22  0  0  0  0  0  0  0  0999 V2000
   12.5194    6.5348   26.3592 C   0  0  0  0  0  0  0  0  0  0  0  0
   11.4391    6.4820   25.3246 C   0  0  0  0  0  0  0  0  0  0  0  0
   11.5642    5.3028   24.4845 N   0  0  0  0  0  0  0  0  0  0  0  0
   12.3941    5.2447   23.4300 C   0  0  0  0  0  0  0  0  0  0  0  0
   13.3885    6.1543   23.3984 N   0  0  0  0  0  0  0  0  0  0  0  0
   14.2281    6.1390   22.3572 C   0  0  0  0  0  0  0  0  0  0  0  0
   14.0971    5.2306   21.3489 C   0  0  0  0  0  0  0  0  0  0  0  0
   14.9704    5.2496   20.3060 F   0  0  0  0  0  0  0  0  0  0  0  0
   13.0993    4.2915   21.3610 C   0  0  0  0  0  0  0  0  0  0  0  0
   12.2054    4.2727   22.4254 C   0  0  0  0  0  0  0  0  0  0  0  0
   11.1159    3.2241   22.4366 C   0  0  0  0  0  0  0  0  0  0  0  0
   11.4341    2.0527   23.2668 N   0  0  0  0  0  0  0  0  0  0  0  0
   10.5110    0.9520   22.9756 C   0  0  0  0  0  0  0  0  0  0  0  0
   10.8175   -0.2395   23.8639 C   0  0  0  0  0  0  0  0  0  0  0  0
   12.2023   -0.6767   23.6735 N   0  0  0  0  0  0  0  0  0  0  0  0
   13.1492    0.4196   23.8993 C   0  0  0  0  0  0  0  0  0  0  0  0
   12.8023    1.6058   23.0180 C   0  0  0  0  0  0  0  0  0  0  0  0
   12.5319   -1.9467   23.3582 C   0  0  0  0  0  0  0  0  0  0  0  0
   11.6797   -2.8147   23.2188 O   0  0  0  0  0  0  0  0  0  0  0  0
   14.0068   -2.2590   23.1906 C   0  0  0  0  0  0  0  0  0  0  0  0
   14.9107   -2.0728   24.6992 Cl  0  0  0  0  0  0  0  0  0  0  0  0
  1  2  1  0
  2  3  1  0
  3  4  1  0
  4  5  2  0
  5  6  1  0
  6  7  2  0
  7  8  1  0
  7  9  1  0
  9 10  2  0
 10 11  1  0
 11 12  1  0
 12 13  1  0
 13 14  1  0
 14 15  1  0
 15 16  1  0
 16 17  1  0
 15 18  1  0
 18 19  2  0
 18 20  1  0
 20 21  1  0
 10  4  1  0
 17 12  1  0
M  END
