CVD-0001449|dock_bobby27042020.81|mol2|6|dock2
     RDKit          3D

 24 26  0  0  0  0  0  0  0  0999 V2000
   14.2901   -2.0462   23.3020 C   0  0  0  0  0  0  0  0  0  0  0  0
   12.7953   -2.0005   23.4235 C   0  0  0  0  0  0  0  0  0  0  0  0
   12.1084   -2.9960   23.2234 O   0  0  0  0  0  0  0  0  0  0  0  0
   12.2209   -0.8167   23.7489 N   0  0  0  0  0  0  0  0  0  0  0  0
   10.7723   -0.6468   23.8815 C   0  0  0  0  0  0  0  0  0  0  0  0
   10.2897    0.4926   23.0032 C   0  0  0  0  0  0  0  0  0  0  0  0
   10.9802    1.7355   23.3594 N   0  0  0  0  0  0  0  0  0  0  0  0
   10.4875    2.8510   22.5383 C   0  0  0  0  0  0  0  0  0  0  0  0
    9.0090    2.7652   22.2447 C   0  0  0  0  0  0  0  0  0  0  0  0
    8.0855    3.3005   23.1297 C   0  0  0  0  0  0  0  0  0  0  0  0
    6.7579    3.2083   22.8438 C   0  0  0  0  0  0  0  0  0  0  0  0
    6.3368    2.5708   21.6547 C   0  0  0  0  0  0  0  0  0  0  0  0
    4.9827    2.4259   21.2714 C   0  0  0  0  0  0  0  0  0  0  0  0
    4.6506    1.7993   20.1088 C   0  0  0  0  0  0  0  0  0  0  0  0
    5.6435    1.2948   19.2831 C   0  0  0  0  0  0  0  0  0  0  0  0
    6.9641    1.4065   19.6073 C   0  0  0  0  0  0  0  0  0  0  0  0
    7.3431    2.0514   20.8069 C   0  0  0  0  0  0  0  0  0  0  0  0
    8.6728    2.1584   21.1205 N   0  0  0  0  0  0  0  0  0  0  0  0
    5.1888    0.4798   17.7824 S   0  0  0  0  0  0  0  0  0  0  0  0
    5.2774   -1.1014   18.0169 N   0  0  0  0  0  0  0  0  0  0  0  0
    6.1720    0.8176   16.7974 O   0  0  0  0  0  0  0  0  0  0  0  0
    3.8153    0.7934   17.5247 O   0  0  0  0  0  0  0  0  0  0  0  0
   12.4169    1.5546   23.1675 C   0  0  0  0  0  0  0  0  0  0  0  0
   12.9384    0.4281   24.0410 C   0  0  0  0  0  0  0  0  0  0  0  0
  1  2  1  0
  2  3  2  0
  2  4  1  0
  4  5  1  0
  5  6  1  0
  6  7  1  0
  7  8  1  0
  8  9  1  0
  9 10  2  0
 10 11  1  0
 11 12  2  0
 12 13  1  0
 13 14  2  0
 14 15  1  0
 15 16  2  0
 16 17  1  0
 17 18  2  0
 15 19  1  0
 19 20  1  0
 19 21  2  0
 19 22  2  0
  7 23  1  0
 23 24  1  0
 24  4  1  0
 18  9  1  0
 17 12  1  0
M  END
