CVD-0001944|dock_bobby27042020.65|mol2|23|dock2
     RDKit          3D

 26 28  0  0  0  0  0  0  0  0999 V2000
   13.6707    5.5353   22.1208 C   0  0  0  0  0  0  0  0  0  0  0  0
   12.3212    5.2318   21.6376 N   0  0  0  0  0  0  0  0  0  0  0  0
   11.4315    4.6486   22.6475 C   0  0  0  0  0  0  0  0  0  0  0  0
   11.4561    3.1431   22.6087 C   0  0  0  0  0  0  0  0  0  0  0  0
   12.3971    2.3181   23.2471 C   0  0  0  0  0  0  0  0  0  0  0  0
   12.0880    0.9981   22.9800 C   0  0  0  0  0  0  0  0  0  0  0  0
   12.8379   -0.1826   23.4755 C   0  0  0  0  0  0  0  0  0  0  0  0
   13.1201   -0.2041   24.8428 C   0  0  0  0  0  0  0  0  0  0  0  0
   13.7579   -1.2861   25.4254 C   0  0  0  0  0  0  0  0  0  0  0  0
   14.1332   -2.3669   24.6600 C   0  0  0  0  0  0  0  0  0  0  0  0
   13.9054   -2.3589   23.2959 C   0  0  0  0  0  0  0  0  0  0  0  0
   13.2982   -1.2625   22.7300 C   0  0  0  0  0  0  0  0  0  0  0  0
   13.1857   -1.2760   21.3836 F   0  0  0  0  0  0  0  0  0  0  0  0
   10.9510    0.9914   22.1853 N   0  0  0  0  0  0  0  0  0  0  0  0
   10.1681   -0.1329   21.6593 C   0  0  0  0  0  0  0  0  0  0  0  0
    9.1119    0.3714   20.8787 O   0  0  0  0  0  0  0  0  0  0  0  0
    8.3562   -0.5912   20.1314 C   0  0  0  0  0  0  0  0  0  0  0  0
    7.6111    0.1483   19.0497 C   0  0  0  0  0  0  0  0  0  0  0  0
    6.5061    1.0320   19.6106 C   0  0  0  0  0  0  0  0  0  0  0  0
    5.5609    0.2627   20.4991 C   0  0  0  0  0  0  0  0  0  0  0  0
    6.3173   -0.4611   21.5891 C   0  0  0  0  0  0  0  0  0  0  0  0
    7.4014   -1.3537   21.0195 C   0  0  0  0  0  0  0  0  0  0  0  0
    4.5254    1.1372   21.0468 O   0  0  0  0  0  0  0  0  0  0  0  0
    3.6787    1.7320   20.2075 C   0  0  0  0  0  0  0  0  0  0  0  0
    3.6335    1.5807   18.9978 O   0  0  0  0  0  0  0  0  0  0  0  0
   10.5736    2.2848   21.9707 C   0  0  0  0  0  0  0  0  0  0  0  0
  1  2  1  0
  2  3  1  0
  3  4  1  0
  4  5  1  0
  5  6  2  0
  6  7  1  0
  7  8  2  0
  8  9  1  0
  9 10  2  0
 10 11  1  0
 11 12  2  0
 12 13  1  0
  6 14  1  0
 14 15  1  0
 15 16  1  0
 16 17  1  0
 17 18  1  0
 18 19  1  0
 19 20  1  0
 20 21  1  0
 21 22  1  0
 20 23  1  0
 23 24  1  0
 24 25  2  0
 14 26  1  0
 26  4  2  0
 12  7  1  0
 22 17  1  0
M  END
