CVD-0003905|dock_bobby27042020.15|mol2|12|dock1
     RDKit          3D

 29 32  0  0  0  0  0  0  0  0999 V2000
   13.8576   -2.0886   24.4409 O   0  0  0  0  0  0  0  0  0  0  0  0
   13.8588   -0.9537   23.5706 C   0  0  0  0  0  0  0  0  0  0  0  0
   12.9621    0.1746   24.0840 C   0  0  0  0  0  0  0  0  0  0  0  0
   11.4720   -0.1651   23.9858 C   0  0  0  0  0  0  0  0  0  0  0  0
   11.1264   -0.5082   22.5437 C   0  0  0  0  0  0  0  0  0  0  0  0
   11.9748   -1.6624   22.0185 C   0  0  0  0  0  0  0  0  0  0  0  0
   13.4601   -1.3252   22.1475 C   0  0  0  0  0  0  0  0  0  0  0  0
    9.6589   -0.7974   22.3870 N   0  0  0  0  0  0  0  0  0  0  0  0
    8.9921   -0.0177   21.4034 C   0  0  0  0  0  0  0  0  0  0  0  0
    9.6333    0.8156   20.7931 O   0  0  0  0  0  0  0  0  0  0  0  0
    7.5278   -0.0897   21.0000 C   0  0  0  0  0  0  0  0  0  0  0  0
    7.3156    0.5033   19.6126 C   0  0  0  0  0  0  0  0  0  0  0  0
    5.8492    0.4630   19.2348 C   0  0  0  0  0  0  0  0  0  0  0  0
    5.0578    1.1806   20.2308 N   0  0  0  0  0  0  0  0  0  0  0  0
    5.1874    0.6139   21.5689 C   0  0  0  0  0  0  0  0  0  0  0  0
    6.6473    0.6443   22.0089 C   0  0  0  0  0  0  0  0  0  0  0  0
    4.0853    2.0765   19.9661 C   0  0  0  0  0  0  0  0  0  0  0  0
    3.4732    2.6552   20.8548 O   0  0  0  0  0  0  0  0  0  0  0  0
    3.7835    2.3271   18.5017 C   0  0  0  0  0  0  0  0  0  0  0  0
    2.3686    3.3712   18.3144 Cl  0  0  0  0  0  0  0  0  0  0  0  0
    9.0976   -1.7773   23.1725 C   0  0  0  0  0  0  0  0  0  0  0  0
    8.5872   -1.6091   24.4570 C   0  0  0  0  0  0  0  0  0  0  0  0
    8.0118   -2.7788   25.0095 C   0  0  0  0  0  0  0  0  0  0  0  0
    7.4878   -2.8859   26.4126 C   0  0  0  0  0  0  0  0  0  0  0  0
    7.5536   -4.3169   26.9000 C   0  0  0  0  0  0  0  0  0  0  0  0
    7.1563   -5.2934   25.9306 C   0  0  0  0  0  0  0  0  0  0  0  0
    7.8262   -5.2518   24.5722 C   0  0  0  0  0  0  0  0  0  0  0  0
    8.0785   -3.8311   24.1623 C   0  0  0  0  0  0  0  0  0  0  0  0
    8.8473   -3.4284   22.6606 S   0  0  0  0  0  0  0  0  0  0  0  0
  1  2  1  0
  2  3  1  0
  3  4  1  0
  4  5  1  0
  5  6  1  0
  6  7  1  0
  5  8  1  0
  8  9  1  0
  9 10  2  0
  9 11  1  0
 11 12  1  0
 12 13  1  0
 13 14  1  0
 14 15  1  0
 15 16  1  0
 14 17  1  0
 17 18  2  0
 17 19  1  0
 19 20  1  0
  8 21  1  0
 21 22  2  0
 22 23  1  0
 23 24  1  0
 24 25  1  0
 25 26  1  0
 26 27  1  0
 27 28  1  0
 28 29  1  0
  7  2  1  0
 16 11  1  0
 29 21  1  0
 28 23  2  0
M  END
