CVD-0001033|dock_bobby27042020.68|mol2|22|dock1
     RDKit          3D

 35 39  0  0  0  0  0  0  0  0999 V2000
   13.2722    9.3327   25.6796 C   0  0  0  0  0  0  0  0  0  0  0  0
   13.5036    8.8136   24.3716 O   0  0  0  0  0  0  0  0  0  0  0  0
   13.4035    7.4654   24.1328 C   0  0  0  0  0  0  0  0  0  0  0  0
   12.7315    6.6164   24.9967 C   0  0  0  0  0  0  0  0  0  0  0  0
   12.6592    5.2651   24.7109 C   0  0  0  0  0  0  0  0  0  0  0  0
   13.2466    4.7163   23.5676 C   0  0  0  0  0  0  0  0  0  0  0  0
   13.1062    3.2580   23.3630 C   0  0  0  0  0  0  0  0  0  0  0  0
   13.8020    2.4915   22.5729 N   0  0  0  0  0  0  0  0  0  0  0  0
   13.2710    1.2195   22.7567 C   0  0  0  0  0  0  0  0  0  0  0  0
   13.5849   -0.0173   22.1991 C   0  0  0  0  0  0  0  0  0  0  0  0
   12.8651   -1.1385   22.5844 C   0  0  0  0  0  0  0  0  0  0  0  0
   11.8316   -1.0493   23.5210 C   0  0  0  0  0  0  0  0  0  0  0  0
   11.0696   -2.1670   23.9444 N   0  0  0  0  0  0  0  0  0  0  0  0
    9.7821   -2.2694   24.3580 C   0  0  0  0  0  0  0  0  0  0  0  0
    8.9801   -1.3446   24.4486 O   0  0  0  0  0  0  0  0  0  0  0  0
    9.3771   -3.6820   24.7213 C   0  0  0  0  0  0  0  0  0  0  0  0
    9.1272   -3.8084   26.2190 C   0  0  0  0  0  0  0  0  0  0  0  0
    8.6850   -5.2145   26.5683 C   0  0  0  0  0  0  0  0  0  0  0  0
    7.4848   -5.5621   25.8123 N   0  0  0  0  0  0  0  0  0  0  0  0
    7.6917   -5.5074   24.3693 C   0  0  0  0  0  0  0  0  0  0  0  0
    8.1240   -4.1041   23.9573 C   0  0  0  0  0  0  0  0  0  0  0  0
    6.3800   -6.1497   26.3163 C   0  0  0  0  0  0  0  0  0  0  0  0
    5.4257   -6.3832   25.5992 O   0  0  0  0  0  0  0  0  0  0  0  0
    6.3346   -6.5069   27.7910 C   0  0  0  0  0  0  0  0  0  0  0  0
    5.3513   -7.6283   28.0333 C   0  0  0  0  0  0  0  0  0  0  0  0
    5.2273   -7.9365   29.5218 C   0  0  0  0  0  0  0  0  0  0  0  0
    4.8514   -6.7081   30.3085 C   0  0  0  0  0  0  0  0  0  0  0  0
    5.8187   -5.5762   30.0548 C   0  0  0  0  0  0  0  0  0  0  0  0
    5.9501   -5.2666   28.5697 C   0  0  0  0  0  0  0  0  0  0  0  0
   11.5222    0.1904   24.0752 C   0  0  0  0  0  0  0  0  0  0  0  0
   12.2545    1.2899   23.6740 C   0  0  0  0  0  0  0  0  0  0  0  0
   12.1316    2.6030   24.0794 O   0  0  0  0  0  0  0  0  0  0  0  0
   13.9165    5.5983   22.7172 C   0  0  0  0  0  0  0  0  0  0  0  0
   14.7744    5.0394   21.1205 Br  0  0  0  0  0  0  0  0  0  0  0  0
   13.9956    6.9513   22.9924 C   0  0  0  0  0  0  0  0  0  0  0  0
  1  2  1  0
  2  3  1  0
  3  4  2  0
  4  5  1  0
  5  6  2  0
  6  7  1  0
  7  8  2  0
  8  9  1  0
  9 10  2  0
 10 11  1  0
 11 12  2  0
 12 13  1  0
 13 14  1  0
 14 15  2  0
 14 16  1  0
 16 17  1  0
 17 18  1  0
 18 19  1  0
 19 20  1  0
 20 21  1  0
 19 22  1  0
 22 23  2  0
 22 24  1  0
 24 25  1  0
 25 26  1  0
 26 27  1  0
 27 28  1  0
 28 29  1  0
 12 30  1  0
 30 31  2  0
 31 32  1  0
  6 33  1  0
 33 34  1  0
 33 35  2  0
 35  3  1  0
 32  7  1  0
 31  9  1  0
 21 16  1  0
 29 24  1  0
M  END
