CVD-0002328|dock_bobby27042020.49|mol2|15|dock3
     RDKit          3D

 33 36  0  0  0  0  0  0  0  0999 V2000
   13.1753    5.8846   23.1013 C   0  0  0  0  0  0  0  0  0  0  0  0
   11.7913    5.3311   22.9286 C   0  0  0  0  0  0  0  0  0  0  0  0
   10.7994    6.0247   23.1233 O   0  0  0  0  0  0  0  0  0  0  0  0
   11.6701    4.0315   22.5624 N   0  0  0  0  0  0  0  0  0  0  0  0
   12.7705    3.0978   22.3032 C   0  0  0  0  0  0  0  0  0  0  0  0
   12.5247    1.7811   22.9928 C   0  0  0  0  0  0  0  0  0  0  0  0
   11.2379    1.2023   22.5730 N   0  0  0  0  0  0  0  0  0  0  0  0
   10.1822    2.1485   22.9372 C   0  0  0  0  0  0  0  0  0  0  0  0
   10.3653    3.4667   22.2236 C   0  0  0  0  0  0  0  0  0  0  0  0
   11.0129   -0.0990   23.2019 C   0  0  0  0  0  0  0  0  0  0  0  0
    9.7141   -0.7719   22.7273 C   0  0  0  0  0  0  0  0  0  0  0  0
    9.2146   -0.4842   21.6572 O   0  0  0  0  0  0  0  0  0  0  0  0
    9.1543   -1.6931   23.5386 N   0  0  0  0  0  0  0  0  0  0  0  0
    7.8295   -2.2166   23.2490 C   0  0  0  0  0  0  0  0  0  0  0  0
    7.8453   -3.7129   23.2346 C   0  0  0  0  0  0  0  0  0  0  0  0
    8.3790   -4.1988   24.5149 N   0  0  0  0  0  0  0  0  0  0  0  0
    9.7504   -3.7232   24.7501 C   0  0  0  0  0  0  0  0  0  0  0  0
    9.7517   -2.2233   24.7682 C   0  0  0  0  0  0  0  0  0  0  0  0
    8.0058   -5.7262   24.9456 S   0  0  0  0  0  0  0  0  0  0  0  0
    7.7353   -5.6969   26.3493 O   0  0  0  0  0  0  0  0  0  0  0  0
    9.0530   -6.5576   24.4388 O   0  0  0  0  0  0  0  0  0  0  0  0
    6.5169   -6.1542   24.1115 C   0  0  0  0  0  0  0  0  0  0  0  0
    5.3184   -6.1551   24.8070 C   0  0  0  0  0  0  0  0  0  0  0  0
    4.1509   -6.4975   24.1455 C   0  0  0  0  0  0  0  0  0  0  0  0
    4.1785   -6.8371   22.8034 C   0  0  0  0  0  0  0  0  0  0  0  0
    5.3845   -6.8246   22.1572 C   0  0  0  0  0  0  0  0  0  0  0  0
    5.4156   -7.1584   20.8388 F   0  0  0  0  0  0  0  0  0  0  0  0
    6.5690   -6.4927   22.7677 C   0  0  0  0  0  0  0  0  0  0  0  0
   12.2017   -1.0030   22.9970 C   0  0  0  0  0  0  0  0  0  0  0  0
   13.2067   -1.2569   23.9750 C   0  0  0  0  0  0  0  0  0  0  0  0
   14.1878   -2.1052   23.5574 C   0  0  0  0  0  0  0  0  0  0  0  0
   13.8864   -2.5989   21.9602 S   0  0  0  0  0  0  0  0  0  0  0  0
   12.4611   -1.6800   21.8421 C   0  0  0  0  0  0  0  0  0  0  0  0
  1  2  1  0
  2  3  2  0
  2  4  1  0
  4  5  1  0
  5  6  1  0
  6  7  1  0
  7  8  1  0
  8  9  1  0
  7 10  1  0
 10 11  1  0
 11 12  2  0
 11 13  1  0
 13 14  1  0
 14 15  1  0
 15 16  1  0
 16 17  1  0
 17 18  1  0
 16 19  1  0
 19 20  2  0
 19 21  2  0
 19 22  1  0
 22 23  2  0
 23 24  1  0
 24 25  2  0
 25 26  1  0
 26 27  1  0
 26 28  2  0
 10 29  1  0
 29 30  1  0
 30 31  2  0
 31 32  1  0
 32 33  1  0
  9  4  1  0
 18 13  1  0
 28 22  1  0
 33 29  2  0
M  END
