CVD-0003291|dock_bobby27042020.60|mol2|17|dock2
     RDKit          3D

 16 17  0  0  0  0  0  0  0  0999 V2000
   13.4929    4.4540   22.4866 C   0  0  0  0  0  0  0  0  0  0  0  0
   12.6489    3.2778   22.6848 N   0  0  0  0  0  0  0  0  0  0  0  0
   13.0803    1.9722   22.8213 C   0  0  0  0  0  0  0  0  0  0  0  0
   14.3516    1.6469   22.7562 O   0  0  0  0  0  0  0  0  0  0  0  0
   11.9802    1.1416   23.0244 C   0  0  0  0  0  0  0  0  0  0  0  0
   11.9776   -0.3565   23.2176 C   0  0  0  0  0  0  0  0  0  0  0  0
   12.1332   -1.0579   21.9615 N   0  0  0  0  0  0  0  0  0  0  0  0
   13.2860   -1.7008   21.7088 C   0  0  0  0  0  0  0  0  0  0  0  0
   13.3708   -2.3205   20.5321 N   0  0  0  0  0  0  0  0  0  0  0  0
   14.2087   -1.7069   22.5351 O   0  0  0  0  0  0  0  0  0  0  0  0
   10.8239    1.9948   23.0187 C   0  0  0  0  0  0  0  0  0  0  0  0
    9.4559    1.7730   23.1675 C   0  0  0  0  0  0  0  0  0  0  0  0
    8.5733    2.8401   23.1189 C   0  0  0  0  0  0  0  0  0  0  0  0
    9.0303    4.1277   22.9243 C   0  0  0  0  0  0  0  0  0  0  0  0
   10.3829    4.3851   22.7692 C   0  0  0  0  0  0  0  0  0  0  0  0
   11.2663    3.3124   22.8152 C   0  0  0  0  0  0  0  0  0  0  0  0
  1  2  1  0
  2  3  1  0
  3  4  1  0
  3  5  2  0
  5  6  1  0
  6  7  1  0
  7  8  1  0
  8  9  1  0
  8 10  2  0
  5 11  1  0
 11 12  2  0
 12 13  1  0
 13 14  2  0
 14 15  1  0
 15 16  2  0
 16  2  1  0
 16 11  1  0
M  END
