CVD-0003577|dock_bobby27042020.16|mol2|12|dock3
     RDKit          3D

 25 27  0  0  0  0  0  0  0  0999 V2000
   11.2289    4.7324   23.0893 C   0  0  0  0  0  0  0  0  0  0  0  0
   11.0179    3.3002   23.2626 N   0  0  0  0  0  0  0  0  0  0  0  0
   11.9570    2.3628   23.4481 C   0  0  0  0  0  0  0  0  0  0  0  0
   11.2812    1.1917   23.5877 C   0  0  0  0  0  0  0  0  0  0  0  0
   11.8732   -0.0109   23.7939 N   0  0  0  0  0  0  0  0  0  0  0  0
   13.3246   -0.1749   24.0028 C   0  0  0  0  0  0  0  0  0  0  0  0
   13.5082   -1.6650   24.3089 C   0  0  0  0  0  0  0  0  0  0  0  0
   12.1491   -2.0629   24.8434 C   0  0  0  0  0  0  0  0  0  0  0  0
   11.1896   -1.2651   23.9057 C   0  0  0  0  0  0  0  0  0  0  0  0
   11.0250   -1.9258   22.5381 C   0  0  0  0  0  0  0  0  0  0  0  0
   11.4082   -1.2197   21.4865 N   0  0  0  0  0  0  0  0  0  0  0  0
   10.5549   -3.0624   22.4516 O   0  0  0  0  0  0  0  0  0  0  0  0
    9.8834    1.5288   23.4730 C   0  0  0  0  0  0  0  0  0  0  0  0
    8.6112    0.7309   23.5225 C   0  0  0  0  0  0  0  0  0  0  0  0
    8.5184   -0.2572   22.4467 N   0  0  0  0  0  0  0  0  0  0  0  0
    7.4023   -1.1759   22.6894 C   0  0  0  0  0  0  0  0  0  0  0  0
    7.3359   -2.2230   21.5931 C   0  0  0  0  0  0  0  0  0  0  0  0
    7.1897   -1.5838   20.2835 N   0  0  0  0  0  0  0  0  0  0  0  0
    8.2600   -0.6129   20.0353 C   0  0  0  0  0  0  0  0  0  0  0  0
    8.3198    0.4047   21.1600 C   0  0  0  0  0  0  0  0  0  0  0  0
    6.1978   -1.8951   19.4246 C   0  0  0  0  0  0  0  0  0  0  0  0
    5.3558   -2.7442   19.6881 O   0  0  0  0  0  0  0  0  0  0  0  0
    6.1801   -1.1422   18.1087 C   0  0  0  0  0  0  0  0  0  0  0  0
    5.8093    0.5689   18.3575 Cl  0  0  0  0  0  0  0  0  0  0  0  0
    9.7439    2.8247   23.2853 N   0  0  0  0  0  0  0  0  0  0  0  0
  1  2  1  0
  2  3  1  0
  3  4  2  0
  4  5  1  0
  5  6  1  0
  6  7  1  0
  7  8  1  0
  8  9  1  0
  9 10  1  0
 10 11  1  0
 10 12  2  0
  4 13  1  0
 13 14  1  0
 14 15  1  0
 15 16  1  0
 16 17  1  0
 17 18  1  0
 18 19  1  0
 19 20  1  0
 18 21  1  0
 21 22  2  0
 21 23  1  0
 23 24  1  0
 13 25  2  0
 25  2  1  0
  9  5  1  0
 20 15  1  0
M  END
