CVD-0000939|dock_bobby27042020.40|mol2|3|dock1
     RDKit          3D

 23 25  0  0  0  0  0  0  0  0999 V2000
   15.4224   -2.6552   24.2579 F   0  0  0  0  0  0  0  0  0  0  0  0
   14.3812   -1.8854   23.8407 C   0  0  0  0  0  0  0  0  0  0  0  0
   13.7450   -2.2182   22.6759 C   0  0  0  0  0  0  0  0  0  0  0  0
   12.6873   -1.4300   22.2585 C   0  0  0  0  0  0  0  0  0  0  0  0
   12.2774   -0.3288   22.9968 C   0  0  0  0  0  0  0  0  0  0  0  0
   12.9537   -0.0327   24.1720 C   0  0  0  0  0  0  0  0  0  0  0  0
   14.0134   -0.8106   24.6035 C   0  0  0  0  0  0  0  0  0  0  0  0
   11.1158    0.5273   22.5334 C   0  0  0  0  0  0  0  0  0  0  0  0
   11.2525    1.9021   22.9964 N   0  0  0  0  0  0  0  0  0  0  0  0
   12.1538    2.7489   22.4850 C   0  0  0  0  0  0  0  0  0  0  0  0
   12.9347    2.4326   21.5888 O   0  0  0  0  0  0  0  0  0  0  0  0
   12.1744    4.1102   23.0520 C   0  0  0  0  0  0  0  0  0  0  0  0
   11.1521    4.8965   23.5382 C   0  0  0  0  0  0  0  0  0  0  0  0
   11.6360    6.1484   23.9885 C   0  0  0  0  0  0  0  0  0  0  0  0
   12.9642    6.2924   23.8451 C   0  0  0  0  0  0  0  0  0  0  0  0
   13.6887    4.9098   23.1548 S   0  0  0  0  0  0  0  0  0  0  0  0
    9.7850   -0.0345   23.0579 C   0  0  0  0  0  0  0  0  0  0  0  0
    8.5896    0.6680   22.4500 C   0  0  0  0  0  0  0  0  0  0  0  0
    8.3410    0.2856   21.0208 C   0  0  0  0  0  0  0  0  0  0  0  0
    8.6822   -0.9471   20.6049 C   0  0  0  0  0  0  0  0  0  0  0  0
    9.1343   -1.9438   21.6287 C   0  0  0  0  0  0  0  0  0  0  0  0
    9.0168   -3.1639   21.4472 O   0  0  0  0  0  0  0  0  0  0  0  0
    9.6844   -1.4810   22.7804 N   0  0  0  0  0  0  0  0  0  0  0  0
  1  2  1  0
  2  3  2  0
  3  4  1  0
  4  5  2  0
  5  6  1  0
  6  7  2  0
  5  8  1  0
  8  9  1  0
  9 10  1  0
 10 11  2  0
 10 12  1  0
 12 13  2  0
 13 14  1  0
 14 15  2  0
 15 16  1  0
  8 17  1  0
 17 18  1  0
 18 19  1  0
 19 20  2  0
 20 21  1  0
 21 22  2  0
 21 23  1  0
  7  2  1  0
 16 12  1  0
 23 17  1  0
M  END
