CVD-0002454|dock_bobby27042020.20|mol2|8|dock1
     RDKit          3D

 29 31  0  0  0  0  0  0  0  0999 V2000
   14.1223    6.9002   22.6145 C   0  0  0  0  0  0  0  0  0  0  0  0
   13.4918    5.6165   23.0966 C   0  0  0  0  0  0  0  0  0  0  0  0
   12.5427    5.6216   24.1053 C   0  0  0  0  0  0  0  0  0  0  0  0
   11.9631    4.4486   24.5543 C   0  0  0  0  0  0  0  0  0  0  0  0
   12.3306    3.2378   23.9935 C   0  0  0  0  0  0  0  0  0  0  0  0
   11.7352    2.0926   24.4625 O   0  0  0  0  0  0  0  0  0  0  0  0
   12.1589    0.8058   23.9899 C   0  0  0  0  0  0  0  0  0  0  0  0
   11.4186   -0.2463   24.7818 C   0  0  0  0  0  0  0  0  0  0  0  0
   10.9789   -1.5114   24.0615 C   0  0  0  0  0  0  0  0  0  0  0  0
    9.9595   -1.0942   23.1059 N   0  0  0  0  0  0  0  0  0  0  0  0
    9.9236   -1.6072   21.8678 C   0  0  0  0  0  0  0  0  0  0  0  0
   10.7508   -2.4378   21.5041 O   0  0  0  0  0  0  0  0  0  0  0  0
    8.8571   -1.1617   20.9089 C   0  0  0  0  0  0  0  0  0  0  0  0
    8.1387   -2.1248   20.2084 C   0  0  0  0  0  0  0  0  0  0  0  0
    7.1469   -1.7648   19.3138 C   0  0  0  0  0  0  0  0  0  0  0  0
    6.8361   -0.4285   19.0860 C   0  0  0  0  0  0  0  0  0  0  0  0
    5.7818   -0.0452   18.1347 C   0  0  0  0  0  0  0  0  0  0  0  0
    5.1223   -0.8214   17.4794 O   0  0  0  0  0  0  0  0  0  0  0  0
    7.5552    0.5336   19.7876 C   0  0  0  0  0  0  0  0  0  0  0  0
    8.5480    0.1781   20.6837 C   0  0  0  0  0  0  0  0  0  0  0  0
   10.4946   -2.5689   24.9564 N   0  0  0  0  0  0  0  0  0  0  0  0
    9.1143   -2.3543   25.3984 C   0  0  0  0  0  0  0  0  0  0  0  0
    8.7274   -3.3392   26.4788 C   0  0  0  0  0  0  0  0  0  0  0  0
    8.9031   -4.7713   26.0206 C   0  0  0  0  0  0  0  0  0  0  0  0
    8.6002   -5.7296   27.0381 O   0  0  0  0  0  0  0  0  0  0  0  0
   10.3288   -4.9418   25.5103 C   0  0  0  0  0  0  0  0  0  0  0  0
   10.6601   -3.9211   24.4383 C   0  0  0  0  0  0  0  0  0  0  0  0
   13.2805    3.2106   22.9829 C   0  0  0  0  0  0  0  0  0  0  0  0
   13.8484    4.3953   22.5480 C   0  0  0  0  0  0  0  0  0  0  0  0
  1  2  1  0
  2  3  2  0
  3  4  1  0
  4  5  2  0
  5  6  1  0
  6  7  1  0
  7  8  1  0
  8  9  1  0
  9 10  1  0
 10 11  1  0
 11 12  2  0
 11 13  1  0
 13 14  2  0
 14 15  1  0
 15 16  2  0
 16 17  1  0
 17 18  2  0
 16 19  1  0
 19 20  2  0
  9 21  1  0
 21 22  1  0
 22 23  1  0
 23 24  1  0
 24 25  1  0
 24 26  1  0
 26 27  1  0
  5 28  1  0
 28 29  2  0
 29  2  1  0
 20 13  1  0
 27 21  1  0
M  END
