CVD-0002579|dock_bobby27042020.62|mol2|33|dock2
     RDKit          3D

 37 40  0  0  0  0  0  0  0  0999 V2000
   14.3552    5.7129   21.1813 C   0  0  0  0  0  0  0  0  0  0  0  0
   13.9171    5.2845   22.5123 N   0  0  0  0  0  0  0  0  0  0  0  0
   12.4782    5.0217   22.6226 C   0  0  0  0  0  0  0  0  0  0  0  0
   12.1778    3.5462   22.5947 C   0  0  0  0  0  0  0  0  0  0  0  0
   13.0892    2.5244   22.9113 C   0  0  0  0  0  0  0  0  0  0  0  0
   12.4870    1.2838   22.7871 C   0  0  0  0  0  0  0  0  0  0  0  0
   13.1288   -0.0376   23.0295 C   0  0  0  0  0  0  0  0  0  0  0  0
   13.6146   -0.3880   24.2923 C   0  0  0  0  0  0  0  0  0  0  0  0
   14.2072   -1.6184   24.5225 C   0  0  0  0  0  0  0  0  0  0  0  0
   14.3223   -2.5401   23.5080 C   0  0  0  0  0  0  0  0  0  0  0  0
   13.8486   -2.2327   22.2469 C   0  0  0  0  0  0  0  0  0  0  0  0
   13.2756   -1.0009   22.0359 C   0  0  0  0  0  0  0  0  0  0  0  0
   12.8509   -0.7539   20.7755 F   0  0  0  0  0  0  0  0  0  0  0  0
   11.1457    1.5548   22.3872 N   0  0  0  0  0  0  0  0  0  0  0  0
   10.9793    2.9295   22.2741 C   0  0  0  0  0  0  0  0  0  0  0  0
    9.8080    0.5644   22.0546 S   0  0  0  0  0  0  0  0  0  0  0  0
    9.0234    1.3101   21.1201 O   0  0  0  0  0  0  0  0  0  0  0  0
   10.3077   -0.7195   21.6706 O   0  0  0  0  0  0  0  0  0  0  0  0
    8.8694    0.4375   23.5379 C   0  0  0  0  0  0  0  0  0  0  0  0
    8.3400    1.5638   24.1366 C   0  0  0  0  0  0  0  0  0  0  0  0
    7.6210    1.5100   25.2607 N   0  0  0  0  0  0  0  0  0  0  0  0
    7.4094    0.3104   25.8107 C   0  0  0  0  0  0  0  0  0  0  0  0
    7.8955   -0.8625   25.2720 C   0  0  0  0  0  0  0  0  0  0  0  0
    7.6227   -2.0876   25.9195 O   0  0  0  0  0  0  0  0  0  0  0  0
    8.5086   -3.1199   25.9769 C   0  0  0  0  0  0  0  0  0  0  0  0
    9.5655   -3.1927   25.3714 O   0  0  0  0  0  0  0  0  0  0  0  0
    8.0399   -4.2113   26.8868 C   0  0  0  0  0  0  0  0  0  0  0  0
    6.7613   -4.1588   27.4308 C   0  0  0  0  0  0  0  0  0  0  0  0
    6.3041   -5.1554   28.2742 C   0  0  0  0  0  0  0  0  0  0  0  0
    7.1332   -6.2220   28.5794 C   0  0  0  0  0  0  0  0  0  0  0  0
    8.4113   -6.2933   28.0503 C   0  0  0  0  0  0  0  0  0  0  0  0
    8.8578   -5.2906   27.2077 C   0  0  0  0  0  0  0  0  0  0  0  0
    6.5598   -7.4966   29.6609 S   0  0  0  0  0  0  0  0  0  0  0  0
    6.2102   -6.8398   31.0785 N   0  0  0  0  0  0  0  0  0  0  0  0
    5.3361   -8.0022   29.1151 O   0  0  0  0  0  0  0  0  0  0  0  0
    7.6496   -8.4017   29.8708 O   0  0  0  0  0  0  0  0  0  0  0  0
    8.6503   -0.8051   24.1099 C   0  0  0  0  0  0  0  0  0  0  0  0
  1  2  1  0
  2  3  1  0
  3  4  1  0
  4  5  1  0
  5  6  2  0
  6  7  1  0
  7  8  2  0
  8  9  1  0
  9 10  2  0
 10 11  1  0
 11 12  2  0
 12 13  1  0
  6 14  1  0
 14 15  1  0
 14 16  1  0
 16 17  2  0
 16 18  2  0
 16 19  1  0
 19 20  2  0
 20 21  1  0
 21 22  2  0
 22 23  1  0
 23 24  1  0
 24 25  1  0
 25 26  2  0
 25 27  1  0
 27 28  2  0
 28 29  1  0
 29 30  2  0
 30 31  1  0
 31 32  2  0
 30 33  1  0
 33 34  1  0
 33 35  2  0
 33 36  2  0
 23 37  2  0
 15  4  2  0
 37 19  1  0
 12  7  1  0
 32 27  1  0
M  END
