CVD-0002639|dock_bobby27042020.90|mol2|36|dock3
     RDKit          3D

 24 25  0  0  0  0  0  0  0  0999 V2000
    6.6815   -5.1390   21.3628 C   0  0  0  0  0  0  0  0  0  0  0  0
    6.2543   -4.2400   20.2399 C   0  0  0  0  0  0  0  0  0  0  0  0
    5.5436   -4.6587   19.3322 O   0  0  0  0  0  0  0  0  0  0  0  0
    6.7161   -2.9671   20.3490 N   0  0  0  0  0  0  0  0  0  0  0  0
    6.5228   -1.8378   19.5077 C   0  0  0  0  0  0  0  0  0  0  0  0
    5.4077   -1.6949   18.6844 C   0  0  0  0  0  0  0  0  0  0  0  0
    5.1775   -0.6250   17.9202 N   0  0  0  0  0  0  0  0  0  0  0  0
    6.0658    0.3623   17.9697 C   0  0  0  0  0  0  0  0  0  0  0  0
    7.2192    0.3149   18.7219 C   0  0  0  0  0  0  0  0  0  0  0  0
    7.4844   -0.8083   19.5054 C   0  0  0  0  0  0  0  0  0  0  0  0
    8.6390   -0.9612   20.2580 N   0  0  0  0  0  0  0  0  0  0  0  0
    8.8687   -0.6430   21.6606 C   0  0  0  0  0  0  0  0  0  0  0  0
    9.4868   -1.7539   22.3636 N   0  0  0  0  0  0  0  0  0  0  0  0
    8.8150   -2.5447   23.2313 C   0  0  0  0  0  0  0  0  0  0  0  0
    7.6479   -2.3583   23.5588 O   0  0  0  0  0  0  0  0  0  0  0  0
    9.5371   -3.5760   23.7216 N   0  0  0  0  0  0  0  0  0  0  0  0
    9.0197   -4.4944   24.7368 C   0  0  0  0  0  0  0  0  0  0  0  0
    9.9835   -5.6776   24.9611 C   0  0  0  0  0  0  0  0  0  0  0  0
    9.5064   -6.6165   26.0674 C   0  0  0  0  0  0  0  0  0  0  0  0
    9.2467   -5.8597   27.3636 C   0  0  0  0  0  0  0  0  0  0  0  0
    8.2706   -4.7129   27.1437 C   0  0  0  0  0  0  0  0  0  0  0  0
    8.7738   -3.7589   26.0652 C   0  0  0  0  0  0  0  0  0  0  0  0
    9.5664    0.6685   21.9496 C   0  0  0  0  0  0  0  0  0  0  0  0
    9.6899    1.5157   21.1153 O   0  0  0  0  0  0  0  0  0  0  0  0
  1  2  1  0
  2  3  2  0
  2  4  1  0
  4  5  1  0
  5  6  2  0
  6  7  1  0
  7  8  2  0
  8  9  1  0
  9 10  2  0
 10 11  1  0
 11 12  1  0
 12 13  1  0
 13 14  1  0
 14 15  2  0
 14 16  1  0
 16 17  1  0
 17 18  1  0
 18 19  1  0
 19 20  1  0
 20 21  1  0
 21 22  1  0
 12 23  1  0
 23 24  2  0
 10  5  1  0
 22 17  1  0
M  END
