CVD-0000986|dock_bobby27042020.25|mol2|26|dock1
     RDKit          3D

 37 41  0  0  0  0  0  0  0  0999 V2000
   14.3871    6.3894   21.6537 C   0  0  0  0  0  0  0  0  0  0  0  0
   13.1122    6.1895   22.2612 O   0  0  0  0  0  0  0  0  0  0  0  0
   12.6323    4.9190   22.4604 C   0  0  0  0  0  0  0  0  0  0  0  0
   11.2634    4.7464   22.5753 C   0  0  0  0  0  0  0  0  0  0  0  0
   10.7368    3.4833   22.7766 C   0  0  0  0  0  0  0  0  0  0  0  0
   11.5680    2.3739   22.8663 C   0  0  0  0  0  0  0  0  0  0  0  0
   12.9401    2.5592   22.7494 C   0  0  0  0  0  0  0  0  0  0  0  0
   13.4749    3.8196   22.5479 C   0  0  0  0  0  0  0  0  0  0  0  0
   11.0071    1.0306   23.0803 C   0  0  0  0  0  0  0  0  0  0  0  0
   11.6689   -0.0712   23.2820 N   0  0  0  0  0  0  0  0  0  0  0  0
   10.6793   -1.0386   23.4226 C   0  0  0  0  0  0  0  0  0  0  0  0
   10.7398   -2.4099   23.6559 C   0  0  0  0  0  0  0  0  0  0  0  0
    9.5589   -3.1297   23.7503 C   0  0  0  0  0  0  0  0  0  0  0  0
    8.3149   -2.5136   23.6172 C   0  0  0  0  0  0  0  0  0  0  0  0
    7.1601   -3.3277   23.7282 N   0  0  0  0  0  0  0  0  0  0  0  0
    6.9892   -4.6632   23.5663 C   0  0  0  0  0  0  0  0  0  0  0  0
    7.8670   -5.4695   23.2728 O   0  0  0  0  0  0  0  0  0  0  0  0
    5.5626   -5.1197   23.7839 C   0  0  0  0  0  0  0  0  0  0  0  0
    5.4504   -6.6319   23.9619 C   0  0  0  0  0  0  0  0  0  0  0  0
    4.0026   -7.0033   24.2315 C   0  0  0  0  0  0  0  0  0  0  0  0
    3.1446   -6.5872   23.1266 N   0  0  0  0  0  0  0  0  0  0  0  0
    1.7607   -7.0318   23.3482 C   0  0  0  0  0  0  0  0  0  0  0  0
    0.8106   -6.5815   22.2646 C   0  0  0  0  0  0  0  0  0  0  0  0
    0.0861   -5.4071   22.3976 C   0  0  0  0  0  0  0  0  0  0  0  0
   -0.7872   -4.9937   21.4074 C   0  0  0  0  0  0  0  0  0  0  0  0
   -0.9595   -5.7475   20.2534 C   0  0  0  0  0  0  0  0  0  0  0  0
   -0.2358   -6.9256   20.1209 C   0  0  0  0  0  0  0  0  0  0  0  0
    0.6364   -7.3347   21.1140 C   0  0  0  0  0  0  0  0  0  0  0  0
   -1.9050   -5.3046   19.1831 C   0  0  0  0  0  0  0  0  0  0  0  0
   -2.2911   -6.3001   18.3932 F   0  0  0  0  0  0  0  0  0  0  0  0
   -3.0200   -4.7715   19.6697 F   0  0  0  0  0  0  0  0  0  0  0  0
   -1.3805   -4.3848   18.3812 F   0  0  0  0  0  0  0  0  0  0  0  0
    3.2075   -5.1266   23.0052 C   0  0  0  0  0  0  0  0  0  0  0  0
    4.6189   -4.6615   22.6818 C   0  0  0  0  0  0  0  0  0  0  0  0
    8.2568   -1.1393   23.3835 C   0  0  0  0  0  0  0  0  0  0  0  0
    9.4480   -0.4453   23.2938 C   0  0  0  0  0  0  0  0  0  0  0  0
    9.6389    0.9033   23.0702 O   0  0  0  0  0  0  0  0  0  0  0  0
  1  2  1  0
  2  3  1  0
  3  4  2  0
  4  5  1  0
  5  6  2  0
  6  7  1  0
  7  8  2  0
  6  9  1  0
  9 10  2  0
 10 11  1  0
 11 12  2  0
 12 13  1  0
 13 14  2  0
 14 15  1  0
 15 16  1  0
 16 17  2  0
 16 18  1  0
 18 19  1  0
 19 20  1  0
 20 21  1  0
 21 22  1  0
 22 23  1  0
 23 24  2  0
 24 25  1  0
 25 26  2  0
 26 27  1  0
 27 28  2  0
 26 29  1  0
 29 30  1  0
 29 31  1  0
 29 32  1  0
 21 33  1  0
 33 34  1  0
 14 35  1  0
 35 36  2  0
 36 37  1  0
  8  3  1  0
 37  9  1  0
 36 11  1  0
 34 18  1  0
 28 23  1  0
M  END
