CVD-0002063|dock_bobby27042020.93|mol2|10|dock2
     RDKit          3D

 34 37  0  0  0  0  0  0  0  0999 V2000
    5.2439    0.7078   17.6401 C   0  0  0  0  0  0  0  0  0  0  0  0
    6.2968    0.3451   18.5924 N   0  0  0  0  0  0  0  0  0  0  0  0
    5.9682   -0.7942   19.4559 C   0  0  0  0  0  0  0  0  0  0  0  0
    7.0551   -1.0607   20.4639 C   0  0  0  0  0  0  0  0  0  0  0  0
    8.3331   -0.4713   20.4540 C   0  0  0  0  0  0  0  0  0  0  0  0
    9.0707   -0.9397   21.5245 C   0  0  0  0  0  0  0  0  0  0  0  0
   10.4662   -0.5758   21.8952 C   0  0  0  0  0  0  0  0  0  0  0  0
   11.5391   -1.3288   21.4389 C   0  0  0  0  0  0  0  0  0  0  0  0
   11.2741   -2.3705   20.6174 F   0  0  0  0  0  0  0  0  0  0  0  0
   12.8498   -1.0897   21.7709 C   0  0  0  0  0  0  0  0  0  0  0  0
   13.1215   -0.0299   22.6147 C   0  0  0  0  0  0  0  0  0  0  0  0
   12.0887    0.7705   23.0694 C   0  0  0  0  0  0  0  0  0  0  0  0
   10.7625    0.5444   22.7051 C   0  0  0  0  0  0  0  0  0  0  0  0
    9.7105    1.5196   23.1748 C   0  0  0  0  0  0  0  0  0  0  0  0
    9.6745    2.7455   22.4015 N   0  0  0  0  0  0  0  0  0  0  0  0
   10.7077    3.6295   22.3371 C   0  0  0  0  0  0  0  0  0  0  0  0
   10.7211    4.7616   23.1502 C   0  0  0  0  0  0  0  0  0  0  0  0
   11.7909    5.6325   23.0509 C   0  0  0  0  0  0  0  0  0  0  0  0
   12.8176    5.3635   22.1531 C   0  0  0  0  0  0  0  0  0  0  0  0
   12.7136    4.2079   21.3848 C   0  0  0  0  0  0  0  0  0  0  0  0
   11.6862    3.3553   21.4683 N   0  0  0  0  0  0  0  0  0  0  0  0
   13.9484    6.2490   22.0228 C   0  0  0  0  0  0  0  0  0  0  0  0
   14.8616    6.9254   21.9065 N   0  0  0  0  0  0  0  0  0  0  0  0
    8.2345   -1.8620   22.2052 N   0  0  0  0  0  0  0  0  0  0  0  0
    7.0100   -1.9218   21.5521 C   0  0  0  0  0  0  0  0  0  0  0  0
    8.5260   -2.8198   23.5730 S   0  0  0  0  0  0  0  0  0  0  0  0
    7.4309   -2.6099   24.4679 O   0  0  0  0  0  0  0  0  0  0  0  0
    8.8413   -4.1295   23.0928 O   0  0  0  0  0  0  0  0  0  0  0  0
    9.9738   -2.1334   24.2997 C   0  0  0  0  0  0  0  0  0  0  0  0
    9.8874   -1.0145   25.1103 C   0  0  0  0  0  0  0  0  0  0  0  0
   11.0521   -0.5047   25.6574 C   0  0  0  0  0  0  0  0  0  0  0  0
   12.2459   -1.1284   25.3731 C   0  0  0  0  0  0  0  0  0  0  0  0
   12.3442   -2.2056   24.5927 N   0  0  0  0  0  0  0  0  0  0  0  0
   11.2162   -2.6926   24.0676 C   0  0  0  0  0  0  0  0  0  0  0  0
  1  2  1  0
  2  3  1  0
  3  4  1  0
  4  5  1  0
  5  6  2  0
  6  7  1  0
  7  8  2  0
  8  9  1  0
  8 10  1  0
 10 11  2  0
 11 12  1  0
 12 13  2  0
 13 14  1  0
 14 15  1  0
 15 16  1  0
 16 17  2  0
 17 18  1  0
 18 19  2  0
 19 20  1  0
 20 21  2  0
 19 22  1  0
 22 23  3  0
  6 24  1  0
 24 25  1  0
 24 26  1  0
 26 27  2  0
 26 28  2  0
 26 29  1  0
 29 30  2  0
 30 31  1  0
 31 32  2  0
 32 33  1  0
 33 34  2  0
 25  4  2  0
 34 29  1  0
 13  7  1  0
 21 16  1  0
M  END
