CVD-0002147|dock_bobby27042020.7|mol2|13|dock2
     RDKit          3D

 16 16  0  0  0  0  0  0  0  0999 V2000
   13.5495    5.3973   21.3950 C   0  0  0  0  0  0  0  0  0  0  0  0
   13.3918    4.9140   23.0708 S   0  0  0  0  0  0  0  0  0  0  0  0
   14.6761    4.4855   23.5320 O   0  0  0  0  0  0  0  0  0  0  0  0
   12.7294    5.9674   23.7761 O   0  0  0  0  0  0  0  0  0  0  0  0
   12.4250    3.6360   23.1193 N   0  0  0  0  0  0  0  0  0  0  0  0
   12.9514    2.3079   22.7883 C   0  0  0  0  0  0  0  0  0  0  0  0
   12.2369    1.1744   23.5360 C   0  0  0  0  0  0  0  0  0  0  0  0
   10.7676    1.1757   23.2356 C   0  0  0  0  0  0  0  0  0  0  0  0
    9.9767    0.4405   24.0161 N   0  0  0  0  0  0  0  0  0  0  0  0
   10.2583    1.8457   22.2783 N   0  0  0  0  0  0  0  0  0  0  0  0
   12.8479   -0.1722   23.1824 C   0  0  0  0  0  0  0  0  0  0  0  0
   12.4459   -0.8570   22.0442 C   0  0  0  0  0  0  0  0  0  0  0  0
   13.0007   -2.0849   21.7240 C   0  0  0  0  0  0  0  0  0  0  0  0
   13.9630   -2.6433   22.5377 C   0  0  0  0  0  0  0  0  0  0  0  0
   14.3711   -1.9749   23.6720 C   0  0  0  0  0  0  0  0  0  0  0  0
   13.8169   -0.7469   23.9931 C   0  0  0  0  0  0  0  0  0  0  0  0
  1  2  1  0
  2  3  2  0
  2  4  2  0
  2  5  1  0
  5  6  1  0
  6  7  1  0
  7  8  1  0
  8  9  1  0
  8 10  2  0
  7 11  1  0
 11 12  2  0
 12 13  1  0
 13 14  2  0
 14 15  1  0
 15 16  2  0
 16 11  1  0
M  END
