CVD-0001410|dock_bobby27042020.67|mol2|14|dock3
     RDKit          3D

 15 16  0  0  0  0  0  0  0  0999 V2000
   13.8534   -0.6124   23.5295 C   0  0  0  0  0  0  0  0  0  0  0  0
   12.4923   -0.4051   23.0523 N   0  0  0  0  0  0  0  0  0  0  0  0
   11.5535   -1.5110   23.1685 C   0  0  0  0  0  0  0  0  0  0  0  0
   10.3652   -1.2808   22.2740 C   0  0  0  0  0  0  0  0  0  0  0  0
    9.7389   -0.0126   22.5873 O   0  0  0  0  0  0  0  0  0  0  0  0
   10.6203    1.0283   22.5897 C   0  0  0  0  0  0  0  0  0  0  0  0
   10.1152    2.3044   22.3879 C   0  0  0  0  0  0  0  0  0  0  0  0
   10.9485    3.4041   22.4622 C   0  0  0  0  0  0  0  0  0  0  0  0
   12.2944    3.2257   22.7400 C   0  0  0  0  0  0  0  0  0  0  0  0
   12.8312    1.9628   22.9470 C   0  0  0  0  0  0  0  0  0  0  0  0
   11.9930    0.8534   22.8725 C   0  0  0  0  0  0  0  0  0  0  0  0
   13.3590    4.6347   22.8124 S   0  0  0  0  0  0  0  0  0  0  0  0
   13.3061    5.3837   21.3985 N   0  0  0  0  0  0  0  0  0  0  0  0
   12.8155    5.5318   23.7876 O   0  0  0  0  0  0  0  0  0  0  0  0
   14.6961    4.1519   22.9861 O   0  0  0  0  0  0  0  0  0  0  0  0
  1  2  1  0
  2  3  1  0
  3  4  1  0
  4  5  1  0
  5  6  1  0
  6  7  2  0
  7  8  1  0
  8  9  2  0
  9 10  1  0
 10 11  2  0
  9 12  1  0
 12 13  1  0
 12 14  2  0
 12 15  2  0
 11  2  1  0
 11  6  1  0
M  END
