CVD-0003453|dock_bobby27042020.30|mol2|47|dock1
     RDKit          3D

 21 23  0  0  0  0  0  0  0  0999 V2000
    6.6912   -0.9197   22.5560 F   0  0  0  0  0  0  0  0  0  0  0  0
    6.2773   -0.2844   21.4492 C   0  0  0  0  0  0  0  0  0  0  0  0
    5.0198    0.0776   21.4656 N   0  0  0  0  0  0  0  0  0  0  0  0
    4.5591    0.7182   20.4132 C   0  0  0  0  0  0  0  0  0  0  0  0
    5.3217    0.9801   19.2549 C   0  0  0  0  0  0  0  0  0  0  0  0
    4.7537    1.6284   18.1907 N   0  0  0  0  0  0  0  0  0  0  0  0
    5.5335    1.7773   17.1412 C   0  0  0  0  0  0  0  0  0  0  0  0
    6.7933    1.3799   16.9758 N   0  0  0  0  0  0  0  0  0  0  0  0
    7.3474    0.7708   18.0073 C   0  0  0  0  0  0  0  0  0  0  0  0
    6.6703    0.5497   19.2301 C   0  0  0  0  0  0  0  0  0  0  0  0
    7.1760   -0.0643   20.4196 C   0  0  0  0  0  0  0  0  0  0  0  0
    8.5334   -0.4547   20.5706 N   0  0  0  0  0  0  0  0  0  0  0  0
    9.3031   -0.2223   21.6854 C   0  0  0  0  0  0  0  0  0  0  0  0
    8.9143    0.3814   22.6806 O   0  0  0  0  0  0  0  0  0  0  0  0
   10.5540   -0.7730   21.5360 N   0  0  0  0  0  0  0  0  0  0  0  0
   11.6663   -0.8017   22.4149 C   0  0  0  0  0  0  0  0  0  0  0  0
   12.6709   -1.7273   22.1561 C   0  0  0  0  0  0  0  0  0  0  0  0
   13.7838   -1.8075   22.9759 C   0  0  0  0  0  0  0  0  0  0  0  0
   13.9087   -0.9682   24.0606 C   0  0  0  0  0  0  0  0  0  0  0  0
   12.9203   -0.0467   24.3275 C   0  0  0  0  0  0  0  0  0  0  0  0
   11.8022    0.0431   23.5146 C   0  0  0  0  0  0  0  0  0  0  0  0
  1  2  1  0
  2  3  2  0
  3  4  1  0
  4  5  2  0
  5  6  1  0
  6  7  2  0
  7  8  1  0
  8  9  2  0
  9 10  1  0
 10 11  2  0
 11 12  1  0
 12 13  1  0
 13 14  2  0
 13 15  1  0
 15 16  1  0
 16 17  2  0
 17 18  1  0
 18 19  2  0
 19 20  1  0
 20 21  2  0
 11  2  1  0
 21 16  1  0
 10  5  1  0
M  END
