CVD-0003747|dock_bobby27042020.87|mol2|2|dock2
     RDKit          3D

 21 22  0  0  0  0  0  0  0  0999 V2000
   13.7492   -2.2908   25.1113 C   0  0  0  0  0  0  0  0  0  0  0  0
   12.6712   -1.6199   24.2953 C   0  0  0  0  0  0  0  0  0  0  0  0
   11.6929   -2.3640   23.6566 C   0  0  0  0  0  0  0  0  0  0  0  0
   10.7038   -1.7500   22.9114 C   0  0  0  0  0  0  0  0  0  0  0  0
   10.6825   -0.3688   22.7968 C   0  0  0  0  0  0  0  0  0  0  0  0
   11.6517    0.4219   23.4294 C   0  0  0  0  0  0  0  0  0  0  0  0
   11.6848    1.9251   23.3448 C   0  0  0  0  0  0  0  0  0  0  0  0
   12.6298   -0.2391   24.1691 C   0  0  0  0  0  0  0  0  0  0  0  0
    9.3850    0.3466   21.8253 S   0  0  0  0  0  0  0  0  0  0  0  0
    9.9843    1.2959   20.9379 O   0  0  0  0  0  0  0  0  0  0  0  0
    8.3547    0.7715   22.7229 O   0  0  0  0  0  0  0  0  0  0  0  0
    8.7560   -0.8191   20.9091 N   0  0  0  0  0  0  0  0  0  0  0  0
    7.3337   -1.1591   21.0452 C   0  0  0  0  0  0  0  0  0  0  0  0
    6.4292   -0.2084   20.2928 C   0  0  0  0  0  0  0  0  0  0  0  0
    5.2850    0.3194   20.8885 C   0  0  0  0  0  0  0  0  0  0  0  0
    4.4403    1.1775   20.2041 C   0  0  0  0  0  0  0  0  0  0  0  0
    4.7214    1.5350   18.9038 C   0  0  0  0  0  0  0  0  0  0  0  0
    5.8537    1.0381   18.2829 C   0  0  0  0  0  0  0  0  0  0  0  0
    6.7112    0.1739   18.9665 C   0  0  0  0  0  0  0  0  0  0  0  0
    7.8838   -0.3107   18.2854 C   0  0  0  0  0  0  0  0  0  0  0  0
    8.7981   -0.6895   17.7150 N   0  0  0  0  0  0  0  0  0  0  0  0
  1  2  1  0
  2  3  2  0
  3  4  1  0
  4  5  2  0
  5  6  1  0
  6  7  1  0
  6  8  2  0
  5  9  1  0
  9 10  2  0
  9 11  2  0
  9 12  1  0
 12 13  1  0
 13 14  1  0
 14 15  2  0
 15 16  1  0
 16 17  2  0
 17 18  1  0
 18 19  2  0
 19 20  1  0
 20 21  3  0
  8  2  1  0
 19 14  1  0
M  END
