CVD-0000338|dock_bobby27042020.56|mol2|22|dock2
     RDKit          3D

 23 25  0  0  0  0  0  0  0  0999 V2000
   11.7034   -1.8150   22.0474 C   0  0  0  0  0  0  0  0  0  0  0  0
   11.2331   -0.3833   22.1723 C   0  0  0  0  0  0  0  0  0  0  0  0
   12.1435    0.6036   22.5449 C   0  0  0  0  0  0  0  0  0  0  0  0
   13.7743    0.1791   22.9519 Cl  0  0  0  0  0  0  0  0  0  0  0  0
   11.7715    1.9362   22.5967 C   0  0  0  0  0  0  0  0  0  0  0  0
   10.5384    2.3426   22.2968 N   0  0  0  0  0  0  0  0  0  0  0  0
    9.6447    1.4013   21.9850 C   0  0  0  0  0  0  0  0  0  0  0  0
    9.9086    0.0284   21.9148 C   0  0  0  0  0  0  0  0  0  0  0  0
    8.7947   -0.9131   21.5832 C   0  0  0  0  0  0  0  0  0  0  0  0
    8.5454   -2.0682   22.3926 C   0  0  0  0  0  0  0  0  0  0  0  0
    7.5326   -2.9190   22.1079 C   0  0  0  0  0  0  0  0  0  0  0  0
    6.6618   -2.7093   20.9892 C   0  0  0  0  0  0  0  0  0  0  0  0
    5.7240   -3.4494   20.6956 O   0  0  0  0  0  0  0  0  0  0  0  0
    6.9435   -1.5721   20.2155 N   0  0  0  0  0  0  0  0  0  0  0  0
    6.1010   -1.2744   19.0553 C   0  0  0  0  0  0  0  0  0  0  0  0
    5.3932   -0.0185   19.2043 N   0  0  0  0  0  0  0  0  0  0  0  0
    5.1280    0.8594   18.0650 C   0  0  0  0  0  0  0  0  0  0  0  0
    4.4555    2.0726   18.6818 C   0  0  0  0  0  0  0  0  0  0  0  0
    4.1377    1.6971   20.1204 C   0  0  0  0  0  0  0  0  0  0  0  0
    4.8771    0.4061   20.3370 C   0  0  0  0  0  0  0  0  0  0  0  0
    4.9821   -0.1875   21.4027 O   0  0  0  0  0  0  0  0  0  0  0  0
    7.9753   -0.7203   20.5281 C   0  0  0  0  0  0  0  0  0  0  0  0
    8.0806    0.3039   19.6768 F   0  0  0  0  0  0  0  0  0  0  0  0
  1  2  1  0
  2  3  2  0
  3  4  1  0
  3  5  1  0
  5  6  2  0
  6  7  1  0
  7  8  2  0
  8  9  1  0
  9 10  1  0
 10 11  2  0
 11 12  1  0
 12 13  2  0
 12 14  1  0
 14 15  1  0
 15 16  1  0
 16 17  1  0
 17 18  1  0
 18 19  1  0
 19 20  1  0
 20 21  2  0
 14 22  1  0
 22 23  1  0
  8  2  1  0
 22  9  2  0
 20 16  1  0
M  END
