CVD-0000954|dock_bobby27042020.25|mol2|32|dock2
     RDKit          3D

 35 40  0  0  0  0  0  0  0  0999 V2000
    5.8163   -6.9920   22.3597 C   0  0  0  0  0  0  0  0  0  0  0  0
    6.7654   -5.8516   22.4476 C   0  0  0  0  0  0  0  0  0  0  0  0
    7.9028   -6.2683   23.2129 O   0  0  0  0  0  0  0  0  0  0  0  0
    8.8180   -5.3559   23.6777 C   0  0  0  0  0  0  0  0  0  0  0  0
    9.6488   -5.6569   24.7464 C   0  0  0  0  0  0  0  0  0  0  0  0
   10.5601   -4.7111   25.1849 C   0  0  0  0  0  0  0  0  0  0  0  0
   10.6382   -3.4755   24.5660 C   0  0  0  0  0  0  0  0  0  0  0  0
    9.8065   -3.1658   23.5000 C   0  0  0  0  0  0  0  0  0  0  0  0
    8.8964   -4.1164   23.0626 C   0  0  0  0  0  0  0  0  0  0  0  0
    9.8832   -1.8121   22.8163 C   0  0  0  0  0  0  0  0  0  0  0  0
    8.7744   -0.9396   23.2948 C   0  0  0  0  0  0  0  0  0  0  0  0
    8.6713    0.2874   22.3791 C   0  0  0  0  0  0  0  0  0  0  0  0
    8.3410    0.0166   20.9431 C   0  0  0  0  0  0  0  0  0  0  0  0
    9.2091   -0.3267   19.9485 C   0  0  0  0  0  0  0  0  0  0  0  0
    8.5420   -0.4974   18.7646 N   0  0  0  0  0  0  0  0  0  0  0  0
    7.2146   -0.2654   18.9764 C   0  0  0  0  0  0  0  0  0  0  0  0
    6.2218   -0.3283   18.0730 N   0  0  0  0  0  0  0  0  0  0  0  0
    4.9901   -0.0572   18.5261 C   0  0  0  0  0  0  0  0  0  0  0  0
    4.7080    0.2721   19.8346 C   0  0  0  0  0  0  0  0  0  0  0  0
    5.7440    0.3328   20.7533 C   0  0  0  0  0  0  0  0  0  0  0  0
    7.0439    0.0598   20.3326 C   0  0  0  0  0  0  0  0  0  0  0  0
    8.9958   -0.5560   24.7111 N   0  0  0  0  0  0  0  0  0  0  0  0
   10.3407   -0.0781   25.0783 C   0  0  0  0  0  0  0  0  0  0  0  0
   10.1780    1.3680   25.5982 C   0  0  0  0  0  0  0  0  0  0  0  0
   10.2520    2.5549   24.7164 C   0  0  0  0  0  0  0  0  0  0  0  0
    8.9768    2.2268   25.3901 C   0  0  0  0  0  0  0  0  0  0  0  0
   11.4299   -0.2601   24.0200 C   0  0  0  0  0  0  0  0  0  0  0  0
   12.6502    0.3952   24.1650 C   0  0  0  0  0  0  0  0  0  0  0  0
   13.6607    0.2286   23.2355 C   0  0  0  0  0  0  0  0  0  0  0  0
   13.4566   -0.5978   22.1505 C   0  0  0  0  0  0  0  0  0  0  0  0
   12.2447   -1.2483   22.0069 C   0  0  0  0  0  0  0  0  0  0  0  0
   11.2089   -1.0979   22.9296 C   0  0  0  0  0  0  0  0  0  0  0  0
    8.0401   -0.6935   25.6832 C   0  0  0  0  0  0  0  0  0  0  0  0
    8.4234   -0.7163   27.1351 C   0  0  0  0  0  0  0  0  0  0  0  0
    6.8534   -0.8074   25.3960 O   0  0  0  0  0  0  0  0  0  0  0  0
  1  2  1  0
  2  3  1  0
  3  4  1  0
  4  5  2  0
  5  6  1  0
  6  7  2  0
  7  8  1  0
  8  9  2  0
  8 10  1  0
 10 11  1  0
 11 12  1  0
 12 13  1  0
 13 14  2  0
 14 15  1  0
 15 16  1  0
 16 17  2  0
 17 18  1  0
 18 19  2  0
 19 20  1  0
 20 21  2  0
 11 22  1  0
 22 23  1  0
 23 24  1  0
 24 25  1  0
 25 26  1  0
 23 27  1  0
 27 28  2  0
 28 29  1  0
 29 30  2  0
 30 31  1  0
 31 32  2  0
 22 33  1  0
 33 34  1  0
 33 35  2  0
  9  4  1  0
 32 10  1  0
 21 13  1  0
 26 24  1  0
 32 27  1  0
 21 16  1  0
M  END
