CVD-0000386|dock_bobby27042020.27|mol2|21|dock2
     RDKit          3D

 27 29  0  0  0  0  0  0  0  0999 V2000
   13.8839    5.9906   21.6542 C   0  0  0  0  0  0  0  0  0  0  0  0
   12.6996    5.2337   21.9984 N   0  0  0  0  0  0  0  0  0  0  0  0
   12.7185    3.8968   22.2905 C   0  0  0  0  0  0  0  0  0  0  0  0
   13.9008    3.2276   22.5777 C   0  0  0  0  0  0  0  0  0  0  0  0
   13.8979    1.9181   22.8593 N   0  0  0  0  0  0  0  0  0  0  0  0
   12.7156    1.2927   22.8525 C   0  0  0  0  0  0  0  0  0  0  0  0
   11.5375    1.8690   22.5878 N   0  0  0  0  0  0  0  0  0  0  0  0
   11.5664    3.1468   22.3149 C   0  0  0  0  0  0  0  0  0  0  0  0
   10.3949    3.7428   22.0460 F   0  0  0  0  0  0  0  0  0  0  0  0
   12.6657   -0.1386   23.1559 C   0  0  0  0  0  0  0  0  0  0  0  0
   14.1834   -0.9839   23.2426 S   0  0  0  0  0  0  0  0  0  0  0  0
   13.3285   -2.4337   23.5939 C   0  0  0  0  0  0  0  0  0  0  0  0
   14.0364   -3.5591   23.7851 F   0  0  0  0  0  0  0  0  0  0  0  0
   12.0030   -2.3012   23.6454 C   0  0  0  0  0  0  0  0  0  0  0  0
   11.6049   -0.9632   23.3917 C   0  0  0  0  0  0  0  0  0  0  0  0
   10.1764   -0.4894   23.3836 C   0  0  0  0  0  0  0  0  0  0  0  0
    9.3186   -1.4415   24.2471 C   0  0  0  0  0  0  0  0  0  0  0  0
    8.6893   -2.4608   23.2930 C   0  0  0  0  0  0  0  0  0  0  0  0
    9.2406   -2.1566   21.9010 C   0  0  0  0  0  0  0  0  0  0  0  0
    9.6364   -0.6733   21.9380 C   0  0  0  0  0  0  0  0  0  0  0  0
    8.4172    0.2132   21.7544 C   0  0  0  0  0  0  0  0  0  0  0  0
    7.8828    0.7491   22.7219 O   0  0  0  0  0  0  0  0  0  0  0  0
    7.9308    0.4072   20.4923 N   0  0  0  0  0  0  0  0  0  0  0  0
    6.8592    1.1458   20.0290 C   0  0  0  0  0  0  0  0  0  0  0  0
    6.0829    1.7965   20.7433 O   0  0  0  0  0  0  0  0  0  0  0  0
    6.7000    1.0961   18.5578 C   0  0  0  0  0  0  0  0  0  0  0  0
    5.6480    1.5808   17.9531 C   0  0  0  0  0  0  0  0  0  0  0  0
  1  2  1  0
  2  3  1  0
  3  4  2  0
  4  5  1  0
  5  6  2  0
  6  7  1  0
  7  8  2  0
  8  9  1  0
  6 10  1  0
 10 11  1  0
 11 12  1  0
 12 13  1  0
 12 14  2  0
 14 15  1  0
 16 15  1  0
 16 17  1  0
 17 18  1  0
 18 19  1  0
 19 20  1  0
 20 21  1  0
 21 22  2  0
 21 23  1  0
 23 24  1  0
 24 25  2  0
 24 26  1  0
 26 27  2  0
  8  3  1  0
 15 10  2  0
 20 16  1  0
M  END
