CVD-0002879|dock_bobby27042020.32|mol2|41|dock2
     RDKit          3D

 23 24  0  0  0  0  0  0  0  0999 V2000
    7.3224   -0.2316   18.6906 C   0  0  0  0  0  0  0  0  0  0  0  0
    7.3898   -0.5867   20.1560 C   0  0  0  0  0  0  0  0  0  0  0  0
    6.4489   -1.4301   20.7237 C   0  0  0  0  0  0  0  0  0  0  0  0
    6.5152   -1.7597   22.0659 C   0  0  0  0  0  0  0  0  0  0  0  0
    7.5230   -1.2422   22.8607 C   0  0  0  0  0  0  0  0  0  0  0  0
    8.4738   -0.3870   22.3169 C   0  0  0  0  0  0  0  0  0  0  0  0
    9.4724    0.1153   23.1774 N   0  0  0  0  0  0  0  0  0  0  0  0
   10.4197    1.1334   22.9941 C   0  0  0  0  0  0  0  0  0  0  0  0
   10.0400    2.4648   22.8235 C   0  0  0  0  0  0  0  0  0  0  0  0
   10.9924    3.4569   22.6836 C   0  0  0  0  0  0  0  0  0  0  0  0
   12.3471    3.1535   22.7224 C   0  0  0  0  0  0  0  0  0  0  0  0
   12.7350    1.8297   22.8815 C   0  0  0  0  0  0  0  0  0  0  0  0
   11.7891    0.8126   22.9963 C   0  0  0  0  0  0  0  0  0  0  0  0
   12.2179   -0.5461   23.1070 N   0  0  0  0  0  0  0  0  0  0  0  0
   13.7668   -1.0524   23.1132 S   0  0  0  0  0  0  0  0  0  0  0  0
   13.7342   -2.8029   23.0594 C   0  0  0  0  0  0  0  0  0  0  0  0
   14.3591   -0.5863   21.8975 O   0  0  0  0  0  0  0  0  0  0  0  0
   14.3492   -0.6424   24.3538 O   0  0  0  0  0  0  0  0  0  0  0  0
   13.3908    4.2124   22.5964 C   0  0  0  0  0  0  0  0  0  0  0  0
   14.5465    3.9863   22.9046 O   0  0  0  0  0  0  0  0  0  0  0  0
   12.9707    5.5761   22.0842 C   0  0  0  0  0  0  0  0  0  0  0  0
   14.3260    6.6410   21.6887 Cl  0  0  0  0  0  0  0  0  0  0  0  0
    8.4003   -0.0795   20.9597 C   0  0  0  0  0  0  0  0  0  0  0  0
  1  2  1  0
  2  3  2  0
  3  4  1  0
  4  5  2  0
  5  6  1  0
  6  7  1  0
  7  8  1  0
  8  9  2  0
  9 10  1  0
 10 11  2  0
 11 12  1  0
 12 13  2  0
 13 14  1  0
 14 15  1  0
 15 16  1  0
 15 17  2  0
 15 18  2  0
 11 19  1  0
 19 20  2  0
 19 21  1  0
 21 22  1  0
  6 23  2  0
 23  2  1  0
 13  8  1  0
M  END
