CVD-0001462|dock_bobby27042020.81|mol2|4|dock3
     RDKit          3D

 31 33  0  0  0  0  0  0  0  0999 V2000
   12.6803    6.3119   24.4026 C   0  0  0  0  0  0  0  0  0  0  0  0
   13.1695    5.3440   23.4276 N   0  0  0  0  0  0  0  0  0  0  0  0
   14.0555    6.0076   22.4779 C   0  0  0  0  0  0  0  0  0  0  0  0
   12.0577    4.6969   22.7354 C   0  0  0  0  0  0  0  0  0  0  0  0
   12.3682    3.2875   22.2632 C   0  0  0  0  0  0  0  0  0  0  0  0
   13.0010    2.4418   23.3593 C   0  0  0  0  0  0  0  0  0  0  0  0
   13.3767    1.0558   22.8951 C   0  0  0  0  0  0  0  0  0  0  0  0
   14.4574    0.8299   22.3594 O   0  0  0  0  0  0  0  0  0  0  0  0
   12.4673    0.1077   23.1037 N   0  0  0  0  0  0  0  0  0  0  0  0
   12.6723   -1.2807   22.7160 C   0  0  0  0  0  0  0  0  0  0  0  0
   11.3760   -2.0662   22.7211 C   0  0  0  0  0  0  0  0  0  0  0  0
   10.3960   -1.5871   21.6905 C   0  0  0  0  0  0  0  0  0  0  0  0
   10.5323   -0.5207   20.8509 C   0  0  0  0  0  0  0  0  0  0  0  0
    9.4286   -0.3973   20.0514 N   0  0  0  0  0  0  0  0  0  0  0  0
    8.5462   -1.4004   20.3685 C   0  0  0  0  0  0  0  0  0  0  0  0
    7.2894   -1.6826   19.8256 C   0  0  0  0  0  0  0  0  0  0  0  0
    6.6893   -0.8472   18.7191 C   0  0  0  0  0  0  0  0  0  0  0  0
    5.9933    0.3523   19.2081 N   0  0  0  0  0  0  0  0  0  0  0  0
    5.0118   -0.0077   20.2357 C   0  0  0  0  0  0  0  0  0  0  0  0
    4.3259    1.2377   20.7661 C   0  0  0  0  0  0  0  0  0  0  0  0
    3.6732    1.9659   19.6759 N   0  0  0  0  0  0  0  0  0  0  0  0
    4.6180    2.2887   18.6021 C   0  0  0  0  0  0  0  0  0  0  0  0
    5.3076    1.0291   18.1103 C   0  0  0  0  0  0  0  0  0  0  0  0
    2.3577    2.3097   19.7025 C   0  0  0  0  0  0  0  0  0  0  0  0
    1.8933    2.9234   18.7432 O   0  0  0  0  0  0  0  0  0  0  0  0
    1.4186    2.0080   20.8294 C   0  0  0  0  0  0  0  0  0  0  0  0
    0.2356    1.4530   20.7362 C   0  0  0  0  0  0  0  0  0  0  0  0
    6.6044   -2.7783   20.3438 C   0  0  0  0  0  0  0  0  0  0  0  0
    7.1485   -3.5533   21.3574 C   0  0  0  0  0  0  0  0  0  0  0  0
    8.3965   -3.2590   21.8860 C   0  0  0  0  0  0  0  0  0  0  0  0
    9.1187   -2.1716   21.3963 C   0  0  0  0  0  0  0  0  0  0  0  0
  1  2  1  0
  2  3  1  0
  2  4  1  0
  4  5  1  0
  5  6  1  0
  6  7  1  0
  7  8  2  0
  7  9  1  0
  9 10  1  0
 10 11  1  0
 11 12  1  0
 12 13  2  0
 13 14  1  0
 14 15  1  0
 15 16  2  0
 16 17  1  0
 17 18  1  0
 18 19  1  0
 19 20  1  0
 20 21  1  0
 21 22  1  0
 22 23  1  0
 21 24  1  0
 24 25  2  0
 24 26  1  0
 26 27  2  0
 16 28  1  0
 28 29  2  0
 29 30  1  0
 30 31  2  0
 31 12  1  0
 31 15  1  0
 23 18  1  0
M  END
