CVD-0003611|dock_bobby27042020.30|mol2|23|dock2
     RDKit          3D

 21 23  0  0  0  0  0  0  0  0999 V2000
   13.4266    5.9784   22.7842 Cl  0  0  0  0  0  0  0  0  0  0  0  0
   12.5239    4.4901   22.7341 C   0  0  0  0  0  0  0  0  0  0  0  0
   12.2126    3.9276   21.5159 C   0  0  0  0  0  0  0  0  0  0  0  0
   11.4947    2.7452   21.4848 C   0  0  0  0  0  0  0  0  0  0  0  0
   11.0862    2.1230   22.6543 C   0  0  0  0  0  0  0  0  0  0  0  0
   10.3064    0.8312   22.6108 C   0  0  0  0  0  0  0  0  0  0  0  0
    9.0176    0.9590   21.9467 N   0  0  0  0  0  0  0  0  0  0  0  0
    8.5173   -0.0015   21.1743 C   0  0  0  0  0  0  0  0  0  0  0  0
    9.1025   -1.0598   20.9662 O   0  0  0  0  0  0  0  0  0  0  0  0
    7.1726    0.2869   20.5410 C   0  0  0  0  0  0  0  0  0  0  0  0
    6.6028   -0.8489   19.7452 C   0  0  0  0  0  0  0  0  0  0  0  0
    6.0512   -0.7876   18.4991 C   0  0  0  0  0  0  0  0  0  0  0  0
    5.6383   -2.0289   18.0937 N   0  0  0  0  0  0  0  0  0  0  0  0
    5.9192   -2.9248   19.0831 C   0  0  0  0  0  0  0  0  0  0  0  0
    5.6733   -4.2459   19.0805 N   0  0  0  0  0  0  0  0  0  0  0  0
    6.0439   -4.9201   20.1778 C   0  0  0  0  0  0  0  0  0  0  0  0
    6.6462   -4.3358   21.2715 C   0  0  0  0  0  0  0  0  0  0  0  0
    6.8926   -2.9720   21.2577 C   0  0  0  0  0  0  0  0  0  0  0  0
    6.5261   -2.2254   20.1398 C   0  0  0  0  0  0  0  0  0  0  0  0
   11.4161    2.7128   23.8646 C   0  0  0  0  0  0  0  0  0  0  0  0
   12.1332    3.8950   23.9132 C   0  0  0  0  0  0  0  0  0  0  0  0
  1  2  1  0
  2  3  2  0
  3  4  1  0
  4  5  2  0
  5  6  1  0
  6  7  1  0
  7  8  1  0
  8  9  2  0
  8 10  1  0
 10 11  1  0
 11 12  2  0
 12 13  1  0
 13 14  1  0
 14 15  2  0
 15 16  1  0
 16 17  2  0
 17 18  1  0
 18 19  2  0
  5 20  1  0
 20 21  2  0
 21  2  1  0
 19 11  1  0
 19 14  1  0
M  END
