CVD-0000198|dock_bobby27042020.13|mol2|40|dock1
     RDKit          3D

 23 25  0  0  0  0  0  0  0  0999 V2000
    9.1757   -5.3973   25.4881 C   0  0  0  0  0  0  0  0  0  0  0  0
    9.7213   -4.2597   24.8331 O   0  0  0  0  0  0  0  0  0  0  0  0
    8.8219   -3.1495   24.7699 C   0  0  0  0  0  0  0  0  0  0  0  0
    8.0251   -3.1568   23.4673 C   0  0  0  0  0  0  0  0  0  0  0  0
    8.9509   -2.4989   22.4159 C   0  0  0  0  0  0  0  0  0  0  0  0
    9.9616   -1.8102   23.2424 N   0  0  0  0  0  0  0  0  0  0  0  0
    9.6394   -1.8787   24.6666 C   0  0  0  0  0  0  0  0  0  0  0  0
   11.2142   -0.9784   22.6190 S   0  0  0  0  0  0  0  0  0  0  0  0
   11.4508   -1.5177   21.3160 O   0  0  0  0  0  0  0  0  0  0  0  0
   10.8970    0.4081   22.7661 O   0  0  0  0  0  0  0  0  0  0  0  0
   12.6246   -1.3223   23.6132 C   0  0  0  0  0  0  0  0  0  0  0  0
   13.2951   -2.5266   23.4845 C   0  0  0  0  0  0  0  0  0  0  0  0
   14.3971   -2.7574   24.2896 C   0  0  0  0  0  0  0  0  0  0  0  0
   14.7800   -1.7830   25.1836 C   0  0  0  0  0  0  0  0  0  0  0  0
   14.1428   -0.6192   25.3191 N   0  0  0  0  0  0  0  0  0  0  0  0
   13.0797   -0.4029   24.5391 C   0  0  0  0  0  0  0  0  0  0  0  0
    8.1433   -1.5781   21.5510 C   0  0  0  0  0  0  0  0  0  0  0  0
    7.0176   -0.9878   21.9212 N   0  0  0  0  0  0  0  0  0  0  0  0
    6.6166   -0.2442   20.8323 C   0  0  0  0  0  0  0  0  0  0  0  0
    5.3630    0.5663   20.8970 C   0  0  0  0  0  0  0  0  0  0  0  0
    7.5127   -0.3993   19.8135 C   0  0  0  0  0  0  0  0  0  0  0  0
    7.5625    0.1698   18.4323 C   0  0  0  0  0  0  0  0  0  0  0  0
    8.4774   -1.2468   20.2760 N   0  0  0  0  0  0  0  0  0  0  0  0
  1  2  1  0
  3  2  1  0
  3  4  1  0
  4  5  1  0
  5  6  1  0
  6  7  1  0
  6  8  1  0
  8  9  2  0
  8 10  2  0
  8 11  1  0
 11 12  2  0
 12 13  1  0
 13 14  2  0
 14 15  1  0
 15 16  2  0
  5 17  1  0
 17 18  2  0
 18 19  1  0
 19 20  1  0
 19 21  2  0
 21 22  1  0
 21 23  1  0
  7  3  1  0
 16 11  1  0
 23 17  1  0
M  END
