CVD-0000227|dock_bobby27042020.99|mol2|19|dock1
     RDKit          3D

 23 24  0  0  0  0  0  0  0  0999 V2000
    1.4489    2.3245   22.1856 N   0  0  0  0  0  0  0  0  0  0  0  0
    1.5112    2.0495   20.8926 C   0  0  0  0  0  0  0  0  0  0  0  0
    0.6120    1.4628   20.2868 O   0  0  0  0  0  0  0  0  0  0  0  0
    2.7425    2.4699   20.1175 C   0  0  0  0  0  0  0  0  0  0  0  0
    3.1478    3.7492   20.5218 F   0  0  0  0  0  0  0  0  0  0  0  0
    3.9056    1.5178   20.2547 C   0  0  0  0  0  0  0  0  0  0  0  0
    5.1269    1.9045   19.4216 C   0  0  0  0  0  0  0  0  0  0  0  0
    6.1559    0.8034   19.3348 C   0  0  0  0  0  0  0  0  0  0  0  0
    6.0095   -0.2395   18.4358 C   0  0  0  0  0  0  0  0  0  0  0  0
    6.9606   -1.2420   18.3625 C   0  0  0  0  0  0  0  0  0  0  0  0
    8.0737   -1.2171   19.1863 C   0  0  0  0  0  0  0  0  0  0  0  0
    8.2418   -0.1764   20.0972 C   0  0  0  0  0  0  0  0  0  0  0  0
    9.3488   -0.0706   20.9773 N   0  0  0  0  0  0  0  0  0  0  0  0
   10.2403   -1.0206   21.4220 C   0  0  0  0  0  0  0  0  0  0  0  0
   10.2117   -2.2032   21.0983 O   0  0  0  0  0  0  0  0  0  0  0  0
   11.1688   -0.4722   22.2773 N   0  0  0  0  0  0  0  0  0  0  0  0
   12.2581   -1.0640   22.9659 C   0  0  0  0  0  0  0  0  0  0  0  0
   12.6929   -0.4778   24.1478 C   0  0  0  0  0  0  0  0  0  0  0  0
   13.7537   -1.0335   24.8409 C   0  0  0  0  0  0  0  0  0  0  0  0
   14.3524   -2.1625   24.3328 C   0  0  0  0  0  0  0  0  0  0  0  0
   13.9601   -2.7494   23.2023 N   0  0  0  0  0  0  0  0  0  0  0  0
   12.9345   -2.2055   22.5396 C   0  0  0  0  0  0  0  0  0  0  0  0
    7.2751    0.8222   20.1564 C   0  0  0  0  0  0  0  0  0  0  0  0
  1  2  1  0
  2  3  2  0
  2  4  1  0
  4  5  1  0
  4  6  1  0
  6  7  1  0
  7  8  1  0
  8  9  2  0
  9 10  1  0
 10 11  2  0
 11 12  1  0
 12 13  1  0
 13 14  1  0
 14 15  2  0
 14 16  1  0
 16 17  1  0
 17 18  2  0
 18 19  1  0
 19 20  2  0
 20 21  1  0
 21 22  2  0
 12 23  2  0
 23  8  1  0
 22 17  1  0
M  END
