CVD-0000483|dock_bobby27042020.41|mol2|21|dock3
     RDKit          3D

 18 19  0  0  0  0  0  0  0  0999 V2000
   13.7521   -1.6887   20.6344 C   0  0  0  0  0  0  0  0  0  0  0  0
   13.3351   -1.9452   22.0534 C   0  0  0  0  0  0  0  0  0  0  0  0
   14.3437   -2.2166   22.8826 N   0  0  0  0  0  0  0  0  0  0  0  0
   14.0860   -2.4577   24.1713 C   0  0  0  0  0  0  0  0  0  0  0  0
   12.8180   -2.4403   24.6960 C   0  0  0  0  0  0  0  0  0  0  0  0
   11.7568   -2.1603   23.8534 C   0  0  0  0  0  0  0  0  0  0  0  0
   12.0035   -1.9046   22.5017 C   0  0  0  0  0  0  0  0  0  0  0  0
   10.9848   -1.6054   21.5514 N   0  0  0  0  0  0  0  0  0  0  0  0
    9.7708   -0.9783   21.7302 C   0  0  0  0  0  0  0  0  0  0  0  0
    9.3542   -0.5544   22.8029 O   0  0  0  0  0  0  0  0  0  0  0  0
    9.0766   -0.8853   20.5444 N   0  0  0  0  0  0  0  0  0  0  0  0
    7.8056   -0.3272   20.2528 C   0  0  0  0  0  0  0  0  0  0  0  0
    6.7893   -0.1711   21.1937 C   0  0  0  0  0  0  0  0  0  0  0  0
    5.5734    0.3829   20.8329 C   0  0  0  0  0  0  0  0  0  0  0  0
    5.3888    0.7739   19.5359 C   0  0  0  0  0  0  0  0  0  0  0  0
    4.1932    1.3184   19.1823 F   0  0  0  0  0  0  0  0  0  0  0  0
    6.3566    0.6400   18.5801 C   0  0  0  0  0  0  0  0  0  0  0  0
    7.5698    0.0857   18.9463 C   0  0  0  0  0  0  0  0  0  0  0  0
  1  2  1  0
  2  3  2  0
  3  4  1  0
  4  5  2  0
  5  6  1  0
  6  7  2  0
  7  8  1  0
  8  9  1  0
  9 10  2  0
  9 11  1  0
 11 12  1  0
 12 13  2  0
 13 14  1  0
 14 15  2  0
 15 16  1  0
 15 17  1  0
 17 18  2  0
  7  2  1  0
 18 12  1  0
M  END
