CVD-0003070|dock_bobby27042020.46|mol2|26|dock2
     RDKit          3D

 27 29  0  0  0  0  0  0  0  0999 V2000
   12.3309    6.8848   25.3231 C   0  0  0  0  0  0  0  0  0  0  0  0
   13.0585    6.3899   24.1076 C   0  0  0  0  0  0  0  0  0  0  0  0
   13.6559    7.1517   23.3536 O   0  0  0  0  0  0  0  0  0  0  0  0
   13.0040    5.0753   23.8850 N   0  0  0  0  0  0  0  0  0  0  0  0
   13.6443    4.4461   22.7389 C   0  0  0  0  0  0  0  0  0  0  0  0
   12.6307    3.9487   21.7277 C   0  0  0  0  0  0  0  0  0  0  0  0
   11.6745    2.9444   22.3010 C   0  0  0  0  0  0  0  0  0  0  0  0
   10.3501    3.1242   22.5754 C   0  0  0  0  0  0  0  0  0  0  0  0
    9.8082    1.9781   23.0910 N   0  0  0  0  0  0  0  0  0  0  0  0
   10.7923    1.0230   23.1587 C   0  0  0  0  0  0  0  0  0  0  0  0
   10.7234   -0.2971   23.6123 C   0  0  0  0  0  0  0  0  0  0  0  0
    9.4369   -0.8927   24.1374 C   0  0  0  0  0  0  0  0  0  0  0  0
    8.7149   -1.7520   23.1186 C   0  0  0  0  0  0  0  0  0  0  0  0
    8.8268   -2.9729   23.1384 O   0  0  0  0  0  0  0  0  0  0  0  0
    7.9822   -1.0327   22.2330 N   0  0  0  0  0  0  0  0  0  0  0  0
    7.1806   -1.4602   21.1375 C   0  0  0  0  0  0  0  0  0  0  0  0
    6.5250   -2.6903   21.0779 C   0  0  0  0  0  0  0  0  0  0  0  0
    5.7727   -3.0894   20.0476 N   0  0  0  0  0  0  0  0  0  0  0  0
    5.6434   -2.2577   19.0181 C   0  0  0  0  0  0  0  0  0  0  0  0
    6.2455   -1.0204   18.9713 C   0  0  0  0  0  0  0  0  0  0  0  0
    7.0325   -0.5940   20.0369 C   0  0  0  0  0  0  0  0  0  0  0  0
    7.6750    0.7670   19.9558 C   0  0  0  0  0  0  0  0  0  0  0  0
   11.8873   -1.0568   23.5722 C   0  0  0  0  0  0  0  0  0  0  0  0
   13.0437   -0.4870   23.0923 C   0  0  0  0  0  0  0  0  0  0  0  0
   14.1673   -1.2534   23.0635 F   0  0  0  0  0  0  0  0  0  0  0  0
   13.1356    0.8088   22.6396 C   0  0  0  0  0  0  0  0  0  0  0  0
   11.9825    1.5923   22.6707 C   0  0  0  0  0  0  0  0  0  0  0  0
  1  2  1  0
  2  3  2  0
  2  4  1  0
  4  5  1  0
  5  6  1  0
  6  7  1  0
  7  8  2  0
  8  9  1  0
  9 10  1  0
 10 11  2  0
 11 12  1  0
 12 13  1  0
 13 14  2  0
 13 15  1  0
 15 16  1  0
 16 17  2  0
 17 18  1  0
 18 19  2  0
 19 20  1  0
 20 21  2  0
 21 22  1  0
 11 23  1  0
 23 24  2  0
 24 25  1  0
 24 26  1  0
 26 27  2  0
 27  7  1  0
 27 10  1  0
 21 16  1  0
M  END
