CVD-0000011|dock_bobby27042020.14|mol2|27|dock1
     RDKit          3D

 23 24  0  0  0  0  0  0  0  0999 V2000
    6.0627   -1.2122   18.9574 C   0  0  0  0  0  0  0  0  0  0  0  0
    7.2063    0.1012   19.1422 S   0  0  0  0  0  0  0  0  0  0  0  0
    7.5855    0.5465   17.8368 O   0  0  0  0  0  0  0  0  0  0  0  0
    6.6469    1.0521   20.0524 O   0  0  0  0  0  0  0  0  0  0  0  0
    8.5230   -0.4947   19.8360 N   0  0  0  0  0  0  0  0  0  0  0  0
    8.8342   -0.1416   21.2263 C   0  0  0  0  0  0  0  0  0  0  0  0
   10.0639   -0.9025   21.6932 C   0  0  0  0  0  0  0  0  0  0  0  0
   10.4828   -0.5275   23.1227 C   0  0  0  0  0  0  0  0  0  0  0  0
   10.5549    0.9963   23.2347 C   0  0  0  0  0  0  0  0  0  0  0  0
    9.6410    1.6361   23.7465 O   0  0  0  0  0  0  0  0  0  0  0  0
   11.6978    1.5175   22.7237 N   0  0  0  0  0  0  0  0  0  0  0  0
   12.1529    2.8565   22.6306 C   0  0  0  0  0  0  0  0  0  0  0  0
   11.2166    3.8814   22.5833 C   0  0  0  0  0  0  0  0  0  0  0  0
   11.6422    5.1947   22.4922 C   0  0  0  0  0  0  0  0  0  0  0  0
   12.9936    5.4473   22.4508 C   0  0  0  0  0  0  0  0  0  0  0  0
   13.9169    4.4868   22.4944 N   0  0  0  0  0  0  0  0  0  0  0  0
   13.4965    3.2210   22.5825 C   0  0  0  0  0  0  0  0  0  0  0  0
   11.8286   -1.1232   23.5047 C   0  0  0  0  0  0  0  0  0  0  0  0
   12.3906   -2.1465   22.7541 C   0  0  0  0  0  0  0  0  0  0  0  0
   13.6151   -2.6907   23.1042 C   0  0  0  0  0  0  0  0  0  0  0  0
   14.2919   -2.2196   24.2087 C   0  0  0  0  0  0  0  0  0  0  0  0
   13.7450   -1.2046   24.9641 C   0  0  0  0  0  0  0  0  0  0  0  0
   12.5207   -0.6596   24.6149 C   0  0  0  0  0  0  0  0  0  0  0  0
  1  2  1  0
  2  3  2  0
  2  4  2  0
  2  5  1  0
  5  6  1  0
  6  7  1  0
  7  8  1  0
  8  9  1  0
  9 10  2  0
  9 11  1  0
 11 12  1  0
 12 13  2  0
 13 14  1  0
 14 15  2  0
 15 16  1  0
 16 17  2  0
  8 18  1  0
 18 19  2  0
 19 20  1  0
 20 21  2  0
 21 22  1  0
 22 23  2  0
 17 12  1  0
 23 18  1  0
M  END
