CVD-0001301|dock_bobby27042020.67|mol2|32|dock1
     RDKit          3D

 19 20  0  0  0  0  0  0  0  0999 V2000
   14.5238    6.7808   22.6133 F   0  0  0  0  0  0  0  0  0  0  0  0
   14.0611    5.6314   22.0100 C   0  0  0  0  0  0  0  0  0  0  0  0
   13.9628    4.2695   23.1432 S   0  0  0  0  0  0  0  0  0  0  0  0
   13.0397    3.1255   22.1836 C   0  0  0  0  0  0  0  0  0  0  0  0
   12.7758    3.3102   21.0238 O   0  0  0  0  0  0  0  0  0  0  0  0
   12.6364    1.9176   22.9940 C   0  0  0  0  0  0  0  0  0  0  0  0
   13.5664    0.7425   22.7190 C   0  0  0  0  0  0  0  0  0  0  0  0
   13.1315   -0.4763   23.5064 C   0  0  0  0  0  0  0  0  0  0  0  0
   11.7517   -0.8194   23.1727 N   0  0  0  0  0  0  0  0  0  0  0  0
   10.8150    0.2589   23.4700 C   0  0  0  0  0  0  0  0  0  0  0  0
   11.1965    1.5115   22.6882 C   0  0  0  0  0  0  0  0  0  0  0  0
   11.2914   -2.0634   22.8948 C   0  0  0  0  0  0  0  0  0  0  0  0
   12.0572   -3.0106   22.9432 O   0  0  0  0  0  0  0  0  0  0  0  0
    9.8751   -2.3974   22.5159 C   0  0  0  0  0  0  0  0  0  0  0  0
    9.1142   -3.3991   23.1149 C   0  0  0  0  0  0  0  0  0  0  0  0
    7.8076   -3.6327   22.7191 C   0  0  0  0  0  0  0  0  0  0  0  0
    7.2440   -2.8894   21.7056 C   0  0  0  0  0  0  0  0  0  0  0  0
    7.9891   -1.9121   21.0838 C   0  0  0  0  0  0  0  0  0  0  0  0
    9.2926   -1.6695   21.4831 C   0  0  0  0  0  0  0  0  0  0  0  0
  1  2  1  0
  2  3  1  0
  3  4  1  0
  4  5  2  0
  4  6  1  0
  6  7  1  0
  7  8  1  0
  8  9  1  0
  9 10  1  0
 10 11  1  0
  9 12  1  0
 12 13  2  0
 12 14  1  0
 14 15  2  0
 15 16  1  0
 16 17  2  0
 17 18  1  0
 18 19  2  0
 11  6  1  0
 19 14  1  0
M  END
