CVD-0000765|dock_bobby27042020.12|mol2|3|dock2
     RDKit          3D

 21 23  0  0  0  0  0  0  0  0999 V2000
   13.8694    5.1294   21.4717 C   0  0  0  0  0  0  0  0  0  0  0  0
   13.9928    4.4716   22.7752 N   0  0  0  0  0  0  0  0  0  0  0  0
   12.7293    3.8866   23.2218 C   0  0  0  0  0  0  0  0  0  0  0  0
   12.4837    2.5206   22.6128 C   0  0  0  0  0  0  0  0  0  0  0  0
   11.5003    1.7080   23.3310 N   0  0  0  0  0  0  0  0  0  0  0  0
   10.1830    1.6229   22.6645 C   0  0  0  0  0  0  0  0  0  0  0  0
    9.4782    0.3328   23.1355 C   0  0  0  0  0  0  0  0  0  0  0  0
    9.4097    0.2609   24.6624 C   0  0  0  0  0  0  0  0  0  0  0  0
   10.8205    0.3718   25.1869 C   0  0  0  0  0  0  0  0  0  0  0  0
   11.1100   -0.2703   26.3582 F   0  0  0  0  0  0  0  0  0  0  0  0
   11.7303    1.0798   24.5103 C   0  0  0  0  0  0  0  0  0  0  0  0
   10.1170   -0.8998   22.5306 C   0  0  0  0  0  0  0  0  0  0  0  0
   10.0601   -1.2189   21.0684 C   0  0  0  0  0  0  0  0  0  0  0  0
    9.2452   -2.0186   22.0382 C   0  0  0  0  0  0  0  0  0  0  0  0
   11.3993   -1.3150   23.2447 C   0  0  0  0  0  0  0  0  0  0  0  0
   12.6420   -0.8834   22.7973 C   0  0  0  0  0  0  0  0  0  0  0  0
   13.8033   -1.2634   23.4463 C   0  0  0  0  0  0  0  0  0  0  0  0
   13.7680   -2.0859   24.5607 C   0  0  0  0  0  0  0  0  0  0  0  0
   15.0367   -2.4953   25.2684 C   0  0  0  0  0  0  0  0  0  0  0  0
   12.5286   -2.5154   25.0071 C   0  0  0  0  0  0  0  0  0  0  0  0
   11.3635   -2.1392   24.3628 C   0  0  0  0  0  0  0  0  0  0  0  0
  1  2  1  0
  2  3  1  0
  3  4  1  0
  4  5  1  0
  5  6  1  0
  6  7  1  0
  7  8  1  0
  8  9  1  0
  9 10  1  0
  9 11  2  0
  7 12  1  0
 12 13  1  0
 13 14  1  0
 12 15  1  0
 15 16  2  0
 16 17  1  0
 17 18  2  0
 18 19  1  0
 18 20  1  0
 20 21  2  0
 11  5  1  0
 14 12  1  0
 21 15  1  0
M  END
