CVD-0003127|dock_bobby27042020.3|mol2|11|dock3
     RDKit          3D

 18 21  0  0  0  0  0  0  0  0999 V2000
   11.1262    0.4520   24.8703 O   0  0  0  0  0  0  0  0  0  0  0  0
   12.1279    0.8673   24.2953 C   0  0  0  0  0  0  0  0  0  0  0  0
   13.2597    0.1475   24.2733 N   0  0  0  0  0  0  0  0  0  0  0  0
   13.3460   -1.1462   24.9257 C   0  0  0  0  0  0  0  0  0  0  0  0
   12.4727   -2.3040   24.5643 C   0  0  0  0  0  0  0  0  0  0  0  0
   11.6516   -2.2244   23.2935 C   0  0  0  0  0  0  0  0  0  0  0  0
   12.6033   -1.6098   22.2640 C   0  0  0  0  0  0  0  0  0  0  0  0
   13.9687   -2.1613   22.6432 C   0  0  0  0  0  0  0  0  0  0  0  0
   13.9258   -2.2791   24.1570 C   0  0  0  0  0  0  0  0  0  0  0  0
   12.0852    2.2076   23.6029 C   0  0  0  0  0  0  0  0  0  0  0  0
   10.8933    2.9039   23.3987 C   0  0  0  0  0  0  0  0  0  0  0  0
   10.9260    4.1291   22.7552 C   0  0  0  0  0  0  0  0  0  0  0  0
   12.1514    4.6325   22.3295 C   0  0  0  0  0  0  0  0  0  0  0  0
   12.5149    5.8015   21.6713 N   0  0  0  0  0  0  0  0  0  0  0  0
   13.8239    5.6963   21.5522 C   0  0  0  0  0  0  0  0  0  0  0  0
   14.3406    4.5617   22.0755 N   0  0  0  0  0  0  0  0  0  0  0  0
   13.2894    3.8561   22.5833 C   0  0  0  0  0  0  0  0  0  0  0  0
   13.2828    2.6689   23.2035 N   0  0  0  0  0  0  0  0  0  0  0  0
  1  2  2  0
  2  3  1  0
  4  3  1  0
  4  5  1  0
  5  6  1  0
  6  7  1  0
  7  8  1  0
  9  8  1  0
  2 10  1  0
 10 11  2  0
 11 12  1  0
 12 13  2  0
 13 14  1  0
 14 15  2  0
 15 16  1  0
 16 17  1  0
 17 18  2  0
  9  4  1  0
 18 10  1  0
  9  5  1  0
 17 13  1  0
M  END
