CVD-0002893|dock_bobby27042020.32|mol2|39|dock1
     RDKit          3D

 16 16  0  0  0  0  0  0  0  0999 V2000
    5.0251    0.0455   18.2564 O   0  0  0  0  0  0  0  0  0  0  0  0
    6.2767    0.6851   18.2548 C   0  0  0  0  0  0  0  0  0  0  0  0
    6.5469    1.2496   16.9965 O   0  0  0  0  0  0  0  0  0  0  0  0
    7.3688   -0.2756   18.6466 C   0  0  0  0  0  0  0  0  0  0  0  0
    7.3093   -0.6633   20.1074 C   0  0  0  0  0  0  0  0  0  0  0  0
    6.3381   -0.3889   20.8055 O   0  0  0  0  0  0  0  0  0  0  0  0
    8.3725   -1.3124   20.5740 N   0  0  0  0  0  0  0  0  0  0  0  0
    8.4812   -1.7569   21.9561 C   0  0  0  0  0  0  0  0  0  0  0  0
    9.8963   -2.1643   22.3158 C   0  0  0  0  0  0  0  0  0  0  0  0
   10.8506   -0.9797   22.3950 C   0  0  0  0  0  0  0  0  0  0  0  0
   12.1190   -1.2725   23.1595 C   0  0  0  0  0  0  0  0  0  0  0  0
   12.9647   -2.2978   22.7651 C   0  0  0  0  0  0  0  0  0  0  0  0
   14.1268   -2.5689   23.4680 C   0  0  0  0  0  0  0  0  0  0  0  0
   14.4572   -1.8178   24.5753 C   0  0  0  0  0  0  0  0  0  0  0  0
   13.6250   -0.7962   24.9794 C   0  0  0  0  0  0  0  0  0  0  0  0
   12.4631   -0.5260   24.2758 C   0  0  0  0  0  0  0  0  0  0  0  0
  1  2  1  0
  2  3  1  0
  2  4  1  0
  4  5  1  0
  5  6  2  0
  5  7  1  0
  7  8  1  0
  8  9  1  0
  9 10  1  0
 10 11  1  0
 11 12  2  0
 12 13  1  0
 13 14  2  0
 14 15  1  0
 15 16  2  0
 16 11  1  0
M  END
