CVD-0002735|dock_bobby27042020.33|mol2|14|dock1
     RDKit          3D

 26 28  0  0  0  0  0  0  0  0999 V2000
   14.1370    6.2342   22.0757 Cl  0  0  0  0  0  0  0  0  0  0  0  0
   13.7586    4.5129   21.9310 C   0  0  0  0  0  0  0  0  0  0  0  0
   12.2801    4.2339   22.0890 C   0  0  0  0  0  0  0  0  0  0  0  0
   11.4894    5.1501   22.2965 O   0  0  0  0  0  0  0  0  0  0  0  0
   11.9578    2.9064   21.9864 N   0  0  0  0  0  0  0  0  0  0  0  0
   10.6962    2.3281   22.0934 C   0  0  0  0  0  0  0  0  0  0  0  0
    9.6531    3.1279   21.9373 N   0  0  0  0  0  0  0  0  0  0  0  0
    8.3736    2.6730   21.9511 C   0  0  0  0  0  0  0  0  0  0  0  0
    7.4065    3.4218   21.8001 O   0  0  0  0  0  0  0  0  0  0  0  0
    8.1542    1.3112   22.1372 N   0  0  0  0  0  0  0  0  0  0  0  0
    6.7864    0.7794   22.1278 C   0  0  0  0  0  0  0  0  0  0  0  0
    6.3613    0.2782   20.7686 C   0  0  0  0  0  0  0  0  0  0  0  0
    6.2452   -1.0800   20.5184 C   0  0  0  0  0  0  0  0  0  0  0  0
    5.8584   -1.5392   19.2704 C   0  0  0  0  0  0  0  0  0  0  0  0
    5.5825   -0.6426   18.2517 C   0  0  0  0  0  0  0  0  0  0  0  0
    5.7009    0.7062   18.5057 C   0  0  0  0  0  0  0  0  0  0  0  0
    5.3579    1.8464   17.2349 Cl  0  0  0  0  0  0  0  0  0  0  0  0
    6.0854    1.1755   19.7449 C   0  0  0  0  0  0  0  0  0  0  0  0
    9.2217    0.4776   22.3262 C   0  0  0  0  0  0  0  0  0  0  0  0
   10.5146    0.9094   22.3388 C   0  0  0  0  0  0  0  0  0  0  0  0
   11.5752   -0.1017   22.6048 C   0  0  0  0  0  0  0  0  0  0  0  0
   12.5687    0.0632   23.5649 C   0  0  0  0  0  0  0  0  0  0  0  0
   13.5321   -0.9136   23.7450 C   0  0  0  0  0  0  0  0  0  0  0  0
   13.4692   -2.0491   22.9719 C   0  0  0  0  0  0  0  0  0  0  0  0
   12.5193   -2.2545   22.0601 N   0  0  0  0  0  0  0  0  0  0  0  0
   11.6044   -1.2946   21.8934 C   0  0  0  0  0  0  0  0  0  0  0  0
  1  2  1  0
  2  3  1  0
  3  4  2  0
  3  5  1  0
  5  6  1  0
  6  7  2  0
  7  8  1  0
  8  9  2  0
  8 10  1  0
 10 11  1  0
 11 12  1  0
 12 13  2  0
 13 14  1  0
 14 15  2  0
 15 16  1  0
 16 17  1  0
 16 18  2  0
 10 19  1  0
 19 20  2  0
 20 21  1  0
 21 22  2  0
 22 23  1  0
 23 24  2  0
 24 25  1  0
 25 26  2  0
 20  6  1  0
 26 21  1  0
 18 12  1  0
M  END
