CVD-0003334|dock_bobby27042020.31|mol2|16|dock1
     RDKit          3D

 25 27  0  0  0  0  0  0  0  0999 V2000
   10.1682   -7.0831   26.1876 N   0  0  0  0  0  0  0  0  0  0  0  0
    9.4464   -5.6611   26.3335 S   0  0  0  0  0  0  0  0  0  0  0  0
    8.6517   -5.7003   27.5277 O   0  0  0  0  0  0  0  0  0  0  0  0
   10.4572   -4.6491   26.2163 O   0  0  0  0  0  0  0  0  0  0  0  0
    8.3292   -5.4341   24.9772 C   0  0  0  0  0  0  0  0  0  0  0  0
    8.9571   -5.6057   23.5948 C   0  0  0  0  0  0  0  0  0  0  0  0
    8.1014   -4.9413   22.5393 C   0  0  0  0  0  0  0  0  0  0  0  0
    7.3084   -5.7255   21.7044 C   0  0  0  0  0  0  0  0  0  0  0  0
    6.5071   -5.1594   20.7264 C   0  0  0  0  0  0  0  0  0  0  0  0
    6.4804   -3.7855   20.5615 C   0  0  0  0  0  0  0  0  0  0  0  0
    7.2678   -2.9924   21.3913 C   0  0  0  0  0  0  0  0  0  0  0  0
    7.4205   -1.2601   21.3995 S   0  0  0  0  0  0  0  0  0  0  0  0
    8.5574   -1.4126   22.7198 C   0  0  0  0  0  0  0  0  0  0  0  0
    8.8033   -2.6189   23.1241 N   0  0  0  0  0  0  0  0  0  0  0  0
    8.0832   -3.5495   22.3844 C   0  0  0  0  0  0  0  0  0  0  0  0
    9.1894   -0.2001   23.3378 C   0  0  0  0  0  0  0  0  0  0  0  0
    9.6527   -0.4759   24.7567 C   0  0  0  0  0  0  0  0  0  0  0  0
   10.3251    0.7656   25.3287 C   0  0  0  0  0  0  0  0  0  0  0  0
   11.4574    1.2193   24.4300 C   0  0  0  0  0  0  0  0  0  0  0  0
   10.9585    1.4544   23.0681 N   0  0  0  0  0  0  0  0  0  0  0  0
   10.3274    0.2833   22.4520 C   0  0  0  0  0  0  0  0  0  0  0  0
   11.2641    2.5249   22.3067 C   0  0  0  0  0  0  0  0  0  0  0  0
   10.7998    2.6722   21.1832 O   0  0  0  0  0  0  0  0  0  0  0  0
   12.2192    3.5382   22.9068 C   0  0  0  0  0  0  0  0  0  0  0  0
   12.6960    4.7374   21.6977 Cl  0  0  0  0  0  0  0  0  0  0  0  0
  1  2  1  0
  2  3  2  0
  2  4  2  0
  2  5  1  0
  5  6  1  0
  6  7  1  0
  7  8  2  0
  8  9  1  0
  9 10  2  0
 10 11  1  0
 11 12  1  0
 12 13  1  0
 13 14  2  0
 14 15  1  0
 13 16  1  0
 16 17  1  0
 17 18  1  0
 18 19  1  0
 19 20  1  0
 20 21  1  0
 20 22  1  0
 22 23  2  0
 22 24  1  0
 24 25  1  0
 15  7  1  0
 21 16  1  0
 15 11  2  0
M  END
