CVD-0002137|dock_bobby27042020.64|mol2|29|dock3
     RDKit          3D

 22 24  0  0  0  0  0  0  0  0999 V2000
   11.0996   -1.6752   21.9642 N   0  0  0  0  0  0  0  0  0  0  0  0
   10.9164   -0.2377   22.2639 C   0  0  0  0  0  0  0  0  0  0  0  0
    9.5155    0.2588   21.9324 C   0  0  0  0  0  0  0  0  0  0  0  0
    8.5918   -0.7202   22.3924 O   0  0  0  0  0  0  0  0  0  0  0  0
    7.2206   -0.2719   22.3653 C   0  0  0  0  0  0  0  0  0  0  0  0
    7.0895    0.7934   23.4869 C   0  0  0  0  0  0  0  0  0  0  0  0
    8.0628    1.9153   23.1741 C   0  0  0  0  0  0  0  0  0  0  0  0
    7.8363    3.2295   23.6101 C   0  0  0  0  0  0  0  0  0  0  0  0
    6.7315    3.5647   24.3448 O   0  0  0  0  0  0  0  0  0  0  0  0
    8.8069    4.2128   23.4238 C   0  0  0  0  0  0  0  0  0  0  0  0
    8.5881    5.4577   23.9226 O   0  0  0  0  0  0  0  0  0  0  0  0
   10.0100    3.9078   22.8051 C   0  0  0  0  0  0  0  0  0  0  0  0
   10.2398    2.6156   22.3730 C   0  0  0  0  0  0  0  0  0  0  0  0
    9.2828    1.6163   22.5489 C   0  0  0  0  0  0  0  0  0  0  0  0
    6.9531    0.2449   20.9523 C   0  0  0  0  0  0  0  0  0  0  0  0
    7.2902   -0.7756   19.8547 C   0  0  0  0  0  0  0  0  0  0  0  0
    7.1190   -0.1673   18.4710 C   0  0  0  0  0  0  0  0  0  0  0  0
    5.7268    0.4206   18.2664 C   0  0  0  0  0  0  0  0  0  0  0  0
    5.4263    1.4100   19.3751 C   0  0  0  0  0  0  0  0  0  0  0  0
    4.0529    2.0304   19.1950 C   0  0  0  0  0  0  0  0  0  0  0  0
    3.8147    3.0884   20.1149 O   0  0  0  0  0  0  0  0  0  0  0  0
    5.5132    0.7462   20.7508 C   0  0  0  0  0  0  0  0  0  0  0  0
  1  2  1  0
  2  3  1  0
  3  4  1  0
  4  5  1  0
  5  6  1  0
  6  7  1  0
  7  8  2  0
  8  9  1  0
  8 10  1  0
 10 11  1  0
 10 12  2  0
 12 13  1  0
 13 14  2  0
  5 15  1  0
 15 16  1  0
 16 17  1  0
 17 18  1  0
 18 19  1  0
 19 20  1  0
 20 21  1  0
 19 22  1  0
 14  3  1  0
 22 15  1  0
 14  7  1  0
M  END
