CVD-0003500|dock_bobby27042020.59|mol2|34|dock1
     RDKit          3D

 42 46  0  0  0  0  0  0  0  0999 V2000
    9.7485   -5.8690   25.6824 C   0  0  0  0  0  0  0  0  0  0  0  0
    9.2920   -4.2243   25.2674 S   0  0  0  0  0  0  0  0  0  0  0  0
    9.0200   -3.5484   26.4981 O   0  0  0  0  0  0  0  0  0  0  0  0
   10.3120   -3.6947   24.4164 O   0  0  0  0  0  0  0  0  0  0  0  0
    7.8777   -4.1849   24.3828 N   0  0  0  0  0  0  0  0  0  0  0  0
    6.9094   -5.2915   24.5768 C   0  0  0  0  0  0  0  0  0  0  0  0
    5.7119   -4.8816   25.4258 C   0  0  0  0  0  0  0  0  0  0  0  0
    4.5610   -5.7509   24.9271 C   0  0  0  0  0  0  0  0  0  0  0  0
    4.8375   -7.2262   25.3593 C   0  0  0  0  0  0  0  0  0  0  0  0
    5.1181   -7.3548   26.7923 N   0  0  0  0  0  0  0  0  0  0  0  0
    6.2472   -6.5396   27.2599 C   0  0  0  0  0  0  0  0  0  0  0  0
    6.5147   -6.8314   28.7235 C   0  0  0  0  0  0  0  0  0  0  0  0
    5.2693   -6.7269   29.5545 C   0  0  0  0  0  0  0  0  0  0  0  0
    4.2530   -7.7033   29.0271 C   0  0  0  0  0  0  0  0  0  0  0  0
    3.2065   -8.1554   29.8247 C   0  0  0  0  0  0  0  0  0  0  0  0
    2.1397   -8.8502   29.2910 C   0  0  0  0  0  0  0  0  0  0  0  0
    2.1124   -9.1028   27.9308 C   0  0  0  0  0  0  0  0  0  0  0  0
    3.1332   -8.6729   27.0906 C   0  0  0  0  0  0  0  0  0  0  0  0
    4.2089   -7.9716   27.6355 C   0  0  0  0  0  0  0  0  0  0  0  0
    0.8511  -10.1549   27.2739 S   0  0  0  0  0  0  0  0  0  0  0  0
    1.2809  -11.6772   27.5207 N   0  0  0  0  0  0  0  0  0  0  0  0
    0.8173   -9.9488   25.8570 O   0  0  0  0  0  0  0  0  0  0  0  0
   -0.3394   -9.9222   28.0353 O   0  0  0  0  0  0  0  0  0  0  0  0
    6.0201   -5.0314   26.9410 C   0  0  0  0  0  0  0  0  0  0  0  0
    7.5274   -3.1733   23.3926 C   0  0  0  0  0  0  0  0  0  0  0  0
    6.3375   -3.2527   22.7350 C   0  0  0  0  0  0  0  0  0  0  0  0
    6.2507   -2.0929   21.7470 C   0  0  0  0  0  0  0  0  0  0  0  0
    7.6380   -1.4736   21.8084 C   0  0  0  0  0  0  0  0  0  0  0  0
    8.0135   -0.5060   20.7242 C   0  0  0  0  0  0  0  0  0  0  0  0
    8.9146    0.5143   21.0181 O   0  0  0  0  0  0  0  0  0  0  0  0
    6.8049    0.1122   20.1686 N   0  0  0  0  0  0  0  0  0  0  0  0
    6.2832    1.1651   21.0359 C   0  0  0  0  0  0  0  0  0  0  0  0
    4.8958    1.5849   20.6240 C   0  0  0  0  0  0  0  0  0  0  0  0
    4.8702    2.3184   18.9841 S   0  0  0  0  0  0  0  0  0  0  0  0
    5.7116    0.9749   18.1446 C   0  0  0  0  0  0  0  0  0  0  0  0
    7.0177    0.6013   18.8130 C   0  0  0  0  0  0  0  0  0  0  0  0
    8.2741   -1.9655   22.9121 C   0  0  0  0  0  0  0  0  0  0  0  0
    9.4480   -1.4832   23.5654 N   0  0  0  0  0  0  0  0  0  0  0  0
   10.7725   -1.5081   23.2111 C   0  0  0  0  0  0  0  0  0  0  0  0
   11.2804   -1.9734   22.2013 O   0  0  0  0  0  0  0  0  0  0  0  0
   11.6590   -0.8742   24.2603 C   0  0  0  0  0  0  0  0  0  0  0  0
   13.3736   -1.2095   23.9866 Cl  0  0  0  0  0  0  0  0  0  0  0  0
  1  2  1  0
  2  3  2  0
  2  4  2  0
  2  5  1  0
  5  6  1  0
  7  6  1  0
  7  8  1  0
  8  9  1  0
  9 10  1  0
 10 11  1  0
 11 12  1  0
 12 13  1  0
 13 14  1  0
 14 15  2  0
 15 16  1  0
 16 17  2  0
 17 18  1  0
 18 19  2  0
 17 20  1  0
 20 21  1  0
 20 22  2  0
 20 23  2  0
 11 24  1  0
  5 25  1  0
 25 26  2  0
 26 27  1  0
 27 28  1  0
 28 29  1  0
 29 30  1  0
 29 31  1  0
 31 32  1  0
 32 33  1  0
 33 34  1  0
 34 35  1  0
 35 36  1  0
 28 37  2  0
 37 38  1  0
 38 39  1  0
 39 40  2  0
 39 41  1  0
 41 42  1  0
 24  7  1  0
 37 25  1  0
 19 10  1  0
 36 31  1  0
 19 14  1  0
M  END
