CVD-0001416|dock_bobby27042020.52|mol2|38|dock2
     RDKit          3D

 44 48  0  0  0  0  0  0  0  0999 V2000
    4.8990   -6.7537   23.7585 C   0  0  0  0  0  0  0  0  0  0  0  0
    5.9873   -5.7079   23.9599 C   0  0  0  0  0  0  0  0  0  0  0  0
    5.4009   -4.3771   23.9794 N   0  0  0  0  0  0  0  0  0  0  0  0
    4.7858   -3.9268   25.0807 C   0  0  0  0  0  0  0  0  0  0  0  0
    4.7932   -4.6040   26.1050 O   0  0  0  0  0  0  0  0  0  0  0  0
    4.1118   -2.5714   25.0480 C   0  0  0  0  0  0  0  0  0  0  0  0
    5.0494   -1.3481   24.9188 C   0  0  0  0  0  0  0  0  0  0  0  0
    4.3796   -0.7577   26.2085 C   0  0  0  0  0  0  0  0  0  0  0  0
    3.4418   -1.9811   26.3377 C   0  0  0  0  0  0  0  0  0  0  0  0
    2.1120   -1.7053   26.1974 F   0  0  0  0  0  0  0  0  0  0  0  0
    3.5287   -2.7327   27.4738 F   0  0  0  0  0  0  0  0  0  0  0  0
    6.5564   -1.5395   24.8048 C   0  0  0  0  0  0  0  0  0  0  0  0
    7.2363   -2.1094   25.8793 C   0  0  0  0  0  0  0  0  0  0  0  0
    8.5934   -2.3598   25.8217 C   0  0  0  0  0  0  0  0  0  0  0  0
    9.2904   -2.0382   24.6743 C   0  0  0  0  0  0  0  0  0  0  0  0
    8.6585   -1.4665   23.5712 C   0  0  0  0  0  0  0  0  0  0  0  0
    9.4343   -1.1235   22.3238 C   0  0  0  0  0  0  0  0  0  0  0  0
    8.8566    0.0983   21.6903 C   0  0  0  0  0  0  0  0  0  0  0  0
    7.4213   -0.0929   21.3669 N   0  0  0  0  0  0  0  0  0  0  0  0
    6.5459   -0.6376   22.4233 C   0  0  0  0  0  0  0  0  0  0  0  0
    7.2809   -1.2168   23.6402 C   0  0  0  0  0  0  0  0  0  0  0  0
    6.9859    0.3364   20.1517 C   0  0  0  0  0  0  0  0  0  0  0  0
    7.7741    0.8778   19.3867 O   0  0  0  0  0  0  0  0  0  0  0  0
    5.5476    0.1573   19.6998 C   0  0  0  0  0  0  0  0  0  0  0  0
    5.3328    0.8578   18.0903 Cl  0  0  0  0  0  0  0  0  0  0  0  0
    9.2910    1.3713   22.3998 C   0  0  0  0  0  0  0  0  0  0  0  0
   10.4155    2.0817   21.9978 C   0  0  0  0  0  0  0  0  0  0  0  0
   10.7444    3.2185   22.7333 C   0  0  0  0  0  0  0  0  0  0  0  0
   11.8660    4.0071   22.4292 N   0  0  0  0  0  0  0  0  0  0  0  0
   12.6381    4.8381   23.1850 C   0  0  0  0  0  0  0  0  0  0  0  0
   13.6355    5.4204   22.5204 N   0  0  0  0  0  0  0  0  0  0  0  0
   12.4400    5.0436   24.3908 O   0  0  0  0  0  0  0  0  0  0  0  0
   10.0114    3.6289   23.7733 N   0  0  0  0  0  0  0  0  0  0  0  0
    8.9419    2.8789   24.0449 C   0  0  0  0  0  0  0  0  0  0  0  0
    8.5283    1.7750   23.4219 N   0  0  0  0  0  0  0  0  0  0  0  0
   10.9109   -1.0055   22.6881 C   0  0  0  0  0  0  0  0  0  0  0  0
   11.8843   -1.7221   22.0029 C   0  0  0  0  0  0  0  0  0  0  0  0
   13.2229   -1.6084   22.3396 C   0  0  0  0  0  0  0  0  0  0  0  0
   13.6110   -0.7841   23.3729 C   0  0  0  0  0  0  0  0  0  0  0  0
   12.6588   -0.0730   24.0698 C   0  0  0  0  0  0  0  0  0  0  0  0
   11.3208   -0.1826   23.7300 C   0  0  0  0  0  0  0  0  0  0  0  0
    7.0180   -5.8162   22.8412 C   0  0  0  0  0  0  0  0  0  0  0  0
    8.1069   -5.0760   22.9746 N   0  0  0  0  0  0  0  0  0  0  0  0
    6.8241   -6.5593   21.8767 O   0  0  0  0  0  0  0  0  0  0  0  0
  2  1  1  0
  2  3  1  0
  3  4  1  0
  4  5  2  0
  6  4  1  0
  6  7  1  0
  7  8  1  0
  8  9  1  0
  9 10  1  0
  9 11  1  0
  7 12  1  0
 12 13  2  0
 13 14  1  0
 14 15  2  0
 15 16  1  0
 16 17  1  0
 17 18  1  0
 18 19  1  0
 19 20  1  0
 20 21  1  0
 19 22  1  0
 22 23  2  0
 22 24  1  0
 24 25  1  0
 18 26  1  0
 26 27  2  0
 27 28  1  0
 28 29  1  0
 29 30  1  0
 30 31  1  0
 30 32  2  0
 28 33  2  0
 33 34  1  0
 34 35  2  0
 17 36  1  0
 36 37  2  0
 37 38  1  0
 38 39  2  0
 39 40  1  0
 40 41  2  0
  2 42  1  0
 42 43  1  0
 42 44  2  0
  9  6  1  0
 21 12  1  0
 35 26  1  0
 41 36  1  0
 21 16  2  0
M  END
