CVD-0000705|dock_bobby27042020.69|mol2|25|dock3
     RDKit          3D

 17 18  0  0  0  0  0  0  0  0999 V2000
    5.7837    1.3833   17.2552 Cl  0  0  0  0  0  0  0  0  0  0  0  0
    6.1792    0.6839   18.8001 C   0  0  0  0  0  0  0  0  0  0  0  0
    5.2169    0.6476   19.7838 C   0  0  0  0  0  0  0  0  0  0  0  0
    5.5390    0.0904   21.0083 C   0  0  0  0  0  0  0  0  0  0  0  0
    6.8065   -0.4189   21.2328 C   0  0  0  0  0  0  0  0  0  0  0  0
    7.7739   -0.3793   20.2349 C   0  0  0  0  0  0  0  0  0  0  0  0
    9.0487   -0.9206   20.5401 N   0  0  0  0  0  0  0  0  0  0  0  0
    9.7235   -1.0170   21.7357 C   0  0  0  0  0  0  0  0  0  0  0  0
    9.2916   -0.6168   22.8118 O   0  0  0  0  0  0  0  0  0  0  0  0
   10.9487   -1.6214   21.5702 N   0  0  0  0  0  0  0  0  0  0  0  0
   11.9623   -1.9229   22.5145 C   0  0  0  0  0  0  0  0  0  0  0  0
   11.7295   -2.1943   23.8595 C   0  0  0  0  0  0  0  0  0  0  0  0
   12.8012   -2.4761   24.6891 C   0  0  0  0  0  0  0  0  0  0  0  0
   14.0701   -2.4797   24.1577 C   0  0  0  0  0  0  0  0  0  0  0  0
   14.3246   -2.2238   22.8747 N   0  0  0  0  0  0  0  0  0  0  0  0
   13.2834   -1.9530   22.0824 C   0  0  0  0  0  0  0  0  0  0  0  0
    7.4496    0.1824   19.0004 C   0  0  0  0  0  0  0  0  0  0  0  0
  1  2  1  0
  2  3  2  0
  3  4  1  0
  4  5  2  0
  5  6  1  0
  6  7  1  0
  7  8  1  0
  8  9  2  0
  8 10  1  0
 10 11  1  0
 11 12  2  0
 12 13  1  0
 13 14  2  0
 14 15  1  0
 15 16  2  0
  6 17  2  0
 17  2  1  0
 16 11  1  0
M  END
