CVD-0001893|dock_bobby27042020.22|mol2|25|dock3
     RDKit          3D

 36 38  0  0  0  0  0  0  0  0999 V2000
    6.3867    3.4723   22.6635 C   0  0  0  0  0  0  0  0  0  0  0  0
    7.3459    3.6307   23.8156 C   0  0  0  0  0  0  0  0  0  0  0  0
    8.7062    4.1876   23.4588 C   0  0  0  0  0  0  0  0  0  0  0  0
    8.7852    5.5426   23.1455 C   0  0  0  0  0  0  0  0  0  0  0  0
    9.9996    6.1619   22.9111 C   0  0  0  0  0  0  0  0  0  0  0  0
   11.1684    5.4285   22.9909 C   0  0  0  0  0  0  0  0  0  0  0  0
   11.1386    4.0633   23.2607 C   0  0  0  0  0  0  0  0  0  0  0  0
   12.4229    3.2812   23.3400 C   0  0  0  0  0  0  0  0  0  0  0  0
    9.9003    3.4415   23.4465 C   0  0  0  0  0  0  0  0  0  0  0  0
    9.9332    2.0185   23.6281 N   0  0  0  0  0  0  0  0  0  0  0  0
    9.6853    1.0865   22.6757 C   0  0  0  0  0  0  0  0  0  0  0  0
    9.3939    1.3282   21.5084 O   0  0  0  0  0  0  0  0  0  0  0  0
    9.8096   -0.3654   23.1854 C   0  0  0  0  0  0  0  0  0  0  0  0
    8.8834   -1.2769   22.4611 N   0  0  0  0  0  0  0  0  0  0  0  0
    8.9303   -2.6256   22.8050 C   0  0  0  0  0  0  0  0  0  0  0  0
    9.7079   -3.0159   23.6747 O   0  0  0  0  0  0  0  0  0  0  0  0
    8.0743   -3.6859   22.1866 C   0  0  0  0  0  0  0  0  0  0  0  0
    8.0340   -4.9346   22.5765 C   0  0  0  0  0  0  0  0  0  0  0  0
    8.0452   -0.7044   21.4468 C   0  0  0  0  0  0  0  0  0  0  0  0
    6.8349   -0.1019   21.7712 C   0  0  0  0  0  0  0  0  0  0  0  0
    6.0239    0.4419   20.7910 C   0  0  0  0  0  0  0  0  0  0  0  0
    6.4248    0.3813   19.4674 C   0  0  0  0  0  0  0  0  0  0  0  0
    7.6237   -0.2171   19.1202 C   0  0  0  0  0  0  0  0  0  0  0  0
    8.4247   -0.7570   20.1108 C   0  0  0  0  0  0  0  0  0  0  0  0
    5.3746    1.0891   18.1825 S   0  0  0  0  0  0  0  0  0  0  0  0
    3.8516    0.6620   18.1613 F   0  0  0  0  0  0  0  0  0  0  0  0
    5.6502    2.5859   17.7512 F   0  0  0  0  0  0  0  0  0  0  0  0
    4.9059    0.1362   17.0100 F   0  0  0  0  0  0  0  0  0  0  0  0
    6.0175    1.3252   16.7565 F   0  0  0  0  0  0  0  0  0  0  0  0
    4.3116    2.1761   18.6194 F   0  0  0  0  0  0  0  0  0  0  0  0
   11.2462   -0.8778   23.2253 C   0  0  0  0  0  0  0  0  0  0  0  0
   11.8602   -1.3494   22.0746 C   0  0  0  0  0  0  0  0  0  0  0  0
   13.1613   -1.8182   22.1251 C   0  0  0  0  0  0  0  0  0  0  0  0
   13.8171   -1.8033   23.3347 C   0  0  0  0  0  0  0  0  0  0  0  0
   13.2589   -1.3577   24.4608 N   0  0  0  0  0  0  0  0  0  0  0  0
   12.0030   -0.9067   24.3881 C   0  0  0  0  0  0  0  0  0  0  0  0
  1  2  1  0
  2  3  1  0
  3  4  2  0
  4  5  1  0
  5  6  2  0
  6  7  1  0
  7  8  1  0
  7  9  2  0
  9 10  1  0
 10 11  1  0
 11 12  2  0
 11 13  1  0
 13 14  1  0
 14 15  1  0
 15 16  2  0
 15 17  1  0
 17 18  2  0
 14 19  1  0
 19 20  2  0
 20 21  1  0
 21 22  2  0
 22 23  1  0
 23 24  2  0
 22 25  1  0
 25 26  1  0
 25 27  1  0
 25 28  1  0
 25 29  1  0
 25 30  1  0
 13 31  1  0
 31 32  2  0
 32 33  1  0
 33 34  2  0
 34 35  1  0
 35 36  2  0
  9  3  1  0
 24 19  1  0
 36 31  1  0
M  END
