CVD-0003879|dock_bobby27042020.0|mol2|31|dock3
     RDKit          3D

 25 27  0  0  0  0  0  0  0  0999 V2000
   13.3725    5.5981   21.6229 N   0  0  0  0  0  0  0  0  0  0  0  0
   13.3501    4.8764   23.0519 S   0  0  0  0  0  0  0  0  0  0  0  0
   12.5211    5.6663   23.9121 O   0  0  0  0  0  0  0  0  0  0  0  0
   14.7116    4.6408   23.4286 O   0  0  0  0  0  0  0  0  0  0  0  0
   12.5721    3.3000   22.8709 C   0  0  0  0  0  0  0  0  0  0  0  0
   11.1918    3.2078   22.8788 C   0  0  0  0  0  0  0  0  0  0  0  0
   10.5879    1.9703   22.7440 C   0  0  0  0  0  0  0  0  0  0  0  0
   11.3451    0.8119   22.5973 C   0  0  0  0  0  0  0  0  0  0  0  0
   12.7317    0.9297   22.5918 C   0  0  0  0  0  0  0  0  0  0  0  0
   13.3457    2.1618   22.7304 C   0  0  0  0  0  0  0  0  0  0  0  0
   10.7336   -0.4270   22.4601 N   0  0  0  0  0  0  0  0  0  0  0  0
    9.6731   -0.6867   21.4819 C   0  0  0  0  0  0  0  0  0  0  0  0
    8.5258   -1.4491   22.0819 C   0  0  0  0  0  0  0  0  0  0  0  0
    9.0059   -2.7631   22.7081 C   0  0  0  0  0  0  0  0  0  0  0  0
    7.8576   -3.5461   23.3160 C   0  0  0  0  0  0  0  0  0  0  0  0
    8.2535   -4.8597   23.7861 N   0  0  0  0  0  0  0  0  0  0  0  0
    8.1375   -5.2477   25.1079 C   0  0  0  0  0  0  0  0  0  0  0  0
    9.2848   -5.5338   25.8388 C   0  0  0  0  0  0  0  0  0  0  0  0
    9.1927   -5.9243   27.1643 C   0  0  0  0  0  0  0  0  0  0  0  0
    7.9566   -6.0342   27.7773 C   0  0  0  0  0  0  0  0  0  0  0  0
    6.8443   -5.7465   27.0355 C   0  0  0  0  0  0  0  0  0  0  0  0
    5.6248   -5.8514   27.6290 F   0  0  0  0  0  0  0  0  0  0  0  0
    6.8916   -5.3560   25.7197 C   0  0  0  0  0  0  0  0  0  0  0  0
   10.0909   -2.4540   23.7086 C   0  0  0  0  0  0  0  0  0  0  0  0
   11.2336   -1.6583   23.1146 C   0  0  0  0  0  0  0  0  0  0  0  0
  1  2  1  0
  2  3  2  0
  2  4  2  0
  2  5  1  0
  5  6  2  0
  6  7  1  0
  7  8  2  0
  8  9  1  0
  9 10  2  0
  8 11  1  0
 11 12  1  0
 12 13  1  0
 13 14  1  0
 14 15  1  0
 15 16  1  0
 16 17  1  0
 17 18  2  0
 18 19  1  0
 19 20  2  0
 20 21  1  0
 21 22  1  0
 21 23  2  0
 14 24  1  0
 24 25  1  0
 10  5  1  0
 25 11  1  0
 23 17  1  0
M  END
