CVD-0002419|dock_bobby27042020.20|mol2|13|dock2
     RDKit          3D

 27 30  0  0  0  0  0  0  0  0999 V2000
   10.6158    0.8365   25.6201 C   0  0  0  0  0  0  0  0  0  0  0  0
   11.8232    0.5379   24.7438 C   0  0  0  0  0  0  0  0  0  0  0  0
   11.3899   -0.3454   23.5276 C   0  0  0  0  0  0  0  0  0  0  0  0
   12.5750   -0.6519   22.5950 C   0  0  0  0  0  0  0  0  0  0  0  0
   13.3122    0.6395   22.2448 C   0  0  0  0  0  0  0  0  0  0  0  0
   13.7066    1.3927   23.5060 C   0  0  0  0  0  0  0  0  0  0  0  0
   12.5218    1.7311   24.2915 N   0  0  0  0  0  0  0  0  0  0  0  0
   11.7101    2.7856   23.6574 C   0  0  0  0  0  0  0  0  0  0  0  0
   12.4615    4.0756   23.4297 C   0  0  0  0  0  0  0  0  0  0  0  0
   12.5385    5.0358   24.4266 C   0  0  0  0  0  0  0  0  0  0  0  0
   13.2253    6.2199   24.2170 C   0  0  0  0  0  0  0  0  0  0  0  0
   13.8423    6.4575   23.0076 C   0  0  0  0  0  0  0  0  0  0  0  0
   13.7723    5.5114   22.0078 C   0  0  0  0  0  0  0  0  0  0  0  0
   13.0854    4.3272   22.2175 C   0  0  0  0  0  0  0  0  0  0  0  0
   10.7949   -1.6064   23.9260 O   0  0  0  0  0  0  0  0  0  0  0  0
    9.4983   -1.9513   23.3772 C   0  0  0  0  0  0  0  0  0  0  0  0
    8.8928   -3.2156   23.9747 C   0  0  0  0  0  0  0  0  0  0  0  0
    7.6048   -3.6280   23.2897 C   0  0  0  0  0  0  0  0  0  0  0  0
    7.7901   -3.8107   21.8450 N   0  0  0  0  0  0  0  0  0  0  0  0
    6.5477   -4.2591   21.2133 C   0  0  0  0  0  0  0  0  0  0  0  0
    5.9017   -5.4364   21.8992 C   0  0  0  0  0  0  0  0  0  0  0  0
    6.4898   -6.7182   22.0326 C   0  0  0  0  0  0  0  0  0  0  0  0
    5.7233   -7.6263   22.6981 C   0  0  0  0  0  0  0  0  0  0  0  0
    4.2604   -6.9042   23.1698 S   0  0  0  0  0  0  0  0  0  0  0  0
    4.6733   -5.4030   22.4862 C   0  0  0  0  0  0  0  0  0  0  0  0
    8.2614   -2.5548   21.2551 C   0  0  0  0  0  0  0  0  0  0  0  0
    9.5860   -2.1279   21.8654 C   0  0  0  0  0  0  0  0  0  0  0  0
  1  2  1  0
  2  3  1  0
  3  4  1  0
  4  5  1  0
  5  6  1  0
  6  7  1  0
  7  8  1  0
  8  9  1  0
  9 10  2  0
 10 11  1  0
 11 12  2  0
 12 13  1  0
 13 14  2  0
  3 15  1  0
 15 16  1  0
 16 17  1  0
 17 18  1  0
 18 19  1  0
 19 20  1  0
 20 21  1  0
 21 22  1  0
 22 23  2  0
 23 24  1  0
 24 25  1  0
 19 26  1  0
 26 27  1  0
  7  2  1  0
 14  9  1  0
 27 16  1  0
 25 21  2  0
M  END
