CVD-0002086|dock_bobby27042020.7|mol2|27|dock2
     RDKit          3D

 19 20  0  0  0  0  0  0  0  0999 V2000
    4.3911    1.6090   20.8066 C   0  0  0  0  0  0  0  0  0  0  0  0
    5.0891    1.1954   19.5453 C   0  0  0  0  0  0  0  0  0  0  0  0
    4.9481    1.9709   18.4712 N   0  0  0  0  0  0  0  0  0  0  0  0
    5.5805    1.5850   17.3610 C   0  0  0  0  0  0  0  0  0  0  0  0
    6.3432    0.5089   17.1959 N   0  0  0  0  0  0  0  0  0  0  0  0
    6.4800   -0.2615   18.2782 C   0  0  0  0  0  0  0  0  0  0  0  0
    5.8721    0.0248   19.5072 C   0  0  0  0  0  0  0  0  0  0  0  0
    6.0438   -0.8274   20.6474 C   0  0  0  0  0  0  0  0  0  0  0  0
    6.2727   -1.5415   21.5748 C   0  0  0  0  0  0  0  0  0  0  0  0
    6.5918   -2.3862   22.7317 C   0  0  0  0  0  0  0  0  0  0  0  0
    7.9388   -2.9289   22.7546 N   0  0  0  0  0  0  0  0  0  0  0  0
    8.9462   -1.9699   23.2134 C   0  0  0  0  0  0  0  0  0  0  0  0
   10.3506   -2.4963   22.9765 C   0  0  0  0  0  0  0  0  0  0  0  0
   11.3760   -1.8496   23.8762 C   0  0  0  0  0  0  0  0  0  0  0  0
   12.3102   -2.6175   24.5542 C   0  0  0  0  0  0  0  0  0  0  0  0
   13.2491   -2.0250   25.3821 C   0  0  0  0  0  0  0  0  0  0  0  0
   13.2644   -0.6563   25.5430 C   0  0  0  0  0  0  0  0  0  0  0  0
   12.3407    0.1191   24.8763 C   0  0  0  0  0  0  0  0  0  0  0  0
   11.4023   -0.4743   24.0485 C   0  0  0  0  0  0  0  0  0  0  0  0
  1  2  1  0
  2  3  2  0
  3  4  1  0
  4  5  2  0
  5  6  1  0
  6  7  2  0
  7  8  1  0
  8  9  3  0
  9 10  1  0
 10 11  1  0
 11 12  1  0
 12 13  1  0
 13 14  1  0
 14 15  2  0
 15 16  1  0
 16 17  2  0
 17 18  1  0
 18 19  2  0
  7  2  1  0
 19 14  1  0
M  END
