CVD-0000399|dock_bobby27042020.27|mol2|19|dock3
     RDKit          3D

 25 28  0  0  0  0  0  0  0  0999 V2000
    5.8184    1.3938   18.7307 C   0  0  0  0  0  0  0  0  0  0  0  0
    5.1086    0.0733   18.5414 C   0  0  0  0  0  0  0  0  0  0  0  0
    5.2371   -0.8281   19.7553 C   0  0  0  0  0  0  0  0  0  0  0  0
    6.6326   -1.2567   20.1027 C   0  0  0  0  0  0  0  0  0  0  0  0
    7.7287   -1.2465   19.2900 C   0  0  0  0  0  0  0  0  0  0  0  0
    8.8271   -1.7109   19.9614 N   0  0  0  0  0  0  0  0  0  0  0  0
    8.4486   -2.0333   21.2410 C   0  0  0  0  0  0  0  0  0  0  0  0
    9.1899   -2.5427   22.3103 C   0  0  0  0  0  0  0  0  0  0  0  0
   10.5404   -2.7719   22.0459 O   0  0  0  0  0  0  0  0  0  0  0  0
   11.5388   -1.9854   22.5503 C   0  0  0  0  0  0  0  0  0  0  0  0
   11.4462   -0.6132   22.3816 C   0  0  0  0  0  0  0  0  0  0  0  0
   12.4664    0.1819   22.8890 C   0  0  0  0  0  0  0  0  0  0  0  0
   13.5281   -0.4340   23.5375 C   0  0  0  0  0  0  0  0  0  0  0  0
   13.5175   -1.8094   23.6450 C   0  0  0  0  0  0  0  0  0  0  0  0
   12.5423   -2.5897   23.1610 N   0  0  0  0  0  0  0  0  0  0  0  0
   12.4150    1.6411   22.7383 C   0  0  0  0  0  0  0  0  0  0  0  0
   11.3619    2.4861   22.5611 C   0  0  0  0  0  0  0  0  0  0  0  0
   11.7922    3.7857   22.4688 N   0  0  0  0  0  0  0  0  0  0  0  0
   13.1045    3.7223   22.5905 C   0  0  0  0  0  0  0  0  0  0  0  0
   13.5248    2.4550   22.7544 N   0  0  0  0  0  0  0  0  0  0  0  0
    8.5670   -2.7924   23.5237 C   0  0  0  0  0  0  0  0  0  0  0  0
    7.2222   -2.5160   23.6167 C   0  0  0  0  0  0  0  0  0  0  0  0
    6.6087   -2.7582   24.8065 F   0  0  0  0  0  0  0  0  0  0  0  0
    6.4537   -2.0126   22.5931 C   0  0  0  0  0  0  0  0  0  0  0  0
    7.0750   -1.7628   21.3709 C   0  0  0  0  0  0  0  0  0  0  0  0
  1  2  1  0
  2  3  1  0
  3  4  1  0
  4  5  2  0
  5  6  1  0
  6  7  1  0
  7  8  2  0
  8  9  1  0
  9 10  1  0
 10 11  2  0
 11 12  1  0
 12 13  2  0
 13 14  1  0
 14 15  2  0
 12 16  1  0
 16 17  2  0
 17 18  1  0
 18 19  2  0
 19 20  1  0
  8 21  1  0
 21 22  2  0
 22 23  1  0
 22 24  1  0
 24 25  2  0
 25  4  1  0
 25  7  1  0
 15 10  1  0
 20 16  1  0
M  END
