CVD-0003499|dock_bobby27042020.73|mol2|34|dock1
     RDKit          3D

 36 41  0  0  0  0  0  0  0  0999 V2000
   10.8000   -0.7114   22.0078 C   0  0  0  0  0  0  0  0  0  0  0  0
    9.5599   -0.3776   22.7011 N   0  0  0  0  0  0  0  0  0  0  0  0
    9.6690    0.0361   24.1288 C   0  0  0  0  0  0  0  0  0  0  0  0
    8.8015   -0.8282   25.0553 C   0  0  0  0  0  0  0  0  0  0  0  0
    8.5177   -2.2129   24.4954 C   0  0  0  0  0  0  0  0  0  0  0  0
    7.8710   -2.0512   23.1464 C   0  0  0  0  0  0  0  0  0  0  0  0
    6.7268   -2.7405   22.7608 C   0  0  0  0  0  0  0  0  0  0  0  0
    6.1105   -2.4828   21.5521 C   0  0  0  0  0  0  0  0  0  0  0  0
    6.6489   -1.5196   20.7168 C   0  0  0  0  0  0  0  0  0  0  0  0
    7.7899   -0.8108   21.0672 C   0  0  0  0  0  0  0  0  0  0  0  0
    8.3994   -1.0829   22.2900 C   0  0  0  0  0  0  0  0  0  0  0  0
    5.9268   -1.2358   19.1336 S   0  0  0  0  0  0  0  0  0  0  0  0
    6.9882   -1.1332   18.1697 O   0  0  0  0  0  0  0  0  0  0  0  0
    4.8966   -2.2174   18.9293 O   0  0  0  0  0  0  0  0  0  0  0  0
    5.1637    0.3490   19.2946 C   0  0  0  0  0  0  0  0  0  0  0  0
    5.2780    1.4096   18.4546 C   0  0  0  0  0  0  0  0  0  0  0  0
    4.4674    2.5361   18.9826 C   0  0  0  0  0  0  0  0  0  0  0  0
    3.8924    2.0473   20.2022 C   0  0  0  0  0  0  0  0  0  0  0  0
    4.3057    0.7319   20.4036 C   0  0  0  0  0  0  0  0  0  0  0  0
    9.2718    1.4911   24.2763 C   0  0  0  0  0  0  0  0  0  0  0  0
    8.5040    1.9018   25.3509 N   0  0  0  0  0  0  0  0  0  0  0  0
    8.3546    3.1975   25.1639 C   0  0  0  0  0  0  0  0  0  0  0  0
    8.9657    3.6458   24.0332 N   0  0  0  0  0  0  0  0  0  0  0  0
    9.0143    5.0280   23.5485 C   0  0  0  0  0  0  0  0  0  0  0  0
    7.9351    5.3931   22.5381 C   0  0  0  0  0  0  0  0  0  0  0  0
    8.1599    6.8444   22.2071 C   0  0  0  0  0  0  0  0  0  0  0  0
    7.4913    7.5551   23.3518 C   0  0  0  0  0  0  0  0  0  0  0  0
    6.4821    6.6923   23.8565 O   0  0  0  0  0  0  0  0  0  0  0  0
    6.5722    5.4347   23.2020 C   0  0  0  0  0  0  0  0  0  0  0  0
    9.5573    2.5460   23.4713 C   0  0  0  0  0  0  0  0  0  0  0  0
   10.3385    2.6770   22.2026 C   0  0  0  0  0  0  0  0  0  0  0  0
   11.7506    3.1388   22.3155 C   0  0  0  0  0  0  0  0  0  0  0  0
   12.9058    2.6688   22.7984 C   0  0  0  0  0  0  0  0  0  0  0  0
   13.9093    3.5874   22.6073 N   0  0  0  0  0  0  0  0  0  0  0  0
   13.3341    4.5533   22.0303 C   0  0  0  0  0  0  0  0  0  0  0  0
   12.0094    4.3782   21.8052 O   0  0  0  0  0  0  0  0  0  0  0  0
  1  2  1  0
  2  3  1  0
  3  4  1  0
  4  5  1  0
  5  6  1  0
  6  7  2  0
  7  8  1  0
  8  9  2  0
  9 10  1  0
 10 11  2  0
  9 12  1  0
 12 13  2  0
 12 14  2  0
 12 15  1  0
 15 16  2  0
 16 17  1  0
 17 18  1  0
 18 19  2  0
  3 20  1  0
 20 21  1  0
 21 22  2  0
 22 23  1  0
 23 24  1  0
 25 24  1  0
 25 26  1  0
 26 27  1  0
 27 28  1  0
 28 29  1  0
 23 30  1  0
 30 31  1  0
 31 32  1  0
 32 33  2  0
 33 34  1  0
 34 35  2  0
 35 36  1  0
 11  2  1  0
 19 15  1  0
 30 20  2  0
 36 32  1  0
 11  6  1  0
 29 25  1  0
M  END
