CVD-0003432|dock_bobby27042020.31|mol2|2|dock3
     RDKit          3D

 17 18  0  0  0  0  0  0  0  0999 V2000
   13.7722   -1.8253   20.5056 Cl  0  0  0  0  0  0  0  0  0  0  0  0
   13.2955   -2.0223   22.1636 C   0  0  0  0  0  0  0  0  0  0  0  0
   14.3050   -2.2849   22.9729 N   0  0  0  0  0  0  0  0  0  0  0  0
   14.0216   -2.4507   24.2677 C   0  0  0  0  0  0  0  0  0  0  0  0
   12.7483   -2.3598   24.7741 C   0  0  0  0  0  0  0  0  0  0  0  0
   11.6995   -2.0839   23.9129 C   0  0  0  0  0  0  0  0  0  0  0  0
   11.9496   -1.9028   22.5495 C   0  0  0  0  0  0  0  0  0  0  0  0
   10.9455   -1.6160   21.5816 N   0  0  0  0  0  0  0  0  0  0  0  0
    9.7145   -1.0189   21.7432 C   0  0  0  0  0  0  0  0  0  0  0  0
    9.2684   -0.6185   22.8130 O   0  0  0  0  0  0  0  0  0  0  0  0
    9.0425   -0.9272   20.5447 N   0  0  0  0  0  0  0  0  0  0  0  0
    7.7651   -0.3947   20.2343 C   0  0  0  0  0  0  0  0  0  0  0  0
    7.5678    0.0915   18.9466 C   0  0  0  0  0  0  0  0  0  0  0  0
    6.3464    0.6257   18.5731 C   0  0  0  0  0  0  0  0  0  0  0  0
    5.3082    0.6821   19.4760 C   0  0  0  0  0  0  0  0  0  0  0  0
    5.4904    0.2038   20.7549 C   0  0  0  0  0  0  0  0  0  0  0  0
    6.7078   -0.3329   21.1403 C   0  0  0  0  0  0  0  0  0  0  0  0
  1  2  1  0
  2  3  2  0
  3  4  1  0
  4  5  2  0
  5  6  1  0
  6  7  2  0
  7  8  1  0
  8  9  1  0
  9 10  2  0
  9 11  1  0
 11 12  1  0
 12 13  2  0
 13 14  1  0
 14 15  2  0
 15 16  1  0
 16 17  2  0
  7  2  1  0
 17 12  1  0
M  END
