CVD-0000366|dock_bobby27042020.27|mol2|24|dock3
     RDKit          3D

 25 27  0  0  0  0  0  0  0  0999 V2000
    5.6702   -4.4629   27.5249 C   0  0  0  0  0  0  0  0  0  0  0  0
    6.9679   -5.1864   27.3160 C   0  0  0  0  0  0  0  0  0  0  0  0
    7.0666   -6.3911   27.5207 O   0  0  0  0  0  0  0  0  0  0  0  0
    8.0381   -4.4646   26.9029 N   0  0  0  0  0  0  0  0  0  0  0  0
    9.3580   -5.0585   26.6788 C   0  0  0  0  0  0  0  0  0  0  0  0
    9.8535   -4.7366   25.2812 C   0  0  0  0  0  0  0  0  0  0  0  0
    9.9113   -3.2852   25.0849 N   0  0  0  0  0  0  0  0  0  0  0  0
   10.4285   -2.9677   23.7467 C   0  0  0  0  0  0  0  0  0  0  0  0
   10.6728   -1.4917   23.5440 C   0  0  0  0  0  0  0  0  0  0  0  0
    9.7566   -0.7041   22.8690 C   0  0  0  0  0  0  0  0  0  0  0  0
    9.9712    0.6496   22.6802 C   0  0  0  0  0  0  0  0  0  0  0  0
   11.1270    1.2712   23.1619 C   0  0  0  0  0  0  0  0  0  0  0  0
   12.0302    0.4459   23.8272 C   0  0  0  0  0  0  0  0  0  0  0  0
   13.1829    0.9625   24.3121 F   0  0  0  0  0  0  0  0  0  0  0  0
   11.8277   -0.8954   24.0277 C   0  0  0  0  0  0  0  0  0  0  0  0
   11.2932    2.7349   22.9278 C   0  0  0  0  0  0  0  0  0  0  0  0
   12.5152    3.2842   22.5539 C   0  0  0  0  0  0  0  0  0  0  0  0
   12.5757    4.6517   22.3492 C   0  0  0  0  0  0  0  0  0  0  0  0
   13.8453    5.3389   21.9463 C   0  0  0  0  0  0  0  0  0  0  0  0
   11.4934    5.4311   22.5090 N   0  0  0  0  0  0  0  0  0  0  0  0
   10.4083    4.7897   22.8651 C   0  0  0  0  0  0  0  0  0  0  0  0
    9.3302    5.5607   23.0261 F   0  0  0  0  0  0  0  0  0  0  0  0
   10.2095    3.5144   23.0888 N   0  0  0  0  0  0  0  0  0  0  0  0
    8.5733   -2.7267   25.2620 C   0  0  0  0  0  0  0  0  0  0  0  0
    8.0485   -3.0194   26.6559 C   0  0  0  0  0  0  0  0  0  0  0  0
  1  2  1  0
  2  3  2  0
  2  4  1  0
  4  5  1  0
  5  6  1  0
  6  7  1  0
  7  8  1  0
  8  9  1  0
  9 10  2  0
 10 11  1  0
 11 12  2  0
 12 13  1  0
 13 14  1  0
 13 15  2  0
 12 16  1  0
 16 17  2  0
 17 18  1  0
 18 19  1  0
 18 20  2  0
 20 21  1  0
 21 22  1  0
 21 23  2  0
  7 24  1  0
 24 25  1  0
 25  4  1  0
 15  9  1  0
 23 16  1  0
M  END
