CVD-0001960|dock_bobby27042020.36|mol2|23|dock3
     RDKit          3D

 30 33  0  0  0  0  0  0  0  0999 V2000
   13.4565    4.9537   22.2833 C   0  0  0  0  0  0  0  0  0  0  0  0
   12.1208    4.4759   21.9163 N   0  0  0  0  0  0  0  0  0  0  0  0
   11.4122    3.7703   22.9895 C   0  0  0  0  0  0  0  0  0  0  0  0
   11.3450    2.2880   22.7319 C   0  0  0  0  0  0  0  0  0  0  0  0
   10.1635    1.5248   22.6869 C   0  0  0  0  0  0  0  0  0  0  0  0
   10.4711    0.2018   22.4335 C   0  0  0  0  0  0  0  0  0  0  0  0
    9.5126   -0.9223   22.3142 C   0  0  0  0  0  0  0  0  0  0  0  0
    9.6937   -1.9845   23.1996 C   0  0  0  0  0  0  0  0  0  0  0  0
    8.8227   -3.0575   23.2279 C   0  0  0  0  0  0  0  0  0  0  0  0
    7.7355   -3.1175   22.3637 C   0  0  0  0  0  0  0  0  0  0  0  0
    7.5884   -2.0730   21.4508 C   0  0  0  0  0  0  0  0  0  0  0  0
    8.4652   -0.9926   21.3812 C   0  0  0  0  0  0  0  0  0  0  0  0
    8.2461    0.0192   20.2883 C   0  0  0  0  0  0  0  0  0  0  0  0
    6.7695   -4.2489   22.4061 C   0  0  0  0  0  0  0  0  0  0  0  0
    5.4308   -4.0396   22.7290 C   0  0  0  0  0  0  0  0  0  0  0  0
    4.5308   -5.0915   22.7675 C   0  0  0  0  0  0  0  0  0  0  0  0
    4.9492   -6.3738   22.4890 C   0  0  0  0  0  0  0  0  0  0  0  0
    6.2690   -6.6037   22.1688 C   0  0  0  0  0  0  0  0  0  0  0  0
    7.1702   -5.5530   22.1247 C   0  0  0  0  0  0  0  0  0  0  0  0
   11.8825    0.1469   22.2937 N   0  0  0  0  0  0  0  0  0  0  0  0
   12.4008    1.4217   22.4831 C   0  0  0  0  0  0  0  0  0  0  0  0
   12.9129   -1.1508   21.9378 S   0  0  0  0  0  0  0  0  0  0  0  0
   12.1319   -2.1073   21.2165 O   0  0  0  0  0  0  0  0  0  0  0  0
   14.1010   -0.5913   21.3718 O   0  0  0  0  0  0  0  0  0  0  0  0
   13.3201   -1.8399   23.5046 C   0  0  0  0  0  0  0  0  0  0  0  0
   14.1845   -1.1761   24.3582 C   0  0  0  0  0  0  0  0  0  0  0  0
   14.4734   -1.7520   25.5833 C   0  0  0  0  0  0  0  0  0  0  0  0
   13.8901   -2.9573   25.9028 C   0  0  0  0  0  0  0  0  0  0  0  0
   13.0544   -3.6068   25.0912 N   0  0  0  0  0  0  0  0  0  0  0  0
   12.7795   -3.0454   23.9101 C   0  0  0  0  0  0  0  0  0  0  0  0
  1  2  1  0
  2  3  1  0
  3  4  1  0
  4  5  1  0
  5  6  2  0
  6  7  1  0
  7  8  2  0
  8  9  1  0
  9 10  2  0
 10 11  1  0
 11 12  2  0
 12 13  1  0
 10 14  1  0
 14 15  2  0
 15 16  1  0
 16 17  2  0
 17 18  1  0
 18 19  2  0
  6 20  1  0
 20 21  1  0
 20 22  1  0
 22 23  2  0
 22 24  2  0
 22 25  1  0
 25 26  2  0
 26 27  1  0
 27 28  2  0
 28 29  1  0
 29 30  2  0
 21  4  2  0
 30 25  1  0
 12  7  1  0
 19 14  1  0
M  END
