CVD-0001281|dock_bobby27042020.53|mol2|14|dock3
     RDKit          3D

 20 22  0  0  0  0  0  0  0  0999 V2000
    7.2162    1.9095   21.1708 O   0  0  0  0  0  0  0  0  0  0  0  0
    7.4091    0.8458   20.6138 C   0  0  0  0  0  0  0  0  0  0  0  0
    8.3950   -0.1384   21.2118 C   0  0  0  0  0  0  0  0  0  0  0  0
    7.7863   -1.3694   21.8486 C   0  0  0  0  0  0  0  0  0  0  0  0
    8.8923   -2.3002   22.3280 C   0  0  0  0  0  0  0  0  0  0  0  0
    9.8126   -1.6338   23.3188 C   0  0  0  0  0  0  0  0  0  0  0  0
   10.3614   -0.4115   22.6533 N   0  0  0  0  0  0  0  0  0  0  0  0
    9.3608    0.5790   22.1958 C   0  0  0  0  0  0  0  0  0  0  0  0
   11.7201   -0.1308   22.6229 C   0  0  0  0  0  0  0  0  0  0  0  0
   12.6436   -1.0927   22.2311 C   0  0  0  0  0  0  0  0  0  0  0  0
   13.9861   -0.7700   22.2145 C   0  0  0  0  0  0  0  0  0  0  0  0
   14.4682    0.4250   22.5528 N   0  0  0  0  0  0  0  0  0  0  0  0
   13.5773    1.3415   22.9285 C   0  0  0  0  0  0  0  0  0  0  0  0
   12.2158    1.1171   22.9821 C   0  0  0  0  0  0  0  0  0  0  0  0
    6.7537    0.5470   19.4736 N   0  0  0  0  0  0  0  0  0  0  0  0
    5.7548    1.4384   18.8723 C   0  0  0  0  0  0  0  0  0  0  0  0
    4.5282    0.6437   18.4730 C   0  0  0  0  0  0  0  0  0  0  0  0
    4.8506   -0.4257   17.6071 O   0  0  0  0  0  0  0  0  0  0  0  0
    5.7672   -1.3157   18.2447 C   0  0  0  0  0  0  0  0  0  0  0  0
    7.0499   -0.6069   18.6192 C   0  0  0  0  0  0  0  0  0  0  0  0
  1  2  2  0
  2  3  1  0
  3  4  1  0
  4  5  1  0
  5  6  1  0
  6  7  1  0
  7  8  1  0
  7  9  1  0
  9 10  2  0
 10 11  1  0
 11 12  2  0
 12 13  1  0
 13 14  2  0
  2 15  1  0
 15 16  1  0
 16 17  1  0
 17 18  1  0
 18 19  1  0
 19 20  1  0
  8  3  1  0
 14  9  1  0
 20 15  1  0
M  END
