CVD-0003596|dock_bobby27042020.44|mol2|45|dock2
     RDKit          3D

 13 13  0  0  0  0  0  0  0  0999 V2000
   14.2788    5.6791   21.5245 C   0  0  0  0  0  0  0  0  0  0  0  0
   13.2227    4.9164   21.5642 C   0  0  0  0  0  0  0  0  0  0  0  0
   12.2087    4.8194   22.9880 S   0  0  0  0  0  0  0  0  0  0  0  0
   13.0297    5.0853   24.1298 O   0  0  0  0  0  0  0  0  0  0  0  0
   11.0443    5.6182   22.7537 O   0  0  0  0  0  0  0  0  0  0  0  0
   11.7036    3.2605   23.1138 N   0  0  0  0  0  0  0  0  0  0  0  0
   10.3956    2.9152   22.5391 C   0  0  0  0  0  0  0  0  0  0  0  0
    9.9146    1.6044   23.1138 C   0  0  0  0  0  0  0  0  0  0  0  0
   10.9415    0.5113   22.9210 C   0  0  0  0  0  0  0  0  0  0  0  0
   12.2792    0.9226   23.5007 C   0  0  0  0  0  0  0  0  0  0  0  0
   12.7170    2.2301   22.8788 C   0  0  0  0  0  0  0  0  0  0  0  0
   13.2632   -0.1509   23.3205 C   0  0  0  0  0  0  0  0  0  0  0  0
   14.0316   -1.0314   23.1825 C   0  0  0  0  0  0  0  0  0  0  0  0
  1  2  2  0
  2  3  1  0
  3  4  2  0
  3  5  2  0
  3  6  1  0
  6  7  1  0
  7  8  1  0
  8  9  1  0
  9 10  1  0
 10 11  1  0
 10 12  1  0
 12 13  3  0
 11  6  1  0
M  END
