CVD-0003021|dock_bobby27042020.18|mol2|1|dock3
     RDKit          3D

 21 22  0  0  0  0  0  0  0  0999 V2000
   14.3195    7.3672   21.4905 O   0  0  0  0  0  0  0  0  0  0  0  0
   14.0856    5.9690   21.4388 C   0  0  0  0  0  0  0  0  0  0  0  0
   13.7358    5.4173   22.8025 C   0  0  0  0  0  0  0  0  0  0  0  0
   13.1250    4.0845   22.7168 C   0  0  0  0  0  0  0  0  0  0  0  0
   12.5717    3.0294   22.6641 C   0  0  0  0  0  0  0  0  0  0  0  0
   11.8707    1.7815   22.5433 C   0  0  0  0  0  0  0  0  0  0  0  0
   10.4817    1.7530   22.4735 C   0  0  0  0  0  0  0  0  0  0  0  0
    9.8127    0.5476   22.3569 C   0  0  0  0  0  0  0  0  0  0  0  0
   10.5031   -0.6532   22.3058 C   0  0  0  0  0  0  0  0  0  0  0  0
    9.7662   -1.9650   22.1820 C   0  0  0  0  0  0  0  0  0  0  0  0
    8.3850   -1.8105   21.7495 N   0  0  0  0  0  0  0  0  0  0  0  0
    8.1126   -1.4801   20.4739 C   0  0  0  0  0  0  0  0  0  0  0  0
    9.0322   -1.3489   19.6752 O   0  0  0  0  0  0  0  0  0  0  0  0
    6.8225   -1.2912   20.0610 N   0  0  0  0  0  0  0  0  0  0  0  0
    6.4214   -1.3475   18.6504 C   0  0  0  0  0  0  0  0  0  0  0  0
    5.5218   -0.1732   18.3227 C   0  0  0  0  0  0  0  0  0  0  0  0
    4.3962   -0.1162   19.1753 O   0  0  0  0  0  0  0  0  0  0  0  0
    4.8146    0.0118   20.5345 C   0  0  0  0  0  0  0  0  0  0  0  0
    5.6702   -1.1615   20.9581 C   0  0  0  0  0  0  0  0  0  0  0  0
   11.8869   -0.6194   22.3770 C   0  0  0  0  0  0  0  0  0  0  0  0
   12.5683    0.5790   22.4938 C   0  0  0  0  0  0  0  0  0  0  0  0
  1  2  1  0
  2  3  1  0
  3  4  1  0
  4  5  3  0
  5  6  1  0
  6  7  2  0
  7  8  1  0
  8  9  2  0
  9 10  1  0
 10 11  1  0
 11 12  1  0
 12 13  2  0
 12 14  1  0
 14 15  1  0
 15 16  1  0
 16 17  1  0
 17 18  1  0
 18 19  1  0
  9 20  1  0
 20 21  2  0
 21  6  1  0
 19 14  1  0
M  END
