CVD-0003682|dock_bobby27042020.73|mol2|6|dock2
     RDKit          3D

 20 21  0  0  0  0  0  0  0  0999 V2000
   12.9810   -3.1757   26.0724 O   0  0  0  0  0  0  0  0  0  0  0  0
   13.3022   -1.9786   25.3689 C   0  0  0  0  0  0  0  0  0  0  0  0
   14.4535   -2.2504   24.4312 C   0  0  0  0  0  0  0  0  0  0  0  0
   14.4906   -1.0751   23.0862 Cl  0  0  0  0  0  0  0  0  0  0  0  0
   12.1004   -1.4608   24.6043 C   0  0  0  0  0  0  0  0  0  0  0  0
   11.3207   -2.3106   23.8324 C   0  0  0  0  0  0  0  0  0  0  0  0
   10.2267   -1.8345   23.1316 C   0  0  0  0  0  0  0  0  0  0  0  0
    9.8696   -0.4893   23.1755 C   0  0  0  0  0  0  0  0  0  0  0  0
    8.7109    0.0251   22.4351 C   0  0  0  0  0  0  0  0  0  0  0  0
    8.2710   -0.4137   21.2673 C   0  0  0  0  0  0  0  0  0  0  0  0
    7.1130    0.0974   20.5233 C   0  0  0  0  0  0  0  0  0  0  0  0
    7.1379    0.1953   19.1319 C   0  0  0  0  0  0  0  0  0  0  0  0
    6.0353    0.6804   18.4436 C   0  0  0  0  0  0  0  0  0  0  0  0
    6.0735    0.7707   17.0828 O   0  0  0  0  0  0  0  0  0  0  0  0
    4.8944    1.0743   19.1271 C   0  0  0  0  0  0  0  0  0  0  0  0
    4.8654    0.9787   20.5105 C   0  0  0  0  0  0  0  0  0  0  0  0
    3.7481    1.3635   21.1925 O   0  0  0  0  0  0  0  0  0  0  0  0
    5.9637    0.4947   21.2060 C   0  0  0  0  0  0  0  0  0  0  0  0
   10.6560    0.3571   23.9521 C   0  0  0  0  0  0  0  0  0  0  0  0
   11.7497   -0.1193   24.6527 C   0  0  0  0  0  0  0  0  0  0  0  0
  1  2  1  0
  2  3  1  0
  3  4  1  0
  2  5  1  0
  5  6  2  0
  6  7  1  0
  7  8  2  0
  8  9  1  0
  9 10  2  0
 10 11  1  0
 11 12  2  0
 12 13  1  0
 13 14  1  0
 13 15  2  0
 15 16  1  0
 16 17  1  0
 16 18  2  0
  8 19  1  0
 19 20  2  0
 20  5  1  0
 18 11  1  0
M  END
