CVD-0001649|dock_bobby27042020.52|mol2|4|dock3
     RDKit          3D

 16 17  0  0  0  0  0  0  0  0999 V2000
   10.1659    2.6890   22.8991 F   0  0  0  0  0  0  0  0  0  0  0  0
   11.5004    2.8699   22.7686 C   0  0  0  0  0  0  0  0  0  0  0  0
   11.9234    4.1298   22.4433 C   0  0  0  0  0  0  0  0  0  0  0  0
   13.2900    4.3256   22.3350 C   0  0  0  0  0  0  0  0  0  0  0  0
   14.2060    3.3600   22.5294 N   0  0  0  0  0  0  0  0  0  0  0  0
   13.7731    2.1274   22.8289 C   0  0  0  0  0  0  0  0  0  0  0  0
   12.4226    1.8166   22.9631 C   0  0  0  0  0  0  0  0  0  0  0  0
   12.0351    0.4839   23.2798 N   0  0  0  0  0  0  0  0  0  0  0  0
   12.8411   -0.3812   24.1488 C   0  0  0  0  0  0  0  0  0  0  0  0
   13.7782   -1.3252   23.3616 C   0  0  0  0  0  0  0  0  0  0  0  0
   12.9774   -2.4687   22.7002 C   0  0  0  0  0  0  0  0  0  0  0  0
   12.0278   -1.8910   21.8045 O   0  0  0  0  0  0  0  0  0  0  0  0
   10.7877   -1.5015   22.3958 C   0  0  0  0  0  0  0  0  0  0  0  0
   10.7567    0.0081   22.7276 C   0  0  0  0  0  0  0  0  0  0  0  0
   13.8069    5.6365   21.9937 C   0  0  0  0  0  0  0  0  0  0  0  0
   14.2474    6.6596   21.7406 N   0  0  0  0  0  0  0  0  0  0  0  0
  1  2  1  0
  2  3  2  0
  3  4  1  0
  4  5  2  0
  5  6  1  0
  6  7  2  0
  7  8  1  0
  8  9  1  0
  9 10  1  0
 10 11  1  0
 11 12  1  0
 12 13  1  0
 13 14  1  0
  4 15  1  0
 15 16  3  0
  7  2  1  0
 14  8  1  0
M  END
