CVD-0001043|dock_bobby27042020.11|mol2|4|dock2
     RDKit          3D

 34 38  0  0  0  0  0  0  0  0999 V2000
   15.6795    5.4672   23.2950 O   0  0  0  0  0  0  0  0  0  0  0  0
   14.6378    5.7916   22.7286 N   0  0  0  0  0  0  0  0  0  0  0  0
   14.4607    6.8704   22.1887 O   0  0  0  0  0  0  0  0  0  0  0  0
   13.5371    4.8194   22.7001 C   0  0  0  0  0  0  0  0  0  0  0  0
   13.8066    3.4878   22.4420 C   0  0  0  0  0  0  0  0  0  0  0  0
   12.7695    2.5781   22.3632 C   0  0  0  0  0  0  0  0  0  0  0  0
   11.4531    2.9970   22.5398 C   0  0  0  0  0  0  0  0  0  0  0  0
   11.1918    4.3340   22.9151 C   0  0  0  0  0  0  0  0  0  0  0  0
   12.2417    5.2474   22.9365 C   0  0  0  0  0  0  0  0  0  0  0  0
    9.8778    4.8286   23.3014 N   0  0  0  0  0  0  0  0  0  0  0  0
    9.0734    4.0615   23.8241 O   0  0  0  0  0  0  0  0  0  0  0  0
    9.6415    6.0155   23.1523 O   0  0  0  0  0  0  0  0  0  0  0  0
   10.4599    1.9856   22.3165 N   0  0  0  0  0  0  0  0  0  0  0  0
    9.2314    2.4444   21.8703 N   0  0  0  0  0  0  0  0  0  0  0  0
    8.4869    1.3474   21.6998 C   0  0  0  0  0  0  0  0  0  0  0  0
    9.2055    0.1956   22.0519 C   0  0  0  0  0  0  0  0  0  0  0  0
   10.4562    0.6150   22.4603 C   0  0  0  0  0  0  0  0  0  0  0  0
   11.5427   -0.2638   22.9459 C   0  0  0  0  0  0  0  0  0  0  0  0
   12.2396   -0.0210   24.1261 C   0  0  0  0  0  0  0  0  0  0  0  0
   13.2778   -0.8448   24.5238 C   0  0  0  0  0  0  0  0  0  0  0  0
   13.5856   -1.9278   23.7474 C   0  0  0  0  0  0  0  0  0  0  0  0
   14.6061   -2.7396   24.1346 F   0  0  0  0  0  0  0  0  0  0  0  0
   12.9079   -2.2285   22.5982 C   0  0  0  0  0  0  0  0  0  0  0  0
   11.8819   -1.3894   22.2022 C   0  0  0  0  0  0  0  0  0  0  0  0
    7.1051    1.4556   21.2064 C   0  0  0  0  0  0  0  0  0  0  0  0
    6.4784    0.3497   20.6407 C   0  0  0  0  0  0  0  0  0  0  0  0
    5.2001    0.4225   20.1762 C   0  0  0  0  0  0  0  0  0  0  0  0
    4.4644    1.6287   20.2536 C   0  0  0  0  0  0  0  0  0  0  0  0
    3.1348    1.7559   19.7857 C   0  0  0  0  0  0  0  0  0  0  0  0
    2.4739    2.9443   19.8863 C   0  0  0  0  0  0  0  0  0  0  0  0
    3.0854    4.0474   20.4454 C   0  0  0  0  0  0  0  0  0  0  0  0
    4.3649    3.9744   20.9103 C   0  0  0  0  0  0  0  0  0  0  0  0
    5.0918    2.7630   20.8280 C   0  0  0  0  0  0  0  0  0  0  0  0
    6.4200    2.6415   21.2970 C   0  0  0  0  0  0  0  0  0  0  0  0
  1  2  1  0
  2  3  2  0
  2  4  1  0
  4  5  2  0
  5  6  1  0
  6  7  2  0
  7  8  1  0
  8  9  2  0
  8 10  1  0
 10 11  1  0
 10 12  2  0
  7 13  1  0
 13 14  1  0
 14 15  2  0
 15 16  1  0
 16 17  2  0
 17 18  1  0
 18 19  2  0
 19 20  1  0
 20 21  2  0
 21 22  1  0
 21 23  1  0
 23 24  2  0
 15 25  1  0
 25 26  2  0
 26 27  1  0
 27 28  2  0
 28 29  1  0
 29 30  2  0
 30 31  1  0
 31 32  2  0
 32 33  1  0
 33 34  2  0
  9  4  1  0
 17 13  1  0
 24 18  1  0
 34 25  1  0
 33 28  1  0
M  CHG  4   1  -1   2   1  10   1  11  -1
M  END
