CVD-0002410|dock_bobby27042020.49|mol2|2|dock3
     RDKit          3D

 26 29  0  0  0  0  0  0  0  0999 V2000
    5.4082   -0.9413   16.9350 F   0  0  0  0  0  0  0  0  0  0  0  0
    5.6084   -0.5436   18.2122 C   0  0  0  0  0  0  0  0  0  0  0  0
    5.8418   -1.4819   19.1821 C   0  0  0  0  0  0  0  0  0  0  0  0
    6.0554   -1.0842   20.5003 C   0  0  0  0  0  0  0  0  0  0  0  0
    6.3134   -2.1479   21.4908 C   0  0  0  0  0  0  0  0  0  0  0  0
    6.3038   -3.3165   21.1544 O   0  0  0  0  0  0  0  0  0  0  0  0
    6.5887   -1.7386   22.9210 C   0  0  0  0  0  0  0  0  0  0  0  0
    5.9540   -0.3964   23.2249 C   0  0  0  0  0  0  0  0  0  0  0  0
    5.2439   -0.2373   24.1920 O   0  0  0  0  0  0  0  0  0  0  0  0
    6.2618    0.7409   22.2761 C   0  0  0  0  0  0  0  0  0  0  0  0
    7.7206    1.1837   22.2225 C   0  0  0  0  0  0  0  0  0  0  0  0
    8.6755    0.4157   21.5704 C   0  0  0  0  0  0  0  0  0  0  0  0
    9.9989    0.8211   21.5230 C   0  0  0  0  0  0  0  0  0  0  0  0
   10.3842    1.9989   22.1265 C   0  0  0  0  0  0  0  0  0  0  0  0
    9.4469    2.7720   22.7774 C   0  0  0  0  0  0  0  0  0  0  0  0
    8.1233    2.3673   22.8252 C   0  0  0  0  0  0  0  0  0  0  0  0
    6.0342    0.2755   20.8477 C   0  0  0  0  0  0  0  0  0  0  0  0
    5.7932    1.1965   19.8294 C   0  0  0  0  0  0  0  0  0  0  0  0
    5.5816    0.8000   18.5233 C   0  0  0  0  0  0  0  0  0  0  0  0
    5.2821    1.9878   17.2974 Cl  0  0  0  0  0  0  0  0  0  0  0  0
    8.0947   -1.7510   23.2166 C   0  0  0  0  0  0  0  0  0  0  0  0
    8.6630   -0.8861   24.1392 C   0  0  0  0  0  0  0  0  0  0  0  0
   10.0256   -0.9314   24.3777 C   0  0  0  0  0  0  0  0  0  0  0  0
   10.7833   -1.8466   23.6825 C   0  0  0  0  0  0  0  0  0  0  0  0
   10.2685   -2.6930   22.7892 N   0  0  0  0  0  0  0  0  0  0  0  0
    8.9509   -2.6311   22.5754 C   0  0  0  0  0  0  0  0  0  0  0  0
  1  2  1  0
  2  3  2  0
  3  4  1  0
  4  5  1  0
  5  6  2  0
  5  7  1  0
  7  8  1  0
  8  9  2  0
  8 10  1  0
 10 11  1  0
 11 12  2  0
 12 13  1  0
 13 14  2  0
 14 15  1  0
 15 16  2  0
 10 17  1  0
 17 18  1  0
 18 19  2  0
 19 20  1  0
  7 21  1  0
 21 22  2  0
 22 23  1  0
 23 24  2  0
 24 25  1  0
 25 26  2  0
 19  2  1  0
 26 21  1  0
 17  4  2  0
 16 11  1  0
M  END
