CVD-0002365|dock_bobby27042020.77|mol2|32|dock3
     RDKit          3D

 38 42  0  0  0  0  0  0  0  0999 V2000
    4.2759   -6.5005   23.4869 C   0  0  0  0  0  0  0  0  0  0  0  0
    4.5687   -5.6680   22.3171 N   0  0  0  0  0  0  0  0  0  0  0  0
    5.8508   -5.9623   21.6681 C   0  0  0  0  0  0  0  0  0  0  0  0
    6.9738   -5.1523   22.2604 C   0  0  0  0  0  0  0  0  0  0  0  0
    7.4317   -3.9169   21.7705 C   0  0  0  0  0  0  0  0  0  0  0  0
    8.4732   -3.4448   22.5510 C   0  0  0  0  0  0  0  0  0  0  0  0
    9.2303   -2.1780   22.3565 C   0  0  0  0  0  0  0  0  0  0  0  0
   10.6256   -2.1777   22.3249 C   0  0  0  0  0  0  0  0  0  0  0  0
   11.3397   -1.0070   22.1430 C   0  0  0  0  0  0  0  0  0  0  0  0
   10.6931    0.2048   21.9883 C   0  0  0  0  0  0  0  0  0  0  0  0
    9.3025    0.2404   22.0229 C   0  0  0  0  0  0  0  0  0  0  0  0
    8.6138    1.4943   21.9002 N   0  0  0  0  0  0  0  0  0  0  0  0
    9.1375    2.7186   22.5513 C   0  0  0  0  0  0  0  0  0  0  0  0
    8.2558    3.2360   23.5008 C   0  0  0  0  0  0  0  0  0  0  0  0
    6.8258    3.0520   23.4079 C   0  0  0  0  0  0  0  0  0  0  0  0
    6.3904    2.4156   22.1211 C   0  0  0  0  0  0  0  0  0  0  0  0
    5.1232    2.6529   21.5977 C   0  0  0  0  0  0  0  0  0  0  0  0
    4.7412    2.1468   20.3716 C   0  0  0  0  0  0  0  0  0  0  0  0
    5.6488    1.3866   19.6552 C   0  0  0  0  0  0  0  0  0  0  0  0
    6.9205    1.1307   20.1479 C   0  0  0  0  0  0  0  0  0  0  0  0
    7.2927    1.6481   21.3878 C   0  0  0  0  0  0  0  0  0  0  0  0
    5.1523    0.6405   18.1321 S   0  0  0  0  0  0  0  0  0  0  0  0
    5.5420   -0.9117   18.1769 N   0  0  0  0  0  0  0  0  0  0  0  0
    3.7237    0.7166   18.0642 O   0  0  0  0  0  0  0  0  0  0  0  0
    5.9274    1.2417   17.0887 O   0  0  0  0  0  0  0  0  0  0  0  0
    8.6008   -0.9489   22.1847 C   0  0  0  0  0  0  0  0  0  0  0  0
    7.2566   -0.8847   22.1670 F   0  0  0  0  0  0  0  0  0  0  0  0
    8.6555   -4.4243   23.5695 N   0  0  0  0  0  0  0  0  0  0  0  0
    7.7405   -5.4516   23.3752 C   0  0  0  0  0  0  0  0  0  0  0  0
    9.7186   -4.5372   24.8876 S   0  0  0  0  0  0  0  0  0  0  0  0
   10.2513   -3.2199   25.0472 O   0  0  0  0  0  0  0  0  0  0  0  0
   10.6140   -5.6258   24.6482 O   0  0  0  0  0  0  0  0  0  0  0  0
    8.7184   -4.8737   26.2965 C   0  0  0  0  0  0  0  0  0  0  0  0
    8.6378   -6.1578   26.8074 C   0  0  0  0  0  0  0  0  0  0  0  0
    7.8355   -6.3786   27.9135 C   0  0  0  0  0  0  0  0  0  0  0  0
    7.1511   -5.3156   28.4583 C   0  0  0  0  0  0  0  0  0  0  0  0
    7.2179   -4.0740   27.9755 N   0  0  0  0  0  0  0  0  0  0  0  0
    7.9940   -3.8678   26.9075 C   0  0  0  0  0  0  0  0  0  0  0  0
  1  2  1  0
  2  3  1  0
  3  4  1  0
  4  5  1  0
  5  6  2  0
  6  7  1  0
  7  8  2  0
  8  9  1  0
  9 10  2  0
 10 11  1  0
 11 12  1  0
 12 13  1  0
 13 14  1  0
 14 15  1  0
 15 16  1  0
 16 17  2  0
 17 18  1  0
 18 19  2  0
 19 20  1  0
 20 21  2  0
 19 22  1  0
 22 23  1  0
 22 24  2  0
 22 25  2  0
 11 26  2  0
 26 27  1  0
  6 28  1  0
 28 29  1  0
 28 30  1  0
 30 31  2  0
 30 32  2  0
 30 33  1  0
 33 34  2  0
 34 35  1  0
 35 36  2  0
 36 37  1  0
 37 38  2  0
 29  4  2  0
 38 33  1  0
 26  7  1  0
 21 12  1  0
 21 16  1  0
M  END
