CVD-0003378|dock_bobby27042020.2|mol2|17|dock2
     RDKit          3D

 20 22  0  0  0  0  0  0  0  0999 V2000
   14.7522   -2.1639   25.5665 C   0  0  0  0  0  0  0  0  0  0  0  0
   14.0035   -1.3693   24.5942 N   0  0  0  0  0  0  0  0  0  0  0  0
   12.8927   -0.6719   25.2486 C   0  0  0  0  0  0  0  0  0  0  0  0
   12.1443    0.1833   24.2432 C   0  0  0  0  0  0  0  0  0  0  0  0
   11.6446   -0.6419   23.1412 N   0  0  0  0  0  0  0  0  0  0  0  0
   12.7252   -1.4000   22.5030 C   0  0  0  0  0  0  0  0  0  0  0  0
   13.4722   -2.2242   23.5357 C   0  0  0  0  0  0  0  0  0  0  0  0
   10.3317   -0.6563   22.7625 C   0  0  0  0  0  0  0  0  0  0  0  0
    9.6107    0.2738   23.0889 O   0  0  0  0  0  0  0  0  0  0  0  0
    9.8724   -1.7492   22.0107 N   0  0  0  0  0  0  0  0  0  0  0  0
    8.6034   -1.9771   21.4385 C   0  0  0  0  0  0  0  0  0  0  0  0
    7.7766   -1.2305   20.6160 C   0  0  0  0  0  0  0  0  0  0  0  0
    7.9530    0.3284   19.9282 Cl  0  0  0  0  0  0  0  0  0  0  0  0
    6.6407   -1.9185   20.3470 N   0  0  0  0  0  0  0  0  0  0  0  0
    6.6777   -3.1291   20.9754 C   0  0  0  0  0  0  0  0  0  0  0  0
    5.7339   -4.0848   20.9449 N   0  0  0  0  0  0  0  0  0  0  0  0
    5.9995   -5.1957   21.6469 C   0  0  0  0  0  0  0  0  0  0  0  0
    7.1566   -5.3918   22.3716 C   0  0  0  0  0  0  0  0  0  0  0  0
    8.1186   -4.3938   22.3908 C   0  0  0  0  0  0  0  0  0  0  0  0
    7.8857   -3.2218   21.6757 C   0  0  0  0  0  0  0  0  0  0  0  0
  1  2  1  0
  2  3  1  0
  3  4  1  0
  4  5  1  0
  5  6  1  0
  6  7  1  0
  5  8  1  0
  8  9  2  0
  8 10  1  0
 10 11  1  0
 11 12  2  0
 12 13  1  0
 12 14  1  0
 14 15  1  0
 15 16  2  0
 16 17  1  0
 17 18  2  0
 18 19  1  0
 19 20  2  0
  7  2  1  0
 20 11  1  0
 20 15  1  0
M  END
