CVD-0001072|dock_bobby27042020.96|mol2|29|dock3
     RDKit          3D

 24 27  0  0  0  0  0  0  0  0999 V2000
    6.2104    0.4878   16.9700 O   0  0  0  0  0  0  0  0  0  0  0  0
    6.1766    0.5950   18.2008 C   0  0  0  0  0  0  0  0  0  0  0  0
    7.3307    0.0883   18.9730 C   0  0  0  0  0  0  0  0  0  0  0  0
    7.7730    0.5963   20.1220 C   0  0  0  0  0  0  0  0  0  0  0  0
    8.9148    0.1083   20.9009 C   0  0  0  0  0  0  0  0  0  0  0  0
    9.1368   -1.2512   21.1059 C   0  0  0  0  0  0  0  0  0  0  0  0
   10.1465   -1.7278   21.7963 N   0  0  0  0  0  0  0  0  0  0  0  0
   11.0073   -0.8063   22.3287 C   0  0  0  0  0  0  0  0  0  0  0  0
   12.1222   -1.2314   23.0868 C   0  0  0  0  0  0  0  0  0  0  0  0
   12.9773   -0.3092   23.6154 C   0  0  0  0  0  0  0  0  0  0  0  0
   12.7735    1.0428   23.4229 C   0  0  0  0  0  0  0  0  0  0  0  0
   11.7109    1.4978   22.6984 C   0  0  0  0  0  0  0  0  0  0  0  0
   10.7981    0.5793   22.1313 C   0  0  0  0  0  0  0  0  0  0  0  0
    9.7294    1.0278   21.4029 N   0  0  0  0  0  0  0  0  0  0  0  0
    4.9535    1.2332   18.7878 C   0  0  0  0  0  0  0  0  0  0  0  0
    4.5294    0.8070   20.0436 C   0  0  0  0  0  0  0  0  0  0  0  0
    3.4232    1.3290   20.6424 C   0  0  0  0  0  0  0  0  0  0  0  0
    2.6580    2.3345   20.0078 C   0  0  0  0  0  0  0  0  0  0  0  0
    1.4967    2.9048   20.5814 C   0  0  0  0  0  0  0  0  0  0  0  0
    0.8009    3.8736   19.9208 C   0  0  0  0  0  0  0  0  0  0  0  0
    1.2132    4.3182   18.6817 C   0  0  0  0  0  0  0  0  0  0  0  0
    2.3256    3.7985   18.0890 C   0  0  0  0  0  0  0  0  0  0  0  0
    3.0805    2.7905   18.7345 C   0  0  0  0  0  0  0  0  0  0  0  0
    4.2398    2.2245   18.1555 C   0  0  0  0  0  0  0  0  0  0  0  0
  1  2  2  0
  2  3  1  0
  3  4  2  0
  4  5  1  0
  5  6  2  0
  6  7  1  0
  7  8  2  0
  8  9  1  0
  9 10  2  0
 10 11  1  0
 11 12  2  0
 12 13  1  0
 13 14  2  0
  2 15  1  0
 15 16  2  0
 16 17  1  0
 17 18  2  0
 18 19  1  0
 19 20  2  0
 20 21  1  0
 21 22  2  0
 22 23  1  0
 23 24  2  0
 14  5  1  0
 24 15  1  0
 13  8  1  0
 23 18  1  0
M  END
