CVD-0003892|dock_bobby27042020.15|mol2|14|dock2
     RDKit          3D

 30 34  0  0  0  0  0  0  0  0999 V2000
   11.0997   -2.1962   23.1061 C   0  0  0  0  0  0  0  0  0  0  0  0
   11.6732   -1.5360   21.8692 C   0  0  0  0  0  0  0  0  0  0  0  0
   11.5707   -0.0228   21.9445 C   0  0  0  0  0  0  0  0  0  0  0  0
   10.1292    0.4237   22.1861 C   0  0  0  0  0  0  0  0  0  0  0  0
    9.5492   -0.2477   23.4266 C   0  0  0  0  0  0  0  0  0  0  0  0
    9.6626   -1.7621   23.3425 C   0  0  0  0  0  0  0  0  0  0  0  0
    9.3217    0.0873   20.9991 C   0  0  0  0  0  0  0  0  0  0  0  0
    8.6341   -0.2200   20.0785 C   0  0  0  0  0  0  0  0  0  0  0  0
    7.7406   -0.5946   19.0007 C   0  0  0  0  0  0  0  0  0  0  0  0
    6.7101   -1.6174   19.4760 C   0  0  0  0  0  0  0  0  0  0  0  0
    5.7040   -1.9132   18.3498 C   0  0  0  0  0  0  0  0  0  0  0  0
    5.1195   -0.5991   17.7351 C   0  0  0  0  0  0  0  0  0  0  0  0
    6.1886    0.2999   17.3285 N   0  0  0  0  0  0  0  0  0  0  0  0
    7.0534    0.6472   18.4539 C   0  0  0  0  0  0  0  0  0  0  0  0
    9.9297    1.9341   22.2298 C   0  0  0  0  0  0  0  0  0  0  0  0
   11.0225    2.6655   22.3450 N   0  0  0  0  0  0  0  0  0  0  0  0
   10.9033    3.9985   22.4120 C   0  0  0  0  0  0  0  0  0  0  0  0
    9.7738    4.6985   22.3722 N   0  0  0  0  0  0  0  0  0  0  0  0
    8.6201    3.9751   22.2382 C   0  0  0  0  0  0  0  0  0  0  0  0
    7.3840    4.6607   22.1846 C   0  0  0  0  0  0  0  0  0  0  0  0
    6.2172    3.9690   22.0481 C   0  0  0  0  0  0  0  0  0  0  0  0
    6.2193    2.5929   21.9547 C   0  0  0  0  0  0  0  0  0  0  0  0
    7.3883    1.8930   21.9990 C   0  0  0  0  0  0  0  0  0  0  0  0
    8.6324    2.5598   22.1521 C   0  0  0  0  0  0  0  0  0  0  0  0
   12.1561    4.7777   22.5443 C   0  0  0  0  0  0  0  0  0  0  0  0
   13.1241    4.7661   21.5472 C   0  0  0  0  0  0  0  0  0  0  0  0
   14.2834    5.5055   21.7026 C   0  0  0  0  0  0  0  0  0  0  0  0
   14.4436    6.2394   22.8559 C   0  0  0  0  0  0  0  0  0  0  0  0
   13.5358    6.2734   23.8323 N   0  0  0  0  0  0  0  0  0  0  0  0
   12.4224    5.5531   23.6649 C   0  0  0  0  0  0  0  0  0  0  0  0
  1  2  1  0
  2  3  1  0
  3  4  1  0
  4  5  1  0
  5  6  1  0
  4  7  1  0
  7  8  3  0
  8  9  1  0
  9 10  1  0
 10 11  1  0
 11 12  1  0
 12 13  1  0
 13 14  1  0
  4 15  1  0
 15 16  2  0
 16 17  1  0
 17 18  2  0
 18 19  1  0
 19 20  2  0
 20 21  1  0
 21 22  2  0
 22 23  1  0
 23 24  2  0
 17 25  1  0
 25 26  2  0
 26 27  1  0
 27 28  2  0
 28 29  1  0
 29 30  2  0
  6  1  1  0
 14  9  1  0
 24 15  1  0
 30 25  1  0
 24 19  1  0
M  END
