CVD-0000927|dock_bobby27042020.11|mol2|23|dock3
     RDKit          3D

 41 44  0  0  0  0  0  0  0  0999 V2000
    5.7800   -2.1747   24.2109 C   0  0  0  0  0  0  0  0  0  0  0  0
    5.7791   -2.2070   25.7234 C   0  0  0  0  0  0  0  0  0  0  0  0
    5.4330   -0.9734   26.2137 N   0  0  0  0  0  0  0  0  0  0  0  0
    7.0805   -2.5735   26.2504 N   0  0  0  0  0  0  0  0  0  0  0  0
    7.6556   -3.8687   25.8599 C   0  0  0  0  0  0  0  0  0  0  0  0
    8.6424   -4.3682   26.9220 C   0  0  0  0  0  0  0  0  0  0  0  0
    9.2529   -5.7054   26.5602 C   0  0  0  0  0  0  0  0  0  0  0  0
   10.2678   -5.6769   25.7109 N   0  0  0  0  0  0  0  0  0  0  0  0
    8.8144   -6.7548   27.0402 O   0  0  0  0  0  0  0  0  0  0  0  0
    8.3457   -3.7758   24.4996 C   0  0  0  0  0  0  0  0  0  0  0  0
    8.2407   -4.6752   23.6695 O   0  0  0  0  0  0  0  0  0  0  0  0
    9.0646   -2.6726   24.2727 N   0  0  0  0  0  0  0  0  0  0  0  0
    9.7769   -2.4530   23.0202 C   0  0  0  0  0  0  0  0  0  0  0  0
   11.2596   -2.1337   23.2419 C   0  0  0  0  0  0  0  0  0  0  0  0
   11.5403   -0.7056   23.6480 C   0  0  0  0  0  0  0  0  0  0  0  0
   11.1124    0.1548   22.4776 C   0  0  0  0  0  0  0  0  0  0  0  0
    9.6140    0.0866   22.1491 C   0  0  0  0  0  0  0  0  0  0  0  0
    9.1075   -1.3581   22.2024 N   0  0  0  0  0  0  0  0  0  0  0  0
    8.0344   -1.8826   21.5702 C   0  0  0  0  0  0  0  0  0  0  0  0
    7.7203   -3.0544   21.7364 O   0  0  0  0  0  0  0  0  0  0  0  0
    7.2259   -0.9805   20.6577 C   0  0  0  0  0  0  0  0  0  0  0  0
    5.6300   -1.6743   20.3427 Cl  0  0  0  0  0  0  0  0  0  0  0  0
   11.4475    1.6008   22.6977 C   0  0  0  0  0  0  0  0  0  0  0  0
   10.5480    2.5107   22.8992 N   0  0  0  0  0  0  0  0  0  0  0  0
   11.1225    3.7658   23.0686 C   0  0  0  0  0  0  0  0  0  0  0  0
   10.4663    4.9967   23.3045 C   0  0  0  0  0  0  0  0  0  0  0  0
   11.2342    6.1528   23.4729 C   0  0  0  0  0  0  0  0  0  0  0  0
   12.6168    6.1154   23.4014 C   0  0  0  0  0  0  0  0  0  0  0  0
   13.2717    4.9223   23.1574 C   0  0  0  0  0  0  0  0  0  0  0  0
   12.5224    3.7618   22.9938 C   0  0  0  0  0  0  0  0  0  0  0  0
   13.1057    2.1533   22.6819 S   0  0  0  0  0  0  0  0  0  0  0  0
    8.9816    5.1381   23.3883 C   0  0  0  0  0  0  0  0  0  0  0  0
    8.1991    4.2661   24.1413 C   0  0  0  0  0  0  0  0  0  0  0  0
    6.8252    4.4239   24.2189 C   0  0  0  0  0  0  0  0  0  0  0  0
    6.1961    5.4502   23.5357 C   0  0  0  0  0  0  0  0  0  0  0  0
    6.9631    6.3139   22.7726 C   0  0  0  0  0  0  0  0  0  0  0  0
    8.3393    6.1657   22.6968 C   0  0  0  0  0  0  0  0  0  0  0  0
    6.1847    7.6320   21.8892 S   0  0  0  0  0  0  0  0  0  0  0  0
    6.5586    7.4938   20.3387 N   0  0  0  0  0  0  0  0  0  0  0  0
    6.7598    8.8578   22.3559 O   0  0  0  0  0  0  0  0  0  0  0  0
    4.7693    7.4450   22.0018 O   0  0  0  0  0  0  0  0  0  0  0  0
  1  2  1  0
  2  3  1  0
  2  4  1  0
  4  5  1  0
  5  6  1  0
  6  7  1  0
  7  8  1  0
  7  9  2  0
  5 10  1  0
 10 11  2  0
 10 12  1  0
 12 13  1  0
 13 14  1  0
 14 15  1  0
 15 16  1  0
 16 17  1  0
 17 18  1  0
 18 19  1  0
 19 20  2  0
 19 21  1  0
 21 22  1  0
 16 23  1  0
 23 24  2  0
 24 25  1  0
 25 26  2  0
 26 27  1  0
 27 28  2  0
 28 29  1  0
 29 30  2  0
 30 31  1  0
 26 32  1  0
 32 33  2  0
 33 34  1  0
 34 35  2  0
 35 36  1  0
 36 37  2  0
 36 38  1  0
 38 39  1  0
 38 40  2  0
 38 41  2  0
 18 13  1  0
 31 23  1  0
 37 32  1  0
 30 25  1  0
M  END
