CVD-0002744|dock_bobby27042020.4|mol2|33|dock2
     RDKit          3D

 21 22  0  0  0  0  0  0  0  0999 V2000
    9.2092   -2.1595   23.2720 C   0  0  0  0  0  0  0  0  0  0  0  0
    9.3384   -1.2641   22.0473 C   0  0  0  0  0  0  0  0  0  0  0  0
   10.8084   -1.1117   21.7037 C   0  0  0  0  0  0  0  0  0  0  0  0
   11.4993   -0.3431   22.7415 N   0  0  0  0  0  0  0  0  0  0  0  0
   10.8615    0.9584   22.9623 C   0  0  0  0  0  0  0  0  0  0  0  0
    9.3878    0.7767   23.2772 C   0  0  0  0  0  0  0  0  0  0  0  0
    8.7142    0.0533   22.2018 N   0  0  0  0  0  0  0  0  0  0  0  0
    7.2597    0.2368   22.1436 C   0  0  0  0  0  0  0  0  0  0  0  0
    6.9914    1.5429   22.3695 F   0  0  0  0  0  0  0  0  0  0  0  0
    6.6729   -0.4353   23.1602 F   0  0  0  0  0  0  0  0  0  0  0  0
    6.6999   -0.1763   20.8122 C   0  0  0  0  0  0  0  0  0  0  0  0
    6.3298   -1.4949   20.5771 C   0  0  0  0  0  0  0  0  0  0  0  0
    5.8143   -1.8774   19.3501 C   0  0  0  0  0  0  0  0  0  0  0  0
    5.6608   -0.9453   18.3376 C   0  0  0  0  0  0  0  0  0  0  0  0
    6.0293    0.3608   18.5757 C   0  0  0  0  0  0  0  0  0  0  0  0
    5.8413    1.5427   17.3107 Cl  0  0  0  0  0  0  0  0  0  0  0  0
    6.5444    0.7561   19.7934 C   0  0  0  0  0  0  0  0  0  0  0  0
   12.6030   -0.7695   23.3952 C   0  0  0  0  0  0  0  0  0  0  0  0
   13.1313   -0.0797   24.2582 O   0  0  0  0  0  0  0  0  0  0  0  0
   13.1795   -2.1233   23.0273 C   0  0  0  0  0  0  0  0  0  0  0  0
   14.6220   -2.5098   23.9743 Cl  0  0  0  0  0  0  0  0  0  0  0  0
  1  2  1  0
  2  3  1  0
  3  4  1  0
  4  5  1  0
  5  6  1  0
  6  7  1  0
  7  8  1  0
  8  9  1  0
  8 10  1  0
  8 11  1  0
 11 12  2  0
 12 13  1  0
 13 14  2  0
 14 15  1  0
 15 16  1  0
 15 17  2  0
  4 18  1  0
 18 19  2  0
 18 20  1  0
 20 21  1  0
  7  2  1  0
 17 11  1  0
M  END
