CVD-0003201|dock_bobby27042020.46|mol2|6|dock3
     RDKit          3D

 26 27  0  0  0  0  0  0  0  0999 V2000
    8.1769    3.4364   22.1594 C   0  0  0  0  0  0  0  0  0  0  0  0
    9.5296    3.1264   22.7469 C   0  0  0  0  0  0  0  0  0  0  0  0
    9.7541    1.6677   22.8872 N   0  0  0  0  0  0  0  0  0  0  0  0
    8.7370    0.7590   22.8408 C   0  0  0  0  0  0  0  0  0  0  0  0
    9.1955   -0.5042   23.0202 C   0  0  0  0  0  0  0  0  0  0  0  0
    8.3970   -1.7746   23.0315 C   0  0  0  0  0  0  0  0  0  0  0  0
    8.5527   -2.5834   21.7591 C   0  0  0  0  0  0  0  0  0  0  0  0
    8.5500   -1.7374   20.5742 N   0  0  0  0  0  0  0  0  0  0  0  0
    7.4746   -1.0513   20.1824 C   0  0  0  0  0  0  0  0  0  0  0  0
    7.6400   -0.2109   18.9504 C   0  0  0  0  0  0  0  0  0  0  0  0
    6.4167   -1.0933   20.8026 O   0  0  0  0  0  0  0  0  0  0  0  0
   10.6121   -0.3926   23.2026 C   0  0  0  0  0  0  0  0  0  0  0  0
   11.6272   -1.3201   23.4247 C   0  0  0  0  0  0  0  0  0  0  0  0
   12.9419   -0.8839   23.5714 C   0  0  0  0  0  0  0  0  0  0  0  0
   13.2450    0.4753   23.4978 C   0  0  0  0  0  0  0  0  0  0  0  0
   12.2571    1.4302   23.2756 C   0  0  0  0  0  0  0  0  0  0  0  0
   12.6799    2.8813   23.2076 C   0  0  0  0  0  0  0  0  0  0  0  0
   12.9484    3.3448   21.7869 C   0  0  0  0  0  0  0  0  0  0  0  0
   12.7677    4.7970   21.6733 N   0  0  0  0  0  0  0  0  0  0  0  0
   13.7493    5.7828   22.4702 S   0  0  0  0  0  0  0  0  0  0  0  0
   12.9125    6.3120   23.9147 C   0  0  0  0  0  0  0  0  0  0  0  0
   13.9624    6.9257   21.6369 O   0  0  0  0  0  0  0  0  0  0  0  0
   14.8836    5.0098   22.8724 O   0  0  0  0  0  0  0  0  0  0  0  0
   10.9361    0.9726   23.1248 C   0  0  0  0  0  0  0  0  0  0  0  0
   13.9947   -1.8423   23.8010 C   0  0  0  0  0  0  0  0  0  0  0  0
   14.8125   -2.6121   24.0100 N   0  0  0  0  0  0  0  0  0  0  0  0
  1  2  1  0
  2  3  1  0
  3  4  1  0
  4  5  2  0
  5  6  1  0
  6  7  1  0
  7  8  1  0
  8  9  1  0
  9 10  1  0
  9 11  2  0
  5 12  1  0
 12 13  2  0
 13 14  1  0
 14 15  2  0
 15 16  1  0
 16 17  1  0
 17 18  1  0
 18 19  1  0
 19 20  1  0
 20 21  1  0
 20 22  2  0
 20 23  2  0
 16 24  2  0
 14 25  1  0
 25 26  3  0
 24  3  1  0
 24 12  1  0
M  END
