CVD-0003459|dock_bobby27042020.45|mol2|17|dock2
     RDKit          3D

 19 20  0  0  0  0  0  0  0  0999 V2000
    3.5360    2.3174   19.3439 C   0  0  0  0  0  0  0  0  0  0  0  0
    4.2164    1.1690   19.9026 N   0  0  0  0  0  0  0  0  0  0  0  0
    5.3896    0.6599   19.4082 C   0  0  0  0  0  0  0  0  0  0  0  0
    5.6908    0.7021   18.0519 C   0  0  0  0  0  0  0  0  0  0  0  0
    6.8237    0.2187   17.5357 N   0  0  0  0  0  0  0  0  0  0  0  0
    7.6590   -0.3133   18.3876 C   0  0  0  0  0  0  0  0  0  0  0  0
    8.7809   -0.7852   17.8228 F   0  0  0  0  0  0  0  0  0  0  0  0
    7.5210   -0.4395   19.7547 C   0  0  0  0  0  0  0  0  0  0  0  0
    8.5302   -1.0489   20.5437 N   0  0  0  0  0  0  0  0  0  0  0  0
    8.6124   -1.2167   21.8860 C   0  0  0  0  0  0  0  0  0  0  0  0
    7.7769   -0.8483   22.7048 O   0  0  0  0  0  0  0  0  0  0  0  0
    9.8698   -1.9320   22.3279 C   0  0  0  0  0  0  0  0  0  0  0  0
   11.1284   -1.0648   22.2283 C   0  0  0  0  0  0  0  0  0  0  0  0
   12.3973   -1.8873   22.5329 C   0  0  0  0  0  0  0  0  0  0  0  0
   13.6640   -1.0337   22.5127 C   0  0  0  0  0  0  0  0  0  0  0  0
   13.5414    0.1630   23.4472 C   0  0  0  0  0  0  0  0  0  0  0  0
   12.3051    0.9891   23.1223 C   0  0  0  0  0  0  0  0  0  0  0  0
   11.0409    0.1379   23.1834 C   0  0  0  0  0  0  0  0  0  0  0  0
    6.3264    0.0781   20.2556 C   0  0  0  0  0  0  0  0  0  0  0  0
  1  2  1  0
  2  3  1  0
  3  4  2  0
  4  5  1  0
  5  6  2  0
  6  7  1  0
  6  8  1  0
  8  9  1  0
  9 10  1  0
 10 11  2  0
 10 12  1  0
 12 13  1  0
 13 14  1  0
 14 15  1  0
 15 16  1  0
 16 17  1  0
 17 18  1  0
  8 19  2  0
 19  3  1  0
 18 13  1  0
M  END
