CVD-0003330|dock_bobby27042020.88|mol2|20|dock1
     RDKit          3D

 32 35  0  0  0  0  0  0  0  0999 V2000
    4.8619    0.5717   17.8985 C   0  0  0  0  0  0  0  0  0  0  0  0
    5.2012    0.3104   19.2962 N   0  0  0  0  0  0  0  0  0  0  0  0
    5.5443    1.5334   20.0217 C   0  0  0  0  0  0  0  0  0  0  0  0
    5.8518    1.2242   21.4614 C   0  0  0  0  0  0  0  0  0  0  0  0
    6.9631    0.2738   21.5633 N   0  0  0  0  0  0  0  0  0  0  0  0
    7.3040    0.0114   22.9675 C   0  0  0  0  0  0  0  0  0  0  0  0
    8.7572   -0.3361   23.1713 C   0  0  0  0  0  0  0  0  0  0  0  0
    9.5284    0.8729   23.0964 O   0  0  0  0  0  0  0  0  0  0  0  0
   10.8917    0.8286   23.0485 C   0  0  0  0  0  0  0  0  0  0  0  0
   11.5914   -0.3412   23.2466 C   0  0  0  0  0  0  0  0  0  0  0  0
   12.9722   -0.3604   23.1968 C   0  0  0  0  0  0  0  0  0  0  0  0
   13.6733    0.7758   22.9458 C   0  0  0  0  0  0  0  0  0  0  0  0
   13.0072    2.0039   22.7284 C   0  0  0  0  0  0  0  0  0  0  0  0
   13.7617    3.1696   22.4664 C   0  0  0  0  0  0  0  0  0  0  0  0
   13.1274    4.3508   22.2569 C   0  0  0  0  0  0  0  0  0  0  0  0
   14.0654    5.7823   21.9351 Cl  0  0  0  0  0  0  0  0  0  0  0  0
   11.7551    4.4442   22.2930 C   0  0  0  0  0  0  0  0  0  0  0  0
   10.9648    3.3435   22.5430 C   0  0  0  0  0  0  0  0  0  0  0  0
    9.4713    3.6027   22.5527 C   0  0  0  0  0  0  0  0  0  0  0  0
    9.1052    5.0268   22.5823 N   0  0  0  0  0  0  0  0  0  0  0  0
    7.7255    5.2111   22.1228 C   0  0  0  0  0  0  0  0  0  0  0  0
    7.3666    6.6855   22.1162 C   0  0  0  0  0  0  0  0  0  0  0  0
    7.5356    7.2591   23.4531 N   0  0  0  0  0  0  0  0  0  0  0  0
    8.8911    7.0382   23.9666 C   0  0  0  0  0  0  0  0  0  0  0  0
    9.2318    5.5594   23.9364 C   0  0  0  0  0  0  0  0  0  0  0  0
    6.5427    7.9348   24.0987 C   0  0  0  0  0  0  0  0  0  0  0  0
    5.4544    8.0788   23.5435 O   0  0  0  0  0  0  0  0  0  0  0  0
    6.6676    8.5306   25.4654 C   0  0  0  0  0  0  0  0  0  0  0  0
    5.7611    8.4586   26.4057 C   0  0  0  0  0  0  0  0  0  0  0  0
   11.5814    2.0547   22.7756 C   0  0  0  0  0  0  0  0  0  0  0  0
    6.6200   -0.9492   20.8378 C   0  0  0  0  0  0  0  0  0  0  0  0
    6.3126   -0.6399   19.3981 C   0  0  0  0  0  0  0  0  0  0  0  0
  1  2  1  0
  2  3  1  0
  3  4  1  0
  4  5  1  0
  5  6  1  0
  6  7  1  0
  7  8  1  0
  8  9  1  0
  9 10  2  0
 10 11  1  0
 11 12  2  0
 12 13  1  0
 13 14  2  0
 14 15  1  0
 15 16  1  0
 15 17  2  0
 17 18  1  0
 18 19  1  0
 19 20  1  0
 20 21  1  0
 21 22  1  0
 22 23  1  0
 23 24  1  0
 24 25  1  0
 23 26  1  0
 26 27  2  0
 26 28  1  0
 28 29  2  0
 18 30  2  0
  5 31  1  0
 31 32  1  0
 32  2  1  0
 30  9  1  0
 30 13  1  0
 25 20  1  0
M  END
