CVD-0003754|dock_bobby27042020.87|mol2|1|dock2
     RDKit          3D

 22 24  0  0  0  0  0  0  0  0999 V2000
   13.3239    4.0107   22.8955 C   0  0  0  0  0  0  0  0  0  0  0  0
   12.7554    2.7065   23.3465 C   0  0  0  0  0  0  0  0  0  0  0  0
   12.2407    2.5015   24.5391 N   0  0  0  0  0  0  0  0  0  0  0  0
   11.7927    1.2106   24.6548 C   0  0  0  0  0  0  0  0  0  0  0  0
   11.9436    0.4000   23.5755 C   0  0  0  0  0  0  0  0  0  0  0  0
   12.7002    1.3150   22.3165 S   0  0  0  0  0  0  0  0  0  0  0  0
   11.5427   -1.0653   23.4185 C   0  0  0  0  0  0  0  0  0  0  0  0
   11.6017   -1.7700   24.7829 C   0  0  0  0  0  0  0  0  0  0  0  0
   12.9769   -1.7278   25.4210 C   0  0  0  0  0  0  0  0  0  0  0  0
   14.0277   -2.3395   24.5220 C   0  0  0  0  0  0  0  0  0  0  0  0
   13.9979   -1.7020   23.1478 C   0  0  0  0  0  0  0  0  0  0  0  0
   12.6091   -1.7509   22.5516 C   0  0  0  0  0  0  0  0  0  0  0  0
   10.1815   -1.1839   22.8363 N   0  0  0  0  0  0  0  0  0  0  0  0
   10.2279   -1.1615   21.3650 C   0  0  0  0  0  0  0  0  0  0  0  0
    8.8487   -1.3313   20.7827 C   0  0  0  0  0  0  0  0  0  0  0  0
    7.9413   -0.2979   21.2911 N   0  0  0  0  0  0  0  0  0  0  0  0
    7.9201   -0.2407   22.7514 C   0  0  0  0  0  0  0  0  0  0  0  0
    9.3277   -0.0784   23.2734 C   0  0  0  0  0  0  0  0  0  0  0  0
    7.0857    0.4436   20.5569 C   0  0  0  0  0  0  0  0  0  0  0  0
    6.3705    1.2949   21.0699 O   0  0  0  0  0  0  0  0  0  0  0  0
    7.0401    0.1734   19.0651 C   0  0  0  0  0  0  0  0  0  0  0  0
    5.7700    1.1055   18.2617 Cl  0  0  0  0  0  0  0  0  0  0  0  0
  1  2  1  0
  2  3  2  0
  3  4  1  0
  4  5  2  0
  5  6  1  0
  5  7  1  0
  7  8  1  0
  8  9  1  0
  9 10  1  0
 10 11  1  0
 11 12  1  0
  7 13  1  0
 13 14  1  0
 14 15  1  0
 15 16  1  0
 16 17  1  0
 17 18  1  0
 16 19  1  0
 19 20  2  0
 19 21  1  0
 21 22  1  0
  6  2  1  0
 12  7  1  0
 18 13  1  0
M  END
