CVD-0000492|dock_bobby27042020.12|mol2|43|dock1
     RDKit          3D

 36 37  0  0  0  0  0  0  0  0999 V2000
   13.9833    4.3430   22.8316 N   0  0  0  0  0  0  0  0  0  0  0  0
   12.5096    4.7457   22.9192 S   0  0  0  0  0  0  0  0  0  0  0  0
   12.0736    5.1627   21.5695 O   0  0  0  0  0  0  0  0  0  0  0  0
   12.3823    5.7686   23.9789 O   0  0  0  0  0  0  0  0  0  0  0  0
   11.5836    3.3824   23.3806 N   0  0  0  0  0  0  0  0  0  0  0  0
   11.4950    2.2426   22.4600 C   0  0  0  0  0  0  0  0  0  0  0  0
   11.0272    1.0070   23.2025 C   0  0  0  0  0  0  0  0  0  0  0  0
   11.2655   -0.2417   22.4682 N   0  0  0  0  0  0  0  0  0  0  0  0
   12.6222   -0.7926   22.6142 C   0  0  0  0  0  0  0  0  0  0  0  0
   12.7377   -1.7442   23.7920 C   0  0  0  0  0  0  0  0  0  0  0  0
   14.1529   -1.9098   24.2805 C   0  0  0  0  0  0  0  0  0  0  0  0
   14.2438   -3.0380   25.8639 Br  0  0  0  0  0  0  0  0  0  0  0  0
   10.2804   -0.7995   21.7327 C   0  0  0  0  0  0  0  0  0  0  0  0
   10.4251   -1.9043   21.2454 O   0  0  0  0  0  0  0  0  0  0  0  0
    8.9609   -0.0638   21.4918 C   0  0  0  0  0  0  0  0  0  0  0  0
    8.1887   -0.7501   20.3545 C   0  0  0  0  0  0  0  0  0  0  0  0
    6.9533    0.0055   19.9288 C   0  0  0  0  0  0  0  0  0  0  0  0
    6.9217    0.6952   18.7268 C   0  0  0  0  0  0  0  0  0  0  0  0
    5.7940    1.3926   18.3319 C   0  0  0  0  0  0  0  0  0  0  0  0
    4.6725    1.4086   19.1454 C   0  0  0  0  0  0  0  0  0  0  0  0
    3.5568    2.0940   18.7619 O   0  0  0  0  0  0  0  0  0  0  0  0
    4.6899    0.7249   20.3503 C   0  0  0  0  0  0  0  0  0  0  0  0
    5.8245    0.0316   20.7329 C   0  0  0  0  0  0  0  0  0  0  0  0
    8.1855   -0.0813   22.7218 N   0  0  0  0  0  0  0  0  0  0  0  0
    8.1977   -1.1617   23.5333 C   0  0  0  0  0  0  0  0  0  0  0  0
    8.8024   -2.1836   23.2229 O   0  0  0  0  0  0  0  0  0  0  0  0
    7.4638   -0.9609   24.6782 N   0  0  0  0  0  0  0  0  0  0  0  0
    7.2528   -1.9010   25.7450 C   0  0  0  0  0  0  0  0  0  0  0  0
    7.1249   -1.4186   27.0375 C   0  0  0  0  0  0  0  0  0  0  0  0
    7.2609   -0.0846   27.2160 F   0  0  0  0  0  0  0  0  0  0  0  0
    6.8669   -2.1976   28.1353 C   0  0  0  0  0  0  0  0  0  0  0  0
    6.7346   -3.5439   27.9113 C   0  0  0  0  0  0  0  0  0  0  0  0
    6.4473   -4.3491   28.9696 F   0  0  0  0  0  0  0  0  0  0  0  0
    6.8799   -4.1209   26.6752 C   0  0  0  0  0  0  0  0  0  0  0  0
    7.1688   -3.2847   25.6266 C   0  0  0  0  0  0  0  0  0  0  0  0
    7.3965   -3.8742   24.4318 F   0  0  0  0  0  0  0  0  0  0  0  0
  1  2  1  0
  2  3  2  0
  2  4  2  0
  2  5  1  0
  5  6  1  0
  6  7  1  0
  7  8  1  0
  8  9  1  0
  9 10  1  0
 10 11  1  0
 11 12  1  0
  8 13  1  0
 13 14  2  0
 13 15  1  0
 15 16  1  0
 16 17  1  0
 17 18  2  0
 18 19  1  0
 19 20  2  0
 20 21  1  0
 20 22  1  0
 22 23  2  0
 15 24  1  0
 24 25  1  0
 25 26  2  0
 25 27  1  0
 27 28  1  0
 28 29  2  0
 29 30  1  0
 29 31  1  0
 31 32  2  0
 32 33  1  0
 32 34  1  0
 34 35  2  0
 35 36  1  0
 23 17  1  0
 35 28  1  0
M  END
