CVD-0002155|dock_bobby27042020.64|mol2|25|dock2
     RDKit          3D

 17 17  0  0  0  0  0  0  0  0999 V2000
   13.3169    4.5606   21.9340 C   0  0  0  0  0  0  0  0  0  0  0  0
   12.3006    4.5491   23.3601 S   0  0  0  0  0  0  0  0  0  0  0  0
   13.0661    5.0604   24.4548 O   0  0  0  0  0  0  0  0  0  0  0  0
   11.0662    5.1923   23.0306 O   0  0  0  0  0  0  0  0  0  0  0  0
   11.9575    3.0204   23.7003 N   0  0  0  0  0  0  0  0  0  0  0  0
   11.5888    2.0967   22.6225 C   0  0  0  0  0  0  0  0  0  0  0  0
   11.0548    0.7750   23.1886 C   0  0  0  0  0  0  0  0  0  0  0  0
   10.3015    0.0045   22.0967 C   0  0  0  0  0  0  0  0  0  0  0  0
    9.8884   -1.3748   22.4857 C   0  0  0  0  0  0  0  0  0  0  0  0
    9.9004   -2.2801   21.6162 N   0  0  0  0  0  0  0  0  0  0  0  0
    9.5430   -1.5482   23.7427 N   0  0  0  0  0  0  0  0  0  0  0  0
   12.1978   -0.0507   23.7457 C   0  0  0  0  0  0  0  0  0  0  0  0
   13.0600   -0.7331   22.8987 C   0  0  0  0  0  0  0  0  0  0  0  0
   14.1056   -1.4849   23.4080 C   0  0  0  0  0  0  0  0  0  0  0  0
   14.3028   -1.5634   24.7700 C   0  0  0  0  0  0  0  0  0  0  0  0
   13.4551   -0.8901   25.6233 C   0  0  0  0  0  0  0  0  0  0  0  0
   12.4093   -0.1380   25.1147 C   0  0  0  0  0  0  0  0  0  0  0  0
  1  2  1  0
  2  3  2  0
  2  4  2  0
  2  5  1  0
  5  6  1  0
  6  7  1  0
  7  8  1  0
  8  9  1  0
  9 10  1  0
  9 11  2  0
  7 12  1  0
 12 13  2  0
 13 14  1  0
 14 15  2  0
 15 16  1  0
 16 17  2  0
 17 12  1  0
M  END
