CVD-0001622|dock_bobby27042020.37|mol2|35|dock3
     RDKit          3D

 17 19  0  0  0  0  0  0  0  0999 V2000
   13.8159    5.2582   22.2831 Br  0  0  0  0  0  0  0  0  0  0  0  0
   12.8685    3.6540   22.4612 C   0  0  0  0  0  0  0  0  0  0  0  0
   11.5339    3.5014   22.5327 C   0  0  0  0  0  0  0  0  0  0  0  0
   11.1715    2.1629   22.6626 C   0  0  0  0  0  0  0  0  0  0  0  0
   12.2317    1.2912   22.6901 C   0  0  0  0  0  0  0  0  0  0  0  0
   13.7172    2.1668   22.5506 S   0  0  0  0  0  0  0  0  0  0  0  0
   12.1978   -0.2271   22.8210 C   0  0  0  0  0  0  0  0  0  0  0  0
   13.3480   -0.9257   23.5131 C   0  0  0  0  0  0  0  0  0  0  0  0
   13.2609   -0.9624   22.0195 C   0  0  0  0  0  0  0  0  0  0  0  0
   10.8126   -0.7617   22.7745 N   0  0  0  0  0  0  0  0  0  0  0  0
   10.3425   -0.9277   21.4005 C   0  0  0  0  0  0  0  0  0  0  0  0
    8.8902   -1.3377   21.3869 C   0  0  0  0  0  0  0  0  0  0  0  0
    8.6766   -2.5496   22.1804 N   0  0  0  0  0  0  0  0  0  0  0  0
    9.2582   -2.4795   23.5231 C   0  0  0  0  0  0  0  0  0  0  0  0
   10.6993   -2.0497   23.4514 C   0  0  0  0  0  0  0  0  0  0  0  0
    7.8137   -3.5002   21.8602 C   0  0  0  0  0  0  0  0  0  0  0  0
    7.0868   -4.3506   21.6088 N   0  0  0  0  0  0  0  0  0  0  0  0
  1  2  1  0
  2  3  2  0
  3  4  1  0
  4  5  2  0
  5  6  1  0
  5  7  1  0
  7  8  1  0
  8  9  1  0
  7 10  1  0
 10 11  1  0
 11 12  1  0
 12 13  1  0
 13 14  1  0
 14 15  1  0
 13 16  1  0
 16 17  3  0
  6  2  1  0
  9  7  1  0
 15 10  1  0
M  END
