CVD-0000237|dock_bobby27042020.56|mol2|37|dock2
     RDKit          3D

 25 27  0  0  0  0  0  0  0  0999 V2000
    5.9068   -1.3876   20.4845 C   0  0  0  0  0  0  0  0  0  0  0  0
    7.1051   -0.7660   19.7549 C   0  0  0  0  0  0  0  0  0  0  0  0
    6.7558    0.1619   18.6051 C   0  0  0  0  0  0  0  0  0  0  0  0
    7.3350   -1.1930   18.3231 C   0  0  0  0  0  0  0  0  0  0  0  0
    8.3268   -0.3827   20.6042 C   0  0  0  0  0  0  0  0  0  0  0  0
    8.3714    0.7077   21.1582 O   0  0  0  0  0  0  0  0  0  0  0  0
    9.3236   -1.2650   20.7162 N   0  0  0  0  0  0  0  0  0  0  0  0
   10.5354   -0.9800   21.4741 C   0  0  0  0  0  0  0  0  0  0  0  0
   10.4475   -1.4852   22.9177 C   0  0  0  0  0  0  0  0  0  0  0  0
    9.7637   -2.7758   22.9418 N   0  0  0  0  0  0  0  0  0  0  0  0
    8.6749   -3.0135   23.6764 C   0  0  0  0  0  0  0  0  0  0  0  0
    8.1605   -2.1607   24.3933 O   0  0  0  0  0  0  0  0  0  0  0  0
    8.1081   -4.4084   23.5720 C   0  0  0  0  0  0  0  0  0  0  0  0
    7.6481   -4.9499   24.9134 C   0  0  0  0  0  0  0  0  0  0  0  0
    8.7654   -5.2244   25.8711 C   0  0  0  0  0  0  0  0  0  0  0  0
    9.1323   -4.6550   27.0441 C   0  0  0  0  0  0  0  0  0  0  0  0
   10.2280   -5.3204   27.4673 N   0  0  0  0  0  0  0  0  0  0  0  0
   10.5760   -6.2652   26.6467 N   0  0  0  0  0  0  0  0  0  0  0  0
    9.6644   -6.2045   25.6528 N   0  0  0  0  0  0  0  0  0  0  0  0
   11.8279   -1.5826   23.5368 C   0  0  0  0  0  0  0  0  0  0  0  0
   12.7257   -2.5550   23.1190 C   0  0  0  0  0  0  0  0  0  0  0  0
   13.9874   -2.6421   23.6833 C   0  0  0  0  0  0  0  0  0  0  0  0
   14.3668   -1.7585   24.6710 C   0  0  0  0  0  0  0  0  0  0  0  0
   13.4853   -0.7872   25.0949 C   0  0  0  0  0  0  0  0  0  0  0  0
   12.2233   -0.6990   24.5313 C   0  0  0  0  0  0  0  0  0  0  0  0
  1  2  1  0
  2  3  1  0
  3  4  1  0
  2  5  1  0
  5  6  2  0
  5  7  1  0
  7  8  1  0
  8  9  1  0
  9 10  1  0
 10 11  1  0
 11 12  2  0
 11 13  1  0
 13 14  1  0
 14 15  1  0
 15 16  2  0
 16 17  1  0
 17 18  2  0
 18 19  1  0
  9 20  1  0
 20 21  2  0
 21 22  1  0
 22 23  2  0
 23 24  1  0
 24 25  2  0
  4  2  1  0
 19 15  1  0
 25 20  1  0
M  END
