CVD-0000352|dock_bobby27042020.56|mol2|20|dock2
     RDKit          3D

 29 31  0  0  0  0  0  0  0  0999 V2000
    6.2358   -3.0500   22.6113 C   0  0  0  0  0  0  0  0  0  0  0  0
    6.6980   -1.8812   21.7661 C   0  0  0  0  0  0  0  0  0  0  0  0
    6.0541   -1.8913   20.4941 N   0  0  0  0  0  0  0  0  0  0  0  0
    5.6676   -0.7455   19.8320 C   0  0  0  0  0  0  0  0  0  0  0  0
    5.0800    0.3223   20.5091 C   0  0  0  0  0  0  0  0  0  0  0  0
    4.7078    1.4548   19.8041 C   0  0  0  0  0  0  0  0  0  0  0  0
    4.9284    1.4966   18.4477 C   0  0  0  0  0  0  0  0  0  0  0  0
    5.4881    0.4933   17.7633 N   0  0  0  0  0  0  0  0  0  0  0  0
    5.8363   -0.5784   18.4511 C   0  0  0  0  0  0  0  0  0  0  0  0
    6.5549   -1.8447   17.5065 Cl  0  0  0  0  0  0  0  0  0  0  0  0
    8.1050   -1.9795   21.6261 O   0  0  0  0  0  0  0  0  0  0  0  0
    8.6977   -0.8965   20.9112 C   0  0  0  0  0  0  0  0  0  0  0  0
   10.0298   -0.5675   21.5279 C   0  0  0  0  0  0  0  0  0  0  0  0
   10.3342    0.7235   21.9454 C   0  0  0  0  0  0  0  0  0  0  0  0
   11.5652    1.0387   22.5151 C   0  0  0  0  0  0  0  0  0  0  0  0
   11.8928    2.4449   22.9652 C   0  0  0  0  0  0  0  0  0  0  0  0
   11.0188    3.4949   22.3361 C   0  0  0  0  0  0  0  0  0  0  0  0
   11.4468    4.8194   22.7831 N   0  0  0  0  0  0  0  0  0  0  0  0
   12.8768    5.0571   22.5972 C   0  0  0  0  0  0  0  0  0  0  0  0
   13.6653    3.9349   23.2040 C   0  0  0  0  0  0  0  0  0  0  0  0
   13.2674    2.6744   22.6914 O   0  0  0  0  0  0  0  0  0  0  0  0
   10.6197    5.7566   23.3101 C   0  0  0  0  0  0  0  0  0  0  0  0
    9.1609    5.4315   23.4469 C   0  0  0  0  0  0  0  0  0  0  0  0
   11.0589    6.8480   23.6547 O   0  0  0  0  0  0  0  0  0  0  0  0
   12.4795    0.0126   22.6473 C   0  0  0  0  0  0  0  0  0  0  0  0
   13.6817    0.2998   23.1968 F   0  0  0  0  0  0  0  0  0  0  0  0
   12.2305   -1.2762   22.2511 C   0  0  0  0  0  0  0  0  0  0  0  0
   11.0018   -1.5296   21.6980 C   0  0  0  0  0  0  0  0  0  0  0  0
   10.7193   -2.7894   21.2944 F   0  0  0  0  0  0  0  0  0  0  0  0
  2  1  1  0
  2  3  1  0
  3  4  1  0
  4  5  2  0
  5  6  1  0
  6  7  2  0
  7  8  1  0
  8  9  2  0
  9 10  1  0
  2 11  1  0
 11 12  1  0
 12 13  1  0
 13 14  2  0
 14 15  1  0
 16 15  1  0
 16 17  1  0
 17 18  1  0
 18 19  1  0
 19 20  1  0
 20 21  1  0
 18 22  1  0
 22 23  1  0
 22 24  2  0
 15 25  2  0
 25 26  1  0
 25 27  1  0
 27 28  2  0
 28 29  1  0
  9  4  1  0
 28 13  1  0
 21 16  1  0
M  END
