CVD-0000519|dock_bobby27042020.27|mol2|1|dock3
     RDKit          3D

 25 26  0  0  0  0  0  0  0  0999 V2000
    4.7810    0.3893   21.4349 C   0  0  0  0  0  0  0  0  0  0  0  0
    5.5502    0.4245   20.1391 C   0  0  0  0  0  0  0  0  0  0  0  0
    4.9053    0.9092   19.0052 C   0  0  0  0  0  0  0  0  0  0  0  0
    5.5803    0.9704   17.8072 C   0  0  0  0  0  0  0  0  0  0  0  0
    6.8428    0.5788   17.6667 N   0  0  0  0  0  0  0  0  0  0  0  0
    7.4674    0.0956   18.7452 C   0  0  0  0  0  0  0  0  0  0  0  0
    6.8888    0.0017   20.0126 C   0  0  0  0  0  0  0  0  0  0  0  0
    7.5501   -0.4900   21.1756 N   0  0  0  0  0  0  0  0  0  0  0  0
    8.8464   -0.2958   21.5958 C   0  0  0  0  0  0  0  0  0  0  0  0
    9.6515    0.3784   20.9671 O   0  0  0  0  0  0  0  0  0  0  0  0
    9.2410   -0.8850   22.7757 N   0  0  0  0  0  0  0  0  0  0  0  0
    8.3327   -1.5085   23.7439 C   0  0  0  0  0  0  0  0  0  0  0  0
    8.0444   -2.9682   23.4408 C   0  0  0  0  0  0  0  0  0  0  0  0
    7.1503   -3.6345   24.4677 C   0  0  0  0  0  0  0  0  0  0  0  0
    7.9388   -4.1198   25.6067 N   0  0  0  0  0  0  0  0  0  0  0  0
    8.2498   -5.7974   25.7400 S   0  0  0  0  0  0  0  0  0  0  0  0
    9.0588   -6.2544   24.5244 N   0  0  0  0  0  0  0  0  0  0  0  0
    6.9542   -6.5091   25.7148 O   0  0  0  0  0  0  0  0  0  0  0  0
    9.0791   -6.0173   26.9441 O   0  0  0  0  0  0  0  0  0  0  0  0
   10.6673   -0.9591   23.1477 C   0  0  0  0  0  0  0  0  0  0  0  0
   11.2171    0.4232   23.4126 C   0  0  0  0  0  0  0  0  0  0  0  0
   12.7122    0.3709   23.7091 C   0  0  0  0  0  0  0  0  0  0  0  0
   13.4698   -0.3087   22.5983 C   0  0  0  0  0  0  0  0  0  0  0  0
   12.9119   -1.6833   22.3141 C   0  0  0  0  0  0  0  0  0  0  0  0
   11.4182   -1.6381   22.0217 C   0  0  0  0  0  0  0  0  0  0  0  0
  1  2  1  0
  2  3  2  0
  3  4  1  0
  4  5  2  0
  5  6  1  0
  6  7  2  0
  7  8  1  0
  8  9  1  0
  9 10  2  0
  9 11  1  0
 11 12  1  0
 12 13  1  0
 13 14  1  0
 14 15  1  0
 15 16  1  0
 16 17  1  0
 16 18  2  0
 16 19  2  0
 11 20  1  0
 20 21  1  0
 21 22  1  0
 22 23  1  0
 23 24  1  0
 24 25  1  0
  7  2  1  0
 25 20  1  0
M  END
