CVD-0002806|dock_bobby27042020.18|mol2|33|dock2
     RDKit          3D

 21 22  0  0  0  0  0  0  0  0999 V2000
    4.4528    1.5775   20.8130 C   0  0  0  0  0  0  0  0  0  0  0  0
    5.3341    1.3839   19.6060 C   0  0  0  0  0  0  0  0  0  0  0  0
    4.9355    1.9291   18.3892 C   0  0  0  0  0  0  0  0  0  0  0  0
    5.7184    1.7483   17.2705 C   0  0  0  0  0  0  0  0  0  0  0  0
    6.8650    1.0738   17.2852 N   0  0  0  0  0  0  0  0  0  0  0  0
    7.2709    0.5664   18.4533 C   0  0  0  0  0  0  0  0  0  0  0  0
    6.5448    0.6675   19.6399 C   0  0  0  0  0  0  0  0  0  0  0  0
    6.9568    0.1030   20.8592 N   0  0  0  0  0  0  0  0  0  0  0  0
    8.1628    0.1912   21.5401 C   0  0  0  0  0  0  0  0  0  0  0  0
    8.5597   -0.8962   22.3162 C   0  0  0  0  0  0  0  0  0  0  0  0
    9.7628   -0.8194   22.9927 C   0  0  0  0  0  0  0  0  0  0  0  0
   10.5619    0.3147   22.9010 C   0  0  0  0  0  0  0  0  0  0  0  0
   11.8732    0.3826   23.6518 C   0  0  0  0  0  0  0  0  0  0  0  0
   13.0495    0.2510   22.6855 C   0  0  0  0  0  0  0  0  0  0  0  0
   13.3946   -1.4045   22.1571 S   0  0  0  0  0  0  0  0  0  0  0  0
   12.0462   -2.0738   21.6112 N   0  0  0  0  0  0  0  0  0  0  0  0
   14.3074   -1.3093   21.0538 O   0  0  0  0  0  0  0  0  0  0  0  0
   13.8013   -2.1388   23.3210 O   0  0  0  0  0  0  0  0  0  0  0  0
   10.0859    1.3825   22.0866 C   0  0  0  0  0  0  0  0  0  0  0  0
   10.7744    2.5170   21.9315 N   0  0  0  0  0  0  0  0  0  0  0  0
    8.9124    1.2956   21.4319 N   0  0  0  0  0  0  0  0  0  0  0  0
  1  2  1  0
  2  3  2  0
  3  4  1  0
  4  5  2  0
  5  6  1  0
  6  7  2  0
  7  8  1  0
  8  9  1  0
  9 10  2  0
 10 11  1  0
 11 12  2  0
 12 13  1  0
 13 14  1  0
 14 15  1  0
 15 16  1  0
 15 17  2  0
 15 18  2  0
 12 19  1  0
 19 20  1  0
 19 21  2  0
  7  2  1  0
 21  9  1  0
M  END
