CVD-0003716|dock_bobby27042020.73|mol2|1|dock1
     RDKit          3D

 35 38  0  0  0  0  0  0  0  0999 V2000
    7.1374    1.8429   27.6645 C   0  0  0  0  0  0  0  0  0  0  0  0
    7.9112    1.2154   26.5040 C   0  0  0  0  0  0  0  0  0  0  0  0
    7.1905    1.4655   25.1643 C   0  0  0  0  0  0  0  0  0  0  0  0
    7.0664    2.8952   24.6434 C   0  0  0  0  0  0  0  0  0  0  0  0
    6.0161    3.1189   23.5628 C   0  0  0  0  0  0  0  0  0  0  0  0
    6.1942    2.2454   22.3446 C   0  0  0  0  0  0  0  0  0  0  0  0
    5.0967    1.7114   21.6872 C   0  0  0  0  0  0  0  0  0  0  0  0
    5.2488    0.9124   20.5680 C   0  0  0  0  0  0  0  0  0  0  0  0
    6.5219    0.6428   20.0941 C   0  0  0  0  0  0  0  0  0  0  0  0
    7.6329    1.1648   20.7353 C   0  0  0  0  0  0  0  0  0  0  0  0
    7.4589    1.9615   21.8531 C   0  0  0  0  0  0  0  0  0  0  0  0
    6.7304   -0.3817   18.6693 S   0  0  0  0  0  0  0  0  0  0  0  0
    8.2056   -0.1527   18.0912 N   0  0  0  0  0  0  0  0  0  0  0  0
    6.6537   -1.7433   19.1067 O   0  0  0  0  0  0  0  0  0  0  0  0
    5.8094    0.0779   17.6736 O   0  0  0  0  0  0  0  0  0  0  0  0
    8.1599   -0.2928   26.7029 C   0  0  0  0  0  0  0  0  0  0  0  0
    6.8573   -1.0847   26.5572 C   0  0  0  0  0  0  0  0  0  0  0  0
    6.9329   -2.5259   26.9453 C   0  0  0  0  0  0  0  0  0  0  0  0
    6.7700   -3.5155   26.1336 N   0  0  0  0  0  0  0  0  0  0  0  0
    6.9002   -4.7535   26.7610 N   0  0  0  0  0  0  0  0  0  0  0  0
    7.1646   -4.6531   28.0203 C   0  0  0  0  0  0  0  0  0  0  0  0
    7.3452   -5.8244   28.9275 C   0  0  0  0  0  0  0  0  0  0  0  0
    7.2736   -3.0157   28.5783 S   0  0  0  0  0  0  0  0  0  0  0  0
    9.1843   -0.8192   25.7140 C   0  0  0  0  0  0  0  0  0  0  0  0
    8.8780   -1.5972   24.8143 O   0  0  0  0  0  0  0  0  0  0  0  0
   10.4511   -0.3592   25.9192 N   0  0  0  0  0  0  0  0  0  0  0  0
   11.5882   -0.6922   25.1521 C   0  0  0  0  0  0  0  0  0  0  0  0
   12.9096   -0.4610   25.3788 C   0  0  0  0  0  0  0  0  0  0  0  0
   13.6915   -0.9039   24.3365 N   0  0  0  0  0  0  0  0  0  0  0  0
   12.8698   -1.4000   23.3829 C   0  0  0  0  0  0  0  0  0  0  0  0
   13.2019   -1.8221   22.0371 C   0  0  0  0  0  0  0  0  0  0  0  0
   12.2050   -1.6618   21.1157 C   0  0  0  0  0  0  0  0  0  0  0  0
   10.9559   -1.1063   21.4774 C   0  0  0  0  0  0  0  0  0  0  0  0
   10.5501   -0.9624   22.7449 C   0  0  0  0  0  0  0  0  0  0  0  0
   11.4512   -1.4579   23.8626 C   0  0  0  0  0  0  0  0  0  0  0  0
  1  2  1  0
  2  3  1  0
  3  4  1  0
  4  5  1  0
  5  6  1  0
  6  7  2  0
  7  8  1  0
  8  9  2  0
  9 10  1  0
 10 11  2  0
  9 12  1  0
 12 13  1  0
 12 14  2  0
 12 15  2  0
  2 16  1  0
 16 17  1  0
 17 18  1  0
 18 19  2  0
 19 20  1  0
 20 21  2  0
 21 22  1  0
 21 23  1  0
 16 24  1  0
 24 25  2  0
 24 26  1  0
 26 27  1  0
 27 28  2  0
 28 29  1  0
 29 30  2  0
 30 31  1  0
 31 32  2  0
 32 33  1  0
 33 34  2  0
 34 35  1  0
 11  6  1  0
 23 18  1  0
 35 27  1  0
 35 30  1  0
M  END
