CVD-0000095|dock_bobby27042020.14|mol2|13|dock2
     RDKit          3D

 29 31  0  0  0  0  0  0  0  0999 V2000
    2.9763    2.7617   19.0395 C   0  0  0  0  0  0  0  0  0  0  0  0
    4.0314    1.7744   18.6617 C   0  0  0  0  0  0  0  0  0  0  0  0
    4.5770    0.7104   19.2619 C   0  0  0  0  0  0  0  0  0  0  0  0
    5.5243    0.2156   18.3597 C   0  0  0  0  0  0  0  0  0  0  0  0
    6.4252   -0.9673   18.5261 C   0  0  0  0  0  0  0  0  0  0  0  0
    6.7930   -1.1997   19.9134 N   0  0  0  0  0  0  0  0  0  0  0  0
    7.4768   -0.0782   20.5627 C   0  0  0  0  0  0  0  0  0  0  0  0
    8.8264   -0.4597   20.9458 N   0  0  0  0  0  0  0  0  0  0  0  0
    9.5810    0.1650   22.2275 S   0  0  0  0  0  0  0  0  0  0  0  0
    8.9329   -0.3597   23.3951 O   0  0  0  0  0  0  0  0  0  0  0  0
    9.6189    1.5874   22.0434 O   0  0  0  0  0  0  0  0  0  0  0  0
   11.2385   -0.4096   22.2330 C   0  0  0  0  0  0  0  0  0  0  0  0
   12.2311    0.5543   22.8829 C   0  0  0  0  0  0  0  0  0  0  0  0
   13.6544   -0.0012   22.8407 C   0  0  0  0  0  0  0  0  0  0  0  0
   13.7311   -1.3679   23.4927 C   0  0  0  0  0  0  0  0  0  0  0  0
   12.7451   -2.3359   22.8716 C   0  0  0  0  0  0  0  0  0  0  0  0
   11.3236   -1.7838   22.9015 C   0  0  0  0  0  0  0  0  0  0  0  0
    6.5179   -2.3283   20.6016 C   0  0  0  0  0  0  0  0  0  0  0  0
    5.9049   -3.2587   20.0935 O   0  0  0  0  0  0  0  0  0  0  0  0
    6.9986   -2.4286   22.0484 C   0  0  0  0  0  0  0  0  0  0  0  0
    6.5032   -3.6944   22.6031 N   0  0  0  0  0  0  0  0  0  0  0  0
    6.2485   -3.6413   24.0478 C   0  0  0  0  0  0  0  0  0  0  0  0
    7.4570   -4.3328   23.5374 C   0  0  0  0  0  0  0  0  0  0  0  0
    7.5702   -5.8455   23.5436 C   0  0  0  0  0  0  0  0  0  0  0  0
    6.2821   -6.4360   23.2383 O   0  0  0  0  0  0  0  0  0  0  0  0
    5.8277   -6.3704   21.9525 C   0  0  0  0  0  0  0  0  0  0  0  0
    6.4033   -5.8669   20.8992 C   0  0  0  0  0  0  0  0  0  0  0  0
    5.5636    0.9259   17.2719 N   0  0  0  0  0  0  0  0  0  0  0  0
    4.5971    1.9459   17.4517 O   0  0  0  0  0  0  0  0  0  0  0  0
  1  2  1  0
  2  3  2  0
  3  4  1  0
  4  5  1  0
  5  6  1  0
  6  7  1  0
  7  8  1  0
  8  9  1  0
  9 10  2  0
  9 11  2  0
  9 12  1  0
 12 13  1  0
 13 14  1  0
 14 15  1  0
 15 16  1  0
 16 17  1  0
  6 18  1  0
 18 19  2  0
 18 20  1  0
 20 21  1  0
 21 22  1  0
 22 23  1  0
 23 24  1  0
 24 25  1  0
 25 26  1  0
 26 27  2  0
  4 28  2  0
 28 29  1  0
 29  2  1  0
 17 12  1  0
 23 21  1  0
M  END
