CVD-0000177|dock_bobby27042020.13|mol2|43|dock3
     RDKit          3D

 16 17  0  0  0  0  0  0  0  0999 V2000
   13.6270    5.2847   22.1325 C   0  0  0  0  0  0  0  0  0  0  0  0
   12.8714    3.9904   22.2047 C   0  0  0  0  0  0  0  0  0  0  0  0
   12.2095    3.5714   21.2601 O   0  0  0  0  0  0  0  0  0  0  0  0
   12.9742    3.3132   23.3499 N   0  0  0  0  0  0  0  0  0  0  0  0
   12.3145    2.0337   23.5672 C   0  0  0  0  0  0  0  0  0  0  0  0
   12.9958    0.9096   22.8075 C   0  0  0  0  0  0  0  0  0  0  0  0
   12.3681   -0.4331   23.1111 C   0  0  0  0  0  0  0  0  0  0  0  0
   11.2538   -0.8487   22.4286 C   0  0  0  0  0  0  0  0  0  0  0  0
   10.6529   -2.0716   22.6866 C   0  0  0  0  0  0  0  0  0  0  0  0
   11.1503   -2.9149   23.6361 C   0  0  0  0  0  0  0  0  0  0  0  0
   12.2977   -2.5422   24.3734 C   0  0  0  0  0  0  0  0  0  0  0  0
   12.8027   -3.3834   25.3279 N   0  0  0  0  0  0  0  0  0  0  0  0
   13.8761   -2.9595   25.9705 C   0  0  0  0  0  0  0  0  0  0  0  0
   14.4757   -1.7407   25.7140 C   0  0  0  0  0  0  0  0  0  0  0  0
   14.0251   -0.8967   24.8037 N   0  0  0  0  0  0  0  0  0  0  0  0
   12.9169   -1.2902   24.1127 C   0  0  0  0  0  0  0  0  0  0  0  0
  1  2  1  0
  2  3  2  0
  2  4  1  0
  4  5  1  0
  5  6  1  0
  6  7  1  0
  7  8  2  0
  8  9  1  0
  9 10  2  0
 10 11  1  0
 11 12  2  0
 12 13  1  0
 13 14  2  0
 14 15  1  0
 15 16  2  0
 16  7  1  0
 16 11  1  0
M  END
