CVD-0001125|dock_bobby27042020.10|mol2|38|dock3
     RDKit          3D

 23 24  0  0  0  0  0  0  0  0999 V2000
    4.1898    1.8329   18.8439 C   0  0  0  0  0  0  0  0  0  0  0  0
    5.3880    0.9635   17.9083 S   0  0  0  0  0  0  0  0  0  0  0  0
    5.8713    1.8387   16.8855 O   0  0  0  0  0  0  0  0  0  0  0  0
    4.8227   -0.2921   17.5217 O   0  0  0  0  0  0  0  0  0  0  0  0
    6.6258    0.6459   18.8770 N   0  0  0  0  0  0  0  0  0  0  0  0
    6.4080   -0.1079   20.1174 C   0  0  0  0  0  0  0  0  0  0  0  0
    7.6373   -0.9018   20.5158 C   0  0  0  0  0  0  0  0  0  0  0  0
    8.7080   -0.0743   21.1667 C   0  0  0  0  0  0  0  0  0  0  0  0
    8.7116    1.2817   21.3172 C   0  0  0  0  0  0  0  0  0  0  0  0
    9.8469    1.6907   21.9614 N   0  0  0  0  0  0  0  0  0  0  0  0
   10.6095    0.5847   22.2429 C   0  0  0  0  0  0  0  0  0  0  0  0
   11.8443    0.5015   22.8923 C   0  0  0  0  0  0  0  0  0  0  0  0
   12.5576    1.7252   23.4230 C   0  0  0  0  0  0  0  0  0  0  0  0
   13.5577    2.2925   22.4318 C   0  0  0  0  0  0  0  0  0  0  0  0
   14.1134    3.5588   22.9239 N   0  0  0  0  0  0  0  0  0  0  0  0
   13.4484    4.9457   22.4716 S   0  0  0  0  0  0  0  0  0  0  0  0
   12.7506    5.6891   23.8954 C   0  0  0  0  0  0  0  0  0  0  0  0
   14.5080    5.7862   22.0061 O   0  0  0  0  0  0  0  0  0  0  0  0
   12.3842    4.6261   21.5710 O   0  0  0  0  0  0  0  0  0  0  0  0
   12.4034   -0.7640   23.0424 C   0  0  0  0  0  0  0  0  0  0  0  0
   11.7592   -1.8934   22.5598 C   0  0  0  0  0  0  0  0  0  0  0  0
   10.5349   -1.7939   21.9155 C   0  0  0  0  0  0  0  0  0  0  0  0
    9.9320   -0.5469   21.7520 C   0  0  0  0  0  0  0  0  0  0  0  0
  1  2  1  0
  2  3  2  0
  2  4  2  0
  2  5  1  0
  5  6  1  0
  6  7  1  0
  7  8  1  0
  8  9  2  0
  9 10  1  0
 10 11  1  0
 11 12  2  0
 12 13  1  0
 13 14  1  0
 14 15  1  0
 15 16  1  0
 16 17  1  0
 16 18  2  0
 16 19  2  0
 12 20  1  0
 20 21  2  0
 21 22  1  0
 22 23  2  0
 23  8  1  0
 23 11  1  0
M  END
