CVD-0000462|dock_bobby27042020.98|mol2|27|dock2
     RDKit          3D

 29 32  0  0  0  0  0  0  0  0999 V2000
   14.7472   -1.9372   25.8740 O   0  0  0  0  0  0  0  0  0  0  0  0
   14.3643   -1.6034   24.6077 C   0  0  0  0  0  0  0  0  0  0  0  0
   14.6122   -2.4787   23.5605 C   0  0  0  0  0  0  0  0  0  0  0  0
   14.2075   -2.0977   22.3051 C   0  0  0  0  0  0  0  0  0  0  0  0
   14.4428   -2.9450   21.2671 F   0  0  0  0  0  0  0  0  0  0  0  0
   13.5777   -0.9062   22.0426 C   0  0  0  0  0  0  0  0  0  0  0  0
   13.3334   -0.0334   23.0949 C   0  0  0  0  0  0  0  0  0  0  0  0
   12.6405    1.2847   22.8492 C   0  0  0  0  0  0  0  0  0  0  0  0
   11.1945    1.3302   23.3802 C   0  0  0  0  0  0  0  0  0  0  0  0
   10.4730    2.5187   22.7673 C   0  0  0  0  0  0  0  0  0  0  0  0
    9.5074    1.9429   21.6950 C   0  0  0  0  0  0  0  0  0  0  0  0
    9.4713    0.4639   21.9682 C   0  0  0  0  0  0  0  0  0  0  0  0
   10.3903    0.1253   22.9538 C   0  0  0  0  0  0  0  0  0  0  0  0
   10.5902   -1.2012   23.3271 C   0  0  0  0  0  0  0  0  0  0  0  0
    9.8430   -2.1588   22.6828 C   0  0  0  0  0  0  0  0  0  0  0  0
    9.9728   -3.4542   23.0792 F   0  0  0  0  0  0  0  0  0  0  0  0
    8.9238   -1.8720   21.7038 C   0  0  0  0  0  0  0  0  0  0  0  0
    8.7271   -0.5404   21.3329 C   0  0  0  0  0  0  0  0  0  0  0  0
    7.7207   -0.1500   20.2693 C   0  0  0  0  0  0  0  0  0  0  0  0
    6.3070   -0.1887   20.7816 C   0  0  0  0  0  0  0  0  0  0  0  0
    5.3829    0.1161   19.6904 N   0  0  0  0  0  0  0  0  0  0  0  0
    5.6002   -0.7079   18.5031 C   0  0  0  0  0  0  0  0  0  0  0  0
    7.0437   -0.6544   18.0998 C   0  0  0  0  0  0  0  0  0  0  0  0
    7.9021   -1.0252   19.1655 O   0  0  0  0  0  0  0  0  0  0  0  0
    4.4431    1.0801   19.7697 C   0  0  0  0  0  0  0  0  0  0  0  0
    3.6854    1.3208   18.8382 O   0  0  0  0  0  0  0  0  0  0  0  0
    4.3718    1.8597   21.0684 C   0  0  0  0  0  0  0  0  0  0  0  0
    3.0341    3.0166   21.0582 Cl  0  0  0  0  0  0  0  0  0  0  0  0
   13.7298   -0.3910   24.3775 C   0  0  0  0  0  0  0  0  0  0  0  0
  1  2  1  0
  2  3  2  0
  3  4  1  0
  4  5  1  0
  4  6  2  0
  6  7  1  0
  7  8  1  0
  9  8  1  0
  9 10  1  0
 10 11  1  0
 11 12  1  0
 12 13  2  0
 13 14  1  0
 14 15  2  0
 15 16  1  0
 15 17  1  0
 17 18  2  0
 19 18  1  0
 19 20  1  0
 20 21  1  0
 21 22  1  0
 22 23  1  0
 23 24  1  0
 21 25  1  0
 25 26  2  0
 25 27  1  0
 27 28  1  0
  7 29  2  0
 29  2  1  0
 13  9  1  0
 24 19  1  0
 18 12  1  0
M  END
