CVD-0001900|dock_bobby27042020.22|mol2|24|dock3
     RDKit          3D

 34 36  0  0  0  0  0  0  0  0999 V2000
    2.4140    3.6196   19.2125 C   0  0  0  0  0  0  0  0  0  0  0  0
    2.8431    2.4497   18.5186 O   0  0  0  0  0  0  0  0  0  0  0  0
    3.7348    1.5856   19.1040 C   0  0  0  0  0  0  0  0  0  0  0  0
    3.9003    1.6492   20.4739 C   0  0  0  0  0  0  0  0  0  0  0  0
    4.7853    0.8018   21.1158 C   0  0  0  0  0  0  0  0  0  0  0  0
    5.5288   -0.1327   20.3913 C   0  0  0  0  0  0  0  0  0  0  0  0
    6.4509   -1.0237   21.0104 N   0  0  0  0  0  0  0  0  0  0  0  0
    6.5858   -1.4060   22.3062 C   0  0  0  0  0  0  0  0  0  0  0  0
    5.8952   -1.0332   23.2502 O   0  0  0  0  0  0  0  0  0  0  0  0
    7.7497   -2.3970   22.5242 C   0  0  0  0  0  0  0  0  0  0  0  0
    8.4383   -2.1527   23.8200 N   0  0  0  0  0  0  0  0  0  0  0  0
    7.6929   -2.3596   24.9783 C   0  0  0  0  0  0  0  0  0  0  0  0
    6.5226   -2.7321   24.9030 O   0  0  0  0  0  0  0  0  0  0  0  0
    8.2172   -2.1665   26.3665 C   0  0  0  0  0  0  0  0  0  0  0  0
    7.6212   -2.5837   27.4544 C   0  0  0  0  0  0  0  0  0  0  0  0
    9.7967   -1.6924   23.7748 C   0  0  0  0  0  0  0  0  0  0  0  0
   10.1592   -0.4619   24.3104 C   0  0  0  0  0  0  0  0  0  0  0  0
   11.4701   -0.0233   24.2532 C   0  0  0  0  0  0  0  0  0  0  0  0
   12.4557   -0.7983   23.6569 C   0  0  0  0  0  0  0  0  0  0  0  0
   12.0932   -2.0260   23.1198 C   0  0  0  0  0  0  0  0  0  0  0  0
   10.7829   -2.4670   23.1758 C   0  0  0  0  0  0  0  0  0  0  0  0
   13.8729   -0.3252   23.6001 C   0  0  0  0  0  0  0  0  0  0  0  0
   13.9709    0.9949   23.4910 F   0  0  0  0  0  0  0  0  0  0  0  0
   14.5423   -0.8272   22.5686 F   0  0  0  0  0  0  0  0  0  0  0  0
   14.5693   -0.6546   24.6821 F   0  0  0  0  0  0  0  0  0  0  0  0
    7.3459   -3.8547   22.3285 C   0  0  0  0  0  0  0  0  0  0  0  0
    6.4456   -4.2626   21.3539 C   0  0  0  0  0  0  0  0  0  0  0  0
    6.1278   -5.6038   21.2274 C   0  0  0  0  0  0  0  0  0  0  0  0
    6.7209   -6.5035   22.0838 C   0  0  0  0  0  0  0  0  0  0  0  0
    7.5884   -6.1458   23.0316 N   0  0  0  0  0  0  0  0  0  0  0  0
    7.8813   -4.8461   23.1345 C   0  0  0  0  0  0  0  0  0  0  0  0
    5.3625   -0.1992   18.9945 C   0  0  0  0  0  0  0  0  0  0  0  0
    6.1104   -1.1713   18.1184 C   0  0  0  0  0  0  0  0  0  0  0  0
    4.4646    0.6629   18.3709 C   0  0  0  0  0  0  0  0  0  0  0  0
  1  2  1  0
  2  3  1  0
  3  4  2  0
  4  5  1  0
  5  6  2  0
  6  7  1  0
  7  8  1  0
  8  9  2  0
  8 10  1  0
 10 11  1  0
 11 12  1  0
 12 13  2  0
 12 14  1  0
 14 15  2  0
 11 16  1  0
 16 17  2  0
 17 18  1  0
 18 19  2  0
 19 20  1  0
 20 21  2  0
 19 22  1  0
 22 23  1  0
 22 24  1  0
 22 25  1  0
 10 26  1  0
 26 27  2  0
 27 28  1  0
 28 29  2  0
 29 30  1  0
 30 31  2  0
  6 32  1  0
 32 33  1  0
 32 34  2  0
 34  3  1  0
 21 16  1  0
 31 26  1  0
M  END
