CVD-0001354|dock_bobby27042020.67|mol2|24|dock1
     RDKit          3D

 25 27  0  0  0  0  0  0  0  0999 V2000
    5.8205   -2.0101   18.2892 C   0  0  0  0  0  0  0  0  0  0  0  0
    6.2045   -2.7996   19.5069 C   0  0  0  0  0  0  0  0  0  0  0  0
    6.0902   -4.0202   19.5053 O   0  0  0  0  0  0  0  0  0  0  0  0
    6.6642   -2.1525   20.6123 N   0  0  0  0  0  0  0  0  0  0  0  0
    7.0424   -2.8520   21.8422 C   0  0  0  0  0  0  0  0  0  0  0  0
    8.4542   -2.4767   22.2526 C   0  0  0  0  0  0  0  0  0  0  0  0
    8.5591   -1.0269   22.4418 N   0  0  0  0  0  0  0  0  0  0  0  0
    9.9145   -0.6621   22.8782 C   0  0  0  0  0  0  0  0  0  0  0  0
   10.0381    0.7825   23.3004 C   0  0  0  0  0  0  0  0  0  0  0  0
    9.1587    1.3270   24.2251 C   0  0  0  0  0  0  0  0  0  0  0  0
    9.2916    2.6499   24.6002 C   0  0  0  0  0  0  0  0  0  0  0  0
    8.1693    3.3022   25.7471 Cl  0  0  0  0  0  0  0  0  0  0  0  0
   10.2885    3.4718   24.0791 C   0  0  0  0  0  0  0  0  0  0  0  0
   10.4401    4.8996   24.5493 C   0  0  0  0  0  0  0  0  0  0  0  0
   11.8428    5.4496   24.3321 C   0  0  0  0  0  0  0  0  0  0  0  0
   12.2649    5.2388   22.9078 C   0  0  0  0  0  0  0  0  0  0  0  0
   12.2756    3.7683   22.5322 C   0  0  0  0  0  0  0  0  0  0  0  0
   11.1777    2.9266   23.1460 C   0  0  0  0  0  0  0  0  0  0  0  0
   11.0364    1.5927   22.7738 C   0  0  0  0  0  0  0  0  0  0  0  0
   13.9217    5.8534   22.6091 S   0  0  0  0  0  0  0  0  0  0  0  0
   13.9503    7.4475   22.8340 N   0  0  0  0  0  0  0  0  0  0  0  0
   14.2473    5.6329   21.2310 O   0  0  0  0  0  0  0  0  0  0  0  0
   14.7666    5.2781   23.6135 O   0  0  0  0  0  0  0  0  0  0  0  0
    8.2284   -0.3572   21.1867 C   0  0  0  0  0  0  0  0  0  0  0  0
    6.8158   -0.7006   20.7499 C   0  0  0  0  0  0  0  0  0  0  0  0
  1  2  1  0
  2  3  2  0
  2  4  1  0
  4  5  1  0
  5  6  1  0
  6  7  1  0
  7  8  1  0
  8  9  1  0
  9 10  2  0
 10 11  1  0
 11 12  1  0
 11 13  2  0
 13 14  1  0
 14 15  1  0
 15 16  1  0
 16 17  1  0
 17 18  1  0
 18 19  2  0
 16 20  1  0
 20 21  1  0
 20 22  2  0
 20 23  2  0
  7 24  1  0
 24 25  1  0
 25  4  1  0
 19  9  1  0
 18 13  1  0
M  END
