CVD-0001047|dock_bobby27042020.54|mol2|1|dock2
     RDKit          3D

 30 33  0  0  0  0  0  0  0  0999 V2000
   12.8867    6.9378   23.8263 O   0  0  0  0  0  0  0  0  0  0  0  0
   13.3588    6.0890   23.0727 N   0  0  0  0  0  0  0  0  0  0  0  0
   14.4366    6.1961   22.5128 O   0  0  0  0  0  0  0  0  0  0  0  0
   12.5766    4.8694   22.8309 C   0  0  0  0  0  0  0  0  0  0  0  0
   13.2302    3.6770   22.5803 C   0  0  0  0  0  0  0  0  0  0  0  0
   12.4999    2.5355   22.3116 C   0  0  0  0  0  0  0  0  0  0  0  0
   11.1071    2.5808   22.2941 C   0  0  0  0  0  0  0  0  0  0  0  0
   10.4407    3.7781   22.6369 C   0  0  0  0  0  0  0  0  0  0  0  0
   11.1935    4.9280   22.8601 C   0  0  0  0  0  0  0  0  0  0  0  0
    8.9955    3.8942   22.7873 N   0  0  0  0  0  0  0  0  0  0  0  0
    8.3315    2.9076   23.0970 O   0  0  0  0  0  0  0  0  0  0  0  0
    8.4900    4.9957   22.6535 O   0  0  0  0  0  0  0  0  0  0  0  0
   10.4371    1.3778   21.8938 N   0  0  0  0  0  0  0  0  0  0  0  0
    9.2880    1.5254   21.1328 N   0  0  0  0  0  0  0  0  0  0  0  0
    8.9000    0.2806   20.8391 C   0  0  0  0  0  0  0  0  0  0  0  0
    9.7740   -0.6612   21.4016 C   0  0  0  0  0  0  0  0  0  0  0  0
   10.7472    0.0488   22.0772 C   0  0  0  0  0  0  0  0  0  0  0  0
   11.8748   -0.5456   22.8293 C   0  0  0  0  0  0  0  0  0  0  0  0
   12.5219   -1.6551   22.2951 C   0  0  0  0  0  0  0  0  0  0  0  0
   13.5933   -2.2437   22.9426 C   0  0  0  0  0  0  0  0  0  0  0  0
   14.0060   -1.7099   24.1318 C   0  0  0  0  0  0  0  0  0  0  0  0
   15.0666   -2.2758   24.7685 F   0  0  0  0  0  0  0  0  0  0  0  0
   13.3946   -0.6305   24.7074 C   0  0  0  0  0  0  0  0  0  0  0  0
   12.3167   -0.0570   24.0562 C   0  0  0  0  0  0  0  0  0  0  0  0
    7.6964    0.0491   20.0253 C   0  0  0  0  0  0  0  0  0  0  0  0
    6.6575    0.9716   20.0060 C   0  0  0  0  0  0  0  0  0  0  0  0
    5.5496    0.7068   19.2253 C   0  0  0  0  0  0  0  0  0  0  0  0
    5.4115   -0.3903   18.4801 N   0  0  0  0  0  0  0  0  0  0  0  0
    6.4151   -1.2678   18.5070 C   0  0  0  0  0  0  0  0  0  0  0  0
    7.5648   -1.0985   19.2530 C   0  0  0  0  0  0  0  0  0  0  0  0
  1  2  1  0
  2  3  2  0
  2  4  1  0
  4  5  2  0
  5  6  1  0
  6  7  2  0
  7  8  1  0
  8  9  2  0
  8 10  1  0
 10 11  1  0
 10 12  2  0
  7 13  1  0
 13 14  1  0
 14 15  2  0
 15 16  1  0
 16 17  2  0
 17 18  1  0
 18 19  2  0
 19 20  1  0
 20 21  2  0
 21 22  1  0
 21 23  1  0
 23 24  2  0
 15 25  1  0
 25 26  2  0
 26 27  1  0
 27 28  2  0
 28 29  1  0
 29 30  2  0
  9  4  1  0
 17 13  1  0
 24 18  1  0
 30 25  1  0
M  CHG  4   1  -1   2   1  10   1  11  -1
M  END
