CVD-0000693|dock_bobby27042020.69|mol2|27|dock2
     RDKit          3D

 29 31  0  0  0  0  0  0  0  0999 V2000
   13.9339    4.8963   22.4760 Cl  0  0  0  0  0  0  0  0  0  0  0  0
   12.2946    5.1543   23.0039 C   0  0  0  0  0  0  0  0  0  0  0  0
   12.0326    6.1445   23.9229 C   0  0  0  0  0  0  0  0  0  0  0  0
   10.7263    6.3400   24.3346 C   0  0  0  0  0  0  0  0  0  0  0  0
    9.7021    5.5545   23.8319 C   0  0  0  0  0  0  0  0  0  0  0  0
    9.9768    4.5540   22.9015 C   0  0  0  0  0  0  0  0  0  0  0  0
    8.9872    3.7076   22.3387 N   0  0  0  0  0  0  0  0  0  0  0  0
    7.7048    3.9756   21.9140 C   0  0  0  0  0  0  0  0  0  0  0  0
    7.1822    5.0837   21.9638 O   0  0  0  0  0  0  0  0  0  0  0  0
    7.0913    2.8411   21.4293 N   0  0  0  0  0  0  0  0  0  0  0  0
    5.7807    2.6736   20.8970 C   0  0  0  0  0  0  0  0  0  0  0  0
    4.6665    3.4265   21.2703 C   0  0  0  0  0  0  0  0  0  0  0  0
    3.4428    3.2541   20.7605 N   0  0  0  0  0  0  0  0  0  0  0  0
    3.2809    2.3066   19.8412 C   0  0  0  0  0  0  0  0  0  0  0  0
    4.3080    1.5046   19.3966 C   0  0  0  0  0  0  0  0  0  0  0  0
    5.5837    1.6783   19.9218 C   0  0  0  0  0  0  0  0  0  0  0  0
    6.6761    0.7683   19.4016 C   0  0  0  0  0  0  0  0  0  0  0  0
    6.9265   -0.4206   20.3117 C   0  0  0  0  0  0  0  0  0  0  0  0
    8.3347   -0.7883   20.3489 N   0  0  0  0  0  0  0  0  0  0  0  0
    9.0517   -0.7368   21.4889 C   0  0  0  0  0  0  0  0  0  0  0  0
    8.5597   -0.3785   22.5557 O   0  0  0  0  0  0  0  0  0  0  0  0
   10.3469   -1.1053   21.3806 N   0  0  0  0  0  0  0  0  0  0  0  0
   11.2893   -1.0284   22.4970 C   0  0  0  0  0  0  0  0  0  0  0  0
   11.5342    0.4347   22.9198 C   0  0  0  0  0  0  0  0  0  0  0  0
   12.5696    0.5533   24.0365 C   0  0  0  0  0  0  0  0  0  0  0  0
   13.8725   -0.1408   23.6608 C   0  0  0  0  0  0  0  0  0  0  0  0
   13.6298   -1.5928   23.2751 C   0  0  0  0  0  0  0  0  0  0  0  0
   12.6245   -1.6999   22.1331 C   0  0  0  0  0  0  0  0  0  0  0  0
   11.2915    4.3595   22.4890 C   0  0  0  0  0  0  0  0  0  0  0  0
  1  2  1  0
  2  3  2  0
  3  4  1  0
  4  5  2  0
  5  6  1  0
  6  7  1  0
  7  8  1  0
  8  9  2  0
  8 10  1  0
 10 11  1  0
 11 12  2  0
 12 13  1  0
 13 14  2  0
 14 15  1  0
 15 16  2  0
 16 17  1  0
 17 18  1  0
 18 19  1  0
 19 20  1  0
 20 21  2  0
 20 22  1  0
 22 23  1  0
 23 24  1  0
 24 25  1  0
 25 26  1  0
 26 27  1  0
 27 28  1  0
  6 29  2  0
 29  2  1  0
 16 11  1  0
 28 23  1  0
M  END
