CVD-0000534|dock_bobby27042020.12|mol2|37|dock3
     RDKit          3D

 24 27  0  0  0  0  0  0  0  0999 V2000
    7.9971    3.8844   22.4144 C   0  0  0  0  0  0  0  0  0  0  0  0
    8.3870    2.4581   22.1756 C   0  0  0  0  0  0  0  0  0  0  0  0
    9.6504    2.1792   22.3985 N   0  0  0  0  0  0  0  0  0  0  0  0
    9.8814    0.9066   21.9128 N   0  0  0  0  0  0  0  0  0  0  0  0
    8.7184    0.4120   21.3837 C   0  0  0  0  0  0  0  0  0  0  0  0
    8.6071   -0.9100   20.9539 N   0  0  0  0  0  0  0  0  0  0  0  0
    7.5340   -1.6730   21.2786 C   0  0  0  0  0  0  0  0  0  0  0  0
    7.1993   -2.7269   20.7486 O   0  0  0  0  0  0  0  0  0  0  0  0
    6.7546   -1.1951   22.4664 C   0  0  0  0  0  0  0  0  0  0  0  0
    5.4433    0.0290   22.0411 S   0  0  0  0  0  0  0  0  0  0  0  0
    6.3403    1.2289   20.9637 C   0  0  0  0  0  0  0  0  0  0  0  0
    6.3021    0.6546   19.5450 C   0  0  0  0  0  0  0  0  0  0  0  0
    4.9002    0.6124   18.9713 C   0  0  0  0  0  0  0  0  0  0  0  0
    4.2348    1.9725   19.0191 C   0  0  0  0  0  0  0  0  0  0  0  0
    4.2225    2.5162   20.4386 C   0  0  0  0  0  0  0  0  0  0  0  0
    5.6262    2.5778   21.0144 C   0  0  0  0  0  0  0  0  0  0  0  0
    7.7342    1.3675   21.5282 C   0  0  0  0  0  0  0  0  0  0  0  0
   11.1310    0.3294   22.3173 C   0  0  0  0  0  0  0  0  0  0  0  0
   11.2917   -1.0243   22.5921 C   0  0  0  0  0  0  0  0  0  0  0  0
   12.5156   -1.5237   23.0006 C   0  0  0  0  0  0  0  0  0  0  0  0
   13.5717   -0.6612   23.1022 C   0  0  0  0  0  0  0  0  0  0  0  0
   14.7765   -1.1490   23.5036 F   0  0  0  0  0  0  0  0  0  0  0  0
   13.4663    0.6714   22.8154 C   0  0  0  0  0  0  0  0  0  0  0  0
   12.2360    1.1655   22.4201 C   0  0  0  0  0  0  0  0  0  0  0  0
  1  2  1  0
  2  3  2  0
  3  4  1  0
  4  5  1  0
  5  6  1  0
  6  7  1  0
  7  8  2  0
  7  9  1  0
  9 10  1  0
 10 11  1  0
 11 12  1  0
 12 13  1  0
 13 14  1  0
 14 15  1  0
 15 16  1  0
 11 17  1  0
  4 18  1  0
 18 19  2  0
 19 20  1  0
 20 21  2  0
 21 22  1  0
 21 23  1  0
 23 24  2  0
 17  2  1  0
 24 18  1  0
 17  5  2  0
 16 11  1  0
M  END
