CVD-0001831|dock_bobby27042020.22|mol2|34|dock1
     RDKit          3D

 29 32  0  0  0  0  0  0  0  0999 V2000
   13.5788   -2.9610   26.3429 O   0  0  0  0  0  0  0  0  0  0  0  0
   14.4599   -2.0018   25.7720 C   0  0  0  0  0  0  0  0  0  0  0  0
   13.8322   -1.2703   24.5996 C   0  0  0  0  0  0  0  0  0  0  0  0
   13.6586   -2.1903   23.3861 C   0  0  0  0  0  0  0  0  0  0  0  0
   13.0391   -1.4517   22.2336 C   0  0  0  0  0  0  0  0  0  0  0  0
   11.7573   -0.8400   22.5964 N   0  0  0  0  0  0  0  0  0  0  0  0
   11.8531    0.0529   23.7745 C   0  0  0  0  0  0  0  0  0  0  0  0
   12.4945   -0.6648   24.9429 C   0  0  0  0  0  0  0  0  0  0  0  0
   10.6371   -0.9231   21.7990 C   0  0  0  0  0  0  0  0  0  0  0  0
   10.3811   -2.0011   21.0941 N   0  0  0  0  0  0  0  0  0  0  0  0
    9.2006   -1.7618   20.4006 N   0  0  0  0  0  0  0  0  0  0  0  0
    8.7767   -0.5500   20.7171 C   0  0  0  0  0  0  0  0  0  0  0  0
    7.5527   -0.0074   20.1472 C   0  0  0  0  0  0  0  0  0  0  0  0
    7.3041    0.6096   18.9020 C   0  0  0  0  0  0  0  0  0  0  0  0
    5.9333    0.9495   18.8543 C   0  0  0  0  0  0  0  0  0  0  0  0
    5.3754    0.5442   20.0263 C   0  0  0  0  0  0  0  0  0  0  0  0
    6.3417   -0.0318   20.8039 N   0  0  0  0  0  0  0  0  0  0  0  0
    9.6569    0.0348   21.6090 N   0  0  0  0  0  0  0  0  0  0  0  0
    9.5567    1.3967   22.1637 C   0  0  0  0  0  0  0  0  0  0  0  0
    8.5387    1.5029   23.2870 C   0  0  0  0  0  0  0  0  0  0  0  0
    8.5663    2.8588   23.9700 C   0  0  0  0  0  0  0  0  0  0  0  0
    7.9369    3.9137   23.1665 N   0  0  0  0  0  0  0  0  0  0  0  0
    6.4703    3.9431   23.1817 C   0  0  0  0  0  0  0  0  0  0  0  0
    5.8989    5.1065   23.9809 C   0  0  0  0  0  0  0  0  0  0  0  0
    5.8700    6.4171   23.2380 C   0  0  0  0  0  0  0  0  0  0  0  0
    7.2225    6.9034   22.7531 C   0  0  0  0  0  0  0  0  0  0  0  0
    7.9245    5.9206   21.8242 C   0  0  0  0  0  0  0  0  0  0  0  0
    8.6644    4.8263   22.5364 C   0  0  0  0  0  0  0  0  0  0  0  0
    9.8885    4.8484   22.5636 O   0  0  0  0  0  0  0  0  0  0  0  0
  1  2  1  0
  2  3  1  0
  3  4  1  0
  4  5  1  0
  5  6  1  0
  6  7  1  0
  7  8  1  0
  6  9  1  0
  9 10  2  0
 10 11  1  0
 11 12  2  0
 12 13  1  0
 13 14  2  0
 14 15  1  0
 15 16  2  0
 16 17  1  0
 12 18  1  0
 18 19  1  0
 19 20  1  0
 20 21  1  0
 21 22  1  0
 22 23  1  0
 23 24  1  0
 24 25  1  0
 25 26  1  0
 26 27  1  0
 27 28  1  0
 28 29  2  0
  8  3  1  0
 18  9  1  0
 28 22  1  0
 17 13  1  0
M  END
