CVD-0000563|dock_bobby27042020.83|mol2|53|dock3
     RDKit          3D

 22 24  0  0  0  0  0  0  0  0999 V2000
    8.6780   -0.2045   22.4120 O   0  0  0  0  0  0  0  0  0  0  0  0
    9.2288   -0.7316   21.4513 C   0  0  0  0  0  0  0  0  0  0  0  0
   10.5515   -1.4585   21.5889 C   0  0  0  0  0  0  0  0  0  0  0  0
   11.3525   -1.2658   22.8967 C   0  0  0  0  0  0  0  0  0  0  0  0
   10.7217   -2.1595   23.9969 C   0  0  0  0  0  0  0  0  0  0  0  0
    9.2551   -1.9447   24.2833 C   0  0  0  0  0  0  0  0  0  0  0  0
    8.2849   -2.6253   23.5638 C   0  0  0  0  0  0  0  0  0  0  0  0
    6.9395   -2.4309   23.8284 C   0  0  0  0  0  0  0  0  0  0  0  0
    6.5480   -1.5539   24.8169 C   0  0  0  0  0  0  0  0  0  0  0  0
    7.5021   -0.8718   25.5408 C   0  0  0  0  0  0  0  0  0  0  0  0
    8.8473   -1.0666   25.2755 C   0  0  0  0  0  0  0  0  0  0  0  0
   12.8229   -1.6927   22.6610 C   0  0  0  0  0  0  0  0  0  0  0  0
   13.6710   -0.6207   23.1305 C   0  0  0  0  0  0  0  0  0  0  0  0
   12.8684    0.5088   23.5787 C   0  0  0  0  0  0  0  0  0  0  0  0
   11.4347    0.2049   23.3230 C   0  0  0  0  0  0  0  0  0  0  0  0
    8.7464   -0.7371   20.1848 N   0  0  0  0  0  0  0  0  0  0  0  0
    7.5637   -0.1843   19.6340 C   0  0  0  0  0  0  0  0  0  0  0  0
    6.3868    0.0060   20.3511 C   0  0  0  0  0  0  0  0  0  0  0  0
    5.2874    0.5552   19.7139 C   0  0  0  0  0  0  0  0  0  0  0  0
    5.3923    0.8977   18.3855 C   0  0  0  0  0  0  0  0  0  0  0  0
    6.5059    0.7274   17.6730 N   0  0  0  0  0  0  0  0  0  0  0  0
    7.5613    0.1966   18.2970 C   0  0  0  0  0  0  0  0  0  0  0  0
  1  2  2  0
  2  3  1  0
  3  4  1  0
  4  5  1  0
  5  6  1  0
  6  7  2  0
  7  8  1  0
  8  9  2  0
  9 10  1  0
 10 11  2  0
  4 12  1  0
 12 13  1  0
 13 14  1  0
 14 15  1  0
  2 16  1  0
 16 17  1  0
 17 18  2  0
 18 19  1  0
 19 20  2  0
 20 21  1  0
 21 22  2  0
 15  4  1  0
 22 17  1  0
 11  6  1  0
M  END
