CVD-0002342|dock_bobby27042020.49|mol2|13|dock2
     RDKit          3D

 13 14  0  0  0  0  0  0  0  0999 V2000
   11.8882    4.8926   21.7306 N   0  0  0  0  0  0  0  0  0  0  0  0
   12.3691    3.6751   22.2778 C   0  0  0  0  0  0  0  0  0  0  0  0
   13.6213    3.4195   22.8248 C   0  0  0  0  0  0  0  0  0  0  0  0
   13.6699    2.1481   23.2260 N   0  0  0  0  0  0  0  0  0  0  0  0
   12.4577    1.6346   22.9256 C   0  0  0  0  0  0  0  0  0  0  0  0
   11.6124    2.4810   22.3534 N   0  0  0  0  0  0  0  0  0  0  0  0
   12.1516    0.3428   23.1998 N   0  0  0  0  0  0  0  0  0  0  0  0
   13.0882   -0.5055   23.9456 C   0  0  0  0  0  0  0  0  0  0  0  0
   14.0015   -1.3501   23.0284 C   0  0  0  0  0  0  0  0  0  0  0  0
   13.2125   -2.5131   22.3873 C   0  0  0  0  0  0  0  0  0  0  0  0
   12.1479   -1.9597   21.6137 O   0  0  0  0  0  0  0  0  0  0  0  0
   10.9487   -1.6788   22.3364 C   0  0  0  0  0  0  0  0  0  0  0  0
   10.8576   -0.1907   22.7454 C   0  0  0  0  0  0  0  0  0  0  0  0
  1  2  1  0
  2  3  1  0
  3  4  1  0
  4  5  1  0
  5  6  2  0
  5  7  1  0
  7  8  1  0
  8  9  1  0
  9 10  1  0
 10 11  1  0
 11 12  1  0
 12 13  1  0
  6  2  1  0
 13  7  1  0
M  END
