CVD-0002298|dock_bobby27042020.78|mol2|2|dock2
     RDKit          3D

 40 43  0  0  0  0  0  0  0  0999 V2000
    4.8454    8.3594   20.7507 C   0  0  0  0  0  0  0  0  0  0  0  0
    4.3086    7.7670   22.0441 C   0  0  0  0  0  0  0  0  0  0  0  0
    3.1668    6.8022   21.7686 C   0  0  0  0  0  0  0  0  0  0  0  0
    5.3884    7.0726   22.7891 N   0  0  0  0  0  0  0  0  0  0  0  0
    5.8079    7.6491   24.0647 C   0  0  0  0  0  0  0  0  0  0  0  0
    5.9783    5.9577   22.2945 C   0  0  0  0  0  0  0  0  0  0  0  0
    5.6254    5.5037   21.2228 O   0  0  0  0  0  0  0  0  0  0  0  0
    7.0773    5.2448   23.0590 C   0  0  0  0  0  0  0  0  0  0  0  0
    8.4368    5.7415   22.6785 C   0  0  0  0  0  0  0  0  0  0  0  0
    9.5604    4.9857   23.3690 C   0  0  0  0  0  0  0  0  0  0  0  0
    9.4019    3.5542   23.1649 N   0  0  0  0  0  0  0  0  0  0  0  0
    8.1138    3.0163   23.5854 C   0  0  0  0  0  0  0  0  0  0  0  0
    6.9953    3.7419   22.8429 C   0  0  0  0  0  0  0  0  0  0  0  0
   10.4613    2.7441   22.8236 C   0  0  0  0  0  0  0  0  0  0  0  0
   11.7850    3.2212   23.2895 C   0  0  0  0  0  0  0  0  0  0  0  0
   12.6405    4.1689   22.0641 Cl  0  0  0  0  0  0  0  0  0  0  0  0
   10.4625    1.5479   22.1074 C   0  0  0  0  0  0  0  0  0  0  0  0
    9.5439    0.8354   21.5073 N   0  0  0  0  0  0  0  0  0  0  0  0
    9.8645   -0.4009   20.8274 C   0  0  0  0  0  0  0  0  0  0  0  0
    9.2243   -1.5878   21.4979 C   0  0  0  0  0  0  0  0  0  0  0  0
    9.6720   -2.1881   22.6878 C   0  0  0  0  0  0  0  0  0  0  0  0
    8.8514   -3.2493   23.0204 C   0  0  0  0  0  0  0  0  0  0  0  0
    9.0167   -4.1107   24.2170 C   0  0  0  0  0  0  0  0  0  0  0  0
    9.1227   -3.4552   25.4453 C   0  0  0  0  0  0  0  0  0  0  0  0
    9.3289   -4.1620   26.6179 C   0  0  0  0  0  0  0  0  0  0  0  0
    9.4284   -5.5350   26.5950 C   0  0  0  0  0  0  0  0  0  0  0  0
    9.2920   -6.2169   25.3994 C   0  0  0  0  0  0  0  0  0  0  0  0
    9.0628   -5.4981   24.2499 C   0  0  0  0  0  0  0  0  0  0  0  0
    8.8617   -6.2117   23.1218 F   0  0  0  0  0  0  0  0  0  0  0  0
    7.8737   -3.3245   21.9888 N   0  0  0  0  0  0  0  0  0  0  0  0
    8.1138   -2.3041   21.0767 C   0  0  0  0  0  0  0  0  0  0  0  0
    6.5784   -4.3822   21.7008 S   0  0  0  0  0  0  0  0  0  0  0  0
    7.1696   -5.5259   21.0784 O   0  0  0  0  0  0  0  0  0  0  0  0
    5.5730   -3.6506   20.9946 O   0  0  0  0  0  0  0  0  0  0  0  0
    5.9720   -4.8981   23.2702 C   0  0  0  0  0  0  0  0  0  0  0  0
    5.8844   -3.9971   24.3176 C   0  0  0  0  0  0  0  0  0  0  0  0
    5.4057   -4.4465   25.5361 C   0  0  0  0  0  0  0  0  0  0  0  0
    5.0381   -5.7676   25.6569 C   0  0  0  0  0  0  0  0  0  0  0  0
    5.1185   -6.6467   24.6571 N   0  0  0  0  0  0  0  0  0  0  0  0
    5.5817   -6.2065   23.4836 C   0  0  0  0  0  0  0  0  0  0  0  0
  1  2  1  0
  2  3  1  0
  2  4  1  0
  4  5  1  0
  4  6  1  0
  6  7  2  0
  6  8  1  0
  8  9  1  0
  9 10  1  0
 10 11  1  0
 11 12  1  0
 12 13  1  0
 11 14  1  0
 14 15  1  0
 15 16  1  0
 14 17  2  0
 17 18  1  0
 18 19  1  0
 19 20  1  0
 20 21  1  0
 21 22  2  0
 22 23  1  0
 23 24  2  0
 24 25  1  0
 25 26  2  0
 26 27  1  0
 27 28  2  0
 28 29  1  0
 22 30  1  0
 30 31  1  0
 30 32  1  0
 32 33  2  0
 32 34  2  0
 32 35  1  0
 35 36  2  0
 36 37  1  0
 37 38  2  0
 38 39  1  0
 39 40  2  0
 13  8  1  0
 31 20  2  0
 40 35  1  0
 28 23  1  0
M  END
