CVD-0003902|dock_bobby27042020.58|mol2|18|dock1
     RDKit          3D

 20 22  0  0  0  0  0  0  0  0999 V2000
   14.0727    6.2729   22.0406 Cl  0  0  0  0  0  0  0  0  0  0  0  0
   13.7502    4.8709   23.0687 C   0  0  0  0  0  0  0  0  0  0  0  0
   12.8310    3.8703   22.4034 C   0  0  0  0  0  0  0  0  0  0  0  0
   12.1052    4.2125   21.4758 O   0  0  0  0  0  0  0  0  0  0  0  0
   12.9081    2.6262   22.9354 N   0  0  0  0  0  0  0  0  0  0  0  0
   12.2291    1.4246   22.6135 C   0  0  0  0  0  0  0  0  0  0  0  0
   12.7597    0.1614   22.8626 C   0  0  0  0  0  0  0  0  0  0  0  0
   12.0394   -0.9708   22.5213 C   0  0  0  0  0  0  0  0  0  0  0  0
   10.7922   -0.8584   21.9325 C   0  0  0  0  0  0  0  0  0  0  0  0
   10.2455    0.3925   21.6758 C   0  0  0  0  0  0  0  0  0  0  0  0
   10.9743    1.5262   22.0212 C   0  0  0  0  0  0  0  0  0  0  0  0
    8.9196    0.5007   21.0499 C   0  0  0  0  0  0  0  0  0  0  0  0
    8.3662   -0.3362   20.1121 C   0  0  0  0  0  0  0  0  0  0  0  0
    7.0372    0.0111   19.7660 C   0  0  0  0  0  0  0  0  0  0  0  0
    6.2296   -0.6704   18.6993 C   0  0  0  0  0  0  0  0  0  0  0  0
    5.1846    0.2691   18.1384 C   0  0  0  0  0  0  0  0  0  0  0  0
    4.5108    1.0630   19.1219 C   0  0  0  0  0  0  0  0  0  0  0  0
    5.3629    1.8668   20.0830 C   0  0  0  0  0  0  0  0  0  0  0  0
    6.6016    1.1012   20.4427 C   0  0  0  0  0  0  0  0  0  0  0  0
    7.7983    1.7431   21.5259 S   0  0  0  0  0  0  0  0  0  0  0  0
  1  2  1  0
  2  3  1  0
  3  4  2  0
  3  5  1  0
  5  6  1  0
  6  7  2  0
  7  8  1  0
  8  9  2  0
  9 10  1  0
 10 11  2  0
 10 12  1  0
 12 13  2  0
 13 14  1  0
 14 15  1  0
 15 16  1  0
 16 17  1  0
 17 18  1  0
 18 19  1  0
 19 20  1  0
 11  6  1  0
 20 12  1  0
 19 14  2  0
M  END
