CVD-0003338|dock_bobby27042020.74|mol2|14|dock2
     RDKit          3D

 24 27  0  0  0  0  0  0  0  0999 V2000
   11.2806   -1.3213   21.9570 C   0  0  0  0  0  0  0  0  0  0  0  0
   10.6431   -0.0082   21.9195 N   0  0  0  0  0  0  0  0  0  0  0  0
    9.3579    0.3344   21.5579 C   0  0  0  0  0  0  0  0  0  0  0  0
    9.1280    1.6314   21.6717 N   0  0  0  0  0  0  0  0  0  0  0  0
   10.3190    2.1761   22.1402 C   0  0  0  0  0  0  0  0  0  0  0  0
   10.6560    3.4943   22.4431 C   0  0  0  0  0  0  0  0  0  0  0  0
   11.9355    3.7637   22.9056 C   0  0  0  0  0  0  0  0  0  0  0  0
   12.8658    2.7546   23.0671 C   0  0  0  0  0  0  0  0  0  0  0  0
   12.5500    1.4382   22.7694 C   0  0  0  0  0  0  0  0  0  0  0  0
   11.2681    1.1727   22.3046 C   0  0  0  0  0  0  0  0  0  0  0  0
    8.3136   -0.5989   21.0888 C   0  0  0  0  0  0  0  0  0  0  0  0
    7.9792   -1.8490   21.5455 C   0  0  0  0  0  0  0  0  0  0  0  0
    6.9309   -2.3748   20.8122 N   0  0  0  0  0  0  0  0  0  0  0  0
    6.3577   -3.6301   21.0292 C   0  0  0  0  0  0  0  0  0  0  0  0
    5.4306   -4.0431   20.3442 O   0  0  0  0  0  0  0  0  0  0  0  0
    6.9419   -4.4484   22.1638 C   0  0  0  0  0  0  0  0  0  0  0  0
    6.2294   -6.0661   22.2102 Cl  0  0  0  0  0  0  0  0  0  0  0  0
    6.5636   -1.4336   19.8364 C   0  0  0  0  0  0  0  0  0  0  0  0
    5.5785   -1.4684   18.8537 C   0  0  0  0  0  0  0  0  0  0  0  0
    5.4404   -0.3725   18.0125 C   0  0  0  0  0  0  0  0  0  0  0  0
    4.4809   -0.3867   17.0427 O   0  0  0  0  0  0  0  0  0  0  0  0
    6.2643    0.7344   18.1456 C   0  0  0  0  0  0  0  0  0  0  0  0
    7.2402    0.7599   19.1249 C   0  0  0  0  0  0  0  0  0  0  0  0
    7.4099   -0.3205   19.9886 C   0  0  0  0  0  0  0  0  0  0  0  0
  1  2  1  0
  2  3  1  0
  3  4  2  0
  4  5  1  0
  5  6  2  0
  6  7  1  0
  7  8  2  0
  8  9  1  0
  9 10  2  0
  3 11  1  0
 11 12  2  0
 12 13  1  0
 13 14  1  0
 14 15  2  0
 14 16  1  0
 16 17  1  0
 13 18  1  0
 18 19  2  0
 19 20  1  0
 20 21  1  0
 20 22  2  0
 22 23  1  0
 23 24  2  0
 10  2  1  0
 24 11  1  0
 10  5  1  0
 24 18  1  0
M  END
