CVD-0002609|dock_bobby27042020.19|mol2|16|dock1
     RDKit          3D

 35 38  0  0  0  0  0  0  0  0999 V2000
   13.3603   -0.9651   22.0546 C   0  0  0  0  0  0  0  0  0  0  0  0
   12.2128   -1.1623   23.0098 C   0  0  0  0  0  0  0  0  0  0  0  0
   11.7712   -2.4545   23.2820 C   0  0  0  0  0  0  0  0  0  0  0  0
   10.7215   -2.7102   24.1535 C   0  0  0  0  0  0  0  0  0  0  0  0
   10.2738   -4.1265   24.4245 C   0  0  0  0  0  0  0  0  0  0  0  0
    9.4600   -4.2564   25.6416 N   0  0  0  0  0  0  0  0  0  0  0  0
    9.9842   -5.3251   26.4971 C   0  0  0  0  0  0  0  0  0  0  0  0
    9.1656   -5.4276   27.7707 C   0  0  0  0  0  0  0  0  0  0  0  0
    7.7573   -5.6769   27.4550 N   0  0  0  0  0  0  0  0  0  0  0  0
    7.2191   -4.6559   26.5508 C   0  0  0  0  0  0  0  0  0  0  0  0
    8.0723   -4.5573   25.2994 C   0  0  0  0  0  0  0  0  0  0  0  0
    7.0610   -6.7151   27.9751 C   0  0  0  0  0  0  0  0  0  0  0  0
    7.5800   -7.5063   28.7527 O   0  0  0  0  0  0  0  0  0  0  0  0
    5.6104   -6.8902   27.5680 C   0  0  0  0  0  0  0  0  0  0  0  0
    4.8741   -8.2219   28.4689 Cl  0  0  0  0  0  0  0  0  0  0  0  0
   10.1028   -1.6350   24.7689 C   0  0  0  0  0  0  0  0  0  0  0  0
   10.5223   -0.3413   24.5171 C   0  0  0  0  0  0  0  0  0  0  0  0
   11.5761   -0.0818   23.6405 C   0  0  0  0  0  0  0  0  0  0  0  0
   12.0208    1.3370   23.3705 C   0  0  0  0  0  0  0  0  0  0  0  0
   11.2646    2.2457   24.1754 O   0  0  0  0  0  0  0  0  0  0  0  0
   10.1322    2.7297   23.4149 C   0  0  0  0  0  0  0  0  0  0  0  0
   10.0306    4.2198   23.6543 C   0  0  0  0  0  0  0  0  0  0  0  0
    8.8076    4.7432   23.1516 O   0  0  0  0  0  0  0  0  0  0  0  0
   10.3638    2.3229   21.9585 C   0  0  0  0  0  0  0  0  0  0  0  0
    9.5169    1.2271   21.6213 O   0  0  0  0  0  0  0  0  0  0  0  0
    8.1879    1.5712   21.3183 C   0  0  0  0  0  0  0  0  0  0  0  0
    7.4751    0.4688   20.7205 N   0  0  0  0  0  0  0  0  0  0  0  0
    6.0437    0.7728   20.6069 C   0  0  0  0  0  0  0  0  0  0  0  0
    5.2645   -0.3930   20.0307 C   0  0  0  0  0  0  0  0  0  0  0  0
    5.7963   -0.8441   18.6758 C   0  0  0  0  0  0  0  0  0  0  0  0
    5.1624   -2.0213   18.1684 O   0  0  0  0  0  0  0  0  0  0  0  0
    7.3016   -1.0554   18.7959 C   0  0  0  0  0  0  0  0  0  0  0  0
    8.0088    0.1495   19.3937 C   0  0  0  0  0  0  0  0  0  0  0  0
   11.8326    1.8853   21.9449 C   0  0  0  0  0  0  0  0  0  0  0  0
   12.6836    3.0109   21.7516 O   0  0  0  0  0  0  0  0  0  0  0  0
  1  2  1  0
  2  3  2  0
  3  4  1  0
  4  5  1  0
  5  6  1  0
  6  7  1  0
  7  8  1  0
  8  9  1  0
  9 10  1  0
 10 11  1  0
  9 12  1  0
 12 13  2  0
 12 14  1  0
 14 15  1  0
  4 16  2  0
 16 17  1  0
 17 18  2  0
 18 19  1  0
 19 20  1  0
 20 21  1  0
 21 22  1  0
 22 23  1  0
 21 24  1  0
 24 25  1  0
 25 26  1  0
 26 27  1  0
 27 28  1  0
 28 29  1  0
 29 30  1  0
 30 31  1  0
 30 32  1  0
 32 33  1  0
 24 34  1  0
 34 35  1  0
 18  2  1  0
 34 19  1  0
 11  6  1  0
 33 27  1  0
M  END
