CVD-0000081|dock_bobby27042020.42|mol2|42|dock3
     RDKit          3D

 17 18  0  0  0  0  0  0  0  0999 V2000
   13.0501   -1.4687   21.3718 C   0  0  0  0  0  0  0  0  0  0  0  0
   12.6040   -0.1099   21.8478 C   0  0  0  0  0  0  0  0  0  0  0  0
   13.5699    0.7863   22.2954 C   0  0  0  0  0  0  0  0  0  0  0  0
   13.1923    2.0337   22.7392 C   0  0  0  0  0  0  0  0  0  0  0  0
   11.9270    2.4421   22.7662 N   0  0  0  0  0  0  0  0  0  0  0  0
   10.9899    1.5897   22.3396 C   0  0  0  0  0  0  0  0  0  0  0  0
   11.2578    0.3036   21.8698 C   0  0  0  0  0  0  0  0  0  0  0  0
   10.2621   -0.6063   21.4159 N   0  0  0  0  0  0  0  0  0  0  0  0
    9.0234   -0.8668   21.9021 C   0  0  0  0  0  0  0  0  0  0  0  0
    8.5042   -0.3344   22.8773 O   0  0  0  0  0  0  0  0  0  0  0  0
    8.2844   -1.9258   21.1139 C   0  0  0  0  0  0  0  0  0  0  0  0
    7.7082   -1.4118   19.7909 C   0  0  0  0  0  0  0  0  0  0  0  0
    7.1579    0.0212   19.9419 C   0  0  0  0  0  0  0  0  0  0  0  0
    6.5106    0.5355   18.6575 C   0  0  0  0  0  0  0  0  0  0  0  0
    5.4362   -0.4210   18.1564 C   0  0  0  0  0  0  0  0  0  0  0  0
    5.9920   -1.8266   17.9786 C   0  0  0  0  0  0  0  0  0  0  0  0
    6.6011   -2.3475   19.2763 C   0  0  0  0  0  0  0  0  0  0  0  0
  1  2  1  0
  2  3  2  0
  3  4  1  0
  4  5  2  0
  5  6  1  0
  6  7  2  0
  7  8  1  0
  8  9  1  0
  9 10  2  0
  9 11  1  0
 11 12  1  0
 12 13  1  0
 13 14  1  0
 14 15  1  0
 15 16  1  0
 16 17  1  0
  7  2  1  0
 17 12  1  0
M  END
