CVD-0003539|dock_bobby27042020.87|mol2|34|dock2
     RDKit          3D

 25 28  0  0  0  0  0  0  0  0999 V2000
    9.0983   -0.9823   20.6194 O   0  0  0  0  0  0  0  0  0  0  0  0
    8.4189   -0.0758   21.0843 C   0  0  0  0  0  0  0  0  0  0  0  0
    6.9866    0.1109   20.6143 C   0  0  0  0  0  0  0  0  0  0  0  0
    6.4697   -1.0331   19.7944 C   0  0  0  0  0  0  0  0  0  0  0  0
    5.9307   -0.9731   18.5428 C   0  0  0  0  0  0  0  0  0  0  0  0
    5.5700   -2.2227   18.1135 N   0  0  0  0  0  0  0  0  0  0  0  0
    5.8735   -3.1228   19.0924 C   0  0  0  0  0  0  0  0  0  0  0  0
    5.6782   -4.4520   19.0666 N   0  0  0  0  0  0  0  0  0  0  0  0
    6.0618   -5.1287   20.1578 C   0  0  0  0  0  0  0  0  0  0  0  0
    6.6286   -4.5393   21.2676 C   0  0  0  0  0  0  0  0  0  0  0  0
    6.8229   -3.1670   21.2776 C   0  0  0  0  0  0  0  0  0  0  0  0
    6.4411   -2.4174   20.1669 C   0  0  0  0  0  0  0  0  0  0  0  0
    8.9201    0.7598   22.0212 N   0  0  0  0  0  0  0  0  0  0  0  0
    8.2095    1.8807   22.6309 C   0  0  0  0  0  0  0  0  0  0  0  0
    9.1002    3.1058   22.6561 C   0  0  0  0  0  0  0  0  0  0  0  0
   10.3927    2.8128   23.4080 C   0  0  0  0  0  0  0  0  0  0  0  0
   11.0844    1.6038   22.7822 C   0  0  0  0  0  0  0  0  0  0  0  0
   10.1396    0.4074   22.7401 C   0  0  0  0  0  0  0  0  0  0  0  0
   11.2882    3.9968   23.4048 N   0  0  0  0  0  0  0  0  0  0  0  0
   10.8248    5.3394   23.8122 C   0  0  0  0  0  0  0  0  0  0  0  0
   12.0645    5.9902   24.4330 C   0  0  0  0  0  0  0  0  0  0  0  0
   13.2121    5.7010   23.4765 C   0  0  0  0  0  0  0  0  0  0  0  0
   12.8200    4.1003   22.7777 S   0  0  0  0  0  0  0  0  0  0  0  0
   13.6684    3.0938   23.3321 O   0  0  0  0  0  0  0  0  0  0  0  0
   12.7549    4.2040   21.3545 O   0  0  0  0  0  0  0  0  0  0  0  0
  1  2  2  0
  2  3  1  0
  3  4  1  0
  4  5  2  0
  5  6  1  0
  6  7  1  0
  7  8  2  0
  8  9  1  0
  9 10  2  0
 10 11  1  0
 11 12  2  0
  2 13  1  0
 13 14  1  0
 14 15  1  0
 15 16  1  0
 16 17  1  0
 17 18  1  0
 16 19  1  0
 19 20  1  0
 20 21  1  0
 21 22  1  0
 22 23  1  0
 23 24  2  0
 23 25  2  0
 12  4  1  0
 18 13  1  0
 23 19  1  0
 12  7  1  0
M  END
