CVD-0002099|dock_bobby27042020.7|mol2|24|dock3
     RDKit          3D

 20 22  0  0  0  0  0  0  0  0999 V2000
    8.0707   -5.0594   21.3004 N   0  0  0  0  0  0  0  0  0  0  0  0
    7.8973   -4.3195   22.5705 C   0  0  0  0  0  0  0  0  0  0  0  0
    8.1040   -2.8096   22.4949 C   0  0  0  0  0  0  0  0  0  0  0  0
    9.5066   -2.5617   22.6248 O   0  0  0  0  0  0  0  0  0  0  0  0
    9.7949   -1.1578   22.5479 C   0  0  0  0  0  0  0  0  0  0  0  0
    9.5247   -0.6474   21.1584 C   0  0  0  0  0  0  0  0  0  0  0  0
    8.2680   -1.2132   20.5510 C   0  0  0  0  0  0  0  0  0  0  0  0
    7.7766   -0.7250   19.3295 C   0  0  0  0  0  0  0  0  0  0  0  0
    8.4345    0.2359   18.6107 O   0  0  0  0  0  0  0  0  0  0  0  0
    6.5860   -1.2182   18.7995 C   0  0  0  0  0  0  0  0  0  0  0  0
    6.1454   -0.7461   17.6045 O   0  0  0  0  0  0  0  0  0  0  0  0
    5.8753   -2.1975   19.4762 C   0  0  0  0  0  0  0  0  0  0  0  0
    6.3615   -2.6763   20.6786 C   0  0  0  0  0  0  0  0  0  0  0  0
    7.5536   -2.1941   21.2260 C   0  0  0  0  0  0  0  0  0  0  0  0
   11.2498   -0.9752   22.9763 C   0  0  0  0  0  0  0  0  0  0  0  0
   12.1892   -2.0745   22.4804 C   0  0  0  0  0  0  0  0  0  0  0  0
   13.6275   -1.8225   22.9319 C   0  0  0  0  0  0  0  0  0  0  0  0
   13.7146   -1.6843   24.4394 C   0  0  0  0  0  0  0  0  0  0  0  0
   12.7808   -0.6078   24.9535 C   0  0  0  0  0  0  0  0  0  0  0  0
   11.3449   -0.8478   24.4986 C   0  0  0  0  0  0  0  0  0  0  0  0
  1  2  1  0
  2  3  1  0
  3  4  1  0
  4  5  1  0
  5  6  1  0
  6  7  1  0
  7  8  2  0
  8  9  1  0
  8 10  1  0
 10 11  1  0
 10 12  2  0
 12 13  1  0
 13 14  2  0
  5 15  1  0
 15 16  1  0
 16 17  1  0
 17 18  1  0
 18 19  1  0
 19 20  1  0
 14  3  1  0
 20 15  1  0
 14  7  1  0
M  END
