CVD-0003465|dock_bobby27042020.59|mol2|39|dock2
     RDKit          3D

 26 28  0  0  0  0  0  0  0  0999 V2000
    3.8243    2.7238   18.5875 C   0  0  0  0  0  0  0  0  0  0  0  0
    4.9101    1.8818   19.0876 N   0  0  0  0  0  0  0  0  0  0  0  0
    4.4626    1.0770   20.2307 C   0  0  0  0  0  0  0  0  0  0  0  0
    5.5869    0.2351   20.8010 C   0  0  0  0  0  0  0  0  0  0  0  0
    6.2272   -0.6749   19.7598 C   0  0  0  0  0  0  0  0  0  0  0  0
    6.5905    0.1682   18.5424 C   0  0  0  0  0  0  0  0  0  0  0  0
    5.4176    0.9928   18.0390 C   0  0  0  0  0  0  0  0  0  0  0  0
    7.3747   -1.3875   20.2399 O   0  0  0  0  0  0  0  0  0  0  0  0
    8.2198   -0.6646   21.1364 C   0  0  0  0  0  0  0  0  0  0  0  0
    9.5499   -1.3596   21.2848 C   0  0  0  0  0  0  0  0  0  0  0  0
    9.6961   -2.4644   20.7727 O   0  0  0  0  0  0  0  0  0  0  0  0
   10.4735   -0.6696   21.9989 N   0  0  0  0  0  0  0  0  0  0  0  0
   11.8123   -1.0056   22.3458 C   0  0  0  0  0  0  0  0  0  0  0  0
   12.5778   -1.9163   21.6160 C   0  0  0  0  0  0  0  0  0  0  0  0
   13.8664   -2.1910   22.0236 C   0  0  0  0  0  0  0  0  0  0  0  0
   14.4363   -1.6366   23.0896 N   0  0  0  0  0  0  0  0  0  0  0  0
   13.6945   -0.7672   23.7782 C   0  0  0  0  0  0  0  0  0  0  0  0
   12.4048   -0.4034   23.4717 C   0  0  0  0  0  0  0  0  0  0  0  0
   11.6851    0.6111   24.3300 C   0  0  0  0  0  0  0  0  0  0  0  0
   11.3730    1.8537   23.6391 N   0  0  0  0  0  0  0  0  0  0  0  0
   12.3073    2.5216   22.9338 C   0  0  0  0  0  0  0  0  0  0  0  0
   13.4644    2.1212   22.8369 O   0  0  0  0  0  0  0  0  0  0  0  0
   11.8870    3.6603   22.3406 N   0  0  0  0  0  0  0  0  0  0  0  0
   12.7866    4.5522   21.6089 C   0  0  0  0  0  0  0  0  0  0  0  0
   13.5245    5.2983   22.8746 C   0  0  0  0  0  0  0  0  0  0  0  0
   14.3097    4.8262   21.7046 C   0  0  0  0  0  0  0  0  0  0  0  0
  1  2  1  0
  2  3  1  0
  3  4  1  0
  4  5  1  0
  5  6  1  0
  6  7  1  0
  5  8  1  0
  8  9  1  0
  9 10  1  0
 10 11  2  0
 10 12  1  0
 12 13  1  0
 13 14  2  0
 14 15  1  0
 15 16  2  0
 16 17  1  0
 17 18  2  0
 18 19  1  0
 19 20  1  0
 20 21  1  0
 21 22  2  0
 21 23  1  0
 23 24  1  0
 24 25  1  0
 25 26  1  0
  7  2  1  0
 18 13  1  0
 26 24  1  0
M  END
