CVD-0002883|dock_bobby27042020.75|mol2|34|dock2
     RDKit          3D

 32 35  0  0  0  0  0  0  0  0999 V2000
    7.7339    4.9741   22.6437 C   0  0  0  0  0  0  0  0  0  0  0  0
    9.1400    4.7518   22.9605 N   0  0  0  0  0  0  0  0  0  0  0  0
    9.9597    5.9300   23.2147 C   0  0  0  0  0  0  0  0  0  0  0  0
   11.0920    5.5894   24.1670 C   0  0  0  0  0  0  0  0  0  0  0  0
   11.9289    4.4622   23.5985 C   0  0  0  0  0  0  0  0  0  0  0  0
   11.0637    3.2877   23.2113 C   0  0  0  0  0  0  0  0  0  0  0  0
   11.5859    2.0022   23.1570 C   0  0  0  0  0  0  0  0  0  0  0  0
   10.7973    0.9339   22.7848 C   0  0  0  0  0  0  0  0  0  0  0  0
    9.4634    1.1217   22.4565 C   0  0  0  0  0  0  0  0  0  0  0  0
    8.9232    2.3994   22.5049 C   0  0  0  0  0  0  0  0  0  0  0  0
    9.7071    3.4929   22.8795 C   0  0  0  0  0  0  0  0  0  0  0  0
    8.5863   -0.0502   22.0563 C   0  0  0  0  0  0  0  0  0  0  0  0
    7.4371   -0.1776   23.0422 C   0  0  0  0  0  0  0  0  0  0  0  0
    6.3766   -1.1972   22.6285 C   0  0  0  0  0  0  0  0  0  0  0  0
    5.9110   -0.9648   21.1871 C   0  0  0  0  0  0  0  0  0  0  0  0
    7.0793   -0.8914   20.2007 C   0  0  0  0  0  0  0  0  0  0  0  0
    8.0599    0.1836   20.6415 C   0  0  0  0  0  0  0  0  0  0  0  0
    6.5634   -0.5759   18.5491 S   0  0  0  0  0  0  0  0  0  0  0  0
    5.4095   -1.6553   18.1490 N   0  0  0  0  0  0  0  0  0  0  0  0
    5.9712    0.7294   18.6146 O   0  0  0  0  0  0  0  0  0  0  0  0
    7.7347   -0.8405   17.7638 O   0  0  0  0  0  0  0  0  0  0  0  0
    6.8659   -2.5785   22.7841 N   0  0  0  0  0  0  0  0  0  0  0  0
    8.2242   -2.7397   23.3091 C   0  0  0  0  0  0  0  0  0  0  0  0
    8.2895   -2.6211   24.8241 C   0  0  0  0  0  0  0  0  0  0  0  0
    8.5931   -3.9216   25.5675 C   0  0  0  0  0  0  0  0  0  0  0  0
    9.7263   -4.7181   24.9879 C   0  0  0  0  0  0  0  0  0  0  0  0
   10.4264   -5.3101   26.2035 C   0  0  0  0  0  0  0  0  0  0  0  0
    9.8886   -4.6456   27.3694 O   0  0  0  0  0  0  0  0  0  0  0  0
    8.9922   -3.5828   26.9660 N   0  0  0  0  0  0  0  0  0  0  0  0
    6.1059   -3.6469   22.4383 C   0  0  0  0  0  0  0  0  0  0  0  0
    6.6706   -5.0208   22.6543 C   0  0  0  0  0  0  0  0  0  0  0  0
    4.9895   -3.5051   21.9523 O   0  0  0  0  0  0  0  0  0  0  0  0
  1  2  1  0
  2  3  1  0
  3  4  1  0
  4  5  1  0
  5  6  1  0
  6  7  2  0
  7  8  1  0
  8  9  2  0
  9 10  1  0
 10 11  2  0
  9 12  1  0
 12 13  1  0
 13 14  1  0
 14 15  1  0
 15 16  1  0
 16 17  1  0
 16 18  1  0
 18 19  1  0
 18 20  1  0
 18 21  1  0
 14 22  1  0
 22 23  1  0
 23 24  1  0
 24 25  1  0
 25 26  1  0
 26 27  1  0
 27 28  1  0
 28 29  1  0
 22 30  1  0
 30 31  1  0
 30 32  2  0
 11  2  1  0
 17 12  1  0
 29 25  1  0
 11  6  1  0
M  END
