CVD-0001295|dock_bobby27042020.53|mol2|12|dock3
     RDKit          3D

 17 18  0  0  0  0  0  0  0  0999 V2000
   14.6398   -3.1916   23.8102 S   0  0  0  0  0  0  0  0  0  0  0  0
   13.6425   -2.4660   22.5371 C   0  0  0  0  0  0  0  0  0  0  0  0
   13.8672   -2.7162   21.3807 O   0  0  0  0  0  0  0  0  0  0  0  0
   12.5263   -1.5393   23.0186 C   0  0  0  0  0  0  0  0  0  0  0  0
   13.0455   -0.1212   23.2206 C   0  0  0  0  0  0  0  0  0  0  0  0
   11.9248    0.7985   23.6602 C   0  0  0  0  0  0  0  0  0  0  0  0
   10.8469    0.7775   22.6749 N   0  0  0  0  0  0  0  0  0  0  0  0
   10.2809   -0.5539   22.4868 C   0  0  0  0  0  0  0  0  0  0  0  0
   11.3658   -1.5216   22.0262 C   0  0  0  0  0  0  0  0  0  0  0  0
   10.2091    1.8634   22.1792 C   0  0  0  0  0  0  0  0  0  0  0  0
    9.3047    1.6955   21.3793 O   0  0  0  0  0  0  0  0  0  0  0  0
   10.5229    3.2947   22.5237 C   0  0  0  0  0  0  0  0  0  0  0  0
   11.7331    3.9370   22.2607 C   0  0  0  0  0  0  0  0  0  0  0  0
   11.9181    5.2691   22.5924 C   0  0  0  0  0  0  0  0  0  0  0  0
   10.9158    5.9793   23.2147 C   0  0  0  0  0  0  0  0  0  0  0  0
    9.7243    5.3553   23.5091 C   0  0  0  0  0  0  0  0  0  0  0  0
    9.5305    4.0272   23.1688 C   0  0  0  0  0  0  0  0  0  0  0  0
  1  2  1  0
  2  3  2  0
  2  4  1  0
  4  5  1  0
  5  6  1  0
  6  7  1  0
  7  8  1  0
  8  9  1  0
  7 10  1  0
 10 11  2  0
 10 12  1  0
 12 13  2  0
 13 14  1  0
 14 15  2  0
 15 16  1  0
 16 17  2  0
  9  4  1  0
 17 12  1  0
M  END
