CVD-0001554|dock_bobby27042020.37|mol2|45|dock3
     RDKit          3D

 27 28  0  0  0  0  0  0  0  0999 V2000
   12.6278   -3.3166   23.0480 F   0  0  0  0  0  0  0  0  0  0  0  0
   11.7715   -2.1040   22.7551 S   0  0  0  0  0  0  0  0  0  0  0  0
   11.2995   -1.6186   24.0026 O   0  0  0  0  0  0  0  0  0  0  0  0
   10.8231   -2.5115   21.7804 O   0  0  0  0  0  0  0  0  0  0  0  0
   12.8657   -0.9115   22.0587 C   0  0  0  0  0  0  0  0  0  0  0  0
   12.3920    0.5087   22.2770 C   0  0  0  0  0  0  0  0  0  0  0  0
   13.1661    1.3518   23.0741 C   0  0  0  0  0  0  0  0  0  0  0  0
   12.8285    2.6788   23.2572 C   0  0  0  0  0  0  0  0  0  0  0  0
   11.6969    3.1832   22.6626 C   0  0  0  0  0  0  0  0  0  0  0  0
   10.8813    2.3655   21.8998 C   0  0  0  0  0  0  0  0  0  0  0  0
   11.2097    1.0207   21.7059 C   0  0  0  0  0  0  0  0  0  0  0  0
   10.3793    0.1459   20.9514 N   0  0  0  0  0  0  0  0  0  0  0  0
    9.0077    0.0649   20.9102 C   0  0  0  0  0  0  0  0  0  0  0  0
    8.2179    0.7614   21.5412 O   0  0  0  0  0  0  0  0  0  0  0  0
    8.5742   -0.8961   20.0653 N   0  0  0  0  0  0  0  0  0  0  0  0
    7.1561   -1.1921   19.9432 C   0  0  0  0  0  0  0  0  0  0  0  0
    6.7472   -2.1819   21.0389 C   0  0  0  0  0  0  0  0  0  0  0  0
    7.2587   -3.6228   20.8944 C   0  0  0  0  0  0  0  0  0  0  0  0
    7.0905   -4.4962   22.1537 C   0  0  0  0  0  0  0  0  0  0  0  0
    6.6595   -5.8655   21.6447 C   0  0  0  0  0  0  0  0  0  0  0  0
    6.1789   -5.5816   20.3058 N   0  0  0  0  0  0  0  0  0  0  0  0
    6.5291   -4.3877   19.8211 C   0  0  0  0  0  0  0  0  0  0  0  0
    6.2619   -3.9718   18.6968 O   0  0  0  0  0  0  0  0  0  0  0  0
    6.3443    0.0895   19.9775 C   0  0  0  0  0  0  0  0  0  0  0  0
    5.7478    0.4142   20.9811 O   0  0  0  0  0  0  0  0  0  0  0  0
    6.3112    0.9064   18.7159 C   0  0  0  0  0  0  0  0  0  0  0  0
    5.2179    0.2288   17.5022 Cl  0  0  0  0  0  0  0  0  0  0  0  0
  1  2  1  0
  2  3  2  0
  2  4  2  0
  2  5  1  0
  5  6  1  0
  6  7  2  0
  7  8  1  0
  8  9  2  0
  9 10  1  0
 10 11  2  0
 11 12  1  0
 12 13  1  0
 13 14  2  0
 13 15  1  0
 15 16  1  0
 16 17  1  0
 17 18  1  0
 18 19  1  0
 19 20  1  0
 20 21  1  0
 21 22  1  0
 22 23  2  0
 16 24  1  0
 24 25  2  0
 24 26  1  0
 26 27  1  0
 11  6  1  0
 22 18  1  0
M  END
