CVD-0003635|dock_bobby27042020.87|mol2|19|dock3
     RDKit          3D

 25 27  0  0  0  0  0  0  0  0999 V2000
    3.5807    1.8910   20.9047 C   0  0  0  0  0  0  0  0  0  0  0  0
    4.4098    1.5538   19.7003 C   0  0  0  0  0  0  0  0  0  0  0  0
    3.9898    1.7114   18.5582 O   0  0  0  0  0  0  0  0  0  0  0  0
    5.6240    1.0567   19.9436 N   0  0  0  0  0  0  0  0  0  0  0  0
    6.5392    0.6653   18.8807 C   0  0  0  0  0  0  0  0  0  0  0  0
    6.4192   -0.8061   18.5359 C   0  0  0  0  0  0  0  0  0  0  0  0
    6.6064   -1.6888   19.7298 C   0  0  0  0  0  0  0  0  0  0  0  0
    5.9755   -2.8888   19.8146 N   0  0  0  0  0  0  0  0  0  0  0  0
    6.2588   -3.4323   21.0539 C   0  0  0  0  0  0  0  0  0  0  0  0
    6.7556   -4.8476   21.1146 C   0  0  0  0  0  0  0  0  0  0  0  0
    7.5897   -5.2218   22.0902 C   0  0  0  0  0  0  0  0  0  0  0  0
    8.0643   -4.3162   23.0636 C   0  0  0  0  0  0  0  0  0  0  0  0
    7.9403   -2.9490   22.8870 C   0  0  0  0  0  0  0  0  0  0  0  0
    8.4585   -1.9215   23.8601 C   0  0  0  0  0  0  0  0  0  0  0  0
    9.8200   -1.4707   23.5677 N   0  0  0  0  0  0  0  0  0  0  0  0
   10.2759   -0.5216   24.5875 C   0  0  0  0  0  0  0  0  0  0  0  0
   11.6716   -0.0261   24.2574 C   0  0  0  0  0  0  0  0  0  0  0  0
   12.6042   -1.1512   24.1603 N   0  0  0  0  0  0  0  0  0  0  0  0
   12.1447   -2.1496   23.1897 C   0  0  0  0  0  0  0  0  0  0  0  0
   10.7376   -2.6065   23.5293 C   0  0  0  0  0  0  0  0  0  0  0  0
   13.7554   -1.2153   24.8727 C   0  0  0  0  0  0  0  0  0  0  0  0
   14.6376   -2.4130   24.6767 C   0  0  0  0  0  0  0  0  0  0  0  0
   14.0654   -0.3141   25.6438 O   0  0  0  0  0  0  0  0  0  0  0  0
    7.2958   -2.5364   21.6620 C   0  0  0  0  0  0  0  0  0  0  0  0
    7.4110   -1.4631   20.8581 C   0  0  0  0  0  0  0  0  0  0  0  0
  1  2  1  0
  2  3  2  0
  2  4  1  0
  4  5  1  0
  5  6  1  0
  6  7  1  0
  7  8  2  0
  8  9  1  0
  9 10  1  0
 10 11  2  0
 11 12  1  0
 12 13  2  0
 13 14  1  0
 14 15  1  0
 15 16  1  0
 16 17  1  0
 17 18  1  0
 18 19  1  0
 19 20  1  0
 18 21  1  0
 21 22  1  0
 21 23  2  0
 13 24  1  0
 24 25  2  0
 25  7  1  0
 24  9  1  0
 20 15  1  0
M  END
