CVD-0002854|dock_bobby27042020.90|mol2|3|dock3
     RDKit          3D

 27 29  0  0  0  0  0  0  0  0999 V2000
    2.0223    2.9059   19.5510 C   0  0  0  0  0  0  0  0  0  0  0  0
    3.3245    2.1433   19.5327 C   0  0  0  0  0  0  0  0  0  0  0  0
    3.7077    1.3577   20.6077 C   0  0  0  0  0  0  0  0  0  0  0  0
    4.9006    0.6562   20.6036 C   0  0  0  0  0  0  0  0  0  0  0  0
    5.7380    0.7335   19.5009 C   0  0  0  0  0  0  0  0  0  0  0  0
    6.9316    0.0553   19.4459 O   0  0  0  0  0  0  0  0  0  0  0  0
    7.3580   -0.7657   20.5299 C   0  0  0  0  0  0  0  0  0  0  0  0
    7.5829    0.0204   21.7959 C   0  0  0  0  0  0  0  0  0  0  0  0
    7.1620   -0.3800   22.8602 O   0  0  0  0  0  0  0  0  0  0  0  0
    8.3534    1.3106   21.6878 C   0  0  0  0  0  0  0  0  0  0  0  0
    8.6500    1.8969   23.0574 C   0  0  0  0  0  0  0  0  0  0  0  0
    9.6605    2.9546   23.0201 N   0  0  0  0  0  0  0  0  0  0  0  0
    9.1953    4.3275   22.8719 C   0  0  0  0  0  0  0  0  0  0  0  0
   10.2287    5.2899   23.4296 C   0  0  0  0  0  0  0  0  0  0  0  0
   11.5463    5.1126   22.7038 C   0  0  0  0  0  0  0  0  0  0  0  0
   11.9817    3.6672   22.7204 C   0  0  0  0  0  0  0  0  0  0  0  0
   13.3204    3.3197   22.5794 C   0  0  0  0  0  0  0  0  0  0  0  0
   13.7166    1.9983   22.5173 C   0  0  0  0  0  0  0  0  0  0  0  0
   12.7554    1.0047   22.5978 C   0  0  0  0  0  0  0  0  0  0  0  0
   11.4112    1.3151   22.7388 C   0  0  0  0  0  0  0  0  0  0  0  0
   11.0095    2.6481   22.8017 C   0  0  0  0  0  0  0  0  0  0  0  0
   13.2485   -0.6916   22.5514 S   0  0  0  0  0  0  0  0  0  0  0  0
   11.9893   -1.5740   22.1053 N   0  0  0  0  0  0  0  0  0  0  0  0
   14.2405   -0.8207   21.5265 O   0  0  0  0  0  0  0  0  0  0  0  0
   13.5825   -1.0767   23.8897 O   0  0  0  0  0  0  0  0  0  0  0  0
    5.3731    1.5167   18.4196 C   0  0  0  0  0  0  0  0  0  0  0  0
    4.1771    2.2114   18.4431 C   0  0  0  0  0  0  0  0  0  0  0  0
  1  2  1  0
  2  3  2  0
  3  4  1  0
  4  5  2  0
  5  6  1  0
  6  7  1  0
  7  8  1  0
  8  9  2  0
  8 10  1  0
 10 11  1  0
 11 12  1  0
 12 13  1  0
 13 14  1  0
 14 15  1  0
 15 16  1  0
 16 17  2  0
 17 18  1  0
 18 19  2  0
 19 20  1  0
 20 21  2  0
 19 22  1  0
 22 23  1  0
 22 24  2  0
 22 25  2  0
  5 26  1  0
 26 27  2  0
 27  2  1  0
 21 12  1  0
 21 16  1  0
M  END
