CVD-0001858|dock_bobby27042020.37|mol2|1|dock2
     RDKit          3D

 18 19  0  0  0  0  0  0  0  0999 V2000
    7.6447   -4.4095   21.8907 C   0  0  0  0  0  0  0  0  0  0  0  0
    7.1808   -2.9867   22.0742 C   0  0  0  0  0  0  0  0  0  0  0  0
    8.2575   -1.9798   22.0382 N   0  0  0  0  0  0  0  0  0  0  0  0
    8.9963   -1.9492   23.3082 C   0  0  0  0  0  0  0  0  0  0  0  0
   10.3778   -1.3094   23.2348 C   0  0  0  0  0  0  0  0  0  0  0  0
   11.0848   -1.6988   21.9458 C   0  0  0  0  0  0  0  0  0  0  0  0
   12.5448   -1.7825   22.3031 C   0  0  0  0  0  0  0  0  0  0  0  0
   12.6931   -1.3042   23.7198 C   0  0  0  0  0  0  0  0  0  0  0  0
   11.3484   -1.6874   24.3360 C   0  0  0  0  0  0  0  0  0  0  0  0
   13.9252   -1.7795   24.4698 C   0  0  0  0  0  0  0  0  0  0  0  0
   14.1245   -1.2480   25.6653 N   0  0  0  0  0  0  0  0  0  0  0  0
   14.6850   -2.6149   23.9747 O   0  0  0  0  0  0  0  0  0  0  0  0
    7.7498   -0.6563   21.6643 C   0  0  0  0  0  0  0  0  0  0  0  0
    7.2774   -0.5914   20.2456 C   0  0  0  0  0  0  0  0  0  0  0  0
    5.9608   -0.5401   19.7621 C   0  0  0  0  0  0  0  0  0  0  0  0
    6.0873   -0.4938   18.4337 C   0  0  0  0  0  0  0  0  0  0  0  0
    7.3817   -0.5131   18.0772 O   0  0  0  0  0  0  0  0  0  0  0  0
    8.1331   -0.5765   19.2677 N   0  0  0  0  0  0  0  0  0  0  0  0
  1  2  1  0
  2  3  1  0
  3  4  1  0
  5  4  1  0
  5  6  1  0
  6  7  1  0
  7  8  1  0
  8  9  1  0
  8 10  1  0
 10 11  1  0
 10 12  2  0
  3 13  1  0
 13 14  1  0
 14 15  1  0
 15 16  2  0
 16 17  1  0
 17 18  1  0
  9  5  1  0
 18 14  2  0
M  END
