CVD-0003906|dock_bobby27042020.0|mol2|27|dock1
     RDKit          3D

 26 29  0  0  0  0  0  0  0  0999 V2000
    5.8358   -7.2633   23.3283 O   0  0  0  0  0  0  0  0  0  0  0  0
    6.6250   -6.1291   22.9593 C   0  0  0  0  0  0  0  0  0  0  0  0
    6.1130   -5.4735   21.6914 C   0  0  0  0  0  0  0  0  0  0  0  0
    6.9214   -4.2337   21.3006 C   0  0  0  0  0  0  0  0  0  0  0  0
    6.9286   -3.2424   22.4598 C   0  0  0  0  0  0  0  0  0  0  0  0
    7.5033   -3.8726   23.7187 C   0  0  0  0  0  0  0  0  0  0  0  0
    6.6789   -5.1113   24.0878 C   0  0  0  0  0  0  0  0  0  0  0  0
    7.6693   -1.9830   22.1008 N   0  0  0  0  0  0  0  0  0  0  0  0
    6.9825   -1.0781   21.2505 C   0  0  0  0  0  0  0  0  0  0  0  0
    5.8594   -1.3527   20.8509 O   0  0  0  0  0  0  0  0  0  0  0  0
    7.5329    0.2513   20.7726 C   0  0  0  0  0  0  0  0  0  0  0  0
    6.8332    0.7601   19.5326 C   0  0  0  0  0  0  0  0  0  0  0  0
    5.6441    1.4654   19.6131 C   0  0  0  0  0  0  0  0  0  0  0  0
    5.0329    1.9192   18.4575 C   0  0  0  0  0  0  0  0  0  0  0  0
    5.6361    1.6516   17.2496 C   0  0  0  0  0  0  0  0  0  0  0  0
    6.7812    0.9764   17.1397 N   0  0  0  0  0  0  0  0  0  0  0  0
    7.3529    0.5484   18.2694 C   0  0  0  0  0  0  0  0  0  0  0  0
    8.9371   -1.7736   22.5976 C   0  0  0  0  0  0  0  0  0  0  0  0
    9.3689   -1.2337   23.8108 C   0  0  0  0  0  0  0  0  0  0  0  0
   10.7761   -1.2362   23.9714 C   0  0  0  0  0  0  0  0  0  0  0  0
   11.4949   -0.6271   25.1408 C   0  0  0  0  0  0  0  0  0  0  0  0
   12.8972   -0.2145   24.7508 C   0  0  0  0  0  0  0  0  0  0  0  0
   13.5865   -1.1593   23.9239 C   0  0  0  0  0  0  0  0  0  0  0  0
   12.8913   -1.6312   22.6631 C   0  0  0  0  0  0  0  0  0  0  0  0
   11.4171   -1.7669   22.9052 C   0  0  0  0  0  0  0  0  0  0  0  0
   10.3238   -2.2836   21.6632 S   0  0  0  0  0  0  0  0  0  0  0  0
  1  2  1  0
  2  3  1  0
  3  4  1  0
  4  5  1  0
  5  6  1  0
  6  7  1  0
  5  8  1  0
  8  9  1  0
  9 10  2  0
  9 11  1  0
 11 12  1  0
 12 13  2  0
 13 14  1  0
 14 15  2  0
 15 16  1  0
 16 17  2  0
  8 18  1  0
 18 19  2  0
 19 20  1  0
 20 21  1  0
 21 22  1  0
 22 23  1  0
 23 24  1  0
 24 25  1  0
 25 26  1  0
  7  2  1  0
 17 12  1  0
 26 18  1  0
 25 20  2  0
M  END
