CVD-0002160|dock_bobby27042020.92|mol2|29|dock3
     RDKit          3D

 10 10  0  0  0  0  0  0  0  0999 V2000
    8.8399   -0.7196   21.3262 C   0  0  0  0  0  0  0  0  0  0  0  0
    9.5035   -1.7198   22.2492 C   0  0  0  0  0  0  0  0  0  0  0  0
    8.6988   -2.9992   22.3416 C   0  0  0  0  0  0  0  0  0  0  0  0
   10.8469   -2.0259   21.7480 N   0  0  0  0  0  0  0  0  0  0  0  0
   11.9796   -2.1760   22.5439 C   0  0  0  0  0  0  0  0  0  0  0  0
   11.8895   -2.5882   23.8662 C   0  0  0  0  0  0  0  0  0  0  0  0
   13.0482   -2.7217   24.6112 C   0  0  0  0  0  0  0  0  0  0  0  0
   14.2544   -2.4395   24.0110 C   0  0  0  0  0  0  0  0  0  0  0  0
   14.3684   -2.0415   22.7429 N   0  0  0  0  0  0  0  0  0  0  0  0
   13.2452   -1.9139   22.0303 C   0  0  0  0  0  0  0  0  0  0  0  0
  1  2  1  0
  2  3  1  0
  2  4  1  0
  4  5  1  0
  5  6  2  0
  6  7  1  0
  7  8  2  0
  8  9  1  0
  9 10  2  0
 10  5  1  0
M  END
