CVD-0000783|dock_bobby27042020.54|mol2|42|dock3
     RDKit          3D

 25 28  0  0  0  0  0  0  0  0999 V2000
    8.1790   -0.5114   26.7479 F   0  0  0  0  0  0  0  0  0  0  0  0
    8.2276   -1.2567   25.6110 C   0  0  0  0  0  0  0  0  0  0  0  0
    8.9120   -0.7407   24.5387 C   0  0  0  0  0  0  0  0  0  0  0  0
    8.9865   -1.4584   23.3724 C   0  0  0  0  0  0  0  0  0  0  0  0
    9.7612   -0.8300   22.2076 C   0  0  0  0  0  0  0  0  0  0  0  0
   11.1036   -1.4684   22.0724 C   0  0  0  0  0  0  0  0  0  0  0  0
   11.9756   -1.1358   23.2261 N   0  0  0  0  0  0  0  0  0  0  0  0
   12.0742    0.2837   23.6216 C   0  0  0  0  0  0  0  0  0  0  0  0
   11.0197    1.2043   22.9997 C   0  0  0  0  0  0  0  0  0  0  0  0
   11.1482    2.5848   23.1163 C   0  0  0  0  0  0  0  0  0  0  0  0
   10.1968    3.4376   22.5867 C   0  0  0  0  0  0  0  0  0  0  0  0
    9.1036    2.9154   21.9326 C   0  0  0  0  0  0  0  0  0  0  0  0
    8.9684    1.5433   21.8122 C   0  0  0  0  0  0  0  0  0  0  0  0
    9.9161    0.6643   22.3389 C   0  0  0  0  0  0  0  0  0  0  0  0
   12.6582   -2.0553   23.9509 C   0  0  0  0  0  0  0  0  0  0  0  0
   12.6016   -3.2503   23.6881 O   0  0  0  0  0  0  0  0  0  0  0  0
   13.5172   -1.5796   25.1073 C   0  0  0  0  0  0  0  0  0  0  0  0
   14.5711   -2.8815   25.6742 Cl  0  0  0  0  0  0  0  0  0  0  0  0
    8.3541   -2.7413   23.2812 C   0  0  0  0  0  0  0  0  0  0  0  0
    8.3756   -3.5662   22.1244 C   0  0  0  0  0  0  0  0  0  0  0  0
    7.7485   -4.7765   22.1012 C   0  0  0  0  0  0  0  0  0  0  0  0
    7.0718   -5.2424   23.2075 C   0  0  0  0  0  0  0  0  0  0  0  0
    7.0174   -4.5000   24.3483 C   0  0  0  0  0  0  0  0  0  0  0  0
    7.6518   -3.2369   24.4207 C   0  0  0  0  0  0  0  0  0  0  0  0
    7.6029   -2.4578   25.5992 C   0  0  0  0  0  0  0  0  0  0  0  0
  1  2  1  0
  2  3  2  0
  3  4  1  0
  5  4  1  0
  5  6  1  0
  6  7  1  0
  7  8  1  0
  8  9  1  0
  9 10  2  0
 10 11  1  0
 11 12  2  0
 12 13  1  0
 13 14  2  0
  7 15  1  0
 15 16  2  0
 15 17  1  0
 17 18  1  0
  4 19  2  0
 19 20  1  0
 20 21  2  0
 21 22  1  0
 22 23  2  0
 23 24  1  0
 24 25  2  0
 25  2  1  0
 14  5  1  0
 24 19  1  0
 14  9  1  0
M  END
