CVD-0002632|dock_bobby27042020.90|mol2|37|dock3
     RDKit          3D

 28 31  0  0  0  0  0  0  0  0999 V2000
    4.3679   -6.6348   22.7330 C   0  0  0  0  0  0  0  0  0  0  0  0
    5.5246   -5.9368   22.0514 C   0  0  0  0  0  0  0  0  0  0  0  0
    5.2276   -4.5500   21.8295 O   0  0  0  0  0  0  0  0  0  0  0  0
    6.4272   -3.7610   21.9495 C   0  0  0  0  0  0  0  0  0  0  0  0
    7.5534   -4.7770   22.0398 C   0  0  0  0  0  0  0  0  0  0  0  0
    8.8191   -4.3185   22.5850 N   0  0  0  0  0  0  0  0  0  0  0  0
    9.2834   -4.7320   23.8308 C   0  0  0  0  0  0  0  0  0  0  0  0
    9.4022   -3.8366   24.8846 C   0  0  0  0  0  0  0  0  0  0  0  0
    9.8446   -4.2028   26.0901 N   0  0  0  0  0  0  0  0  0  0  0  0
   10.1666   -5.4868   26.2188 C   0  0  0  0  0  0  0  0  0  0  0  0
   10.0969   -6.4364   25.2900 N   0  0  0  0  0  0  0  0  0  0  0  0
    9.6507   -6.0457   24.0933 C   0  0  0  0  0  0  0  0  0  0  0  0
    6.8814   -5.9715   22.7790 C   0  0  0  0  0  0  0  0  0  0  0  0
    6.8647   -5.8218   24.1952 O   0  0  0  0  0  0  0  0  0  0  0  0
    6.5900   -2.8863   20.7773 N   0  0  0  0  0  0  0  0  0  0  0  0
    7.4133   -1.7431   20.7555 C   0  0  0  0  0  0  0  0  0  0  0  0
    8.1317   -1.3784   21.8536 N   0  0  0  0  0  0  0  0  0  0  0  0
    9.0202   -0.2134   21.9513 C   0  0  0  0  0  0  0  0  0  0  0  0
    8.2144    1.0870   22.1487 C   0  0  0  0  0  0  0  0  0  0  0  0
    9.1139    2.3087   22.3266 C   0  0  0  0  0  0  0  0  0  0  0  0
   10.1155    2.1005   23.4551 C   0  0  0  0  0  0  0  0  0  0  0  0
   10.9301    0.8330   23.2395 C   0  0  0  0  0  0  0  0  0  0  0  0
   10.0257   -0.3874   23.1024 C   0  0  0  0  0  0  0  0  0  0  0  0
    7.4575   -1.0167   19.5737 C   0  0  0  0  0  0  0  0  0  0  0  0
    6.7023   -1.4295   18.4790 C   0  0  0  0  0  0  0  0  0  0  0  0
    5.9362   -2.4980   18.4794 N   0  0  0  0  0  0  0  0  0  0  0  0
    5.8666   -3.2451   19.6158 C   0  0  0  0  0  0  0  0  0  0  0  0
    5.1555   -4.2523   19.6203 O   0  0  0  0  0  0  0  0  0  0  0  0
  1  2  1  0
  2  3  1  0
  3  4  1  0
  4  5  1  0
  5  6  1  0
  6  7  1  0
  7  8  2  0
  8  9  1  0
  9 10  2  0
 10 11  1  0
 11 12  2  0
  5 13  1  0
 13 14  1  0
  4 15  1  0
 15 16  1  0
 16 17  1  0
 17 18  1  0
 18 19  1  0
 19 20  1  0
 20 21  1  0
 21 22  1  0
 22 23  1  0
 16 24  2  0
 24 25  1  0
 25 26  2  0
 26 27  1  0
 27 28  2  0
 13  2  1  0
 27 15  1  0
 12  7  1  0
 23 18  1  0
M  END
