CVD-0000345|dock_bobby27042020.56|mol2|21|dock3
     RDKit          3D

 28 30  0  0  0  0  0  0  0  0999 V2000
   13.3844   -1.9778   22.2110 C   0  0  0  0  0  0  0  0  0  0  0  0
   12.0872   -1.2825   22.5756 C   0  0  0  0  0  0  0  0  0  0  0  0
   11.0009   -1.7899   21.8000 N   0  0  0  0  0  0  0  0  0  0  0  0
    9.8449   -2.3413   22.3177 C   0  0  0  0  0  0  0  0  0  0  0  0
    9.8575   -3.1995   23.4175 C   0  0  0  0  0  0  0  0  0  0  0  0
    8.6671   -3.7202   23.8965 C   0  0  0  0  0  0  0  0  0  0  0  0
    7.4922   -3.3786   23.2711 C   0  0  0  0  0  0  0  0  0  0  0  0
    7.4364   -2.5623   22.2139 N   0  0  0  0  0  0  0  0  0  0  0  0
    8.5808   -2.0742   21.7721 C   0  0  0  0  0  0  0  0  0  0  0  0
    8.4275   -1.0224   20.3999 Cl  0  0  0  0  0  0  0  0  0  0  0  0
   12.2380    0.1212   22.4164 O   0  0  0  0  0  0  0  0  0  0  0  0
   11.1087    0.9312   22.7495 C   0  0  0  0  0  0  0  0  0  0  0  0
   11.4971    2.3848   22.7413 C   0  0  0  0  0  0  0  0  0  0  0  0
   10.5393    3.3925   22.7376 C   0  0  0  0  0  0  0  0  0  0  0  0
   10.8773    4.7382   22.7328 C   0  0  0  0  0  0  0  0  0  0  0  0
   12.2252    5.0775   22.7363 C   0  0  0  0  0  0  0  0  0  0  0  0
   13.2033    4.0987   22.7398 C   0  0  0  0  0  0  0  0  0  0  0  0
   12.8163    2.7804   22.7425 C   0  0  0  0  0  0  0  0  0  0  0  0
   13.7700    1.8210   22.7467 F   0  0  0  0  0  0  0  0  0  0  0  0
    9.7770    5.7765   22.7252 C   0  0  0  0  0  0  0  0  0  0  0  0
    9.4554    6.3181   24.0911 C   0  0  0  0  0  0  0  0  0  0  0  0
    8.3898    7.3133   23.9841 N   0  0  0  0  0  0  0  0  0  0  0  0
    7.2201    6.8300   23.2534 C   0  0  0  0  0  0  0  0  0  0  0  0
    7.6417    6.2577   21.9328 C   0  0  0  0  0  0  0  0  0  0  0  0
    8.6242    5.2472   22.0867 O   0  0  0  0  0  0  0  0  0  0  0  0
    8.4718    8.5451   24.5476 C   0  0  0  0  0  0  0  0  0  0  0  0
    7.3052    9.4754   24.3866 C   0  0  0  0  0  0  0  0  0  0  0  0
    9.4657    8.8851   25.1797 O   0  0  0  0  0  0  0  0  0  0  0  0
  2  1  1  0
  2  3  1  0
  3  4  1  0
  4  5  2  0
  5  6  1  0
  6  7  2  0
  7  8  1  0
  8  9  2  0
  9 10  1  0
  2 11  1  0
 11 12  1  0
 12 13  1  0
 13 14  2  0
 14 15  1  0
 15 16  2  0
 16 17  1  0
 17 18  2  0
 18 19  1  0
 20 15  1  0
 20 21  1  0
 21 22  1  0
 22 23  1  0
 23 24  1  0
 24 25  1  0
 22 26  1  0
 26 27  1  0
 26 28  2  0
  9  4  1  0
 18 13  1  0
 25 20  1  0
M  END
