CVD-0000687|dock_bobby27042020.55|mol2|14|dock1
     RDKit          3D

 27 29  0  0  0  0  0  0  0  0999 V2000
    8.3303    4.2502   21.7598 O   0  0  0  0  0  0  0  0  0  0  0  0
    8.8429    3.1380   21.8227 C   0  0  0  0  0  0  0  0  0  0  0  0
   10.1488    2.9112   22.1967 N   0  0  0  0  0  0  0  0  0  0  0  0
   11.1754    3.8121   22.5794 C   0  0  0  0  0  0  0  0  0  0  0  0
   12.4884    3.4390   22.3144 C   0  0  0  0  0  0  0  0  0  0  0  0
   13.5415    4.2686   22.6601 C   0  0  0  0  0  0  0  0  0  0  0  0
   13.3002    5.4778   23.2729 C   0  0  0  0  0  0  0  0  0  0  0  0
   12.0042    5.8595   23.5410 C   0  0  0  0  0  0  0  0  0  0  0  0
   10.9422    5.0380   23.1999 C   0  0  0  0  0  0  0  0  0  0  0  0
    8.1942    1.9581   21.5307 N   0  0  0  0  0  0  0  0  0  0  0  0
    6.8514    1.7399   21.1088 C   0  0  0  0  0  0  0  0  0  0  0  0
    5.7871    2.6084   21.3558 C   0  0  0  0  0  0  0  0  0  0  0  0
    4.5325    2.3875   20.9506 N   0  0  0  0  0  0  0  0  0  0  0  0
    4.2868    1.2708   20.2710 C   0  0  0  0  0  0  0  0  0  0  0  0
    5.2581    0.3425   19.9704 C   0  0  0  0  0  0  0  0  0  0  0  0
    6.5654    0.5650   20.3891 C   0  0  0  0  0  0  0  0  0  0  0  0
    7.5954   -0.4847   20.0293 C   0  0  0  0  0  0  0  0  0  0  0  0
    7.8942   -1.4269   21.1816 C   0  0  0  0  0  0  0  0  0  0  0  0
    9.3236   -1.6519   21.3418 N   0  0  0  0  0  0  0  0  0  0  0  0
    9.8458   -1.7851   22.5747 C   0  0  0  0  0  0  0  0  0  0  0  0
    9.1075   -1.7314   23.5509 O   0  0  0  0  0  0  0  0  0  0  0  0
   11.1886   -1.9784   22.7486 N   0  0  0  0  0  0  0  0  0  0  0  0
   12.2323   -1.6663   21.7704 C   0  0  0  0  0  0  0  0  0  0  0  0
   13.2505   -0.7160   22.3653 C   0  0  0  0  0  0  0  0  0  0  0  0
   13.8293   -1.2788   23.6629 C   0  0  0  0  0  0  0  0  0  0  0  0
   12.7125   -1.6371   24.6281 C   0  0  0  0  0  0  0  0  0  0  0  0
   11.7095   -2.5691   23.9869 C   0  0  0  0  0  0  0  0  0  0  0  0
  1  2  2  0
  2  3  1  0
  3  4  1  0
  4  5  2  0
  5  6  1  0
  6  7  2  0
  7  8  1  0
  8  9  2  0
  2 10  1  0
 10 11  1  0
 11 12  2  0
 12 13  1  0
 13 14  2  0
 14 15  1  0
 15 16  2  0
 16 17  1  0
 17 18  1  0
 18 19  1  0
 19 20  1  0
 20 21  2  0
 20 22  1  0
 22 23  1  0
 23 24  1  0
 24 25  1  0
 25 26  1  0
 26 27  1  0
  9  4  1  0
 16 11  1  0
 27 22  1  0
M  END
