CVD-0003451|dock_bobby27042020.59|mol2|41|dock2
     RDKit          3D

 20 22  0  0  0  0  0  0  0  0999 V2000
    8.9427   -0.3651   17.4375 F   0  0  0  0  0  0  0  0  0  0  0  0
    7.8431   -0.0342   18.1277 C   0  0  0  0  0  0  0  0  0  0  0  0
    6.9546    0.5835   17.3920 N   0  0  0  0  0  0  0  0  0  0  0  0
    5.7809    0.9054   17.9473 C   0  0  0  0  0  0  0  0  0  0  0  0
    5.4881    0.6187   19.2726 C   0  0  0  0  0  0  0  0  0  0  0  0
    4.4026    0.8095   20.0927 N   0  0  0  0  0  0  0  0  0  0  0  0
    4.7335    0.3095   21.3005 C   0  0  0  0  0  0  0  0  0  0  0  0
    5.9468   -0.1985   21.3541 N   0  0  0  0  0  0  0  0  0  0  0  0
    6.4427   -0.0128   20.0723 C   0  0  0  0  0  0  0  0  0  0  0  0
    7.6913   -0.3491   19.5091 C   0  0  0  0  0  0  0  0  0  0  0  0
    8.6283   -0.9660   20.4100 N   0  0  0  0  0  0  0  0  0  0  0  0
    8.6034   -1.0367   21.7646 C   0  0  0  0  0  0  0  0  0  0  0  0
    7.7485   -0.5725   22.5092 O   0  0  0  0  0  0  0  0  0  0  0  0
    9.7875   -1.7848   22.3357 C   0  0  0  0  0  0  0  0  0  0  0  0
   11.1095   -1.0207   22.2143 C   0  0  0  0  0  0  0  0  0  0  0  0
   11.0399    0.3337   22.9492 C   0  0  0  0  0  0  0  0  0  0  0  0
   12.3675    1.0881   22.9081 C   0  0  0  0  0  0  0  0  0  0  0  0
   13.5100    0.2294   23.4350 C   0  0  0  0  0  0  0  0  0  0  0  0
   13.5945   -1.0924   22.6854 C   0  0  0  0  0  0  0  0  0  0  0  0
   12.2772   -1.8571   22.7650 C   0  0  0  0  0  0  0  0  0  0  0  0
  1  2  1  0
  2  3  2  0
  3  4  1  0
  4  5  2  0
  5  6  1  0
  6  7  1  0
  7  8  2  0
  8  9  1  0
  9 10  2  0
 10 11  1  0
 11 12  1  0
 12 13  2  0
 12 14  1  0
 14 15  1  0
 15 16  1  0
 16 17  1  0
 17 18  1  0
 18 19  1  0
 19 20  1  0
 10  2  1  0
 20 15  1  0
  9  5  1  0
M  END
