CVD-0000911|dock_bobby27042020.40|mol2|7|dock3
     RDKit          3D

 17 18  0  0  0  0  0  0  0  0999 V2000
    9.3710   -3.0306   23.5231 C   0  0  0  0  0  0  0  0  0  0  0  0
    9.1313   -1.9559   22.4707 C   0  0  0  0  0  0  0  0  0  0  0  0
   10.4169   -1.5265   21.9433 N   0  0  0  0  0  0  0  0  0  0  0  0
   11.2946   -0.8711   22.7059 C   0  0  0  0  0  0  0  0  0  0  0  0
   11.0938   -0.5915   23.8838 O   0  0  0  0  0  0  0  0  0  0  0  0
   12.5817   -0.5000   22.0028 C   0  0  0  0  0  0  0  0  0  0  0  0
   13.7008   -1.8637   21.8800 Cl  0  0  0  0  0  0  0  0  0  0  0  0
    8.2141   -2.3725   21.3440 C   0  0  0  0  0  0  0  0  0  0  0  0
    7.6169   -3.5723   21.2736 C   0  0  0  0  0  0  0  0  0  0  0  0
    6.7596   -3.8956   20.1917 C   0  0  0  0  0  0  0  0  0  0  0  0
    6.3808   -5.5649   19.9258 Cl  0  0  0  0  0  0  0  0  0  0  0  0
    6.2378   -2.9506   19.3899 C   0  0  0  0  0  0  0  0  0  0  0  0
    6.5523   -1.5107   19.6603 C   0  0  0  0  0  0  0  0  0  0  0  0
    6.7219   -0.4854   18.5295 C   0  0  0  0  0  0  0  0  0  0  0  0
    7.3616    0.6409   19.2478 N   0  0  0  0  0  0  0  0  0  0  0  0
    7.9200    0.1074   20.5109 C   0  0  0  0  0  0  0  0  0  0  0  0
    7.9705   -1.3912   20.2237 C   0  0  0  0  0  0  0  0  0  0  0  0
  1  2  1  0
  2  3  1  0
  3  4  1  0
  4  5  2  0
  4  6  1  0
  6  7  1  0
  2  8  1  0
  8  9  2  0
  9 10  1  0
 10 11  1  0
 10 12  2  0
 12 13  1  0
 13 14  1  0
 14 15  1  0
 15 16  1  0
 16 17  1  0
 17  8  1  0
 17 13  1  0
M  END
