CVD-0002026|dock_bobby27042020.79|mol2|9|dock3
     RDKit          3D

 34 38  0  0  0  0  0  0  0  0999 V2000
   13.6466    5.4666   21.8619 C   0  0  0  0  0  0  0  0  0  0  0  0
   12.8462    4.8285   22.9591 C   0  0  0  0  0  0  0  0  0  0  0  0
   13.3502    4.5182   24.0340 O   0  0  0  0  0  0  0  0  0  0  0  0
   11.5484    4.6336   22.7020 N   0  0  0  0  0  0  0  0  0  0  0  0
   10.6445    4.0364   23.6771 C   0  0  0  0  0  0  0  0  0  0  0  0
    9.6156    5.0877   24.0744 C   0  0  0  0  0  0  0  0  0  0  0  0
    9.5733    5.5604   25.4964 C   0  0  0  0  0  0  0  0  0  0  0  0
    8.5585    5.3813   26.3896 C   0  0  0  0  0  0  0  0  0  0  0  0
    8.8753    5.9529   27.5917 N   0  0  0  0  0  0  0  0  0  0  0  0
   10.1213    6.5228   27.4976 C   0  0  0  0  0  0  0  0  0  0  0  0
   10.8821    7.2162   28.4323 C   0  0  0  0  0  0  0  0  0  0  0  0
   12.1285    7.6910   28.0631 C   0  0  0  0  0  0  0  0  0  0  0  0
   12.5709    7.4614   26.7867 C   0  0  0  0  0  0  0  0  0  0  0  0
   13.7977    7.9339   26.4370 F   0  0  0  0  0  0  0  0  0  0  0  0
   11.8494    6.7809   25.8348 C   0  0  0  0  0  0  0  0  0  0  0  0
   10.5919    6.2956   26.1906 C   0  0  0  0  0  0  0  0  0  0  0  0
   10.0193    2.8188   23.1615 N   0  0  0  0  0  0  0  0  0  0  0  0
    9.4636    2.0025   24.2533 C   0  0  0  0  0  0  0  0  0  0  0  0
    8.7791    0.7753   23.7098 C   0  0  0  0  0  0  0  0  0  0  0  0
    9.7039   -0.0126   22.8891 N   0  0  0  0  0  0  0  0  0  0  0  0
   10.3316    0.7812   21.8345 C   0  0  0  0  0  0  0  0  0  0  0  0
   10.9918    1.9973   22.4395 C   0  0  0  0  0  0  0  0  0  0  0  0
    9.8851   -1.3471   22.9507 C   0  0  0  0  0  0  0  0  0  0  0  0
   10.6889   -1.9262   22.2309 O   0  0  0  0  0  0  0  0  0  0  0  0
    9.0539   -2.1143   23.9634 C   0  0  0  0  0  0  0  0  0  0  0  0
    9.2129   -3.6025   23.8712 C   0  0  0  0  0  0  0  0  0  0  0  0
   10.2178   -4.3583   24.3999 C   0  0  0  0  0  0  0  0  0  0  0  0
   10.0272   -5.6833   24.1107 N   0  0  0  0  0  0  0  0  0  0  0  0
    8.8817   -5.8083   23.3810 C   0  0  0  0  0  0  0  0  0  0  0  0
    8.3417   -6.9405   22.8990 N   0  0  0  0  0  0  0  0  0  0  0  0
    7.2023   -6.8056   22.2064 C   0  0  0  0  0  0  0  0  0  0  0  0
    6.5820   -5.5964   21.9756 C   0  0  0  0  0  0  0  0  0  0  0  0
    7.1526   -4.4384   22.4800 C   0  0  0  0  0  0  0  0  0  0  0  0
    8.3379   -4.5245   23.2073 C   0  0  0  0  0  0  0  0  0  0  0  0
  1  2  1  0
  2  3  2  0
  2  4  1  0
  4  5  1  0
  5  6  1  0
  6  7  1  0
  7  8  2  0
  8  9  1  0
  9 10  1  0
 10 11  2  0
 11 12  1  0
 12 13  2  0
 13 14  1  0
 13 15  1  0
 15 16  2  0
  5 17  1  0
 17 18  1  0
 18 19  1  0
 19 20  1  0
 20 21  1  0
 21 22  1  0
 20 23  1  0
 23 24  2  0
 23 25  1  0
 25 26  1  0
 26 27  2  0
 27 28  1  0
 28 29  1  0
 29 30  2  0
 30 31  1  0
 31 32  2  0
 32 33  1  0
 33 34  2  0
 16  7  1  0
 22 17  1  0
 34 26  1  0
 16 10  1  0
 34 29  1  0
M  END
