CVD-0002900|dock_bobby27042020.32|mol2|38|dock1
     RDKit          3D

 24 27  0  0  0  0  0  0  0  0999 V2000
    6.1327   -2.2801   18.8624 C   0  0  0  0  0  0  0  0  0  0  0  0
    6.6191   -1.5443   20.0281 N   0  0  0  0  0  0  0  0  0  0  0  0
    6.8702   -0.1423   19.6813 C   0  0  0  0  0  0  0  0  0  0  0  0
    7.3355    0.6261   20.9042 C   0  0  0  0  0  0  0  0  0  0  0  0
    8.5461    0.0179   21.4604 N   0  0  0  0  0  0  0  0  0  0  0  0
    8.3452   -1.4027   21.7627 C   0  0  0  0  0  0  0  0  0  0  0  0
    7.8549   -2.1398   20.5297 C   0  0  0  0  0  0  0  0  0  0  0  0
    9.6822    0.7168   21.6822 C   0  0  0  0  0  0  0  0  0  0  0  0
    9.7354    1.8736   21.3104 O   0  0  0  0  0  0  0  0  0  0  0  0
   10.8929    0.0817   22.3940 C   0  0  0  0  0  0  0  0  0  0  0  0
   11.6472   -0.8503   21.4327 C   0  0  0  0  0  0  0  0  0  0  0  0
   12.8801   -1.4803   22.0521 C   0  0  0  0  0  0  0  0  0  0  0  0
   13.8465   -0.4335   22.5587 C   0  0  0  0  0  0  0  0  0  0  0  0
   13.1498    0.5352   23.4925 C   0  0  0  0  0  0  0  0  0  0  0  0
   11.9197    1.1308   22.8453 C   0  0  0  0  0  0  0  0  0  0  0  0
   10.4534   -0.6951   23.6256 C   0  0  0  0  0  0  0  0  0  0  0  0
   10.4731   -2.0471   23.8333 C   0  0  0  0  0  0  0  0  0  0  0  0
    9.9918   -2.3526   25.0784 N   0  0  0  0  0  0  0  0  0  0  0  0
    9.6464   -1.1946   25.7105 C   0  0  0  0  0  0  0  0  0  0  0  0
    9.1354   -1.0646   26.9466 N   0  0  0  0  0  0  0  0  0  0  0  0
    8.8747    0.1855   27.3524 C   0  0  0  0  0  0  0  0  0  0  0  0
    9.1010    1.3058   26.5819 C   0  0  0  0  0  0  0  0  0  0  0  0
    9.6286    1.1538   25.3093 C   0  0  0  0  0  0  0  0  0  0  0  0
    9.9175   -0.1258   24.8393 C   0  0  0  0  0  0  0  0  0  0  0  0
  1  2  1  0
  2  3  1  0
  3  4  1  0
  4  5  1  0
  5  6  1  0
  6  7  1  0
  5  8  1  0
  8  9  2  0
  8 10  1  0
 10 11  1  0
 11 12  1  0
 12 13  1  0
 13 14  1  0
 14 15  1  0
 10 16  1  0
 16 17  2  0
 17 18  1  0
 18 19  1  0
 19 20  2  0
 20 21  1  0
 21 22  2  0
 22 23  1  0
 23 24  2  0
  7  2  1  0
 15 10  1  0
 24 16  1  0
 24 19  1  0
M  END
