CVD-0001185|dock_bobby27042020.96|mol2|11|dock2
     RDKit          3D

 17 19  0  0  0  0  0  0  0  0999 V2000
    8.7588    0.0357   22.3230 O   0  0  0  0  0  0  0  0  0  0  0  0
    9.2634   -0.5304   21.3577 C   0  0  0  0  0  0  0  0  0  0  0  0
   10.5099   -1.0484   21.4142 N   0  0  0  0  0  0  0  0  0  0  0  0
   11.3767   -0.9026   22.5833 C   0  0  0  0  0  0  0  0  0  0  0  0
   11.8043    0.5621   22.7508 C   0  0  0  0  0  0  0  0  0  0  0  0
   12.7222    0.6823   23.9835 C   0  0  0  0  0  0  0  0  0  0  0  0
   13.7318   -0.4254   24.1146 C   0  0  0  0  0  0  0  0  0  0  0  0
   14.6188   -0.6833   23.0038 O   0  0  0  0  0  0  0  0  0  0  0  0
   13.6344   -1.6894   23.3774 C   0  0  0  0  0  0  0  0  0  0  0  0
   12.4954   -1.9484   22.4128 C   0  0  0  0  0  0  0  0  0  0  0  0
    8.6678   -0.7146   20.1339 N   0  0  0  0  0  0  0  0  0  0  0  0
    7.3860   -0.3285   19.6696 C   0  0  0  0  0  0  0  0  0  0  0  0
    6.3204   -0.0061   20.5040 C   0  0  0  0  0  0  0  0  0  0  0  0
    5.1085    0.3588   19.9433 C   0  0  0  0  0  0  0  0  0  0  0  0
    4.9939    0.3918   18.5726 C   0  0  0  0  0  0  0  0  0  0  0  0
    5.9963    0.0884   17.7483 N   0  0  0  0  0  0  0  0  0  0  0  0
    7.1619   -0.2625   18.2992 C   0  0  0  0  0  0  0  0  0  0  0  0
  1  2  2  0
  2  3  1  0
  4  3  1  0
  4  5  1  0
  5  6  1  0
  7  6  1  0
  7  8  1  0
  8  9  1  0
  9 10  1  0
  2 11  1  0
 11 12  1  0
 12 13  2  0
 13 14  1  0
 14 15  2  0
 15 16  1  0
 16 17  2  0
 10  4  1  0
 17 12  1  0
  9  7  1  0
M  END
