CVD-0001602|dock_bobby27042020.23|mol2|23|dock3
     RDKit          3D

 18 19  0  0  0  0  0  0  0  0999 V2000
   13.0506   -0.6469   23.7508 C   0  0  0  0  0  0  0  0  0  0  0  0
   12.0081   -1.4493   23.0280 C   0  0  0  0  0  0  0  0  0  0  0  0
   12.1045   -2.6691   22.9530 O   0  0  0  0  0  0  0  0  0  0  0  0
   10.9584   -0.8175   22.4407 N   0  0  0  0  0  0  0  0  0  0  0  0
   10.7187    0.6244   22.4530 C   0  0  0  0  0  0  0  0  0  0  0  0
    9.3219    0.9196   22.9563 C   0  0  0  0  0  0  0  0  0  0  0  0
    8.3374    0.1799   22.1696 N   0  0  0  0  0  0  0  0  0  0  0  0
    8.5771   -1.2620   22.1574 C   0  0  0  0  0  0  0  0  0  0  0  0
    9.9738   -1.5572   21.6540 C   0  0  0  0  0  0  0  0  0  0  0  0
    7.2763    0.8185   21.5760 C   0  0  0  0  0  0  0  0  0  0  0  0
    6.9646    1.9171   22.0078 O   0  0  0  0  0  0  0  0  0  0  0  0
    6.5469    0.3002   20.5328 N   0  0  0  0  0  0  0  0  0  0  0  0
    5.2110    0.8542   20.2974 C   0  0  0  0  0  0  0  0  0  0  0  0
    4.5806    0.5613   18.9490 C   0  0  0  0  0  0  0  0  0  0  0  0
    5.3878    1.1356   17.8106 C   0  0  0  0  0  0  0  0  0  0  0  0
    6.4671    0.3264   17.3502 O   0  0  0  0  0  0  0  0  0  0  0  0
    7.5261    0.0436   18.2599 C   0  0  0  0  0  0  0  0  0  0  0  0
    7.0801   -0.6294   19.5340 C   0  0  0  0  0  0  0  0  0  0  0  0
  1  2  1  0
  2  3  2  0
  2  4  1  0
  4  5  1  0
  5  6  1  0
  6  7  1  0
  7  8  1  0
  8  9  1  0
  7 10  1  0
 10 11  2  0
 10 12  1  0
 12 13  1  0
 13 14  1  0
 14 15  1  0
 15 16  1  0
 16 17  1  0
 17 18  1  0
  9  4  1  0
 18 12  1  0
M  END
