CVD-0002819|dock_bobby27042020.33|mol2|2|dock1
     RDKit          3D

 19 21  0  0  0  0  0  0  0  0999 V2000
    9.7595    1.6402   23.8513 O   0  0  0  0  0  0  0  0  0  0  0  0
    9.4866    0.7680   22.8030 C   0  0  0  0  0  0  0  0  0  0  0  0
    8.3318    1.1969   21.9120 C   0  0  0  0  0  0  0  0  0  0  0  0
    8.1272    0.1764   20.7890 C   0  0  0  0  0  0  0  0  0  0  0  0
    7.9671   -1.2210   21.4126 C   0  0  0  0  0  0  0  0  0  0  0  0
    9.1143   -1.5543   22.3657 C   0  0  0  0  0  0  0  0  0  0  0  0
   10.3706   -1.7971   21.7541 N   0  0  0  0  0  0  0  0  0  0  0  0
   11.5709   -2.0209   22.4281 C   0  0  0  0  0  0  0  0  0  0  0  0
   11.5896   -2.2580   23.7958 C   0  0  0  0  0  0  0  0  0  0  0  0
   12.8009   -2.4728   24.4296 C   0  0  0  0  0  0  0  0  0  0  0  0
   13.9534   -2.4432   23.6778 C   0  0  0  0  0  0  0  0  0  0  0  0
   13.9653   -2.2189   22.3631 N   0  0  0  0  0  0  0  0  0  0  0  0
   12.7906   -2.0156   21.7593 C   0  0  0  0  0  0  0  0  0  0  0  0
    9.2316   -0.5281   23.3712 O   0  0  0  0  0  0  0  0  0  0  0  0
    6.9931    0.4943   19.8656 C   0  0  0  0  0  0  0  0  0  0  0  0
    5.6652    0.8035   20.2807 C   0  0  0  0  0  0  0  0  0  0  0  0
    4.8041    1.0521   19.2546 C   0  0  0  0  0  0  0  0  0  0  0  0
    5.6154    0.9084   17.7693 S   0  0  0  0  0  0  0  0  0  0  0  0
    7.0963    0.5161   18.5061 C   0  0  0  0  0  0  0  0  0  0  0  0
  2  1  1  0
  2  3  1  0
  3  4  1  0
  4  5  1  0
  5  6  1  0
  6  7  1  0
  7  8  1  0
  8  9  2  0
  9 10  1  0
 10 11  2  0
 11 12  1  0
 12 13  2  0
  6 14  1  0
  4 15  1  0
 15 16  1  0
 16 17  2  0
 17 18  1  0
 18 19  1  0
 14  2  1  0
 19 15  2  0
 13  8  1  0
M  END
