CVD-0002213|dock_bobby27042020.64|mol2|15|dock3
     RDKit          3D

 22 24  0  0  0  0  0  0  0  0999 V2000
   13.8253   -1.9597   22.7614 C   0  0  0  0  0  0  0  0  0  0  0  0
   12.3489   -1.7829   22.9330 C   0  0  0  0  0  0  0  0  0  0  0  0
   11.7936   -0.9193   21.9044 N   0  0  0  0  0  0  0  0  0  0  0  0
   11.5033    0.3748   22.1192 C   0  0  0  0  0  0  0  0  0  0  0  0
   12.5485    1.2234   22.1865 N   0  0  0  0  0  0  0  0  0  0  0  0
   12.2923    2.5188   22.3995 C   0  0  0  0  0  0  0  0  0  0  0  0
   11.0106    3.0334   22.5536 C   0  0  0  0  0  0  0  0  0  0  0  0
    9.9409    2.1487   22.4815 C   0  0  0  0  0  0  0  0  0  0  0  0
   10.1644    0.7945   22.2626 C   0  0  0  0  0  0  0  0  0  0  0  0
    8.9801   -0.1524   22.1831 C   0  0  0  0  0  0  0  0  0  0  0  0
    8.0802    0.0770   20.9858 C   0  0  0  0  0  0  0  0  0  0  0  0
    8.3438   -0.5378   19.7673 C   0  0  0  0  0  0  0  0  0  0  0  0
    7.5250   -0.3373   18.6656 C   0  0  0  0  0  0  0  0  0  0  0  0
    6.4162    0.4947   18.7758 C   0  0  0  0  0  0  0  0  0  0  0  0
    5.3765    0.8868   17.7659 C   0  0  0  0  0  0  0  0  0  0  0  0
    4.5268    1.7550   18.5528 N   0  0  0  0  0  0  0  0  0  0  0  0
    4.9250    1.9250   19.8281 C   0  0  0  0  0  0  0  0  0  0  0  0
    4.1392    2.8585   20.9551 S   0  0  0  0  0  0  0  0  0  0  0  0
    6.1480    1.1096   19.9852 C   0  0  0  0  0  0  0  0  0  0  0  0
    6.9699    0.9081   21.0907 C   0  0  0  0  0  0  0  0  0  0  0  0
   10.7914    4.4405   22.7813 C   0  0  0  0  0  0  0  0  0  0  0  0
   10.6305    5.5613   22.9315 N   0  0  0  0  0  0  0  0  0  0  0  0
  1  2  1  0
  2  3  1  0
  3  4  1  0
  4  5  2  0
  5  6  1  0
  6  7  2  0
  7  8  1  0
  8  9  2  0
  9 10  1  0
 10 11  1  0
 11 12  2  0
 12 13  1  0
 13 14  2  0
 14 15  1  0
 15 16  1  0
 16 17  1  0
 17 18  2  0
 17 19  1  0
 19 20  2  0
  7 21  1  0
 21 22  3  0
  9  4  1  0
 20 11  1  0
 19 14  1  0
M  END
