CVD-0003519|dock_bobby27042020.87|mol2|37|dock3
     RDKit          3D

 28 30  0  0  0  0  0  0  0  0999 V2000
    6.4618   -6.4441   28.9058 Cl  0  0  0  0  0  0  0  0  0  0  0  0
    7.6452   -5.6899   27.8298 C   0  0  0  0  0  0  0  0  0  0  0  0
    7.2884   -5.9229   26.3749 C   0  0  0  0  0  0  0  0  0  0  0  0
    6.2795   -6.5372   26.0518 O   0  0  0  0  0  0  0  0  0  0  0  0
    8.1430   -5.4217   25.4605 N   0  0  0  0  0  0  0  0  0  0  0  0
    7.9338   -5.5613   24.0177 C   0  0  0  0  0  0  0  0  0  0  0  0
    7.9746   -4.2031   23.3423 C   0  0  0  0  0  0  0  0  0  0  0  0
    9.2565   -3.5432   23.6067 N   0  0  0  0  0  0  0  0  0  0  0  0
    9.3169   -2.2438   22.9217 C   0  0  0  0  0  0  0  0  0  0  0  0
   10.6853   -1.6055   22.9790 C   0  0  0  0  0  0  0  0  0  0  0  0
   11.8024   -2.3969   23.2270 C   0  0  0  0  0  0  0  0  0  0  0  0
   13.0599   -1.8328   23.2803 C   0  0  0  0  0  0  0  0  0  0  0  0
   14.4395   -2.8483   23.5929 Cl  0  0  0  0  0  0  0  0  0  0  0  0
   13.2413   -0.4818   23.0905 C   0  0  0  0  0  0  0  0  0  0  0  0
   12.1344    0.3087   22.8431 C   0  0  0  0  0  0  0  0  0  0  0  0
   10.8514   -0.2289   22.7819 C   0  0  0  0  0  0  0  0  0  0  0  0
    9.6719    0.6728   22.5129 C   0  0  0  0  0  0  0  0  0  0  0  0
    8.9624    0.3435   21.2854 N   0  0  0  0  0  0  0  0  0  0  0  0
    7.7316    0.8384   21.0607 C   0  0  0  0  0  0  0  0  0  0  0  0
    7.2115    1.6111   21.8563 O   0  0  0  0  0  0  0  0  0  0  0  0
    7.0626    0.4698   19.9309 N   0  0  0  0  0  0  0  0  0  0  0  0
    5.9403    1.2404   19.3829 C   0  0  0  0  0  0  0  0  0  0  0  0
    4.8020    0.3078   19.0216 C   0  0  0  0  0  0  0  0  0  0  0  0
    5.2140   -0.7068   18.1282 O   0  0  0  0  0  0  0  0  0  0  0  0
    6.2561   -1.4863   18.7158 C   0  0  0  0  0  0  0  0  0  0  0  0
    7.4592   -0.6321   19.0489 C   0  0  0  0  0  0  0  0  0  0  0  0
    9.4147   -3.3694   25.0483 C   0  0  0  0  0  0  0  0  0  0  0  0
    9.3905   -4.7110   25.7576 C   0  0  0  0  0  0  0  0  0  0  0  0
  1  2  1  0
  2  3  1  0
  3  4  2  0
  3  5  1  0
  5  6  1  0
  6  7  1  0
  7  8  1  0
  8  9  1  0
  9 10  1  0
 10 11  2  0
 11 12  1  0
 12 13  1  0
 12 14  2  0
 14 15  1  0
 15 16  2  0
 16 17  1  0
 17 18  1  0
 18 19  1  0
 19 20  2  0
 19 21  1  0
 21 22  1  0
 22 23  1  0
 23 24  1  0
 24 25  1  0
 25 26  1  0
  8 27  1  0
 27 28  1  0
 28  5  1  0
 16 10  1  0
 26 21  1  0
M  END
