CVD-0003215|dock_bobby27042020.46|mol2|4|dock2
     RDKit          3D

 32 35  0  0  0  0  0  0  0  0999 V2000
    3.8291    3.0839   18.4570 F   0  0  0  0  0  0  0  0  0  0  0  0
    4.6251    2.0138   18.2390 C   0  0  0  0  0  0  0  0  0  0  0  0
    5.7266    1.9296   17.4490 C   0  0  0  0  0  0  0  0  0  0  0  0
    6.2270    0.6592   17.5208 O   0  0  0  0  0  0  0  0  0  0  0  0
    5.4084   -0.0325   18.3715 C   0  0  0  0  0  0  0  0  0  0  0  0
    5.7610   -1.4542   18.6067 C   0  0  0  0  0  0  0  0  0  0  0  0
    6.3007   -1.6862   19.9504 N   0  0  0  0  0  0  0  0  0  0  0  0
    6.0972   -2.9229   20.5042 C   0  0  0  0  0  0  0  0  0  0  0  0
    5.4868   -3.8128   19.9249 O   0  0  0  0  0  0  0  0  0  0  0  0
    6.6531   -3.2207   21.8852 C   0  0  0  0  0  0  0  0  0  0  0  0
    6.2091   -4.5676   22.4096 C   0  0  0  0  0  0  0  0  0  0  0  0
    6.7938   -5.7425   21.9674 C   0  0  0  0  0  0  0  0  0  0  0  0
    6.3646   -6.9576   22.4717 C   0  0  0  0  0  0  0  0  0  0  0  0
    5.3573   -6.9579   23.4096 C   0  0  0  0  0  0  0  0  0  0  0  0
    4.7756   -5.8437   23.8560 N   0  0  0  0  0  0  0  0  0  0  0  0
    5.2070   -4.6823   23.3545 C   0  0  0  0  0  0  0  0  0  0  0  0
    7.0313   -0.6220   20.5945 C   0  0  0  0  0  0  0  0  0  0  0  0
    6.3746    0.4475   21.1926 C   0  0  0  0  0  0  0  0  0  0  0  0
    7.0798    1.4685   21.8037 C   0  0  0  0  0  0  0  0  0  0  0  0
    8.4673    1.4542   21.8536 C   0  0  0  0  0  0  0  0  0  0  0  0
    9.1121    2.5379   22.5044 N   0  0  0  0  0  0  0  0  0  0  0  0
   10.3805    3.0212   22.3824 C   0  0  0  0  0  0  0  0  0  0  0  0
   11.2188    2.5448   21.6247 O   0  0  0  0  0  0  0  0  0  0  0  0
   10.7977    4.2053   23.2144 C   0  0  0  0  0  0  0  0  0  0  0  0
    9.9303    5.2174   23.6276 C   0  0  0  0  0  0  0  0  0  0  0  0
   10.3894    6.2768   24.3929 C   0  0  0  0  0  0  0  0  0  0  0  0
   11.7144    6.3506   24.7609 C   0  0  0  0  0  0  0  0  0  0  0  0
   12.5856    5.3615   24.3629 C   0  0  0  0  0  0  0  0  0  0  0  0
   12.1331    4.2999   23.5979 C   0  0  0  0  0  0  0  0  0  0  0  0
    9.1297    0.3812   21.2637 C   0  0  0  0  0  0  0  0  0  0  0  0
    8.4209   -0.6316   20.6417 C   0  0  0  0  0  0  0  0  0  0  0  0
    4.4227    0.7572   18.8290 C   0  0  0  0  0  0  0  0  0  0  0  0
  1  2  1  0
  2  3  2  0
  3  4  1  0
  4  5  1  0
  5  6  1  0
  6  7  1  0
  7  8  1  0
  8  9  2  0
  8 10  1  0
 10 11  1  0
 11 12  2  0
 12 13  1  0
 13 14  2  0
 14 15  1  0
 15 16  2  0
  7 17  1  0
 17 18  2  0
 18 19  1  0
 19 20  2  0
 20 21  1  0
 21 22  1  0
 22 23  2  0
 22 24  1  0
 24 25  2  0
 25 26  1  0
 26 27  2  0
 27 28  1  0
 28 29  2  0
 20 30  1  0
 30 31  2  0
  5 32  2  0
 32  2  1  0
 16 11  1  0
 31 17  1  0
 29 24  1  0
M  END
