CVD-0000822|dock_bobby27042020.97|mol2|22|dock2
     RDKit          3D

 30 33  0  0  0  0  0  0  0  0999 V2000
    4.9225   -6.5420   22.8177 C   0  0  0  0  0  0  0  0  0  0  0  0
    6.0523   -6.6124   21.8236 C   0  0  0  0  0  0  0  0  0  0  0  0
    6.9914   -5.4238   21.8891 C   0  0  0  0  0  0  0  0  0  0  0  0
    6.9460   -4.4343   20.9138 C   0  0  0  0  0  0  0  0  0  0  0  0
    7.7991   -3.3434   20.9602 C   0  0  0  0  0  0  0  0  0  0  0  0
    7.7984   -2.3549   20.0108 O   0  0  0  0  0  0  0  0  0  0  0  0
    6.6061   -1.5644   19.7829 C   0  0  0  0  0  0  0  0  0  0  0  0
    6.5665   -1.0673   18.3689 C   0  0  0  0  0  0  0  0  0  0  0  0
    5.3117   -0.3345   17.9662 C   0  0  0  0  0  0  0  0  0  0  0  0
    5.2085    1.0971   18.4301 C   0  0  0  0  0  0  0  0  0  0  0  0
    5.2758    1.4206   19.8965 C   0  0  0  0  0  0  0  0  0  0  0  0
    5.2657    0.2961   20.8820 C   0  0  0  0  0  0  0  0  0  0  0  0
    6.4994   -0.5558   20.8784 C   0  0  0  0  0  0  0  0  0  0  0  0
    8.7123   -3.2211   22.0115 C   0  0  0  0  0  0  0  0  0  0  0  0
    9.6623   -2.2567   22.3256 N   0  0  0  0  0  0  0  0  0  0  0  0
    9.9562   -1.0101   21.6132 C   0  0  0  0  0  0  0  0  0  0  0  0
   11.3383   -0.4793   21.9088 C   0  0  0  0  0  0  0  0  0  0  0  0
   11.5415    0.8700   22.1530 C   0  0  0  0  0  0  0  0  0  0  0  0
   12.8088    1.3565   22.4272 C   0  0  0  0  0  0  0  0  0  0  0  0
   13.8871    0.4986   22.4614 C   0  0  0  0  0  0  0  0  0  0  0  0
   13.6984   -0.8455   22.2216 C   0  0  0  0  0  0  0  0  0  0  0  0
   12.4309   -1.3317   21.9474 C   0  0  0  0  0  0  0  0  0  0  0  0
   10.2789   -2.6382   23.4812 C   0  0  0  0  0  0  0  0  0  0  0  0
    9.7843   -3.8176   23.9350 C   0  0  0  0  0  0  0  0  0  0  0  0
   10.2022   -4.5745   25.1686 C   0  0  0  0  0  0  0  0  0  0  0  0
    9.1063   -4.7796   26.1217 N   0  0  0  0  0  0  0  0  0  0  0  0
    8.6932   -3.5054   26.6987 C   0  0  0  0  0  0  0  0  0  0  0  0
    9.5151   -5.6882   27.1870 C   0  0  0  0  0  0  0  0  0  0  0  0
    8.7672   -4.2126   23.0047 C   0  0  0  0  0  0  0  0  0  0  0  0
    7.9060   -5.3047   22.9273 C   0  0  0  0  0  0  0  0  0  0  0  0
  1  2  1  0
  2  3  1  0
  3  4  2  0
  4  5  1  0
  5  6  1  0
  6  7  1  0
  7  8  1  0
  8  9  1  0
  9 10  1  0
 10 11  1  0
 11 12  1  0
 12 13  1  0
  5 14  2  0
 14 15  1  0
 15 16  1  0
 16 17  1  0
 17 18  2  0
 18 19  1  0
 19 20  2  0
 20 21  1  0
 21 22  2  0
 15 23  1  0
 23 24  2  0
 24 25  1  0
 25 26  1  0
 26 27  1  0
 26 28  1  0
 24 29  1  0
 29 30  2  0
 30  3  1  0
 13  7  1  0
 29 14  1  0
 22 17  1  0
M  END
