CVD-0000565|dock_bobby27042020.55|mol2|32|dock1
     RDKit          3D

 22 24  0  0  0  0  0  0  0  0999 V2000
    6.9337   -5.7755   22.5719 C   0  0  0  0  0  0  0  0  0  0  0  0
    7.9839   -4.9575   23.2471 C   0  0  0  0  0  0  0  0  0  0  0  0
    8.7808   -5.4163   24.1878 N   0  0  0  0  0  0  0  0  0  0  0  0
    9.6296   -4.4298   24.6195 C   0  0  0  0  0  0  0  0  0  0  0  0
    9.5096   -3.2107   24.0398 C   0  0  0  0  0  0  0  0  0  0  0  0
   10.3078   -1.9738   24.3214 C   0  0  0  0  0  0  0  0  0  0  0  0
   11.3208   -1.4721   23.2630 C   0  0  0  0  0  0  0  0  0  0  0  0
   10.6366   -1.5007   21.8761 C   0  0  0  0  0  0  0  0  0  0  0  0
    9.2970   -0.8142   21.7010 C   0  0  0  0  0  0  0  0  0  0  0  0
    8.7240   -0.2599   22.6316 O   0  0  0  0  0  0  0  0  0  0  0  0
    8.8251   -0.8875   20.4328 N   0  0  0  0  0  0  0  0  0  0  0  0
    7.6332   -0.3904   19.8494 C   0  0  0  0  0  0  0  0  0  0  0  0
    6.4791   -0.0955   20.5683 C   0  0  0  0  0  0  0  0  0  0  0  0
    5.3684    0.3862   19.8971 C   0  0  0  0  0  0  0  0  0  0  0  0
    5.4396    0.5598   18.5341 C   0  0  0  0  0  0  0  0  0  0  0  0
    6.5307    0.2862   17.8190 N   0  0  0  0  0  0  0  0  0  0  0  0
    7.5973   -0.1782   18.4760 C   0  0  0  0  0  0  0  0  0  0  0  0
   12.5551   -2.4081   23.2414 C   0  0  0  0  0  0  0  0  0  0  0  0
   13.6811   -1.6601   23.7527 C   0  0  0  0  0  0  0  0  0  0  0  0
   13.2982   -0.2826   24.0294 C   0  0  0  0  0  0  0  0  0  0  0  0
   11.8836   -0.0888   23.6111 C   0  0  0  0  0  0  0  0  0  0  0  0
    8.2460   -3.2887   22.8619 S   0  0  0  0  0  0  0  0  0  0  0  0
  1  2  1  0
  2  3  2  0
  3  4  1  0
  4  5  2  0
  5  6  1  0
  6  7  1  0
  7  8  1  0
  8  9  1  0
  9 10  2  0
  9 11  1  0
 11 12  1  0
 12 13  2  0
 13 14  1  0
 14 15  2  0
 15 16  1  0
 16 17  2  0
  7 18  1  0
 18 19  1  0
 19 20  1  0
 20 21  1  0
  5 22  1  0
 22  2  1  0
 21  7  1  0
 17 12  1  0
M  END
