CVD-0002297|dock_bobby27042020.92|mol2|7|dock1
     RDKit          3D

 40 43  0  0  0  0  0  0  0  0999 V2000
    5.6018   -8.2156   28.8247 C   0  0  0  0  0  0  0  0  0  0  0  0
    6.5448   -7.1212   29.3001 C   0  0  0  0  0  0  0  0  0  0  0  0
    6.2204   -6.6611   30.7130 C   0  0  0  0  0  0  0  0  0  0  0  0
    6.5588   -5.9782   28.3541 N   0  0  0  0  0  0  0  0  0  0  0  0
    5.3754   -5.1226   28.3438 C   0  0  0  0  0  0  0  0  0  0  0  0
    7.6260   -5.7395   27.5542 C   0  0  0  0  0  0  0  0  0  0  0  0
    8.6194   -6.4404   27.5767 O   0  0  0  0  0  0  0  0  0  0  0  0
    7.5796   -4.5669   26.5940 C   0  0  0  0  0  0  0  0  0  0  0  0
    8.9647   -3.9596   26.4092 C   0  0  0  0  0  0  0  0  0  0  0  0
    8.9162   -2.8142   25.4191 C   0  0  0  0  0  0  0  0  0  0  0  0
    8.3813   -3.2807   24.1427 N   0  0  0  0  0  0  0  0  0  0  0  0
    7.0320   -3.8228   24.2611 C   0  0  0  0  0  0  0  0  0  0  0  0
    7.0246   -4.9944   25.2371 C   0  0  0  0  0  0  0  0  0  0  0  0
    8.8976   -3.0086   22.9265 C   0  0  0  0  0  0  0  0  0  0  0  0
    8.3808   -3.4404   21.9140 O   0  0  0  0  0  0  0  0  0  0  0  0
   10.1463   -2.1436   22.8404 C   0  0  0  0  0  0  0  0  0  0  0  0
   11.5687   -2.9565   23.5560 Cl  0  0  0  0  0  0  0  0  0  0  0  0
   10.4099   -1.6202   21.5445 N   0  0  0  0  0  0  0  0  0  0  0  0
    9.5621   -0.5432   21.0378 C   0  0  0  0  0  0  0  0  0  0  0  0
    9.8221    0.7713   21.7270 C   0  0  0  0  0  0  0  0  0  0  0  0
   11.0536    1.4494   21.7453 C   0  0  0  0  0  0  0  0  0  0  0  0
   10.9413    2.6146   22.4801 C   0  0  0  0  0  0  0  0  0  0  0  0
   12.0422    3.5804   22.7179 C   0  0  0  0  0  0  0  0  0  0  0  0
   12.7666    3.9862   21.5954 C   0  0  0  0  0  0  0  0  0  0  0  0
   13.7822    4.9217   21.6993 C   0  0  0  0  0  0  0  0  0  0  0  0
   14.1026    5.4688   22.9213 C   0  0  0  0  0  0  0  0  0  0  0  0
   13.4280    5.0613   24.0579 C   0  0  0  0  0  0  0  0  0  0  0  0
   12.4399    4.1131   23.9369 C   0  0  0  0  0  0  0  0  0  0  0  0
   11.8628    3.6930   25.0828 F   0  0  0  0  0  0  0  0  0  0  0  0
    9.5879    2.6714   22.9167 N   0  0  0  0  0  0  0  0  0  0  0  0
    8.9266    1.5394   22.4562 C   0  0  0  0  0  0  0  0  0  0  0  0
    8.7131    3.8110   23.8201 S   0  0  0  0  0  0  0  0  0  0  0  0
    9.6225    4.4238   24.7377 O   0  0  0  0  0  0  0  0  0  0  0  0
    7.5909    3.0889   24.3340 O   0  0  0  0  0  0  0  0  0  0  0  0
    8.0906    5.0037   22.6858 C   0  0  0  0  0  0  0  0  0  0  0  0
    6.7323    5.0851   22.4305 C   0  0  0  0  0  0  0  0  0  0  0  0
    6.2856    6.0408   21.5343 C   0  0  0  0  0  0  0  0  0  0  0  0
    7.2073    6.8696   20.9357 C   0  0  0  0  0  0  0  0  0  0  0  0
    8.5181    6.8035   21.1732 N   0  0  0  0  0  0  0  0  0  0  0  0
    8.9427    5.8789   22.0395 C   0  0  0  0  0  0  0  0  0  0  0  0
  1  2  1  0
  2  3  1  0
  2  4  1  0
  4  5  1  0
  4  6  1  0
  6  7  2  0
  6  8  1  0
  8  9  1  0
  9 10  1  0
 10 11  1  0
 11 12  1  0
 12 13  1  0
 11 14  1  0
 14 15  2  0
 14 16  1  0
 16 17  1  0
 16 18  1  0
 18 19  1  0
 19 20  1  0
 20 21  1  0
 21 22  2  0
 22 23  1  0
 23 24  2  0
 24 25  1  0
 25 26  2  0
 26 27  1  0
 27 28  2  0
 28 29  1  0
 22 30  1  0
 30 31  1  0
 30 32  1  0
 32 33  2  0
 32 34  2  0
 32 35  1  0
 35 36  2  0
 36 37  1  0
 37 38  2  0
 38 39  1  0
 39 40  2  0
 13  8  1  0
 31 20  2  0
 40 35  1  0
 28 23  1  0
M  END
