CVD-0001236|dock_bobby27042020.67|mol2|42|dock3
     RDKit          3D

 20 22  0  0  0  0  0  0  0  0999 V2000
    4.5953    0.9599   20.8599 C   0  0  0  0  0  0  0  0  0  0  0  0
    5.4104    0.9714   19.5921 C   0  0  0  0  0  0  0  0  0  0  0  0
    4.9615    1.7395   18.5218 C   0  0  0  0  0  0  0  0  0  0  0  0
    5.6832    1.7669   17.3497 C   0  0  0  0  0  0  0  0  0  0  0  0
    6.8118    1.0853   17.1760 N   0  0  0  0  0  0  0  0  0  0  0  0
    7.2529    0.3436   18.1968 C   0  0  0  0  0  0  0  0  0  0  0  0
    6.6033    0.2411   19.4272 C   0  0  0  0  0  0  0  0  0  0  0  0
    7.0697   -0.5492   20.5149 N   0  0  0  0  0  0  0  0  0  0  0  0
    8.3335   -0.8576   20.8972 C   0  0  0  0  0  0  0  0  0  0  0  0
    9.3654   -0.4917   20.3450 O   0  0  0  0  0  0  0  0  0  0  0  0
    8.3990   -1.7511   22.1178 C   0  0  0  0  0  0  0  0  0  0  0  0
    9.7869   -1.7880   22.6597 C   0  0  0  0  0  0  0  0  0  0  0  0
   10.0868   -1.6360   23.9364 N   0  0  0  0  0  0  0  0  0  0  0  0
   11.4737   -1.7338   23.9886 C   0  0  0  0  0  0  0  0  0  0  0  0
   12.3499   -1.6548   25.0702 C   0  0  0  0  0  0  0  0  0  0  0  0
   13.7103   -1.7887   24.8362 C   0  0  0  0  0  0  0  0  0  0  0  0
   14.1988   -1.9964   23.5606 C   0  0  0  0  0  0  0  0  0  0  0  0
   13.3408   -2.0773   22.4753 C   0  0  0  0  0  0  0  0  0  0  0  0
   11.9773   -1.9434   22.7084 C   0  0  0  0  0  0  0  0  0  0  0  0
   10.8745   -1.9718   21.8766 N   0  0  0  0  0  0  0  0  0  0  0  0
  1  2  1  0
  2  3  2  0
  3  4  1  0
  4  5  2  0
  5  6  1  0
  6  7  2  0
  7  8  1  0
  8  9  1  0
  9 10  2  0
  9 11  1  0
 11 12  1  0
 12 13  2  0
 13 14  1  0
 14 15  2  0
 15 16  1  0
 16 17  2  0
 17 18  1  0
 18 19  2  0
 19 20  1  0
  7  2  1  0
 20 12  1  0
 19 14  1  0
M  END
