CVD-0002912|dock_bobby27042020.61|mol2|31|dock1
     RDKit          3D

 21 23  0  0  0  0  0  0  0  0999 V2000
   14.5891   -2.4663   25.7799 C   0  0  0  0  0  0  0  0  0  0  0  0
   13.8686   -1.7326   24.7409 N   0  0  0  0  0  0  0  0  0  0  0  0
   12.9094   -0.8119   25.3584 C   0  0  0  0  0  0  0  0  0  0  0  0
   12.1702   -0.0288   24.2894 C   0  0  0  0  0  0  0  0  0  0  0  0
   11.4797   -0.9396   23.3736 N   0  0  0  0  0  0  0  0  0  0  0  0
   12.4037   -1.9134   22.7840 C   0  0  0  0  0  0  0  0  0  0  0  0
   13.3611   -1.2488   21.8045 C   0  0  0  0  0  0  0  0  0  0  0  0
   13.5551   -2.0084   20.6179 O   0  0  0  0  0  0  0  0  0  0  0  0
   13.1475   -2.6619   23.8751 C   0  0  0  0  0  0  0  0  0  0  0  0
   10.1644   -0.8009   23.0733 C   0  0  0  0  0  0  0  0  0  0  0  0
    9.4850    0.0508   23.6325 O   0  0  0  0  0  0  0  0  0  0  0  0
    9.5068   -1.6927   22.0334 C   0  0  0  0  0  0  0  0  0  0  0  0
    8.0917   -1.3091   21.7196 C   0  0  0  0  0  0  0  0  0  0  0  0
    6.9847   -1.5490   22.4795 C   0  0  0  0  0  0  0  0  0  0  0  0
    5.8643   -1.0512   21.8690 N   0  0  0  0  0  0  0  0  0  0  0  0
    6.2325   -0.4738   20.6894 C   0  0  0  0  0  0  0  0  0  0  0  0
    5.4337    0.1289   19.7926 N   0  0  0  0  0  0  0  0  0  0  0  0
    6.0347    0.6232   18.7015 C   0  0  0  0  0  0  0  0  0  0  0  0
    7.3910    0.5424   18.4683 C   0  0  0  0  0  0  0  0  0  0  0  0
    8.2004   -0.0827   19.4038 C   0  0  0  0  0  0  0  0  0  0  0  0
    7.6243   -0.6136   20.5560 C   0  0  0  0  0  0  0  0  0  0  0  0
  1  2  1  0
  2  3  1  0
  3  4  1  0
  4  5  1  0
  5  6  1  0
  6  7  1  0
  7  8  1  0
  6  9  1  0
  5 10  1  0
 10 11  2  0
 10 12  1  0
 12 13  1  0
 13 14  2  0
 14 15  1  0
 15 16  1  0
 16 17  2  0
 17 18  1  0
 18 19  2  0
 19 20  1  0
 20 21  2  0
  9  2  1  0
 21 13  1  0
 21 16  1  0
M  END
