CVD-0001787|dock_bobby27042020.66|mol2|8|dock2
     RDKit          3D

 32 35  0  0  0  0  0  0  0  0999 V2000
    9.0890   -6.3556   27.1182 C   0  0  0  0  0  0  0  0  0  0  0  0
    9.1162   -4.8590   27.0041 C   0  0  0  0  0  0  0  0  0  0  0  0
    9.9264   -4.2042   27.6504 O   0  0  0  0  0  0  0  0  0  0  0  0
    8.2311   -4.2218   26.1929 N   0  0  0  0  0  0  0  0  0  0  0  0
    8.2419   -2.7686   26.1102 C   0  0  0  0  0  0  0  0  0  0  0  0
    9.0940   -2.1785   25.0004 C   0  0  0  0  0  0  0  0  0  0  0  0
    8.6740   -2.5887   23.6307 N   0  0  0  0  0  0  0  0  0  0  0  0
    9.8430   -2.6545   22.7431 C   0  0  0  0  0  0  0  0  0  0  0  0
   10.6544   -1.3806   22.7530 C   0  0  0  0  0  0  0  0  0  0  0  0
   12.0469   -1.4368   22.7624 C   0  0  0  0  0  0  0  0  0  0  0  0
   12.8129   -0.3098   22.7745 C   0  0  0  0  0  0  0  0  0  0  0  0
   12.2213    0.9757   22.7789 C   0  0  0  0  0  0  0  0  0  0  0  0
   12.9854    2.1652   22.7914 C   0  0  0  0  0  0  0  0  0  0  0  0
   12.3650    3.3803   22.7968 C   0  0  0  0  0  0  0  0  0  0  0  0
   10.9823    3.4857   22.7871 C   0  0  0  0  0  0  0  0  0  0  0  0
   10.2120    2.3625   22.7748 C   0  0  0  0  0  0  0  0  0  0  0  0
   10.8016    1.0728   22.7706 C   0  0  0  0  0  0  0  0  0  0  0  0
   10.0602   -0.1276   22.7583 C   0  0  0  0  0  0  0  0  0  0  0  0
    8.7164   -0.0417   22.7514 F   0  0  0  0  0  0  0  0  0  0  0  0
   13.3449    4.8510   22.8062 S   0  0  0  0  0  0  0  0  0  0  0  0
   13.3046    5.4968   21.3419 N   0  0  0  0  0  0  0  0  0  0  0  0
   14.6993    4.4609   23.0598 O   0  0  0  0  0  0  0  0  0  0  0  0
   12.7142    5.7794   23.6959 O   0  0  0  0  0  0  0  0  0  0  0  0
    7.8751   -3.7759   23.1969 C   0  0  0  0  0  0  0  0  0  0  0  0
    6.7808   -4.1339   24.1885 C   0  0  0  0  0  0  0  0  0  0  0  0
    7.1875   -4.9023   25.4307 C   0  0  0  0  0  0  0  0  0  0  0  0
    5.7300   -4.9719   23.4867 C   0  0  0  0  0  0  0  0  0  0  0  0
    4.3929   -4.6047   23.5132 C   0  0  0  0  0  0  0  0  0  0  0  0
    3.4478   -5.3800   22.8642 C   0  0  0  0  0  0  0  0  0  0  0  0
    3.8695   -6.5096   22.2008 C   0  0  0  0  0  0  0  0  0  0  0  0
    5.1460   -6.8926   22.1531 N   0  0  0  0  0  0  0  0  0  0  0  0
    6.0392   -6.1273   22.7873 C   0  0  0  0  0  0  0  0  0  0  0  0
  1  2  1  0
  2  3  2  0
  2  4  1  0
  4  5  1  0
  5  6  1  0
  6  7  1  0
  7  8  1  0
  8  9  1  0
  9 10  2  0
 10 11  1  0
 11 12  2  0
 12 13  1  0
 13 14  2  0
 14 15  1  0
 15 16  2  0
 16 17  1  0
 17 18  2  0
 18 19  1  0
 14 20  1  0
 20 21  1  0
 20 22  2  0
 20 23  2  0
  7 24  1  0
 24 25  1  0
 25 26  1  0
 25 27  1  0
 27 28  2  0
 28 29  1  0
 29 30  2  0
 30 31  1  0
 31 32  2  0
 26  4  1  0
 32 27  1  0
 18  9  1  0
 17 12  1  0
M  END
