CVD-0002462|dock_bobby27042020.5|mol2|32|dock2
     RDKit          3D

 22 24  0  0  0  0  0  0  0  0999 V2000
    3.0984    2.3757   19.4803 C   0  0  0  0  0  0  0  0  0  0  0  0
    4.1979    1.5230   19.9288 N   0  0  0  0  0  0  0  0  0  0  0  0
    4.6404    1.9310   21.2617 C   0  0  0  0  0  0  0  0  0  0  0  0
    5.6925    0.9766   21.7978 C   0  0  0  0  0  0  0  0  0  0  0  0
    6.8246    0.8809   20.8647 N   0  0  0  0  0  0  0  0  0  0  0  0
    6.4393    0.6284   19.4690 C   0  0  0  0  0  0  0  0  0  0  0  0
    5.3528    1.5965   19.0322 C   0  0  0  0  0  0  0  0  0  0  0  0
    8.1415    0.7984   21.2925 C   0  0  0  0  0  0  0  0  0  0  0  0
    8.7323    1.8361   22.0039 C   0  0  0  0  0  0  0  0  0  0  0  0
   10.0472    1.7450   22.4236 C   0  0  0  0  0  0  0  0  0  0  0  0
   10.8268    0.6235   22.1598 C   0  0  0  0  0  0  0  0  0  0  0  0
   12.2599    0.5912   22.6425 C   0  0  0  0  0  0  0  0  0  0  0  0
   12.5779   -0.6089   23.4308 N   0  0  0  0  0  0  0  0  0  0  0  0
   12.9174   -0.2505   24.8131 C   0  0  0  0  0  0  0  0  0  0  0  0
   13.1966   -1.4765   25.6602 C   0  0  0  0  0  0  0  0  0  0  0  0
   14.2978   -2.3550   25.0788 C   0  0  0  0  0  0  0  0  0  0  0  0
   14.4940   -3.5814   25.7879 O   0  0  0  0  0  0  0  0  0  0  0  0
   13.9722   -2.6286   23.6146 C   0  0  0  0  0  0  0  0  0  0  0  0
   13.6911   -1.3538   22.8367 C   0  0  0  0  0  0  0  0  0  0  0  0
   10.2329   -0.4252   21.4473 C   0  0  0  0  0  0  0  0  0  0  0  0
   10.9146   -1.5653   21.1467 O   0  0  0  0  0  0  0  0  0  0  0  0
    8.9171   -0.3259   21.0246 C   0  0  0  0  0  0  0  0  0  0  0  0
  1  2  1  0
  2  3  1  0
  3  4  1  0
  4  5  1  0
  5  6  1  0
  6  7  1  0
  5  8  1  0
  8  9  2  0
  9 10  1  0
 10 11  2  0
 11 12  1  0
 12 13  1  0
 13 14  1  0
 14 15  1  0
 15 16  1  0
 16 17  1  0
 16 18  1  0
 18 19  1  0
 11 20  1  0
 20 21  1  0
 20 22  2  0
  7  2  1  0
 22  8  1  0
 19 13  1  0
M  END
