CVD-0001599|dock_bobby27042020.66|mol2|35|dock1
     RDKit          3D

 18 19  0  0  0  0  0  0  0  0999 V2000
    8.9440   -2.2255   23.8278 F   0  0  0  0  0  0  0  0  0  0  0  0
    9.3547   -1.6963   22.6177 C   0  0  0  0  0  0  0  0  0  0  0  0
    9.4172   -2.8306   21.8282 F   0  0  0  0  0  0  0  0  0  0  0  0
    8.3602   -0.8531   22.0688 N   0  0  0  0  0  0  0  0  0  0  0  0
    8.7001   -0.4273   20.7126 C   0  0  0  0  0  0  0  0  0  0  0  0
    7.6938    0.5781   20.2087 C   0  0  0  0  0  0  0  0  0  0  0  0
    6.3323    0.0440   20.2815 N   0  0  0  0  0  0  0  0  0  0  0  0
    5.9961   -0.5239   21.5894 C   0  0  0  0  0  0  0  0  0  0  0  0
    7.0538   -1.5021   22.0265 C   0  0  0  0  0  0  0  0  0  0  0  0
    5.3923    0.2918   19.3840 C   0  0  0  0  0  0  0  0  0  0  0  0
    4.5742    0.5460   18.6219 N   0  0  0  0  0  0  0  0  0  0  0  0
   10.6473   -1.1411   22.7560 N   0  0  0  0  0  0  0  0  0  0  0  0
   11.6988   -2.0629   23.2371 C   0  0  0  0  0  0  0  0  0  0  0  0
   13.0873   -1.7157   22.7212 C   0  0  0  0  0  0  0  0  0  0  0  0
   13.9051   -0.7746   23.6249 C   0  0  0  0  0  0  0  0  0  0  0  0
   13.0566    0.2022   24.2378 O   0  0  0  0  0  0  0  0  0  0  0  0
   12.0871    0.8109   23.3912 C   0  0  0  0  0  0  0  0  0  0  0  0
   10.7368    0.1408   23.4709 C   0  0  0  0  0  0  0  0  0  0  0  0
  1  2  1  0
  2  3  1  0
  2  4  1  0
  4  5  1  0
  5  6  1  0
  6  7  1  0
  7  8  1  0
  8  9  1  0
  7 10  1  0
 10 11  3  0
  2 12  1  0
 12 13  1  0
 13 14  1  0
 14 15  1  0
 15 16  1  0
 16 17  1  0
 17 18  1  0
  9  4  1  0
 18 12  1  0
M  END
