CVD-0003664|dock_bobby27042020.73|mol2|9|dock2
     RDKit          3D

 18 19  0  0  0  0  0  0  0  0999 V2000
    5.9968    1.3134   18.2472 C   0  0  0  0  0  0  0  0  0  0  0  0
    5.4775    0.0691   18.9534 C   0  0  0  0  0  0  0  0  0  0  0  0
    5.6588   -1.1540   18.0658 C   0  0  0  0  0  0  0  0  0  0  0  0
    6.1881   -0.1247   20.2654 C   0  0  0  0  0  0  0  0  0  0  0  0
    5.6785   -0.2068   21.4966 C   0  0  0  0  0  0  0  0  0  0  0  0
    6.7138   -0.3838   22.3723 O   0  0  0  0  0  0  0  0  0  0  0  0
    7.8110   -0.3979   21.5964 C   0  0  0  0  0  0  0  0  0  0  0  0
    7.5673   -0.2477   20.3229 N   0  0  0  0  0  0  0  0  0  0  0  0
    8.9991   -0.5589   22.1857 N   0  0  0  0  0  0  0  0  0  0  0  0
    9.9090   -1.6082   21.7030 C   0  0  0  0  0  0  0  0  0  0  0  0
   10.9320   -1.9660   22.7750 C   0  0  0  0  0  0  0  0  0  0  0  0
   11.6171   -0.7906   23.2907 N   0  0  0  0  0  0  0  0  0  0  0  0
   10.6947    0.2721   23.7174 C   0  0  0  0  0  0  0  0  0  0  0  0
    9.7741    0.6434   22.5851 C   0  0  0  0  0  0  0  0  0  0  0  0
   12.9459   -0.5974   23.4598 C   0  0  0  0  0  0  0  0  0  0  0  0
   13.3851    0.4549   23.9067 O   0  0  0  0  0  0  0  0  0  0  0  0
   13.8932   -1.7175   23.0743 C   0  0  0  0  0  0  0  0  0  0  0  0
   13.9692   -1.9172   21.3188 Cl  0  0  0  0  0  0  0  0  0  0  0  0
  1  2  1  0
  2  3  1  0
  2  4  1  0
  4  5  2  0
  5  6  1  0
  6  7  1  0
  7  8  2  0
  7  9  1  0
  9 10  1  0
 10 11  1  0
 11 12  1  0
 12 13  1  0
 13 14  1  0
 12 15  1  0
 15 16  2  0
 15 17  1  0
 17 18  1  0
  8  4  1  0
 14  9  1  0
M  END
