CVD-0003817|dock_bobby27042020.86|mol2|36|dock2
     RDKit          3D

 26 28  0  0  0  0  0  0  0  0999 V2000
    7.2933   -5.2272   23.1785 C   0  0  0  0  0  0  0  0  0  0  0  0
    7.7244   -4.3385   24.3386 C   0  0  0  0  0  0  0  0  0  0  0  0
    9.0319   -3.7302   24.0246 N   0  0  0  0  0  0  0  0  0  0  0  0
    9.0572   -2.3975   23.3822 C   0  0  0  0  0  0  0  0  0  0  0  0
   10.3333   -2.1905   22.5590 C   0  0  0  0  0  0  0  0  0  0  0  0
   10.3432   -0.8350   21.9110 C   0  0  0  0  0  0  0  0  0  0  0  0
   10.1882    0.2450   22.8902 N   0  0  0  0  0  0  0  0  0  0  0  0
    8.9775    0.0965   23.7309 C   0  0  0  0  0  0  0  0  0  0  0  0
    8.9359   -1.2714   24.3778 C   0  0  0  0  0  0  0  0  0  0  0  0
   10.9768    1.3909   22.8814 C   0  0  0  0  0  0  0  0  0  0  0  0
   12.3659    1.3046   22.8802 C   0  0  0  0  0  0  0  0  0  0  0  0
   13.1589    2.4382   22.8651 C   0  0  0  0  0  0  0  0  0  0  0  0
   12.5661    3.6877   22.8633 C   0  0  0  0  0  0  0  0  0  0  0  0
   11.1877    3.8020   22.8729 C   0  0  0  0  0  0  0  0  0  0  0  0
   10.4060    2.6604   22.8741 C   0  0  0  0  0  0  0  0  0  0  0  0
   13.5715    5.1409   22.8594 S   0  0  0  0  0  0  0  0  0  0  0  0
   13.8194    5.5823   21.3405 N   0  0  0  0  0  0  0  0  0  0  0  0
   12.8169    6.1847   23.4858 O   0  0  0  0  0  0  0  0  0  0  0  0
   14.8442    4.7820   23.4091 O   0  0  0  0  0  0  0  0  0  0  0  0
    7.7984   -5.1286   25.6313 C   0  0  0  0  0  0  0  0  0  0  0  0
    8.9710   -5.1740   26.3708 C   0  0  0  0  0  0  0  0  0  0  0  0
    9.0262   -5.8965   27.5501 C   0  0  0  0  0  0  0  0  0  0  0  0
    7.9071   -6.5778   27.9980 C   0  0  0  0  0  0  0  0  0  0  0  0
    6.7231   -6.5455   27.2777 C   0  0  0  0  0  0  0  0  0  0  0  0
    5.5021   -7.2895   27.7612 C   0  0  0  0  0  0  0  0  0  0  0  0
    6.6886   -5.8171   26.0979 C   0  0  0  0  0  0  0  0  0  0  0  0
  1  2  1  0
  2  3  1  0
  3  4  1  0
  4  5  1  0
  5  6  1  0
  6  7  1  0
  7  8  1  0
  8  9  1  0
  7 10  1  0
 10 11  2  0
 11 12  1  0
 12 13  2  0
 13 14  1  0
 14 15  2  0
 13 16  1  0
 16 17  1  0
 16 18  2  0
 16 19  2  0
  2 20  1  0
 20 21  2  0
 21 22  1  0
 22 23  2  0
 23 24  1  0
 24 25  1  0
 24 26  2  0
  9  4  1  0
 15 10  1  0
 26 20  1  0
M  END
