CVD-0000710|dock_bobby27042020.97|mol2|38|dock2
     RDKit          3D

 22 24  0  0  0  0  0  0  0  0999 V2000
    8.8420    1.3187   21.0416 O   0  0  0  0  0  0  0  0  0  0  0  0
    8.9469    0.1026   20.9226 C   0  0  0  0  0  0  0  0  0  0  0  0
    7.9500   -0.6864   20.0971 C   0  0  0  0  0  0  0  0  0  0  0  0
    7.0670    0.1890   19.2287 C   0  0  0  0  0  0  0  0  0  0  0  0
    7.3769    0.4221   17.8973 C   0  0  0  0  0  0  0  0  0  0  0  0
    6.6524    1.1767   17.0641 N   0  0  0  0  0  0  0  0  0  0  0  0
    5.5588    1.7427   17.5414 C   0  0  0  0  0  0  0  0  0  0  0  0
    5.1070    1.6010   18.8743 C   0  0  0  0  0  0  0  0  0  0  0  0
    3.9325    2.2125   19.3732 C   0  0  0  0  0  0  0  0  0  0  0  0
    3.5571    2.0313   20.6716 C   0  0  0  0  0  0  0  0  0  0  0  0
    4.3119    1.2506   21.5230 C   0  0  0  0  0  0  0  0  0  0  0  0
    5.4513    0.6420   21.0862 C   0  0  0  0  0  0  0  0  0  0  0  0
    5.8909    0.7948   19.7463 C   0  0  0  0  0  0  0  0  0  0  0  0
    9.9190   -0.6646   21.4737 N   0  0  0  0  0  0  0  0  0  0  0  0
   11.0242   -0.3330   22.2967 C   0  0  0  0  0  0  0  0  0  0  0  0
   11.2685    0.9581   22.7604 C   0  0  0  0  0  0  0  0  0  0  0  0
   12.3686    1.2153   23.5624 C   0  0  0  0  0  0  0  0  0  0  0  0
   13.2375    0.1971   23.9133 C   0  0  0  0  0  0  0  0  0  0  0  0
   13.0035   -1.0942   23.4567 C   0  0  0  0  0  0  0  0  0  0  0  0
   11.8988   -1.3556   22.6505 C   0  0  0  0  0  0  0  0  0  0  0  0
   13.9002   -2.1657   23.8141 C   0  0  0  0  0  0  0  0  0  0  0  0
   14.6043   -3.0286   24.0678 N   0  0  0  0  0  0  0  0  0  0  0  0
  1  2  2  0
  2  3  1  0
  3  4  1  0
  4  5  2  0
  5  6  1  0
  6  7  2  0
  7  8  1  0
  8  9  2  0
  9 10  1  0
 10 11  2  0
 11 12  1  0
 12 13  2  0
  2 14  1  0
 14 15  1  0
 15 16  2  0
 16 17  1  0
 17 18  2  0
 18 19  1  0
 19 20  2  0
 19 21  1  0
 21 22  3  0
 13  4  1  0
 20 15  1  0
 13  8  1  0
M  END
