CVD-0002517|dock_bobby27042020.63|mol2|8|dock2
     RDKit          3D

 31 34  0  0  0  0  0  0  0  0999 V2000
    8.0412   -2.0598   22.7979 O   0  0  0  0  0  0  0  0  0  0  0  0
    9.2667   -2.1055   22.7812 C   0  0  0  0  0  0  0  0  0  0  0  0
   10.0478   -1.3338   21.7386 C   0  0  0  0  0  0  0  0  0  0  0  0
   11.2881   -0.6218   22.2482 C   0  0  0  0  0  0  0  0  0  0  0  0
   12.4055   -0.9896   21.9081 O   0  0  0  0  0  0  0  0  0  0  0  0
   11.1023    0.4265   23.0754 N   0  0  0  0  0  0  0  0  0  0  0  0
   12.2100    1.2174   23.6163 C   0  0  0  0  0  0  0  0  0  0  0  0
   12.0061    2.6905   23.3149 C   0  0  0  0  0  0  0  0  0  0  0  0
   10.7331    3.1518   23.8763 N   0  0  0  0  0  0  0  0  0  0  0  0
   10.5499    4.5830   23.6226 C   0  0  0  0  0  0  0  0  0  0  0  0
   11.2521    5.4560   24.6213 C   0  0  0  0  0  0  0  0  0  0  0  0
   10.7141    5.9739   25.7802 C   0  0  0  0  0  0  0  0  0  0  0  0
   11.6623    6.7538   26.4856 C   0  0  0  0  0  0  0  0  0  0  0  0
   12.8595    6.8156   25.8802 C   0  0  0  0  0  0  0  0  0  0  0  0
   12.8795    5.9253   24.4251 S   0  0  0  0  0  0  0  0  0  0  0  0
    9.6432    2.3831   23.2809 C   0  0  0  0  0  0  0  0  0  0  0  0
    9.8076    0.9025   23.5723 C   0  0  0  0  0  0  0  0  0  0  0  0
   10.0438   -2.8174   23.6334 N   0  0  0  0  0  0  0  0  0  0  0  0
    9.7116   -3.6623   24.7215 C   0  0  0  0  0  0  0  0  0  0  0  0
    8.5035   -3.4452   25.3735 C   0  0  0  0  0  0  0  0  0  0  0  0
    8.1205   -4.2339   26.4434 C   0  0  0  0  0  0  0  0  0  0  0  0
    8.9455   -5.2546   26.8791 C   0  0  0  0  0  0  0  0  0  0  0  0
    8.5301   -6.0383   27.9576 O   0  0  0  0  0  0  0  0  0  0  0  0
    7.2954   -6.5744   28.0506 C   0  0  0  0  0  0  0  0  0  0  0  0
    6.8570   -6.8931   29.2611 N   0  0  0  0  0  0  0  0  0  0  0  0
    5.6241   -7.4139   29.2959 C   0  0  0  0  0  0  0  0  0  0  0  0
    4.8557   -7.6087   28.1723 C   0  0  0  0  0  0  0  0  0  0  0  0
    5.4319   -7.2315   26.9820 C   0  0  0  0  0  0  0  0  0  0  0  0
    6.6605   -6.7065   26.8947 N   0  0  0  0  0  0  0  0  0  0  0  0
   10.1509   -5.4848   26.2377 C   0  0  0  0  0  0  0  0  0  0  0  0
   10.5326   -4.6949   25.1674 C   0  0  0  0  0  0  0  0  0  0  0  0
  1  2  2  0
  2  3  1  0
  3  4  1  0
  4  5  2  0
  4  6  1  0
  6  7  1  0
  7  8  1  0
  8  9  1  0
  9 10  1  0
 10 11  1  0
 11 12  2  0
 12 13  1  0
 13 14  2  0
 14 15  1  0
  9 16  1  0
 16 17  1  0
  2 18  1  0
 18 19  1  0
 19 20  2  0
 20 21  1  0
 21 22  2  0
 22 23  1  0
 23 24  1  0
 24 25  2  0
 25 26  1  0
 26 27  2  0
 27 28  1  0
 28 29  2  0
 22 30  1  0
 30 31  2  0
 17  6  1  0
 31 19  1  0
 15 11  1  0
 29 24  1  0
M  END
