CVD-0002475|dock_bobby27042020.20|mol2|5|dock3
     RDKit          3D

 14 15  0  0  0  0  0  0  0  0999 V2000
   13.9217   -2.7497   23.1052 C   0  0  0  0  0  0  0  0  0  0  0  0
   12.9035   -2.0170   23.7740 O   0  0  0  0  0  0  0  0  0  0  0  0
   12.5208   -0.8156   23.1173 C   0  0  0  0  0  0  0  0  0  0  0  0
   11.4057   -0.9780   22.1037 C   0  0  0  0  0  0  0  0  0  0  0  0
   10.4302   -1.9980   22.6508 C   0  0  0  0  0  0  0  0  0  0  0  0
   10.8100    0.2919   21.9903 O   0  0  0  0  0  0  0  0  0  0  0  0
   11.0362    1.0610   23.1920 C   0  0  0  0  0  0  0  0  0  0  0  0
   11.9007    0.1579   24.0958 C   0  0  0  0  0  0  0  0  0  0  0  0
   12.8681    0.8764   24.8553 O   0  0  0  0  0  0  0  0  0  0  0  0
   11.7138    2.3387   22.8128 C   0  0  0  0  0  0  0  0  0  0  0  0
   13.1155    2.5665   22.6943 C   0  0  0  0  0  0  0  0  0  0  0  0
   13.4432    3.8363   22.3242 C   0  0  0  0  0  0  0  0  0  0  0  0
   12.0341    4.7622   22.1177 S   0  0  0  0  0  0  0  0  0  0  0  0
   11.0078    3.4676   22.5190 C   0  0  0  0  0  0  0  0  0  0  0  0
  1  2  1  0
  2  3  1  0
  3  4  1  0
  4  5  1  0
  4  6  1  0
  6  7  1  0
  7  8  1  0
  8  9  1  0
  7 10  1  0
 10 11  1  0
 11 12  2  0
 12 13  1  0
 13 14  1  0
  8  3  1  0
 14 10  2  0
M  END
