CVD-0003446|dock_bobby27042020.30|mol2|48|dock2
     RDKit          3D

 21 23  0  0  0  0  0  0  0  0999 V2000
    8.6310   -0.4082   18.5437 F   0  0  0  0  0  0  0  0  0  0  0  0
    7.4433    0.2047   18.6609 C   0  0  0  0  0  0  0  0  0  0  0  0
    6.9419    0.6432   17.5344 N   0  0  0  0  0  0  0  0  0  0  0  0
    5.7855    1.2677   17.5876 C   0  0  0  0  0  0  0  0  0  0  0  0
    5.0342    1.4336   18.7708 C   0  0  0  0  0  0  0  0  0  0  0  0
    3.8231    2.0718   18.7312 N   0  0  0  0  0  0  0  0  0  0  0  0
    3.1794    2.1286   19.8774 C   0  0  0  0  0  0  0  0  0  0  0  0
    3.5445    1.6456   21.0630 N   0  0  0  0  0  0  0  0  0  0  0  0
    4.7188    1.0448   21.1059 C   0  0  0  0  0  0  0  0  0  0  0  0
    5.5649    0.9191   19.9784 C   0  0  0  0  0  0  0  0  0  0  0  0
    6.8659    0.3266   19.9130 C   0  0  0  0  0  0  0  0  0  0  0  0
    7.5634   -0.1377   21.0602 N   0  0  0  0  0  0  0  0  0  0  0  0
    8.8162    0.2294   21.4242 C   0  0  0  0  0  0  0  0  0  0  0  0
    9.5219    1.0386   20.8301 O   0  0  0  0  0  0  0  0  0  0  0  0
    9.3143   -0.4761   22.6663 C   0  0  0  0  0  0  0  0  0  0  0  0
   10.8392   -0.4585   22.8095 C   0  0  0  0  0  0  0  0  0  0  0  0
   11.5060   -1.4003   21.7861 C   0  0  0  0  0  0  0  0  0  0  0  0
   13.0233   -1.4603   21.9512 C   0  0  0  0  0  0  0  0  0  0  0  0
   13.4120   -1.8272   23.3776 C   0  0  0  0  0  0  0  0  0  0  0  0
   12.7773   -0.8757   24.3817 C   0  0  0  0  0  0  0  0  0  0  0  0
   11.2592   -0.8519   24.2360 C   0  0  0  0  0  0  0  0  0  0  0  0
  1  2  1  0
  2  3  2  0
  3  4  1  0
  4  5  2  0
  5  6  1  0
  6  7  2  0
  7  8  1  0
  8  9  2  0
  9 10  1  0
 10 11  2  0
 11 12  1  0
 12 13  1  0
 13 14  2  0
 13 15  1  0
 15 16  1  0
 16 17  1  0
 17 18  1  0
 18 19  1  0
 19 20  1  0
 20 21  1  0
 11  2  1  0
 21 16  1  0
 10  5  1  0
M  END
