CVD-0002830|dock_bobby27042020.47|mol2|15|dock2
     RDKit          3D

 25 27  0  0  0  0  0  0  0  0999 V2000
   13.5504   -2.0158   21.3000 N   0  0  0  0  0  0  0  0  0  0  0  0
   13.2421   -1.5580   22.8028 S   0  0  0  0  0  0  0  0  0  0  0  0
   12.1589   -2.3657   23.2777 O   0  0  0  0  0  0  0  0  0  0  0  0
   14.4845   -1.5787   23.5151 O   0  0  0  0  0  0  0  0  0  0  0  0
   12.6784    0.1165   22.7736 C   0  0  0  0  0  0  0  0  0  0  0  0
   13.5853    1.1345   22.5239 C   0  0  0  0  0  0  0  0  0  0  0  0
   13.1690    2.4310   22.5024 C   0  0  0  0  0  0  0  0  0  0  0  0
   11.8137    2.7671   22.7335 C   0  0  0  0  0  0  0  0  0  0  0  0
   11.3448    4.1028   22.7180 C   0  0  0  0  0  0  0  0  0  0  0  0
   10.0293    4.3756   22.9463 C   0  0  0  0  0  0  0  0  0  0  0  0
    9.1277    3.3550   23.1976 C   0  0  0  0  0  0  0  0  0  0  0  0
    9.5212    2.0429   23.2268 C   0  0  0  0  0  0  0  0  0  0  0  0
    8.5116    0.9486   23.5008 C   0  0  0  0  0  0  0  0  0  0  0  0
    8.4434   -0.0808   22.4544 N   0  0  0  0  0  0  0  0  0  0  0  0
    7.8880    0.4800   21.2192 C   0  0  0  0  0  0  0  0  0  0  0  0
    7.8582   -0.5762   20.1300 C   0  0  0  0  0  0  0  0  0  0  0  0
    7.0692   -1.7326   20.5603 N   0  0  0  0  0  0  0  0  0  0  0  0
    7.5636   -2.2808   21.8270 C   0  0  0  0  0  0  0  0  0  0  0  0
    7.6078   -1.1972   22.8890 C   0  0  0  0  0  0  0  0  0  0  0  0
    6.0399   -2.2240   19.8409 C   0  0  0  0  0  0  0  0  0  0  0  0
    5.3866   -3.1878   20.2200 O   0  0  0  0  0  0  0  0  0  0  0  0
    5.7273   -1.5171   18.5366 C   0  0  0  0  0  0  0  0  0  0  0  0
    5.1073    0.1156   18.8141 Cl  0  0  0  0  0  0  0  0  0  0  0  0
   10.8854    1.7168   22.9920 C   0  0  0  0  0  0  0  0  0  0  0  0
   11.3607    0.3816   23.0053 C   0  0  0  0  0  0  0  0  0  0  0  0
  1  2  1  0
  2  3  2  0
  2  4  2  0
  2  5  1  0
  5  6  2  0
  6  7  1  0
  7  8  2  0
  8  9  1  0
  9 10  2  0
 10 11  1  0
 11 12  2  0
 12 13  1  0
 13 14  1  0
 14 15  1  0
 15 16  1  0
 16 17  1  0
 17 18  1  0
 18 19  1  0
 17 20  1  0
 20 21  2  0
 20 22  1  0
 22 23  1  0
 12 24  1  0
 24 25  2  0
 25  5  1  0
 24  8  1  0
 19 14  1  0
M  END
