CVD-0002544|dock_bobby27042020.63|mol2|4|dock3
     RDKit          3D

 32 33  0  0  0  0  0  0  0  0999 V2000
    7.9436    5.3076   22.1473 C   0  0  0  0  0  0  0  0  0  0  0  0
    9.4212    5.0893   23.0615 S   0  0  0  0  0  0  0  0  0  0  0  0
   10.5262    5.2793   22.1734 O   0  0  0  0  0  0  0  0  0  0  0  0
    9.3411    5.8998   24.2372 O   0  0  0  0  0  0  0  0  0  0  0  0
    9.4667    3.5482   23.5509 N   0  0  0  0  0  0  0  0  0  0  0  0
   10.0010    2.4898   22.6968 C   0  0  0  0  0  0  0  0  0  0  0  0
   11.4975    2.2880   22.9796 C   0  0  0  0  0  0  0  0  0  0  0  0
   12.3016    3.5609   22.8725 C   0  0  0  0  0  0  0  0  0  0  0  0
   12.4764    4.3837   23.9745 C   0  0  0  0  0  0  0  0  0  0  0  0
   13.2114    5.5533   23.8757 C   0  0  0  0  0  0  0  0  0  0  0  0
   13.7795    5.9142   22.6730 C   0  0  0  0  0  0  0  0  0  0  0  0
   13.6122    5.1059   21.5692 C   0  0  0  0  0  0  0  0  0  0  0  0
   12.8772    3.9364   21.6686 C   0  0  0  0  0  0  0  0  0  0  0  0
    9.2510    1.1814   22.9291 C   0  0  0  0  0  0  0  0  0  0  0  0
    8.4557    1.0772   23.8592 O   0  0  0  0  0  0  0  0  0  0  0  0
    9.5090    0.1841   22.0782 N   0  0  0  0  0  0  0  0  0  0  0  0
    8.8566   -1.1094   22.1978 C   0  0  0  0  0  0  0  0  0  0  0  0
    9.8236   -2.2318   21.7913 C   0  0  0  0  0  0  0  0  0  0  0  0
   11.1660   -2.1392   22.4752 C   0  0  0  0  0  0  0  0  0  0  0  0
   11.2927   -2.4043   23.8299 C   0  0  0  0  0  0  0  0  0  0  0  0
   12.5207   -2.3245   24.4624 C   0  0  0  0  0  0  0  0  0  0  0  0
   13.6488   -1.9752   23.7378 C   0  0  0  0  0  0  0  0  0  0  0  0
   14.8626   -1.8942   24.3553 O   0  0  0  0  0  0  0  0  0  0  0  0
   13.5376   -1.7088   22.3826 C   0  0  0  0  0  0  0  0  0  0  0  0
   12.3034   -1.7925   21.7629 C   0  0  0  0  0  0  0  0  0  0  0  0
    7.6054   -1.1679   21.3261 C   0  0  0  0  0  0  0  0  0  0  0  0
    6.5362   -1.5468   21.7967 O   0  0  0  0  0  0  0  0  0  0  0  0
    7.7469   -0.7907   20.0557 N   0  0  0  0  0  0  0  0  0  0  0  0
    6.6244   -0.8033   19.1269 C   0  0  0  0  0  0  0  0  0  0  0  0
    5.5781    0.1594   19.4911 C   0  0  0  0  0  0  0  0  0  0  0  0
    4.6948    0.8917   19.7907 C   0  0  0  0  0  0  0  0  0  0  0  0
    3.3661    2.0383   20.1949 Br  0  0  0  0  0  0  0  0  0  0  0  0
  1  2  1  0
  2  3  2  0
  2  4  2  0
  2  5  1  0
  5  6  1  0
  6  7  1  0
  7  8  1  0
  8  9  2  0
  9 10  1  0
 10 11  2  0
 11 12  1  0
 12 13  2  0
  6 14  1  0
 14 15  2  0
 14 16  1  0
 16 17  1  0
 17 18  1  0
 18 19  1  0
 19 20  2  0
 20 21  1  0
 21 22  2  0
 22 23  1  0
 22 24  1  0
 24 25  2  0
 17 26  1  0
 26 27  2  0
 26 28  1  0
 28 29  1  0
 29 30  1  0
 30 31  3  0
 31 32  1  0
 13  8  1  0
 25 19  1  0
M  END
