CVD-0000654|dock_bobby27042020.40|mol2|45|dock3
     RDKit          3D

 19 21  0  0  0  0  0  0  0  0999 V2000
    5.3968    1.7946   17.3195 Cl  0  0  0  0  0  0  0  0  0  0  0  0
    5.8415    0.5127   18.4536 C   0  0  0  0  0  0  0  0  0  0  0  0
    6.2557    1.0774   19.7983 C   0  0  0  0  0  0  0  0  0  0  0  0
    6.2153    2.2790   20.0301 O   0  0  0  0  0  0  0  0  0  0  0  0
    6.6637    0.1935   20.7321 N   0  0  0  0  0  0  0  0  0  0  0  0
    6.8036   -1.2652   20.5002 C   0  0  0  0  0  0  0  0  0  0  0  0
    7.3688   -1.7028   21.8609 C   0  0  0  0  0  0  0  0  0  0  0  0
    6.6216   -0.7735   22.8297 C   0  0  0  0  0  0  0  0  0  0  0  0
    7.1065    0.4828   22.1088 C   0  0  0  0  0  0  0  0  0  0  0  0
    8.6167    0.2812   22.1434 C   0  0  0  0  0  0  0  0  0  0  0  0
    8.7621   -1.2020   21.9614 N   0  0  0  0  0  0  0  0  0  0  0  0
    9.5771   -1.8010   23.0233 C   0  0  0  0  0  0  0  0  0  0  0  0
   11.0150   -1.3427   22.9822 C   0  0  0  0  0  0  0  0  0  0  0  0
   11.5375   -0.5565   23.9970 C   0  0  0  0  0  0  0  0  0  0  0  0
   12.8557   -0.1337   23.9571 C   0  0  0  0  0  0  0  0  0  0  0  0
   13.6717   -0.4924   22.8973 C   0  0  0  0  0  0  0  0  0  0  0  0
   13.1467   -1.2728   21.8909 C   0  0  0  0  0  0  0  0  0  0  0  0
   14.1598   -1.7318   20.5510 Cl  0  0  0  0  0  0  0  0  0  0  0  0
   11.8350   -1.7000   21.9198 C   0  0  0  0  0  0  0  0  0  0  0  0
  1  2  1  0
  2  3  1  0
  3  4  2  0
  3  5  1  0
  5  6  1  0
  6  7  1  0
  7  8  1  0
  8  9  1  0
  9 10  1  0
 10 11  1  0
 11 12  1  0
 12 13  1  0
 13 14  2  0
 14 15  1  0
 15 16  2  0
 16 17  1  0
 17 18  1  0
 17 19  2  0
  9  5  1  0
 19 13  1  0
 11  7  1  0
M  END
