CVD-0003169|dock_bobby27042020.3|mol2|5|dock2
     RDKit          3D

 48 52  0  0  0  0  0  0  0  0999 V2000
    2.4710   -1.0336   27.1406 C   0  0  0  0  0  0  0  0  0  0  0  0
    3.9905   -0.9807   27.0675 C   0  0  0  0  0  0  0  0  0  0  0  0
    4.5463   -0.3292   28.3258 C   0  0  0  0  0  0  0  0  0  0  0  0
    4.4216   -0.1914   25.8394 C   0  0  0  0  0  0  0  0  0  0  0  0
    4.5141   -2.3609   26.9647 N   0  0  0  0  0  0  0  0  0  0  0  0
    4.1541   -3.2762   26.0564 C   0  0  0  0  0  0  0  0  0  0  0  0
    3.3220   -3.0675   25.1776 O   0  0  0  0  0  0  0  0  0  0  0  0
    4.8487   -4.6301   26.1700 C   0  0  0  0  0  0  0  0  0  0  0  0
    4.2215   -5.4158   27.3260 C   0  0  0  0  0  0  0  0  0  0  0  0
    4.8786   -6.7895   27.4751 C   0  0  0  0  0  0  0  0  0  0  0  0
    4.3298   -7.6383   28.6125 C   0  0  0  0  0  0  0  0  0  0  0  0
    4.7297   -7.1032   29.9819 C   0  0  0  0  0  0  0  0  0  0  0  0
    6.2257   -6.9537   30.1166 C   0  0  0  0  0  0  0  0  0  0  0  0
    7.0298   -8.5698   29.9911 Cl  0  0  0  0  0  0  0  0  0  0  0  0
    6.8002   -6.1083   28.9855 C   0  0  0  0  0  0  0  0  0  0  0  0
    6.4021   -6.6457   27.6009 C   0  0  0  0  0  0  0  0  0  0  0  0
    6.9462   -5.7817   26.4699 C   0  0  0  0  0  0  0  0  0  0  0  0
    6.2891   -4.4696   26.3953 N   0  0  0  0  0  0  0  0  0  0  0  0
    6.9370   -3.6786   25.3380 C   0  0  0  0  0  0  0  0  0  0  0  0
    8.0296   -2.7460   25.8427 C   0  0  0  0  0  0  0  0  0  0  0  0
    8.8358   -3.4598   26.7765 O   0  0  0  0  0  0  0  0  0  0  0  0
    8.8541   -2.2275   24.6809 C   0  0  0  0  0  0  0  0  0  0  0  0
    9.9227   -2.9651   24.1895 C   0  0  0  0  0  0  0  0  0  0  0  0
   10.6807   -2.4904   23.1326 C   0  0  0  0  0  0  0  0  0  0  0  0
   10.3736   -1.2702   22.5559 C   0  0  0  0  0  0  0  0  0  0  0  0
    9.3079   -0.5197   23.0305 C   0  0  0  0  0  0  0  0  0  0  0  0
    8.5575   -1.0066   24.0905 C   0  0  0  0  0  0  0  0  0  0  0  0
    8.9529    0.8181   22.4190 C   0  0  0  0  0  0  0  0  0  0  0  0
    9.5218    1.9605   23.2783 C   0  0  0  0  0  0  0  0  0  0  0  0
    9.4426    3.3391   22.6169 C   0  0  0  0  0  0  0  0  0  0  0  0
   10.4519    4.3407   23.1446 C   0  0  0  0  0  0  0  0  0  0  0  0
   11.7234    4.2026   22.5919 C   0  0  0  0  0  0  0  0  0  0  0  0
   12.7806    4.9986   22.9818 C   0  0  0  0  0  0  0  0  0  0  0  0
   12.5775    5.9555   23.9443 C   0  0  0  0  0  0  0  0  0  0  0  0
   11.3232    6.1287   24.5023 C   0  0  0  0  0  0  0  0  0  0  0  0
   10.2308    5.3531   24.1042 C   0  0  0  0  0  0  0  0  0  0  0  0
    8.8481    5.6532   24.7392 C   0  0  0  0  0  0  0  0  0  0  0  0
    7.9526    6.5199   23.8588 C   0  0  0  0  0  0  0  0  0  0  0  0
    8.9684    6.3507   26.0927 C   0  0  0  0  0  0  0  0  0  0  0  0
    8.0750    4.4445   24.8982 O   0  0  0  0  0  0  0  0  0  0  0  0
    7.1219    0.9137   22.2437 S   0  0  0  0  0  0  0  0  0  0  0  0
    6.7797    0.1223   20.6250 C   0  0  0  0  0  0  0  0  0  0  0  0
    6.0231    1.0172   19.6175 C   0  0  0  0  0  0  0  0  0  0  0  0
    5.7636    0.4197   18.2620 C   0  0  0  0  0  0  0  0  0  0  0  0
    4.7378   -0.3960   18.2311 O   0  0  0  0  0  0  0  0  0  0  0  0
    6.4406    0.6672   17.2884 O   0  0  0  0  0  0  0  0  0  0  0  0
    7.8113   -0.8587   20.0760 C   0  0  0  0  0  0  0  0  0  0  0  0
    6.5063   -1.3779   20.5973 C   0  0  0  0  0  0  0  0  0  0  0  0
  1  2  1  0
  2  3  1  0
  2  4  1  0
  2  5  1  0
  5  6  1  0
  6  7  2  0
  8  6  1  0
  8  9  1  0
 10  9  1  0
 10 11  1  0
 11 12  1  0
 12 13  1  0
 13 14  1  0
 13 15  1  0
 16 15  1  0
 16 17  1  0
 17 18  1  0
 18 19  1  0
 19 20  1  0
 20 21  1  0
 20 22  1  0
 22 23  2  0
 23 24  1  0
 24 25  2  0
 25 26  1  0
 26 27  2  0
 26 28  1  0
 28 29  1  0
 29 30  1  0
 30 31  1  0
 31 32  2  0
 32 33  1  0
 33 34  2  0
 34 35  1  0
 35 36  2  0
 36 37  1  0
 37 38  1  0
 37 39  1  0
 37 40  1  0
 28 41  1  0
 41 42  1  0
 42 43  1  0
 43 44  1  0
 44 45  1  0
 44 46  2  0
 42 47  1  0
 47 48  1  0
 18  8  1  0
 27 22  1  0
 36 31  1  0
 48 42  1  0
 16 10  1  0
M  END
