CVD-0002613|dock_bobby27042020.62|mol2|28|dock2
     RDKit          3D

 24 26  0  0  0  0  0  0  0  0999 V2000
    7.9931   -1.1505   19.0469 N   0  0  0  0  0  0  0  0  0  0  0  0
    8.5672   -1.7035   20.1191 C   0  0  0  0  0  0  0  0  0  0  0  0
    9.7908   -1.2535   20.4513 N   0  0  0  0  0  0  0  0  0  0  0  0
   10.3651   -1.8066   21.5202 C   0  0  0  0  0  0  0  0  0  0  0  0
   11.7333   -1.2815   21.8729 C   0  0  0  0  0  0  0  0  0  0  0  0
   11.6916   -0.0161   22.6211 N   0  0  0  0  0  0  0  0  0  0  0  0
   10.9042    0.9838   21.8939 C   0  0  0  0  0  0  0  0  0  0  0  0
   10.8299    2.2739   22.6894 C   0  0  0  0  0  0  0  0  0  0  0  0
   12.1749    2.7871   22.9583 N   0  0  0  0  0  0  0  0  0  0  0  0
   13.0081    1.7870   23.6330 C   0  0  0  0  0  0  0  0  0  0  0  0
   13.0421    0.5000   22.8290 C   0  0  0  0  0  0  0  0  0  0  0  0
   12.5577    4.0419   22.6377 C   0  0  0  0  0  0  0  0  0  0  0  0
   11.7848    4.8271   22.1032 O   0  0  0  0  0  0  0  0  0  0  0  0
   13.9809    4.4493   22.9675 C   0  0  0  0  0  0  0  0  0  0  0  0
   14.3128    6.1353   22.5501 Cl  0  0  0  0  0  0  0  0  0  0  0  0
    9.8530   -2.7624   22.3008 N   0  0  0  0  0  0  0  0  0  0  0  0
    8.6364   -3.1977   21.9564 C   0  0  0  0  0  0  0  0  0  0  0  0
    7.9250   -2.7219   20.8827 C   0  0  0  0  0  0  0  0  0  0  0  0
    6.5530   -3.2555   20.5388 C   0  0  0  0  0  0  0  0  0  0  0  0
    6.1739   -4.4976   21.2932 C   0  0  0  0  0  0  0  0  0  0  0  0
    5.3344   -4.4954   22.4338 C   0  0  0  0  0  0  0  0  0  0  0  0
    5.1076   -5.7286   22.9662 C   0  0  0  0  0  0  0  0  0  0  0  0
    5.9317   -6.9051   22.0593 S   0  0  0  0  0  0  0  0  0  0  0  0
    6.5708   -5.7606   20.9762 C   0  0  0  0  0  0  0  0  0  0  0  0
  1  2  1  0
  2  3  2  0
  3  4  1  0
  4  5  1  0
  5  6  1  0
  6  7  1  0
  7  8  1  0
  8  9  1  0
  9 10  1  0
 10 11  1  0
  9 12  1  0
 12 13  2  0
 12 14  1  0
 14 15  1  0
  4 16  2  0
 16 17  1  0
 17 18  2  0
 18 19  1  0
 19 20  1  0
 20 21  1  0
 21 22  2  0
 22 23  1  0
 23 24  1  0
 18  2  1  0
 24 20  2  0
 11  6  1  0
M  END
