CVD-0003088|dock_bobby27042020.89|mol2|9|dock2
     RDKit          3D

 21 22  0  0  0  0  0  0  0  0999 V2000
    4.6852    1.9632   18.6267 C   0  0  0  0  0  0  0  0  0  0  0  0
    5.3762    0.6054   17.7631 S   0  0  0  0  0  0  0  0  0  0  0  0
    4.3131   -0.0899   17.1056 O   0  0  0  0  0  0  0  0  0  0  0  0
    6.4666    1.0896   16.9742 O   0  0  0  0  0  0  0  0  0  0  0  0
    5.9926   -0.3990   18.8502 N   0  0  0  0  0  0  0  0  0  0  0  0
    7.3848   -0.2332   19.2847 C   0  0  0  0  0  0  0  0  0  0  0  0
    7.5625   -0.7209   20.7113 C   0  0  0  0  0  0  0  0  0  0  0  0
    8.9592   -0.4928   21.2368 C   0  0  0  0  0  0  0  0  0  0  0  0
    9.7871   -1.5681   21.5236 C   0  0  0  0  0  0  0  0  0  0  0  0
   11.0516   -1.3857   21.9956 C   0  0  0  0  0  0  0  0  0  0  0  0
   11.5664   -0.0853   22.2097 C   0  0  0  0  0  0  0  0  0  0  0  0
   12.8718    0.1611   22.6979 C   0  0  0  0  0  0  0  0  0  0  0  0
   13.3213    1.4327   22.8876 C   0  0  0  0  0  0  0  0  0  0  0  0
   12.4973    2.5106   22.6033 C   0  0  0  0  0  0  0  0  0  0  0  0
   11.2317    2.3283   22.1290 C   0  0  0  0  0  0  0  0  0  0  0  0
   10.7308    1.0228   21.9199 C   0  0  0  0  0  0  0  0  0  0  0  0
    9.4262    0.7803   21.4317 C   0  0  0  0  0  0  0  0  0  0  0  0
   13.1016    4.1529   22.8500 S   0  0  0  0  0  0  0  0  0  0  0  0
   13.0049    4.9429   21.4609 N   0  0  0  0  0  0  0  0  0  0  0  0
   14.4907    4.0518   23.1837 O   0  0  0  0  0  0  0  0  0  0  0  0
   12.2149    4.8014   23.7687 O   0  0  0  0  0  0  0  0  0  0  0  0
  1  2  1  0
  2  3  2  0
  2  4  2  0
  2  5  1  0
  5  6  1  0
  6  7  1  0
  7  8  1  0
  8  9  2  0
  9 10  1  0
 10 11  2  0
 11 12  1  0
 12 13  2  0
 13 14  1  0
 14 15  2  0
 15 16  1  0
 16 17  2  0
 14 18  1  0
 18 19  1  0
 18 20  2  0
 18 21  2  0
 17  8  1  0
 16 11  1  0
M  END
