CVD-0000914|dock_bobby27042020.97|mol2|8|dock1
     RDKit          3D

 17 18  0  0  0  0  0  0  0  0999 V2000
    8.1872   -2.0216   22.6404 C   0  0  0  0  0  0  0  0  0  0  0  0
    9.4230   -1.6307   21.8414 C   0  0  0  0  0  0  0  0  0  0  0  0
    9.0048   -1.1723   20.5259 N   0  0  0  0  0  0  0  0  0  0  0  0
    7.9264   -0.4012   20.3714 C   0  0  0  0  0  0  0  0  0  0  0  0
    7.2207   -0.0274   21.3032 O   0  0  0  0  0  0  0  0  0  0  0  0
    7.6263   -0.0230   18.9376 C   0  0  0  0  0  0  0  0  0  0  0  0
    6.3847   -1.0510   18.2104 Cl  0  0  0  0  0  0  0  0  0  0  0  0
   10.2669   -0.6036   22.5586 C   0  0  0  0  0  0  0  0  0  0  0  0
   10.2550    0.6953   22.2301 C   0  0  0  0  0  0  0  0  0  0  0  0
   11.0647    1.6279   22.9206 C   0  0  0  0  0  0  0  0  0  0  0  0
   10.7178    3.3128   22.7172 Cl  0  0  0  0  0  0  0  0  0  0  0  0
   12.0819    1.2404   23.7079 C   0  0  0  0  0  0  0  0  0  0  0  0
   12.4046   -0.2163   23.8625 C   0  0  0  0  0  0  0  0  0  0  0  0
   12.9196   -0.7463   25.1848 C   0  0  0  0  0  0  0  0  0  0  0  0
   12.8856   -2.5493   24.9980 S   0  0  0  0  0  0  0  0  0  0  0  0
   11.7057   -2.4966   23.6230 C   0  0  0  0  0  0  0  0  0  0  0  0
   11.1387   -1.0724   23.6996 C   0  0  0  0  0  0  0  0  0  0  0  0
  1  2  1  0
  2  3  1  0
  3  4  1  0
  4  5  2  0
  4  6  1  0
  6  7  1  0
  2  8  1  0
  8  9  2  0
  9 10  1  0
 10 11  1  0
 10 12  2  0
 12 13  1  0
 13 14  1  0
 14 15  1  0
 15 16  1  0
 16 17  1  0
 17  8  1  0
 17 13  1  0
M  END
