CVD-0001783|dock_bobby27042020.22|mol2|41|dock2
     RDKit          3D

 26 28  0  0  0  0  0  0  0  0999 V2000
    8.5055    4.4976   22.3672 C   0  0  0  0  0  0  0  0  0  0  0  0
    9.3479    3.2681   22.6054 C   0  0  0  0  0  0  0  0  0  0  0  0
   10.7318    3.3431   22.6042 C   0  0  0  0  0  0  0  0  0  0  0  0
   11.5004    2.2118   22.8187 C   0  0  0  0  0  0  0  0  0  0  0  0
   10.8894    0.9890   23.0363 C   0  0  0  0  0  0  0  0  0  0  0  0
    9.5050    0.8876   23.0430 C   0  0  0  0  0  0  0  0  0  0  0  0
    8.7548    2.0339   22.8255 C   0  0  0  0  0  0  0  0  0  0  0  0
    8.8092   -0.4373   23.2881 C   0  0  0  0  0  0  0  0  0  0  0  0
    9.3441   -1.1850   24.5003 C   0  0  0  0  0  0  0  0  0  0  0  0
   10.6822   -1.6847   24.2419 N   0  0  0  0  0  0  0  0  0  0  0  0
   10.7243   -2.5774   23.0844 C   0  0  0  0  0  0  0  0  0  0  0  0
   10.2504   -1.8666   21.8561 C   0  0  0  0  0  0  0  0  0  0  0  0
    8.9204   -1.3260   22.1102 N   0  0  0  0  0  0  0  0  0  0  0  0
    8.0559   -1.0925   21.0161 C   0  0  0  0  0  0  0  0  0  0  0  0
    8.2460    0.0400   20.2264 C   0  0  0  0  0  0  0  0  0  0  0  0
    7.4529    0.2418   19.1111 C   0  0  0  0  0  0  0  0  0  0  0  0
    6.4804   -0.6691   18.7686 C   0  0  0  0  0  0  0  0  0  0  0  0
    6.2532   -1.7871   19.5513 C   0  0  0  0  0  0  0  0  0  0  0  0
    7.0144   -1.9915   20.6995 C   0  0  0  0  0  0  0  0  0  0  0  0
    6.6458   -3.1727   21.5260 N   0  0  0  0  0  0  0  0  0  0  0  0
    7.2554   -3.4327   22.5495 O   0  0  0  0  0  0  0  0  0  0  0  0
    5.6835   -3.8246   21.1665 O   0  0  0  0  0  0  0  0  0  0  0  0
   11.8099   -1.3073   24.8840 C   0  0  0  0  0  0  0  0  0  0  0  0
   11.7729   -0.4655   25.7726 O   0  0  0  0  0  0  0  0  0  0  0  0
   13.1328   -1.9403   24.5058 C   0  0  0  0  0  0  0  0  0  0  0  0
   14.4859   -1.4393   25.5966 S   0  0  0  0  0  0  0  0  0  0  0  0
  1  2  1  0
  2  3  2  0
  3  4  1  0
  4  5  2  0
  5  6  1  0
  6  7  2  0
  6  8  1  0
  8  9  1  0
  9 10  1  0
 10 11  1  0
 11 12  1  0
 12 13  1  0
 13 14  1  0
 14 15  2  0
 15 16  1  0
 16 17  2  0
 17 18  1  0
 18 19  2  0
 19 20  1  0
 20 21  1  0
 20 22  2  0
 10 23  1  0
 23 24  2  0
 23 25  1  0
 25 26  1  0
  7  2  1  0
 13  8  1  0
 19 14  1  0
M  CHG  1  20   1
M  END
