CVD-0000691|dock_bobby27042020.97|mol2|41|dock3
     RDKit          3D

 19 20  0  0  0  0  0  0  0  0999 V2000
   13.8385   -1.3811   20.7358 N   0  0  0  0  0  0  0  0  0  0  0  0
   13.7899   -1.8757   22.1120 C   0  0  0  0  0  0  0  0  0  0  0  0
   12.5250   -1.4913   22.8438 C   0  0  0  0  0  0  0  0  0  0  0  0
   12.1499   -0.0427   22.6212 C   0  0  0  0  0  0  0  0  0  0  0  0
   13.1158    0.9384   22.8204 C   0  0  0  0  0  0  0  0  0  0  0  0
   12.7774    2.2611   22.6224 C   0  0  0  0  0  0  0  0  0  0  0  0
   11.5621    2.6577   22.2474 N   0  0  0  0  0  0  0  0  0  0  0  0
   10.6464    1.7023   22.0618 C   0  0  0  0  0  0  0  0  0  0  0  0
   10.8674    0.3567   22.2267 C   0  0  0  0  0  0  0  0  0  0  0  0
    9.7591   -0.6452   21.9937 C   0  0  0  0  0  0  0  0  0  0  0  0
    8.4197    0.0002   21.6990 C   0  0  0  0  0  0  0  0  0  0  0  0
    7.7457    0.4899   22.5990 O   0  0  0  0  0  0  0  0  0  0  0  0
    8.0777   -0.0389   20.3881 N   0  0  0  0  0  0  0  0  0  0  0  0
    6.9307    0.4338   19.7029 C   0  0  0  0  0  0  0  0  0  0  0  0
    5.7214    0.4484   20.3887 C   0  0  0  0  0  0  0  0  0  0  0  0
    4.5675    0.8995   19.7707 C   0  0  0  0  0  0  0  0  0  0  0  0
    4.6053    1.3399   18.4663 C   0  0  0  0  0  0  0  0  0  0  0  0
    5.7978    1.3300   17.7766 C   0  0  0  0  0  0  0  0  0  0  0  0
    6.9590    0.8809   18.3838 C   0  0  0  0  0  0  0  0  0  0  0  0
  1  2  1  0
  2  3  1  0
  3  4  1  0
  4  5  2  0
  5  6  1  0
  6  7  2  0
  7  8  1  0
  8  9  2  0
  9 10  1  0
 10 11  1  0
 11 12  2  0
 11 13  1  0
 13 14  1  0
 14 15  2  0
 15 16  1  0
 16 17  2  0
 17 18  1  0
 18 19  2  0
  9  4  1  0
 19 14  1  0
M  END
