CVD-0003190|dock_bobby27042020.3|mol2|2|dock2
     RDKit          3D

 25 26  0  0  0  0  0  0  0  0999 V2000
   12.0117    1.0180   25.0166 F   0  0  0  0  0  0  0  0  0  0  0  0
   12.5810    0.5324   23.8825 C   0  0  0  0  0  0  0  0  0  0  0  0
   13.6623   -0.1875   24.2814 F   0  0  0  0  0  0  0  0  0  0  0  0
   12.9841    1.6147   22.9292 C   0  0  0  0  0  0  0  0  0  0  0  0
   11.9315    2.6223   22.7033 N   0  0  0  0  0  0  0  0  0  0  0  0
   10.6887    2.0758   22.1461 C   0  0  0  0  0  0  0  0  0  0  0  0
    9.6101    1.7995   23.1748 C   0  0  0  0  0  0  0  0  0  0  0  0
    8.3298    1.5144   22.5429 N   0  0  0  0  0  0  0  0  0  0  0  0
    8.1884    0.4052   21.7932 C   0  0  0  0  0  0  0  0  0  0  0  0
    9.1492   -0.3364   21.6305 O   0  0  0  0  0  0  0  0  0  0  0  0
    6.9887    0.0982   21.2102 N   0  0  0  0  0  0  0  0  0  0  0  0
    6.6751   -1.2464   20.7167 C   0  0  0  0  0  0  0  0  0  0  0  0
    5.9205   -1.2578   19.3991 C   0  0  0  0  0  0  0  0  0  0  0  0
    6.6509   -0.5999   18.2395 C   0  0  0  0  0  0  0  0  0  0  0  0
    6.8209    0.9064   18.2974 C   0  0  0  0  0  0  0  0  0  0  0  0
    5.5446    1.6056   18.3486 N   0  0  0  0  0  0  0  0  0  0  0  0
    5.0022    2.1921   19.4212 C   0  0  0  0  0  0  0  0  0  0  0  0
    3.9088    2.7324   19.3178 O   0  0  0  0  0  0  0  0  0  0  0  0
    5.6968    2.2340   20.8034 C   0  0  0  0  0  0  0  0  0  0  0  0
    4.9679    3.0405   21.6319 F   0  0  0  0  0  0  0  0  0  0  0  0
    6.9328    2.8147   20.7492 F   0  0  0  0  0  0  0  0  0  0  0  0
    5.8033    0.9047   21.5274 C   0  0  0  0  0  0  0  0  0  0  0  0
   12.4067    3.8080   21.9605 C   0  0  0  0  0  0  0  0  0  0  0  0
   11.7729    5.0281   22.5296 C   0  0  0  0  0  0  0  0  0  0  0  0
   13.2326    4.8415   22.6568 C   0  0  0  0  0  0  0  0  0  0  0  0
  1  2  1  0
  2  3  1  0
  2  4  1  0
  4  5  1  0
  5  6  1  0
  6  7  1  0
  7  8  1  0
  8  9  1  0
  9 10  2  0
  9 11  1  0
 11 12  1  0
 12 13  1  0
 13 14  1  0
 14 15  1  0
 15 16  1  0
 16 17  1  0
 17 18  2  0
 17 19  1  0
 19 20  1  0
 19 21  1  0
 19 22  1  0
  5 23  1  0
 23 24  1  0
 24 25  1  0
 22 11  1  0
 25 23  1  0
M  END
