CVD-0001620|dock_bobby27042020.66|mol2|32|dock2
     RDKit          3D

 20 21  0  0  0  0  0  0  0  0999 V2000
    9.2866    0.7310   23.8724 C   0  0  0  0  0  0  0  0  0  0  0  0
    9.1706    0.1721   22.4637 C   0  0  0  0  0  0  0  0  0  0  0  0
   10.5092    0.2704   21.7559 C   0  0  0  0  0  0  0  0  0  0  0  0
   11.5064   -0.5647   22.4291 N   0  0  0  0  0  0  0  0  0  0  0  0
   11.0577   -1.9563   22.5394 C   0  0  0  0  0  0  0  0  0  0  0  0
    9.7058   -2.0213   23.2265 C   0  0  0  0  0  0  0  0  0  0  0  0
    8.7193   -1.2220   22.5044 N   0  0  0  0  0  0  0  0  0  0  0  0
    8.3687   -1.7994   21.2036 C   0  0  0  0  0  0  0  0  0  0  0  0
    9.4672   -1.8009   20.4118 F   0  0  0  0  0  0  0  0  0  0  0  0
    8.0599   -3.1058   21.3786 F   0  0  0  0  0  0  0  0  0  0  0  0
    7.2330   -1.0482   20.5458 C   0  0  0  0  0  0  0  0  0  0  0  0
    5.9985   -0.7382   21.0577 C   0  0  0  0  0  0  0  0  0  0  0  0
    5.1831   -0.0329   20.1758 C   0  0  0  0  0  0  0  0  0  0  0  0
    5.7939    0.1914   18.9977 C   0  0  0  0  0  0  0  0  0  0  0  0
    5.0924    1.0942   17.5158 Br  0  0  0  0  0  0  0  0  0  0  0  0
    7.3826   -0.4518   18.9295 S   0  0  0  0  0  0  0  0  0  0  0  0
   12.6806   -0.0773   22.8795 C   0  0  0  0  0  0  0  0  0  0  0  0
   12.9889    1.1004   22.7459 O   0  0  0  0  0  0  0  0  0  0  0  0
   13.6042   -1.0627   23.5688 C   0  0  0  0  0  0  0  0  0  0  0  0
   14.1495   -2.3407   22.4749 Cl  0  0  0  0  0  0  0  0  0  0  0  0
  1  2  1  0
  2  3  1  0
  3  4  1  0
  4  5  1  0
  5  6  1  0
  6  7  1  0
  7  8  1  0
  8  9  1  0
  8 10  1  0
  8 11  1  0
 11 12  2  0
 12 13  1  0
 13 14  2  0
 14 15  1  0
 14 16  1  0
  4 17  1  0
 17 18  2  0
 17 19  1  0
 19 20  1  0
  7  2  1  0
 16 11  1  0
M  END
