CVD-0003103|dock_bobby27042020.61|mol2|2|dock3
     RDKit          3D

 24 25  0  0  0  0  0  0  0  0999 V2000
    4.5771    1.9128   21.0314 C   0  0  0  0  0  0  0  0  0  0  0  0
    5.2471    1.5468   19.7318 C   0  0  0  0  0  0  0  0  0  0  0  0
    4.9022    2.2558   18.5850 C   0  0  0  0  0  0  0  0  0  0  0  0
    5.5000    1.9463   17.3840 C   0  0  0  0  0  0  0  0  0  0  0  0
    6.4104    0.9859   17.2527 N   0  0  0  0  0  0  0  0  0  0  0  0
    6.7502    0.2981   18.3472 C   0  0  0  0  0  0  0  0  0  0  0  0
    6.2106    0.5264   19.6134 C   0  0  0  0  0  0  0  0  0  0  0  0
    6.5717   -0.2032   20.7807 N   0  0  0  0  0  0  0  0  0  0  0  0
    7.7679   -0.7164   21.1606 C   0  0  0  0  0  0  0  0  0  0  0  0
    8.8179   -0.6412   20.5314 O   0  0  0  0  0  0  0  0  0  0  0  0
    7.7175   -1.4191   22.4995 C   0  0  0  0  0  0  0  0  0  0  0  0
    8.9698   -2.2531   22.8106 C   0  0  0  0  0  0  0  0  0  0  0  0
    8.7954   -3.0950   24.0842 C   0  0  0  0  0  0  0  0  0  0  0  0
    9.9888   -3.8779   24.4205 N   0  0  0  0  0  0  0  0  0  0  0  0
    9.8486   -5.2112   25.2998 S   0  0  0  0  0  0  0  0  0  0  0  0
    8.9901   -4.7916   26.7673 C   0  0  0  0  0  0  0  0  0  0  0  0
    9.0347   -6.1210   24.5543 O   0  0  0  0  0  0  0  0  0  0  0  0
   11.1720   -5.6166   25.6602 O   0  0  0  0  0  0  0  0  0  0  0  0
   10.1651   -1.3391   22.9965 C   0  0  0  0  0  0  0  0  0  0  0  0
   10.1867   -0.3964   24.0151 C   0  0  0  0  0  0  0  0  0  0  0  0
   11.2774    0.4404   24.1826 C   0  0  0  0  0  0  0  0  0  0  0  0
   12.3593    0.3461   23.3337 C   0  0  0  0  0  0  0  0  0  0  0  0
   12.3512   -0.5845   22.3170 C   0  0  0  0  0  0  0  0  0  0  0  0
   11.2609   -1.4217   22.1488 C   0  0  0  0  0  0  0  0  0  0  0  0
  1  2  1  0
  2  3  2  0
  3  4  1  0
  4  5  2  0
  5  6  1  0
  6  7  2  0
  7  8  1  0
  8  9  1  0
  9 10  2  0
  9 11  1  0
 11 12  1  0
 12 13  1  0
 13 14  1  0
 14 15  1  0
 15 16  1  0
 15 17  2  0
 15 18  2  0
 12 19  1  0
 19 20  2  0
 20 21  1  0
 21 22  2  0
 22 23  1  0
 23 24  2  0
  7  2  1  0
 24 19  1  0
M  END
