CVD-0001751|dock_bobby27042020.80|mol2|12|dock1
     RDKit          3D

 29 31  0  0  0  0  0  0  0  0999 V2000
   13.8847   -2.1074   20.4838 C   0  0  0  0  0  0  0  0  0  0  0  0
   13.0944   -2.0789   21.7545 C   0  0  0  0  0  0  0  0  0  0  0  0
   11.6666   -2.1524   21.4947 N   0  0  0  0  0  0  0  0  0  0  0  0
   10.7590   -2.3724   22.4590 C   0  0  0  0  0  0  0  0  0  0  0  0
   11.0338   -3.3650   23.3294 N   0  0  0  0  0  0  0  0  0  0  0  0
   10.2087   -3.5613   24.3636 C   0  0  0  0  0  0  0  0  0  0  0  0
    9.0574   -2.8166   24.5858 C   0  0  0  0  0  0  0  0  0  0  0  0
    8.7354   -1.8234   23.6689 C   0  0  0  0  0  0  0  0  0  0  0  0
    9.5747   -1.6073   22.5808 C   0  0  0  0  0  0  0  0  0  0  0  0
    9.1927   -0.6113   21.6125 N   0  0  0  0  0  0  0  0  0  0  0  0
    8.2039   -1.0461   20.6329 C   0  0  0  0  0  0  0  0  0  0  0  0
    7.2317   -0.0241   20.3042 N   0  0  0  0  0  0  0  0  0  0  0  0
    6.3788    0.2763   21.4604 C   0  0  0  0  0  0  0  0  0  0  0  0
    5.3878    1.3825   21.1565 C   0  0  0  0  0  0  0  0  0  0  0  0
    4.5130    1.0732   19.9478 C   0  0  0  0  0  0  0  0  0  0  0  0
    3.6007    2.2239   19.5360 C   0  0  0  0  0  0  0  0  0  0  0  0
    5.4181    0.6662   18.7904 C   0  0  0  0  0  0  0  0  0  0  0  0
    6.3910   -0.4354   19.1767 C   0  0  0  0  0  0  0  0  0  0  0  0
    9.6427    0.7109   21.5838 C   0  0  0  0  0  0  0  0  0  0  0  0
    9.0985    1.4804   20.8028 O   0  0  0  0  0  0  0  0  0  0  0  0
   10.6689    1.0860   22.4181 N   0  0  0  0  0  0  0  0  0  0  0  0
   11.3064    2.3437   22.5812 C   0  0  0  0  0  0  0  0  0  0  0  0
   10.5181    3.4866   22.5306 C   0  0  0  0  0  0  0  0  0  0  0  0
   11.0985    4.7326   22.6884 C   0  0  0  0  0  0  0  0  0  0  0  0
   12.4562    4.8045   22.8939 C   0  0  0  0  0  0  0  0  0  0  0  0
   13.2420    3.7294   22.9466 N   0  0  0  0  0  0  0  0  0  0  0  0
   12.6726    2.5303   22.7890 C   0  0  0  0  0  0  0  0  0  0  0  0
    8.2165   -3.0640   25.7308 C   0  0  0  0  0  0  0  0  0  0  0  0
    7.5770   -3.2710   26.6545 N   0  0  0  0  0  0  0  0  0  0  0  0
  1  2  1  0
  2  3  1  0
  3  4  1  0
  4  5  2  0
  5  6  1  0
  6  7  2  0
  7  8  1  0
  8  9  2  0
  9 10  1  0
 10 11  1  0
 11 12  1  0
 12 13  1  0
 13 14  1  0
 14 15  1  0
 15 16  1  0
 15 17  1  0
 17 18  1  0
 10 19  1  0
 19 20  2  0
 19 21  1  0
 21 22  1  0
 22 23  2  0
 23 24  1  0
 24 25  2  0
 25 26  1  0
 26 27  2  0
  7 28  1  0
 28 29  3  0
  9  4  1  0
 18 12  1  0
 27 22  1  0
M  END
