CVD-0003028|dock_bobby27042020.89|mol2|18|dock3
     RDKit          3D

 28 31  0  0  0  0  0  0  0  0999 V2000
    4.4055   -6.8368   26.4897 C   0  0  0  0  0  0  0  0  0  0  0  0
    4.9776   -6.1159   25.2977 C   0  0  0  0  0  0  0  0  0  0  0  0
    5.9748   -5.1594   25.4753 C   0  0  0  0  0  0  0  0  0  0  0  0
    6.5141   -4.4824   24.3954 C   0  0  0  0  0  0  0  0  0  0  0  0
    7.5000   -3.5529   24.6710 O   0  0  0  0  0  0  0  0  0  0  0  0
    8.0353   -2.8829   23.5969 C   0  0  0  0  0  0  0  0  0  0  0  0
    9.0989   -1.8579   23.6961 C   0  0  0  0  0  0  0  0  0  0  0  0
    9.6917   -1.4992   24.7050 O   0  0  0  0  0  0  0  0  0  0  0  0
    9.3228   -1.4123   22.4432 N   0  0  0  0  0  0  0  0  0  0  0  0
   10.2795   -0.3590   22.0968 C   0  0  0  0  0  0  0  0  0  0  0  0
   11.6619   -0.5539   22.6975 C   0  0  0  0  0  0  0  0  0  0  0  0
   12.2383   -1.9278   22.4526 C   0  0  0  0  0  0  0  0  0  0  0  0
   12.8822   -2.0194   21.1920 O   0  0  0  0  0  0  0  0  0  0  0  0
    8.5130   -2.1039   21.4475 C   0  0  0  0  0  0  0  0  0  0  0  0
    7.7021   -3.0364   22.3138 C   0  0  0  0  0  0  0  0  0  0  0  0
    6.6663   -4.0032   21.9508 C   0  0  0  0  0  0  0  0  0  0  0  0
    6.3177   -4.1861   20.7892 O   0  0  0  0  0  0  0  0  0  0  0  0
    6.0727   -4.7390   23.0884 C   0  0  0  0  0  0  0  0  0  0  0  0
    5.0756   -5.6946   22.9053 C   0  0  0  0  0  0  0  0  0  0  0  0
    4.5498   -6.3598   23.9969 C   0  0  0  0  0  0  0  0  0  0  0  0
    3.3081   -7.5385   23.7269 Cl  0  0  0  0  0  0  0  0  0  0  0  0
    7.6727   -1.1484   20.6140 C   0  0  0  0  0  0  0  0  0  0  0  0
    6.4619   -0.6664   21.0911 C   0  0  0  0  0  0  0  0  0  0  0  0
    5.6936    0.2053   20.3400 C   0  0  0  0  0  0  0  0  0  0  0  0
    6.1455    0.5974   19.0991 C   0  0  0  0  0  0  0  0  0  0  0  0
    5.1852    1.6939   18.1464 Cl  0  0  0  0  0  0  0  0  0  0  0  0
    7.3438    0.1373   18.5984 C   0  0  0  0  0  0  0  0  0  0  0  0
    8.1012   -0.7340   19.3609 C   0  0  0  0  0  0  0  0  0  0  0  0
  1  2  1  0
  2  3  2  0
  3  4  1  0
  4  5  1  0
  5  6  1  0
  6  7  1  0
  7  8  2  0
  7  9  1  0
  9 10  1  0
 10 11  1  0
 11 12  1  0
 12 13  1  0
  9 14  1  0
 14 15  1  0
 15 16  1  0
 16 17  2  0
 16 18  1  0
 18 19  1  0
 19 20  2  0
 20 21  1  0
 14 22  1  0
 22 23  2  0
 23 24  1  0
 24 25  2  0
 25 26  1  0
 25 27  1  0
 27 28  2  0
 20  2  1  0
 28 22  1  0
 18  4  2  0
 15  6  2  0
M  END
