CVD-0002855|dock_bobby27042020.75|mol2|38|dock1
     RDKit          3D

 23 25  0  0  0  0  0  0  0  0999 V2000
   11.9026   -1.4034   21.4199 N   0  0  0  0  0  0  0  0  0  0  0  0
   10.8742   -1.0542   22.5961 S   0  0  0  0  0  0  0  0  0  0  0  0
   10.5445   -2.2850   23.2498 O   0  0  0  0  0  0  0  0  0  0  0  0
   11.4554    0.0040   23.3665 O   0  0  0  0  0  0  0  0  0  0  0  0
    9.3889   -0.4262   21.8731 C   0  0  0  0  0  0  0  0  0  0  0  0
    9.0864    0.9172   21.9983 C   0  0  0  0  0  0  0  0  0  0  0  0
    7.9367    1.3946   21.4055 C   0  0  0  0  0  0  0  0  0  0  0  0
    7.0878    0.5559   20.6923 C   0  0  0  0  0  0  0  0  0  0  0  0
    5.9061    1.0559   19.9148 C   0  0  0  0  0  0  0  0  0  0  0  0
    5.9586    0.4212   18.5230 C   0  0  0  0  0  0  0  0  0  0  0  0
    5.9042   -1.1043   18.5922 C   0  0  0  0  0  0  0  0  0  0  0  0
    6.4850   -1.6265   19.8530 N   0  0  0  0  0  0  0  0  0  0  0  0
    6.0671   -2.8967   20.2629 C   0  0  0  0  0  0  0  0  0  0  0  0
    5.5495   -3.6189   19.4266 O   0  0  0  0  0  0  0  0  0  0  0  0
    6.2119   -3.4007   21.5347 N   0  0  0  0  0  0  0  0  0  0  0  0
    6.4322   -2.6079   22.7484 C   0  0  0  0  0  0  0  0  0  0  0  0
    5.4093   -2.9568   23.8107 C   0  0  0  0  0  0  0  0  0  0  0  0
    5.3533   -4.4567   24.0923 C   0  0  0  0  0  0  0  0  0  0  0  0
    4.3231   -4.8078   25.0200 O   0  0  0  0  0  0  0  0  0  0  0  0
    5.2181   -5.2243   22.7834 C   0  0  0  0  0  0  0  0  0  0  0  0
    6.2755   -4.8382   21.7729 C   0  0  0  0  0  0  0  0  0  0  0  0
    7.3996   -0.8070   20.5685 C   0  0  0  0  0  0  0  0  0  0  0  0
    8.5640   -1.2933   21.1681 C   0  0  0  0  0  0  0  0  0  0  0  0
  1  2  1  0
  2  3  2  0
  2  4  2  0
  2  5  1  0
  5  6  2  0
  6  7  1  0
  7  8  2  0
  8  9  1  0
  9 10  1  0
 10 11  1  0
 11 12  1  0
 12 13  1  0
 13 14  2  0
 13 15  1  0
 15 16  1  0
 16 17  1  0
 17 18  1  0
 18 19  1  0
 18 20  1  0
 20 21  1  0
 12 22  1  0
 22 23  2  0
 23  5  1  0
 22  8  1  0
 21 15  1  0
M  END
