CVD-0001583|dock_bobby27042020.9|mol2|17|dock1
     RDKit          3D

 15 16  0  0  0  0  0  0  0  0999 V2000
   12.8278    5.9364   23.4332 C   0  0  0  0  0  0  0  0  0  0  0  0
   13.7076    5.0466   22.6836 N   0  0  0  0  0  0  0  0  0  0  0  0
   14.3983    5.8040   21.6462 C   0  0  0  0  0  0  0  0  0  0  0  0
   12.9551    3.9410   22.0953 C   0  0  0  0  0  0  0  0  0  0  0  0
   12.0001    3.2675   23.0658 C   0  0  0  0  0  0  0  0  0  0  0  0
   11.4781    1.9596   22.5474 C   0  0  0  0  0  0  0  0  0  0  0  0
   10.3308    1.7455   21.8415 C   0  0  0  0  0  0  0  0  0  0  0  0
   10.1947    0.4165   21.5453 N   0  0  0  0  0  0  0  0  0  0  0  0
   11.2686   -0.2659   22.0622 C   0  0  0  0  0  0  0  0  0  0  0  0
   11.5963   -1.6171   22.0336 C   0  0  0  0  0  0  0  0  0  0  0  0
   12.7633   -2.0388   22.6475 C   0  0  0  0  0  0  0  0  0  0  0  0
   13.5930   -1.1248   23.2816 C   0  0  0  0  0  0  0  0  0  0  0  0
   14.7401   -1.5546   23.8825 O   0  0  0  0  0  0  0  0  0  0  0  0
   13.2672    0.2244   23.3110 C   0  0  0  0  0  0  0  0  0  0  0  0
   12.0982    0.6746   22.7006 C   0  0  0  0  0  0  0  0  0  0  0  0
  1  2  1  0
  2  3  1  0
  2  4  1  0
  4  5  1  0
  5  6  1  0
  6  7  2  0
  7  8  1  0
  8  9  1  0
  9 10  2  0
 10 11  1  0
 11 12  2  0
 12 13  1  0
 12 14  1  0
 14 15  2  0
 15  6  1  0
 15  9  1  0
M  END
