CVD-0001553|dock_bobby27042020.52|mol2|18|dock1
     RDKit          3D

 22 23  0  0  0  0  0  0  0  0999 V2000
   13.1193    4.0514   20.3409 F   0  0  0  0  0  0  0  0  0  0  0  0
   13.1873    4.8678   21.6129 S   0  0  0  0  0  0  0  0  0  0  0  0
   14.1702    5.8730   21.4170 O   0  0  0  0  0  0  0  0  0  0  0  0
   11.8636    5.2753   21.9239 O   0  0  0  0  0  0  0  0  0  0  0  0
   13.7479    3.7688   22.8679 C   0  0  0  0  0  0  0  0  0  0  0  0
   13.0063    2.4641   22.7609 C   0  0  0  0  0  0  0  0  0  0  0  0
   13.6825    1.2803   22.5122 C   0  0  0  0  0  0  0  0  0  0  0  0
   13.0007    0.0802   22.4167 C   0  0  0  0  0  0  0  0  0  0  0  0
   11.6238    0.0297   22.5672 C   0  0  0  0  0  0  0  0  0  0  0  0
   10.8801   -1.2807   22.4661 C   0  0  0  0  0  0  0  0  0  0  0  0
    9.4336   -1.1161   22.2617 N   0  0  0  0  0  0  0  0  0  0  0  0
    8.7394   -2.3919   22.4597 C   0  0  0  0  0  0  0  0  0  0  0  0
    7.2430   -2.2078   22.2880 C   0  0  0  0  0  0  0  0  0  0  0  0
    6.9429   -1.6693   20.9595 N   0  0  0  0  0  0  0  0  0  0  0  0
    7.6704   -0.4216   20.7070 C   0  0  0  0  0  0  0  0  0  0  0  0
    9.1599   -0.6291   20.9121 C   0  0  0  0  0  0  0  0  0  0  0  0
    6.0770   -2.2585   20.1103 C   0  0  0  0  0  0  0  0  0  0  0  0
    5.4775   -3.2848   20.4055 O   0  0  0  0  0  0  0  0  0  0  0  0
    5.8865   -1.5879   18.7639 C   0  0  0  0  0  0  0  0  0  0  0  0
    5.1200   -0.0053   18.9504 Cl  0  0  0  0  0  0  0  0  0  0  0  0
   10.9486    1.2137   22.8187 C   0  0  0  0  0  0  0  0  0  0  0  0
   11.6299    2.4140   22.9142 C   0  0  0  0  0  0  0  0  0  0  0  0
  1  2  1  0
  2  3  2  0
  2  4  2  0
  2  5  1  0
  5  6  1  0
  6  7  2  0
  7  8  1  0
  8  9  2  0
  9 10  1  0
 10 11  1  0
 11 12  1  0
 12 13  1  0
 13 14  1  0
 14 15  1  0
 15 16  1  0
 14 17  1  0
 17 18  2  0
 17 19  1  0
 19 20  1  0
  9 21  1  0
 21 22  2  0
 22  6  1  0
 16 11  1  0
M  END
