CVD-0002184|dock_bobby27042020.49|mol2|37|dock2
     RDKit          3D

 31 34  0  0  0  0  0  0  0  0999 V2000
    2.6586    2.1819   23.6655 F   0  0  0  0  0  0  0  0  0  0  0  0
    3.0465    1.9909   22.3757 C   0  0  0  0  0  0  0  0  0  0  0  0
    2.1274    2.2120   21.3838 C   0  0  0  0  0  0  0  0  0  0  0  0
    2.5087    2.0216   20.0671 C   0  0  0  0  0  0  0  0  0  0  0  0
    3.8095    1.6130   19.7945 C   0  0  0  0  0  0  0  0  0  0  0  0
    4.4436    1.3535   18.6043 N   0  0  0  0  0  0  0  0  0  0  0  0
    5.7338    0.9785   18.8628 C   0  0  0  0  0  0  0  0  0  0  0  0
    5.9692    0.9841   20.2061 C   0  0  0  0  0  0  0  0  0  0  0  0
    7.2488    0.6378   20.9093 C   0  0  0  0  0  0  0  0  0  0  0  0
    7.7353   -0.7635   20.5979 C   0  0  0  0  0  0  0  0  0  0  0  0
    9.1422   -0.9363   20.9303 N   0  0  0  0  0  0  0  0  0  0  0  0
    9.5844   -0.7550   22.1800 C   0  0  0  0  0  0  0  0  0  0  0  0
    8.7658   -0.5661   23.0750 O   0  0  0  0  0  0  0  0  0  0  0  0
   11.0658   -0.7859   22.4766 C   0  0  0  0  0  0  0  0  0  0  0  0
   11.7318   -2.0125   22.3781 C   0  0  0  0  0  0  0  0  0  0  0  0
   13.0818   -2.1155   22.6519 C   0  0  0  0  0  0  0  0  0  0  0  0
   13.7994   -0.9999   23.0068 C   0  0  0  0  0  0  0  0  0  0  0  0
   13.1814    0.2340   23.0976 C   0  0  0  0  0  0  0  0  0  0  0  0
   11.8126    0.3667   22.8442 C   0  0  0  0  0  0  0  0  0  0  0  0
   11.1491    1.6225   22.9486 N   0  0  0  0  0  0  0  0  0  0  0  0
   11.5856    2.8912   22.6471 C   0  0  0  0  0  0  0  0  0  0  0  0
   12.6866    3.2087   22.2071 O   0  0  0  0  0  0  0  0  0  0  0  0
   10.6058    3.8131   22.9056 N   0  0  0  0  0  0  0  0  0  0  0  0
    9.8905    5.0287   23.0344 C   0  0  0  0  0  0  0  0  0  0  0  0
    8.5382    5.0604   22.7202 C   0  0  0  0  0  0  0  0  0  0  0  0
    7.8362    6.2462   22.8448 C   0  0  0  0  0  0  0  0  0  0  0  0
    8.5069    7.3655   23.2801 C   0  0  0  0  0  0  0  0  0  0  0  0
    9.8038    7.3668   23.5893 N   0  0  0  0  0  0  0  0  0  0  0  0
   10.4769    6.2184   23.4669 C   0  0  0  0  0  0  0  0  0  0  0  0
    4.7406    1.3907   20.8264 C   0  0  0  0  0  0  0  0  0  0  0  0
    4.3405    1.5870   22.1473 C   0  0  0  0  0  0  0  0  0  0  0  0
  1  2  1  0
  2  3  2  0
  3  4  1  0
  4  5  2  0
  5  6  1  0
  6  7  1  0
  7  8  2  0
  8  9  1  0
  9 10  1  0
 10 11  1  0
 11 12  1  0
 12 13  2  0
 12 14  1  0
 14 15  2  0
 15 16  1  0
 16 17  2  0
 17 18  1  0
 18 19  2  0
 19 20  1  0
 20 21  1  0
 21 22  2  0
 21 23  1  0
 23 24  1  0
 24 25  2  0
 25 26  1  0
 26 27  2  0
 27 28  1  0
 28 29  2  0
  8 30  1  0
 30 31  2  0
 31  2  1  0
 30  5  1  0
 19 14  1  0
 29 24  1  0
M  END
