CVD-0000769|dock_bobby27042020.55|mol2|2|dock1
     RDKit          3D

 22 24  0  0  0  0  0  0  0  0999 V2000
   13.7658   -1.9012   22.6351 C   0  0  0  0  0  0  0  0  0  0  0  0
   13.5806   -0.8070   23.6758 C   0  0  0  0  0  0  0  0  0  0  0  0
   12.5402    0.2475   23.3575 C   0  0  0  0  0  0  0  0  0  0  0  0
   12.8138    1.4688   22.8878 C   0  0  0  0  0  0  0  0  0  0  0  0
   11.8827    2.4012   22.5692 N   0  0  0  0  0  0  0  0  0  0  0  0
   12.1858    3.7574   22.1092 C   0  0  0  0  0  0  0  0  0  0  0  0
   13.3068    4.4381   22.8685 C   0  0  0  0  0  0  0  0  0  0  0  0
   13.4090    5.8588   22.5385 N   0  0  0  0  0  0  0  0  0  0  0  0
   14.1049    6.0782   21.2678 C   0  0  0  0  0  0  0  0  0  0  0  0
   10.4379    2.1103   22.6907 C   0  0  0  0  0  0  0  0  0  0  0  0
   10.2356    0.5832   22.5909 C   0  0  0  0  0  0  0  0  0  0  0  0
   11.1085   -0.1619   23.6029 C   0  0  0  0  0  0  0  0  0  0  0  0
    8.7726    0.2099   22.7045 C   0  0  0  0  0  0  0  0  0  0  0  0
    7.9623    0.4380   23.9432 C   0  0  0  0  0  0  0  0  0  0  0  0
    8.3706   -0.9528   23.5653 C   0  0  0  0  0  0  0  0  0  0  0  0
    8.0350    0.3572   21.4182 C   0  0  0  0  0  0  0  0  0  0  0  0
    8.0658   -0.6068   20.4226 C   0  0  0  0  0  0  0  0  0  0  0  0
    7.3496   -0.3885   19.2601 C   0  0  0  0  0  0  0  0  0  0  0  0
    6.6329    0.7803   19.1385 C   0  0  0  0  0  0  0  0  0  0  0  0
    5.7173    1.0951   17.6910 Cl  0  0  0  0  0  0  0  0  0  0  0  0
    6.6470    1.6943   20.1687 C   0  0  0  0  0  0  0  0  0  0  0  0
    7.3366    1.4925   21.2975 N   0  0  0  0  0  0  0  0  0  0  0  0
  1  2  1  0
  2  3  1  0
  3  4  2  0
  4  5  1  0
  5  6  1  0
  6  7  1  0
  7  8  1  0
  8  9  1  0
  5 10  1  0
 10 11  1  0
 11 12  1  0
 11 13  1  0
 13 14  1  0
 14 15  1  0
 13 16  1  0
 16 17  2  0
 17 18  1  0
 18 19  2  0
 19 20  1  0
 19 21  1  0
 21 22  2  0
 12  3  1  0
 15 13  1  0
 22 16  1  0
M  END
