CVD-0003831|dock_bobby27042020.86|mol2|34|dock1
     RDKit          3D

 29 32  0  0  0  0  0  0  0  0999 V2000
    7.9863   -3.9727   25.0092 C   0  0  0  0  0  0  0  0  0  0  0  0
    7.9316   -3.4789   23.6267 N   0  0  0  0  0  0  0  0  0  0  0  0
    7.2454   -4.4080   22.7075 C   0  0  0  0  0  0  0  0  0  0  0  0
    6.9952   -5.8344   23.2452 C   0  0  0  0  0  0  0  0  0  0  0  0
    5.5660   -5.8435   23.8415 C   0  0  0  0  0  0  0  0  0  0  0  0
    5.0011   -4.4446   23.6107 C   0  0  0  0  0  0  0  0  0  0  0  0
    5.7892   -3.9024   22.4177 C   0  0  0  0  0  0  0  0  0  0  0  0
    5.6796   -2.4251   22.0891 C   0  0  0  0  0  0  0  0  0  0  0  0
    5.7750   -1.4568   23.0802 C   0  0  0  0  0  0  0  0  0  0  0  0
    5.6764   -0.1110   22.7681 C   0  0  0  0  0  0  0  0  0  0  0  0
    5.4805    0.2858   21.4629 C   0  0  0  0  0  0  0  0  0  0  0  0
    5.3833   -0.6633   20.4685 C   0  0  0  0  0  0  0  0  0  0  0  0
    5.4822   -2.0091   20.7795 C   0  0  0  0  0  0  0  0  0  0  0  0
    9.2111   -2.8737   23.1628 C   0  0  0  0  0  0  0  0  0  0  0  0
    8.9937   -1.8728   22.0716 C   0  0  0  0  0  0  0  0  0  0  0  0
   10.2747   -1.1792   21.6375 C   0  0  0  0  0  0  0  0  0  0  0  0
   10.9585   -0.6193   22.7927 N   0  0  0  0  0  0  0  0  0  0  0  0
   11.2503   -1.5765   23.8529 C   0  0  0  0  0  0  0  0  0  0  0  0
    9.9507   -2.2245   24.3219 C   0  0  0  0  0  0  0  0  0  0  0  0
   11.4961    0.6636   22.7811 C   0  0  0  0  0  0  0  0  0  0  0  0
   10.6756    1.7880   22.7971 C   0  0  0  0  0  0  0  0  0  0  0  0
   11.2043    3.0665   22.7782 C   0  0  0  0  0  0  0  0  0  0  0  0
   12.5762    3.2394   22.7556 C   0  0  0  0  0  0  0  0  0  0  0  0
   13.4144    2.1394   22.7484 C   0  0  0  0  0  0  0  0  0  0  0  0
   12.8731    0.8662   22.7534 C   0  0  0  0  0  0  0  0  0  0  0  0
   13.2597    4.8691   22.7464 S   0  0  0  0  0  0  0  0  0  0  0  0
   13.4299    5.3393   21.2255 N   0  0  0  0  0  0  0  0  0  0  0  0
   12.2980    5.7395   23.3536 O   0  0  0  0  0  0  0  0  0  0  0  0
   14.5722    4.7856   23.3132 O   0  0  0  0  0  0  0  0  0  0  0  0
  1  2  1  0
  3  2  1  0
  3  4  1  0
  4  5  1  0
  5  6  1  0
  6  7  1  0
  7  8  1  0
  8  9  2  0
  9 10  1  0
 10 11  2  0
 11 12  1  0
 12 13  2  0
  2 14  1  0
 14 15  1  0
 15 16  1  0
 16 17  1  0
 17 18  1  0
 18 19  1  0
 17 20  1  0
 20 21  2  0
 21 22  1  0
 22 23  2  0
 23 24  1  0
 24 25  2  0
 23 26  1  0
 26 27  1  0
 26 28  2  0
 26 29  2  0
  7  3  1  0
 13  8  1  0
 19 14  1  0
 25 20  1  0
M  END
