CVD-0002788|dock_bobby27042020.76|mol2|6|dock1
     RDKit          3D

 25 28  0  0  0  0  0  0  0  0999 V2000
    8.4543   -1.1314   21.0477 O   0  0  0  0  0  0  0  0  0  0  0  0
    8.6817   -1.5239   22.1877 C   0  0  0  0  0  0  0  0  0  0  0  0
    9.4179   -0.6487   23.1783 C   0  0  0  0  0  0  0  0  0  0  0  0
   10.8213   -1.1582   23.5210 C   0  0  0  0  0  0  0  0  0  0  0  0
   11.5148   -0.2353   24.5440 C   0  0  0  0  0  0  0  0  0  0  0  0
   12.9445   -0.6765   24.8517 C   0  0  0  0  0  0  0  0  0  0  0  0
   13.7695   -0.8116   23.5785 C   0  0  0  0  0  0  0  0  0  0  0  0
   13.0969   -1.7481   22.5850 C   0  0  0  0  0  0  0  0  0  0  0  0
   11.6842   -1.2784   22.2533 C   0  0  0  0  0  0  0  0  0  0  0  0
    8.3259   -2.7287   22.6977 N   0  0  0  0  0  0  0  0  0  0  0  0
    7.6361   -3.8126   22.0932 C   0  0  0  0  0  0  0  0  0  0  0  0
    7.9624   -5.1381   22.3875 C   0  0  0  0  0  0  0  0  0  0  0  0
    7.2307   -6.1672   21.8230 C   0  0  0  0  0  0  0  0  0  0  0  0
    6.1767   -5.8525   21.0027 C   0  0  0  0  0  0  0  0  0  0  0  0
    5.8330   -4.5977   20.6971 N   0  0  0  0  0  0  0  0  0  0  0  0
    6.5808   -3.5876   21.1746 C   0  0  0  0  0  0  0  0  0  0  0  0
    6.1431   -2.3163   20.6057 C   0  0  0  0  0  0  0  0  0  0  0  0
    5.9613   -1.8759   19.3407 C   0  0  0  0  0  0  0  0  0  0  0  0
    5.5117   -0.5196   19.4274 C   0  0  0  0  0  0  0  0  0  0  0  0
    5.1560    0.4841   18.5124 C   0  0  0  0  0  0  0  0  0  0  0  0
    4.7511    1.7301   18.9657 C   0  0  0  0  0  0  0  0  0  0  0  0
    4.6928    1.9976   20.3195 C   0  0  0  0  0  0  0  0  0  0  0  0
    5.0390    1.0230   21.2422 C   0  0  0  0  0  0  0  0  0  0  0  0
    5.4430   -0.2203   20.7777 C   0  0  0  0  0  0  0  0  0  0  0  0
    5.8264   -1.3180   21.5223 O   0  0  0  0  0  0  0  0  0  0  0  0
  1  2  2  0
  2  3  1  0
  3  4  1  0
  4  5  1  0
  5  6  1  0
  6  7  1  0
  7  8  1  0
  8  9  1  0
  2 10  1  0
 10 11  1  0
 11 12  2  0
 12 13  1  0
 13 14  2  0
 14 15  1  0
 15 16  2  0
 16 17  1  0
 17 18  2  0
 18 19  1  0
 19 20  2  0
 20 21  1  0
 21 22  2  0
 22 23  1  0
 23 24  2  0
 24 25  1  0
  9  4  1  0
 16 11  1  0
 25 17  1  0
 24 19  1  0
M  END
