CVD-0003191|dock_bobby27042020.88|mol2|40|dock3
     RDKit          3D

 26 27  0  0  0  0  0  0  0  0999 V2000
   13.3147   -0.5586   24.6618 C   0  0  0  0  0  0  0  0  0  0  0  0
   12.5287   -1.0984   23.4672 C   0  0  0  0  0  0  0  0  0  0  0  0
   12.5995   -0.1440   22.2580 C   0  0  0  0  0  0  0  0  0  0  0  0
   12.1590    1.2716   22.5428 C   0  0  0  0  0  0  0  0  0  0  0  0
   10.8137    1.6059   22.5605 C   0  0  0  0  0  0  0  0  0  0  0  0
   10.4094    2.9051   22.8185 C   0  0  0  0  0  0  0  0  0  0  0  0
   11.3463    3.8864   23.0612 C   0  0  0  0  0  0  0  0  0  0  0  0
   12.6872    3.5682   23.0453 C   0  0  0  0  0  0  0  0  0  0  0  0
   13.0907    2.2688   22.7872 C   0  0  0  0  0  0  0  0  0  0  0  0
   11.1332   -1.3195   23.9088 N   0  0  0  0  0  0  0  0  0  0  0  0
   10.1277   -1.8755   23.1476 C   0  0  0  0  0  0  0  0  0  0  0  0
   10.4077   -2.2618   22.0194 O   0  0  0  0  0  0  0  0  0  0  0  0
    8.8506   -1.9973   23.6375 N   0  0  0  0  0  0  0  0  0  0  0  0
    7.9358   -2.9569   23.0065 C   0  0  0  0  0  0  0  0  0  0  0  0
    7.2998   -3.9671   23.9480 C   0  0  0  0  0  0  0  0  0  0  0  0
    8.2677   -4.7772   24.7948 C   0  0  0  0  0  0  0  0  0  0  0  0
    9.0189   -4.0296   25.8800 C   0  0  0  0  0  0  0  0  0  0  0  0
    8.1182   -3.3327   26.8069 N   0  0  0  0  0  0  0  0  0  0  0  0
    7.8616   -1.7446   26.8187 S   0  0  0  0  0  0  0  0  0  0  0  0
    6.8344   -1.5532   27.7979 O   0  0  0  0  0  0  0  0  0  0  0  0
    9.1347   -1.1449   27.0833 O   0  0  0  0  0  0  0  0  0  0  0  0
    7.2496   -0.9834   25.3363 C   0  0  0  0  0  0  0  0  0  0  0  0
    8.2216   -0.7862   24.1787 C   0  0  0  0  0  0  0  0  0  0  0  0
   13.0558   -2.4761   23.0666 C   0  0  0  0  0  0  0  0  0  0  0  0
   12.4994   -3.4398   23.8315 F   0  0  0  0  0  0  0  0  0  0  0  0
   14.3938   -2.5418   23.2360 F   0  0  0  0  0  0  0  0  0  0  0  0
  1  2  1  0
  2  3  1  0
  3  4  1  0
  4  5  2  0
  5  6  1  0
  6  7  2  0
  7  8  1  0
  8  9  2  0
  2 10  1  0
 10 11  1  0
 11 12  2  0
 11 13  1  0
 13 14  1  0
 14 15  1  0
 15 16  1  0
 16 17  1  0
 17 18  1  0
 18 19  1  0
 19 20  2  0
 19 21  2  0
 19 22  1  0
 22 23  1  0
  2 24  1  0
 24 25  1  0
 24 26  1  0
  9  4  1  0
 23 13  1  0
M  END
