CVD-0004022|dock_bobby27042020.57|mol2|42|dock2
     RDKit          3D

 41 43  0  0  0  0  0  0  0  0999 V2000
    6.6540   -0.0667   19.1593 C   0  0  0  0  0  0  0  0  0  0  0  0
    5.9239    1.1948   19.5891 C   0  0  0  0  0  0  0  0  0  0  0  0
    4.6464    1.3328   18.7793 C   0  0  0  0  0  0  0  0  0  0  0  0
    5.5800    1.1920   21.0785 C   0  0  0  0  0  0  0  0  0  0  0  0
    6.5929    1.8214   22.0397 C   0  0  0  0  0  0  0  0  0  0  0  0
    6.5875    3.2720   21.9442 N   0  0  0  0  0  0  0  0  0  0  0  0
    7.1689    4.0278   22.9013 C   0  0  0  0  0  0  0  0  0  0  0  0
    7.6571    3.5378   23.9163 O   0  0  0  0  0  0  0  0  0  0  0  0
    7.1779    5.3553   22.6688 N   0  0  0  0  0  0  0  0  0  0  0  0
    7.7709    6.2895   23.6144 C   0  0  0  0  0  0  0  0  0  0  0  0
    9.2696    6.1507   23.7303 C   0  0  0  0  0  0  0  0  0  0  0  0
    9.8948    6.2223   24.9656 C   0  0  0  0  0  0  0  0  0  0  0  0
   11.2701    6.0984   25.0719 C   0  0  0  0  0  0  0  0  0  0  0  0
   12.0367    5.9021   23.9435 C   0  0  0  0  0  0  0  0  0  0  0  0
   11.4280    5.8303   22.7090 C   0  0  0  0  0  0  0  0  0  0  0  0
   10.0528    5.9544   22.6033 C   0  0  0  0  0  0  0  0  0  0  0  0
    7.9860    1.2843   21.7247 C   0  0  0  0  0  0  0  0  0  0  0  0
    8.7942    1.9748   21.1097 O   0  0  0  0  0  0  0  0  0  0  0  0
    8.2611    0.0479   22.1496 N   0  0  0  0  0  0  0  0  0  0  0  0
    9.5540   -0.5718   21.9094 C   0  0  0  0  0  0  0  0  0  0  0  0
   10.4896   -0.2740   23.0844 C   0  0  0  0  0  0  0  0  0  0  0  0
   11.9925   -0.3643   22.7819 C   0  0  0  0  0  0  0  0  0  0  0  0
   12.4825   -1.7640   22.3603 C   0  0  0  0  0  0  0  0  0  0  0  0
   13.8258   -1.9510   23.0534 C   0  0  0  0  0  0  0  0  0  0  0  0
   13.7912   -0.9574   24.1096 N   0  0  0  0  0  0  0  0  0  0  0  0
   12.8420   -0.0271   23.9794 C   0  0  0  0  0  0  0  0  0  0  0  0
   12.6703    0.9231   24.7384 O   0  0  0  0  0  0  0  0  0  0  0  0
    9.3297   -2.0687   21.7188 C   0  0  0  0  0  0  0  0  0  0  0  0
    9.8201   -2.6815   20.7861 O   0  0  0  0  0  0  0  0  0  0  0  0
    8.4404   -2.7881   22.7516 C   0  0  0  0  0  0  0  0  0  0  0  0
    8.4437   -2.4391   23.9306 O   0  0  0  0  0  0  0  0  0  0  0  0
    7.7097   -3.7890   22.2011 N   0  0  0  0  0  0  0  0  0  0  0  0
    6.7810   -4.6803   22.8017 C   0  0  0  0  0  0  0  0  0  0  0  0
    6.6089   -4.8169   24.1803 C   0  0  0  0  0  0  0  0  0  0  0  0
    5.6769   -5.7137   24.6791 C   0  0  0  0  0  0  0  0  0  0  0  0
    5.5044   -5.8516   26.0194 O   0  0  0  0  0  0  0  0  0  0  0  0
    4.9244   -6.4670   23.7920 C   0  0  0  0  0  0  0  0  0  0  0  0
    4.0202   -7.3366   24.2982 F   0  0  0  0  0  0  0  0  0  0  0  0
    5.0617   -6.3638   22.4346 C   0  0  0  0  0  0  0  0  0  0  0  0
    5.9909   -5.4689   21.9730 C   0  0  0  0  0  0  0  0  0  0  0  0
    6.1386   -5.3553   20.6328 F   0  0  0  0  0  0  0  0  0  0  0  0
  1  2  1  0
  2  3  1  0
  2  4  1  0
  5  4  1  0
  5  6  1  0
  6  7  1  0
  7  8  2  0
  7  9  1  0
  9 10  1  0
 10 11  1  0
 11 12  2  0
 12 13  1  0
 13 14  2  0
 14 15  1  0
 15 16  2  0
  5 17  1  0
 17 18  2  0
 17 19  1  0
 19 20  1  0
 20 21  1  0
 22 21  1  0
 22 23  1  0
 23 24  1  0
 24 25  1  0
 25 26  1  0
 26 27  2  0
 20 28  1  0
 28 29  2  0
 28 30  1  0
 30 31  2  0
 30 32  1  0
 32 33  1  0
 33 34  2  0
 34 35  1  0
 35 36  1  0
 35 37  2  0
 37 38  1  0
 37 39  1  0
 39 40  2  0
 40 41  1  0
 16 11  1  0
 26 22  1  0
 40 33  1  0
M  END
