CVD-0004059|dock_bobby27042020.71|mol2|45|dock1
     RDKit          3D

 24 27  0  0  0  0  0  0  0  0999 V2000
    6.3292   -1.1595   19.9997 C   0  0  0  0  0  0  0  0  0  0  0  0
    7.6396   -0.9287   20.6839 C   0  0  0  0  0  0  0  0  0  0  0  0
    8.3300   -2.0091   21.2872 C   0  0  0  0  0  0  0  0  0  0  0  0
    9.5092   -1.7697   21.9002 C   0  0  0  0  0  0  0  0  0  0  0  0
   10.0102   -0.4506   21.9206 C   0  0  0  0  0  0  0  0  0  0  0  0
   11.1419    0.2108   22.4145 C   0  0  0  0  0  0  0  0  0  0  0  0
   10.9352    1.5806   22.0519 C   0  0  0  0  0  0  0  0  0  0  0  0
    9.8092    1.7231   21.3503 N   0  0  0  0  0  0  0  0  0  0  0  0
    9.2681    0.4993   21.3057 N   0  0  0  0  0  0  0  0  0  0  0  0
    8.0856    0.2992   20.6836 N   0  0  0  0  0  0  0  0  0  0  0  0
   11.6966    2.8215   22.3131 C   0  0  0  0  0  0  0  0  0  0  0  0
   11.0028    4.0098   22.5171 C   0  0  0  0  0  0  0  0  0  0  0  0
   11.6697    5.2006   22.7431 C   0  0  0  0  0  0  0  0  0  0  0  0
   13.0369    5.1851   22.7657 C   0  0  0  0  0  0  0  0  0  0  0  0
   13.6997    6.3550   22.9727 F   0  0  0  0  0  0  0  0  0  0  0  0
   13.7650    4.0407   22.5902 C   0  0  0  0  0  0  0  0  0  0  0  0
   13.0863    2.8535   22.3789 C   0  0  0  0  0  0  0  0  0  0  0  0
   12.2643   -0.4708   23.1333 C   0  0  0  0  0  0  0  0  0  0  0  0
   12.7928   -1.6913   22.7376 C   0  0  0  0  0  0  0  0  0  0  0  0
   13.7968   -2.3068   23.3711 N   0  0  0  0  0  0  0  0  0  0  0  0
   14.2794   -1.6872   24.4702 C   0  0  0  0  0  0  0  0  0  0  0  0
   15.2735   -2.2866   25.1292 N   0  0  0  0  0  0  0  0  0  0  0  0
   13.8329   -0.5073   24.9533 N   0  0  0  0  0  0  0  0  0  0  0  0
   12.8459    0.0786   24.2668 C   0  0  0  0  0  0  0  0  0  0  0  0
  1  2  1  0
  2  3  1  0
  3  4  2  0
  4  5  1  0
  5  6  2  0
  6  7  1  0
  7  8  2  0
  8  9  1  0
  9 10  1  0
  7 11  1  0
 11 12  2  0
 12 13  1  0
 13 14  2  0
 14 15  1  0
 14 16  1  0
 16 17  2  0
  6 18  1  0
 18 19  2  0
 19 20  1  0
 20 21  2  0
 21 22  1  0
 21 23  1  0
 23 24  2  0
 10  2  2  0
 17 11  1  0
 24 18  1  0
  9  5  1  0
M  END
