CVD-0002540|dock_bobby27042020.34|mol2|6|dock2
     RDKit          3D

 23 26  0  0  0  0  0  0  0  0999 V2000
   13.4734    0.1694   22.2600 C   0  0  0  0  0  0  0  0  0  0  0  0
   12.3806   -0.9937   22.6705 S   0  0  0  0  0  0  0  0  0  0  0  0
   12.8893   -1.8421   21.3527 C   0  0  0  0  0  0  0  0  0  0  0  0
   10.8111   -0.6702   22.9673 N   0  0  0  0  0  0  0  0  0  0  0  0
   10.4779    0.2941   24.0544 C   0  0  0  0  0  0  0  0  0  0  0  0
    9.1930   -0.0244   24.7888 C   0  0  0  0  0  0  0  0  0  0  0  0
    8.3056   -0.3387   23.6875 N   0  0  0  0  0  0  0  0  0  0  0  0
    8.5758   -1.6626   23.1659 C   0  0  0  0  0  0  0  0  0  0  0  0
    9.7748   -1.4927   22.2829 C   0  0  0  0  0  0  0  0  0  0  0  0
    9.3674   -0.9668   20.9864 N   0  0  0  0  0  0  0  0  0  0  0  0
    8.1119   -0.3736   20.7267 C   0  0  0  0  0  0  0  0  0  0  0  0
    7.6956   -0.5051   19.4077 C   0  0  0  0  0  0  0  0  0  0  0  0
    6.5341   -0.0234   18.9528 N   0  0  0  0  0  0  0  0  0  0  0  0
    5.7432    0.6179   19.8138 C   0  0  0  0  0  0  0  0  0  0  0  0
    6.0591    0.8236   21.1413 C   0  0  0  0  0  0  0  0  0  0  0  0
    7.2694    0.3268   21.6180 C   0  0  0  0  0  0  0  0  0  0  0  0
    7.6054    0.6104   23.0443 C   0  0  0  0  0  0  0  0  0  0  0  0
    7.2952    1.6722   23.5559 O   0  0  0  0  0  0  0  0  0  0  0  0
   13.0251   -1.8155   24.0857 C   0  0  0  0  0  0  0  0  0  0  0  0
   14.0804   -1.3083   24.9172 C   0  0  0  0  0  0  0  0  0  0  0  0
   14.3939   -2.1430   25.9544 C   0  0  0  0  0  0  0  0  0  0  0  0
   13.4256   -3.5407   25.9392 S   0  0  0  0  0  0  0  0  0  0  0  0
   12.6139   -2.9999   24.5529 C   0  0  0  0  0  0  0  0  0  0  0  0
  1  2  2  0
  2  3  2  0
  2  4  1  0
  4  5  1  0
  5  6  1  0
  6  7  1  0
  7  8  1  0
  8  9  1  0
  9 10  1  0
 10 11  1  0
 11 12  2  0
 12 13  1  0
 13 14  2  0
 14 15  1  0
 15 16  2  0
 16 17  1  0
 17 18  2  0
  2 19  1  0
 19 20  1  0
 20 21  2  0
 21 22  1  0
 22 23  1  0
  9  4  1  0
 16 11  1  0
 23 19  2  0
 17  7  1  0
M  END
