CVD-0003470|dock_bobby27042020.87|mol2|44|dock2
     RDKit          3D

 27 29  0  0  0  0  0  0  0  0999 V2000
    1.7775   -5.3177   24.7229 C   0  0  0  0  0  0  0  0  0  0  0  0
    3.2385   -5.2695   24.7202 N   0  0  0  0  0  0  0  0  0  0  0  0
    3.8058   -5.7075   23.4449 C   0  0  0  0  0  0  0  0  0  0  0  0
    5.3087   -5.6760   23.4975 C   0  0  0  0  0  0  0  0  0  0  0  0
    5.7902   -4.3254   23.8020 N   0  0  0  0  0  0  0  0  0  0  0  0
    7.2594   -4.2769   23.7994 C   0  0  0  0  0  0  0  0  0  0  0  0
    7.8745   -4.5573   22.4381 C   0  0  0  0  0  0  0  0  0  0  0  0
    7.1773   -3.7982   21.3357 C   0  0  0  0  0  0  0  0  0  0  0  0
    6.3246   -4.3446   20.6441 O   0  0  0  0  0  0  0  0  0  0  0  0
    7.5962   -2.5133   21.2231 N   0  0  0  0  0  0  0  0  0  0  0  0
    7.1952   -1.4842   20.3257 C   0  0  0  0  0  0  0  0  0  0  0  0
    6.2241   -1.6678   19.3376 C   0  0  0  0  0  0  0  0  0  0  0  0
    5.8857   -0.6187   18.5011 C   0  0  0  0  0  0  0  0  0  0  0  0
    6.5195    0.5869   18.6662 C   0  0  0  0  0  0  0  0  0  0  0  0
    7.4516    0.7975   19.5994 N   0  0  0  0  0  0  0  0  0  0  0  0
    7.7917   -0.2098   20.4178 C   0  0  0  0  0  0  0  0  0  0  0  0
    8.8512    0.1178   21.4446 C   0  0  0  0  0  0  0  0  0  0  0  0
   10.0724   -0.6467   21.2381 N   0  0  0  0  0  0  0  0  0  0  0  0
   11.0509   -0.6755   22.1644 C   0  0  0  0  0  0  0  0  0  0  0  0
   10.9685   -0.0637   23.2263 O   0  0  0  0  0  0  0  0  0  0  0  0
   12.1258   -1.4226   21.8441 N   0  0  0  0  0  0  0  0  0  0  0  0
   13.2661   -1.5533   22.7421 C   0  0  0  0  0  0  0  0  0  0  0  0
   12.9008   -2.2206   24.0546 C   0  0  0  0  0  0  0  0  0  0  0  0
   14.1089   -1.6378   25.0055 C   0  0  0  0  0  0  0  0  0  0  0  0
   13.7107   -3.0680   25.0696 C   0  0  0  0  0  0  0  0  0  0  0  0
    5.2231   -3.8873   25.0772 C   0  0  0  0  0  0  0  0  0  0  0  0
    3.7200   -3.9188   25.0248 C   0  0  0  0  0  0  0  0  0  0  0  0
  1  2  1  0
  2  3  1  0
  3  4  1  0
  4  5  1  0
  5  6  1  0
  6  7  1  0
  7  8  1  0
  8  9  2  0
  8 10  1  0
 10 11  1  0
 11 12  2  0
 12 13  1  0
 13 14  2  0
 14 15  1  0
 15 16  2  0
 16 17  1  0
 17 18  1  0
 18 19  1  0
 19 20  2  0
 19 21  1  0
 21 22  1  0
 22 23  1  0
 23 24  1  0
 24 25  1  0
  5 26  1  0
 26 27  1  0
 27  2  1  0
 16 11  1  0
 25 23  1  0
M  END
