CVD-0000138|dock_bobby27042020.28|mol2|20|dock3
     RDKit          3D

 18 19  0  0  0  0  0  0  0  0999 V2000
    9.6068   -0.4618   22.9057 O   0  0  0  0  0  0  0  0  0  0  0  0
    9.9707   -0.9262   21.8305 C   0  0  0  0  0  0  0  0  0  0  0  0
   11.1722   -1.5666   21.6289 N   0  0  0  0  0  0  0  0  0  0  0  0
   12.2354   -1.8467   22.5246 C   0  0  0  0  0  0  0  0  0  0  0  0
   11.9249   -2.2368   23.8211 C   0  0  0  0  0  0  0  0  0  0  0  0
   12.9419   -2.5165   24.7167 C   0  0  0  0  0  0  0  0  0  0  0  0
   14.2443   -2.3985   24.2913 C   0  0  0  0  0  0  0  0  0  0  0  0
   14.5762   -2.0269   23.0550 N   0  0  0  0  0  0  0  0  0  0  0  0
   13.5871   -1.7587   22.1968 C   0  0  0  0  0  0  0  0  0  0  0  0
    9.2315   -0.8747   20.6703 N   0  0  0  0  0  0  0  0  0  0  0  0
    7.9528   -0.3205   20.4073 C   0  0  0  0  0  0  0  0  0  0  0  0
    7.0326   -0.3132   21.4500 C   0  0  0  0  0  0  0  0  0  0  0  0
    5.7633    0.2109   21.2707 C   0  0  0  0  0  0  0  0  0  0  0  0
    5.3923    0.7364   20.0463 C   0  0  0  0  0  0  0  0  0  0  0  0
    6.3011    0.7361   18.9950 C   0  0  0  0  0  0  0  0  0  0  0  0
    7.5786    0.2094   19.1727 C   0  0  0  0  0  0  0  0  0  0  0  0
    5.9259    1.2812   17.7137 C   0  0  0  0  0  0  0  0  0  0  0  0
    5.6558    1.7323   16.6996 N   0  0  0  0  0  0  0  0  0  0  0  0
  1  2  2  0
  2  3  1  0
  3  4  1  0
  4  5  2  0
  5  6  1  0
  6  7  2  0
  7  8  1  0
  8  9  2  0
  2 10  1  0
 10 11  1  0
 11 12  2  0
 12 13  1  0
 13 14  2  0
 14 15  1  0
 15 16  2  0
 15 17  1  0
 17 18  3  0
  9  4  1  0
 16 11  1  0
M  END
