CVD-0000349|dock_bobby27042020.99|mol2|1|dock1
     RDKit          3D

 31 34  0  0  0  0  0  0  0  0999 V2000
    8.5244   -3.0493   22.4646 C   0  0  0  0  0  0  0  0  0  0  0  0
    9.6339   -2.0417   22.2056 C   0  0  0  0  0  0  0  0  0  0  0  0
    9.7245   -1.0194   23.3321 C   0  0  0  0  0  0  0  0  0  0  0  0
   10.7645    0.0582   23.1430 C   0  0  0  0  0  0  0  0  0  0  0  0
   12.1022   -0.1927   23.4139 C   0  0  0  0  0  0  0  0  0  0  0  0
   13.0620    0.7906   23.2507 C   0  0  0  0  0  0  0  0  0  0  0  0
   12.6893    2.0523   22.8090 C   0  0  0  0  0  0  0  0  0  0  0  0
   13.6572    3.0111   22.6780 O   0  0  0  0  0  0  0  0  0  0  0  0
   13.2510    4.1597   21.9277 C   0  0  0  0  0  0  0  0  0  0  0  0
   11.8739    4.6038   22.3527 C   0  0  0  0  0  0  0  0  0  0  0  0
   10.9144    3.5649   22.1314 O   0  0  0  0  0  0  0  0  0  0  0  0
   11.3447    2.3099   22.5351 C   0  0  0  0  0  0  0  0  0  0  0  0
   10.3903    1.3218   22.7005 C   0  0  0  0  0  0  0  0  0  0  0  0
   11.8600    5.1057   23.7862 C   0  0  0  0  0  0  0  0  0  0  0  0
   10.4831    5.4957   24.2493 C   0  0  0  0  0  0  0  0  0  0  0  0
   10.5600    6.0486   25.6006 N   0  0  0  0  0  0  0  0  0  0  0  0
   11.5482    7.1172   25.7314 C   0  0  0  0  0  0  0  0  0  0  0  0
   12.8715    6.6595   25.1939 C   0  0  0  0  0  0  0  0  0  0  0  0
   12.7656    6.1974   23.8578 O   0  0  0  0  0  0  0  0  0  0  0  0
    9.7950    5.6025   26.6280 C   0  0  0  0  0  0  0  0  0  0  0  0
    9.9633    6.2402   27.9759 C   0  0  0  0  0  0  0  0  0  0  0  0
    8.9939    4.6908   26.4552 O   0  0  0  0  0  0  0  0  0  0  0  0
    9.3976   -1.3679   20.9188 N   0  0  0  0  0  0  0  0  0  0  0  0
    8.2363   -0.7333   20.5891 C   0  0  0  0  0  0  0  0  0  0  0  0
    7.9286   -0.4427   19.2603 C   0  0  0  0  0  0  0  0  0  0  0  0
    6.7363    0.2026   18.9864 C   0  0  0  0  0  0  0  0  0  0  0  0
    5.8809    0.5432   20.0279 C   0  0  0  0  0  0  0  0  0  0  0  0
    6.2765    0.2104   21.3200 C   0  0  0  0  0  0  0  0  0  0  0  0
    7.4255   -0.4134   21.6027 N   0  0  0  0  0  0  0  0  0  0  0  0
    4.6302    1.2164   19.7788 C   0  0  0  0  0  0  0  0  0  0  0  0
    3.6564    1.7772   19.5732 N   0  0  0  0  0  0  0  0  0  0  0  0
  2  1  1  0
  2  3  1  0
  3  4  1  0
  4  5  2  0
  5  6  1  0
  6  7  2  0
  7  8  1  0
  8  9  1  0
 10  9  1  0
 10 11  1  0
 11 12  1  0
 12 13  2  0
 10 14  1  0
 14 15  1  0
 15 16  1  0
 16 17  1  0
 17 18  1  0
 18 19  1  0
 16 20  1  0
 20 21  1  0
 20 22  2  0
  2 23  1  0
 23 24  1  0
 24 25  2  0
 25 26  1  0
 26 27  2  0
 27 28  1  0
 28 29  2  0
 27 30  1  0
 30 31  3  0
 13  4  1  0
 19 14  1  0
 29 24  1  0
 12  7  1  0
M  END
