CVD-0001808|dock_bobby27042020.66|mol2|5|dock3
     RDKit          3D

 22 24  0  0  0  0  0  0  0  0999 V2000
   10.6388   -1.8398   21.3677 C   0  0  0  0  0  0  0  0  0  0  0  0
   10.1703   -1.8946   22.7987 C   0  0  0  0  0  0  0  0  0  0  0  0
    9.2921   -2.8980   23.1981 C   0  0  0  0  0  0  0  0  0  0  0  0
    8.8910   -2.9701   24.5157 C   0  0  0  0  0  0  0  0  0  0  0  0
    9.3042   -2.1231   25.4570 N   0  0  0  0  0  0  0  0  0  0  0  0
   10.1364   -1.1476   25.0802 C   0  0  0  0  0  0  0  0  0  0  0  0
   10.5823   -0.9870   23.7753 C   0  0  0  0  0  0  0  0  0  0  0  0
   11.4646    0.1114   23.4335 N   0  0  0  0  0  0  0  0  0  0  0  0
   10.9594    1.3936   23.1496 C   0  0  0  0  0  0  0  0  0  0  0  0
    9.4662    1.5962   23.2411 C   0  0  0  0  0  0  0  0  0  0  0  0
    8.9843    2.9366   22.5967 C   0  0  0  0  0  0  0  0  0  0  0  0
   10.0002    4.0837   22.9562 C   0  0  0  0  0  0  0  0  0  0  0  0
   11.3465    3.7224   22.5029 N   0  0  0  0  0  0  0  0  0  0  0  0
   12.1953    4.7089   21.8653 C   0  0  0  0  0  0  0  0  0  0  0  0
   13.1573    5.3693   22.8381 C   0  0  0  0  0  0  0  0  0  0  0  0
   13.9300    6.3197   22.3363 N   0  0  0  0  0  0  0  0  0  0  0  0
   13.1943    5.0299   24.0245 O   0  0  0  0  0  0  0  0  0  0  0  0
   11.8062    2.4123   22.8159 C   0  0  0  0  0  0  0  0  0  0  0  0
   13.1957    2.1513   22.7622 C   0  0  0  0  0  0  0  0  0  0  0  0
   13.6964    0.9251   23.0322 C   0  0  0  0  0  0  0  0  0  0  0  0
   12.8509   -0.1760   23.3868 C   0  0  0  0  0  0  0  0  0  0  0  0
   13.2607   -1.3171   23.5931 O   0  0  0  0  0  0  0  0  0  0  0  0
  1  2  1  0
  2  3  2  0
  3  4  1  0
  4  5  2  0
  5  6  1  0
  6  7  2  0
  7  8  1  0
  8  9  1  0
  9 10  1  0
 10 11  1  0
 11 12  1  0
 12 13  1  0
 13 14  1  0
 14 15  1  0
 15 16  1  0
 15 17  2  0
 13 18  1  0
 18 19  1  0
 19 20  2  0
 20 21  1  0
 21 22  2  0
  7  2  1  0
 21  8  1  0
 18  9  2  0
M  END
