CVD-0002663|dock_bobby27042020.47|mol2|41|dock2
     RDKit          3D

 26 29  0  0  0  0  0  0  0  0999 V2000
    7.5026   -1.6545   21.1565 O   0  0  0  0  0  0  0  0  0  0  0  0
    8.2500   -1.9003   22.0997 C   0  0  0  0  0  0  0  0  0  0  0  0
    8.1409   -3.0737   22.7770 N   0  0  0  0  0  0  0  0  0  0  0  0
    7.0822   -4.0340   22.4655 C   0  0  0  0  0  0  0  0  0  0  0  0
    7.6189   -5.4800   22.4819 C   0  0  0  0  0  0  0  0  0  0  0  0
    6.5211   -6.5122   22.2315 C   0  0  0  0  0  0  0  0  0  0  0  0
    5.3642   -6.3392   23.2072 C   0  0  0  0  0  0  0  0  0  0  0  0
    4.8173   -4.9196   23.1644 C   0  0  0  0  0  0  0  0  0  0  0  0
    5.9118   -3.8976   23.4544 C   0  0  0  0  0  0  0  0  0  0  0  0
    9.2099   -0.9417   22.4519 N   0  0  0  0  0  0  0  0  0  0  0  0
    9.9880    0.1926   22.4967 C   0  0  0  0  0  0  0  0  0  0  0  0
    9.5960    1.4507   22.5615 N   0  0  0  0  0  0  0  0  0  0  0  0
   10.7720    2.1943   22.5950 C   0  0  0  0  0  0  0  0  0  0  0  0
   10.9660    3.5730   22.6651 C   0  0  0  0  0  0  0  0  0  0  0  0
   12.2633    4.0624   22.6926 C   0  0  0  0  0  0  0  0  0  0  0  0
   13.3504    3.2106   22.6519 C   0  0  0  0  0  0  0  0  0  0  0  0
   13.1783    1.8372   22.5792 C   0  0  0  0  0  0  0  0  0  0  0  0
   11.8776    1.3501   22.5490 C   0  0  0  0  0  0  0  0  0  0  0  0
   11.3559    0.0627   22.4734 N   0  0  0  0  0  0  0  0  0  0  0  0
   12.1573   -1.1596   22.4321 C   0  0  0  0  0  0  0  0  0  0  0  0
   12.9827   -1.3836   23.6761 C   0  0  0  0  0  0  0  0  0  0  0  0
   13.9693   -2.3480   23.7489 C   0  0  0  0  0  0  0  0  0  0  0  0
   14.7095   -2.5663   24.8388 N   0  0  0  0  0  0  0  0  0  0  0  0
   14.4374   -1.7849   25.8787 C   0  0  0  0  0  0  0  0  0  0  0  0
   13.5194   -0.8261   25.9418 N   0  0  0  0  0  0  0  0  0  0  0  0
   12.8040   -0.6437   24.8291 C   0  0  0  0  0  0  0  0  0  0  0  0
  1  2  2  0
  2  3  1  0
  3  4  1  0
  4  5  1  0
  5  6  1  0
  6  7  1  0
  7  8  1  0
  8  9  1  0
  2 10  1  0
 10 11  1  0
 11 12  2  0
 12 13  1  0
 13 14  2  0
 14 15  1  0
 15 16  2  0
 16 17  1  0
 17 18  2  0
 18 19  1  0
 19 20  1  0
 20 21  1  0
 21 22  2  0
 22 23  1  0
 23 24  2  0
 24 25  1  0
 25 26  2  0
  9  4  1  0
 19 11  1  0
 26 21  1  0
 18 13  1  0
M  END
