CVD-0003125|dock_bobby27042020.32|mol2|3|dock3
     RDKit          3D

 17 19  0  0  0  0  0  0  0  0999 V2000
    9.4769   -2.7503   23.8886 O   0  0  0  0  0  0  0  0  0  0  0  0
   10.0282   -2.2017   22.9428 C   0  0  0  0  0  0  0  0  0  0  0  0
    9.3391   -2.1330   21.5902 C   0  0  0  0  0  0  0  0  0  0  0  0
    9.0358   -0.7832   21.2375 O   0  0  0  0  0  0  0  0  0  0  0  0
    8.1396   -0.6503   20.1282 C   0  0  0  0  0  0  0  0  0  0  0  0
    6.6833   -1.0568   20.3391 C   0  0  0  0  0  0  0  0  0  0  0  0
    6.2543    0.3335   20.0605 N   0  0  0  0  0  0  0  0  0  0  0  0
    7.6548    0.7628   19.8388 C   0  0  0  0  0  0  0  0  0  0  0  0
   11.2567   -1.6540   23.0734 N   0  0  0  0  0  0  0  0  0  0  0  0
   11.9708   -0.9268   22.0013 C   0  0  0  0  0  0  0  0  0  0  0  0
   13.3755   -1.4884   21.8248 C   0  0  0  0  0  0  0  0  0  0  0  0
   14.1554   -1.4981   23.1443 C   0  0  0  0  0  0  0  0  0  0  0  0
   13.3836   -2.2401   24.2345 C   0  0  0  0  0  0  0  0  0  0  0  0
   13.9263   -1.9649   25.6535 C   0  0  0  0  0  0  0  0  0  0  0  0
   13.1722   -0.8186   26.1560 N   0  0  0  0  0  0  0  0  0  0  0  0
   12.1572   -0.4332   25.1991 C   0  0  0  0  0  0  0  0  0  0  0  0
   11.9547   -1.7176   24.3617 C   0  0  0  0  0  0  0  0  0  0  0  0
  1  2  2  0
  2  3  1  0
  3  4  1  0
  4  5  1  0
  5  6  1  0
  6  7  1  0
  7  8  1  0
  2  9  1  0
  9 10  1  0
 10 11  1  0
 11 12  1  0
 13 12  1  0
 13 14  1  0
 14 15  1  0
 15 16  1  0
 17 16  1  0
  8  5  1  0
 17  9  1  0
 17 13  1  0
M  END
