CVD-0000606|dock_bobby27042020.55|mol2|26|dock2
     RDKit          3D

 23 25  0  0  0  0  0  0  0  0999 V2000
    8.5852   -0.3547   22.3651 O   0  0  0  0  0  0  0  0  0  0  0  0
    9.0894   -0.8247   21.3505 C   0  0  0  0  0  0  0  0  0  0  0  0
    8.2413   -1.3527   20.2108 C   0  0  0  0  0  0  0  0  0  0  0  0
    6.7465   -1.5321   20.5293 C   0  0  0  0  0  0  0  0  0  0  0  0
    6.1997   -2.3865   19.3885 C   0  0  0  0  0  0  0  0  0  0  0  0
    6.2073   -1.6194   18.0813 C   0  0  0  0  0  0  0  0  0  0  0  0
    5.4253   -0.3199   18.1960 C   0  0  0  0  0  0  0  0  0  0  0  0
    5.9552    0.5335   19.3369 C   0  0  0  0  0  0  0  0  0  0  0  0
    5.9622   -0.2336   20.6532 C   0  0  0  0  0  0  0  0  0  0  0  0
    6.5321   -2.3053   21.7506 O   0  0  0  0  0  0  0  0  0  0  0  0
    7.0625   -3.5603   22.1213 C   0  0  0  0  0  0  0  0  0  0  0  0
    6.5821   -4.7514   21.5996 C   0  0  0  0  0  0  0  0  0  0  0  0
    7.1463   -5.9493   22.0067 C   0  0  0  0  0  0  0  0  0  0  0  0
    8.1769   -5.9633   22.9213 C   0  0  0  0  0  0  0  0  0  0  0  0
    8.6521   -4.7772   23.4366 C   0  0  0  0  0  0  0  0  0  0  0  0
    8.0983   -3.5719   23.0398 C   0  0  0  0  0  0  0  0  0  0  0  0
   10.4203   -0.9305   21.1171 N   0  0  0  0  0  0  0  0  0  0  0  0
   11.5434   -0.5870   21.9105 C   0  0  0  0  0  0  0  0  0  0  0  0
   11.3855    0.3442   22.9287 C   0  0  0  0  0  0  0  0  0  0  0  0
   12.4705    0.6921   23.7137 C   0  0  0  0  0  0  0  0  0  0  0  0
   13.6847    0.0985   23.4585 C   0  0  0  0  0  0  0  0  0  0  0  0
   13.8691   -0.7981   22.4896 N   0  0  0  0  0  0  0  0  0  0  0  0
   12.8154   -1.1281   21.7363 C   0  0  0  0  0  0  0  0  0  0  0  0
  1  2  2  0
  2  3  1  0
  3  4  1  0
  4  5  1  0
  5  6  1  0
  6  7  1  0
  7  8  1  0
  8  9  1  0
  4 10  1  0
 10 11  1  0
 11 12  2  0
 12 13  1  0
 13 14  2  0
 14 15  1  0
 15 16  2  0
  2 17  1  0
 17 18  1  0
 18 19  2  0
 19 20  1  0
 20 21  2  0
 21 22  1  0
 22 23  2  0
  9  4  1  0
 16 11  1  0
 23 18  1  0
M  END
