CVD-0004021|dock_bobby27042020.0|mol2|10|dock1
     RDKit          3D

 42 45  0  0  0  0  0  0  0  0999 V2000
   13.5501   -1.9357   22.0028 C   0  0  0  0  0  0  0  0  0  0  0  0
   12.5136   -1.1203   22.7573 C   0  0  0  0  0  0  0  0  0  0  0  0
   13.1486   -0.3583   23.9091 C   0  0  0  0  0  0  0  0  0  0  0  0
   11.2900   -1.9438   23.1755 C   0  0  0  0  0  0  0  0  0  0  0  0
    9.8850   -1.3482   23.3841 C   0  0  0  0  0  0  0  0  0  0  0  0
    9.9123    0.0783   23.7021 N   0  0  0  0  0  0  0  0  0  0  0  0
    9.8968    1.0952   22.8050 C   0  0  0  0  0  0  0  0  0  0  0  0
    9.9275    0.9495   21.5858 O   0  0  0  0  0  0  0  0  0  0  0  0
    9.8379    2.3236   23.3566 N   0  0  0  0  0  0  0  0  0  0  0  0
    9.8108    3.5256   22.5364 C   0  0  0  0  0  0  0  0  0  0  0  0
   11.0847    4.3316   22.6162 C   0  0  0  0  0  0  0  0  0  0  0  0
   11.1172    5.5409   23.2932 C   0  0  0  0  0  0  0  0  0  0  0  0
   12.2850    6.2822   23.3640 C   0  0  0  0  0  0  0  0  0  0  0  0
   13.4342    5.8229   22.7574 C   0  0  0  0  0  0  0  0  0  0  0  0
   13.4154    4.6228   22.0798 C   0  0  0  0  0  0  0  0  0  0  0  0
   12.2474    3.8820   22.0096 C   0  0  0  0  0  0  0  0  0  0  0  0
    8.9536   -2.1859   24.2708 C   0  0  0  0  0  0  0  0  0  0  0  0
    8.1427   -1.6504   25.0222 O   0  0  0  0  0  0  0  0  0  0  0  0
    9.0327   -3.5191   24.1900 N   0  0  0  0  0  0  0  0  0  0  0  0
    8.1653   -4.3728   24.9853 C   0  0  0  0  0  0  0  0  0  0  0  0
    7.9416   -5.7251   24.3045 C   0  0  0  0  0  0  0  0  0  0  0  0
    7.4380   -5.6518   22.8565 C   0  0  0  0  0  0  0  0  0  0  0  0
    6.1733   -4.7931   22.6562 C   0  0  0  0  0  0  0  0  0  0  0  0
    5.3169   -5.5572   21.6550 C   0  0  0  0  0  0  0  0  0  0  0  0
    5.8601   -6.9008   21.7164 N   0  0  0  0  0  0  0  0  0  0  0  0
    7.0507   -7.0022   22.3127 C   0  0  0  0  0  0  0  0  0  0  0  0
    7.6998   -8.0381   22.4301 O   0  0  0  0  0  0  0  0  0  0  0  0
    8.7819   -4.5659   26.3669 C   0  0  0  0  0  0  0  0  0  0  0  0
    9.6764   -3.8485   26.7804 O   0  0  0  0  0  0  0  0  0  0  0  0
    8.2207   -5.7055   27.2394 C   0  0  0  0  0  0  0  0  0  0  0  0
    8.9597   -6.5646   27.7181 O   0  0  0  0  0  0  0  0  0  0  0  0
    6.9013   -5.6723   27.4195 N   0  0  0  0  0  0  0  0  0  0  0  0
    6.2034   -6.6709   28.2158 C   0  0  0  0  0  0  0  0  0  0  0  0
    6.2304   -6.3788   29.6969 C   0  0  0  0  0  0  0  0  0  0  0  0
    6.7103   -7.3266   30.5933 C   0  0  0  0  0  0  0  0  0  0  0  0
    6.7376   -7.0861   31.9583 C   0  0  0  0  0  0  0  0  0  0  0  0
    6.2708   -5.8654   32.4226 C   0  0  0  0  0  0  0  0  0  0  0  0
    6.2302   -5.3659   33.7026 O   0  0  0  0  0  0  0  0  0  0  0  0
    5.5024   -4.1445   33.6185 C   0  0  0  0  0  0  0  0  0  0  0  0
    5.4360   -3.7824   32.2360 O   0  0  0  0  0  0  0  0  0  0  0  0
    5.7911   -4.9153   31.5402 C   0  0  0  0  0  0  0  0  0  0  0  0
    5.7652   -5.1580   30.1785 C   0  0  0  0  0  0  0  0  0  0  0  0
  1  2  1  0
  2  3  1  0
  2  4  1  0
  5  4  1  0
  5  6  1  0
  6  7  1  0
  7  8  2  0
  7  9  1  0
  9 10  1  0
 10 11  1  0
 11 12  2  0
 12 13  1  0
 13 14  2  0
 14 15  1  0
 15 16  2  0
  5 17  1  0
 17 18  2  0
 17 19  1  0
 19 20  1  0
 20 21  1  0
 22 21  1  0
 22 23  1  0
 23 24  1  0
 24 25  1  0
 25 26  1  0
 26 27  2  0
 20 28  1  0
 28 29  2  0
 28 30  1  0
 30 31  2  0
 30 32  1  0
 32 33  1  0
 33 34  1  0
 34 35  2  0
 35 36  1  0
 36 37  2  0
 37 38  1  0
 38 39  1  0
 39 40  1  0
 40 41  1  0
 41 42  2  0
 16 11  1  0
 26 22  1  0
 42 34  1  0
 41 37  1  0
M  END
