CVD-0001261|dock_bobby27042020.53|mol2|17|dock3
     RDKit          3D

 26 28  0  0  0  0  0  0  0  0999 V2000
   14.7314   -2.4459   25.4625 C   0  0  0  0  0  0  0  0  0  0  0  0
   13.6576   -1.8414   24.5910 C   0  0  0  0  0  0  0  0  0  0  0  0
   13.4857   -2.2504   23.2789 C   0  0  0  0  0  0  0  0  0  0  0  0
   12.4935   -1.7087   22.4813 C   0  0  0  0  0  0  0  0  0  0  0  0
   11.6298   -0.7364   22.9738 C   0  0  0  0  0  0  0  0  0  0  0  0
   11.8179   -0.3084   24.2843 C   0  0  0  0  0  0  0  0  0  0  0  0
   12.8074   -0.8621   25.0774 C   0  0  0  0  0  0  0  0  0  0  0  0
   10.5778   -0.1918   22.0867 C   0  0  0  0  0  0  0  0  0  0  0  0
    9.7310   -0.9665   21.3154 C   0  0  0  0  0  0  0  0  0  0  0  0
    8.9268   -0.0688   20.6213 C   0  0  0  0  0  0  0  0  0  0  0  0
    9.2153    1.2006   20.9083 N   0  0  0  0  0  0  0  0  0  0  0  0
   10.2300    1.1207   21.8457 N   0  0  0  0  0  0  0  0  0  0  0  0
   10.6694    2.3794   22.3682 C   0  0  0  0  0  0  0  0  0  0  0  0
    9.8113    3.4603   22.5234 C   0  0  0  0  0  0  0  0  0  0  0  0
   10.2700    4.6560   23.0472 C   0  0  0  0  0  0  0  0  0  0  0  0
   11.6033    4.7803   23.3997 C   0  0  0  0  0  0  0  0  0  0  0  0
   12.4776    3.7206   23.2263 C   0  0  0  0  0  0  0  0  0  0  0  0
   12.0068    2.5262   22.7107 C   0  0  0  0  0  0  0  0  0  0  0  0
   12.1961    6.3064   24.0651 S   0  0  0  0  0  0  0  0  0  0  0  0
   12.9116    6.0054   25.4653 N   0  0  0  0  0  0  0  0  0  0  0  0
   13.2020    6.7999   23.1729 O   0  0  0  0  0  0  0  0  0  0  0  0
   11.0538    7.1252   24.3406 O   0  0  0  0  0  0  0  0  0  0  0  0
    7.8514   -0.3659   19.6462 C   0  0  0  0  0  0  0  0  0  0  0  0
    7.0748   -1.3676   20.0358 F   0  0  0  0  0  0  0  0  0  0  0  0
    7.0479    0.6696   19.4446 F   0  0  0  0  0  0  0  0  0  0  0  0
    8.3250   -0.7053   18.4550 F   0  0  0  0  0  0  0  0  0  0  0  0
  1  2  1  0
  2  3  2  0
  3  4  1  0
  4  5  2  0
  5  6  1  0
  6  7  2  0
  5  8  1  0
  8  9  2  0
  9 10  1  0
 10 11  2  0
 11 12  1  0
 12 13  1  0
 13 14  2  0
 14 15  1  0
 15 16  2  0
 16 17  1  0
 17 18  2  0
 16 19  1  0
 19 20  1  0
 19 21  2  0
 19 22  2  0
 10 23  1  0
 23 24  1  0
 23 25  1  0
 23 26  1  0
  7  2  1  0
 12  8  1  0
 18 13  1  0
M  END
