CVD-0001876|dock_bobby27042020.65|mol2|36|dock1
     RDKit          3D

 32 34  0  0  0  0  0  0  0  0999 V2000
    7.1515   -5.2550   27.4616 C   0  0  0  0  0  0  0  0  0  0  0  0
    8.4827   -4.9318   26.9751 N   0  0  0  0  0  0  0  0  0  0  0  0
    9.5990   -5.6758   27.5348 C   0  0  0  0  0  0  0  0  0  0  0  0
    8.7119   -4.0300   25.8768 C   0  0  0  0  0  0  0  0  0  0  0  0
    8.9728   -2.6827   26.1452 C   0  0  0  0  0  0  0  0  0  0  0  0
    9.2362   -1.7928   25.1201 C   0  0  0  0  0  0  0  0  0  0  0  0
    9.2469   -2.2039   23.7971 C   0  0  0  0  0  0  0  0  0  0  0  0
    8.9678   -3.5383   23.5407 C   0  0  0  0  0  0  0  0  0  0  0  0
    8.6777   -4.4628   24.5410 C   0  0  0  0  0  0  0  0  0  0  0  0
    8.3375   -5.8524   24.0655 C   0  0  0  0  0  0  0  0  0  0  0  0
    9.5458   -1.3132   22.7113 N   0  0  0  0  0  0  0  0  0  0  0  0
    8.5239   -0.3028   22.3267 C   0  0  0  0  0  0  0  0  0  0  0  0
    9.1668    1.0496   21.9370 C   0  0  0  0  0  0  0  0  0  0  0  0
    8.7261    1.7187   21.0072 O   0  0  0  0  0  0  0  0  0  0  0  0
   10.2205    1.3900   22.7246 N   0  0  0  0  0  0  0  0  0  0  0  0
   11.0640    2.5366   22.7084 C   0  0  0  0  0  0  0  0  0  0  0  0
   10.5873    3.8289   22.4654 C   0  0  0  0  0  0  0  0  0  0  0  0
   11.4506    4.9128   22.4635 C   0  0  0  0  0  0  0  0  0  0  0  0
   12.7962    4.7478   22.6966 C   0  0  0  0  0  0  0  0  0  0  0  0
   13.2983    3.4840   22.9370 C   0  0  0  0  0  0  0  0  0  0  0  0
   12.4404    2.3989   22.9422 C   0  0  0  0  0  0  0  0  0  0  0  0
   13.2532    0.7192   23.2869 Br  0  0  0  0  0  0  0  0  0  0  0  0
    7.5032   -0.8583   21.3342 C   0  0  0  0  0  0  0  0  0  0  0  0
    7.7537   -0.7657   19.9730 C   0  0  0  0  0  0  0  0  0  0  0  0
    6.8416   -1.2634   19.0586 C   0  0  0  0  0  0  0  0  0  0  0  0
    5.6899   -1.8477   19.5327 C   0  0  0  0  0  0  0  0  0  0  0  0
    5.4130   -1.9577   20.8320 N   0  0  0  0  0  0  0  0  0  0  0  0
    6.3109   -1.4714   21.6942 C   0  0  0  0  0  0  0  0  0  0  0  0
   10.7272   -1.3273   21.9814 C   0  0  0  0  0  0  0  0  0  0  0  0
   10.9142   -0.5369   21.0592 O   0  0  0  0  0  0  0  0  0  0  0  0
   11.8328   -2.2821   22.2868 C   0  0  0  0  0  0  0  0  0  0  0  0
   12.9777   -2.2004   21.6618 C   0  0  0  0  0  0  0  0  0  0  0  0
  1  2  1  0
  2  3  1  0
  2  4  1  0
  4  5  2  0
  5  6  1  0
  6  7  2  0
  7  8  1  0
  8  9  2  0
  9 10  1  0
  7 11  1  0
 11 12  1  0
 12 13  1  0
 13 14  2  0
 13 15  1  0
 15 16  1  0
 16 17  2  0
 17 18  1  0
 18 19  2  0
 19 20  1  0
 20 21  2  0
 21 22  1  0
 12 23  1  0
 23 24  2  0
 24 25  1  0
 25 26  2  0
 26 27  1  0
 27 28  2  0
 11 29  1  0
 29 30  2  0
 29 31  1  0
 31 32  2  0
  9  4  1  0
 21 16  1  0
 28 23  1  0
M  END
