CVD-0002890|dock_bobby27042020.75|mol2|33|dock2
     RDKit          3D

 18 18  0  0  0  0  0  0  0  0999 V2000
    3.1023    3.6904   20.0608 O   0  0  0  0  0  0  0  0  0  0  0  0
    2.9400    2.4714   19.3566 C   0  0  0  0  0  0  0  0  0  0  0  0
    3.8882    1.4007   19.8385 C   0  0  0  0  0  0  0  0  0  0  0  0
    4.6617    0.6780   18.9442 C   0  0  0  0  0  0  0  0  0  0  0  0
    5.5331   -0.3014   19.3864 C   0  0  0  0  0  0  0  0  0  0  0  0
    5.6581   -0.5890   20.7365 C   0  0  0  0  0  0  0  0  0  0  0  0
    6.6112   -1.6556   21.2190 C   0  0  0  0  0  0  0  0  0  0  0  0
    8.0443   -1.1665   21.3839 C   0  0  0  0  0  0  0  0  0  0  0  0
    8.9913   -2.2569   21.8447 C   0  0  0  0  0  0  0  0  0  0  0  0
   10.3835   -1.9294   21.5721 N   0  0  0  0  0  0  0  0  0  0  0  0
   11.2850   -1.7584   22.5352 C   0  0  0  0  0  0  0  0  0  0  0  0
   11.0125   -1.8634   23.7271 O   0  0  0  0  0  0  0  0  0  0  0  0
   12.6839   -1.4223   22.0684 C   0  0  0  0  0  0  0  0  0  0  0  0
   13.7019   -1.4851   23.1774 C   0  0  0  0  0  0  0  0  0  0  0  0
   13.8054   -2.7921   23.6839 O   0  0  0  0  0  0  0  0  0  0  0  0
   13.3842   -0.5719   24.1973 O   0  0  0  0  0  0  0  0  0  0  0  0
    4.8863    0.1360   21.6306 C   0  0  0  0  0  0  0  0  0  0  0  0
    4.0148    1.1156   21.1888 C   0  0  0  0  0  0  0  0  0  0  0  0
  1  2  1  0
  2  3  1  0
  3  4  2  0
  4  5  1  0
  5  6  2  0
  6  7  1  0
  7  8  1  0
  8  9  1  0
  9 10  1  0
 10 11  1  0
 11 12  2  0
 11 13  1  0
 13 14  1  0
 14 15  1  0
 14 16  1  0
  6 17  1  0
 17 18  2  0
 18  3  1  0
M  END
