CVD-0000903|dock_bobby27042020.54|mol2|24|dock3
     RDKit          3D

 25 25  0  0  0  0  0  0  0  0999 V2000
    8.7650   -0.2884   24.9338 C   0  0  0  0  0  0  0  0  0  0  0  0
    9.9975   -1.1310   24.7132 C   0  0  0  0  0  0  0  0  0  0  0  0
   11.0870   -0.3891   25.1937 O   0  0  0  0  0  0  0  0  0  0  0  0
   10.2028   -1.5461   23.3175 N   0  0  0  0  0  0  0  0  0  0  0  0
   10.7559   -0.5313   22.4342 C   0  0  0  0  0  0  0  0  0  0  0  0
    9.6557    0.2427   21.6584 C   0  0  0  0  0  0  0  0  0  0  0  0
    8.6680   -0.6623   21.0660 N   0  0  0  0  0  0  0  0  0  0  0  0
    8.1659   -1.7349   21.9008 C   0  0  0  0  0  0  0  0  0  0  0  0
    9.2811   -2.4526   22.6683 C   0  0  0  0  0  0  0  0  0  0  0  0
    8.7447   -3.4351   23.7081 C   0  0  0  0  0  0  0  0  0  0  0  0
    9.8428   -4.3181   24.3125 C   0  0  0  0  0  0  0  0  0  0  0  0
    9.5588   -4.7528   25.7344 C   0  0  0  0  0  0  0  0  0  0  0  0
   10.2211   -5.8147   26.1658 N   0  0  0  0  0  0  0  0  0  0  0  0
    8.7526   -4.1392   26.4396 O   0  0  0  0  0  0  0  0  0  0  0  0
    7.7229   -4.2724   23.0849 N   0  0  0  0  0  0  0  0  0  0  0  0
    6.4094   -4.1650   23.3043 C   0  0  0  0  0  0  0  0  0  0  0  0
    5.9136   -3.3391   24.0641 O   0  0  0  0  0  0  0  0  0  0  0  0
    5.5406   -5.1535   22.5556 C   0  0  0  0  0  0  0  0  0  0  0  0
    5.7768   -5.0443   21.0621 C   0  0  0  0  0  0  0  0  0  0  0  0
    5.5848   -6.1416   20.3472 N   0  0  0  0  0  0  0  0  0  0  0  0
    6.1418   -3.9773   20.5598 O   0  0  0  0  0  0  0  0  0  0  0  0
    7.5382   -0.0047   20.3951 C   0  0  0  0  0  0  0  0  0  0  0  0
    6.3407   -0.1150   21.1265 O   0  0  0  0  0  0  0  0  0  0  0  0
    7.2787   -0.6045   19.0307 C   0  0  0  0  0  0  0  0  0  0  0  0
    8.7735   -0.5904   18.0525 Cl  0  0  0  0  0  0  0  0  0  0  0  0
  1  2  1  0
  2  3  1  0
  2  4  1  0
  4  5  1  0
  5  6  1  0
  6  7  1  0
  7  8  1  0
  8  9  1  0
  9 10  1  0
 10 11  1  0
 11 12  1  0
 12 13  1  0
 12 14  2  0
 10 15  1  0
 15 16  1  0
 16 17  2  0
 16 18  1  0
 18 19  1  0
 19 20  1  0
 19 21  2  0
  7 22  1  0
 22 23  1  0
 22 24  1  0
 24 25  1  0
  9  4  1  0
M  END
