CVD-0001877|dock_bobby27042020.51|mol2|9|dock2
     RDKit          3D

 32 34  0  0  0  0  0  0  0  0999 V2000
   13.2696   -2.4268   25.1522 C   0  0  0  0  0  0  0  0  0  0  0  0
   12.5210   -1.2654   24.7009 N   0  0  0  0  0  0  0  0  0  0  0  0
   13.1492    0.0366   24.8535 C   0  0  0  0  0  0  0  0  0  0  0  0
   11.2762   -1.3724   23.9861 C   0  0  0  0  0  0  0  0  0  0  0  0
   10.0753   -1.1920   24.6797 C   0  0  0  0  0  0  0  0  0  0  0  0
    8.8608   -1.2414   24.0203 C   0  0  0  0  0  0  0  0  0  0  0  0
    8.7957   -1.4702   22.6560 C   0  0  0  0  0  0  0  0  0  0  0  0
    9.9902   -1.6823   21.9820 C   0  0  0  0  0  0  0  0  0  0  0  0
   11.2322   -1.6575   22.6115 C   0  0  0  0  0  0  0  0  0  0  0  0
   12.4162   -1.9616   21.7291 C   0  0  0  0  0  0  0  0  0  0  0  0
    7.5300   -1.4950   21.9807 N   0  0  0  0  0  0  0  0  0  0  0  0
    6.6841   -0.2827   21.8100 C   0  0  0  0  0  0  0  0  0  0  0  0
    7.3599    0.9181   22.5031 C   0  0  0  0  0  0  0  0  0  0  0  0
    6.7894    1.4880   23.4285 O   0  0  0  0  0  0  0  0  0  0  0  0
    8.5770    1.2384   21.9958 N   0  0  0  0  0  0  0  0  0  0  0  0
    9.4968    2.2558   22.3531 C   0  0  0  0  0  0  0  0  0  0  0  0
    9.1104    3.5409   22.7269 C   0  0  0  0  0  0  0  0  0  0  0  0
   10.0587    4.4907   23.0644 C   0  0  0  0  0  0  0  0  0  0  0  0
   11.3947    4.1566   23.0288 C   0  0  0  0  0  0  0  0  0  0  0  0
   12.6953    5.4609   23.4923 Br  0  0  0  0  0  0  0  0  0  0  0  0
   11.8039    2.8933   22.6632 C   0  0  0  0  0  0  0  0  0  0  0  0
   10.8522    1.9476   22.3267 C   0  0  0  0  0  0  0  0  0  0  0  0
    6.3283    0.0937   20.3778 C   0  0  0  0  0  0  0  0  0  0  0  0
    5.2062    0.8464   20.0634 C   0  0  0  0  0  0  0  0  0  0  0  0
    4.9300    1.1500   18.7416 C   0  0  0  0  0  0  0  0  0  0  0  0
    5.7897    0.6923   17.7687 C   0  0  0  0  0  0  0  0  0  0  0  0
    6.8781   -0.0304   18.0369 N   0  0  0  0  0  0  0  0  0  0  0  0
    7.1240   -0.3136   19.3195 C   0  0  0  0  0  0  0  0  0  0  0  0
    7.0317   -2.6945   21.4967 C   0  0  0  0  0  0  0  0  0  0  0  0
    5.9296   -2.7390   20.9515 O   0  0  0  0  0  0  0  0  0  0  0  0
    7.7987   -3.9687   21.6259 C   0  0  0  0  0  0  0  0  0  0  0  0
    7.3333   -5.0792   21.1183 C   0  0  0  0  0  0  0  0  0  0  0  0
  1  2  1  0
  2  3  1  0
  2  4  1  0
  4  5  2  0
  5  6  1  0
  6  7  2  0
  7  8  1  0
  8  9  2  0
  9 10  1  0
  7 11  1  0
 11 12  1  0
 12 13  1  0
 13 14  2  0
 13 15  1  0
 15 16  1  0
 16 17  2  0
 17 18  1  0
 18 19  2  0
 19 20  1  0
 19 21  1  0
 21 22  2  0
 12 23  1  0
 23 24  2  0
 24 25  1  0
 25 26  2  0
 26 27  1  0
 27 28  2  0
 11 29  1  0
 29 30  2  0
 29 31  1  0
 31 32  2  0
  9  4  1  0
 22 16  1  0
 28 23  1  0
M  END
