CVD-0003890|dock_bobby27042020.44|mol2|2|dock2
     RDKit          3D

 26 29  0  0  0  0  0  0  0  0999 V2000
    5.2027    0.5237   21.9429 C   0  0  0  0  0  0  0  0  0  0  0  0
    6.1595    0.3444   20.7940 C   0  0  0  0  0  0  0  0  0  0  0  0
    5.9206    0.9358   19.5538 C   0  0  0  0  0  0  0  0  0  0  0  0
    6.8161    0.7512   18.5148 C   0  0  0  0  0  0  0  0  0  0  0  0
    7.9355    0.0201   18.6133 N   0  0  0  0  0  0  0  0  0  0  0  0
    8.1471   -0.5425   19.8145 C   0  0  0  0  0  0  0  0  0  0  0  0
    9.1909   -1.3340   20.2082 N   0  0  0  0  0  0  0  0  0  0  0  0
    8.9668   -1.6628   21.5027 C   0  0  0  0  0  0  0  0  0  0  0  0
    9.9051   -2.5202   22.2803 C   0  0  0  0  0  0  0  0  0  0  0  0
   10.4950   -1.8092   23.4958 C   0  0  0  0  0  0  0  0  0  0  0  0
   11.4393   -0.6945   23.1155 C   0  0  0  0  0  0  0  0  0  0  0  0
   12.7491   -0.9542   22.7500 C   0  0  0  0  0  0  0  0  0  0  0  0
   13.5696    0.1033   22.4149 C   0  0  0  0  0  0  0  0  0  0  0  0
   13.1732    1.3823   22.4219 N   0  0  0  0  0  0  0  0  0  0  0  0
   11.9025    1.6431   22.7773 C   0  0  0  0  0  0  0  0  0  0  0  0
   11.0166    0.6280   23.1282 C   0  0  0  0  0  0  0  0  0  0  0  0
   11.5086    3.0789   22.7710 C   0  0  0  0  0  0  0  0  0  0  0  0
   12.4249    4.0911   23.0476 C   0  0  0  0  0  0  0  0  0  0  0  0
   12.0438    5.4228   23.0380 C   0  0  0  0  0  0  0  0  0  0  0  0
   10.7362    5.7734   22.7512 C   0  0  0  0  0  0  0  0  0  0  0  0
    9.8048    4.7802   22.4721 C   0  0  0  0  0  0  0  0  0  0  0  0
   10.1919    3.4423   22.4827 C   0  0  0  0  0  0  0  0  0  0  0  0
    8.4382    5.1289   22.1713 C   0  0  0  0  0  0  0  0  0  0  0  0
    7.3655    5.4161   21.9031 N   0  0  0  0  0  0  0  0  0  0  0  0
    7.8540   -1.1372   21.9810 N   0  0  0  0  0  0  0  0  0  0  0  0
    7.3235   -0.4246   20.9159 C   0  0  0  0  0  0  0  0  0  0  0  0
  1  2  1  0
  2  3  2  0
  3  4  1  0
  4  5  2  0
  5  6  1  0
  6  7  1  0
  7  8  1  0
  8  9  1  0
  9 10  1  0
 10 11  1  0
 11 12  2  0
 12 13  1  0
 13 14  2  0
 14 15  1  0
 15 16  2  0
 15 17  1  0
 17 18  2  0
 18 19  1  0
 19 20  2  0
 20 21  1  0
 21 22  2  0
 21 23  1  0
 23 24  3  0
  8 25  2  0
 25 26  1  0
 26  2  1  0
 26  6  2  0
 16 11  1  0
 22 17  1  0
M  END
