CVD-0001496|dock_bobby27042020.80|mol2|50|dock1
     RDKit          3D

 23 24  0  0  0  0  0  0  0  0999 V2000
    0.8528    1.4271   20.7430 O   0  0  0  0  0  0  0  0  0  0  0  0
    1.6249    2.4822   20.6452 C   0  0  0  0  0  0  0  0  0  0  0  0
    1.3857    3.4120   19.9065 O   0  0  0  0  0  0  0  0  0  0  0  0
    2.8267    2.4162   21.5431 C   0  0  0  0  0  0  0  0  0  0  0  0
    3.8674    1.3755   21.1529 C   0  0  0  0  0  0  0  0  0  0  0  0
    4.7854    1.8177   20.0200 C   0  0  0  0  0  0  0  0  0  0  0  0
    5.5867    0.6904   19.4154 C   0  0  0  0  0  0  0  0  0  0  0  0
    5.1094   -0.0689   18.3650 C   0  0  0  0  0  0  0  0  0  0  0  0
    5.7840   -1.0754   17.8039 N   0  0  0  0  0  0  0  0  0  0  0  0
    6.9945   -1.3664   18.2893 C   0  0  0  0  0  0  0  0  0  0  0  0
    7.5812   -0.6735   19.3463 C   0  0  0  0  0  0  0  0  0  0  0  0
    8.8626   -0.9606   19.8815 N   0  0  0  0  0  0  0  0  0  0  0  0
    9.4170   -0.6514   21.1028 C   0  0  0  0  0  0  0  0  0  0  0  0
    8.8385   -0.0286   21.9869 O   0  0  0  0  0  0  0  0  0  0  0  0
   10.7033   -1.1311   21.2029 N   0  0  0  0  0  0  0  0  0  0  0  0
   11.6443   -1.0507   22.2609 C   0  0  0  0  0  0  0  0  0  0  0  0
   11.6282    0.0974   23.0450 C   0  0  0  0  0  0  0  0  0  0  0  0
   12.5169    0.2475   24.0959 C   0  0  0  0  0  0  0  0  0  0  0  0
   13.4360   -0.7461   24.3807 C   0  0  0  0  0  0  0  0  0  0  0  0
   13.4468   -1.8803   23.6006 C   0  0  0  0  0  0  0  0  0  0  0  0
   14.6001   -3.1371   23.9511 Cl  0  0  0  0  0  0  0  0  0  0  0  0
   12.5709   -2.0527   22.5478 C   0  0  0  0  0  0  0  0  0  0  0  0
    6.8458    0.3672   19.9021 C   0  0  0  0  0  0  0  0  0  0  0  0
  1  2  1  0
  2  3  2  0
  2  4  1  0
  4  5  1  0
  5  6  1  0
  6  7  1  0
  7  8  2  0
  8  9  1  0
  9 10  2  0
 10 11  1  0
 11 12  1  0
 12 13  1  0
 13 14  2  0
 13 15  1  0
 15 16  1  0
 16 17  2  0
 17 18  1  0
 18 19  2  0
 19 20  1  0
 20 21  1  0
 20 22  2  0
 11 23  2  0
 23  7  1  0
 22 16  1  0
M  END
