CVD-0002027|dock_bobby27042020.65|mol2|11|dock1
     RDKit          3D

 34 38  0  0  0  0  0  0  0  0999 V2000
    5.1086   -6.4315   25.1358 C   0  0  0  0  0  0  0  0  0  0  0  0
    5.9050   -5.8920   24.0351 N   0  0  0  0  0  0  0  0  0  0  0  0
    6.0692   -4.4429   24.1833 C   0  0  0  0  0  0  0  0  0  0  0  0
    6.9308   -3.8944   23.0610 C   0  0  0  0  0  0  0  0  0  0  0  0
    6.3349   -4.2056   21.7599 N   0  0  0  0  0  0  0  0  0  0  0  0
    6.1021   -5.6449   21.6043 C   0  0  0  0  0  0  0  0  0  0  0  0
    5.2613   -6.1701   22.7537 C   0  0  0  0  0  0  0  0  0  0  0  0
    6.0721   -3.2600   20.8280 C   0  0  0  0  0  0  0  0  0  0  0  0
    5.6128   -3.5712   19.7456 O   0  0  0  0  0  0  0  0  0  0  0  0
    6.3291   -1.7607   21.0830 C   0  0  0  0  0  0  0  0  0  0  0  0
    7.8297   -1.5598   21.2927 C   0  0  0  0  0  0  0  0  0  0  0  0
    8.6538   -2.3489   20.8387 O   0  0  0  0  0  0  0  0  0  0  0  0
    8.1802   -0.4918   22.0098 N   0  0  0  0  0  0  0  0  0  0  0  0
    9.5680   -0.1727   22.3139 C   0  0  0  0  0  0  0  0  0  0  0  0
    9.7472    1.2822   22.7000 C   0  0  0  0  0  0  0  0  0  0  0  0
   11.1788    1.7334   22.6768 C   0  0  0  0  0  0  0  0  0  0  0  0
   12.2966    0.9542   22.6171 C   0  0  0  0  0  0  0  0  0  0  0  0
   13.4213    1.7337   22.6139 N   0  0  0  0  0  0  0  0  0  0  0  0
   13.0467    3.0536   22.6723 C   0  0  0  0  0  0  0  0  0  0  0  0
   13.8051    4.2187   22.6934 C   0  0  0  0  0  0  0  0  0  0  0  0
   13.1567    5.4399   22.7557 C   0  0  0  0  0  0  0  0  0  0  0  0
   11.7872    5.4589   22.7946 C   0  0  0  0  0  0  0  0  0  0  0  0
   11.1626    6.6658   22.8557 F   0  0  0  0  0  0  0  0  0  0  0  0
   11.0028    4.3301   22.7757 C   0  0  0  0  0  0  0  0  0  0  0  0
   11.6401    3.0919   22.7130 C   0  0  0  0  0  0  0  0  0  0  0  0
    5.7384   -0.8738   20.0085 C   0  0  0  0  0  0  0  0  0  0  0  0
    5.9414   -0.9187   18.6598 C   0  0  0  0  0  0  0  0  0  0  0  0
    5.2209    0.0592   18.0268 N   0  0  0  0  0  0  0  0  0  0  0  0
    4.5282    0.7652   18.9654 C   0  0  0  0  0  0  0  0  0  0  0  0
    3.7036    1.8060   18.7591 N   0  0  0  0  0  0  0  0  0  0  0  0
    3.1348    2.3366   19.8503 C   0  0  0  0  0  0  0  0  0  0  0  0
    3.3526    1.8758   21.1311 C   0  0  0  0  0  0  0  0  0  0  0  0
    4.2063    0.8014   21.3256 C   0  0  0  0  0  0  0  0  0  0  0  0
    4.8232    0.2135   20.2232 C   0  0  0  0  0  0  0  0  0  0  0  0
  1  2  1  0
  2  3  1  0
  3  4  1  0
  4  5  1  0
  5  6  1  0
  6  7  1  0
  5  8  1  0
  8  9  2  0
  8 10  1  0
 10 11  1  0
 11 12  2  0
 11 13  1  0
 13 14  1  0
 14 15  1  0
 15 16  1  0
 16 17  2  0
 17 18  1  0
 18 19  1  0
 19 20  2  0
 20 21  1  0
 21 22  2  0
 22 23  1  0
 22 24  1  0
 24 25  2  0
 10 26  1  0
 26 27  2  0
 27 28  1  0
 28 29  1  0
 29 30  2  0
 30 31  1  0
 31 32  2  0
 32 33  1  0
 33 34  2  0
  7  2  1  0
 25 16  1  0
 34 26  1  0
 25 19  1  0
 34 29  1  0
M  END
