CVD-0003959|dock_bobby27042020.29|mol2|15|dock1
     RDKit          3D

 19 20  0  0  0  0  0  0  0  0999 V2000
   14.2557   -1.5781   25.2794 C   0  0  0  0  0  0  0  0  0  0  0  0
   13.1219   -2.3890   24.7243 C   0  0  0  0  0  0  0  0  0  0  0  0
   12.8824   -3.5166   25.1415 O   0  0  0  0  0  0  0  0  0  0  0  0
   12.3593   -1.8289   23.7533 N   0  0  0  0  0  0  0  0  0  0  0  0
   11.2364   -2.5601   23.1897 C   0  0  0  0  0  0  0  0  0  0  0  0
    9.9901   -1.7337   23.2402 C   0  0  0  0  0  0  0  0  0  0  0  0
   10.2344   -0.4558   22.5563 N   0  0  0  0  0  0  0  0  0  0  0  0
   11.3207    0.3045   23.1923 C   0  0  0  0  0  0  0  0  0  0  0  0
   12.5789   -0.5111   23.1491 C   0  0  0  0  0  0  0  0  0  0  0  0
    8.9338    0.3598   22.0190 S   0  0  0  0  0  0  0  0  0  0  0  0
    9.4062    1.5658   21.4165 O   0  0  0  0  0  0  0  0  0  0  0  0
    8.0075    0.4436   23.1030 O   0  0  0  0  0  0  0  0  0  0  0  0
    8.1874   -0.6377   20.7374 C   0  0  0  0  0  0  0  0  0  0  0  0
    7.0529    0.0717   20.0492 C   0  0  0  0  0  0  0  0  0  0  0  0
    7.1654    0.4673   18.7255 C   0  0  0  0  0  0  0  0  0  0  0  0
    6.1200    1.1173   18.0911 C   0  0  0  0  0  0  0  0  0  0  0  0
    4.9509    1.3777   18.7735 C   0  0  0  0  0  0  0  0  0  0  0  0
    4.8266    0.9879   20.0899 C   0  0  0  0  0  0  0  0  0  0  0  0
    5.8719    0.3379   20.7243 C   0  0  0  0  0  0  0  0  0  0  0  0
  1  2  1  0
  2  3  2  0
  2  4  1  0
  4  5  1  0
  5  6  1  0
  6  7  1  0
  7  8  1  0
  8  9  1  0
  7 10  1  0
 10 11  2  0
 10 12  2  0
 10 13  1  0
 13 14  1  0
 14 15  2  0
 15 16  1  0
 16 17  2  0
 17 18  1  0
 18 19  2  0
  9  4  1  0
 19 14  1  0
M  END
