CVD-0001388|dock_bobby27042020.52|mol2|44|dock3
     RDKit          3D

 13 13  0  0  0  0  0  0  0  0999 V2000
   13.5375   -2.5438   23.2702 C   0  0  0  0  0  0  0  0  0  0  0  0
   13.4935   -1.0670   23.5318 C   0  0  0  0  0  0  0  0  0  0  0  0
   14.2442   -0.5549   24.3551 O   0  0  0  0  0  0  0  0  0  0  0  0
   12.5804   -0.4068   22.7716 N   0  0  0  0  0  0  0  0  0  0  0  0
   12.2366    0.9728   22.6977 C   0  0  0  0  0  0  0  0  0  0  0  0
   13.1960    1.9886   22.7551 C   0  0  0  0  0  0  0  0  0  0  0  0
   12.8143    3.3266   22.6790 C   0  0  0  0  0  0  0  0  0  0  0  0
   11.4766    3.6673   22.5462 C   0  0  0  0  0  0  0  0  0  0  0  0
   10.5302    2.6660   22.4904 C   0  0  0  0  0  0  0  0  0  0  0  0
   10.8761    1.3191   22.5619 C   0  0  0  0  0  0  0  0  0  0  0  0
    9.7658    0.3020   22.4945 C   0  0  0  0  0  0  0  0  0  0  0  0
   13.8198    4.3586   22.7391 C   0  0  0  0  0  0  0  0  0  0  0  0
   14.6241    5.1659   22.8176 N   0  0  0  0  0  0  0  0  0  0  0  0
  1  2  1  0
  2  3  2  0
  2  4  1  0
  4  5  1  0
  5  6  2  0
  6  7  1  0
  7  8  2  0
  8  9  1  0
  9 10  2  0
 10 11  1  0
  7 12  1  0
 12 13  3  0
 10  5  1  0
M  END
