CVD-0001317|dock_bobby27042020.38|mol2|31|dock1
     RDKit          3D

 19 20  0  0  0  0  0  0  0  0999 V2000
    5.9595    0.9933   17.6280 C   0  0  0  0  0  0  0  0  0  0  0  0
    6.3014    0.8097   19.0757 C   0  0  0  0  0  0  0  0  0  0  0  0
    5.4977    1.3031   20.0878 C   0  0  0  0  0  0  0  0  0  0  0  0
    5.8870    1.0926   21.3985 C   0  0  0  0  0  0  0  0  0  0  0  0
    5.0800    1.5939   22.5578 C   0  0  0  0  0  0  0  0  0  0  0  0
    7.0178    0.4293   21.6922 N   0  0  0  0  0  0  0  0  0  0  0  0
    7.7370   -0.0130   20.6477 C   0  0  0  0  0  0  0  0  0  0  0  0
    8.8683   -0.6774   20.9318 N   0  0  0  0  0  0  0  0  0  0  0  0
    9.3216   -0.9886   22.2833 C   0  0  0  0  0  0  0  0  0  0  0  0
   10.2265   -2.2177   22.3349 C   0  0  0  0  0  0  0  0  0  0  0  0
   10.7767   -2.4701   23.7241 C   0  0  0  0  0  0  0  0  0  0  0  0
   11.4301   -1.2676   24.2506 N   0  0  0  0  0  0  0  0  0  0  0  0
   10.5376   -0.1160   24.3169 C   0  0  0  0  0  0  0  0  0  0  0  0
   10.0242    0.1987   22.9291 C   0  0  0  0  0  0  0  0  0  0  0  0
   12.6896   -1.2043   24.7388 C   0  0  0  0  0  0  0  0  0  0  0  0
   13.1513   -0.1479   25.1516 O   0  0  0  0  0  0  0  0  0  0  0  0
   13.5256   -2.4697   24.7578 C   0  0  0  0  0  0  0  0  0  0  0  0
   15.1168   -2.2086   25.4840 Cl  0  0  0  0  0  0  0  0  0  0  0  0
    7.4360    0.1438   19.3481 N   0  0  0  0  0  0  0  0  0  0  0  0
  1  2  1  0
  2  3  2  0
  3  4  1  0
  4  5  1  0
  4  6  2  0
  6  7  1  0
  7  8  1  0
  8  9  1  0
  9 10  1  0
 10 11  1  0
 11 12  1  0
 12 13  1  0
 13 14  1  0
 12 15  1  0
 15 16  2  0
 15 17  1  0
 17 18  1  0
  7 19  2  0
 19  2  1  0
 14  9  1  0
M  END
