CVD-0001756|dock_bobby27042020.8|mol2|30|dock2
     RDKit          3D

 27 29  0  0  0  0  0  0  0  0999 V2000
   14.6769   -1.9610   25.2744 C   0  0  0  0  0  0  0  0  0  0  0  0
   13.4061   -2.2420   24.6086 N   0  0  0  0  0  0  0  0  0  0  0  0
   12.3014   -1.4657   25.1715 C   0  0  0  0  0  0  0  0  0  0  0  0
   11.0093   -1.8108   24.4827 C   0  0  0  0  0  0  0  0  0  0  0  0
   11.1010   -1.5476   23.0436 N   0  0  0  0  0  0  0  0  0  0  0  0
    9.8237   -1.8301   22.3744 C   0  0  0  0  0  0  0  0  0  0  0  0
    9.6330   -1.0438   21.0879 C   0  0  0  0  0  0  0  0  0  0  0  0
    9.2366    0.3483   21.3633 N   0  0  0  0  0  0  0  0  0  0  0  0
   10.1957    1.2457   21.8581 C   0  0  0  0  0  0  0  0  0  0  0  0
   11.2983    0.8144   22.1660 O   0  0  0  0  0  0  0  0  0  0  0  0
    9.8814    2.5799   22.0012 N   0  0  0  0  0  0  0  0  0  0  0  0
   10.6684    3.6585   22.4847 C   0  0  0  0  0  0  0  0  0  0  0  0
   12.0603    3.7181   22.4708 C   0  0  0  0  0  0  0  0  0  0  0  0
   12.6981    4.8363   22.9802 C   0  0  0  0  0  0  0  0  0  0  0  0
   11.9370    5.8638   23.4867 C   0  0  0  0  0  0  0  0  0  0  0  0
   10.6053    5.8387   23.5127 N   0  0  0  0  0  0  0  0  0  0  0  0
   10.0002    4.7545   23.0197 C   0  0  0  0  0  0  0  0  0  0  0  0
    7.8653    0.6752   21.0585 C   0  0  0  0  0  0  0  0  0  0  0  0
    6.9481    1.0096   22.0521 C   0  0  0  0  0  0  0  0  0  0  0  0
    5.6408    1.3370   21.7322 C   0  0  0  0  0  0  0  0  0  0  0  0
    5.2161    1.3205   20.4166 C   0  0  0  0  0  0  0  0  0  0  0  0
    6.1128    0.9741   19.4143 C   0  0  0  0  0  0  0  0  0  0  0  0
    7.4305    0.6557   19.7343 C   0  0  0  0  0  0  0  0  0  0  0  0
    5.6844    0.9437   18.0376 C   0  0  0  0  0  0  0  0  0  0  0  0
    5.3322    0.8894   16.9525 N   0  0  0  0  0  0  0  0  0  0  0  0
   12.2057   -2.3239   22.4807 C   0  0  0  0  0  0  0  0  0  0  0  0
   13.4978   -1.9788   23.1696 C   0  0  0  0  0  0  0  0  0  0  0  0
  1  2  1  0
  2  3  1  0
  3  4  1  0
  4  5  1  0
  5  6  1  0
  6  7  1  0
  7  8  1  0
  8  9  1  0
  9 10  2  0
  9 11  1  0
 11 12  1  0
 12 13  2  0
 13 14  1  0
 14 15  2  0
 15 16  1  0
 16 17  2  0
  8 18  1  0
 18 19  2  0
 19 20  1  0
 20 21  2  0
 21 22  1  0
 22 23  2  0
 22 24  1  0
 24 25  3  0
  5 26  1  0
 26 27  1  0
 27  2  1  0
 17 12  1  0
 23 18  1  0
M  END
