CVD-0001150|dock_bobby27042020.10|mol2|34|dock3
     RDKit          3D

 29 32  0  0  0  0  0  0  0  0999 V2000
    5.1490    0.0566   18.2030 Cl  0  0  0  0  0  0  0  0  0  0  0  0
    6.0947   -1.4271   18.3808 C   0  0  0  0  0  0  0  0  0  0  0  0
    6.0415   -1.9384   19.8070 C   0  0  0  0  0  0  0  0  0  0  0  0
    5.5020   -3.0010   20.0884 O   0  0  0  0  0  0  0  0  0  0  0  0
    6.6241   -1.1629   20.7435 N   0  0  0  0  0  0  0  0  0  0  0  0
    6.6690   -1.5278   22.1611 C   0  0  0  0  0  0  0  0  0  0  0  0
    8.0978   -1.4981   22.6710 C   0  0  0  0  0  0  0  0  0  0  0  0
    8.6800   -0.1676   22.4719 N   0  0  0  0  0  0  0  0  0  0  0  0
   10.0510   -0.1219   23.0006 C   0  0  0  0  0  0  0  0  0  0  0  0
   10.7067    1.2302   22.8509 C   0  0  0  0  0  0  0  0  0  0  0  0
    9.9327    2.3828   22.8348 C   0  0  0  0  0  0  0  0  0  0  0  0
   10.4577    3.6541   22.7009 C   0  0  0  0  0  0  0  0  0  0  0  0
    9.4897    4.7899   22.7457 C   0  0  0  0  0  0  0  0  0  0  0  0
    9.6736    5.8969   23.5697 C   0  0  0  0  0  0  0  0  0  0  0  0
    8.7596    6.9352   23.5994 C   0  0  0  0  0  0  0  0  0  0  0  0
    7.6243    6.8912   22.7979 C   0  0  0  0  0  0  0  0  0  0  0  0
    7.4254    5.7907   21.9717 C   0  0  0  0  0  0  0  0  0  0  0  0
    8.3473    4.7591   21.9516 C   0  0  0  0  0  0  0  0  0  0  0  0
    6.6680    7.9702   22.8231 C   0  0  0  0  0  0  0  0  0  0  0  0
    5.8933    8.8096   22.8188 N   0  0  0  0  0  0  0  0  0  0  0  0
   11.8720    3.7883   22.5309 C   0  0  0  0  0  0  0  0  0  0  0  0
   12.5667    5.0105   22.3223 C   0  0  0  0  0  0  0  0  0  0  0  0
   13.9215    5.0078   22.2053 C   0  0  0  0  0  0  0  0  0  0  0  0
   14.6841    3.9155   22.2617 N   0  0  0  0  0  0  0  0  0  0  0  0
   14.0741    2.7575   22.4265 C   0  0  0  0  0  0  0  0  0  0  0  0
   12.6742    2.6102   22.5632 C   0  0  0  0  0  0  0  0  0  0  0  0
   12.0636    1.3464   22.7251 C   0  0  0  0  0  0  0  0  0  0  0  0
    8.6708    0.1482   21.0459 C   0  0  0  0  0  0  0  0  0  0  0  0
    7.2537    0.1390   20.5022 C   0  0  0  0  0  0  0  0  0  0  0  0
  1  2  1  0
  2  3  1  0
  3  4  2  0
  3  5  1  0
  5  6  1  0
  6  7  1  0
  7  8  1  0
  8  9  1  0
  9 10  1  0
 10 11  2  0
 11 12  1  0
 12 13  1  0
 13 14  2  0
 14 15  1  0
 15 16  2  0
 16 17  1  0
 17 18  2  0
 16 19  1  0
 19 20  3  0
 12 21  2  0
 21 22  1  0
 22 23  2  0
 23 24  1  0
 24 25  2  0
 25 26  1  0
 26 27  2  0
  8 28  1  0
 28 29  1  0
 29  5  1  0
 27 10  1  0
 18 13  1  0
 26 21  1  0
M  END
