CVD-0003068|dock_bobby27042020.89|mol2|12|dock2
     RDKit          3D

 21 22  0  0  0  0  0  0  0  0999 V2000
    7.1933   -1.2249   25.0130 C   0  0  0  0  0  0  0  0  0  0  0  0
    6.3437   -0.8035   23.8550 C   0  0  0  0  0  0  0  0  0  0  0  0
    6.9943   -1.0869   22.5862 N   0  0  0  0  0  0  0  0  0  0  0  0
    6.6644   -0.4709   21.3985 C   0  0  0  0  0  0  0  0  0  0  0  0
    5.3592   -0.0309   21.1773 C   0  0  0  0  0  0  0  0  0  0  0  0
    5.0073    0.5162   19.9596 C   0  0  0  0  0  0  0  0  0  0  0  0
    5.9530    0.6421   18.9527 C   0  0  0  0  0  0  0  0  0  0  0  0
    7.2700    0.2486   19.1712 C   0  0  0  0  0  0  0  0  0  0  0  0
    7.6450   -0.2929   20.4023 C   0  0  0  0  0  0  0  0  0  0  0  0
    8.9909   -0.6582   20.6792 N   0  0  0  0  0  0  0  0  0  0  0  0
    9.7080   -0.4895   21.8424 C   0  0  0  0  0  0  0  0  0  0  0  0
    9.2645    0.0342   22.8596 O   0  0  0  0  0  0  0  0  0  0  0  0
   10.9888   -0.9774   21.7144 N   0  0  0  0  0  0  0  0  0  0  0  0
   12.0654   -1.0120   22.6369 C   0  0  0  0  0  0  0  0  0  0  0  0
   12.2355   -0.0868   23.6650 C   0  0  0  0  0  0  0  0  0  0  0  0
   13.3167   -0.1916   24.5248 C   0  0  0  0  0  0  0  0  0  0  0  0
   14.2348   -1.2076   24.3758 C   0  0  0  0  0  0  0  0  0  0  0  0
   14.0759   -2.1270   23.3631 C   0  0  0  0  0  0  0  0  0  0  0  0
   12.9994   -2.0327   22.4977 C   0  0  0  0  0  0  0  0  0  0  0  0
    5.5758    1.1868   17.6718 C   0  0  0  0  0  0  0  0  0  0  0  0
    5.2836    1.6489   16.6688 N   0  0  0  0  0  0  0  0  0  0  0  0
  1  2  1  0
  2  3  1  0
  3  4  1  0
  4  5  2  0
  5  6  1  0
  6  7  2  0
  7  8  1  0
  8  9  2  0
  9 10  1  0
 10 11  1  0
 11 12  2  0
 11 13  1  0
 13 14  1  0
 14 15  2  0
 15 16  1  0
 16 17  2  0
 17 18  1  0
 18 19  2  0
  7 20  1  0
 20 21  3  0
  9  4  1  0
 19 14  1  0
M  END
