CVD-0003694|dock_bobby27042020.1|mol2|16|dock3
     RDKit          3D

 28 30  0  0  0  0  0  0  0  0999 V2000
   12.0350   -0.5098   25.1295 O   0  0  0  0  0  0  0  0  0  0  0  0
   11.7899    0.3163   23.9894 C   0  0  0  0  0  0  0  0  0  0  0  0
   12.8808    1.3747   23.9142 C   0  0  0  0  0  0  0  0  0  0  0  0
   12.3894    2.7712   23.5577 C   0  0  0  0  0  0  0  0  0  0  0  0
   13.5137    3.7126   23.1470 C   0  0  0  0  0  0  0  0  0  0  0  0
   13.0480    5.1249   22.7827 C   0  0  0  0  0  0  0  0  0  0  0  0
   12.6992    5.9608   23.9197 N   0  0  0  0  0  0  0  0  0  0  0  0
   13.2832    7.1675   23.8715 C   0  0  0  0  0  0  0  0  0  0  0  0
   13.1078    8.1020   24.6491 O   0  0  0  0  0  0  0  0  0  0  0  0
   14.1236    7.1826   22.7758 N   0  0  0  0  0  0  0  0  0  0  0  0
   14.0931    5.9995   22.0986 C   0  0  0  0  0  0  0  0  0  0  0  0
   14.7385    5.7321   21.0887 O   0  0  0  0  0  0  0  0  0  0  0  0
   11.6800   -0.5798   22.7503 C   0  0  0  0  0  0  0  0  0  0  0  0
   11.5316    0.2457   21.4935 C   0  0  0  0  0  0  0  0  0  0  0  0
   10.2264    0.8265   21.4242 O   0  0  0  0  0  0  0  0  0  0  0  0
    9.1309   -0.1001   21.5258 C   0  0  0  0  0  0  0  0  0  0  0  0
    9.0589   -0.9917   20.4154 N   0  0  0  0  0  0  0  0  0  0  0  0
    7.9302   -1.3440   19.6702 C   0  0  0  0  0  0  0  0  0  0  0  0
    7.2783   -0.4742   18.7976 C   0  0  0  0  0  0  0  0  0  0  0  0
    6.1568   -0.8951   18.0974 C   0  0  0  0  0  0  0  0  0  0  0  0
    5.5262   -0.0305   17.2511 O   0  0  0  0  0  0  0  0  0  0  0  0
    5.6705   -2.1843   18.2477 C   0  0  0  0  0  0  0  0  0  0  0  0
    6.3211   -3.0529   19.1096 C   0  0  0  0  0  0  0  0  0  0  0  0
    5.8559   -4.3260   19.2656 O   0  0  0  0  0  0  0  0  0  0  0  0
    7.4411   -2.6384   19.8151 C   0  0  0  0  0  0  0  0  0  0  0  0
    9.2294   -0.8442   22.8413 C   0  0  0  0  0  0  0  0  0  0  0  0
    8.2052   -1.8050   22.8775 F   0  0  0  0  0  0  0  0  0  0  0  0
   10.5490   -1.5586   22.9903 C   0  0  0  0  0  0  0  0  0  0  0  0
  1  2  1  0
  2  3  1  0
  3  4  1  0
  4  5  1  0
  5  6  1  0
  6  7  1  0
  7  8  1  0
  8  9  2  0
  8 10  1  0
 10 11  1  0
 11 12  2  0
  2 13  1  0
 13 14  1  0
 14 15  1  0
 15 16  1  0
 16 17  1  0
 17 18  1  0
 18 19  2  0
 19 20  1  0
 20 21  1  0
 20 22  2  0
 22 23  1  0
 23 24  1  0
 23 25  2  0
 16 26  1  0
 26 27  1  0
 26 28  1  0
 11  6  1  0
 28 13  1  0
 25 18  1  0
M  END
