CVD-0002680|dock_bobby27042020.76|mol2|23|dock2
     RDKit          3D

 31 33  0  0  0  0  0  0  0  0999 V2000
    6.6070   -7.2474   22.4026 N   0  0  0  0  0  0  0  0  0  0  0  0
    6.4978   -6.1837   23.1881 C   0  0  0  0  0  0  0  0  0  0  0  0
    5.4206   -5.6327   23.4418 O   0  0  0  0  0  0  0  0  0  0  0  0
    7.8146   -5.6750   23.7693 C   0  0  0  0  0  0  0  0  0  0  0  0
    8.7607   -6.4313   23.9060 O   0  0  0  0  0  0  0  0  0  0  0  0
    7.8910   -4.2045   24.1682 C   0  0  0  0  0  0  0  0  0  0  0  0
    8.4187   -4.0936   25.6068 C   0  0  0  0  0  0  0  0  0  0  0  0
    7.6877   -4.9856   26.5804 C   0  0  0  0  0  0  0  0  0  0  0  0
    8.3626   -5.9728   27.2816 C   0  0  0  0  0  0  0  0  0  0  0  0
    7.6914   -6.7935   28.1726 C   0  0  0  0  0  0  0  0  0  0  0  0
    6.3367   -6.6370   28.3722 C   0  0  0  0  0  0  0  0  0  0  0  0
    5.6533   -5.6602   27.6804 C   0  0  0  0  0  0  0  0  0  0  0  0
    6.3249   -4.8398   26.7895 C   0  0  0  0  0  0  0  0  0  0  0  0
    8.7671   -3.5050   23.2426 N   0  0  0  0  0  0  0  0  0  0  0  0
    8.7300   -2.1745   23.1157 C   0  0  0  0  0  0  0  0  0  0  0  0
    7.9615   -1.4726   23.7677 O   0  0  0  0  0  0  0  0  0  0  0  0
    9.6978   -1.5335   22.1226 C   0  0  0  0  0  0  0  0  0  0  0  0
    9.1233   -0.2063   21.5899 C   0  0  0  0  0  0  0  0  0  0  0  0
    7.9438   -0.3920   20.6665 C   0  0  0  0  0  0  0  0  0  0  0  0
    6.6929    0.0989   21.0072 C   0  0  0  0  0  0  0  0  0  0  0  0
    5.6112   -0.0685   20.1587 C   0  0  0  0  0  0  0  0  0  0  0  0
    5.7684   -0.7281   18.9587 C   0  0  0  0  0  0  0  0  0  0  0  0
    7.0071   -1.2198   18.6072 C   0  0  0  0  0  0  0  0  0  0  0  0
    8.0884   -1.0522   19.4562 C   0  0  0  0  0  0  0  0  0  0  0  0
   11.0536   -1.3514   22.6681 N   0  0  0  0  0  0  0  0  0  0  0  0
   12.1732   -1.8253   22.0167 C   0  0  0  0  0  0  0  0  0  0  0  0
   13.4041   -1.6571   22.5392 C   0  0  0  0  0  0  0  0  0  0  0  0
   13.5585   -0.9919   23.7659 C   0  0  0  0  0  0  0  0  0  0  0  0
   12.4622   -0.5225   24.4298 C   0  0  0  0  0  0  0  0  0  0  0  0
   11.1418   -0.6918   23.9002 C   0  0  0  0  0  0  0  0  0  0  0  0
   10.1208   -0.2978   24.4619 O   0  0  0  0  0  0  0  0  0  0  0  0
  1  2  1  0
  2  3  2  0
  2  4  1  0
  4  5  2  0
  4  6  1  0
  6  7  1  0
  7  8  1  0
  8  9  2  0
  9 10  1  0
 10 11  2  0
 11 12  1  0
 12 13  2  0
  6 14  1  0
 14 15  1  0
 15 16  2  0
 15 17  1  0
 17 18  1  0
 18 19  1  0
 19 20  2  0
 20 21  1  0
 21 22  2  0
 22 23  1  0
 23 24  2  0
 17 25  1  0
 25 26  1  0
 26 27  2  0
 27 28  1  0
 28 29  2  0
 29 30  1  0
 30 31  2  0
 13  8  1  0
 24 19  1  0
 30 25  1  0
M  END
