CVD-0002813|dock_bobby27042020.18|mol2|32|dock2
     RDKit          3D

 23 25  0  0  0  0  0  0  0  0999 V2000
    4.9593    1.2864   21.2167 C   0  0  0  0  0  0  0  0  0  0  0  0
    5.7182    1.0227   19.9414 C   0  0  0  0  0  0  0  0  0  0  0  0
    5.1678    1.4566   18.7393 C   0  0  0  0  0  0  0  0  0  0  0  0
    5.8402    1.2323   17.5589 C   0  0  0  0  0  0  0  0  0  0  0  0
    7.0141    0.6102   17.4987 N   0  0  0  0  0  0  0  0  0  0  0  0
    7.5536    0.1897   18.6471 C   0  0  0  0  0  0  0  0  0  0  0  0
    6.9617    0.3630   19.8984 C   0  0  0  0  0  0  0  0  0  0  0  0
    7.5365   -0.0842   21.1206 N   0  0  0  0  0  0  0  0  0  0  0  0
    8.8314   -0.1255   21.5222 C   0  0  0  0  0  0  0  0  0  0  0  0
    9.8062    0.2359   20.8688 O   0  0  0  0  0  0  0  0  0  0  0  0
    9.0250   -0.6942   22.9488 C   0  0  0  0  0  0  0  0  0  0  0  0
   10.4218   -0.6204   23.3658 N   0  0  0  0  0  0  0  0  0  0  0  0
   10.5769   -0.4486   24.8125 C   0  0  0  0  0  0  0  0  0  0  0  0
   12.0164   -0.1621   25.1773 C   0  0  0  0  0  0  0  0  0  0  0  0
   12.9461   -1.2517   24.6870 C   0  0  0  0  0  0  0  0  0  0  0  0
   14.3232   -0.9845   24.9654 O   0  0  0  0  0  0  0  0  0  0  0  0
   12.7137   -1.4465   23.1937 C   0  0  0  0  0  0  0  0  0  0  0  0
   11.2528   -1.7194   22.8905 C   0  0  0  0  0  0  0  0  0  0  0  0
    8.5160   -2.1132   22.9911 C   0  0  0  0  0  0  0  0  0  0  0  0
    7.9085   -2.7252   24.1261 C   0  0  0  0  0  0  0  0  0  0  0  0
    7.5306   -4.0190   23.9266 C   0  0  0  0  0  0  0  0  0  0  0  0
    7.9172   -4.4982   22.3435 S   0  0  0  0  0  0  0  0  0  0  0  0
    8.5814   -2.9851   21.9444 C   0  0  0  0  0  0  0  0  0  0  0  0
  1  2  1  0
  2  3  2  0
  3  4  1  0
  4  5  2  0
  5  6  1  0
  6  7  2  0
  7  8  1  0
  8  9  1  0
  9 10  2  0
 11  9  1  0
 11 12  1  0
 12 13  1  0
 13 14  1  0
 14 15  1  0
 15 16  1  0
 15 17  1  0
 17 18  1  0
 11 19  1  0
 19 20  1  0
 20 21  2  0
 21 22  1  0
 22 23  1  0
  7  2  1  0
 18 12  1  0
 23 19  2  0
M  END
