CVD-0003257|dock_bobby27042020.45|mol2|46|dock1
     RDKit          3D

 25 28  0  0  0  0  0  0  0  0999 V2000
    9.8612   -0.3801   22.8622 O   0  0  0  0  0  0  0  0  0  0  0  0
   10.3073   -0.9508   21.8706 C   0  0  0  0  0  0  0  0  0  0  0  0
    9.6077   -1.0427   20.6623 N   0  0  0  0  0  0  0  0  0  0  0  0
    8.3365   -0.5385   20.3465 C   0  0  0  0  0  0  0  0  0  0  0  0
    7.5625   -0.9254   19.2717 C   0  0  0  0  0  0  0  0  0  0  0  0
    6.3370   -0.2037   19.2669 C   0  0  0  0  0  0  0  0  0  0  0  0
    5.1776   -0.0946   18.5313 N   0  0  0  0  0  0  0  0  0  0  0  0
    4.3467    0.8316   19.0824 C   0  0  0  0  0  0  0  0  0  0  0  0
    4.9445    1.3569   20.2071 C   0  0  0  0  0  0  0  0  0  0  0  0
    4.4164    2.4135   21.1406 C   0  0  0  0  0  0  0  0  0  0  0  0
    4.1582    3.7395   20.4481 C   0  0  0  0  0  0  0  0  0  0  0  0
    2.9755    3.6889   19.5431 C   0  0  0  0  0  0  0  0  0  0  0  0
    1.7132    3.5834   19.9329 N   0  0  0  0  0  0  0  0  0  0  0  0
    0.9713    3.5813   18.7761 C   0  0  0  0  0  0  0  0  0  0  0  0
    1.7874    3.6879   17.7044 C   0  0  0  0  0  0  0  0  0  0  0  0
    3.0574    3.7572   18.2032 N   0  0  0  0  0  0  0  0  0  0  0  0
    6.2117    0.6890   20.3089 C   0  0  0  0  0  0  0  0  0  0  0  0
    7.5933    0.6896   21.3485 S   0  0  0  0  0  0  0  0  0  0  0  0
   11.5341   -1.5639   21.8212 N   0  0  0  0  0  0  0  0  0  0  0  0
   12.5538   -1.7187   22.7738 C   0  0  0  0  0  0  0  0  0  0  0  0
   12.6980   -0.8667   23.8668 C   0  0  0  0  0  0  0  0  0  0  0  0
   13.7478   -1.1431   24.7192 C   0  0  0  0  0  0  0  0  0  0  0  0
   14.5939   -2.1564   24.5392 N   0  0  0  0  0  0  0  0  0  0  0  0
   14.3554   -2.8981   23.4633 C   0  0  0  0  0  0  0  0  0  0  0  0
   13.3835   -2.7446   22.5619 N   0  0  0  0  0  0  0  0  0  0  0  0
  1  2  2  0
  2  3  1  0
  3  4  1  0
  4  5  2  0
  5  6  1  0
  6  7  1  0
  7  8  1  0
  8  9  2  0
  9 10  1  0
 10 11  1  0
 11 12  1  0
 12 13  2  0
 13 14  1  0
 14 15  2  0
 15 16  1  0
  9 17  1  0
 17 18  1  0
  2 19  1  0
 19 20  1  0
 20 21  2  0
 21 22  1  0
 22 23  2  0
 23 24  1  0
 24 25  2  0
 18  4  1  0
 25 20  1  0
 17  6  2  0
 16 12  1  0
M  END
