CVD-0000273|dock_bobby27042020.13|mol2|29|dock2
     RDKit          3D

 23 25  0  0  0  0  0  0  0  0999 V2000
   13.2496    4.3782   21.3102 C   0  0  0  0  0  0  0  0  0  0  0  0
   13.5433    3.4506   22.4610 C   0  0  0  0  0  0  0  0  0  0  0  0
   12.4925    2.4327   22.6311 N   0  0  0  0  0  0  0  0  0  0  0  0
   12.7044    1.0637   22.7764 C   0  0  0  0  0  0  0  0  0  0  0  0
   13.8629    0.2977   22.8237 C   0  0  0  0  0  0  0  0  0  0  0  0
   13.7312   -1.0735   22.9801 C   0  0  0  0  0  0  0  0  0  0  0  0
   12.4872   -1.6652   23.0861 C   0  0  0  0  0  0  0  0  0  0  0  0
   11.3266   -0.9083   23.0398 C   0  0  0  0  0  0  0  0  0  0  0  0
   11.4496    0.4669   22.8834 C   0  0  0  0  0  0  0  0  0  0  0  0
   10.5065    1.4883   22.8004 N   0  0  0  0  0  0  0  0  0  0  0  0
    9.0577    1.3333   22.8416 C   0  0  0  0  0  0  0  0  0  0  0  0
    8.5465    0.4722   21.6995 C   0  0  0  0  0  0  0  0  0  0  0  0
    9.2647    0.1860   20.7466 O   0  0  0  0  0  0  0  0  0  0  0  0
    7.2834    0.0693   21.8084 N   0  0  0  0  0  0  0  0  0  0  0  0
    6.6393   -0.7541   20.7958 C   0  0  0  0  0  0  0  0  0  0  0  0
    6.2153    0.0335   19.5817 C   0  0  0  0  0  0  0  0  0  0  0  0
    6.9648    0.0500   18.4154 C   0  0  0  0  0  0  0  0  0  0  0  0
    6.5999    0.7465   17.3361 N   0  0  0  0  0  0  0  0  0  0  0  0
    5.4635    1.4360   17.4366 C   0  0  0  0  0  0  0  0  0  0  0  0
    4.7088    1.4289   18.5926 C   0  0  0  0  0  0  0  0  0  0  0  0
    5.0757    0.7302   19.6743 N   0  0  0  0  0  0  0  0  0  0  0  0
   11.1382    2.7053   22.6328 C   0  0  0  0  0  0  0  0  0  0  0  0
   10.6082    3.7981   22.5113 O   0  0  0  0  0  0  0  0  0  0  0  0
  1  2  1  0
  2  3  1  0
  3  4  1  0
  4  5  2  0
  5  6  1  0
  6  7  2  0
  7  8  1  0
  8  9  2  0
  9 10  1  0
 10 11  1  0
 11 12  1  0
 12 13  2  0
 12 14  1  0
 14 15  1  0
 15 16  1  0
 16 17  2  0
 17 18  1  0
 18 19  2  0
 19 20  1  0
 20 21  2  0
 10 22  1  0
 22 23  2  0
 22  3  1  0
  9  4  1  0
 21 16  1  0
M  END
