CVD-0000291|dock_bobby27042020.56|mol2|29|dock1
     RDKit          3D

 22 24  0  0  0  0  0  0  0  0999 V2000
    8.1554   -0.7076   18.5448 O   0  0  0  0  0  0  0  0  0  0  0  0
    7.5558   -0.4834   19.8119 C   0  0  0  0  0  0  0  0  0  0  0  0
    8.5280    0.2789   20.7029 C   0  0  0  0  0  0  0  0  0  0  0  0
    8.3127    1.4665   20.9267 O   0  0  0  0  0  0  0  0  0  0  0  0
    9.5710   -0.4449   21.1797 N   0  0  0  0  0  0  0  0  0  0  0  0
   10.6535   -0.0830   22.0200 C   0  0  0  0  0  0  0  0  0  0  0  0
   11.2515   -0.9658   22.9164 C   0  0  0  0  0  0  0  0  0  0  0  0
   12.3068   -0.5425   23.7076 C   0  0  0  0  0  0  0  0  0  0  0  0
   12.7765    0.7560   23.6163 C   0  0  0  0  0  0  0  0  0  0  0  0
   12.1917    1.6488   22.7278 C   0  0  0  0  0  0  0  0  0  0  0  0
   11.1331    1.2203   21.9359 C   0  0  0  0  0  0  0  0  0  0  0  0
   12.6815    3.0321   22.6211 C   0  0  0  0  0  0  0  0  0  0  0  0
   12.5982    3.9163   21.5335 C   0  0  0  0  0  0  0  0  0  0  0  0
   13.2051    5.0668   21.9580 C   0  0  0  0  0  0  0  0  0  0  0  0
   13.6145    4.8619   23.2134 N   0  0  0  0  0  0  0  0  0  0  0  0
   13.3071    3.6181   23.6516 N   0  0  0  0  0  0  0  0  0  0  0  0
    6.2689    0.3051   19.6641 C   0  0  0  0  0  0  0  0  0  0  0  0
    6.0275    1.0954   18.5509 C   0  0  0  0  0  0  0  0  0  0  0  0
    4.8421    1.8031   18.4539 C   0  0  0  0  0  0  0  0  0  0  0  0
    3.9297    1.6985   19.4795 C   0  0  0  0  0  0  0  0  0  0  0  0
    4.1316    0.9484   20.5641 N   0  0  0  0  0  0  0  0  0  0  0  0
    5.2830    0.2741   20.6364 C   0  0  0  0  0  0  0  0  0  0  0  0
  1  2  1  0
  2  3  1  0
  3  4  2  0
  3  5  1  0
  5  6  1  0
  6  7  2  0
  7  8  1  0
  8  9  2  0
  9 10  1  0
 10 11  2  0
 10 12  1  0
 12 13  1  0
 13 14  2  0
 14 15  1  0
 15 16  1  0
  2 17  1  0
 17 18  2  0
 18 19  1  0
 19 20  2  0
 20 21  1  0
 21 22  2  0
 11  6  1  0
 16 12  2  0
 22 17  1  0
M  END
