CVD-0002721|dock_bobby27042020.33|mol2|16|dock1
     RDKit          3D

 33 36  0  0  0  0  0  0  0  0999 V2000
    1.4412    5.0270   19.6179 Cl  0  0  0  0  0  0  0  0  0  0  0  0
    2.5687    3.8098   20.2300 C   0  0  0  0  0  0  0  0  0  0  0  0
    3.2260    3.0468   19.0958 C   0  0  0  0  0  0  0  0  0  0  0  0
    2.8668    3.2200   17.9380 O   0  0  0  0  0  0  0  0  0  0  0  0
    4.2196    2.1798   19.3935 N   0  0  0  0  0  0  0  0  0  0  0  0
    4.7161    1.8805   20.7341 C   0  0  0  0  0  0  0  0  0  0  0  0
    4.8600    0.3830   20.9100 C   0  0  0  0  0  0  0  0  0  0  0  0
    5.7889   -0.1942   19.8491 C   0  0  0  0  0  0  0  0  0  0  0  0
    5.2744    0.1812   18.4613 C   0  0  0  0  0  0  0  0  0  0  0  0
    5.1059    1.6923   18.3422 C   0  0  0  0  0  0  0  0  0  0  0  0
    5.9080   -1.6985   19.9939 C   0  0  0  0  0  0  0  0  0  0  0  0
    5.4487   -2.4696   19.1561 O   0  0  0  0  0  0  0  0  0  0  0  0
    6.5586   -2.0757   21.1215 N   0  0  0  0  0  0  0  0  0  0  0  0
    6.8682   -3.3684   21.6131 C   0  0  0  0  0  0  0  0  0  0  0  0
    6.5156   -4.5694   20.9973 C   0  0  0  0  0  0  0  0  0  0  0  0
    6.8828   -5.7693   21.5862 C   0  0  0  0  0  0  0  0  0  0  0  0
    7.5901   -5.7922   22.7693 C   0  0  0  0  0  0  0  0  0  0  0  0
    7.9473   -4.6096   23.3925 C   0  0  0  0  0  0  0  0  0  0  0  0
    7.5862   -3.4000   22.8159 C   0  0  0  0  0  0  0  0  0  0  0  0
    7.8815   -2.1640   23.3319 O   0  0  0  0  0  0  0  0  0  0  0  0
    9.2474   -1.6871   23.4169 C   0  0  0  0  0  0  0  0  0  0  0  0
    9.3723   -0.2689   23.9607 C   0  0  0  0  0  0  0  0  0  0  0  0
   10.7945    0.2537   23.9116 C   0  0  0  0  0  0  0  0  0  0  0  0
   11.3480    0.2010   22.5531 N   0  0  0  0  0  0  0  0  0  0  0  0
   12.7062    0.7607   22.5201 C   0  0  0  0  0  0  0  0  0  0  0  0
   12.7206    2.2682   22.4360 C   0  0  0  0  0  0  0  0  0  0  0  0
   11.5358    2.9860   22.3870 C   0  0  0  0  0  0  0  0  0  0  0  0
   11.5490    4.3689   22.3131 C   0  0  0  0  0  0  0  0  0  0  0  0
   12.7474    5.0494   22.2881 C   0  0  0  0  0  0  0  0  0  0  0  0
   13.9325    4.3473   22.3376 C   0  0  0  0  0  0  0  0  0  0  0  0
   13.9191    2.9645   22.4116 C   0  0  0  0  0  0  0  0  0  0  0  0
   11.3343   -1.1854   22.0786 C   0  0  0  0  0  0  0  0  0  0  0  0
    9.9194   -1.7387   22.0492 C   0  0  0  0  0  0  0  0  0  0  0  0
  1  2  1  0
  2  3  1  0
  3  4  2  0
  3  5  1  0
  5  6  1  0
  6  7  1  0
  7  8  1  0
  8  9  1  0
  9 10  1  0
  8 11  1  0
 11 12  2  0
 11 13  1  0
 13 14  1  0
 14 15  2  0
 15 16  1  0
 16 17  2  0
 17 18  1  0
 18 19  2  0
 19 20  1  0
 20 21  1  0
 21 22  1  0
 22 23  1  0
 23 24  1  0
 24 25  1  0
 25 26  1  0
 26 27  2  0
 27 28  1  0
 28 29  2  0
 29 30  1  0
 30 31  2  0
 24 32  1  0
 32 33  1  0
 10  5  1  0
 19 14  1  0
 33 21  1  0
 31 26  1  0
M  END
