CVD-0000674|dock_bobby27042020.55|mol2|16|dock3
     RDKit          3D

 23 25  0  0  0  0  0  0  0  0999 V2000
    7.3343    0.7041   18.4375 C   0  0  0  0  0  0  0  0  0  0  0  0
    7.2755   -0.9894   18.8799 S   0  0  0  0  0  0  0  0  0  0  0  0
    7.4588   -1.7632   17.6910 O   0  0  0  0  0  0  0  0  0  0  0  0
    6.0929   -1.2024   19.6557 O   0  0  0  0  0  0  0  0  0  0  0  0
    8.5236   -1.2997   19.8383 N   0  0  0  0  0  0  0  0  0  0  0  0
    8.3513   -1.3160   21.2945 C   0  0  0  0  0  0  0  0  0  0  0  0
    9.6421   -1.0309   22.0611 C   0  0  0  0  0  0  0  0  0  0  0  0
    9.9475    0.4593   22.0380 C   0  0  0  0  0  0  0  0  0  0  0  0
    9.0875    1.2435   21.6850 O   0  0  0  0  0  0  0  0  0  0  0  0
   11.1738    0.9288   22.4091 N   0  0  0  0  0  0  0  0  0  0  0  0
   12.2961    0.0742   22.8631 C   0  0  0  0  0  0  0  0  0  0  0  0
   13.4132    1.0684   23.2523 C   0  0  0  0  0  0  0  0  0  0  0  0
   12.8764    2.4063   22.8258 C   0  0  0  0  0  0  0  0  0  0  0  0
   13.4638    3.6657   22.8492 C   0  0  0  0  0  0  0  0  0  0  0  0
   12.6943    4.7445   22.4604 C   0  0  0  0  0  0  0  0  0  0  0  0
   11.4235    4.6473   22.0650 N   0  0  0  0  0  0  0  0  0  0  0  0
   10.8581    3.4330   22.0427 C   0  0  0  0  0  0  0  0  0  0  0  0
   11.5509    2.2907   22.4153 C   0  0  0  0  0  0  0  0  0  0  0  0
    9.5236   -1.4358   23.5157 C   0  0  0  0  0  0  0  0  0  0  0  0
    9.3962   -0.5932   24.6134 C   0  0  0  0  0  0  0  0  0  0  0  0
    9.3119   -1.3382   25.8146 C   0  0  0  0  0  0  0  0  0  0  0  0
    9.3728   -2.6678   25.6277 C   0  0  0  0  0  0  0  0  0  0  0  0
    9.5358   -3.0780   23.9788 S   0  0  0  0  0  0  0  0  0  0  0  0
  1  2  1  0
  2  3  2  0
  2  4  2  0
  2  5  1  0
  5  6  1  0
  7  6  1  0
  7  8  1  0
  8  9  2  0
  8 10  1  0
 10 11  1  0
 11 12  1  0
 12 13  1  0
 13 14  2  0
 14 15  1  0
 15 16  2  0
 16 17  1  0
 17 18  2  0
  7 19  1  0
 19 20  2  0
 20 21  1  0
 21 22  2  0
 22 23  1  0
 18 10  1  0
 23 19  1  0
 18 13  1  0
M  END
