CVD-0002683|dock_bobby27042020.76|mol2|22|dock2
     RDKit          3D

 38 41  0  0  0  0  0  0  0  0999 V2000
   10.2248   -5.3146   26.3771 C   0  0  0  0  0  0  0  0  0  0  0  0
    9.3112   -4.3012   25.8615 N   0  0  0  0  0  0  0  0  0  0  0  0
    8.4955   -3.7499   26.9380 C   0  0  0  0  0  0  0  0  0  0  0  0
    8.5261   -4.7834   24.7062 C   0  0  0  0  0  0  0  0  0  0  0  0
    7.5703   -5.9365   25.0678 C   0  0  0  0  0  0  0  0  0  0  0  0
    6.4372   -6.1059   24.0850 C   0  0  0  0  0  0  0  0  0  0  0  0
    6.6733   -6.0777   22.7193 C   0  0  0  0  0  0  0  0  0  0  0  0
    5.6344   -6.2363   21.8175 C   0  0  0  0  0  0  0  0  0  0  0  0
    4.3468   -6.4259   22.2713 C   0  0  0  0  0  0  0  0  0  0  0  0
    4.0985   -6.4573   23.6266 C   0  0  0  0  0  0  0  0  0  0  0  0
    5.1378   -6.2987   24.5280 C   0  0  0  0  0  0  0  0  0  0  0  0
    7.7162   -3.6353   24.1088 C   0  0  0  0  0  0  0  0  0  0  0  0
    6.5534   -3.4626   24.4639 O   0  0  0  0  0  0  0  0  0  0  0  0
    8.3376   -2.8724   23.1996 N   0  0  0  0  0  0  0  0  0  0  0  0
    7.7329   -1.7204   22.5414 C   0  0  0  0  0  0  0  0  0  0  0  0
    8.3431   -1.4487   21.1563 C   0  0  0  0  0  0  0  0  0  0  0  0
    7.3065   -1.1972   20.0884 C   0  0  0  0  0  0  0  0  0  0  0  0
    7.1740    0.0558   19.5104 C   0  0  0  0  0  0  0  0  0  0  0  0
    6.2252    0.2861   18.5281 C   0  0  0  0  0  0  0  0  0  0  0  0
    5.3983   -0.7349   18.1117 C   0  0  0  0  0  0  0  0  0  0  0  0
    5.5204   -1.9859   18.6772 C   0  0  0  0  0  0  0  0  0  0  0  0
    6.4693   -2.2155   19.6594 C   0  0  0  0  0  0  0  0  0  0  0  0
    7.8376   -0.4633   23.4035 C   0  0  0  0  0  0  0  0  0  0  0  0
    6.8606    0.2246   23.6447 O   0  0  0  0  0  0  0  0  0  0  0  0
    9.2500   -0.1442   23.9222 C   0  0  0  0  0  0  0  0  0  0  0  0
    9.9588   -1.1291   24.0949 O   0  0  0  0  0  0  0  0  0  0  0  0
    9.6995    1.1018   24.1770 N   0  0  0  0  0  0  0  0  0  0  0  0
    9.0106    2.3688   23.9859 C   0  0  0  0  0  0  0  0  0  0  0  0
    9.8750    3.3850   23.2481 C   0  0  0  0  0  0  0  0  0  0  0  0
   11.1866    3.5185   23.8992 N   0  0  0  0  0  0  0  0  0  0  0  0
   11.8664    2.1989   23.9506 C   0  0  0  0  0  0  0  0  0  0  0  0
   11.0328    1.2563   24.7775 C   0  0  0  0  0  0  0  0  0  0  0  0
   11.9456    4.6588   23.6773 C   0  0  0  0  0  0  0  0  0  0  0  0
   12.7341    4.7869   22.5380 C   0  0  0  0  0  0  0  0  0  0  0  0
   13.4796    5.9337   22.3221 C   0  0  0  0  0  0  0  0  0  0  0  0
   13.4586    6.9619   23.2372 C   0  0  0  0  0  0  0  0  0  0  0  0
   12.6895    6.8444   24.3731 C   0  0  0  0  0  0  0  0  0  0  0  0
   11.9363    5.7038   24.5964 C   0  0  0  0  0  0  0  0  0  0  0  0
  1  2  1  0
  2  3  1  0
  2  4  1  0
  4  5  1  0
  5  6  1  0
  6  7  2  0
  7  8  1  0
  8  9  2  0
  9 10  1  0
 10 11  2  0
  4 12  1  0
 12 13  2  0
 12 14  1  0
 14 15  1  0
 15 16  1  0
 16 17  1  0
 17 18  2  0
 18 19  1  0
 19 20  2  0
 20 21  1  0
 21 22  2  0
 15 23  1  0
 23 24  2  0
 23 25  1  0
 25 26  2  0
 25 27  1  0
 27 28  1  0
 28 29  1  0
 29 30  1  0
 30 31  1  0
 31 32  1  0
 30 33  1  0
 33 34  2  0
 34 35  1  0
 35 36  2  0
 36 37  1  0
 37 38  2  0
 11  6  1  0
 22 17  1  0
 32 27  1  0
 38 33  1  0
M  END
