CVD-0003028|dock_bobby27042020.3|mol2|27|dock1
     RDKit          3D

 28 31  0  0  0  0  0  0  0  0999 V2000
    3.7003   -7.3063   24.4194 C   0  0  0  0  0  0  0  0  0  0  0  0
    4.4583   -6.0240   24.1985 C   0  0  0  0  0  0  0  0  0  0  0  0
    4.5825   -5.5012   22.9131 C   0  0  0  0  0  0  0  0  0  0  0  0
    5.2763   -4.3255   22.6855 C   0  0  0  0  0  0  0  0  0  0  0  0
    5.3440   -3.8846   21.3767 O   0  0  0  0  0  0  0  0  0  0  0  0
    6.0320   -2.7159   21.1531 C   0  0  0  0  0  0  0  0  0  0  0  0
    6.2072   -2.0898   19.8231 C   0  0  0  0  0  0  0  0  0  0  0  0
    5.7351   -2.4655   18.7582 O   0  0  0  0  0  0  0  0  0  0  0  0
    6.9646   -0.9901   20.0114 N   0  0  0  0  0  0  0  0  0  0  0  0
    7.3966   -0.0884   18.9418 C   0  0  0  0  0  0  0  0  0  0  0  0
    6.2405    0.5300   18.1753 C   0  0  0  0  0  0  0  0  0  0  0  0
    5.2821    1.2740   19.0722 C   0  0  0  0  0  0  0  0  0  0  0  0
    4.6939    0.4110   20.0323 O   0  0  0  0  0  0  0  0  0  0  0  0
    7.2949   -0.7686   21.4141 C   0  0  0  0  0  0  0  0  0  0  0  0
    6.6424   -1.9614   22.0692 C   0  0  0  0  0  0  0  0  0  0  0  0
    6.6104   -2.3689   23.4735 C   0  0  0  0  0  0  0  0  0  0  0  0
    7.1546   -1.7168   24.3584 O   0  0  0  0  0  0  0  0  0  0  0  0
    5.8759   -3.6242   23.7426 C   0  0  0  0  0  0  0  0  0  0  0  0
    5.7546   -4.1428   25.0300 C   0  0  0  0  0  0  0  0  0  0  0  0
    5.0575   -5.3185   25.2365 C   0  0  0  0  0  0  0  0  0  0  0  0
    4.9333   -5.9323   26.8526 Cl  0  0  0  0  0  0  0  0  0  0  0  0
    8.7943   -0.6763   21.6525 C   0  0  0  0  0  0  0  0  0  0  0  0
    9.3868    0.5326   21.9889 C   0  0  0  0  0  0  0  0  0  0  0  0
   10.7504    0.6250   22.2043 C   0  0  0  0  0  0  0  0  0  0  0  0
   11.5262   -0.5066   22.0798 C   0  0  0  0  0  0  0  0  0  0  0  0
   13.2433   -0.4002   22.3493 Cl  0  0  0  0  0  0  0  0  0  0  0  0
   10.9678   -1.7209   21.7458 C   0  0  0  0  0  0  0  0  0  0  0  0
    9.6028   -1.7978   21.5335 C   0  0  0  0  0  0  0  0  0  0  0  0
  1  2  1  0
  2  3  2  0
  3  4  1  0
  4  5  1  0
  5  6  1  0
  6  7  1  0
  7  8  2  0
  7  9  1  0
  9 10  1  0
 10 11  1  0
 11 12  1  0
 12 13  1  0
  9 14  1  0
 14 15  1  0
 15 16  1  0
 16 17  2  0
 16 18  1  0
 18 19  1  0
 19 20  2  0
 20 21  1  0
 14 22  1  0
 22 23  2  0
 23 24  1  0
 24 25  2  0
 25 26  1  0
 25 27  1  0
 27 28  2  0
 20  2  1  0
 28 22  1  0
 18  4  2  0
 15  6  2  0
M  END
