CVD-0003328|dock_bobby27042020.16|mol2|49|dock3
     RDKit          3D

 25 27  0  0  0  0  0  0  0  0999 V2000
    3.9869    1.1058   19.2657 O   0  0  0  0  0  0  0  0  0  0  0  0
    5.1143    0.5637   19.8103 C   0  0  0  0  0  0  0  0  0  0  0  0
    5.1315    0.1857   21.1432 C   0  0  0  0  0  0  0  0  0  0  0  0
    6.2782   -0.3637   21.6888 C   0  0  0  0  0  0  0  0  0  0  0  0
    7.4194   -0.5462   20.9237 C   0  0  0  0  0  0  0  0  0  0  0  0
    8.6677   -1.1429   21.5269 C   0  0  0  0  0  0  0  0  0  0  0  0
    9.7109   -0.0887   21.9181 C   0  0  0  0  0  0  0  0  0  0  0  0
    9.1421    0.8771   22.9410 C   0  0  0  0  0  0  0  0  0  0  0  0
   10.0982    1.9559   23.2068 N   0  0  0  0  0  0  0  0  0  0  0  0
   10.3575    2.8209   22.0529 C   0  0  0  0  0  0  0  0  0  0  0  0
   11.3073    3.9441   22.3514 C   0  0  0  0  0  0  0  0  0  0  0  0
   11.1364    4.9460   23.2801 C   0  0  0  0  0  0  0  0  0  0  0  0
   12.1931    5.8513   23.3357 C   0  0  0  0  0  0  0  0  0  0  0  0
   13.1638    5.5386   22.4548 C   0  0  0  0  0  0  0  0  0  0  0  0
   14.6320    6.3873   22.1986 Cl  0  0  0  0  0  0  0  0  0  0  0  0
   12.8191    4.1350   21.5343 S   0  0  0  0  0  0  0  0  0  0  0  0
   11.3358    1.3789   23.7253 C   0  0  0  0  0  0  0  0  0  0  0  0
   11.9411    0.4143   22.7219 C   0  0  0  0  0  0  0  0  0  0  0  0
   10.9816   -0.6435   22.3898 N   0  0  0  0  0  0  0  0  0  0  0  0
   11.2702   -1.9664   22.5148 C   0  0  0  0  0  0  0  0  0  0  0  0
   10.4881   -2.8814   22.2901 O   0  0  0  0  0  0  0  0  0  0  0  0
   12.6787   -2.3082   22.9645 C   0  0  0  0  0  0  0  0  0  0  0  0
   13.8822   -1.7217   21.8087 Cl  0  0  0  0  0  0  0  0  0  0  0  0
    7.3879   -0.1620   19.5922 C   0  0  0  0  0  0  0  0  0  0  0  0
    6.2482    0.3886   19.0335 C   0  0  0  0  0  0  0  0  0  0  0  0
  1  2  1  0
  2  3  2  0
  3  4  1  0
  4  5  2  0
  5  6  1  0
  7  6  1  0
  7  8  1  0
  8  9  1  0
  9 10  1  0
 10 11  1  0
 11 12  2  0
 12 13  1  0
 13 14  2  0
 14 15  1  0
 14 16  1  0
  9 17  1  0
 17 18  1  0
 18 19  1  0
 19 20  1  0
 20 21  2  0
 20 22  1  0
 22 23  1  0
  5 24  1  0
 24 25  2  0
 25  2  1  0
 19  7  1  0
 16 11  1  0
M  END
