CVD-0000722|dock_bobby27042020.26|mol2|24|dock1
     RDKit          3D

 22 24  0  0  0  0  0  0  0  0999 V2000
   10.6580    2.6295   23.5151 N   0  0  0  0  0  0  0  0  0  0  0  0
   10.8332    1.3484   23.2334 C   0  0  0  0  0  0  0  0  0  0  0  0
   11.9541    0.8515   23.1017 O   0  0  0  0  0  0  0  0  0  0  0  0
    9.5631    0.5318   23.0869 C   0  0  0  0  0  0  0  0  0  0  0  0
    8.7929    0.9651   21.8606 C   0  0  0  0  0  0  0  0  0  0  0  0
    8.5310   -0.3203   21.1128 C   0  0  0  0  0  0  0  0  0  0  0  0
    7.8299   -0.3479   19.7754 C   0  0  0  0  0  0  0  0  0  0  0  0
    6.4711    0.3150   19.7931 C   0  0  0  0  0  0  0  0  0  0  0  0
    6.0341    1.0936   18.7345 C   0  0  0  0  0  0  0  0  0  0  0  0
    4.7856    1.6882   18.7863 C   0  0  0  0  0  0  0  0  0  0  0  0
    4.0092    1.4839   19.9041 C   0  0  0  0  0  0  0  0  0  0  0  0
    4.4025    0.7410   20.9397 N   0  0  0  0  0  0  0  0  0  0  0  0
    5.6120    0.1770   20.8671 C   0  0  0  0  0  0  0  0  0  0  0  0
    8.9986   -1.3818   21.7801 C   0  0  0  0  0  0  0  0  0  0  0  0
    9.7157   -0.9715   23.0440 C   0  0  0  0  0  0  0  0  0  0  0  0
   11.1675   -1.4249   23.0512 C   0  0  0  0  0  0  0  0  0  0  0  0
   11.8744   -1.5710   21.8659 C   0  0  0  0  0  0  0  0  0  0  0  0
   13.1953   -1.9868   21.8764 C   0  0  0  0  0  0  0  0  0  0  0  0
   13.8287   -2.2638   23.0760 C   0  0  0  0  0  0  0  0  0  0  0  0
   13.1207   -2.1178   24.2487 C   0  0  0  0  0  0  0  0  0  0  0  0
   13.9041   -2.4631   25.7652 Cl  0  0  0  0  0  0  0  0  0  0  0  0
   11.8041   -1.7043   24.2513 C   0  0  0  0  0  0  0  0  0  0  0  0
  1  2  1  0
  2  3  2  0
  4  2  1  0
  4  5  1  0
  5  6  1  0
  6  7  1  0
  7  8  1  0
  8  9  2  0
  9 10  1  0
 10 11  2  0
 11 12  1  0
 12 13  2  0
  6 14  2  0
 14 15  1  0
 15 16  1  0
 16 17  2  0
 17 18  1  0
 18 19  2  0
 19 20  1  0
 20 21  1  0
 20 22  2  0
 15  4  1  0
 22 16  1  0
 13  8  1  0
M  END
