CVD-0001496|dock_bobby27042020.95|mol2|11|dock2
     RDKit          3D

 23 24  0  0  0  0  0  0  0  0999 V2000
    1.0092    1.7116   20.2984 O   0  0  0  0  0  0  0  0  0  0  0  0
    1.6716    2.8103   20.5689 C   0  0  0  0  0  0  0  0  0  0  0  0
    1.5175    3.8460   19.9598 O   0  0  0  0  0  0  0  0  0  0  0  0
    2.6372    2.6523   21.7075 C   0  0  0  0  0  0  0  0  0  0  0  0
    3.7587    1.6552   21.4524 C   0  0  0  0  0  0  0  0  0  0  0  0
    4.6985    2.0745   20.3294 C   0  0  0  0  0  0  0  0  0  0  0  0
    5.4361    0.9212   19.6932 C   0  0  0  0  0  0  0  0  0  0  0  0
    4.8848    0.1697   18.6738 C   0  0  0  0  0  0  0  0  0  0  0  0
    5.5038   -0.8551   18.0826 N   0  0  0  0  0  0  0  0  0  0  0  0
    6.7322   -1.1721   18.5023 C   0  0  0  0  0  0  0  0  0  0  0  0
    7.3927   -0.4877   19.5205 C   0  0  0  0  0  0  0  0  0  0  0  0
    8.6951   -0.8015   19.9851 N   0  0  0  0  0  0  0  0  0  0  0  0
    9.3083   -0.5379   21.1888 C   0  0  0  0  0  0  0  0  0  0  0  0
    8.7766    0.0580   22.1197 O   0  0  0  0  0  0  0  0  0  0  0  0
   10.5939   -1.0294   21.2124 N   0  0  0  0  0  0  0  0  0  0  0  0
   11.5837   -0.9916   22.2274 C   0  0  0  0  0  0  0  0  0  0  0  0
   11.6097    0.1263   23.0537 C   0  0  0  0  0  0  0  0  0  0  0  0
   12.5472    0.2342   24.0666 C   0  0  0  0  0  0  0  0  0  0  0  0
   13.4738   -0.7723   24.2709 C   0  0  0  0  0  0  0  0  0  0  0  0
   13.4427   -1.8763   23.4493 C   0  0  0  0  0  0  0  0  0  0  0  0
   14.6050   -3.1489   23.6982 Cl  0  0  0  0  0  0  0  0  0  0  0  0
   12.5178   -2.0064   22.4330 C   0  0  0  0  0  0  0  0  0  0  0  0
    6.7133    0.5726   20.1097 C   0  0  0  0  0  0  0  0  0  0  0  0
  1  2  1  0
  2  3  2  0
  2  4  1  0
  4  5  1  0
  5  6  1  0
  6  7  1  0
  7  8  2  0
  8  9  1  0
  9 10  2  0
 10 11  1  0
 11 12  1  0
 12 13  1  0
 13 14  2  0
 13 15  1  0
 15 16  1  0
 16 17  2  0
 17 18  1  0
 18 19  2  0
 19 20  1  0
 20 21  1  0
 20 22  2  0
 11 23  2  0
 23  7  1  0
 22 16  1  0
M  END
