CVD-0003448|dock_bobby27042020.2|mol2|7|dock1
     RDKit          3D

 20 22  0  0  0  0  0  0  0  0999 V2000
    6.9735   -1.5279   22.5570 F   0  0  0  0  0  0  0  0  0  0  0  0
    6.6044   -0.9406   21.4086 C   0  0  0  0  0  0  0  0  0  0  0  0
    5.3232   -0.7096   21.2943 N   0  0  0  0  0  0  0  0  0  0  0  0
    4.9020   -0.1345   20.1624 C   0  0  0  0  0  0  0  0  0  0  0  0
    5.7784    0.2528   19.1571 C   0  0  0  0  0  0  0  0  0  0  0  0
    5.5689    0.8599   17.9603 N   0  0  0  0  0  0  0  0  0  0  0  0
    6.7430    1.1019   17.3141 N   0  0  0  0  0  0  0  0  0  0  0  0
    7.6927    0.6233   18.0934 C   0  0  0  0  0  0  0  0  0  0  0  0
    7.1678    0.0373   19.2742 C   0  0  0  0  0  0  0  0  0  0  0  0
    7.5947   -0.6315   20.4423 C   0  0  0  0  0  0  0  0  0  0  0  0
    8.9592   -0.9994   20.7033 N   0  0  0  0  0  0  0  0  0  0  0  0
    9.6317   -0.8497   21.8935 C   0  0  0  0  0  0  0  0  0  0  0  0
    9.1476   -0.3719   22.9131 O   0  0  0  0  0  0  0  0  0  0  0  0
   10.9280   -1.2956   21.7789 N   0  0  0  0  0  0  0  0  0  0  0  0
   11.9858   -1.3285   22.7228 C   0  0  0  0  0  0  0  0  0  0  0  0
   12.9656   -2.3014   22.5595 C   0  0  0  0  0  0  0  0  0  0  0  0
   14.0264   -2.3897   23.4449 C   0  0  0  0  0  0  0  0  0  0  0  0
   14.1236   -1.5115   24.5012 C   0  0  0  0  0  0  0  0  0  0  0  0
   13.1594   -0.5431   24.6741 C   0  0  0  0  0  0  0  0  0  0  0  0
   12.0933   -0.4450   23.7950 C   0  0  0  0  0  0  0  0  0  0  0  0
  1  2  1  0
  2  3  2  0
  3  4  1  0
  4  5  2  0
  5  6  1  0
  6  7  1  0
  7  8  2  0
  8  9  1  0
  9 10  2  0
 10 11  1  0
 11 12  1  0
 12 13  2  0
 12 14  1  0
 14 15  1  0
 15 16  2  0
 16 17  1  0
 17 18  2  0
 18 19  1  0
 19 20  2  0
 10  2  1  0
 20 15  1  0
  9  5  1  0
M  END
