CVD-0000720|dock_bobby27042020.55|mol2|9|dock2
     RDKit          3D

 35 39  0  0  0  0  0  0  0  0999 V2000
    9.4510   -5.0370   27.1559 C   0  0  0  0  0  0  0  0  0  0  0  0
    9.8437   -4.3735   25.8768 C   0  0  0  0  0  0  0  0  0  0  0  0
    9.2697   -3.4680   25.0764 C   0  0  0  0  0  0  0  0  0  0  0  0
   10.1723   -3.2702   24.0263 C   0  0  0  0  0  0  0  0  0  0  0  0
   10.0311   -2.3585   22.8483 C   0  0  0  0  0  0  0  0  0  0  0  0
    8.6449   -1.9747   22.6145 N   0  0  0  0  0  0  0  0  0  0  0  0
    8.2809   -0.5506   22.7636 C   0  0  0  0  0  0  0  0  0  0  0  0
    8.6430   -0.0255   24.1491 C   0  0  0  0  0  0  0  0  0  0  0  0
    8.1996    1.4343   24.2761 C   0  0  0  0  0  0  0  0  0  0  0  0
    8.7857    2.3192   23.1929 C   0  0  0  0  0  0  0  0  0  0  0  0
    8.3024    3.7582   23.3135 C   0  0  0  0  0  0  0  0  0  0  0  0
    8.5774    4.4123   24.5921 N   0  0  0  0  0  0  0  0  0  0  0  0
    7.4368    4.7423   25.4377 C   0  0  0  0  0  0  0  0  0  0  0  0
    7.8815    4.8632   26.8843 C   0  0  0  0  0  0  0  0  0  0  0  0
    8.9400    5.9386   27.0149 C   0  0  0  0  0  0  0  0  0  0  0  0
   10.0682    5.7089   26.0387 C   0  0  0  0  0  0  0  0  0  0  0  0
   11.3355    6.2287   26.2758 C   0  0  0  0  0  0  0  0  0  0  0  0
   12.3548    6.0862   25.3557 C   0  0  0  0  0  0  0  0  0  0  0  0
   12.1009    5.4100   24.1747 C   0  0  0  0  0  0  0  0  0  0  0  0
   10.8487    4.8783   23.9049 C   0  0  0  0  0  0  0  0  0  0  0  0
    9.8167    5.0205   24.8324 C   0  0  0  0  0  0  0  0  0  0  0  0
   13.4085    5.1664   23.0111 S   0  0  0  0  0  0  0  0  0  0  0  0
   14.0966    6.5819   22.7176 N   0  0  0  0  0  0  0  0  0  0  0  0
   14.3933    4.3394   23.6413 O   0  0  0  0  0  0  0  0  0  0  0  0
   12.8137    4.7227   21.7862 O   0  0  0  0  0  0  0  0  0  0  0  0
    8.4628    1.7481   21.8211 C   0  0  0  0  0  0  0  0  0  0  0  0
    8.9202    0.2925   21.6716 C   0  0  0  0  0  0  0  0  0  0  0  0
    7.6900   -2.8890   22.2458 C   0  0  0  0  0  0  0  0  0  0  0  0
    6.5673   -2.5074   21.9375 O   0  0  0  0  0  0  0  0  0  0  0  0
    7.9939   -4.2023   22.2237 N   0  0  0  0  0  0  0  0  0  0  0  0
    7.0051   -5.2057   21.8290 C   0  0  0  0  0  0  0  0  0  0  0  0
    6.2326   -5.4113   23.2658 C   0  0  0  0  0  0  0  0  0  0  0  0
    5.4665   -5.2952   21.9977 C   0  0  0  0  0  0  0  0  0  0  0  0
   11.2356   -4.0046   24.1662 N   0  0  0  0  0  0  0  0  0  0  0  0
   11.0381   -4.7298   25.3670 O   0  0  0  0  0  0  0  0  0  0  0  0
  1  2  1  0
  2  3  2  0
  3  4  1  0
  4  5  1  0
  5  6  1  0
  6  7  1  0
  7  8  1  0
  8  9  1  0
  9 10  1  0
 10 11  1  0
 11 12  1  0
 12 13  1  0
 13 14  1  0
 14 15  1  0
 15 16  1  0
 16 17  2  0
 17 18  1  0
 18 19  2  0
 19 20  1  0
 20 21  2  0
 19 22  1  0
 22 23  1  0
 22 24  2  0
 22 25  2  0
 10 26  1  0
 26 27  1  0
  6 28  1  0
 28 29  2  0
 28 30  1  0
 30 31  1  0
 31 32  1  0
 32 33  1  0
  4 34  2  0
 34 35  1  0
 35  2  1  0
 27  7  1  0
 33 31  1  0
 21 12  1  0
 21 16  1  0
M  END
