CVD-0001442|dock_bobby27042020.81|mol2|7|dock1
     RDKit          3D

 18 19  0  0  0  0  0  0  0  0999 V2000
   13.5863   -3.4439   25.9739 Cl  0  0  0  0  0  0  0  0  0  0  0  0
   14.5736   -1.9832   25.7153 C   0  0  0  0  0  0  0  0  0  0  0  0
   13.6930   -0.8206   25.3372 C   0  0  0  0  0  0  0  0  0  0  0  0
   12.5878   -1.2129   24.4512 N   0  0  0  0  0  0  0  0  0  0  0  0
   11.5946   -0.1472   24.3637 C   0  0  0  0  0  0  0  0  0  0  0  0
   10.4041   -0.5844   23.5279 C   0  0  0  0  0  0  0  0  0  0  0  0
   10.8756   -0.9452   22.1213 C   0  0  0  0  0  0  0  0  0  0  0  0
   11.9639   -2.0056   22.2013 C   0  0  0  0  0  0  0  0  0  0  0  0
   13.0833   -1.5076   23.1022 C   0  0  0  0  0  0  0  0  0  0  0  0
    9.7309   -1.3403   21.2048 C   0  0  0  0  0  0  0  0  0  0  0  0
    9.6451   -2.4902   20.7821 O   0  0  0  0  0  0  0  0  0  0  0  0
    8.8287   -0.3807   20.8769 N   0  0  0  0  0  0  0  0  0  0  0  0
    7.7277    0.3210   20.3286 C   0  0  0  0  0  0  0  0  0  0  0  0
    7.2903    0.1211   19.0193 C   0  0  0  0  0  0  0  0  0  0  0  0
    6.2057    0.8358   18.5375 C   0  0  0  0  0  0  0  0  0  0  0  0
    5.5526    1.7458   19.3399 C   0  0  0  0  0  0  0  0  0  0  0  0
    5.9802    1.9488   20.6335 C   0  0  0  0  0  0  0  0  0  0  0  0
    7.0622    1.2418   21.1296 C   0  0  0  0  0  0  0  0  0  0  0  0
  1  2  1  0
  2  3  1  0
  3  4  1  0
  4  5  1  0
  5  6  1  0
  6  7  1  0
  7  8  1  0
  8  9  1  0
  7 10  1  0
 10 11  2  0
 10 12  1  0
 12 13  1  0
 13 14  2  0
 14 15  1  0
 15 16  2  0
 16 17  1  0
 17 18  2  0
  9  4  1  0
 18 13  1  0
M  END
