CVD-0003216|dock_bobby27042020.31|mol2|33|dock2
     RDKit          3D

 33 36  0  0  0  0  0  0  0  0999 V2000
    6.6311   -6.8559   22.0509 C   0  0  0  0  0  0  0  0  0  0  0  0
    5.8216   -6.0735   23.0511 C   0  0  0  0  0  0  0  0  0  0  0  0
    4.9259   -6.7255   23.8939 C   0  0  0  0  0  0  0  0  0  0  0  0
    4.1925   -5.9889   24.8013 C   0  0  0  0  0  0  0  0  0  0  0  0
    4.2932   -4.6654   24.9202 N   0  0  0  0  0  0  0  0  0  0  0  0
    5.1554   -4.0517   24.1043 C   0  0  0  0  0  0  0  0  0  0  0  0
    5.9328   -4.6847   23.1655 C   0  0  0  0  0  0  0  0  0  0  0  0
    6.8841   -3.9049   22.2868 C   0  0  0  0  0  0  0  0  0  0  0  0
    6.2670   -3.5342   20.9509 C   0  0  0  0  0  0  0  0  0  0  0  0
    5.4698   -4.3120   20.4408 O   0  0  0  0  0  0  0  0  0  0  0  0
    6.5901   -2.3672   20.3134 N   0  0  0  0  0  0  0  0  0  0  0  0
    5.9329   -2.1838   19.0203 C   0  0  0  0  0  0  0  0  0  0  0  0
    6.1086   -0.8168   18.4701 C   0  0  0  0  0  0  0  0  0  0  0  0
    5.2376    0.1396   18.1076 C   0  0  0  0  0  0  0  0  0  0  0  0
    6.0095    1.2208   17.6570 C   0  0  0  0  0  0  0  0  0  0  0  0
    5.4863    2.3819   17.2051 F   0  0  0  0  0  0  0  0  0  0  0  0
    7.3172    0.8714   17.7660 C   0  0  0  0  0  0  0  0  0  0  0  0
    7.3955   -0.3966   18.2713 O   0  0  0  0  0  0  0  0  0  0  0  0
    7.5071   -1.3433   20.7519 C   0  0  0  0  0  0  0  0  0  0  0  0
    7.0404   -0.0527   20.9733 C   0  0  0  0  0  0  0  0  0  0  0  0
    7.8896    0.9676   21.3645 C   0  0  0  0  0  0  0  0  0  0  0  0
    9.2475    0.7280   21.5540 C   0  0  0  0  0  0  0  0  0  0  0  0
   10.1929    1.7152   21.9353 N   0  0  0  0  0  0  0  0  0  0  0  0
   10.0172    2.9486   22.4875 C   0  0  0  0  0  0  0  0  0  0  0  0
    8.9181    3.4219   22.7564 O   0  0  0  0  0  0  0  0  0  0  0  0
   11.2249    3.7949   22.7923 C   0  0  0  0  0  0  0  0  0  0  0  0
   11.4346    4.4537   24.0046 C   0  0  0  0  0  0  0  0  0  0  0  0
   12.5732    5.2154   24.2105 C   0  0  0  0  0  0  0  0  0  0  0  0
   13.5217    5.3368   23.2195 C   0  0  0  0  0  0  0  0  0  0  0  0
   13.3326    4.6944   22.0166 C   0  0  0  0  0  0  0  0  0  0  0  0
   12.1968    3.9315   21.8043 C   0  0  0  0  0  0  0  0  0  0  0  0
    9.7120   -0.5657   21.3588 C   0  0  0  0  0  0  0  0  0  0  0  0
    8.8576   -1.5858   20.9808 C   0  0  0  0  0  0  0  0  0  0  0  0
  1  2  1  0
  2  3  2  0
  3  4  1  0
  4  5  2  0
  5  6  1  0
  6  7  2  0
  7  8  1  0
  8  9  1  0
  9 10  2  0
  9 11  1  0
 11 12  1  0
 12 13  1  0
 13 14  2  0
 14 15  1  0
 15 16  1  0
 15 17  2  0
 17 18  1  0
 11 19  1  0
 19 20  2  0
 20 21  1  0
 21 22  2  0
 22 23  1  0
 23 24  1  0
 24 25  2  0
 24 26  1  0
 26 27  2  0
 27 28  1  0
 28 29  2  0
 29 30  1  0
 30 31  2  0
 22 32  1  0
 32 33  2  0
  7  2  1  0
 18 13  1  0
 33 19  1  0
 31 26  1  0
M  END
