CVD-0002310|dock_bobby27042020.6|mol2|21|dock2
     RDKit          3D

 40 43  0  0  0  0  0  0  0  0999 V2000
   11.4854    1.8658   24.9657 C   0  0  0  0  0  0  0  0  0  0  0  0
   10.4541    2.1593   25.9643 N   0  0  0  0  0  0  0  0  0  0  0  0
    9.1384    1.5838   25.6655 C   0  0  0  0  0  0  0  0  0  0  0  0
    9.2225    0.1006   25.4176 C   0  0  0  0  0  0  0  0  0  0  0  0
    8.9157   -0.8987   26.3594 C   0  0  0  0  0  0  0  0  0  0  0  0
    9.1057   -2.1472   25.7984 C   0  0  0  0  0  0  0  0  0  0  0  0
    8.8937   -3.4502   26.4745 C   0  0  0  0  0  0  0  0  0  0  0  0
    9.8795   -4.4198   26.2821 C   0  0  0  0  0  0  0  0  0  0  0  0
    9.8097   -5.6466   26.9205 C   0  0  0  0  0  0  0  0  0  0  0  0
    8.7562   -5.9360   27.7582 C   0  0  0  0  0  0  0  0  0  0  0  0
    7.7420   -5.0125   27.9368 C   0  0  0  0  0  0  0  0  0  0  0  0
    7.8134   -3.8118   27.2705 C   0  0  0  0  0  0  0  0  0  0  0  0
    6.7531   -2.9863   27.4096 F   0  0  0  0  0  0  0  0  0  0  0  0
    9.5216   -1.9145   24.4606 N   0  0  0  0  0  0  0  0  0  0  0  0
    9.5933   -0.5440   24.2458 C   0  0  0  0  0  0  0  0  0  0  0  0
    9.8916   -2.9887   23.2033 S   0  0  0  0  0  0  0  0  0  0  0  0
   11.2884   -2.8388   22.9356 O   0  0  0  0  0  0  0  0  0  0  0  0
    9.3431   -4.2563   23.5742 O   0  0  0  0  0  0  0  0  0  0  0  0
    8.9942   -2.3817   21.8170 C   0  0  0  0  0  0  0  0  0  0  0  0
    9.6013   -1.5430   20.8979 C   0  0  0  0  0  0  0  0  0  0  0  0
    8.8620   -1.0850   19.8221 C   0  0  0  0  0  0  0  0  0  0  0  0
    7.5395   -1.4779   19.6975 C   0  0  0  0  0  0  0  0  0  0  0  0
    6.9473   -2.2892   20.5830 N   0  0  0  0  0  0  0  0  0  0  0  0
    7.6708   -2.7260   21.6197 C   0  0  0  0  0  0  0  0  0  0  0  0
    6.6934   -1.0141   18.5472 C   0  0  0  0  0  0  0  0  0  0  0  0
    5.7092   -2.0719   18.0550 C   0  0  0  0  0  0  0  0  0  0  0  0
    5.9886    0.2577   18.8642 N   0  0  0  0  0  0  0  0  0  0  0  0
    5.9233    1.1965   17.7453 C   0  0  0  0  0  0  0  0  0  0  0  0
    5.4471    0.4476   20.0976 C   0  0  0  0  0  0  0  0  0  0  0  0
    5.5322   -0.4114   20.9548 O   0  0  0  0  0  0  0  0  0  0  0  0
    4.7143    1.7227   20.4796 C   0  0  0  0  0  0  0  0  0  0  0  0
    3.3279    1.7635   19.8489 C   0  0  0  0  0  0  0  0  0  0  0  0
    2.5900    3.0190   20.2662 C   0  0  0  0  0  0  0  0  0  0  0  0
    2.4981    3.0827   21.7224 N   0  0  0  0  0  0  0  0  0  0  0  0
    3.8054    3.1004   22.3696 C   0  0  0  0  0  0  0  0  0  0  0  0
    4.5889    1.8463   21.9964 C   0  0  0  0  0  0  0  0  0  0  0  0
    1.3892    3.3832   22.4280 C   0  0  0  0  0  0  0  0  0  0  0  0
    1.3829    3.4005   23.6524 O   0  0  0  0  0  0  0  0  0  0  0  0
    0.1429    3.6940   21.6227 C   0  0  0  0  0  0  0  0  0  0  0  0
   -0.5144    2.2245   20.8909 Cl  0  0  0  0  0  0  0  0  0  0  0  0
  1  2  1  0
  2  3  1  0
  3  4  1  0
  4  5  1  0
  5  6  2  0
  6  7  1  0
  7  8  2  0
  8  9  1  0
  9 10  2  0
 10 11  1  0
 11 12  2  0
 12 13  1  0
  6 14  1  0
 14 15  1  0
 14 16  1  0
 16 17  2  0
 16 18  2  0
 16 19  1  0
 19 20  2  0
 20 21  1  0
 21 22  2  0
 22 23  1  0
 23 24  2  0
 22 25  1  0
 25 26  1  0
 25 27  1  0
 27 28  1  0
 27 29  1  0
 29 30  2  0
 29 31  1  0
 31 32  1  0
 32 33  1  0
 33 34  1  0
 34 35  1  0
 35 36  1  0
 34 37  1  0
 37 38  2  0
 37 39  1  0
 39 40  1  0
 15  4  2  0
 24 19  1  0
 36 31  1  0
 12  7  1  0
M  END
