CVD-0002590|dock_bobby27042020.5|mol2|12|dock2
     RDKit          3D

 37 40  0  0  0  0  0  0  0  0999 V2000
    9.2787   -5.0106   26.7097 C   0  0  0  0  0  0  0  0  0  0  0  0
    9.4241   -6.1924   25.8559 N   0  0  0  0  0  0  0  0  0  0  0  0
   10.0117   -5.9218   24.5395 C   0  0  0  0  0  0  0  0  0  0  0  0
    9.0419   -5.2116   23.6319 C   0  0  0  0  0  0  0  0  0  0  0  0
    9.2697   -3.9692   23.0132 C   0  0  0  0  0  0  0  0  0  0  0  0
    8.1740   -3.6170   22.2484 C   0  0  0  0  0  0  0  0  0  0  0  0
    8.0427   -2.3799   21.4417 C   0  0  0  0  0  0  0  0  0  0  0  0
    8.8816   -1.3159   21.7790 C   0  0  0  0  0  0  0  0  0  0  0  0
    8.7940   -0.1035   21.1100 C   0  0  0  0  0  0  0  0  0  0  0  0
    9.6328    0.9824   21.4436 O   0  0  0  0  0  0  0  0  0  0  0  0
    9.1619    2.1892   21.8625 C   0  0  0  0  0  0  0  0  0  0  0  0
    7.9920    2.5358   21.8770 O   0  0  0  0  0  0  0  0  0  0  0  0
   10.2615    3.0883   22.3329 C   0  0  0  0  0  0  0  0  0  0  0  0
   11.4489    3.1659   21.6137 C   0  0  0  0  0  0  0  0  0  0  0  0
   12.4807    3.9892   22.0280 C   0  0  0  0  0  0  0  0  0  0  0  0
   12.3275    4.7459   23.1778 C   0  0  0  0  0  0  0  0  0  0  0  0
   11.1524    4.6853   23.9084 C   0  0  0  0  0  0  0  0  0  0  0  0
   10.1271    3.8584   23.4844 C   0  0  0  0  0  0  0  0  0  0  0  0
   13.6378    5.8050   23.7112 S   0  0  0  0  0  0  0  0  0  0  0  0
   13.8849    6.9139   22.5832 N   0  0  0  0  0  0  0  0  0  0  0  0
   13.1841    6.4887   24.8849 O   0  0  0  0  0  0  0  0  0  0  0  0
   14.8258    5.0091   23.7900 O   0  0  0  0  0  0  0  0  0  0  0  0
    7.8669    0.0749   20.1001 C   0  0  0  0  0  0  0  0  0  0  0  0
    7.0525   -0.9771   19.7270 C   0  0  0  0  0  0  0  0  0  0  0  0
    7.1766   -2.1821   20.3756 C   0  0  0  0  0  0  0  0  0  0  0  0
    6.4194   -3.2026   19.9178 F   0  0  0  0  0  0  0  0  0  0  0  0
    7.2260   -4.6632   22.4162 N   0  0  0  0  0  0  0  0  0  0  0  0
    7.7725   -5.6262   23.2556 C   0  0  0  0  0  0  0  0  0  0  0  0
    5.6548   -4.8843   21.8157 S   0  0  0  0  0  0  0  0  0  0  0  0
    5.7548   -5.5700   20.5651 O   0  0  0  0  0  0  0  0  0  0  0  0
    5.0569   -3.5859   21.8534 O   0  0  0  0  0  0  0  0  0  0  0  0
    4.8135   -5.8863   22.9929 C   0  0  0  0  0  0  0  0  0  0  0  0
    4.1144   -5.3041   24.0365 C   0  0  0  0  0  0  0  0  0  0  0  0
    3.4638   -6.1302   24.9367 C   0  0  0  0  0  0  0  0  0  0  0  0
    3.5370   -7.4931   24.7576 C   0  0  0  0  0  0  0  0  0  0  0  0
    4.2051   -8.0675   23.7562 N   0  0  0  0  0  0  0  0  0  0  0  0
    4.8308   -7.2644   22.8907 C   0  0  0  0  0  0  0  0  0  0  0  0
  1  2  1  0
  2  3  1  0
  3  4  1  0
  4  5  1  0
  5  6  2  0
  6  7  1  0
  7  8  2  0
  8  9  1  0
  9 10  1  0
 10 11  1  0
 11 12  2  0
 11 13  1  0
 13 14  2  0
 14 15  1  0
 15 16  2  0
 16 17  1  0
 17 18  2  0
 16 19  1  0
 19 20  1  0
 19 21  2  0
 19 22  2  0
  9 23  2  0
 23 24  1  0
 24 25  2  0
 25 26  1  0
  6 27  1  0
 27 28  1  0
 27 29  1  0
 29 30  2  0
 29 31  2  0
 29 32  1  0
 32 33  2  0
 33 34  1  0
 34 35  2  0
 35 36  1  0
 36 37  2  0
 28  4  2  0
 37 32  1  0
 25  7  1  0
 18 13  1  0
M  END
