CVD-0002960|dock_bobby27042020.32|mol2|29|dock2
     RDKit          3D

 25 27  0  0  0  0  0  0  0  0999 V2000
   14.3303    5.8308   21.9143 Cl  0  0  0  0  0  0  0  0  0  0  0  0
   13.8926    4.3554   22.7855 C   0  0  0  0  0  0  0  0  0  0  0  0
   12.7574    3.6090   22.1199 C   0  0  0  0  0  0  0  0  0  0  0  0
   12.3046    3.9895   21.0438 O   0  0  0  0  0  0  0  0  0  0  0  0
   12.3197    2.5250   22.8337 N   0  0  0  0  0  0  0  0  0  0  0  0
   11.2935    1.6463   22.4994 C   0  0  0  0  0  0  0  0  0  0  0  0
   10.1988    2.1709   21.9718 N   0  0  0  0  0  0  0  0  0  0  0  0
    9.1600    1.4116   21.5377 C   0  0  0  0  0  0  0  0  0  0  0  0
    8.1430    1.9061   21.0479 O   0  0  0  0  0  0  0  0  0  0  0  0
    9.2554    0.0269   21.6455 N   0  0  0  0  0  0  0  0  0  0  0  0
    8.1654   -0.8273   21.1871 C   0  0  0  0  0  0  0  0  0  0  0  0
    7.1651   -0.1755   20.2806 C   0  0  0  0  0  0  0  0  0  0  0  0
    5.8205    0.0109   20.5092 C   0  0  0  0  0  0  0  0  0  0  0  0
    5.1569    0.6534   19.4666 C   0  0  0  0  0  0  0  0  0  0  0  0
    5.9880    0.9546   18.4513 C   0  0  0  0  0  0  0  0  0  0  0  0
    5.5474    1.8150   16.8486 Br  0  0  0  0  0  0  0  0  0  0  0  0
    7.6064    0.4630   18.7370 S   0  0  0  0  0  0  0  0  0  0  0  0
   10.3646   -0.5252   22.2245 C   0  0  0  0  0  0  0  0  0  0  0  0
   11.4114    0.2129   22.6914 C   0  0  0  0  0  0  0  0  0  0  0  0
   12.5352   -0.5168   23.3410 C   0  0  0  0  0  0  0  0  0  0  0  0
   12.7332   -0.4059   24.7130 C   0  0  0  0  0  0  0  0  0  0  0  0
   13.7691   -1.0882   25.3262 C   0  0  0  0  0  0  0  0  0  0  0  0
   14.5891   -1.8718   24.5486 C   0  0  0  0  0  0  0  0  0  0  0  0
   14.4374   -1.9961   23.2303 N   0  0  0  0  0  0  0  0  0  0  0  0
   13.4422   -1.3146   22.6541 C   0  0  0  0  0  0  0  0  0  0  0  0
  1  2  1  0
  2  3  1  0
  3  4  2  0
  3  5  1  0
  5  6  1  0
  6  7  2  0
  7  8  1  0
  8  9  2  0
  8 10  1  0
 10 11  1  0
 11 12  1  0
 12 13  2  0
 13 14  1  0
 14 15  2  0
 15 16  1  0
 15 17  1  0
 10 18  1  0
 18 19  2  0
 19 20  1  0
 20 21  2  0
 21 22  1  0
 22 23  2  0
 23 24  1  0
 24 25  2  0
 19  6  1  0
 25 20  1  0
 17 12  1  0
M  END
