CVD-0002661|dock_bobby27042020.76|mol2|26|dock3
     RDKit          3D

 34 38  0  0  0  0  0  0  0  0999 V2000
   14.1228    6.1580   22.1941 Cl  0  0  0  0  0  0  0  0  0  0  0  0
   12.9299    4.9191   22.4672 C   0  0  0  0  0  0  0  0  0  0  0  0
   11.6111    5.2787   22.6419 C   0  0  0  0  0  0  0  0  0  0  0  0
   10.6563    4.2978   22.8486 C   0  0  0  0  0  0  0  0  0  0  0  0
   11.0009    2.9450   22.8577 C   0  0  0  0  0  0  0  0  0  0  0  0
   10.2780    1.6817   23.0024 C   0  0  0  0  0  0  0  0  0  0  0  0
    8.8713    1.4710   23.1390 C   0  0  0  0  0  0  0  0  0  0  0  0
    8.0124    2.0195   24.0573 C   0  0  0  0  0  0  0  0  0  0  0  0
    6.7288    1.5713   23.8771 N   0  0  0  0  0  0  0  0  0  0  0  0
    6.8097    0.7472   22.8584 C   0  0  0  0  0  0  0  0  0  0  0  0
    8.0722    0.6441   22.3601 N   0  0  0  0  0  0  0  0  0  0  0  0
    8.4546   -0.2350   21.2492 C   0  0  0  0  0  0  0  0  0  0  0  0
    7.3881   -0.3326   20.1851 C   0  0  0  0  0  0  0  0  0  0  0  0
    6.4035   -1.3014   20.2072 C   0  0  0  0  0  0  0  0  0  0  0  0
    5.4497   -1.4063   19.2785 N   0  0  0  0  0  0  0  0  0  0  0  0
    5.4999   -0.5028   18.3052 C   0  0  0  0  0  0  0  0  0  0  0  0
    6.3875    0.4764   18.1660 N   0  0  0  0  0  0  0  0  0  0  0  0
    7.3219    0.5422   19.1179 C   0  0  0  0  0  0  0  0  0  0  0  0
   11.2486    0.6769   22.9954 C   0  0  0  0  0  0  0  0  0  0  0  0
   12.4910    1.2482   22.8172 N   0  0  0  0  0  0  0  0  0  0  0  0
   12.3636    2.6193   22.7118 C   0  0  0  0  0  0  0  0  0  0  0  0
   13.3277    3.5989   22.5053 C   0  0  0  0  0  0  0  0  0  0  0  0
   11.1486   -0.7947   23.1078 C   0  0  0  0  0  0  0  0  0  0  0  0
   11.8390   -1.4807   22.3554 O   0  0  0  0  0  0  0  0  0  0  0  0
   10.3191   -1.4133   24.0180 N   0  0  0  0  0  0  0  0  0  0  0  0
    9.9764   -2.7449   24.2802 C   0  0  0  0  0  0  0  0  0  0  0  0
   10.5067   -3.7093   23.7389 O   0  0  0  0  0  0  0  0  0  0  0  0
    9.0041   -2.9085   25.2040 N   0  0  0  0  0  0  0  0  0  0  0  0
    8.5106   -4.2241   25.6114 C   0  0  0  0  0  0  0  0  0  0  0  0
    9.4327   -4.8615   26.6711 C   0  0  0  0  0  0  0  0  0  0  0  0
    8.9051   -6.2051   27.1705 C   0  0  0  0  0  0  0  0  0  0  0  0
    7.4748   -6.0844   27.6806 C   0  0  0  0  0  0  0  0  0  0  0  0
    6.5625   -5.4844   26.6205 C   0  0  0  0  0  0  0  0  0  0  0  0
    7.0754   -4.1251   26.1560 C   0  0  0  0  0  0  0  0  0  0  0  0
  1  2  1  0
  2  3  2  0
  3  4  1  0
  4  5  2  0
  5  6  1  0
  6  7  1  0
  7  8  2  0
  8  9  1  0
  9 10  2  0
 10 11  1  0
 11 12  1  0
 12 13  1  0
 13 14  2  0
 14 15  1  0
 15 16  2  0
 16 17  1  0
 17 18  2  0
  6 19  2  0
 19 20  1  0
 20 21  1  0
 21 22  2  0
 19 23  1  0
 23 24  2  0
 23 25  1  0
 25 26  1  0
 26 27  2  0
 26 28  1  0
 28 29  1  0
 29 30  1  0
 30 31  1  0
 31 32  1  0
 32 33  1  0
 33 34  1  0
 22  2  1  0
 34 29  1  0
 21  5  1  0
 11  7  1  0
 18 13  1  0
M  END
