CVD-0001688|dock_bobby27042020.80|mol2|21|dock3
     RDKit          3D

 24 26  0  0  0  0  0  0  0  0999 V2000
    5.5975   -6.4836   22.0424 C   0  0  0  0  0  0  0  0  0  0  0  0
    6.9343   -5.8767   21.7513 C   0  0  0  0  0  0  0  0  0  0  0  0
    7.0178   -4.5038   22.2361 N   0  0  0  0  0  0  0  0  0  0  0  0
    7.3764   -4.1682   23.5005 C   0  0  0  0  0  0  0  0  0  0  0  0
    7.6795   -5.0890   24.3919 N   0  0  0  0  0  0  0  0  0  0  0  0
    7.9209   -4.6706   25.6912 C   0  0  0  0  0  0  0  0  0  0  0  0
    7.5904   -3.4318   26.1476 C   0  0  0  0  0  0  0  0  0  0  0  0
    6.9202   -2.4116   25.2352 C   0  0  0  0  0  0  0  0  0  0  0  0
    7.4280   -2.7009   23.8185 C   0  0  0  0  0  0  0  0  0  0  0  0
    8.7989   -2.0651   23.5121 C   0  0  0  0  0  0  0  0  0  0  0  0
    9.0479   -0.7973   22.6443 C   0  0  0  0  0  0  0  0  0  0  0  0
    8.2978    0.3477   23.1111 C   0  0  0  0  0  0  0  0  0  0  0  0
    7.2953    0.7172   21.9744 C   0  0  0  0  0  0  0  0  0  0  0  0
    7.6132   -0.2679   20.8973 N   0  0  0  0  0  0  0  0  0  0  0  0
    6.4188   -0.9513   20.4036 C   0  0  0  0  0  0  0  0  0  0  0  0
    8.6765   -1.1689   21.2710 C   0  0  0  0  0  0  0  0  0  0  0  0
   10.5974   -0.5832   22.6165 C   0  0  0  0  0  0  0  0  0  0  0  0
   10.9427    0.3325   21.6201 O   0  0  0  0  0  0  0  0  0  0  0  0
   11.2063   -0.0935   23.9142 C   0  0  0  0  0  0  0  0  0  0  0  0
   12.6952   -0.0141   23.7181 C   0  0  0  0  0  0  0  0  0  0  0  0
   13.3544    0.8808   24.5136 F   0  0  0  0  0  0  0  0  0  0  0  0
   13.3165   -0.7615   22.8361 C   0  0  0  0  0  0  0  0  0  0  0  0
   12.6451   -1.8574   22.0680 C   0  0  0  0  0  0  0  0  0  0  0  0
   11.2218   -1.8076   22.1713 O   0  0  0  0  0  0  0  0  0  0  0  0
  1  2  1  0
  2  3  1  0
  3  4  1  0
  4  5  2  0
  5  6  1  0
  6  7  2  0
  7  8  1  0
  8  9  1  0
  9 10  1  0
 10 11  1  0
 11 12  1  0
 12 13  1  0
 13 14  1  0
 14 15  1  0
 14 16  1  0
 11 17  1  0
 17 18  1  0
 17 19  1  0
 19 20  1  0
 20 21  1  0
 20 22  2  0
 22 23  1  0
 23 24  1  0
  9  4  1  0
 16 11  1  0
 24 17  1  0
M  END
