CVD-0003110|dock_bobby27042020.61|mol2|1|dock1
     RDKit          3D

 25 27  0  0  0  0  0  0  0  0999 V2000
    9.7880   -2.3042   21.2391 N   0  0  0  0  0  0  0  0  0  0  0  0
    9.8663   -1.5662   22.3420 C   0  0  0  0  0  0  0  0  0  0  0  0
    9.1888   -1.8907   23.3236 O   0  0  0  0  0  0  0  0  0  0  0  0
   10.7699   -0.3592   22.3855 C   0  0  0  0  0  0  0  0  0  0  0  0
   12.1496   -0.5535   22.2589 C   0  0  0  0  0  0  0  0  0  0  0  0
   13.0372    0.5051   22.2961 C   0  0  0  0  0  0  0  0  0  0  0  0
   12.5860    1.7986   22.4786 C   0  0  0  0  0  0  0  0  0  0  0  0
   13.5481    2.9601   22.5385 C   0  0  0  0  0  0  0  0  0  0  0  0
   12.9970    4.2430   21.9112 C   0  0  0  0  0  0  0  0  0  0  0  0
   14.1068    5.2718   21.5798 C   0  0  0  0  0  0  0  0  0  0  0  0
   13.9945    6.3298   22.3595 N   0  0  0  0  0  0  0  0  0  0  0  0
   12.8132    6.0746   23.0476 C   0  0  0  0  0  0  0  0  0  0  0  0
   12.1484    5.0089   22.8472 N   0  0  0  0  0  0  0  0  0  0  0  0
   11.2209    2.0028   22.6117 C   0  0  0  0  0  0  0  0  0  0  0  0
   10.2970    0.9612   22.5531 C   0  0  0  0  0  0  0  0  0  0  0  0
    8.8281    1.3042   22.6629 C   0  0  0  0  0  0  0  0  0  0  0  0
    8.0322    0.9298   21.5031 N   0  0  0  0  0  0  0  0  0  0  0  0
    6.7165    0.7294   21.5749 C   0  0  0  0  0  0  0  0  0  0  0  0
    6.0880    0.8470   22.6236 O   0  0  0  0  0  0  0  0  0  0  0  0
    6.0430    0.3458   20.2740 C   0  0  0  0  0  0  0  0  0  0  0  0
    6.1701    1.4699   19.2531 C   0  0  0  0  0  0  0  0  0  0  0  0
    5.4820    1.0436   17.9619 C   0  0  0  0  0  0  0  0  0  0  0  0
    6.0228   -0.1601   17.4530 O   0  0  0  0  0  0  0  0  0  0  0  0
    5.8479   -1.2358   18.3749 C   0  0  0  0  0  0  0  0  0  0  0  0
    6.5661   -0.9627   19.6962 C   0  0  0  0  0  0  0  0  0  0  0  0
  1  2  1  0
  2  3  2  0
  2  4  1  0
  4  5  2  0
  5  6  1  0
  6  7  2  0
  7  8  1  0
  8  9  1  0
  9 10  1  0
 10 11  2  0
 11 12  1  0
 12 13  2  0
  7 14  1  0
 14 15  2  0
 15 16  1  0
 16 17  1  0
 17 18  1  0
 18 19  2  0
 18 20  1  0
 20 21  1  0
 21 22  1  0
 22 23  1  0
 23 24  1  0
 24 25  1  0
 15  4  1  0
 25 20  1  0
 13  9  1  0
M  END
