CVD-0001500|dock_bobby27042020.66|mol2|50|dock2
     RDKit          3D

 25 27  0  0  0  0  0  0  0  0999 V2000
   14.0634    5.5684   21.3032 O   0  0  0  0  0  0  0  0  0  0  0  0
   14.0451    5.1798   22.5552 C   0  0  0  0  0  0  0  0  0  0  0  0
   15.0474    5.0281   23.2184 O   0  0  0  0  0  0  0  0  0  0  0  0
   12.6586    4.9431   23.0797 C   0  0  0  0  0  0  0  0  0  0  0  0
   11.8653    3.9440   22.2573 C   0  0  0  0  0  0  0  0  0  0  0  0
   12.1803    2.5181   22.6219 C   0  0  0  0  0  0  0  0  0  0  0  0
   11.1995    1.7057   22.8982 C   0  0  0  0  0  0  0  0  0  0  0  0
   11.4575    0.3317   23.4244 C   0  0  0  0  0  0  0  0  0  0  0  0
   12.9664    0.0397   23.6497 C   0  0  0  0  0  0  0  0  0  0  0  0
   13.2021   -1.2069   22.8549 N   0  0  0  0  0  0  0  0  0  0  0  0
   12.0189   -1.5983   22.1787 C   0  0  0  0  0  0  0  0  0  0  0  0
   11.0287   -0.7519   22.4587 C   0  0  0  0  0  0  0  0  0  0  0  0
    9.6441   -0.9025   22.1843 N   0  0  0  0  0  0  0  0  0  0  0  0
    8.8547   -0.0932   21.3622 C   0  0  0  0  0  0  0  0  0  0  0  0
    9.3225    0.8746   20.7699 O   0  0  0  0  0  0  0  0  0  0  0  0
    7.5463   -0.5091   21.3102 N   0  0  0  0  0  0  0  0  0  0  0  0
    6.4329    0.0182   20.6089 C   0  0  0  0  0  0  0  0  0  0  0  0
    5.1415    0.0428   21.1305 C   0  0  0  0  0  0  0  0  0  0  0  0
    4.1006    0.5745   20.3868 C   0  0  0  0  0  0  0  0  0  0  0  0
    4.3263    1.0867   19.1210 C   0  0  0  0  0  0  0  0  0  0  0  0
    5.6079    1.0647   18.5981 C   0  0  0  0  0  0  0  0  0  0  0  0
    5.8434    1.5666   17.3515 O   0  0  0  0  0  0  0  0  0  0  0  0
    6.6553    0.5341   19.3363 C   0  0  0  0  0  0  0  0  0  0  0  0
   13.9644    1.0194   23.2675 N   0  0  0  0  0  0  0  0  0  0  0  0
   13.5532    2.0836   22.7119 C   0  0  0  0  0  0  0  0  0  0  0  0
  1  2  1  0
  2  3  2  0
  2  4  1  0
  4  5  1  0
  5  6  1  0
  6  7  2  0
  7  8  1  0
  8  9  1  0
  9 10  1  0
 10 11  1  0
 11 12  2  0
 12 13  1  0
 13 14  1  0
 14 15  2  0
 14 16  1  0
 16 17  1  0
 17 18  2  0
 18 19  1  0
 19 20  2  0
 20 21  1  0
 21 22  1  0
 21 23  2  0
  9 24  1  0
 24 25  2  0
 25  6  1  0
 12  8  1  0
 23 17  1  0
M  END
