CVD-0002907|dock_bobby27042020.32|mol2|37|dock2
     RDKit          3D

 20 22  0  0  0  0  0  0  0  0999 V2000
   10.6371    2.2144   22.6502 C   0  0  0  0  0  0  0  0  0  0  0  0
   10.8355    0.7603   23.0524 C   0  0  0  0  0  0  0  0  0  0  0  0
   12.3104    0.4248   22.9312 C   0  0  0  0  0  0  0  0  0  0  0  0
   12.5559   -0.9505   23.3752 N   0  0  0  0  0  0  0  0  0  0  0  0
   13.9862   -1.2086   23.2171 C   0  0  0  0  0  0  0  0  0  0  0  0
   11.7835   -1.8661   22.5395 C   0  0  0  0  0  0  0  0  0  0  0  0
   10.2990   -1.5674   22.6445 C   0  0  0  0  0  0  0  0  0  0  0  0
   10.0313   -0.1767   22.2649 N   0  0  0  0  0  0  0  0  0  0  0  0
    9.1735    0.3725   21.3725 C   0  0  0  0  0  0  0  0  0  0  0  0
    9.0458    1.5875   21.2871 O   0  0  0  0  0  0  0  0  0  0  0  0
    8.3483   -0.5131   20.4507 C   0  0  0  0  0  0  0  0  0  0  0  0
    7.3955    0.2376   19.5676 C   0  0  0  0  0  0  0  0  0  0  0  0
    7.6042    0.5955   18.2679 C   0  0  0  0  0  0  0  0  0  0  0  0
    6.5180    1.2639   17.7698 N   0  0  0  0  0  0  0  0  0  0  0  0
    5.5750    1.3504   18.7508 C   0  0  0  0  0  0  0  0  0  0  0  0
    4.3617    1.9211   18.6624 N   0  0  0  0  0  0  0  0  0  0  0  0
    3.6114    1.8940   19.7721 C   0  0  0  0  0  0  0  0  0  0  0  0
    4.0204    1.3286   20.9605 C   0  0  0  0  0  0  0  0  0  0  0  0
    5.2749    0.7439   21.0334 C   0  0  0  0  0  0  0  0  0  0  0  0
    6.0903    0.7319   19.9030 C   0  0  0  0  0  0  0  0  0  0  0  0
  1  2  1  0
  2  3  1  0
  3  4  1  0
  4  5  1  0
  4  6  1  0
  6  7  1  0
  7  8  1  0
  8  9  1  0
  9 10  2  0
  9 11  1  0
 11 12  1  0
 12 13  2  0
 13 14  1  0
 14 15  1  0
 15 16  2  0
 16 17  1  0
 17 18  2  0
 18 19  1  0
 19 20  2  0
  8  2  1  0
 20 12  1  0
 20 15  1  0
M  END
