CVD-0002726|dock_bobby27042020.62|mol2|10|dock3
     RDKit          3D

 32 35  0  0  0  0  0  0  0  0999 V2000
   12.2912    6.8562   25.4546 C   0  0  0  0  0  0  0  0  0  0  0  0
   12.8148    6.3995   24.1248 C   0  0  0  0  0  0  0  0  0  0  0  0
   13.5078    7.1233   23.4165 O   0  0  0  0  0  0  0  0  0  0  0  0
   12.4970    5.1546   23.7644 N   0  0  0  0  0  0  0  0  0  0  0  0
   12.9440    4.5615   22.5121 C   0  0  0  0  0  0  0  0  0  0  0  0
   13.1969    3.0735   22.6498 C   0  0  0  0  0  0  0  0  0  0  0  0
   11.9429    2.2545   22.5588 C   0  0  0  0  0  0  0  0  0  0  0  0
   10.6558    2.7032   22.6079 C   0  0  0  0  0  0  0  0  0  0  0  0
    9.7810    1.6577   22.4920 N   0  0  0  0  0  0  0  0  0  0  0  0
   10.5015    0.4956   22.3637 C   0  0  0  0  0  0  0  0  0  0  0  0
   10.0481   -0.8257   22.2174 C   0  0  0  0  0  0  0  0  0  0  0  0
   11.0298   -1.8131   22.1040 C   0  0  0  0  0  0  0  0  0  0  0  0
   12.3810   -1.5033   22.1422 C   0  0  0  0  0  0  0  0  0  0  0  0
   12.8072   -0.1933   22.2896 C   0  0  0  0  0  0  0  0  0  0  0  0
   11.8683    0.8298   22.4016 C   0  0  0  0  0  0  0  0  0  0  0  0
    8.5496   -1.1381   22.1939 C   0  0  0  0  0  0  0  0  0  0  0  0
    8.2671   -2.5812   22.3793 N   0  0  0  0  0  0  0  0  0  0  0  0
    6.9012   -2.9164   21.9445 C   0  0  0  0  0  0  0  0  0  0  0  0
    6.6394   -4.3928   22.0908 C   0  0  0  0  0  0  0  0  0  0  0  0
    6.8665   -4.8243   23.4734 N   0  0  0  0  0  0  0  0  0  0  0  0
    8.1896   -4.4474   23.9673 C   0  0  0  0  0  0  0  0  0  0  0  0
    8.3944   -2.9622   23.7867 C   0  0  0  0  0  0  0  0  0  0  0  0
    6.0520   -5.6106   24.2076 C   0  0  0  0  0  0  0  0  0  0  0  0
    6.3155   -5.9154   25.3640 O   0  0  0  0  0  0  0  0  0  0  0  0
    4.7834   -6.0973   23.5341 C   0  0  0  0  0  0  0  0  0  0  0  0
    3.9270   -7.2470   24.5696 Cl  0  0  0  0  0  0  0  0  0  0  0  0
    7.8210   -0.5838   20.9729 C   0  0  0  0  0  0  0  0  0  0  0  0
    6.6311    0.1257   21.0819 C   0  0  0  0  0  0  0  0  0  0  0  0
    5.9925    0.6139   19.9539 C   0  0  0  0  0  0  0  0  0  0  0  0
    6.5311    0.4009   18.7034 C   0  0  0  0  0  0  0  0  0  0  0  0
    7.7099   -0.3016   18.5793 C   0  0  0  0  0  0  0  0  0  0  0  0
    8.3496   -0.7904   19.7061 C   0  0  0  0  0  0  0  0  0  0  0  0
  1  2  1  0
  2  3  2  0
  2  4  1  0
  4  5  1  0
  5  6  1  0
  6  7  1  0
  7  8  2  0
  8  9  1  0
  9 10  1  0
 10 11  2  0
 11 12  1  0
 12 13  2  0
 13 14  1  0
 14 15  2  0
 11 16  1  0
 16 17  1  0
 17 18  1  0
 18 19  1  0
 19 20  1  0
 20 21  1  0
 21 22  1  0
 20 23  1  0
 23 24  2  0
 23 25  1  0
 25 26  1  0
 16 27  1  0
 27 28  2  0
 28 29  1  0
 29 30  2  0
 30 31  1  0
 31 32  2  0
 15  7  1  0
 22 17  1  0
 32 27  1  0
 15 10  1  0
M  END
