CVD-0002061|dock_bobby27042020.21|mol2|40|dock1
     RDKit          3D

 34 37  0  0  0  0  0  0  0  0999 V2000
   13.8207    6.0350   22.0177 C   0  0  0  0  0  0  0  0  0  0  0  0
   12.8465    4.9486   21.8851 N   0  0  0  0  0  0  0  0  0  0  0  0
   12.9658    3.8987   22.9025 C   0  0  0  0  0  0  0  0  0  0  0  0
   12.0010    2.7693   22.6532 C   0  0  0  0  0  0  0  0  0  0  0  0
   10.6472    2.9201   22.3032 C   0  0  0  0  0  0  0  0  0  0  0  0
   10.0647    1.6788   22.1317 C   0  0  0  0  0  0  0  0  0  0  0  0
    8.6523    1.4292   21.7561 C   0  0  0  0  0  0  0  0  0  0  0  0
    8.3899    0.3050   20.9728 C   0  0  0  0  0  0  0  0  0  0  0  0
    7.1129    0.0190   20.5260 C   0  0  0  0  0  0  0  0  0  0  0  0
    6.0460    0.8408   20.8470 C   0  0  0  0  0  0  0  0  0  0  0  0
    4.6569    0.5458   20.3347 C   0  0  0  0  0  0  0  0  0  0  0  0
    4.0284    1.6659   19.6631 N   0  0  0  0  0  0  0  0  0  0  0  0
    2.7675    2.0952   19.9418 C   0  0  0  0  0  0  0  0  0  0  0  0
    2.3088    3.3161   19.4501 C   0  0  0  0  0  0  0  0  0  0  0  0
    1.0195    3.7090   19.7604 C   0  0  0  0  0  0  0  0  0  0  0  0
    0.2191    2.8878   20.5464 C   0  0  0  0  0  0  0  0  0  0  0  0
    0.7677    1.6880   20.9894 C   0  0  0  0  0  0  0  0  0  0  0  0
    2.0123    1.2929   20.6987 N   0  0  0  0  0  0  0  0  0  0  0  0
   -1.1297    3.2652   20.8899 C   0  0  0  0  0  0  0  0  0  0  0  0
   -2.2046    3.5323   21.1693 N   0  0  0  0  0  0  0  0  0  0  0  0
    6.2808    1.9418   21.6589 C   0  0  0  0  0  0  0  0  0  0  0  0
    7.5503    2.1930   22.1145 C   0  0  0  0  0  0  0  0  0  0  0  0
    7.6975    3.2306   22.9665 F   0  0  0  0  0  0  0  0  0  0  0  0
   11.0848    0.7263   22.4025 N   0  0  0  0  0  0  0  0  0  0  0  0
   12.2569    1.4067   22.7086 C   0  0  0  0  0  0  0  0  0  0  0  0
   11.0821   -0.9700   22.4246 S   0  0  0  0  0  0  0  0  0  0  0  0
    9.9150   -1.3299   23.1684 O   0  0  0  0  0  0  0  0  0  0  0  0
   11.2181   -1.4262   21.0764 O   0  0  0  0  0  0  0  0  0  0  0  0
   12.4827   -1.4533   23.3748 C   0  0  0  0  0  0  0  0  0  0  0  0
   12.5392   -1.1765   24.7300 C   0  0  0  0  0  0  0  0  0  0  0  0
   13.6577   -1.5788   25.4393 C   0  0  0  0  0  0  0  0  0  0  0  0
   14.6650   -2.2369   24.7705 C   0  0  0  0  0  0  0  0  0  0  0  0
   14.6231   -2.5116   23.4660 N   0  0  0  0  0  0  0  0  0  0  0  0
   13.5405   -2.1207   22.7873 C   0  0  0  0  0  0  0  0  0  0  0  0
  1  2  1  0
  2  3  1  0
  3  4  1  0
  4  5  1  0
  5  6  2  0
  6  7  1  0
  7  8  2  0
  8  9  1  0
  9 10  2  0
 10 11  1  0
 11 12  1  0
 12 13  1  0
 13 14  2  0
 14 15  1  0
 15 16  2  0
 16 17  1  0
 17 18  2  0
 16 19  1  0
 19 20  3  0
 10 21  1  0
 21 22  2  0
 22 23  1  0
  6 24  1  0
 24 25  1  0
 24 26  1  0
 26 27  2  0
 26 28  2  0
 26 29  1  0
 29 30  2  0
 30 31  1  0
 31 32  2  0
 32 33  1  0
 33 34  2  0
 25  4  2  0
 34 29  1  0
 22  7  1  0
 18 13  1  0
M  END
