CVD-0000314|dock_bobby27042020.27|mol2|32|dock2
     RDKit          3D

 30 32  0  0  0  0  0  0  0  0999 V2000
    5.7097   -1.2643   18.6844 C   0  0  0  0  0  0  0  0  0  0  0  0
    5.8784   -1.2498   20.1212 N   0  0  0  0  0  0  0  0  0  0  0  0
    6.3062   -2.3160   20.8104 C   0  0  0  0  0  0  0  0  0  0  0  0
    5.9762   -3.5326   20.3357 N   0  0  0  0  0  0  0  0  0  0  0  0
    6.3934   -4.6151   21.0055 C   0  0  0  0  0  0  0  0  0  0  0  0
    7.1432   -4.5546   22.1563 C   0  0  0  0  0  0  0  0  0  0  0  0
    7.4820   -3.3064   22.6457 C   0  0  0  0  0  0  0  0  0  0  0  0
    7.0694   -2.1545   21.9836 C   0  0  0  0  0  0  0  0  0  0  0  0
    7.4626   -0.8070   22.5489 C   0  0  0  0  0  0  0  0  0  0  0  0
    8.3721   -0.0270   21.6168 C   0  0  0  0  0  0  0  0  0  0  0  0
    9.7655   -0.0892   22.0717 N   0  0  0  0  0  0  0  0  0  0  0  0
   10.0635    0.5948   23.3134 C   0  0  0  0  0  0  0  0  0  0  0  0
   10.6751   -0.3123   24.3706 C   0  0  0  0  0  0  0  0  0  0  0  0
   12.0263   -0.6901   23.9988 N   0  0  0  0  0  0  0  0  0  0  0  0
   12.8951    0.4724   23.8189 C   0  0  0  0  0  0  0  0  0  0  0  0
   12.3553    1.3707   22.7512 C   0  0  0  0  0  0  0  0  0  0  0  0
   10.9840    1.7317   23.0903 N   0  0  0  0  0  0  0  0  0  0  0  0
   10.3636    3.1157   22.4979 S   0  0  0  0  0  0  0  0  0  0  0  0
   10.0854    2.8779   21.1157 O   0  0  0  0  0  0  0  0  0  0  0  0
    9.3040    3.4990   23.3785 O   0  0  0  0  0  0  0  0  0  0  0  0
   11.6210    4.3425   22.5954 C   0  0  0  0  0  0  0  0  0  0  0  0
   12.5804    4.4228   21.5992 C   0  0  0  0  0  0  0  0  0  0  0  0
   13.5627    5.3955   21.6837 C   0  0  0  0  0  0  0  0  0  0  0  0
   13.5873    6.2795   22.7494 C   0  0  0  0  0  0  0  0  0  0  0  0
   12.6199    6.1786   23.7251 C   0  0  0  0  0  0  0  0  0  0  0  0
   12.6470    7.2891   25.0663 Cl  0  0  0  0  0  0  0  0  0  0  0  0
   11.6288    5.2203   23.6686 C   0  0  0  0  0  0  0  0  0  0  0  0
   12.4550   -1.9450   23.7172 C   0  0  0  0  0  0  0  0  0  0  0  0
   13.8982   -2.1256   23.3486 C   0  0  0  0  0  0  0  0  0  0  0  0
   11.6837   -2.8973   23.7519 O   0  0  0  0  0  0  0  0  0  0  0  0
  1  2  1  0
  2  3  1  0
  3  4  2  0
  4  5  1  0
  5  6  2  0
  6  7  1  0
  7  8  2  0
  8  9  1  0
  9 10  1  0
 10 11  1  0
 12 11  1  0
 12 13  1  0
 13 14  1  0
 14 15  1  0
 15 16  1  0
 16 17  1  0
 17 18  1  0
 18 19  2  0
 18 20  2  0
 18 21  1  0
 21 22  2  0
 22 23  1  0
 23 24  2  0
 24 25  1  0
 25 26  1  0
 25 27  2  0
 14 28  1  0
 28 29  1  0
 28 30  2  0
  8  3  1  0
 17 12  1  0
 27 21  1  0
M  END
