CVD-0001962|dock_bobby27042020.7|mol2|46|dock2
     RDKit          3D

 41 45  0  0  0  0  0  0  0  0999 V2000
    1.3490   -8.8548   23.4311 C   0  0  0  0  0  0  0  0  0  0  0  0
    2.2176   -7.8533   24.0551 N   0  0  0  0  0  0  0  0  0  0  0  0
    2.5292   -8.1135   25.4647 C   0  0  0  0  0  0  0  0  0  0  0  0
    3.7064   -7.2998   25.9343 C   0  0  0  0  0  0  0  0  0  0  0  0
    4.3919   -6.3438   25.1641 C   0  0  0  0  0  0  0  0  0  0  0  0
    5.4292   -5.7956   25.8970 C   0  0  0  0  0  0  0  0  0  0  0  0
    6.3957   -4.7576   25.4487 C   0  0  0  0  0  0  0  0  0  0  0  0
    6.2364   -3.4124   25.7917 C   0  0  0  0  0  0  0  0  0  0  0  0
    7.1177   -2.4393   25.3561 C   0  0  0  0  0  0  0  0  0  0  0  0
    8.2228   -2.7568   24.5750 C   0  0  0  0  0  0  0  0  0  0  0  0
    8.4082   -4.0987   24.2471 C   0  0  0  0  0  0  0  0  0  0  0  0
    7.5150   -5.0464   24.6772 C   0  0  0  0  0  0  0  0  0  0  0  0
    7.7682   -6.3219   24.3043 F   0  0  0  0  0  0  0  0  0  0  0  0
    9.1720   -1.7105   24.1066 C   0  0  0  0  0  0  0  0  0  0  0  0
    9.4526   -1.5395   22.7545 C   0  0  0  0  0  0  0  0  0  0  0  0
   10.3321   -0.5675   22.3112 C   0  0  0  0  0  0  0  0  0  0  0  0
   10.9715    0.2731   23.2153 C   0  0  0  0  0  0  0  0  0  0  0  0
   10.7007    0.1097   24.5681 C   0  0  0  0  0  0  0  0  0  0  0  0
    9.8164   -0.8620   25.0011 C   0  0  0  0  0  0  0  0  0  0  0  0
   11.8985    1.2998   22.7979 N   0  0  0  0  0  0  0  0  0  0  0  0
   13.2509    1.2787   23.0417 C   0  0  0  0  0  0  0  0  0  0  0  0
   13.8552    2.3191   22.5628 N   0  0  0  0  0  0  0  0  0  0  0  0
   12.8624    3.0503   21.9769 N   0  0  0  0  0  0  0  0  0  0  0  0
   13.2203    4.3036   21.3558 C   0  0  0  0  0  0  0  0  0  0  0  0
   13.9516    5.4082   22.5762 S   0  0  0  0  0  0  0  0  0  0  0  0
   12.7132    5.6652   23.7922 C   0  0  0  0  0  0  0  0  0  0  0  0
   14.2290    6.6549   21.9129 O   0  0  0  0  0  0  0  0  0  0  0  0
   15.0620    4.7127   23.1715 O   0  0  0  0  0  0  0  0  0  0  0  0
   11.6366    2.4758   22.0964 C   0  0  0  0  0  0  0  0  0  0  0  0
   10.5721    2.9035   21.6815 O   0  0  0  0  0  0  0  0  0  0  0  0
    5.3746   -6.4288   27.1693 N   0  0  0  0  0  0  0  0  0  0  0  0
    4.3288   -7.3447   27.1727 C   0  0  0  0  0  0  0  0  0  0  0  0
    6.3318   -6.2272   28.5548 S   0  0  0  0  0  0  0  0  0  0  0  0
    5.4521   -6.3539   29.6752 O   0  0  0  0  0  0  0  0  0  0  0  0
    7.4560   -7.0979   28.4049 O   0  0  0  0  0  0  0  0  0  0  0  0
    6.9139   -4.5679   28.4909 C   0  0  0  0  0  0  0  0  0  0  0  0
    6.1500   -3.5373   29.0113 C   0  0  0  0  0  0  0  0  0  0  0  0
    6.6441   -2.2466   28.9353 C   0  0  0  0  0  0  0  0  0  0  0  0
    7.8710   -2.0406   28.3460 C   0  0  0  0  0  0  0  0  0  0  0  0
    8.6166   -3.0234   27.8390 N   0  0  0  0  0  0  0  0  0  0  0  0
    8.1337   -4.2670   27.9153 C   0  0  0  0  0  0  0  0  0  0  0  0
  1  2  1  0
  2  3  1  0
  3  4  1  0
  4  5  1  0
  5  6  2  0
  6  7  1  0
  7  8  2  0
  8  9  1  0
  9 10  2  0
 10 11  1  0
 11 12  2  0
 12 13  1  0
 10 14  1  0
 14 15  2  0
 15 16  1  0
 16 17  2  0
 17 18  1  0
 18 19  2  0
 17 20  1  0
 20 21  1  0
 21 22  2  0
 22 23  1  0
 23 24  1  0
 24 25  1  0
 25 26  1  0
 25 27  2  0
 25 28  2  0
 23 29  1  0
 29 30  2  0
  6 31  1  0
 31 32  1  0
 31 33  1  0
 33 34  2  0
 33 35  2  0
 33 36  1  0
 36 37  2  0
 37 38  1  0
 38 39  2  0
 39 40  1  0
 40 41  2  0
 32  4  2  0
 41 36  1  0
 12  7  1  0
 19 14  1  0
 29 20  1  0
M  END
