CVD-0001144|dock_bobby27042020.25|mol2|1|dock2
     RDKit          3D

 40 43  0  0  0  0  0  0  0  0999 V2000
    8.2560   -1.3476   26.2272 C   0  0  0  0  0  0  0  0  0  0  0  0
    8.9846   -1.6016   25.0028 O   0  0  0  0  0  0  0  0  0  0  0  0
    8.4085   -1.1705   23.8839 C   0  0  0  0  0  0  0  0  0  0  0  0
    7.3736   -0.5566   23.8601 O   0  0  0  0  0  0  0  0  0  0  0  0
    9.2169   -1.5451   22.6550 C   0  0  0  0  0  0  0  0  0  0  0  0
    9.4486   -3.0684   22.4410 C   0  0  0  0  0  0  0  0  0  0  0  0
   10.8647   -3.3206   22.6894 O   0  0  0  0  0  0  0  0  0  0  0  0
   11.5004   -2.1079   22.7618 C   0  0  0  0  0  0  0  0  0  0  0  0
   10.6409   -1.0223   22.7081 C   0  0  0  0  0  0  0  0  0  0  0  0
   11.1571    0.2866   22.7967 C   0  0  0  0  0  0  0  0  0  0  0  0
   10.3450    1.5134   22.7829 C   0  0  0  0  0  0  0  0  0  0  0  0
    9.2112    1.7740   22.1303 C   0  0  0  0  0  0  0  0  0  0  0  0
    8.4972    3.0664   22.2084 C   0  0  0  0  0  0  0  0  0  0  0  0
    7.3028    3.1795   22.0575 O   0  0  0  0  0  0  0  0  0  0  0  0
    9.3152    4.1010   22.4685 O   0  0  0  0  0  0  0  0  0  0  0  0
    8.7413    5.4092   22.7453 C   0  0  0  0  0  0  0  0  0  0  0  0
    9.9002    6.3929   22.8878 C   0  0  0  0  0  0  0  0  0  0  0  0
   10.5615    6.3388   24.2435 C   0  0  0  0  0  0  0  0  0  0  0  0
   11.8684    5.8937   24.3788 C   0  0  0  0  0  0  0  0  0  0  0  0
   12.4791    5.8389   25.6194 C   0  0  0  0  0  0  0  0  0  0  0  0
   11.7786    6.2332   26.7518 C   0  0  0  0  0  0  0  0  0  0  0  0
   12.3621    6.1864   27.9775 O   0  0  0  0  0  0  0  0  0  0  0  0
   10.4633    6.6813   26.6281 C   0  0  0  0  0  0  0  0  0  0  0  0
    9.7818    7.0656   27.7385 O   0  0  0  0  0  0  0  0  0  0  0  0
    9.8646    6.7310   25.3803 C   0  0  0  0  0  0  0  0  0  0  0  0
    7.8289    5.8449   21.6081 C   0  0  0  0  0  0  0  0  0  0  0  0
    6.5673    5.5843   21.8400 O   0  0  0  0  0  0  0  0  0  0  0  0
    8.2396    6.3770   20.6003 O   0  0  0  0  0  0  0  0  0  0  0  0
   12.5499    0.4288   22.9383 C   0  0  0  0  0  0  0  0  0  0  0  0
   13.4005   -0.6594   22.9911 C   0  0  0  0  0  0  0  0  0  0  0  0
   12.8790   -1.9417   22.9028 C   0  0  0  0  0  0  0  0  0  0  0  0
   13.7075   -3.0169   22.9620 O   0  0  0  0  0  0  0  0  0  0  0  0
    8.6258   -3.9400   23.3551 C   0  0  0  0  0  0  0  0  0  0  0  0
    7.2567   -3.7447   23.4804 C   0  0  0  0  0  0  0  0  0  0  0  0
    6.4975   -4.5398   24.3201 C   0  0  0  0  0  0  0  0  0  0  0  0
    7.1104   -5.5489   25.0511 C   0  0  0  0  0  0  0  0  0  0  0  0
    6.3830   -6.3409   25.8811 O   0  0  0  0  0  0  0  0  0  0  0  0
    8.4859   -5.7508   24.9319 C   0  0  0  0  0  0  0  0  0  0  0  0
    9.0781   -6.7397   25.6505 O   0  0  0  0  0  0  0  0  0  0  0  0
    9.2360   -4.9484   24.0878 C   0  0  0  0  0  0  0  0  0  0  0  0
  1  2  1  0
  2  3  1  0
  3  4  2  0
  5  3  1  0
  5  6  1  0
  6  7  1  0
  7  8  1  0
  8  9  2  0
  9 10  1  0
 10 11  1  0
 11 12  2  0
 12 13  1  0
 13 14  2  0
 13 15  1  0
 15 16  1  0
 16 17  1  0
 17 18  1  0
 18 19  2  0
 19 20  1  0
 20 21  2  0
 21 22  1  0
 21 23  1  0
 23 24  1  0
 23 25  2  0
 16 26  1  0
 26 27  1  0
 26 28  2  0
 10 29  2  0
 29 30  1  0
 30 31  2  0
 31 32  1  0
  6 33  1  0
 33 34  2  0
 34 35  1  0
 35 36  2  0
 36 37  1  0
 36 38  1  0
 38 39  1  0
 38 40  2  0
  9  5  1  0
 25 18  1  0
 40 33  1  0
 31  8  1  0
M  END
