CVD-0002925|dock_bobby27042020.75|mol2|28|dock3
     RDKit          3D

 28 31  0  0  0  0  0  0  0  0999 V2000
   14.5409   -1.9385   24.3297 Cl  0  0  0  0  0  0  0  0  0  0  0  0
   14.0261   -0.6333   23.2532 C   0  0  0  0  0  0  0  0  0  0  0  0
   12.7645    0.0468   23.7486 C   0  0  0  0  0  0  0  0  0  0  0  0
   12.8112    0.7911   24.7102 O   0  0  0  0  0  0  0  0  0  0  0  0
   11.4840   -0.2448   23.0437 C   0  0  0  0  0  0  0  0  0  0  0  0
   11.1665   -1.5782   22.7606 C   0  0  0  0  0  0  0  0  0  0  0  0
    9.9184   -1.9474   22.2912 C   0  0  0  0  0  0  0  0  0  0  0  0
    8.9102   -1.0121   22.0933 C   0  0  0  0  0  0  0  0  0  0  0  0
    7.5189   -1.4435   21.6672 C   0  0  0  0  0  0  0  0  0  0  0  0
    6.9174   -0.5986   20.5627 C   0  0  0  0  0  0  0  0  0  0  0  0
    7.6545   -0.2768   19.4335 C   0  0  0  0  0  0  0  0  0  0  0  0
    7.1144    0.4968   18.4214 C   0  0  0  0  0  0  0  0  0  0  0  0
    5.8198    0.9527   18.5460 C   0  0  0  0  0  0  0  0  0  0  0  0
    5.0670    2.0151   17.1632 Br  0  0  0  0  0  0  0  0  0  0  0  0
    5.0620    0.6508   19.6570 C   0  0  0  0  0  0  0  0  0  0  0  0
    5.6184   -0.1240   20.6593 C   0  0  0  0  0  0  0  0  0  0  0  0
    9.2423    0.3300   22.2945 C   0  0  0  0  0  0  0  0  0  0  0  0
    8.4574    1.4542   22.1984 N   0  0  0  0  0  0  0  0  0  0  0  0
    9.2462    2.5590   22.3152 C   0  0  0  0  0  0  0  0  0  0  0  0
    8.8671    3.7204   22.2202 O   0  0  0  0  0  0  0  0  0  0  0  0
   10.5350    2.1311   22.5255 N   0  0  0  0  0  0  0  0  0  0  0  0
   11.6735    3.0205   22.5387 C   0  0  0  0  0  0  0  0  0  0  0  0
   11.5666    4.3209   23.0127 C   0  0  0  0  0  0  0  0  0  0  0  0
   12.6787    5.1442   22.9936 C   0  0  0  0  0  0  0  0  0  0  0  0
   13.8611    4.6413   22.5022 C   0  0  0  0  0  0  0  0  0  0  0  0
   13.9896    3.3969   22.0412 N   0  0  0  0  0  0  0  0  0  0  0  0
   12.9083    2.6115   22.0624 C   0  0  0  0  0  0  0  0  0  0  0  0
   10.5405    0.7324   22.6568 C   0  0  0  0  0  0  0  0  0  0  0  0
  1  2  1  0
  2  3  1  0
  3  4  2  0
  3  5  1  0
  5  6  2  0
  6  7  1  0
  7  8  2  0
  8  9  1  0
  9 10  1  0
 10 11  2  0
 11 12  1  0
 12 13  2  0
 13 14  1  0
 13 15  1  0
 15 16  2  0
  8 17  1  0
 17 18  1  0
 18 19  1  0
 19 20  2  0
 19 21  1  0
 21 22  1  0
 22 23  2  0
 23 24  1  0
 24 25  2  0
 25 26  1  0
 26 27  2  0
 21 28  1  0
 28  5  1  0
 16 10  1  0
 28 17  2  0
 27 22  1  0
M  END
