CVD-0002395|dock_bobby27042020.49|mol2|5|dock3
     RDKit          3D

 26 29  0  0  0  0  0  0  0  0999 V2000
   11.4286    5.7424   22.3685 F   0  0  0  0  0  0  0  0  0  0  0  0
   11.2745    4.4018   22.4737 C   0  0  0  0  0  0  0  0  0  0  0  0
   10.0177    3.8867   22.6545 C   0  0  0  0  0  0  0  0  0  0  0  0
    9.8644    2.5171   22.8675 C   0  0  0  0  0  0  0  0  0  0  0  0
    8.5222    1.9652   23.0291 C   0  0  0  0  0  0  0  0  0  0  0  0
    7.5881    2.7172   23.2093 O   0  0  0  0  0  0  0  0  0  0  0  0
    8.3464    0.4584   22.9305 C   0  0  0  0  0  0  0  0  0  0  0  0
    9.6165   -0.3586   23.1326 C   0  0  0  0  0  0  0  0  0  0  0  0
    9.5285   -1.5562   23.3298 O   0  0  0  0  0  0  0  0  0  0  0  0
   10.8321    0.2801   23.1027 N   0  0  0  0  0  0  0  0  0  0  0  0
   12.0073   -0.5542   23.2324 C   0  0  0  0  0  0  0  0  0  0  0  0
   12.3692   -1.4335   22.2180 C   0  0  0  0  0  0  0  0  0  0  0  0
   13.4943   -2.2301   22.3506 C   0  0  0  0  0  0  0  0  0  0  0  0
   14.2666   -2.1600   23.4895 C   0  0  0  0  0  0  0  0  0  0  0  0
   13.9160   -1.2925   24.5009 C   0  0  0  0  0  0  0  0  0  0  0  0
   12.7928   -0.4917   24.3780 C   0  0  0  0  0  0  0  0  0  0  0  0
   10.9857    1.6714   22.8967 C   0  0  0  0  0  0  0  0  0  0  0  0
   12.2519    2.2296   22.7088 C   0  0  0  0  0  0  0  0  0  0  0  0
   12.3892    3.5893   22.4987 C   0  0  0  0  0  0  0  0  0  0  0  0
   13.9701    4.2603   22.2622 Cl  0  0  0  0  0  0  0  0  0  0  0  0
    7.7735    0.0523   21.5745 C   0  0  0  0  0  0  0  0  0  0  0  0
    8.5859   -0.4041   20.5477 C   0  0  0  0  0  0  0  0  0  0  0  0
    8.0265   -0.7589   19.3326 C   0  0  0  0  0  0  0  0  0  0  0  0
    6.6632   -0.6452   19.1796 C   0  0  0  0  0  0  0  0  0  0  0  0
    5.8536   -0.2089   20.1458 N   0  0  0  0  0  0  0  0  0  0  0  0
    6.4159    0.1280   21.3103 C   0  0  0  0  0  0  0  0  0  0  0  0
  1  2  1  0
  2  3  2  0
  3  4  1  0
  4  5  1  0
  5  6  2  0
  5  7  1  0
  7  8  1  0
  8  9  2  0
  8 10  1  0
 10 11  1  0
 11 12  2  0
 12 13  1  0
 13 14  2  0
 14 15  1  0
 15 16  2  0
 10 17  1  0
 17 18  1  0
 18 19  2  0
 19 20  1  0
  7 21  1  0
 21 22  2  0
 22 23  1  0
 23 24  2  0
 24 25  1  0
 25 26  2  0
 19  2  1  0
 26 21  1  0
 17  4  2  0
 16 11  1  0
M  END
