CVD-0002536|dock_bobby27042020.91|mol2|10|dock1
     RDKit          3D

 25 28  0  0  0  0  0  0  0  0999 V2000
   10.8446   -0.6804   22.4075 C   0  0  0  0  0  0  0  0  0  0  0  0
    9.5867   -1.0396   23.4094 S   0  0  0  0  0  0  0  0  0  0  0  0
   10.1638    0.1302   24.4162 C   0  0  0  0  0  0  0  0  0  0  0  0
    8.0197   -1.0528   22.8878 N   0  0  0  0  0  0  0  0  0  0  0  0
    7.2975   -2.3068   23.2000 C   0  0  0  0  0  0  0  0  0  0  0  0
    7.6560   -3.4212   22.2250 C   0  0  0  0  0  0  0  0  0  0  0  0
    7.3610   -2.9301   20.8858 N   0  0  0  0  0  0  0  0  0  0  0  0
    8.1514   -1.7288   20.6188 C   0  0  0  0  0  0  0  0  0  0  0  0
    7.7993   -0.5555   21.5121 C   0  0  0  0  0  0  0  0  0  0  0  0
    6.5030    0.0934   21.0867 C   0  0  0  0  0  0  0  0  0  0  0  0
    6.2392    1.1861   21.9069 C   0  0  0  0  0  0  0  0  0  0  0  0
    5.1588    1.9899   21.5888 C   0  0  0  0  0  0  0  0  0  0  0  0
    4.3674    1.7662   20.5437 N   0  0  0  0  0  0  0  0  0  0  0  0
    4.6603    0.7074   19.7884 C   0  0  0  0  0  0  0  0  0  0  0  0
    5.7068   -0.1967   19.9721 C   0  0  0  0  0  0  0  0  0  0  0  0
    5.6564   -1.2153   18.9592 N   0  0  0  0  0  0  0  0  0  0  0  0
    5.7524   -2.5535   18.9804 C   0  0  0  0  0  0  0  0  0  0  0  0
    5.4613   -3.2161   17.9866 O   0  0  0  0  0  0  0  0  0  0  0  0
    6.2180   -3.3048   20.2189 C   0  0  0  0  0  0  0  0  0  0  0  0
    5.7436   -4.4090   20.4484 O   0  0  0  0  0  0  0  0  0  0  0  0
    9.9578   -2.5845   24.1659 C   0  0  0  0  0  0  0  0  0  0  0  0
    9.4764   -3.0040   25.4525 C   0  0  0  0  0  0  0  0  0  0  0  0
    9.9102   -4.2515   25.8077 C   0  0  0  0  0  0  0  0  0  0  0  0
   10.8981   -4.9304   24.6019 S   0  0  0  0  0  0  0  0  0  0  0  0
   10.7223   -3.5474   23.6376 C   0  0  0  0  0  0  0  0  0  0  0  0
  1  2  2  0
  2  3  2  0
  2  4  1  0
  4  5  1  0
  5  6  1  0
  6  7  1  0
  7  8  1  0
  8  9  1  0
  9 10  1  0
 10 11  2  0
 11 12  1  0
 12 13  2  0
 13 14  1  0
 14 15  2  0
 15 16  1  0
 16 17  1  0
 17 18  2  0
 17 19  1  0
 19 20  2  0
  2 21  1  0
 21 22  1  0
 22 23  2  0
 23 24  1  0
 24 25  1  0
  9  4  1  0
 15 10  1  0
 25 21  2  0
 19  7  1  0
M  END
