CVD-0002972|dock_bobby27042020.61|mol2|22|dock3
     RDKit          3D

 18 19  0  0  0  0  0  0  0  0999 V2000
    5.9459    1.3769   17.3820 C   0  0  0  0  0  0  0  0  0  0  0  0
    6.1146    0.7530   18.7459 C   0  0  0  0  0  0  0  0  0  0  0  0
    5.0414    0.6472   19.6153 C   0  0  0  0  0  0  0  0  0  0  0  0
    5.1965    0.0677   20.8625 C   0  0  0  0  0  0  0  0  0  0  0  0
    6.4310   -0.4164   21.2601 C   0  0  0  0  0  0  0  0  0  0  0  0
    7.5243   -0.3129   20.4061 C   0  0  0  0  0  0  0  0  0  0  0  0
    8.7969   -0.7682   20.7515 N   0  0  0  0  0  0  0  0  0  0  0  0
    9.4232   -0.6454   22.0668 C   0  0  0  0  0  0  0  0  0  0  0  0
    9.8637   -1.9908   22.6397 C   0  0  0  0  0  0  0  0  0  0  0  0
   10.6054   -1.8426   23.9528 C   0  0  0  0  0  0  0  0  0  0  0  0
   11.7180   -0.8971   23.8173 N   0  0  0  0  0  0  0  0  0  0  0  0
   11.2906    0.4283   23.3841 C   0  0  0  0  0  0  0  0  0  0  0  0
   10.6034    0.3174   22.0410 C   0  0  0  0  0  0  0  0  0  0  0  0
   13.0020   -1.1414   24.1487 C   0  0  0  0  0  0  0  0  0  0  0  0
   13.8834   -0.3042   24.0004 O   0  0  0  0  0  0  0  0  0  0  0  0
   13.3004   -2.5167   24.7124 C   0  0  0  0  0  0  0  0  0  0  0  0
   14.9946   -2.6587   25.1987 Cl  0  0  0  0  0  0  0  0  0  0  0  0
    7.3479    0.2679   19.1546 C   0  0  0  0  0  0  0  0  0  0  0  0
  1  2  1  0
  2  3  2  0
  3  4  1  0
  4  5  2  0
  5  6  1  0
  6  7  1  0
  7  8  1  0
  8  9  1  0
  9 10  1  0
 10 11  1  0
 11 12  1  0
 12 13  1  0
 11 14  1  0
 14 15  2  0
 14 16  1  0
 16 17  1  0
  6 18  2  0
 18  2  1  0
 13  8  1  0
M  END
