CVD-0001255|dock_bobby27042020.38|mol2|40|dock3
     RDKit          3D

 23 25  0  0  0  0  0  0  0  0999 V2000
    7.3897   -0.4915   18.8090 C   0  0  0  0  0  0  0  0  0  0  0  0
    7.6274   -0.5834   20.2838 C   0  0  0  0  0  0  0  0  0  0  0  0
    8.6552   -1.5623   20.5970 N   0  0  0  0  0  0  0  0  0  0  0  0
    8.6657   -2.2605   21.7458 C   0  0  0  0  0  0  0  0  0  0  0  0
    7.4442   -2.5696   22.2225 N   0  0  0  0  0  0  0  0  0  0  0  0
    7.3732   -3.2800   23.3520 C   0  0  0  0  0  0  0  0  0  0  0  0
    8.4863   -3.7117   24.0619 C   0  0  0  0  0  0  0  0  0  0  0  0
    9.7511   -3.3880   23.5821 C   0  0  0  0  0  0  0  0  0  0  0  0
    9.8550   -2.6447   22.4080 C   0  0  0  0  0  0  0  0  0  0  0  0
   11.0965   -2.3022   21.9204 N   0  0  0  0  0  0  0  0  0  0  0  0
   12.2688   -2.0823   22.7520 C   0  0  0  0  0  0  0  0  0  0  0  0
   11.9854   -1.0930   23.8681 C   0  0  0  0  0  0  0  0  0  0  0  0
   11.9319    0.3353   23.3825 C   0  0  0  0  0  0  0  0  0  0  0  0
   10.7229    0.9277   23.0444 C   0  0  0  0  0  0  0  0  0  0  0  0
   10.6698    2.2359   22.5956 C   0  0  0  0  0  0  0  0  0  0  0  0
   11.8407    2.9991   22.4698 C   0  0  0  0  0  0  0  0  0  0  0  0
   12.1929    4.3116   22.0656 C   0  0  0  0  0  0  0  0  0  0  0  0
   13.4954    4.5022   22.1479 N   0  0  0  0  0  0  0  0  0  0  0  0
   14.0233    3.3290   22.6041 N   0  0  0  0  0  0  0  0  0  0  0  0
   13.0589    2.3933   22.8120 C   0  0  0  0  0  0  0  0  0  0  0  0
   13.1010    1.0785   23.2618 C   0  0  0  0  0  0  0  0  0  0  0  0
    8.3393   -4.4800   25.2734 C   0  0  0  0  0  0  0  0  0  0  0  0
    8.2436   -5.0674   26.2484 N   0  0  0  0  0  0  0  0  0  0  0  0
  1  2  1  0
  2  3  1  0
  3  4  1  0
  4  5  2  0
  5  6  1  0
  6  7  2  0
  7  8  1  0
  8  9  2  0
  9 10  1  0
 10 11  1  0
 11 12  1  0
 12 13  1  0
 13 14  2  0
 14 15  1  0
 15 16  2  0
 16 17  1  0
 17 18  2  0
 18 19  1  0
 19 20  1  0
 20 21  2  0
  7 22  1  0
 22 23  3  0
  9  4  1  0
 21 13  1  0
 20 16  1  0
M  END
