CVD-0002703|dock_bobby27042020.4|mol2|39|dock2
     RDKit          3D

 18 19  0  0  0  0  0  0  0  0999 V2000
    7.3577   -0.3586   18.5460 C   0  0  0  0  0  0  0  0  0  0  0  0
    7.2076   -0.7955   19.9736 C   0  0  0  0  0  0  0  0  0  0  0  0
    6.1618   -0.6350   20.5951 O   0  0  0  0  0  0  0  0  0  0  0  0
    8.2721   -1.3836   20.5228 N   0  0  0  0  0  0  0  0  0  0  0  0
    8.2771   -1.8778   21.8924 C   0  0  0  0  0  0  0  0  0  0  0  0
    8.1744   -0.7496   22.9001 C   0  0  0  0  0  0  0  0  0  0  0  0
    9.1267    0.3780   22.6268 C   0  0  0  0  0  0  0  0  0  0  0  0
    8.8092    1.5839   22.0743 C   0  0  0  0  0  0  0  0  0  0  0  0
    9.9189    2.3771   21.9788 N   0  0  0  0  0  0  0  0  0  0  0  0
   10.9982    1.6916   22.4780 C   0  0  0  0  0  0  0  0  0  0  0  0
   12.3317    2.0668   22.6107 C   0  0  0  0  0  0  0  0  0  0  0  0
   13.2366    1.1692   23.1480 C   0  0  0  0  0  0  0  0  0  0  0  0
   12.8246   -0.1032   23.5477 C   0  0  0  0  0  0  0  0  0  0  0  0
   13.7756   -1.0317   24.1009 C   0  0  0  0  0  0  0  0  0  0  0  0
   14.5285   -1.7867   24.5106 N   0  0  0  0  0  0  0  0  0  0  0  0
   11.4773   -0.4551   23.3996 C   0  0  0  0  0  0  0  0  0  0  0  0
   10.9975   -2.0395   23.8812 Cl  0  0  0  0  0  0  0  0  0  0  0  0
   10.5327    0.4229   22.8806 C   0  0  0  0  0  0  0  0  0  0  0  0
  1  2  1  0
  2  3  2  0
  2  4  1  0
  4  5  1  0
  5  6  1  0
  6  7  1  0
  7  8  2  0
  8  9  1  0
  9 10  1  0
 10 11  2  0
 11 12  1  0
 12 13  2  0
 13 14  1  0
 14 15  3  0
 13 16  1  0
 16 17  1  0
 16 18  2  0
 18  7  1  0
 18 10  1  0
M  END
