CVD-0002430|dock_bobby27042020.63|mol2|21|dock3
     RDKit          3D

 21 23  0  0  0  0  0  0  0  0999 V2000
    9.7450   -0.4532   21.1916 C   0  0  0  0  0  0  0  0  0  0  0  0
    9.2117   -1.6035   20.5224 O   0  0  0  0  0  0  0  0  0  0  0  0
    8.1374   -1.4084   19.7201 C   0  0  0  0  0  0  0  0  0  0  0  0
    7.2614   -2.4848   19.5960 C   0  0  0  0  0  0  0  0  0  0  0  0
    6.1575   -2.3054   18.7809 C   0  0  0  0  0  0  0  0  0  0  0  0
    5.9729   -1.0998   18.1402 C   0  0  0  0  0  0  0  0  0  0  0  0
    6.9061   -0.1076   18.3387 C   0  0  0  0  0  0  0  0  0  0  0  0
    7.9866   -0.2428   19.1194 N   0  0  0  0  0  0  0  0  0  0  0  0
   10.9901   -0.8815   21.9201 C   0  0  0  0  0  0  0  0  0  0  0  0
   11.5246    0.2246   22.7862 C   0  0  0  0  0  0  0  0  0  0  0  0
   12.7524   -0.2113   23.4532 N   0  0  0  0  0  0  0  0  0  0  0  0
   13.2947    0.8546   24.3078 C   0  0  0  0  0  0  0  0  0  0  0  0
   13.1573    2.2315   23.7036 C   0  0  0  0  0  0  0  0  0  0  0  0
   12.0653    3.0308   24.0039 C   0  0  0  0  0  0  0  0  0  0  0  0
   11.9407    4.2950   23.4523 C   0  0  0  0  0  0  0  0  0  0  0  0
   12.9075    4.7743   22.5947 C   0  0  0  0  0  0  0  0  0  0  0  0
   13.9989    3.9899   22.2892 C   0  0  0  0  0  0  0  0  0  0  0  0
   14.1232    2.7258   22.8409 C   0  0  0  0  0  0  0  0  0  0  0  0
   13.7204   -0.6200   22.4386 C   0  0  0  0  0  0  0  0  0  0  0  0
   13.1391   -1.7063   21.5722 C   0  0  0  0  0  0  0  0  0  0  0  0
   11.9376   -1.2891   20.9469 O   0  0  0  0  0  0  0  0  0  0  0  0
  1  2  1  0
  2  3  1  0
  3  4  2  0
  4  5  1  0
  5  6  2  0
  6  7  1  0
  7  8  2  0
  1  9  1  0
  9 10  1  0
 10 11  1  0
 11 12  1  0
 12 13  1  0
 13 14  2  0
 14 15  1  0
 15 16  2  0
 16 17  1  0
 17 18  2  0
 11 19  1  0
 19 20  1  0
 20 21  1  0
  8  3  1  0
 21  9  1  0
 18 13  1  0
M  END
