CVD-0000935|dock_bobby27042020.97|mol2|5|dock3
     RDKit          3D

 39 41  0  0  0  0  0  0  0  0999 V2000
    2.7227    1.4969   21.0307 C   0  0  0  0  0  0  0  0  0  0  0  0
    4.0072    2.0057   21.6673 C   0  0  0  0  0  0  0  0  0  0  0  0
    5.2396    1.7708   20.8387 C   0  0  0  0  0  0  0  0  0  0  0  0
    5.8140    2.6386   20.2070 O   0  0  0  0  0  0  0  0  0  0  0  0
    5.6137    0.4839   20.8986 O   0  0  0  0  0  0  0  0  0  0  0  0
    6.6545    0.0261   20.0265 C   0  0  0  0  0  0  0  0  0  0  0  0
    7.2799   -1.0955   20.6460 O   0  0  0  0  0  0  0  0  0  0  0  0
    7.5536   -1.3478   22.1890 P   0  0  0  0  0  0  0  0  0  0  0  0
    6.3424   -1.4358   23.0566 O   0  0  0  0  0  0  0  0  0  0  0  0
    8.5351   -2.8466   22.2912 C   0  0  0  0  0  0  0  0  0  0  0  0
    7.8017   -4.1845   22.3572 C   0  0  0  0  0  0  0  0  0  0  0  0
    6.9275   -4.4264   21.1388 C   0  0  0  0  0  0  0  0  0  0  0  0
    6.1864   -5.7564   21.1845 C   0  0  0  0  0  0  0  0  0  0  0  0
    5.2564   -5.8926   22.3658 C   0  0  0  0  0  0  0  0  0  0  0  0
    5.2989   -7.0163   23.1767 C   0  0  0  0  0  0  0  0  0  0  0  0
    4.4438   -7.1432   24.2586 C   0  0  0  0  0  0  0  0  0  0  0  0
    3.5343   -6.1474   24.5426 C   0  0  0  0  0  0  0  0  0  0  0  0
    3.4801   -5.0254   23.7441 C   0  0  0  0  0  0  0  0  0  0  0  0
    4.3356   -4.8995   22.6624 C   0  0  0  0  0  0  0  0  0  0  0  0
    8.5732    0.1053   22.6195 C   0  0  0  0  0  0  0  0  0  0  0  0
    9.9763    0.0186   22.0556 C   0  0  0  0  0  0  0  0  0  0  0  0
   10.1186   -0.4598   20.9373 O   0  0  0  0  0  0  0  0  0  0  0  0
   11.0546    0.4370   22.7524 N   0  0  0  0  0  0  0  0  0  0  0  0
   11.0554    1.1938   24.0109 C   0  0  0  0  0  0  0  0  0  0  0  0
   12.4515    1.7761   24.0610 C   0  0  0  0  0  0  0  0  0  0  0  0
   13.3041    0.7773   23.3240 C   0  0  0  0  0  0  0  0  0  0  0  0
   12.3993    0.3080   22.1785 C   0  0  0  0  0  0  0  0  0  0  0  0
   12.7123   -1.1248   21.7736 C   0  0  0  0  0  0  0  0  0  0  0  0
   13.8481   -1.2359   21.1332 O   0  0  0  0  0  0  0  0  0  0  0  0
   11.9783   -2.0555   22.0235 O   0  0  0  0  0  0  0  0  0  0  0  0
   12.4567    3.1004   23.2772 C   0  0  0  0  0  0  0  0  0  0  0  0
   11.7905    4.2633   24.0124 C   0  0  0  0  0  0  0  0  0  0  0  0
   11.8182    5.5406   23.1733 C   0  0  0  0  0  0  0  0  0  0  0  0
   13.2342    5.9033   22.7703 C   0  0  0  0  0  0  0  0  0  0  0  0
   13.9178    4.7586   22.0510 C   0  0  0  0  0  0  0  0  0  0  0  0
   13.8853    3.4778   22.8787 C   0  0  0  0  0  0  0  0  0  0  0  0
    6.0707   -0.3464   18.6924 C   0  0  0  0  0  0  0  0  0  0  0  0
    5.5149    0.7575   17.8665 C   0  0  0  0  0  0  0  0  0  0  0  0
    6.0545   -1.6080   18.2720 C   0  0  0  0  0  0  0  0  0  0  0  0
  1  2  1  0
  2  3  1  0
  3  4  2  0
  3  5  1  0
  5  6  1  0
  6  7  1  0
  7  8  1  0
  8  9  2  0
  8 10  1  0
 10 11  1  0
 11 12  1  0
 12 13  1  0
 13 14  1  0
 14 15  2  0
 15 16  1  0
 16 17  2  0
 17 18  1  0
 18 19  2  0
  8 20  1  0
 20 21  1  0
 21 22  2  0
 21 23  1  0
 23 24  1  0
 24 25  1  0
 25 26  1  0
 26 27  1  0
 27 28  1  0
 28 29  1  0
 28 30  2  0
 25 31  1  0
 31 32  1  0
 32 33  1  0
 33 34  1  0
 34 35  1  0
 35 36  1  0
  6 37  1  0
 37 38  1  0
 37 39  2  0
 19 14  1  0
 27 23  1  0
 36 31  1  0
M  END
