CVD-0002712|dock_bobby27042020.76|mol2|17|dock1
     RDKit          3D

 32 32  0  0  0  0  0  0  0  0999 V2000
   14.1666   -2.3476   23.2393 C   0  0  0  0  0  0  0  0  0  0  0  0
   12.7365   -2.0918   23.6824 C   0  0  0  0  0  0  0  0  0  0  0  0
   12.7088   -1.0386   24.7762 C   0  0  0  0  0  0  0  0  0  0  0  0
   11.8895   -1.6420   22.4960 C   0  0  0  0  0  0  0  0  0  0  0  0
   10.4187   -1.3718   22.8152 C   0  0  0  0  0  0  0  0  0  0  0  0
    9.6068   -1.5810   21.6276 N   0  0  0  0  0  0  0  0  0  0  0  0
    8.2674   -1.4951   21.6858 C   0  0  0  0  0  0  0  0  0  0  0  0
    7.6365   -1.2454   22.6914 O   0  0  0  0  0  0  0  0  0  0  0  0
    7.7342   -1.7302   20.4693 O   0  0  0  0  0  0  0  0  0  0  0  0
    6.2854   -1.7910   20.3658 C   0  0  0  0  0  0  0  0  0  0  0  0
    5.7615   -0.5392   19.7228 C   0  0  0  0  0  0  0  0  0  0  0  0
    6.2251   -0.1341   18.4808 C   0  0  0  0  0  0  0  0  0  0  0  0
    5.7442    1.0221   17.8892 C   0  0  0  0  0  0  0  0  0  0  0  0
    4.7951    1.7862   18.5336 C   0  0  0  0  0  0  0  0  0  0  0  0
    4.3271    1.3948   19.7696 C   0  0  0  0  0  0  0  0  0  0  0  0
    4.8080    0.2386   20.3612 C   0  0  0  0  0  0  0  0  0  0  0  0
   10.2546    0.0515   23.3407 C   0  0  0  0  0  0  0  0  0  0  0  0
    9.9752    0.2506   24.5199 O   0  0  0  0  0  0  0  0  0  0  0  0
   10.4299    1.0393   22.4584 N   0  0  0  0  0  0  0  0  0  0  0  0
   10.2978    2.4381   22.8341 C   0  0  0  0  0  0  0  0  0  0  0  0
   11.4872    3.2582   22.3033 C   0  0  0  0  0  0  0  0  0  0  0  0
   11.3539    4.7187   22.7189 C   0  0  0  0  0  0  0  0  0  0  0  0
   12.8003    2.6888   22.8276 C   0  0  0  0  0  0  0  0  0  0  0  0
    8.9807    2.9920   22.3019 C   0  0  0  0  0  0  0  0  0  0  0  0
    8.5793    2.6878   21.1818 O   0  0  0  0  0  0  0  0  0  0  0  0
    8.3117    3.8085   23.1156 N   0  0  0  0  0  0  0  0  0  0  0  0
    7.0594    4.4111   22.7129 C   0  0  0  0  0  0  0  0  0  0  0  0
    7.1583    5.9018   22.6308 C   0  0  0  0  0  0  0  0  0  0  0  0
    6.8455    6.5612   23.6144 O   0  0  0  0  0  0  0  0  0  0  0  0
    7.6099    6.5113   21.4216 C   0  0  0  0  0  0  0  0  0  0  0  0
    7.0552    7.6421   21.0409 N   0  0  0  0  0  0  0  0  0  0  0  0
    6.5576    8.5809   20.6977 N   0  0  0  0  0  0  0  0  0  0  0  0
  1  2  1  0
  2  3  1  0
  2  4  1  0
  5  4  1  0
  5  6  1  0
  6  7  1  0
  7  8  2  0
  7  9  1  0
  9 10  1  0
 10 11  1  0
 11 12  2  0
 12 13  1  0
 13 14  2  0
 14 15  1  0
 15 16  2  0
  5 17  1  0
 17 18  2  0
 17 19  1  0
 20 19  1  0
 20 21  1  0
 21 22  1  0
 21 23  1  0
 20 24  1  0
 24 25  2  0
 24 26  1  0
 26 27  1  0
 27 28  1  0
 28 29  2  0
 28 30  1  0
 30 31  2  0
 31 32  2  0
 16 11  1  0
M  CHG  2  31   1  32  -1
M  END
