CVD-0002123|dock_bobby27042020.64|mol2|32|dock2
     RDKit          3D

 23 24  0  0  0  0  0  0  0  0999 V2000
   12.8931   -1.1894   21.5437 C   0  0  0  0  0  0  0  0  0  0  0  0
   11.9232   -0.5886   22.4445 N   0  0  0  0  0  0  0  0  0  0  0  0
   12.4684    0.3510   23.4146 C   0  0  0  0  0  0  0  0  0  0  0  0
   12.6094    1.7359   22.8672 C   0  0  0  0  0  0  0  0  0  0  0  0
   12.0753    2.1527   21.6969 C   0  0  0  0  0  0  0  0  0  0  0  0
   12.4572    3.8007   21.4212 S   0  0  0  0  0  0  0  0  0  0  0  0
   13.3165    3.8184   22.9043 C   0  0  0  0  0  0  0  0  0  0  0  0
   13.3225    2.6972   23.5608 N   0  0  0  0  0  0  0  0  0  0  0  0
   14.1283    5.2846   23.4951 S   0  0  0  0  0  0  0  0  0  0  0  0
   14.2137    6.2988   22.2826 N   0  0  0  0  0  0  0  0  0  0  0  0
   15.4527    4.8816   23.8386 O   0  0  0  0  0  0  0  0  0  0  0  0
   13.2597    5.8362   24.4828 O   0  0  0  0  0  0  0  0  0  0  0  0
   10.6041   -0.9430   22.3982 C   0  0  0  0  0  0  0  0  0  0  0  0
    9.8668   -0.6372   23.3275 O   0  0  0  0  0  0  0  0  0  0  0  0
   10.1441   -1.6225   21.3286 N   0  0  0  0  0  0  0  0  0  0  0  0
    8.7686   -2.0470   21.2361 C   0  0  0  0  0  0  0  0  0  0  0  0
    8.1426   -1.6099   19.9816 N   0  0  0  0  0  0  0  0  0  0  0  0
    6.7382   -2.0328   19.9240 C   0  0  0  0  0  0  0  0  0  0  0  0
    6.0852   -1.6397   18.6135 C   0  0  0  0  0  0  0  0  0  0  0  0
    6.1763   -0.1441   18.3360 C   0  0  0  0  0  0  0  0  0  0  0  0
    5.6821    0.2365   17.0490 O   0  0  0  0  0  0  0  0  0  0  0  0
    7.6290    0.2883   18.5017 C   0  0  0  0  0  0  0  0  0  0  0  0
    8.2160   -0.1541   19.8317 C   0  0  0  0  0  0  0  0  0  0  0  0
  1  2  1  0
  2  3  1  0
  3  4  1  0
  4  5  2  0
  5  6  1  0
  6  7  1  0
  7  8  2  0
  7  9  1  0
  9 10  1  0
  9 11  2  0
  9 12  2  0
  2 13  1  0
 13 14  2  0
 13 15  1  0
 15 16  1  0
 16 17  1  0
 17 18  1  0
 18 19  1  0
 19 20  1  0
 20 21  1  0
 20 22  1  0
 22 23  1  0
  8  4  1  0
 23 17  1  0
M  END
