CVD-0003359|dock_bobby27042020.74|mol2|11|dock1
     RDKit          3D

 27 29  0  0  0  0  0  0  0  0999 V2000
    5.9918   -7.3935   31.3069 C   0  0  0  0  0  0  0  0  0  0  0  0
    6.6025   -6.3267   30.4464 C   0  0  0  0  0  0  0  0  0  0  0  0
    6.7391   -5.1730   30.8414 O   0  0  0  0  0  0  0  0  0  0  0  0
    7.0039   -6.7093   29.2326 N   0  0  0  0  0  0  0  0  0  0  0  0
    7.6306   -5.7951   28.2886 C   0  0  0  0  0  0  0  0  0  0  0  0
    7.6165   -6.3439   26.8758 C   0  0  0  0  0  0  0  0  0  0  0  0
    8.5634   -5.6725   25.9129 C   0  0  0  0  0  0  0  0  0  0  0  0
    9.8928   -5.8954   25.9751 C   0  0  0  0  0  0  0  0  0  0  0  0
   10.7444   -5.1744   25.2255 N   0  0  0  0  0  0  0  0  0  0  0  0
   10.2657   -4.2168   24.3698 C   0  0  0  0  0  0  0  0  0  0  0  0
   11.1606   -3.3767   23.7121 C   0  0  0  0  0  0  0  0  0  0  0  0
   10.7046   -2.3889   22.8454 C   0  0  0  0  0  0  0  0  0  0  0  0
   11.6848   -1.5216   22.0905 C   0  0  0  0  0  0  0  0  0  0  0  0
   12.3603   -0.5120   22.9204 N   0  0  0  0  0  0  0  0  0  0  0  0
   11.3766    0.2929   23.6507 C   0  0  0  0  0  0  0  0  0  0  0  0
   12.0795    1.3050   24.5362 C   0  0  0  0  0  0  0  0  0  0  0  0
   12.9468    2.1710   23.7345 N   0  0  0  0  0  0  0  0  0  0  0  0
   13.9047    1.3913   22.9445 C   0  0  0  0  0  0  0  0  0  0  0  0
   13.1758    0.3704   22.0899 C   0  0  0  0  0  0  0  0  0  0  0  0
   12.8665    3.5176   23.7656 C   0  0  0  0  0  0  0  0  0  0  0  0
   12.0572    4.0953   24.4804 O   0  0  0  0  0  0  0  0  0  0  0  0
   13.8274    4.2906   22.8826 C   0  0  0  0  0  0  0  0  0  0  0  0
   13.6194    6.0390   23.0477 Cl  0  0  0  0  0  0  0  0  0  0  0  0
    9.3373   -2.2589   22.6504 C   0  0  0  0  0  0  0  0  0  0  0  0
    8.4403   -3.0912   23.3015 C   0  0  0  0  0  0  0  0  0  0  0  0
    8.8934   -4.0810   24.1696 C   0  0  0  0  0  0  0  0  0  0  0  0
    7.9752   -4.9279   24.9388 C   0  0  0  0  0  0  0  0  0  0  0  0
  1  2  1  0
  2  3  2  0
  2  4  1  0
  4  5  1  0
  5  6  1  0
  6  7  1  0
  7  8  2  0
  8  9  1  0
  9 10  1  0
 10 11  2  0
 11 12  1  0
 12 13  1  0
 13 14  1  0
 14 15  1  0
 15 16  1  0
 16 17  1  0
 17 18  1  0
 18 19  1  0
 17 20  1  0
 20 21  2  0
 20 22  1  0
 22 23  1  0
 12 24  2  0
 24 25  1  0
 25 26  2  0
 26 27  1  0
 27  7  1  0
 26 10  1  0
 19 14  1  0
M  END
