CVD-0001273|dock_bobby27042020.67|mol2|36|dock1
     RDKit          3D

 23 25  0  0  0  0  0  0  0  0999 V2000
   13.6638   -3.3498   25.8118 Cl  0  0  0  0  0  0  0  0  0  0  0  0
   14.2589   -1.7690   25.2880 C   0  0  0  0  0  0  0  0  0  0  0  0
   13.8681   -1.4494   23.8577 C   0  0  0  0  0  0  0  0  0  0  0  0
   14.7042   -1.4188   22.9634 O   0  0  0  0  0  0  0  0  0  0  0  0
   12.5645   -1.1953   23.6192 N   0  0  0  0  0  0  0  0  0  0  0  0
   11.4824   -1.2161   24.6083 C   0  0  0  0  0  0  0  0  0  0  0  0
   10.2940   -1.9772   24.0809 C   0  0  0  0  0  0  0  0  0  0  0  0
    9.8278   -1.4036   22.8078 N   0  0  0  0  0  0  0  0  0  0  0  0
   10.9292   -1.4920   21.8478 C   0  0  0  0  0  0  0  0  0  0  0  0
   12.1238   -0.6968   22.3178 C   0  0  0  0  0  0  0  0  0  0  0  0
    8.6279   -2.1173   22.3050 C   0  0  0  0  0  0  0  0  0  0  0  0
    8.0159   -1.4061   21.0811 C   0  0  0  0  0  0  0  0  0  0  0  0
    7.8955    0.1098   21.2359 C   0  0  0  0  0  0  0  0  0  0  0  0
    7.2961    0.7506   19.9844 C   0  0  0  0  0  0  0  0  0  0  0  0
    5.9510    0.1392   19.6437 C   0  0  0  0  0  0  0  0  0  0  0  0
    6.0456   -1.3658   19.4987 C   0  0  0  0  0  0  0  0  0  0  0  0
    6.6520   -2.0113   20.7405 C   0  0  0  0  0  0  0  0  0  0  0  0
    7.5870   -2.3177   23.3878 C   0  0  0  0  0  0  0  0  0  0  0  0
    7.2562   -1.2843   24.2535 C   0  0  0  0  0  0  0  0  0  0  0  0
    6.3021   -1.4665   25.2406 C   0  0  0  0  0  0  0  0  0  0  0  0
    5.6668   -2.6826   25.3736 C   0  0  0  0  0  0  0  0  0  0  0  0
    5.9844   -3.7170   24.5197 C   0  0  0  0  0  0  0  0  0  0  0  0
    6.9383   -3.5361   23.5322 C   0  0  0  0  0  0  0  0  0  0  0  0
  1  2  1  0
  2  3  1  0
  3  4  2  0
  3  5  1  0
  5  6  1  0
  6  7  1  0
  7  8  1  0
  8  9  1  0
  9 10  1  0
  8 11  1  0
 11 12  1  0
 12 13  1  0
 13 14  1  0
 14 15  1  0
 15 16  1  0
 16 17  1  0
 11 18  1  0
 18 19  2  0
 19 20  1  0
 20 21  2  0
 21 22  1  0
 22 23  2  0
 10  5  1  0
 17 12  1  0
 23 18  1  0
M  END
