CVD-0002233|dock_bobby27042020.78|mol2|12|dock2
     RDKit          3D

 15 16  0  0  0  0  0  0  0  0999 V2000
   10.4617   -1.4739   23.7997 C   0  0  0  0  0  0  0  0  0  0  0  0
   11.4711   -0.9130   22.8096 C   0  0  0  0  0  0  0  0  0  0  0  0
   12.3087   -2.0867   22.2033 C   0  0  0  0  0  0  0  0  0  0  0  0
   13.0523   -1.6777   21.0540 O   0  0  0  0  0  0  0  0  0  0  0  0
   13.2683   -2.6969   23.2401 C   0  0  0  0  0  0  0  0  0  0  0  0
   14.0745   -1.5918   23.9200 C   0  0  0  0  0  0  0  0  0  0  0  0
   13.1514   -0.5280   24.4942 C   0  0  0  0  0  0  0  0  0  0  0  0
   12.3404    0.0708   23.4364 N   0  0  0  0  0  0  0  0  0  0  0  0
   13.1327    1.0161   22.6317 C   0  0  0  0  0  0  0  0  0  0  0  0
   12.6033    2.4305   22.6252 C   0  0  0  0  0  0  0  0  0  0  0  0
   11.2487    2.6803   22.7811 C   0  0  0  0  0  0  0  0  0  0  0  0
   10.7633    3.9774   22.7767 C   0  0  0  0  0  0  0  0  0  0  0  0
   11.6275    5.0393   22.6169 C   0  0  0  0  0  0  0  0  0  0  0  0
   12.9768    4.8043   22.4615 C   0  0  0  0  0  0  0  0  0  0  0  0
   13.4619    3.5072   22.4659 C   0  0  0  0  0  0  0  0  0  0  0  0
  1  2  1  0
  2  3  1  0
  3  4  1  0
  3  5  1  0
  5  6  1  0
  6  7  1  0
  7  8  1  0
  8  9  1  0
  9 10  1  0
 10 11  2  0
 11 12  1  0
 12 13  2  0
 13 14  1  0
 14 15  2  0
  8  2  1  0
 15 10  1  0
M  END
