CVD-0000209|dock_bobby27042020.56|mol2|41|dock3
     RDKit          3D

 23 25  0  0  0  0  0  0  0  0999 V2000
    7.5050    0.8197   19.4063 O   0  0  0  0  0  0  0  0  0  0  0  0
    6.4528    0.2623   19.7338 C   0  0  0  0  0  0  0  0  0  0  0  0
    6.3969   -1.1500   20.1655 C   0  0  0  0  0  0  0  0  0  0  0  0
    7.3065   -1.7979   20.8829 C   0  0  0  0  0  0  0  0  0  0  0  0
    8.6206   -1.2990   21.4214 C   0  0  0  0  0  0  0  0  0  0  0  0
    9.6945   -2.1740   20.9551 N   0  0  0  0  0  0  0  0  0  0  0  0
   10.8891   -1.9582   21.7617 C   0  0  0  0  0  0  0  0  0  0  0  0
   10.6822   -2.2632   23.2353 C   0  0  0  0  0  0  0  0  0  0  0  0
    9.4319   -1.6254   23.7172 C   0  0  0  0  0  0  0  0  0  0  0  0
    8.4926   -1.1959   22.8971 C   0  0  0  0  0  0  0  0  0  0  0  0
   11.7827   -1.8098   24.1122 N   0  0  0  0  0  0  0  0  0  0  0  0
   13.0192   -2.6193   24.0667 C   0  0  0  0  0  0  0  0  0  0  0  0
   13.7150   -2.7340   25.4149 C   0  0  0  0  0  0  0  0  0  0  0  0
   14.7770   -1.6553   25.6972 C   0  0  0  0  0  0  0  0  0  0  0  0
   14.3726   -0.3930   25.1564 O   0  0  0  0  0  0  0  0  0  0  0  0
   13.0141   -0.0247   25.3710 C   0  0  0  0  0  0  0  0  0  0  0  0
   12.1199   -0.3816   24.2083 C   0  0  0  0  0  0  0  0  0  0  0  0
    5.2031    1.0821   19.6894 C   0  0  0  0  0  0  0  0  0  0  0  0
    4.8915    1.9208   18.6236 C   0  0  0  0  0  0  0  0  0  0  0  0
    3.7120    2.6382   18.6642 C   0  0  0  0  0  0  0  0  0  0  0  0
    2.8403    2.5832   19.6712 N   0  0  0  0  0  0  0  0  0  0  0  0
    3.1501    1.7807   20.6890 C   0  0  0  0  0  0  0  0  0  0  0  0
    4.3013    1.0206   20.7455 C   0  0  0  0  0  0  0  0  0  0  0  0
  1  2  2  0
  2  3  1  0
  3  4  2  0
  4  5  1  0
  5  6  1  0
  6  7  1  0
  7  8  1  0
  8  9  1  0
  9 10  2  0
  8 11  1  0
 11 12  1  0
 12 13  1  0
 13 14  1  0
 14 15  1  0
 15 16  1  0
 16 17  1  0
  2 18  1  0
 18 19  2  0
 19 20  1  0
 20 21  2  0
 21 22  1  0
 22 23  2  0
 10  5  1  0
 17 11  1  0
 23 18  1  0
M  END
