CVD-0003978|dock_bobby27042020.43|mol2|29|dock2
     RDKit          3D

 13 12  0  0  0  0  0  0  0  0999 V2000
    5.3113    0.9978   17.7019 C   0  0  0  0  0  0  0  0  0  0  0  0
    6.1366    0.0404   18.3484 O   0  0  0  0  0  0  0  0  0  0  0  0
    7.1166    0.6029   19.1961 C   0  0  0  0  0  0  0  0  0  0  0  0
    7.7987   -0.4760   20.0017 C   0  0  0  0  0  0  0  0  0  0  0  0
    8.6143    0.0620   21.1485 C   0  0  0  0  0  0  0  0  0  0  0  0
    9.2026    1.1188   21.0647 O   0  0  0  0  0  0  0  0  0  0  0  0
    8.6631   -0.7725   22.4023 C   0  0  0  0  0  0  0  0  0  0  0  0
    9.4659   -2.0472   22.2329 C   0  0  0  0  0  0  0  0  0  0  0  0
   10.8251   -1.7551   21.7617 N   0  0  0  0  0  0  0  0  0  0  0  0
   12.0357   -1.7085   22.8118 S   0  0  0  0  0  0  0  0  0  0  0  0
   13.4786   -1.2378   21.9383 C   0  0  0  0  0  0  0  0  0  0  0  0
   12.2238   -3.0419   23.2938 O   0  0  0  0  0  0  0  0  0  0  0  0
   11.7320   -0.6775   23.7556 O   0  0  0  0  0  0  0  0  0  0  0  0
  1  2  1  0
  2  3  1  0
  3  4  1  0
  4  5  1  0
  5  6  2  0
  5  7  1  0
  7  8  1  0
  8  9  1  0
  9 10  1  0
 10 11  1  0
 10 12  2  0
 10 13  2  0
M  END
