CVD-0000929|dock_bobby27042020.82|mol2|39|dock3
     RDKit          3D

 42 45  0  0  0  0  0  0  0  0999 V2000
    9.8216   -5.8304   26.1006 C   0  0  0  0  0  0  0  0  0  0  0  0
    8.5601   -5.2303   26.6788 C   0  0  0  0  0  0  0  0  0  0  0  0
    8.6613   -3.8638   26.7462 N   0  0  0  0  0  0  0  0  0  0  0  0
    7.4105   -5.6309   25.8903 N   0  0  0  0  0  0  0  0  0  0  0  0
    7.3854   -5.2719   24.4674 C   0  0  0  0  0  0  0  0  0  0  0  0
    6.0202   -5.6432   23.8766 C   0  0  0  0  0  0  0  0  0  0  0  0
    5.9752   -5.4603   22.3749 C   0  0  0  0  0  0  0  0  0  0  0  0
    6.5482   -6.4078   21.6498 N   0  0  0  0  0  0  0  0  0  0  0  0
    5.4288   -4.4738   21.8727 O   0  0  0  0  0  0  0  0  0  0  0  0
    7.6305   -3.7772   24.2760 C   0  0  0  0  0  0  0  0  0  0  0  0
    6.8887   -2.9486   24.7975 O   0  0  0  0  0  0  0  0  0  0  0  0
    8.6783   -3.4370   23.5200 N   0  0  0  0  0  0  0  0  0  0  0  0
    9.0249   -2.0463   23.2499 C   0  0  0  0  0  0  0  0  0  0  0  0
   10.1834   -1.5764   24.1369 C   0  0  0  0  0  0  0  0  0  0  0  0
   11.5575   -1.9009   23.5990 C   0  0  0  0  0  0  0  0  0  0  0  0
   11.6965   -1.1231   22.3072 C   0  0  0  0  0  0  0  0  0  0  0  0
   10.6989   -1.5230   21.2106 C   0  0  0  0  0  0  0  0  0  0  0  0
    9.2933   -1.7077   21.7909 N   0  0  0  0  0  0  0  0  0  0  0  0
    8.1131   -1.6800   21.1219 C   0  0  0  0  0  0  0  0  0  0  0  0
    7.0368   -1.9239   21.6530 O   0  0  0  0  0  0  0  0  0  0  0  0
    8.1578   -1.3410   19.6444 C   0  0  0  0  0  0  0  0  0  0  0  0
    6.5418   -1.3693   18.9265 Cl  0  0  0  0  0  0  0  0  0  0  0  0
   11.6088    0.3629   22.5089 C   0  0  0  0  0  0  0  0  0  0  0  0
   10.5060    1.0215   22.3395 N   0  0  0  0  0  0  0  0  0  0  0  0
   10.6762    2.3803   22.5818 C   0  0  0  0  0  0  0  0  0  0  0  0
    9.7042    3.4053   22.5059 C   0  0  0  0  0  0  0  0  0  0  0  0
   10.0883    4.7243   22.7649 C   0  0  0  0  0  0  0  0  0  0  0  0
   11.3931    5.0406   23.1050 C   0  0  0  0  0  0  0  0  0  0  0  0
   12.3511    4.0476   23.1974 C   0  0  0  0  0  0  0  0  0  0  0  0
   11.9861    2.7311   22.9357 C   0  0  0  0  0  0  0  0  0  0  0  0
   12.9961    1.3163   22.9821 S   0  0  0  0  0  0  0  0  0  0  0  0
    8.2718    3.1631   22.1584 C   0  0  0  0  0  0  0  0  0  0  0  0
    7.9370    2.2760   21.1404 C   0  0  0  0  0  0  0  0  0  0  0  0
    6.6181    2.0288   20.8072 C   0  0  0  0  0  0  0  0  0  0  0  0
    5.5939    2.6683   21.4874 C   0  0  0  0  0  0  0  0  0  0  0  0
    5.9047    3.5706   22.5137 C   0  0  0  0  0  0  0  0  0  0  0  0
    4.9441    4.2281   23.2193 O   0  0  0  0  0  0  0  0  0  0  0  0
    7.2328    3.8106   22.8298 C   0  0  0  0  0  0  0  0  0  0  0  0
    3.9322    2.2848   20.9975 S   0  0  0  0  0  0  0  0  0  0  0  0
    3.9758    1.0421   19.9891 N   0  0  0  0  0  0  0  0  0  0  0  0
    3.4355    3.4095   20.2633 O   0  0  0  0  0  0  0  0  0  0  0  0
    3.2268    1.8553   22.1675 O   0  0  0  0  0  0  0  0  0  0  0  0
  1  2  1  0
  2  3  1  0
  2  4  1  0
  4  5  1  0
  5  6  1  0
  6  7  1  0
  7  8  1  0
  7  9  2  0
  5 10  1  0
 10 11  2  0
 10 12  1  0
 12 13  1  0
 13 14  1  0
 14 15  1  0
 15 16  1  0
 16 17  1  0
 17 18  1  0
 18 19  1  0
 19 20  2  0
 19 21  1  0
 21 22  1  0
 16 23  1  0
 23 24  2  0
 24 25  1  0
 25 26  2  0
 26 27  1  0
 27 28  2  0
 28 29  1  0
 29 30  2  0
 30 31  1  0
 26 32  1  0
 32 33  2  0
 33 34  1  0
 34 35  2  0
 35 36  1  0
 36 37  1  0
 36 38  2  0
 35 39  1  0
 39 40  1  0
 39 41  2  0
 39 42  2  0
 18 13  1  0
 31 23  1  0
 38 32  1  0
 30 25  1  0
M  END
