CVD-0003371|dock_bobby27042020.2|mol2|18|dock3
     RDKit          3D

 19 21  0  0  0  0  0  0  0  0999 V2000
    5.2635    0.5347   18.0229 C   0  0  0  0  0  0  0  0  0  0  0  0
    6.1433   -0.1154   18.9925 N   0  0  0  0  0  0  0  0  0  0  0  0
    6.1558    0.6306   20.2543 C   0  0  0  0  0  0  0  0  0  0  0  0
    7.0381   -0.0706   21.2704 C   0  0  0  0  0  0  0  0  0  0  0  0
    8.4008   -0.2127   20.7530 N   0  0  0  0  0  0  0  0  0  0  0  0
    8.4168   -0.9034   19.4598 C   0  0  0  0  0  0  0  0  0  0  0  0
    7.5061   -0.1959   18.4730 C   0  0  0  0  0  0  0  0  0  0  0  0
    9.4995    0.2286   21.4314 C   0  0  0  0  0  0  0  0  0  0  0  0
    9.3757    1.0649   22.3181 O   0  0  0  0  0  0  0  0  0  0  0  0
   10.7503   -0.2995   21.0832 N   0  0  0  0  0  0  0  0  0  0  0  0
   11.9667   -0.0052   21.7232 C   0  0  0  0  0  0  0  0  0  0  0  0
   12.9022   -0.8112   22.2825 C   0  0  0  0  0  0  0  0  0  0  0  0
   13.9124   -0.0253   22.7790 N   0  0  0  0  0  0  0  0  0  0  0  0
   13.6426    1.2921   22.5473 C   0  0  0  0  0  0  0  0  0  0  0  0
   14.3939    2.3535   22.8855 N   0  0  0  0  0  0  0  0  0  0  0  0
   13.8752    3.5313   22.5280 C   0  0  0  0  0  0  0  0  0  0  0  0
   12.7287    3.7607   21.8917 N   0  0  0  0  0  0  0  0  0  0  0  0
   12.0109    2.6791   21.5730 C   0  0  0  0  0  0  0  0  0  0  0  0
   12.4151    1.3794   21.8764 C   0  0  0  0  0  0  0  0  0  0  0  0
  1  2  1  0
  2  3  1  0
  3  4  1  0
  4  5  1  0
  5  6  1  0
  6  7  1  0
  5  8  1  0
  8  9  2  0
  8 10  1  0
 10 11  1  0
 11 12  2  0
 12 13  1  0
 13 14  1  0
 14 15  2  0
 15 16  1  0
 16 17  2  0
 17 18  1  0
 18 19  2  0
  7  2  1  0
 19 11  1  0
 19 14  1  0
M  END
