CVD-0001195|dock_bobby27042020.53|mol2|27|dock2
     RDKit          3D

 27 30  0  0  0  0  0  0  0  0999 V2000
   10.0872   -0.2316   25.7346 C   0  0  0  0  0  0  0  0  0  0  0  0
   11.2097   -1.0744   25.2043 C   0  0  0  0  0  0  0  0  0  0  0  0
   11.0116   -2.0126   24.4386 O   0  0  0  0  0  0  0  0  0  0  0  0
   12.4377   -0.7339   25.6005 N   0  0  0  0  0  0  0  0  0  0  0  0
   13.6299   -1.4433   25.1589 C   0  0  0  0  0  0  0  0  0  0  0  0
   14.0246   -1.0608   23.7463 C   0  0  0  0  0  0  0  0  0  0  0  0
   12.8524   -0.9716   22.8136 C   0  0  0  0  0  0  0  0  0  0  0  0
   12.4386   -1.9072   21.9123 C   0  0  0  0  0  0  0  0  0  0  0  0
   11.3305   -1.4659   21.2422 N   0  0  0  0  0  0  0  0  0  0  0  0
   11.0024   -0.2156   21.7066 C   0  0  0  0  0  0  0  0  0  0  0  0
    9.9583    0.6454   21.3416 C   0  0  0  0  0  0  0  0  0  0  0  0
    9.0795    0.1891   20.3512 N   0  0  0  0  0  0  0  0  0  0  0  0
    7.7347    0.5098   20.0710 C   0  0  0  0  0  0  0  0  0  0  0  0
    7.1938    0.3747   18.7931 C   0  0  0  0  0  0  0  0  0  0  0  0
    5.8857    0.6518   18.5352 C   0  0  0  0  0  0  0  0  0  0  0  0
    5.0334    1.1192   19.5596 C   0  0  0  0  0  0  0  0  0  0  0  0
    3.7213    1.3923   19.2756 N   0  0  0  0  0  0  0  0  0  0  0  0
    2.9662    1.8369   20.2652 C   0  0  0  0  0  0  0  0  0  0  0  0
    3.4023    2.0421   21.5565 C   0  0  0  0  0  0  0  0  0  0  0  0
    4.7025    1.7726   21.8633 C   0  0  0  0  0  0  0  0  0  0  0  0
    5.5692    1.2925   20.8552 C   0  0  0  0  0  0  0  0  0  0  0  0
    6.9299    0.9807   21.0807 C   0  0  0  0  0  0  0  0  0  0  0  0
    9.8799    1.8838   21.9766 C   0  0  0  0  0  0  0  0  0  0  0  0
   10.8033    2.1925   22.9475 C   0  0  0  0  0  0  0  0  0  0  0  0
   10.6953    3.3998   23.5650 F   0  0  0  0  0  0  0  0  0  0  0  0
   11.8285    1.3642   23.3347 C   0  0  0  0  0  0  0  0  0  0  0  0
   11.9400    0.1302   22.6985 C   0  0  0  0  0  0  0  0  0  0  0  0
  1  2  1  0
  2  3  2  0
  2  4  1  0
  4  5  1  0
  5  6  1  0
  6  7  1  0
  7  8  2  0
  8  9  1  0
  9 10  1  0
 10 11  2  0
 11 12  1  0
 12 13  1  0
 13 14  2  0
 14 15  1  0
 15 16  2  0
 16 17  1  0
 17 18  2  0
 18 19  1  0
 19 20  2  0
 20 21  1  0
 21 22  2  0
 11 23  1  0
 23 24  2  0
 24 25  1  0
 24 26  1  0
 26 27  2  0
 27  7  1  0
 27 10  1  0
 22 13  1  0
 21 16  1  0
M  END
