CVD-0004000|dock_bobby27042020.29|mol2|9|dock2
     RDKit          3D

 25 25  0  0  0  0  0  0  0  0999 V2000
   14.0821    5.8269   21.9421 O   0  0  0  0  0  0  0  0  0  0  0  0
   12.7221    5.5637   22.3555 N   0  0  0  0  0  0  0  0  0  0  0  0
   12.6526    4.2426   22.9858 C   0  0  0  0  0  0  0  0  0  0  0  0
   13.1117    3.1528   22.0378 C   0  0  0  0  0  0  0  0  0  0  0  0
   12.8951    1.7701   22.5913 C   0  0  0  0  0  0  0  0  0  0  0  0
   13.8427    0.8085   22.7706 C   0  0  0  0  0  0  0  0  0  0  0  0
   13.1647   -0.4454   23.3152 C   0  0  0  0  0  0  0  0  0  0  0  0
   11.6840   -0.1108   23.2283 C   0  0  0  0  0  0  0  0  0  0  0  0
   11.5637    1.2340   23.0239 C   0  0  0  0  0  0  0  0  0  0  0  0
   10.3678   -1.2729   23.3812 S   0  0  0  0  0  0  0  0  0  0  0  0
    9.3496   -0.6970   24.2122 O   0  0  0  0  0  0  0  0  0  0  0  0
   10.9283   -2.5501   23.7179 O   0  0  0  0  0  0  0  0  0  0  0  0
    9.7022   -1.4098   21.7690 C   0  0  0  0  0  0  0  0  0  0  0  0
   10.2046   -2.1840   20.9871 O   0  0  0  0  0  0  0  0  0  0  0  0
    8.5355   -0.5218   21.4214 C   0  0  0  0  0  0  0  0  0  0  0  0
    7.8521   -0.9643   20.1386 C   0  0  0  0  0  0  0  0  0  0  0  0
    8.2932   -0.6530   19.0393 O   0  0  0  0  0  0  0  0  0  0  0  0
    6.6251   -1.7836   20.2107 C   0  0  0  0  0  0  0  0  0  0  0  0
    6.3854   -2.5892   21.0923 O   0  0  0  0  0  0  0  0  0  0  0  0
    5.5078   -1.4860   18.8861 S   0  0  0  0  0  0  0  0  0  0  0  0
    5.2159    0.2868   19.0580 C   0  0  0  0  0  0  0  0  0  0  0  0
    5.4729    1.0733   17.7863 C   0  0  0  0  0  0  0  0  0  0  0  0
    6.2978    0.5962   17.0170 O   0  0  0  0  0  0  0  0  0  0  0  0
    4.7732    2.3069   17.5321 C   0  0  0  0  0  0  0  0  0  0  0  0
    4.0185    2.8544   18.3114 O   0  0  0  0  0  0  0  0  0  0  0  0
  1  2  1  0
  2  3  1  0
  3  4  1  0
  4  5  1  0
  5  6  2  0
  6  7  1  0
  7  8  1  0
  8  9  2  0
  8 10  1  0
 10 11  2  0
 10 12  2  0
 10 13  1  0
 13 14  2  0
 13 15  1  0
 15 16  1  0
 16 17  2  0
 16 18  1  0
 18 19  2  0
 18 20  1  0
 20 21  1  0
 21 22  1  0
 22 23  2  0
 22 24  1  0
 24 25  2  0
  9  5  1  0
M  END
