CVD-0001815|dock_bobby27042020.51|mol2|18|dock3
     RDKit          3D

 24 27  0  0  0  0  0  0  0  0999 V2000
   14.1681    6.6894   22.0497 C   0  0  0  0  0  0  0  0  0  0  0  0
   13.2350    5.5368   21.8659 C   0  0  0  0  0  0  0  0  0  0  0  0
   12.8344    5.0909   20.6750 N   0  0  0  0  0  0  0  0  0  0  0  0
   11.9986    4.0422   20.9287 N   0  0  0  0  0  0  0  0  0  0  0  0
   11.8408    3.7792   22.2538 C   0  0  0  0  0  0  0  0  0  0  0  0
   10.9869    2.6938   22.8236 C   0  0  0  0  0  0  0  0  0  0  0  0
    9.8118    2.9871   23.0117 O   0  0  0  0  0  0  0  0  0  0  0  0
   11.4173    1.4513   23.1425 N   0  0  0  0  0  0  0  0  0  0  0  0
   12.7534    0.8842   22.8908 C   0  0  0  0  0  0  0  0  0  0  0  0
   12.5609   -0.6338   23.0451 C   0  0  0  0  0  0  0  0  0  0  0  0
   11.1530   -0.8841   23.5527 C   0  0  0  0  0  0  0  0  0  0  0  0
   10.2281   -1.6731   22.6481 C   0  0  0  0  0  0  0  0  0  0  0  0
    9.5274   -0.6750   21.8345 N   0  0  0  0  0  0  0  0  0  0  0  0
    8.3406   -1.2854   21.2265 C   0  0  0  0  0  0  0  0  0  0  0  0
    7.6349   -0.4141   20.2279 C   0  0  0  0  0  0  0  0  0  0  0  0
    8.1747    0.7635   19.7985 N   0  0  0  0  0  0  0  0  0  0  0  0
    7.4637    1.4218   18.9309 N   0  0  0  0  0  0  0  0  0  0  0  0
    6.0431    0.6196   18.5683 S   0  0  0  0  0  0  0  0  0  0  0  0
    6.4355   -0.6419   19.6282 C   0  0  0  0  0  0  0  0  0  0  0  0
    5.3946   -1.9809   19.8455 Cl  0  0  0  0  0  0  0  0  0  0  0  0
    9.1866    0.3428   22.8292 C   0  0  0  0  0  0  0  0  0  0  0  0
   10.4480    0.4747   23.6610 C   0  0  0  0  0  0  0  0  0  0  0  0
   12.6202    4.7256   22.9133 C   0  0  0  0  0  0  0  0  0  0  0  0
   12.7881    4.8802   24.2285 O   0  0  0  0  0  0  0  0  0  0  0  0
  1  2  1  0
  2  3  2  0
  3  4  1  0
  4  5  1  0
  5  6  1  0
  6  7  2  0
  6  8  1  0
  8  9  1  0
  9 10  1  0
 10 11  1  0
 11 12  1  0
 12 13  1  0
 13 14  1  0
 14 15  1  0
 15 16  1  0
 16 17  2  0
 17 18  1  0
 18 19  1  0
 19 20  1  0
 13 21  1  0
 21 22  1  0
  5 23  2  0
 23 24  1  0
 23  2  1  0
 22  8  1  0
 22 11  1  0
 19 15  2  0
M  END
