CVD-0002958|dock_bobby27042020.61|mol2|24|dock2
     RDKit          3D

 26 28  0  0  0  0  0  0  0  0999 V2000
   14.0668    5.5825   21.6950 Cl  0  0  0  0  0  0  0  0  0  0  0  0
   13.3687    4.3383   22.7399 C   0  0  0  0  0  0  0  0  0  0  0  0
   12.3357    3.4983   22.0184 C   0  0  0  0  0  0  0  0  0  0  0  0
   12.3622    3.4318   20.7933 O   0  0  0  0  0  0  0  0  0  0  0  0
   11.3798    2.8212   22.7354 N   0  0  0  0  0  0  0  0  0  0  0  0
   10.3403    1.9993   22.3005 C   0  0  0  0  0  0  0  0  0  0  0  0
    9.2134    2.5689   21.9030 N   0  0  0  0  0  0  0  0  0  0  0  0
    8.1172    1.8580   21.5330 C   0  0  0  0  0  0  0  0  0  0  0  0
    7.0737    2.4003   21.1645 O   0  0  0  0  0  0  0  0  0  0  0  0
    8.1791    0.4689   21.5809 N   0  0  0  0  0  0  0  0  0  0  0  0
    7.0122   -0.3331   21.1946 C   0  0  0  0  0  0  0  0  0  0  0  0
    6.0718    0.4035   20.2703 C   0  0  0  0  0  0  0  0  0  0  0  0
    4.8364    0.8489   20.7331 C   0  0  0  0  0  0  0  0  0  0  0  0
    3.9592    1.5231   19.8998 C   0  0  0  0  0  0  0  0  0  0  0  0
    4.3000    1.7648   18.5862 C   0  0  0  0  0  0  0  0  0  0  0  0
    5.5212    1.3325   18.0978 C   0  0  0  0  0  0  0  0  0  0  0  0
    6.3873    0.6599   18.9427 C   0  0  0  0  0  0  0  0  0  0  0  0
    7.9092    0.1286   18.3056 Cl  0  0  0  0  0  0  0  0  0  0  0  0
    9.3477   -0.1370   21.9503 C   0  0  0  0  0  0  0  0  0  0  0  0
   10.4698    0.5530   22.3022 C   0  0  0  0  0  0  0  0  0  0  0  0
   11.6848   -0.2418   22.6346 C   0  0  0  0  0  0  0  0  0  0  0  0
   12.4129    0.0522   23.7824 C   0  0  0  0  0  0  0  0  0  0  0  0
   13.5461   -0.6770   24.0966 C   0  0  0  0  0  0  0  0  0  0  0  0
   13.9287   -1.6913   23.2504 C   0  0  0  0  0  0  0  0  0  0  0  0
   13.2532   -2.0090   22.1464 N   0  0  0  0  0  0  0  0  0  0  0  0
   12.1530   -1.3026   21.8684 C   0  0  0  0  0  0  0  0  0  0  0  0
  1  2  1  0
  2  3  1  0
  3  4  2  0
  3  5  1  0
  5  6  1  0
  6  7  2  0
  7  8  1  0
  8  9  2  0
  8 10  1  0
 10 11  1  0
 11 12  1  0
 12 13  2  0
 13 14  1  0
 14 15  2  0
 15 16  1  0
 16 17  2  0
 17 18  1  0
 10 19  1  0
 19 20  2  0
 20 21  1  0
 21 22  2  0
 22 23  1  0
 23 24  2  0
 24 25  1  0
 25 26  2  0
 20  6  1  0
 26 21  1  0
 17 12  1  0
M  END
