CVD-0004075|dock_bobby27042020.43|mol2|14|dock2
     RDKit          3D

 26 30  0  0  0  0  0  0  0  0999 V2000
    5.9915   -1.4988   18.5052 C   0  0  0  0  0  0  0  0  0  0  0  0
    6.9100   -0.7144   19.3880 C   0  0  0  0  0  0  0  0  0  0  0  0
    6.6538    0.6543   19.6492 C   0  0  0  0  0  0  0  0  0  0  0  0
    7.4987    1.3345   20.4537 C   0  0  0  0  0  0  0  0  0  0  0  0
    8.6059    0.6593   21.0105 C   0  0  0  0  0  0  0  0  0  0  0  0
    9.6849    0.9646   21.8524 C   0  0  0  0  0  0  0  0  0  0  0  0
   10.4027   -0.2677   21.9580 C   0  0  0  0  0  0  0  0  0  0  0  0
    9.8336   -1.2240   21.2233 N   0  0  0  0  0  0  0  0  0  0  0  0
    8.7542   -0.6461   20.6821 N   0  0  0  0  0  0  0  0  0  0  0  0
    7.9315   -1.3605   19.8830 N   0  0  0  0  0  0  0  0  0  0  0  0
   11.6105   -0.6472   22.7216 C   0  0  0  0  0  0  0  0  0  0  0  0
   12.4481   -1.6395   22.2235 C   0  0  0  0  0  0  0  0  0  0  0  0
   13.6016   -2.0062   22.8936 C   0  0  0  0  0  0  0  0  0  0  0  0
   13.9016   -1.3696   24.0661 C   0  0  0  0  0  0  0  0  0  0  0  0
   15.0422   -1.7145   24.7224 F   0  0  0  0  0  0  0  0  0  0  0  0
   13.1011   -0.4012   24.6067 C   0  0  0  0  0  0  0  0  0  0  0  0
   11.9424   -0.0529   23.9354 C   0  0  0  0  0  0  0  0  0  0  0  0
    9.9327    2.3283   22.4315 C   0  0  0  0  0  0  0  0  0  0  0  0
    8.8608    3.1184   22.8523 C   0  0  0  0  0  0  0  0  0  0  0  0
    9.1093    4.3573   23.4167 C   0  0  0  0  0  0  0  0  0  0  0  0
   10.3323    4.8758   23.5985 N   0  0  0  0  0  0  0  0  0  0  0  0
   11.3612    4.1260   23.1697 C   0  0  0  0  0  0  0  0  0  0  0  0
   12.6918    4.4262   23.2134 N   0  0  0  0  0  0  0  0  0  0  0  0
   13.3910    3.3825   22.6497 C   0  0  0  0  0  0  0  0  0  0  0  0
   12.5427    2.4048   22.2445 C   0  0  0  0  0  0  0  0  0  0  0  0
   11.2274    2.8656   22.5818 C   0  0  0  0  0  0  0  0  0  0  0  0
  1  2  1  0
  2  3  1  0
  3  4  2  0
  4  5  1  0
  5  6  2  0
  6  7  1  0
  7  8  2  0
  8  9  1  0
  9 10  1  0
  7 11  1  0
 11 12  2  0
 12 13  1  0
 13 14  2  0
 14 15  1  0
 14 16  1  0
 16 17  2  0
  6 18  1  0
 18 19  2  0
 19 20  1  0
 20 21  2  0
 21 22  1  0
 22 23  1  0
 23 24  1  0
 24 25  2  0
 25 26  1  0
 10  2  2  0
 17 11  1  0
 26 18  1  0
  9  5  1  0
 26 22  2  0
M  END
