CVD-0002689|dock_bobby27042020.4|mol2|41|dock3
     RDKit          3D

 35 38  0  0  0  0  0  0  0  0999 V2000
    9.4620    1.1000   23.2011 O   0  0  0  0  0  0  0  0  0  0  0  0
   10.0167    0.4989   22.2849 C   0  0  0  0  0  0  0  0  0  0  0  0
    9.3638   -0.3158   21.4512 N   0  0  0  0  0  0  0  0  0  0  0  0
    7.9340   -0.5481   21.5748 C   0  0  0  0  0  0  0  0  0  0  0  0
    7.3839   -1.2768   20.3393 C   0  0  0  0  0  0  0  0  0  0  0  0
    6.8871   -0.3391   19.2658 C   0  0  0  0  0  0  0  0  0  0  0  0
    7.7763    0.2965   18.4129 C   0  0  0  0  0  0  0  0  0  0  0  0
    7.3205    1.1544   17.4259 C   0  0  0  0  0  0  0  0  0  0  0  0
    5.9697    1.3859   17.2796 C   0  0  0  0  0  0  0  0  0  0  0  0
    5.0749    0.7593   18.1200 C   0  0  0  0  0  0  0  0  0  0  0  0
    5.5312   -0.0985   19.1069 C   0  0  0  0  0  0  0  0  0  0  0  0
    7.6637   -1.3938   22.8150 C   0  0  0  0  0  0  0  0  0  0  0  0
    6.7026   -1.1920   23.5369 O   0  0  0  0  0  0  0  0  0  0  0  0
    8.6526   -2.5350   23.1227 C   0  0  0  0  0  0  0  0  0  0  0  0
    8.5948   -3.6074   22.5229 O   0  0  0  0  0  0  0  0  0  0  0  0
    9.5472   -2.2577   24.0701 N   0  0  0  0  0  0  0  0  0  0  0  0
   10.5563   -3.2200   24.4872 C   0  0  0  0  0  0  0  0  0  0  0  0
   10.0310   -4.2555   25.4520 C   0  0  0  0  0  0  0  0  0  0  0  0
   10.3943   -5.5877   25.3293 C   0  0  0  0  0  0  0  0  0  0  0  0
    9.9152   -6.5373   26.2162 C   0  0  0  0  0  0  0  0  0  0  0  0
    9.0676   -6.1655   27.2373 C   0  0  0  0  0  0  0  0  0  0  0  0
    8.6995   -4.8440   27.3716 C   0  0  0  0  0  0  0  0  0  0  0  0
    9.1789   -3.8949   26.4844 C   0  0  0  0  0  0  0  0  0  0  0  0
   11.5150    0.6560   22.0472 C   0  0  0  0  0  0  0  0  0  0  0  0
   12.3422   -0.4642   22.7164 C   0  0  0  0  0  0  0  0  0  0  0  0
   13.3114    0.2040   23.6300 C   0  0  0  0  0  0  0  0  0  0  0  0
   13.4287    1.6211   23.1211 C   0  0  0  0  0  0  0  0  0  0  0  0
   12.0683    1.8864   22.6572 N   0  0  0  0  0  0  0  0  0  0  0  0
   11.9731    3.0720   21.7961 C   0  0  0  0  0  0  0  0  0  0  0  0
   12.4057    4.3380   22.4960 C   0  0  0  0  0  0  0  0  0  0  0  0
   13.2876    5.2175   21.8875 C   0  0  0  0  0  0  0  0  0  0  0  0
   13.6871    6.3771   22.5306 C   0  0  0  0  0  0  0  0  0  0  0  0
   13.2096    6.6697   23.7901 C   0  0  0  0  0  0  0  0  0  0  0  0
   12.3333    5.8027   24.4067 C   0  0  0  0  0  0  0  0  0  0  0  0
   11.9340    4.6431   23.7632 C   0  0  0  0  0  0  0  0  0  0  0  0
  1  2  2  0
  2  3  1  0
  3  4  1  0
  4  5  1  0
  5  6  1  0
  6  7  2  0
  7  8  1  0
  8  9  2  0
  9 10  1  0
 10 11  2  0
  4 12  1  0
 12 13  2  0
 12 14  1  0
 14 15  2  0
 14 16  1  0
 16 17  1  0
 17 18  1  0
 18 19  2  0
 19 20  1  0
 20 21  2  0
 21 22  1  0
 22 23  2  0
  2 24  1  0
 24 25  1  0
 25 26  1  0
 26 27  1  0
 27 28  1  0
 28 29  1  0
 29 30  1  0
 30 31  2  0
 31 32  1  0
 32 33  2  0
 33 34  1  0
 34 35  2  0
 11  6  1  0
 23 18  1  0
 28 24  1  0
 35 30  1  0
M  END
