CVD-0001259|dock_bobby27042020.81|mol2|36|dock3
     RDKit          3D

 35 38  0  0  0  0  0  0  0  0999 V2000
   13.8021    4.1215   22.8183 C   0  0  0  0  0  0  0  0  0  0  0  0
   12.3479    4.2932   21.8576 S   0  0  0  0  0  0  0  0  0  0  0  0
   11.3872    5.0164   22.6320 O   0  0  0  0  0  0  0  0  0  0  0  0
   12.7205    4.8091   20.5766 O   0  0  0  0  0  0  0  0  0  0  0  0
   11.7484    2.8258   21.6167 N   0  0  0  0  0  0  0  0  0  0  0  0
   11.0851    2.1236   22.7215 C   0  0  0  0  0  0  0  0  0  0  0  0
   11.2753    0.6287   22.6317 C   0  0  0  0  0  0  0  0  0  0  0  0
   12.5243    0.0882   22.3729 C   0  0  0  0  0  0  0  0  0  0  0  0
   12.6919   -1.2830   22.2888 C   0  0  0  0  0  0  0  0  0  0  0  0
   11.6082   -2.1266   22.4621 C   0  0  0  0  0  0  0  0  0  0  0  0
   10.3409   -1.6110   22.7211 C   0  0  0  0  0  0  0  0  0  0  0  0
   10.1954   -0.2284   22.8023 C   0  0  0  0  0  0  0  0  0  0  0  0
    9.1608   -2.5145   22.9119 C   0  0  0  0  0  0  0  0  0  0  0  0
    8.0918   -2.4581   22.1165 C   0  0  0  0  0  0  0  0  0  0  0  0
    6.9736   -3.2378   22.3864 N   0  0  0  0  0  0  0  0  0  0  0  0
    6.6570   -3.4937   23.7888 C   0  0  0  0  0  0  0  0  0  0  0  0
    7.9082   -3.8121   24.5682 C   0  0  0  0  0  0  0  0  0  0  0  0
    7.8473   -4.6224   25.6972 C   0  0  0  0  0  0  0  0  0  0  0  0
    8.9931   -4.9714   26.3872 C   0  0  0  0  0  0  0  0  0  0  0  0
   10.2157   -4.5125   25.9536 C   0  0  0  0  0  0  0  0  0  0  0  0
   10.3002   -3.7043   24.8316 C   0  0  0  0  0  0  0  0  0  0  0  0
    9.1501   -3.3421   24.1223 C   0  0  0  0  0  0  0  0  0  0  0  0
    6.1055   -3.8282   21.4494 C   0  0  0  0  0  0  0  0  0  0  0  0
    4.9777   -4.2187   21.7205 O   0  0  0  0  0  0  0  0  0  0  0  0
    6.5855   -3.9926   20.0169 C   0  0  0  0  0  0  0  0  0  0  0  0
    5.7564   -2.8706   18.9293 Cl  0  0  0  0  0  0  0  0  0  0  0  0
    8.1092   -1.6735   20.8784 C   0  0  0  0  0  0  0  0  0  0  0  0
    9.1099   -1.6498   20.1631 O   0  0  0  0  0  0  0  0  0  0  0  0
    6.9491   -1.0178   20.6208 N   0  0  0  0  0  0  0  0  0  0  0  0
    6.5649   -0.1785   19.5453 C   0  0  0  0  0  0  0  0  0  0  0  0
    5.3368    0.4675   19.6053 C   0  0  0  0  0  0  0  0  0  0  0  0
    4.9438    1.2910   18.5651 C   0  0  0  0  0  0  0  0  0  0  0  0
    5.7905    1.4460   17.4924 C   0  0  0  0  0  0  0  0  0  0  0  0
    6.9748    0.8405   17.4046 N   0  0  0  0  0  0  0  0  0  0  0  0
    7.3463    0.0471   18.4141 C   0  0  0  0  0  0  0  0  0  0  0  0
  1  2  1  0
  2  3  2  0
  2  4  2  0
  2  5  1  0
  5  6  1  0
  6  7  1  0
  7  8  2  0
  8  9  1  0
  9 10  2  0
 10 11  1  0
 11 12  2  0
 11 13  1  0
 13 14  2  0
 14 15  1  0
 15 16  1  0
 16 17  1  0
 17 18  2  0
 18 19  1  0
 19 20  2  0
 20 21  1  0
 21 22  2  0
 15 23  1  0
 23 24  2  0
 23 25  1  0
 25 26  1  0
 14 27  1  0
 27 28  2  0
 27 29  1  0
 29 30  1  0
 30 31  2  0
 31 32  1  0
 32 33  2  0
 33 34  1  0
 34 35  2  0
 12  7  1  0
 22 13  1  0
 35 30  1  0
 22 17  1  0
M  END
