CVD-0002145|dock_bobby27042020.50|mol2|7|dock1
     RDKit          3D

 17 17  0  0  0  0  0  0  0  0999 V2000
    5.6900    0.4256   18.3060 C   0  0  0  0  0  0  0  0  0  0  0  0
    6.3040   -1.0755   18.9666 S   0  0  0  0  0  0  0  0  0  0  0  0
    7.4196   -1.4869   18.1715 O   0  0  0  0  0  0  0  0  0  0  0  0
    5.2037   -1.9769   19.1178 O   0  0  0  0  0  0  0  0  0  0  0  0
    6.8635   -0.7667   20.4370 N   0  0  0  0  0  0  0  0  0  0  0  0
    8.1382   -0.0559   20.5942 C   0  0  0  0  0  0  0  0  0  0  0  0
    8.6396   -0.1653   22.0230 C   0  0  0  0  0  0  0  0  0  0  0  0
    9.9646    0.5409   22.2228 C   0  0  0  0  0  0  0  0  0  0  0  0
    9.9327    1.9281   22.3412 C   0  0  0  0  0  0  0  0  0  0  0  0
   11.0888    2.6613   22.5385 C   0  0  0  0  0  0  0  0  0  0  0  0
   12.2990    2.0122   22.6247 C   0  0  0  0  0  0  0  0  0  0  0  0
   12.3529    0.6342   22.5070 C   0  0  0  0  0  0  0  0  0  0  0  0
   11.2000   -0.1235   22.2927 C   0  0  0  0  0  0  0  0  0  0  0  0
   11.3043   -1.6278   22.1398 C   0  0  0  0  0  0  0  0  0  0  0  0
   12.6853   -2.1451   21.9127 C   0  0  0  0  0  0  0  0  0  0  0  0
   13.0752   -2.3377   20.7354 N   0  0  0  0  0  0  0  0  0  0  0  0
   13.4076   -2.3722   22.9877 N   0  0  0  0  0  0  0  0  0  0  0  0
  1  2  1  0
  2  3  2  0
  2  4  2  0
  2  5  1  0
  5  6  1  0
  6  7  1  0
  7  8  1  0
  8  9  2  0
  9 10  1  0
 10 11  2  0
 11 12  1  0
 12 13  2  0
 13 14  1  0
 14 15  1  0
 15 16  1  0
 15 17  2  0
 13  8  1  0
M  END
