CVD-0003507|dock_bobby27042020.59|mol2|33|dock2
     RDKit          3D

 14 15  0  0  0  0  0  0  0  0999 V2000
   12.1804    5.3514   22.3091 C   0  0  0  0  0  0  0  0  0  0  0  0
   12.3821    3.8838   22.5068 C   0  0  0  0  0  0  0  0  0  0  0  0
   11.5008    2.8361   22.5547 C   0  0  0  0  0  0  0  0  0  0  0  0
   12.2797    1.6948   22.7651 C   0  0  0  0  0  0  0  0  0  0  0  0
   11.8303    0.2732   22.8979 C   0  0  0  0  0  0  0  0  0  0  0  0
   12.8519   -0.6085   23.5838 C   0  0  0  0  0  0  0  0  0  0  0  0
   13.2527   -0.3524   24.8738 C   0  0  0  0  0  0  0  0  0  0  0  0
   14.1373   -1.0819   25.5601 N   0  0  0  0  0  0  0  0  0  0  0  0
   14.6665   -2.1307   24.9325 C   0  0  0  0  0  0  0  0  0  0  0  0
   14.3428   -2.4781   23.6375 C   0  0  0  0  0  0  0  0  0  0  0  0
   13.4183   -1.7114   22.9337 C   0  0  0  0  0  0  0  0  0  0  0  0
   13.0668   -2.0811   21.5165 C   0  0  0  0  0  0  0  0  0  0  0  0
   13.5759    2.0048   22.8451 N   0  0  0  0  0  0  0  0  0  0  0  0
   13.6054    3.3545   22.6829 N   0  0  0  0  0  0  0  0  0  0  0  0
  1  2  1  0
  2  3  2  0
  3  4  1  0
  4  5  1  0
  5  6  1  0
  6  7  2  0
  7  8  1  0
  8  9  2  0
  9 10  1  0
 10 11  2  0
 11 12  1  0
  4 13  2  0
 13 14  1  0
 14  2  1  0
 11  6  1  0
M  END
