CVD-0002097|dock_bobby27042020.7|mol2|25|dock2
     RDKit          3D

 21 23  0  0  0  0  0  0  0  0999 V2000
   11.9475    3.3363   21.5709 N   0  0  0  0  0  0  0  0  0  0  0  0
   10.8769    3.3096   22.5923 C   0  0  0  0  0  0  0  0  0  0  0  0
   10.2511    1.9311   22.7519 C   0  0  0  0  0  0  0  0  0  0  0  0
    9.3088    1.7642   21.6890 O   0  0  0  0  0  0  0  0  0  0  0  0
    8.6758    0.4776   21.7526 C   0  0  0  0  0  0  0  0  0  0  0  0
    9.6738   -0.6071   21.4502 C   0  0  0  0  0  0  0  0  0  0  0  0
   11.0163   -0.3755   22.0935 C   0  0  0  0  0  0  0  0  0  0  0  0
   12.0138   -1.3631   22.0653 C   0  0  0  0  0  0  0  0  0  0  0  0
   11.8045   -2.5911   21.4986 O   0  0  0  0  0  0  0  0  0  0  0  0
   13.2326   -1.1528   22.7100 C   0  0  0  0  0  0  0  0  0  0  0  0
   14.1587   -2.1465   22.7146 O   0  0  0  0  0  0  0  0  0  0  0  0
   13.4726    0.0347   23.3863 C   0  0  0  0  0  0  0  0  0  0  0  0
   12.4889    1.0052   23.4126 C   0  0  0  0  0  0  0  0  0  0  0  0
   11.2644    0.8091   22.7721 C   0  0  0  0  0  0  0  0  0  0  0  0
    7.5191    0.5041   20.7711 C   0  0  0  0  0  0  0  0  0  0  0  0
    6.8318   -0.8580   20.5981 C   0  0  0  0  0  0  0  0  0  0  0  0
    5.6648   -0.7907   19.6077 C   0  0  0  0  0  0  0  0  0  0  0  0
    4.6643    0.2906   19.9974 C   0  0  0  0  0  0  0  0  0  0  0  0
    5.3541    1.6407   20.1157 C   0  0  0  0  0  0  0  0  0  0  0  0
    6.5018    1.5950   21.1300 C   0  0  0  0  0  0  0  0  0  0  0  0
    5.9936    1.3924   22.4501 O   0  0  0  0  0  0  0  0  0  0  0  0
  1  2  1  0
  2  3  1  0
  3  4  1  0
  4  5  1  0
  5  6  1  0
  6  7  1  0
  7  8  2  0
  8  9  1  0
  8 10  1  0
 10 11  1  0
 10 12  2  0
 12 13  1  0
 13 14  2  0
  5 15  1  0
 15 16  1  0
 16 17  1  0
 17 18  1  0
 18 19  1  0
 19 20  1  0
 20 21  1  0
 14  3  1  0
 20 15  1  0
 14  7  1  0
M  END
