CVD-0000016|dock_bobby27042020.43|mol2|11|dock3
     RDKit          3D

 25 26  0  0  0  0  0  0  0  0999 V2000
    8.2705   -5.7346   27.8566 C   0  0  0  0  0  0  0  0  0  0  0  0
    9.8365   -5.6344   27.0793 S   0  0  0  0  0  0  0  0  0  0  0  0
   10.0987   -6.8896   26.4457 O   0  0  0  0  0  0  0  0  0  0  0  0
   10.7775   -5.1436   28.0383 O   0  0  0  0  0  0  0  0  0  0  0  0
    9.7331   -4.5343   25.9175 N   0  0  0  0  0  0  0  0  0  0  0  0
   10.3982   -4.7725   24.6309 C   0  0  0  0  0  0  0  0  0  0  0  0
   10.8312   -3.4657   24.0223 C   0  0  0  0  0  0  0  0  0  0  0  0
    9.8072   -2.8688   23.2154 O   0  0  0  0  0  0  0  0  0  0  0  0
   10.1714   -1.9841   22.1504 C   0  0  0  0  0  0  0  0  0  0  0  0
    8.9147   -1.2427   21.6889 C   0  0  0  0  0  0  0  0  0  0  0  0
    8.0468   -0.9560   22.5083 O   0  0  0  0  0  0  0  0  0  0  0  0
    8.8852   -0.9642   20.3626 N   0  0  0  0  0  0  0  0  0  0  0  0
    7.9086   -0.3029   19.5778 C   0  0  0  0  0  0  0  0  0  0  0  0
    6.6685    0.1010   20.0619 C   0  0  0  0  0  0  0  0  0  0  0  0
    5.7855    0.7411   19.2093 C   0  0  0  0  0  0  0  0  0  0  0  0
    6.1626    0.9591   17.9041 C   0  0  0  0  0  0  0  0  0  0  0  0
    7.3432    0.5836   17.4123 N   0  0  0  0  0  0  0  0  0  0  0  0
    8.1885   -0.0333   18.2430 C   0  0  0  0  0  0  0  0  0  0  0  0
   11.1961   -0.9501   22.5643 C   0  0  0  0  0  0  0  0  0  0  0  0
   12.4357   -0.8956   21.9431 C   0  0  0  0  0  0  0  0  0  0  0  0
   13.3750    0.0484   22.3227 C   0  0  0  0  0  0  0  0  0  0  0  0
   13.0862    0.9517   23.3316 C   0  0  0  0  0  0  0  0  0  0  0  0
   11.8538    0.8905   23.9443 C   0  0  0  0  0  0  0  0  0  0  0  0
   11.4774    2.0201   25.2151 Cl  0  0  0  0  0  0  0  0  0  0  0  0
   10.9090   -0.0453   23.5753 C   0  0  0  0  0  0  0  0  0  0  0  0
  1  2  1  0
  2  3  2  0
  2  4  2  0
  2  5  1  0
  5  6  1  0
  6  7  1  0
  7  8  1  0
  8  9  1  0
  9 10  1  0
 10 11  2  0
 10 12  1  0
 12 13  1  0
 13 14  2  0
 14 15  1  0
 15 16  2  0
 16 17  1  0
 17 18  2  0
  9 19  1  0
 19 20  2  0
 20 21  1  0
 21 22  2  0
 22 23  1  0
 23 24  1  0
 23 25  2  0
 18 13  1  0
 25 19  1  0
M  END
