CVD-0002898|dock_bobby27042020.61|mol2|33|dock2
     RDKit          3D

 20 22  0  0  0  0  0  0  0  0999 V2000
    8.8734   -3.0346   23.0518 C   0  0  0  0  0  0  0  0  0  0  0  0
    8.7721   -1.7973   22.1543 C   0  0  0  0  0  0  0  0  0  0  0  0
    7.3267   -1.3452   22.0433 C   0  0  0  0  0  0  0  0  0  0  0  0
    6.4744   -1.9310   22.6832 O   0  0  0  0  0  0  0  0  0  0  0  0
    6.9397   -0.3117   21.2636 N   0  0  0  0  0  0  0  0  0  0  0  0
    7.8513    0.3768   20.3473 C   0  0  0  0  0  0  0  0  0  0  0  0
    7.2775    0.3949   18.9427 C   0  0  0  0  0  0  0  0  0  0  0  0
    5.9659    1.0494   18.9389 N   0  0  0  0  0  0  0  0  0  0  0  0
    5.4261    1.1048   17.5814 C   0  0  0  0  0  0  0  0  0  0  0  0
    5.0627    0.3121   19.8188 C   0  0  0  0  0  0  0  0  0  0  0  0
    5.5996    0.2830   21.2382 C   0  0  0  0  0  0  0  0  0  0  0  0
    9.7058   -0.6915   22.5782 C   0  0  0  0  0  0  0  0  0  0  0  0
    9.3991    0.5044   23.1585 C   0  0  0  0  0  0  0  0  0  0  0  0
   10.5329    1.2369   23.3898 N   0  0  0  0  0  0  0  0  0  0  0  0
   11.6093    0.5203   22.9572 C   0  0  0  0  0  0  0  0  0  0  0  0
   12.9020    0.8836   23.0066 N   0  0  0  0  0  0  0  0  0  0  0  0
   13.7838    0.0047   22.5114 C   0  0  0  0  0  0  0  0  0  0  0  0
   13.4322   -1.2136   21.9709 C   0  0  0  0  0  0  0  0  0  0  0  0
   12.0941   -1.5723   21.9284 C   0  0  0  0  0  0  0  0  0  0  0  0
   11.1365   -0.6953   22.4349 C   0  0  0  0  0  0  0  0  0  0  0  0
  1  2  1  0
  2  3  1  0
  3  4  2  0
  3  5  1  0
  5  6  1  0
  6  7  1  0
  7  8  1  0
  8  9  1  0
  8 10  1  0
 10 11  1  0
  2 12  1  0
 12 13  2  0
 13 14  1  0
 14 15  1  0
 15 16  2  0
 16 17  1  0
 17 18  2  0
 18 19  1  0
 19 20  2  0
 11  5  1  0
 20 12  1  0
 20 15  1  0
M  END
