CVD-0004062|dock_bobby27042020.28|mol2|45|dock3
     RDKit          3D

 23 26  0  0  0  0  0  0  0  0999 V2000
    6.2365   -1.0540   20.1416 C   0  0  0  0  0  0  0  0  0  0  0  0
    7.5603   -0.7064   20.7459 C   0  0  0  0  0  0  0  0  0  0  0  0
    8.4306   -1.7240   21.2038 C   0  0  0  0  0  0  0  0  0  0  0  0
    9.6163   -1.3883   21.7395 C   0  0  0  0  0  0  0  0  0  0  0  0
    9.9532   -0.0503   21.8248 N   0  0  0  0  0  0  0  0  0  0  0  0
   11.0749    0.6193   22.3196 C   0  0  0  0  0  0  0  0  0  0  0  0
   10.7962    1.9625   22.1208 C   0  0  0  0  0  0  0  0  0  0  0  0
    9.5502    2.1249   21.5455 N   0  0  0  0  0  0  0  0  0  0  0  0
    9.0538    0.9078   21.3654 C   0  0  0  0  0  0  0  0  0  0  0  0
    7.8642    0.5860   20.8270 N   0  0  0  0  0  0  0  0  0  0  0  0
   11.5566    3.2021   22.3919 C   0  0  0  0  0  0  0  0  0  0  0  0
   10.9442    4.4076   22.7219 C   0  0  0  0  0  0  0  0  0  0  0  0
   11.6894    5.5552   22.9276 C   0  0  0  0  0  0  0  0  0  0  0  0
   13.0514    5.4736   22.8337 C   0  0  0  0  0  0  0  0  0  0  0  0
   13.7881    6.5995   23.0342 F   0  0  0  0  0  0  0  0  0  0  0  0
   13.7025    4.3056   22.5481 C   0  0  0  0  0  0  0  0  0  0  0  0
   12.9458    3.1683   22.3292 C   0  0  0  0  0  0  0  0  0  0  0  0
   12.2352   -0.0905   22.9142 C   0  0  0  0  0  0  0  0  0  0  0  0
   12.7954   -1.2201   22.3284 C   0  0  0  0  0  0  0  0  0  0  0  0
   13.8658   -1.8543   22.9341 C   0  0  0  0  0  0  0  0  0  0  0  0
   14.3561   -1.3367   24.1107 C   0  0  0  0  0  0  0  0  0  0  0  0
   13.8495   -0.2511   24.6957 N   0  0  0  0  0  0  0  0  0  0  0  0
   12.8125    0.3450   24.0993 C   0  0  0  0  0  0  0  0  0  0  0  0
  1  2  1  0
  2  3  1  0
  3  4  2  0
  4  5  1  0
  5  6  1  0
  6  7  2  0
  7  8  1  0
  8  9  2  0
  9 10  1  0
  7 11  1  0
 11 12  2  0
 12 13  1  0
 13 14  2  0
 14 15  1  0
 14 16  1  0
 16 17  2  0
  6 18  1  0
 18 19  2  0
 19 20  1  0
 20 21  2  0
 21 22  1  0
 22 23  2  0
 10  2  2  0
 17 11  1  0
 23 18  1  0
  9  5  1  0
M  END
