CVD-0002079|dock_bobby27042020.7|mol2|28|dock2
     RDKit          3D

 15 16  0  0  0  0  0  0  0  0999 V2000
   10.3691   -1.4975   22.3383 C   0  0  0  0  0  0  0  0  0  0  0  0
   11.7657   -0.9091   22.2436 C   0  0  0  0  0  0  0  0  0  0  0  0
   12.6195   -1.2404   23.4436 C   0  0  0  0  0  0  0  0  0  0  0  0
   13.3180   -2.4361   23.5093 C   0  0  0  0  0  0  0  0  0  0  0  0
   14.0990   -2.7419   24.6114 C   0  0  0  0  0  0  0  0  0  0  0  0
   14.1901   -1.8552   25.6626 C   0  0  0  0  0  0  0  0  0  0  0  0
   13.5000   -0.6634   25.6114 C   0  0  0  0  0  0  0  0  0  0  0  0
   12.7193   -0.3586   24.5088 C   0  0  0  0  0  0  0  0  0  0  0  0
    9.5332   -1.0564   21.2197 N   0  0  0  0  0  0  0  0  0  0  0  0
    8.1408   -1.4991   21.3183 C   0  0  0  0  0  0  0  0  0  0  0  0
    7.2461   -0.7294   20.3827 C   0  0  0  0  0  0  0  0  0  0  0  0
    5.9616   -0.2359   20.7184 C   0  0  0  0  0  0  0  0  0  0  0  0
    5.3365    0.4390   19.7137 C   0  0  0  0  0  0  0  0  0  0  0  0
    6.3332    0.4716   18.3388 S   0  0  0  0  0  0  0  0  0  0  0  0
    7.5743   -0.4055   19.1014 C   0  0  0  0  0  0  0  0  0  0  0  0
  1  2  1  0
  2  3  1  0
  3  4  2  0
  4  5  1  0
  5  6  2  0
  6  7  1  0
  7  8  2  0
  1  9  1  0
  9 10  1  0
 10 11  1  0
 11 12  1  0
 12 13  2  0
 13 14  1  0
 14 15  1  0
  8  3  1  0
 15 11  2  0
M  END
