CVD-0002918|dock_bobby27042020.75|mol2|29|dock3
     RDKit          3D

 27 30  0  0  0  0  0  0  0  0999 V2000
    6.9153   -3.2717   23.2084 C   0  0  0  0  0  0  0  0  0  0  0  0
    7.6112   -2.3864   22.2714 N   0  0  0  0  0  0  0  0  0  0  0  0
    6.9056   -1.9329   21.1796 C   0  0  0  0  0  0  0  0  0  0  0  0
    5.6933   -2.0802   21.0798 O   0  0  0  0  0  0  0  0  0  0  0  0
    7.5819   -1.3099   20.1983 N   0  0  0  0  0  0  0  0  0  0  0  0
    6.9206   -0.7935   19.0000 C   0  0  0  0  0  0  0  0  0  0  0  0
    7.4232    0.7708   19.0605 C   0  0  0  0  0  0  0  0  0  0  0  0
    6.0107    0.4354   18.7427 C   0  0  0  0  0  0  0  0  0  0  0  0
    8.9401   -2.1381   22.6619 C   0  0  0  0  0  0  0  0  0  0  0  0
    9.6620   -3.1484   23.1649 N   0  0  0  0  0  0  0  0  0  0  0  0
   10.8970   -2.8724   23.5164 C   0  0  0  0  0  0  0  0  0  0  0  0
   11.4691   -1.5884   23.3858 C   0  0  0  0  0  0  0  0  0  0  0  0
   12.7880   -1.2351   23.7464 C   0  0  0  0  0  0  0  0  0  0  0  0
   13.2365    0.0400   23.5759 C   0  0  0  0  0  0  0  0  0  0  0  0
   12.4217    1.0419   23.0434 C   0  0  0  0  0  0  0  0  0  0  0  0
   12.8579    2.3798   22.8527 N   0  0  0  0  0  0  0  0  0  0  0  0
   12.1711    3.5575   22.8260 C   0  0  0  0  0  0  0  0  0  0  0  0
   10.9589    3.6459   22.9890 O   0  0  0  0  0  0  0  0  0  0  0  0
   12.9238    4.8397   22.5835 C   0  0  0  0  0  0  0  0  0  0  0  0
   13.8797    4.8579   21.5705 C   0  0  0  0  0  0  0  0  0  0  0  0
   14.6087    6.0018   21.2928 C   0  0  0  0  0  0  0  0  0  0  0  0
   14.3991    7.1518   22.0201 C   0  0  0  0  0  0  0  0  0  0  0  0
   13.4590    7.1565   23.0262 C   0  0  0  0  0  0  0  0  0  0  0  0
   12.7263    6.0154   23.3092 C   0  0  0  0  0  0  0  0  0  0  0  0
   11.1346    0.7138   22.6873 C   0  0  0  0  0  0  0  0  0  0  0  0
   10.6265   -0.5953   22.8460 C   0  0  0  0  0  0  0  0  0  0  0  0
    9.3375   -0.8793   22.4781 N   0  0  0  0  0  0  0  0  0  0  0  0
  1  2  1  0
  2  3  1  0
  3  4  2  0
  3  5  1  0
  5  6  1  0
  6  7  1  0
  7  8  1  0
  2  9  1  0
  9 10  2  0
 10 11  1  0
 11 12  2  0
 12 13  1  0
 13 14  2  0
 14 15  1  0
 15 16  1  0
 16 17  1  0
 17 18  2  0
 17 19  1  0
 19 20  2  0
 20 21  1  0
 21 22  2  0
 22 23  1  0
 23 24  2  0
 15 25  2  0
 25 26  1  0
 26 27  2  0
  8  6  1  0
 27  9  1  0
 26 12  1  0
 24 19  1  0
M  END
