CVD-0004035|dock_bobby27042020.14|mol2|35|dock2
     RDKit          3D

 24 27  0  0  0  0  0  0  0  0999 V2000
    5.4880   -0.4093   19.0691 C   0  0  0  0  0  0  0  0  0  0  0  0
    6.6750    0.0450   19.8727 C   0  0  0  0  0  0  0  0  0  0  0  0
    6.8488    1.4206   20.1693 C   0  0  0  0  0  0  0  0  0  0  0  0
    7.9054    1.8620   20.8765 C   0  0  0  0  0  0  0  0  0  0  0  0
    8.8576    0.9655   21.3306 N   0  0  0  0  0  0  0  0  0  0  0  0
   10.0278    1.1321   22.0777 C   0  0  0  0  0  0  0  0  0  0  0  0
   10.5446   -0.1470   22.2154 C   0  0  0  0  0  0  0  0  0  0  0  0
    9.7271   -1.0750   21.5997 N   0  0  0  0  0  0  0  0  0  0  0  0
    8.7237   -0.3903   21.0683 C   0  0  0  0  0  0  0  0  0  0  0  0
    7.6114   -0.8377   20.3221 C   0  0  0  0  0  0  0  0  0  0  0  0
   11.7623   -0.6789   22.8655 C   0  0  0  0  0  0  0  0  0  0  0  0
   12.3117   -0.1177   24.0145 C   0  0  0  0  0  0  0  0  0  0  0  0
   13.4292   -0.6695   24.6155 C   0  0  0  0  0  0  0  0  0  0  0  0
   14.0076   -1.7646   24.0353 C   0  0  0  0  0  0  0  0  0  0  0  0
   15.1060   -2.3111   24.6231 F   0  0  0  0  0  0  0  0  0  0  0  0
   13.5273   -2.3313   22.8873 C   0  0  0  0  0  0  0  0  0  0  0  0
   12.4005   -1.7799   22.3040 C   0  0  0  0  0  0  0  0  0  0  0  0
   10.4925    2.4550   22.5660 C   0  0  0  0  0  0  0  0  0  0  0  0
    9.6036    3.3508   23.1492 C   0  0  0  0  0  0  0  0  0  0  0  0
   10.0760    4.5730   23.5818 C   0  0  0  0  0  0  0  0  0  0  0  0
   11.3532    4.9577   23.4734 N   0  0  0  0  0  0  0  0  0  0  0  0
   12.2239    4.0997   22.9127 C   0  0  0  0  0  0  0  0  0  0  0  0
   13.5028    4.5022   22.8128 N   0  0  0  0  0  0  0  0  0  0  0  0
   11.8234    2.8448   22.4531 C   0  0  0  0  0  0  0  0  0  0  0  0
  1  2  1  0
  2  3  1  0
  3  4  2  0
  4  5  1  0
  5  6  1  0
  6  7  2  0
  7  8  1  0
  8  9  2  0
  9 10  1  0
  7 11  1  0
 11 12  2  0
 12 13  1  0
 13 14  2  0
 14 15  1  0
 14 16  1  0
 16 17  2  0
  6 18  1  0
 18 19  2  0
 19 20  1  0
 20 21  2  0
 21 22  1  0
 22 23  1  0
 22 24  2  0
 10  2  2  0
 17 11  1  0
 24 18  1  0
  9  5  1  0
M  END
