CVD-0000466|dock_bobby27042020.84|mol2|14|dock2
     RDKit          3D

 22 23  0  0  0  0  0  0  0  0999 V2000
   11.0577    6.5727   25.1715 C   0  0  0  0  0  0  0  0  0  0  0  0
   11.4974    6.0572   23.8327 C   0  0  0  0  0  0  0  0  0  0  0  0
   10.9338    6.3857   22.7934 O   0  0  0  0  0  0  0  0  0  0  0  0
   12.5476    5.2338   23.8362 N   0  0  0  0  0  0  0  0  0  0  0  0
   13.1030    4.6649   22.6167 C   0  0  0  0  0  0  0  0  0  0  0  0
   13.2706    3.1619   22.7193 C   0  0  0  0  0  0  0  0  0  0  0  0
   11.9906    2.4123   22.4926 C   0  0  0  0  0  0  0  0  0  0  0  0
   10.7318    2.9307   22.4041 C   0  0  0  0  0  0  0  0  0  0  0  0
    9.8178    1.9344   22.1930 N   0  0  0  0  0  0  0  0  0  0  0  0
   10.4847    0.7353   22.1410 C   0  0  0  0  0  0  0  0  0  0  0  0
    9.9823   -0.5544   21.9460 C   0  0  0  0  0  0  0  0  0  0  0  0
    8.5070   -0.8209   21.7450 C   0  0  0  0  0  0  0  0  0  0  0  0
    8.0593   -0.5721   20.3159 C   0  0  0  0  0  0  0  0  0  0  0  0
    6.6440   -0.9229   20.1481 N   0  0  0  0  0  0  0  0  0  0  0  0
    6.0419   -1.1063   18.6736 S   0  0  0  0  0  0  0  0  0  0  0  0
    4.9903    0.2576   18.3560 C   0  0  0  0  0  0  0  0  0  0  0  0
    7.1414   -1.0410   17.7610 O   0  0  0  0  0  0  0  0  0  0  0  0
    5.2397   -2.2903   18.6928 O   0  0  0  0  0  0  0  0  0  0  0  0
   10.8986   -1.6023   21.9367 C   0  0  0  0  0  0  0  0  0  0  0  0
   12.2545   -1.3715   22.1164 C   0  0  0  0  0  0  0  0  0  0  0  0
   12.7379   -0.0859   22.3101 C   0  0  0  0  0  0  0  0  0  0  0  0
   11.8552    0.9934   22.3251 C   0  0  0  0  0  0  0  0  0  0  0  0
  1  2  1  0
  2  3  2  0
  2  4  1  0
  4  5  1  0
  5  6  1  0
  6  7  1  0
  7  8  2  0
  8  9  1  0
  9 10  1  0
 10 11  2  0
 11 12  1  0
 12 13  1  0
 13 14  1  0
 14 15  1  0
 15 16  1  0
 15 17  2  0
 15 18  2  0
 11 19  1  0
 19 20  2  0
 20 21  1  0
 21 22  2  0
 22  7  1  0
 22 10  1  0
M  END
