CVD-0001450|dock_bobby27042020.67|mol2|8|dock2
     RDKit          3D

 23 24  0  0  0  0  0  0  0  0999 V2000
    5.7732   -1.5492   18.8523 C   0  0  0  0  0  0  0  0  0  0  0  0
    5.9508   -2.0535   20.2551 C   0  0  0  0  0  0  0  0  0  0  0  0
    5.1884   -2.9043   20.7001 O   0  0  0  0  0  0  0  0  0  0  0  0
    6.9502   -1.5514   21.0303 N   0  0  0  0  0  0  0  0  0  0  0  0
    7.8911   -0.5354   20.5534 C   0  0  0  0  0  0  0  0  0  0  0  0
    7.9091    0.6541   21.4952 C   0  0  0  0  0  0  0  0  0  0  0  0
    8.2714    0.2240   22.8489 N   0  0  0  0  0  0  0  0  0  0  0  0
    8.3291    1.3740   23.7534 C   0  0  0  0  0  0  0  0  0  0  0  0
    9.2648    2.4650   23.2640 C   0  0  0  0  0  0  0  0  0  0  0  0
    8.8299    3.5662   22.9815 O   0  0  0  0  0  0  0  0  0  0  0  0
   10.7195    2.1625   23.1269 C   0  0  0  0  0  0  0  0  0  0  0  0
   11.5920    3.1465   22.6759 C   0  0  0  0  0  0  0  0  0  0  0  0
   12.9434    2.8769   22.5445 C   0  0  0  0  0  0  0  0  0  0  0  0
   13.4338    1.6222   22.8632 C   0  0  0  0  0  0  0  0  0  0  0  0
   12.5814    0.6277   23.3157 C   0  0  0  0  0  0  0  0  0  0  0  0
   13.1115   -0.7379   23.6593 C   0  0  0  0  0  0  0  0  0  0  0  0
   13.1724   -1.8162   22.2443 S   0  0  0  0  0  0  0  0  0  0  0  0
   11.6831   -1.9783   21.6785 N   0  0  0  0  0  0  0  0  0  0  0  0
   13.9470   -1.1605   21.2295 O   0  0  0  0  0  0  0  0  0  0  0  0
   13.6010   -3.1081   22.6986 O   0  0  0  0  0  0  0  0  0  0  0  0
   11.2263    0.9054   23.4435 C   0  0  0  0  0  0  0  0  0  0  0  0
    7.2880   -0.7480   23.3194 C   0  0  0  0  0  0  0  0  0  0  0  0
    7.2502   -1.9599   22.4061 C   0  0  0  0  0  0  0  0  0  0  0  0
  1  2  1  0
  2  3  2  0
  2  4  1  0
  4  5  1  0
  5  6  1  0
  6  7  1  0
  7  8  1  0
  8  9  1  0
  9 10  2  0
  9 11  1  0
 11 12  2  0
 12 13  1  0
 13 14  2  0
 14 15  1  0
 15 16  1  0
 16 17  1  0
 17 18  1  0
 17 19  2  0
 17 20  2  0
 15 21  2  0
  7 22  1  0
 22 23  1  0
 23  4  1  0
 21 11  1  0
M  END
