CVD-0000965|dock_bobby27042020.68|mol2|34|dock3
     RDKit          3D

 28 31  0  0  0  0  0  0  0  0999 V2000
   14.0132   -1.9815   22.4633 C   0  0  0  0  0  0  0  0  0  0  0  0
   13.1124   -1.2459   23.4124 C   0  0  0  0  0  0  0  0  0  0  0  0
   13.5116   -0.9527   24.5342 O   0  0  0  0  0  0  0  0  0  0  0  0
   11.8515   -0.9297   23.0212 N   0  0  0  0  0  0  0  0  0  0  0  0
   11.2421   -1.2457   21.7275 C   0  0  0  0  0  0  0  0  0  0  0  0
    9.9660   -2.0431   21.9234 C   0  0  0  0  0  0  0  0  0  0  0  0
    9.0224   -1.2936   22.7580 N   0  0  0  0  0  0  0  0  0  0  0  0
    9.6355   -1.0385   24.0589 C   0  0  0  0  0  0  0  0  0  0  0  0
   10.9113   -0.2311   23.9032 C   0  0  0  0  0  0  0  0  0  0  0  0
   10.5494    1.1473   23.3866 C   0  0  0  0  0  0  0  0  0  0  0  0
    9.2387    1.4591   23.0646 C   0  0  0  0  0  0  0  0  0  0  0  0
    8.9187    2.7199   22.5965 C   0  0  0  0  0  0  0  0  0  0  0  0
    9.9023    3.6832   22.4481 C   0  0  0  0  0  0  0  0  0  0  0  0
   11.2278    3.3953   22.7648 C   0  0  0  0  0  0  0  0  0  0  0  0
   11.5292    2.1163   23.2314 C   0  0  0  0  0  0  0  0  0  0  0  0
   12.2388    4.4092   22.6047 N   0  0  0  0  0  0  0  0  0  0  0  0
   12.4995    5.4002   23.6515 C   0  0  0  0  0  0  0  0  0  0  0  0
   13.6357    6.2313   23.1078 C   0  0  0  0  0  0  0  0  0  0  0  0
   13.8515    5.8081   21.6768 C   0  0  0  0  0  0  0  0  0  0  0  0
   12.9675    4.6169   21.4583 C   0  0  0  0  0  0  0  0  0  0  0  0
   12.8643    3.9182   20.4590 O   0  0  0  0  0  0  0  0  0  0  0  0
    7.6065   -1.6747   22.6939 C   0  0  0  0  0  0  0  0  0  0  0  0
    6.8465   -1.0369   23.6721 O   0  0  0  0  0  0  0  0  0  0  0  0
    7.0132   -1.4268   21.3420 C   0  0  0  0  0  0  0  0  0  0  0  0
    6.2493   -2.3169   20.5959 C   0  0  0  0  0  0  0  0  0  0  0  0
    5.8518   -1.7413   19.3648 C   0  0  0  0  0  0  0  0  0  0  0  0
    6.2909   -0.4831   19.1938 C   0  0  0  0  0  0  0  0  0  0  0  0
    7.2095    0.0602   20.5254 S   0  0  0  0  0  0  0  0  0  0  0  0
  1  2  1  0
  2  3  2  0
  2  4  1  0
  4  5  1  0
  5  6  1  0
  6  7  1  0
  7  8  1  0
  8  9  1  0
  9 10  1  0
 10 11  2  0
 11 12  1  0
 12 13  2  0
 13 14  1  0
 14 15  2  0
 14 16  1  0
 16 17  1  0
 17 18  1  0
 18 19  1  0
 19 20  1  0
 20 21  2  0
  7 22  1  0
 22 23  1  0
 22 24  1  0
 24 25  2  0
 25 26  1  0
 26 27  2  0
 27 28  1  0
  9  4  1  0
 15 10  1  0
 20 16  1  0
 28 24  1  0
M  END
