CVD-0000159|dock_bobby27042020.99|mol2|29|dock1
     RDKit          3D

 18 18  0  0  0  0  0  0  0  0999 V2000
   13.9500   -2.5000   24.5484 C   0  0  0  0  0  0  0  0  0  0  0  0
   12.7621   -1.6874   24.9586 C   0  0  0  0  0  0  0  0  0  0  0  0
   12.5363   -0.5773   24.0475 N   0  0  0  0  0  0  0  0  0  0  0  0
   11.5239   -0.5466   23.1149 C   0  0  0  0  0  0  0  0  0  0  0  0
   11.0470   -1.7267   22.5428 C   0  0  0  0  0  0  0  0  0  0  0  0
   10.0313   -1.6881   21.6043 C   0  0  0  0  0  0  0  0  0  0  0  0
    9.4749   -0.4744   21.2218 C   0  0  0  0  0  0  0  0  0  0  0  0
    9.9457    0.7046   21.7902 C   0  0  0  0  0  0  0  0  0  0  0  0
   10.9649    0.6857   22.7359 C   0  0  0  0  0  0  0  0  0  0  0  0
   11.4216    2.0116   23.3048 C   0  0  0  0  0  0  0  0  0  0  0  0
   12.5950    2.5998   22.5421 C   0  0  0  0  0  0  0  0  0  0  0  0
   13.2495    3.6517   23.3294 N   0  0  0  0  0  0  0  0  0  0  0  0
   12.9144    5.1907   23.0301 S   0  0  0  0  0  0  0  0  0  0  0  0
   14.0948    5.7765   21.8766 C   0  0  0  0  0  0  0  0  0  0  0  0
   11.6282    5.2257   22.4054 O   0  0  0  0  0  0  0  0  0  0  0  0
   13.0985    5.9056   24.2553 O   0  0  0  0  0  0  0  0  0  0  0  0
    8.4167   -0.4310   20.2429 C   0  0  0  0  0  0  0  0  0  0  0  0
    7.5935   -0.3706   19.4534 N   0  0  0  0  0  0  0  0  0  0  0  0
  1  2  1  0
  2  3  1  0
  3  4  1  0
  4  5  2  0
  5  6  1  0
  6  7  2  0
  7  8  1  0
  8  9  2  0
  9 10  1  0
 10 11  1  0
 11 12  1  0
 12 13  1  0
 13 14  1  0
 13 15  2  0
 13 16  2  0
  7 17  1  0
 17 18  3  0
  9  4  1  0
M  END
