CVD-0002748|dock_bobby27042020.47|mol2|27|dock1
     RDKit          3D

 25 27  0  0  0  0  0  0  0  0999 V2000
   14.0081   -0.8623   21.6514 C   0  0  0  0  0  0  0  0  0  0  0  0
   12.9465   -0.5943   22.6903 C   0  0  0  0  0  0  0  0  0  0  0  0
   13.1229    0.3919   23.6477 C   0  0  0  0  0  0  0  0  0  0  0  0
   12.1447    0.6367   24.5960 C   0  0  0  0  0  0  0  0  0  0  0  0
   10.9774   -0.1068   24.5940 C   0  0  0  0  0  0  0  0  0  0  0  0
   10.7742   -1.1016   23.6474 C   0  0  0  0  0  0  0  0  0  0  0  0
   11.7685   -1.3267   22.7045 C   0  0  0  0  0  0  0  0  0  0  0  0
    9.4831   -1.9168   23.6483 C   0  0  0  0  0  0  0  0  0  0  0  0
    9.0656   -2.2996   22.2792 N   0  0  0  0  0  0  0  0  0  0  0  0
    8.7495   -1.1127   21.4676 C   0  0  0  0  0  0  0  0  0  0  0  0
    8.3731   -1.5085   20.0635 C   0  0  0  0  0  0  0  0  0  0  0  0
    7.2466   -2.4469   20.0744 N   0  0  0  0  0  0  0  0  0  0  0  0
    7.4939   -3.6082   20.9270 C   0  0  0  0  0  0  0  0  0  0  0  0
    7.8730   -3.1476   22.3142 C   0  0  0  0  0  0  0  0  0  0  0  0
    6.1427   -2.3815   19.2931 C   0  0  0  0  0  0  0  0  0  0  0  0
    5.2475   -3.2125   19.3818 O   0  0  0  0  0  0  0  0  0  0  0  0
    6.0333   -1.2515   18.2871 C   0  0  0  0  0  0  0  0  0  0  0  0
    5.7708    0.3016   19.0909 Cl  0  0  0  0  0  0  0  0  0  0  0  0
    9.5600   -3.1398   24.5578 C   0  0  0  0  0  0  0  0  0  0  0  0
   10.6368   -4.0096   24.4571 C   0  0  0  0  0  0  0  0  0  0  0  0
   10.7262   -5.1272   25.2698 C   0  0  0  0  0  0  0  0  0  0  0  0
    9.7356   -5.3939   26.1994 C   0  0  0  0  0  0  0  0  0  0  0  0
    8.6680   -4.5288   26.2952 C   0  0  0  0  0  0  0  0  0  0  0  0
    7.4131   -4.8503   27.4589 Cl  0  0  0  0  0  0  0  0  0  0  0  0
    8.5682   -3.4120   25.4907 C   0  0  0  0  0  0  0  0  0  0  0  0
  1  2  1  0
  2  3  2  0
  3  4  1  0
  4  5  2  0
  5  6  1  0
  6  7  2  0
  8  6  1  0
  8  9  1  0
  9 10  1  0
 10 11  1  0
 11 12  1  0
 12 13  1  0
 13 14  1  0
 12 15  1  0
 15 16  2  0
 15 17  1  0
 17 18  1  0
  8 19  1  0
 19 20  2  0
 20 21  1  0
 21 22  2  0
 22 23  1  0
 23 24  1  0
 23 25  2  0
  7  2  1  0
 14  9  1  0
 25 19  1  0
M  END
