CVD-0001037|dock_bobby27042020.11|mol2|5|dock2
     RDKit          3D

 29 32  0  0  0  0  0  0  0  0999 V2000
    6.0925    0.3150   18.5525 C   0  0  0  0  0  0  0  0  0  0  0  0
    6.2929   -1.1236   18.5231 N   0  0  0  0  0  0  0  0  0  0  0  0
    5.5942   -1.8585   17.4823 C   0  0  0  0  0  0  0  0  0  0  0  0
    6.9855   -1.7756   19.5006 C   0  0  0  0  0  0  0  0  0  0  0  0
    7.8646   -0.9985   20.1537 N   0  0  0  0  0  0  0  0  0  0  0  0
    8.5936   -1.5679   21.1312 C   0  0  0  0  0  0  0  0  0  0  0  0
    9.5056   -0.7700   21.8078 N   0  0  0  0  0  0  0  0  0  0  0  0
    9.6931    0.5720   21.7735 C   0  0  0  0  0  0  0  0  0  0  0  0
    9.0413    1.3581   21.0905 O   0  0  0  0  0  0  0  0  0  0  0  0
   10.8097    1.0558   22.6742 C   0  0  0  0  0  0  0  0  0  0  0  0
   12.1704    0.8093   22.0345 C   0  0  0  0  0  0  0  0  0  0  0  0
   13.2795    1.3313   22.9245 C   0  0  0  0  0  0  0  0  0  0  0  0
   13.0810    2.7543   23.1862 N   0  0  0  0  0  0  0  0  0  0  0  0
   11.8115    3.0341   23.8485 C   0  0  0  0  0  0  0  0  0  0  0  0
   10.6540    2.5426   22.9858 C   0  0  0  0  0  0  0  0  0  0  0  0
   14.0361    3.7112   23.1156 C   0  0  0  0  0  0  0  0  0  0  0  0
   15.1648    3.3961   22.7795 O   0  0  0  0  0  0  0  0  0  0  0  0
   13.8297    5.1681   23.4341 C   0  0  0  0  0  0  0  0  0  0  0  0
   13.4043    5.6707   24.6646 C   0  0  0  0  0  0  0  0  0  0  0  0
   13.2779    7.0348   24.8701 C   0  0  0  0  0  0  0  0  0  0  0  0
   13.5407    7.9224   23.8506 C   0  0  0  0  0  0  0  0  0  0  0  0
   13.9291    7.4449   22.6192 C   0  0  0  0  0  0  0  0  0  0  0  0
   14.0707    6.0831   22.4127 C   0  0  0  0  0  0  0  0  0  0  0  0
    8.5364   -2.8462   21.5332 N   0  0  0  0  0  0  0  0  0  0  0  0
    7.6494   -3.5912   20.8687 C   0  0  0  0  0  0  0  0  0  0  0  0
    7.3525   -4.9109   21.0383 N   0  0  0  0  0  0  0  0  0  0  0  0
    6.3940   -5.2001   20.1339 C   0  0  0  0  0  0  0  0  0  0  0  0
    6.0386   -4.1765   19.3845 N   0  0  0  0  0  0  0  0  0  0  0  0
    6.8368   -3.1397   19.8448 C   0  0  0  0  0  0  0  0  0  0  0  0
  1  2  1  0
  2  3  1  0
  2  4  1  0
  4  5  2  0
  5  6  1  0
  6  7  1  0
  7  8  1  0
  8  9  2  0
  8 10  1  0
 10 11  1  0
 11 12  1  0
 12 13  1  0
 13 14  1  0
 14 15  1  0
 13 16  1  0
 16 17  2  0
 16 18  1  0
 18 19  2  0
 19 20  1  0
 20 21  2  0
 21 22  1  0
 22 23  2  0
  6 24  2  0
 24 25  1  0
 25 26  1  0
 26 27  1  0
 27 28  2  0
 28 29  1  0
 29  4  1  0
 15 10  1  0
 23 18  1  0
 29 25  2  0
M  END
