CVD-0003734|dock_bobby27042020.1|mol2|10|dock2
     RDKit          3D

 25 27  0  0  0  0  0  0  0  0999 V2000
   14.4817    0.6329   21.9721 O   0  0  0  0  0  0  0  0  0  0  0  0
   13.2679    0.0748   22.4827 C   0  0  0  0  0  0  0  0  0  0  0  0
   12.1231    1.0679   22.4277 C   0  0  0  0  0  0  0  0  0  0  0  0
   10.8048    0.4769   22.9341 C   0  0  0  0  0  0  0  0  0  0  0  0
   10.4708   -0.7818   22.1399 C   0  0  0  0  0  0  0  0  0  0  0  0
   11.5858   -1.8103   22.2450 C   0  0  0  0  0  0  0  0  0  0  0  0
   12.8937   -1.1949   21.7342 C   0  0  0  0  0  0  0  0  0  0  0  0
    9.1762   -1.3585   22.5617 N   0  0  0  0  0  0  0  0  0  0  0  0
    8.4224   -2.0723   21.5124 C   0  0  0  0  0  0  0  0  0  0  0  0
    7.9762   -1.2729   20.2912 C   0  0  0  0  0  0  0  0  0  0  0  0
    6.8773   -2.0196   19.5075 C   0  0  0  0  0  0  0  0  0  0  0  0
    6.3579   -1.2122   18.3193 C   0  0  0  0  0  0  0  0  0  0  0  0
    5.8881    0.1708   18.7515 C   0  0  0  0  0  0  0  0  0  0  0  0
    6.9864    0.9159   19.4965 C   0  0  0  0  0  0  0  0  0  0  0  0
    7.4717    0.1203   20.7041 C   0  0  0  0  0  0  0  0  0  0  0  0
    9.1305   -2.0453   23.8707 C   0  0  0  0  0  0  0  0  0  0  0  0
    7.8638   -1.7041   24.6344 C   0  0  0  0  0  0  0  0  0  0  0  0
    7.8380   -2.4649   25.9539 C   0  0  0  0  0  0  0  0  0  0  0  0
    7.9831   -3.9536   25.7127 C   0  0  0  0  0  0  0  0  0  0  0  0
    9.2132   -4.2257   24.9565 N   0  0  0  0  0  0  0  0  0  0  0  0
    9.2813   -3.5439   23.6604 C   0  0  0  0  0  0  0  0  0  0  0  0
   10.0982   -5.2064   25.2431 C   0  0  0  0  0  0  0  0  0  0  0  0
   11.1110   -5.3578   24.5714 O   0  0  0  0  0  0  0  0  0  0  0  0
    9.8038   -6.1244   26.4140 C   0  0  0  0  0  0  0  0  0  0  0  0
   10.0474   -5.2899   27.9539 Cl  0  0  0  0  0  0  0  0  0  0  0  0
  1  2  1  0
  2  3  1  0
  3  4  1  0
  4  5  1  0
  5  6  1  0
  6  7  1  0
  5  8  1  0
  8  9  1  0
  9 10  1  0
 10 11  1  0
 11 12  1  0
 12 13  1  0
 13 14  1  0
 14 15  1  0
  8 16  1  0
 16 17  1  0
 17 18  1  0
 18 19  1  0
 19 20  1  0
 20 21  1  0
 20 22  1  0
 22 23  2  0
 22 24  1  0
 24 25  1  0
  7  2  1  0
 15 10  1  0
 21 16  1  0
M  END
