CVD-0002266|dock_bobby27042020.49|mol2|24|dock1
     RDKit          3D

 26 28  0  0  0  0  0  0  0  0999 V2000
   14.0905    6.0543   21.9748 C   0  0  0  0  0  0  0  0  0  0  0  0
   13.4151    4.8611   22.5643 C   0  0  0  0  0  0  0  0  0  0  0  0
   13.4629    4.5540   23.8171 N   0  0  0  0  0  0  0  0  0  0  0  0
   12.7586    3.3891   24.1173 N   0  0  0  0  0  0  0  0  0  0  0  0
   12.2106    2.8565   23.0780 C   0  0  0  0  0  0  0  0  0  0  0  0
   11.3989    1.5979   23.1597 C   0  0  0  0  0  0  0  0  0  0  0  0
   12.2366    0.4141   23.4094 N   0  0  0  0  0  0  0  0  0  0  0  0
   12.2672    0.1702   24.8461 C   0  0  0  0  0  0  0  0  0  0  0  0
   13.4090   -0.7335   25.2779 C   0  0  0  0  0  0  0  0  0  0  0  0
   13.4731   -1.9286   24.4004 C   0  0  0  0  0  0  0  0  0  0  0  0
   12.8726   -1.9808   23.2273 C   0  0  0  0  0  0  0  0  0  0  0  0
   12.9995   -3.1066   22.4679 F   0  0  0  0  0  0  0  0  0  0  0  0
   12.0663   -0.8517   22.6985 C   0  0  0  0  0  0  0  0  0  0  0  0
   10.3805   -1.3979   22.5871 S   0  0  0  0  0  0  0  0  0  0  0  0
    9.6348   -0.6003   23.5182 O   0  0  0  0  0  0  0  0  0  0  0  0
   10.3971   -2.8205   22.7748 O   0  0  0  0  0  0  0  0  0  0  0  0
    9.7879   -1.0927   21.1173 N   0  0  0  0  0  0  0  0  0  0  0  0
    8.6233   -0.2117   20.9675 C   0  0  0  0  0  0  0  0  0  0  0  0
    7.6225   -0.8078   19.9940 C   0  0  0  0  0  0  0  0  0  0  0  0
    6.4522    0.1074   19.7263 C   0  0  0  0  0  0  0  0  0  0  0  0
    6.4070    0.8850   18.5794 C   0  0  0  0  0  0  0  0  0  0  0  0
    5.3320    1.7223   18.3318 C   0  0  0  0  0  0  0  0  0  0  0  0
    4.2876    1.7915   19.2285 C   0  0  0  0  0  0  0  0  0  0  0  0
    4.3186    1.0230   20.3721 C   0  0  0  0  0  0  0  0  0  0  0  0
    5.3941    0.1860   20.6188 C   0  0  0  0  0  0  0  0  0  0  0  0
   12.5015    3.7398   21.6091 S   0  0  0  0  0  0  0  0  0  0  0  0
  1  2  1  0
  2  3  2  0
  3  4  1  0
  4  5  2  0
  5  6  1  0
  6  7  1  0
  7  8  1  0
  8  9  1  0
  9 10  1  0
 10 11  2  0
 11 12  1  0
 11 13  1  0
 13 14  1  0
 14 15  2  0
 14 16  2  0
 14 17  1  0
 17 18  1  0
 18 19  1  0
 19 20  1  0
 20 21  2  0
 21 22  1  0
 22 23  2  0
 23 24  1  0
 24 25  2  0
  5 26  1  0
 26  2  1  0
 13  7  1  0
 25 20  1  0
M  END
