CVD-0003368|dock_bobby27042020.45|mol2|30|dock1
     RDKit          3D

 34 37  0  0  0  0  0  0  0  0999 V2000
   11.8374    4.5762   22.5763 C   0  0  0  0  0  0  0  0  0  0  0  0
   11.9809    3.0764   22.6191 C   0  0  0  0  0  0  0  0  0  0  0  0
   13.2637    2.5476   22.7392 C   0  0  0  0  0  0  0  0  0  0  0  0
   13.4984    1.1891   22.7892 C   0  0  0  0  0  0  0  0  0  0  0  0
   12.4184    0.3311   22.7166 C   0  0  0  0  0  0  0  0  0  0  0  0
   11.1249    0.8163   22.5998 C   0  0  0  0  0  0  0  0  0  0  0  0
   10.8848    2.1924   22.5488 C   0  0  0  0  0  0  0  0  0  0  0  0
    9.5773    2.7436   22.4286 N   0  0  0  0  0  0  0  0  0  0  0  0
    8.3756    2.2704   22.8434 C   0  0  0  0  0  0  0  0  0  0  0  0
    8.1772    1.2152   23.4357 O   0  0  0  0  0  0  0  0  0  0  0  0
    7.2280    3.1900   22.5024 C   0  0  0  0  0  0  0  0  0  0  0  0
    5.8757    2.5729   22.8163 C   0  0  0  0  0  0  0  0  0  0  0  0
    5.7017    1.2558   22.1920 N   0  0  0  0  0  0  0  0  0  0  0  0
    5.5314    1.0090   20.8322 C   0  0  0  0  0  0  0  0  0  0  0  0
    5.4704    1.8475   19.7258 C   0  0  0  0  0  0  0  0  0  0  0  0
    5.2913    1.2671   18.4793 C   0  0  0  0  0  0  0  0  0  0  0  0
    5.1765   -0.1026   18.3367 C   0  0  0  0  0  0  0  0  0  0  0  0
    5.2352   -0.9462   19.4355 C   0  0  0  0  0  0  0  0  0  0  0  0
    5.4132   -0.3711   20.6877 C   0  0  0  0  0  0  0  0  0  0  0  0
    5.5091   -0.9260   21.9604 N   0  0  0  0  0  0  0  0  0  0  0  0
    5.4568   -2.3517   22.2704 C   0  0  0  0  0  0  0  0  0  0  0  0
    5.6952    0.0668   22.8957 C   0  0  0  0  0  0  0  0  0  0  0  0
    5.8276   -0.0722   24.1012 O   0  0  0  0  0  0  0  0  0  0  0  0
   12.6776   -1.4090   22.7829 S   0  0  0  0  0  0  0  0  0  0  0  0
   13.0316   -1.8571   21.4708 O   0  0  0  0  0  0  0  0  0  0  0  0
   13.5488   -1.6851   23.8840 O   0  0  0  0  0  0  0  0  0  0  0  0
   11.2381   -2.0897   23.1417 N   0  0  0  0  0  0  0  0  0  0  0  0
   10.4680   -1.7698   24.3034 C   0  0  0  0  0  0  0  0  0  0  0  0
   10.9186   -0.8287   25.2228 C   0  0  0  0  0  0  0  0  0  0  0  0
   10.1563   -0.5343   26.3409 C   0  0  0  0  0  0  0  0  0  0  0  0
    8.9451   -1.1708   26.5526 C   0  0  0  0  0  0  0  0  0  0  0  0
    8.5115   -2.1005   25.6335 C   0  0  0  0  0  0  0  0  0  0  0  0
    6.9892   -2.9054   25.8923 Cl  0  0  0  0  0  0  0  0  0  0  0  0
    9.2522   -2.4115   24.5116 C   0  0  0  0  0  0  0  0  0  0  0  0
  1  2  1  0
  2  3  2  0
  3  4  1  0
  4  5  2  0
  5  6  1  0
  6  7  2  0
  7  8  1  0
  8  9  1  0
  9 10  2  0
  9 11  1  0
 11 12  1  0
 12 13  1  0
 13 14  1  0
 14 15  2  0
 15 16  1  0
 16 17  2  0
 17 18  1  0
 18 19  2  0
 19 20  1  0
 20 21  1  0
 20 22  1  0
 22 23  2  0
  5 24  1  0
 24 25  2  0
 24 26  2  0
 24 27  1  0
 27 28  1  0
 28 29  2  0
 29 30  1  0
 30 31  2  0
 31 32  1  0
 32 33  1  0
 32 34  2  0
  7  2  1  0
 22 13  1  0
 34 28  1  0
 19 14  1  0
M  END
