CVD-0000390|dock_bobby27042020.56|mol2|14|dock3
     RDKit          3D

 27 29  0  0  0  0  0  0  0  0999 V2000
    5.3464    0.0383   18.3371 C   0  0  0  0  0  0  0  0  0  0  0  0
    6.5791   -0.6395   18.6758 N   0  0  0  0  0  0  0  0  0  0  0  0
    7.1552   -0.5803   19.9159 C   0  0  0  0  0  0  0  0  0  0  0  0
    6.6051    0.1759   20.9424 C   0  0  0  0  0  0  0  0  0  0  0  0
    7.1836    0.2192   22.1497 N   0  0  0  0  0  0  0  0  0  0  0  0
    8.3043   -0.4912   22.3169 C   0  0  0  0  0  0  0  0  0  0  0  0
    8.8935   -1.2404   21.3779 N   0  0  0  0  0  0  0  0  0  0  0  0
    8.3096   -1.2673   20.2090 C   0  0  0  0  0  0  0  0  0  0  0  0
    8.8846   -2.0133   19.2536 F   0  0  0  0  0  0  0  0  0  0  0  0
    8.9000   -0.4130   23.6515 C   0  0  0  0  0  0  0  0  0  0  0  0
    7.8160   -0.2463   25.0016 S   0  0  0  0  0  0  0  0  0  0  0  0
    9.1726   -0.2269   26.0582 C   0  0  0  0  0  0  0  0  0  0  0  0
    8.9494   -0.1050   27.3771 F   0  0  0  0  0  0  0  0  0  0  0  0
   10.3547   -0.3381   25.4518 C   0  0  0  0  0  0  0  0  0  0  0  0
   10.2049   -0.4485   24.0458 C   0  0  0  0  0  0  0  0  0  0  0  0
   11.3574   -0.5833   23.0901 C   0  0  0  0  0  0  0  0  0  0  0  0
   12.1079   -1.9361   23.2097 C   0  0  0  0  0  0  0  0  0  0  0  0
   13.5955   -1.6169   23.1196 C   0  0  0  0  0  0  0  0  0  0  0  0
   13.6728   -0.1652   22.6492 C   0  0  0  0  0  0  0  0  0  0  0  0
   12.4459    0.4839   23.3062 C   0  0  0  0  0  0  0  0  0  0  0  0
   12.1103    1.8712   22.7848 C   0  0  0  0  0  0  0  0  0  0  0  0
   10.9742    2.0923   22.3740 O   0  0  0  0  0  0  0  0  0  0  0  0
   13.0408    2.8778   22.7651 N   0  0  0  0  0  0  0  0  0  0  0  0
   13.0167    4.2001   22.3613 C   0  0  0  0  0  0  0  0  0  0  0  0
   12.0303    4.7384   21.9056 O   0  0  0  0  0  0  0  0  0  0  0  0
   14.1768    4.8457   22.5196 O   0  0  0  0  0  0  0  0  0  0  0  0
   14.1566    6.2571   22.2003 C   0  0  0  0  0  0  0  0  0  0  0  0
  1  2  1  0
  2  3  1  0
  3  4  2  0
  4  5  1  0
  5  6  2  0
  6  7  1  0
  7  8  2  0
  8  9  1  0
  6 10  1  0
 10 11  1  0
 11 12  1  0
 12 13  1  0
 12 14  2  0
 14 15  1  0
 16 15  1  0
 16 17  1  0
 17 18  1  0
 18 19  1  0
 19 20  1  0
 20 21  1  0
 21 22  2  0
 21 23  1  0
 23 24  1  0
 24 25  2  0
 24 26  1  0
 26 27  1  0
  8  3  1  0
 15 10  2  0
 20 16  1  0
M  END
