CVD-0001714|dock_bobby27042020.8|mol2|36|dock3
     RDKit          3D

 20 22  0  0  0  0  0  0  0  0999 V2000
    4.7391    1.4309   19.3994 F   0  0  0  0  0  0  0  0  0  0  0  0
    5.5540    0.8107   18.5028 C   0  0  0  0  0  0  0  0  0  0  0  0
    5.6242    1.7895   17.0524 Cl  0  0  0  0  0  0  0  0  0  0  0  0
    6.9367    0.5606   19.0842 C   0  0  0  0  0  0  0  0  0  0  0  0
    7.9140    0.9513   18.4752 O   0  0  0  0  0  0  0  0  0  0  0  0
    7.0731   -0.0875   20.2611 N   0  0  0  0  0  0  0  0  0  0  0  0
    5.9626   -0.6125   21.0673 C   0  0  0  0  0  0  0  0  0  0  0  0
    6.2846   -2.0125   21.5489 C   0  0  0  0  0  0  0  0  0  0  0  0
    7.5947   -2.0228   22.3262 C   0  0  0  0  0  0  0  0  0  0  0  0
    8.7029   -1.4366   21.4707 C   0  0  0  0  0  0  0  0  0  0  0  0
    8.3567   -0.0436   20.9680 C   0  0  0  0  0  0  0  0  0  0  0  0
   10.0053   -1.3887   22.2144 C   0  0  0  0  0  0  0  0  0  0  0  0
   10.0929   -1.0399   23.4593 N   0  0  0  0  0  0  0  0  0  0  0  0
   11.4133   -1.0876   23.8997 C   0  0  0  0  0  0  0  0  0  0  0  0
   11.8909   -0.7792   25.1749 C   0  0  0  0  0  0  0  0  0  0  0  0
   13.2467   -0.8807   25.4465 C   0  0  0  0  0  0  0  0  0  0  0  0
   14.1381   -1.2834   24.4741 C   0  0  0  0  0  0  0  0  0  0  0  0
   13.6896   -1.5947   23.2025 C   0  0  0  0  0  0  0  0  0  0  0  0
   12.3298   -1.4950   22.9234 C   0  0  0  0  0  0  0  0  0  0  0  0
   11.5059   -1.8222   21.4275 S   0  0  0  0  0  0  0  0  0  0  0  0
  1  2  1  0
  2  3  1  0
  2  4  1  0
  4  5  2  0
  4  6  1  0
  6  7  1  0
  7  8  1  0
  8  9  1  0
  9 10  1  0
 10 11  1  0
 10 12  1  0
 12 13  2  0
 13 14  1  0
 14 15  2  0
 15 16  1  0
 16 17  2  0
 17 18  1  0
 18 19  2  0
 19 20  1  0
 11  6  1  0
 20 12  1  0
 19 14  1  0
M  END
