CVD-0000744|dock_bobby27042020.12|mol2|6|dock2
     RDKit          3D

 17 18  0  0  0  0  0  0  0  0999 V2000
    8.3118   -0.5774   22.6836 O   0  0  0  0  0  0  0  0  0  0  0  0
    9.0834   -1.0482   21.8549 C   0  0  0  0  0  0  0  0  0  0  0  0
   10.3656   -1.7212   22.2970 C   0  0  0  0  0  0  0  0  0  0  0  0
   11.5000   -0.7416   22.4025 C   0  0  0  0  0  0  0  0  0  0  0  0
   12.8479   -0.9851   22.2727 C   0  0  0  0  0  0  0  0  0  0  0  0
   13.6311    0.1559   22.4299 C   0  0  0  0  0  0  0  0  0  0  0  0
   12.8974    1.2848   22.6811 C   0  0  0  0  0  0  0  0  0  0  0  0
   11.2052    0.9298   22.7242 S   0  0  0  0  0  0  0  0  0  0  0  0
   13.3679    2.6153   22.8924 C   0  0  0  0  0  0  0  0  0  0  0  0
   13.7353    3.6913   23.0215 N   0  0  0  0  0  0  0  0  0  0  0  0
    8.9000   -1.0438   20.5121 N   0  0  0  0  0  0  0  0  0  0  0  0
    7.8463   -0.5357   19.7123 C   0  0  0  0  0  0  0  0  0  0  0  0
    6.6662   -0.1392   20.3282 C   0  0  0  0  0  0  0  0  0  0  0  0
    5.6277    0.3595   19.5619 C   0  0  0  0  0  0  0  0  0  0  0  0
    5.7982    0.4479   18.1999 C   0  0  0  0  0  0  0  0  0  0  0  0
    6.9176    0.0758   17.5789 N   0  0  0  0  0  0  0  0  0  0  0  0
    7.9155   -0.4048   18.3272 C   0  0  0  0  0  0  0  0  0  0  0  0
  1  2  2  0
  2  3  1  0
  3  4  1  0
  4  5  2  0
  5  6  1  0
  6  7  2  0
  7  8  1  0
  7  9  1  0
  9 10  3  0
  2 11  1  0
 11 12  1  0
 12 13  2  0
 13 14  1  0
 14 15  2  0
 15 16  1  0
 16 17  2  0
  8  4  1  0
 17 12  1  0
M  END
