CVD-0003171|dock_bobby27042020.74|mol2|38|dock3
     RDKit          3D

 40 43  0  0  0  0  0  0  0  0999 V2000
   12.9070    4.2673   23.5598 C   0  0  0  0  0  0  0  0  0  0  0  0
   11.4933    4.7770   23.3870 C   0  0  0  0  0  0  0  0  0  0  0  0
   11.1957    6.1329   23.6132 C   0  0  0  0  0  0  0  0  0  0  0  0
   12.1358    6.9921   24.0989 O   0  0  0  0  0  0  0  0  0  0  0  0
    9.9374    6.6571   23.3481 C   0  0  0  0  0  0  0  0  0  0  0  0
    8.9361    5.8384   22.8619 C   0  0  0  0  0  0  0  0  0  0  0  0
    9.1797    4.4897   22.6774 C   0  0  0  0  0  0  0  0  0  0  0  0
   10.4304    3.9453   22.9719 C   0  0  0  0  0  0  0  0  0  0  0  0
   10.5238    2.4529   22.7994 C   0  0  0  0  0  0  0  0  0  0  0  0
   10.3346    1.9844   21.6809 O   0  0  0  0  0  0  0  0  0  0  0  0
   10.7861    1.6586   23.8506 N   0  0  0  0  0  0  0  0  0  0  0  0
   10.8048    0.2276   23.7388 C   0  0  0  0  0  0  0  0  0  0  0  0
   11.7200   -0.5108   25.1434 S   0  0  0  0  0  0  0  0  0  0  0  0
   13.1696   -1.3107   24.3524 C   0  0  0  0  0  0  0  0  0  0  0  0
   13.7781   -0.5194   23.1739 C   0  0  0  0  0  0  0  0  0  0  0  0
   13.5241   -1.0993   21.8100 C   0  0  0  0  0  0  0  0  0  0  0  0
   14.4723   -0.8388   20.9425 O   0  0  0  0  0  0  0  0  0  0  0  0
   12.5375   -1.7465   21.5357 O   0  0  0  0  0  0  0  0  0  0  0  0
   14.1167   -2.1131   25.2398 C   0  0  0  0  0  0  0  0  0  0  0  0
   13.2100   -2.8340   24.2898 C   0  0  0  0  0  0  0  0  0  0  0  0
    9.3784   -0.3275   23.6858 C   0  0  0  0  0  0  0  0  0  0  0  0
    8.9918   -0.8477   24.9591 O   0  0  0  0  0  0  0  0  0  0  0  0
    9.3082   -1.4205   22.6219 C   0  0  0  0  0  0  0  0  0  0  0  0
    8.1883   -2.3739   22.7056 N   0  0  0  0  0  0  0  0  0  0  0  0
    8.6465   -3.5728   23.4232 C   0  0  0  0  0  0  0  0  0  0  0  0
    7.5174   -4.5848   23.6278 C   0  0  0  0  0  0  0  0  0  0  0  0
    6.4804   -4.0867   24.6327 C   0  0  0  0  0  0  0  0  0  0  0  0
    5.3191   -5.0628   24.8042 C   0  0  0  0  0  0  0  0  0  0  0  0
    4.6752   -5.4114   23.4720 C   0  0  0  0  0  0  0  0  0  0  0  0
    5.7053   -5.9151   22.4760 C   0  0  0  0  0  0  0  0  0  0  0  0
    6.8575   -4.9274   22.2782 C   0  0  0  0  0  0  0  0  0  0  0  0
    6.4370   -3.6581   21.5300 C   0  0  0  0  0  0  0  0  0  0  0  0
    7.6400   -2.7143   21.3903 C   0  0  0  0  0  0  0  0  0  0  0  0
    7.2090   -1.4667   20.6255 C   0  0  0  0  0  0  0  0  0  0  0  0
    7.6111   -1.2577   19.4841 O   0  0  0  0  0  0  0  0  0  0  0  0
    6.3815   -0.6419   21.2794 N   0  0  0  0  0  0  0  0  0  0  0  0
    5.8296    0.6302   20.7628 C   0  0  0  0  0  0  0  0  0  0  0  0
    4.5335    0.9456   21.4963 C   0  0  0  0  0  0  0  0  0  0  0  0
    6.8418    1.7432   20.9941 C   0  0  0  0  0  0  0  0  0  0  0  0
    5.5571    0.4808   19.2727 C   0  0  0  0  0  0  0  0  0  0  0  0
  1  2  1  0
  2  3  2  0
  3  4  1  0
  3  5  1  0
  5  6  2  0
  6  7  1  0
  7  8  2  0
  8  9  1  0
  9 10  2  0
  9 11  1  0
 12 11  1  0
 12 13  1  0
 13 14  1  0
 14 15  1  0
 15 16  1  0
 16 17  1  0
 16 18  2  0
 14 19  1  0
 19 20  1  0
 12 21  1  0
 21 22  1  0
 21 23  1  0
 23 24  1  0
 24 25  1  0
 26 25  1  0
 26 27  1  0
 27 28  1  0
 28 29  1  0
 29 30  1  0
 31 30  1  0
 31 32  1  0
 32 33  1  0
 33 34  1  0
 34 35  2  0
 34 36  1  0
 36 37  1  0
 37 38  1  0
 37 39  1  0
 37 40  1  0
  8  2  1  0
 20 14  1  0
 33 24  1  0
 31 26  1  0
M  END
