CVD-0000264|dock_bobby27042020.42|mol2|14|dock3
     RDKit          3D

 24 27  0  0  0  0  0  0  0  0999 V2000
    9.0763    2.2357   21.4272 O   0  0  0  0  0  0  0  0  0  0  0  0
    9.8876    2.0011   22.3180 C   0  0  0  0  0  0  0  0  0  0  0  0
    9.7062    0.9682   23.1429 N   0  0  0  0  0  0  0  0  0  0  0  0
    8.5583    0.0962   23.0185 C   0  0  0  0  0  0  0  0  0  0  0  0
    8.4382   -0.4941   21.6371 C   0  0  0  0  0  0  0  0  0  0  0  0
    9.4020   -1.1743   21.1340 N   0  0  0  0  0  0  0  0  0  0  0  0
    9.0066   -1.5994   19.8225 O   0  0  0  0  0  0  0  0  0  0  0  0
    7.7575   -1.1171   19.6024 C   0  0  0  0  0  0  0  0  0  0  0  0
    6.9644   -1.2679   18.4754 C   0  0  0  0  0  0  0  0  0  0  0  0
    5.7085   -0.6810   18.4738 C   0  0  0  0  0  0  0  0  0  0  0  0
    5.2664    0.0341   19.5711 C   0  0  0  0  0  0  0  0  0  0  0  0
    6.0669    0.1798   20.6948 C   0  0  0  0  0  0  0  0  0  0  0  0
    7.3311   -0.4054   20.7090 C   0  0  0  0  0  0  0  0  0  0  0  0
   11.0996    2.8780   22.4907 C   0  0  0  0  0  0  0  0  0  0  0  0
   10.8299    4.2388   22.6698 C   0  0  0  0  0  0  0  0  0  0  0  0
   11.8495    5.1585   22.8418 C   0  0  0  0  0  0  0  0  0  0  0  0
   13.1617    4.7479   22.8435 C   0  0  0  0  0  0  0  0  0  0  0  0
   13.4652    3.4105   22.6716 C   0  0  0  0  0  0  0  0  0  0  0  0
   12.4521    2.4755   22.4899 C   0  0  0  0  0  0  0  0  0  0  0  0
   12.7138    1.1391   22.3102 O   0  0  0  0  0  0  0  0  0  0  0  0
   13.9128    0.5489   22.8339 C   0  0  0  0  0  0  0  0  0  0  0  0
   13.8398   -0.9544   22.6749 C   0  0  0  0  0  0  0  0  0  0  0  0
   12.5482   -1.2711   23.6417 C   0  0  0  0  0  0  0  0  0  0  0  0
   13.7658   -2.1213   23.6931 C   0  0  0  0  0  0  0  0  0  0  0  0
  1  2  2  0
  2  3  1  0
  3  4  1  0
  4  5  1  0
  5  6  2  0
  6  7  1  0
  7  8  1  0
  8  9  2  0
  9 10  1  0
 10 11  2  0
 11 12  1  0
 12 13  2  0
  2 14  1  0
 14 15  2  0
 15 16  1  0
 16 17  2  0
 17 18  1  0
 18 19  2  0
 19 20  1  0
 20 21  1  0
 21 22  1  0
 22 23  1  0
 23 24  1  0
 13  5  1  0
 19 14  1  0
 24 22  1  0
 13  8  1  0
M  END
