CVD-0001923|dock_bobby27042020.79|mol2|27|dock3
     RDKit          3D

 22 24  0  0  0  0  0  0  0  0999 V2000
    5.8932   -1.0573   18.5722 C   0  0  0  0  0  0  0  0  0  0  0  0
    5.4777    0.2608   19.0573 N   0  0  0  0  0  0  0  0  0  0  0  0
    5.1467    0.2934   20.5023 C   0  0  0  0  0  0  0  0  0  0  0  0
    4.4432    1.6070   20.8795 C   0  0  0  0  0  0  0  0  0  0  0  0
    5.3950    2.7910   20.7314 C   0  0  0  0  0  0  0  0  0  0  0  0
    6.6470    2.5967   21.5836 C   0  0  0  0  0  0  0  0  0  0  0  0
    7.3401    1.2798   21.2798 C   0  0  0  0  0  0  0  0  0  0  0  0
    6.3765    0.0924   21.3841 C   0  0  0  0  0  0  0  0  0  0  0  0
    8.6167    1.0817   22.0951 C   0  0  0  0  0  0  0  0  0  0  0  0
    9.3856   -0.1469   21.6905 C   0  0  0  0  0  0  0  0  0  0  0  0
   10.8256   -0.1191   22.1308 C   0  0  0  0  0  0  0  0  0  0  0  0
   11.6453   -1.2495   21.9821 C   0  0  0  0  0  0  0  0  0  0  0  0
   11.2012   -2.3988   21.3867 O   0  0  0  0  0  0  0  0  0  0  0  0
   12.9618   -1.2324   22.4385 C   0  0  0  0  0  0  0  0  0  0  0  0
   13.7405   -2.3309   22.2604 O   0  0  0  0  0  0  0  0  0  0  0  0
   13.4739   -0.0957   23.0447 C   0  0  0  0  0  0  0  0  0  0  0  0
   12.6647    1.0158   23.1899 C   0  0  0  0  0  0  0  0  0  0  0  0
   11.3420    1.0178   22.7386 C   0  0  0  0  0  0  0  0  0  0  0  0
   10.5165    2.2835   22.8278 C   0  0  0  0  0  0  0  0  0  0  0  0
   11.3210    3.5485   22.5427 C   0  0  0  0  0  0  0  0  0  0  0  0
   10.5337    4.7907   22.3768 N   0  0  0  0  0  0  0  0  0  0  0  0
    9.4225    2.2546   21.9071 O   0  0  0  0  0  0  0  0  0  0  0  0
  1  2  1  0
  2  3  1  0
  3  4  1  0
  4  5  1  0
  5  6  1  0
  6  7  1  0
  7  8  1  0
  7  9  1  0
  9 10  1  0
 10 11  1  0
 11 12  2  0
 12 13  1  0
 12 14  1  0
 14 15  1  0
 14 16  2  0
 16 17  1  0
 17 18  2  0
 18 19  1  0
 19 20  1  0
 20 21  1  0
 19 22  1  0
  8  3  1  0
 22  9  1  0
 18 11  1  0
M  END
