CVD-0001361|dock_bobby27042020.67|mol2|23|dock1
     RDKit          3D

 38 44  0  0  0  0  0  0  0  0999 V2000
   14.5110   11.3956   29.3218 O   0  0  0  0  0  0  0  0  0  0  0  0
   14.2460   10.2468   28.7076 C   0  0  0  0  0  0  0  0  0  0  0  0
   14.1044    9.0890   29.5174 C   0  0  0  0  0  0  0  0  0  0  0  0
   13.8332    7.8814   28.9569 C   0  0  0  0  0  0  0  0  0  0  0  0
   13.6872    7.7582   27.5513 C   0  0  0  0  0  0  0  0  0  0  0  0
   13.4228    6.6950   26.7645 N   0  0  0  0  0  0  0  0  0  0  0  0
   13.4142    7.2338   25.5395 N   0  0  0  0  0  0  0  0  0  0  0  0
   13.6465    8.5470   25.4366 N   0  0  0  0  0  0  0  0  0  0  0  0
   13.8236    8.8946   26.7262 C   0  0  0  0  0  0  0  0  0  0  0  0
   14.1059   10.1352   27.3465 C   0  0  0  0  0  0  0  0  0  0  0  0
   13.1651    6.4322   24.3792 C   0  0  0  0  0  0  0  0  0  0  0  0
   12.4242    5.2629   24.4976 C   0  0  0  0  0  0  0  0  0  0  0  0
   12.1537    4.4681   23.3765 C   0  0  0  0  0  0  0  0  0  0  0  0
   11.3457    3.2065   23.5471 C   0  0  0  0  0  0  0  0  0  0  0  0
   10.3581    3.2497   24.2652 O   0  0  0  0  0  0  0  0  0  0  0  0
   11.6824    1.8943   22.8849 C   0  0  0  0  0  0  0  0  0  0  0  0
   10.6780    1.1598   22.2492 C   0  0  0  0  0  0  0  0  0  0  0  0
   10.9437   -0.0604   21.6320 C   0  0  0  0  0  0  0  0  0  0  0  0
   12.2525   -0.5536   21.6316 C   0  0  0  0  0  0  0  0  0  0  0  0
   12.5852   -1.7338   21.0462 O   0  0  0  0  0  0  0  0  0  0  0  0
   13.2583    0.1733   22.2446 C   0  0  0  0  0  0  0  0  0  0  0  0
   12.9968    1.3806   22.8703 C   0  0  0  0  0  0  0  0  0  0  0  0
   14.0640    1.9984   23.4463 O   0  0  0  0  0  0  0  0  0  0  0  0
    9.8345   -0.7470   21.0220 N   0  0  0  0  0  0  0  0  0  0  0  0
    9.5494   -2.0137   21.3536 N   0  0  0  0  0  0  0  0  0  0  0  0
    8.4743   -2.3006   20.5923 C   0  0  0  0  0  0  0  0  0  0  0  0
    7.6870   -3.4738   20.4663 C   0  0  0  0  0  0  0  0  0  0  0  0
    6.6336   -3.5060   19.6088 C   0  0  0  0  0  0  0  0  0  0  0  0
    6.3035   -2.3684   18.8255 C   0  0  0  0  0  0  0  0  0  0  0  0
    5.2606   -2.4692   18.0074 O   0  0  0  0  0  0  0  0  0  0  0  0
    7.0616   -1.2298   18.9429 C   0  0  0  0  0  0  0  0  0  0  0  0
    8.1660   -1.1592   19.8253 C   0  0  0  0  0  0  0  0  0  0  0  0
    9.0403   -0.1746   20.1079 N   0  0  0  0  0  0  0  0  0  0  0  0
   12.6633    4.8683   22.1114 C   0  0  0  0  0  0  0  0  0  0  0  0
   12.4599    4.1660   20.9567 O   0  0  0  0  0  0  0  0  0  0  0  0
   13.4104    6.0382   22.0147 C   0  0  0  0  0  0  0  0  0  0  0  0
   14.1660    7.2110   21.8847 O   0  0  0  0  0  0  0  0  0  0  0  0
   13.6632    6.8178   23.1323 C   0  0  0  0  0  0  0  0  0  0  0  0
  1  2  1  0
  2  3  1  0
  3  4  2  0
  4  5  1  0
  5  6  2  0
  6  7  1  0
  7  8  1  0
  8  9  2  0
  9 10  1  0
  7 11  1  0
 11 12  2  0
 12 13  1  0
 13 14  1  0
 14 15  2  0
 14 16  1  0
 16 17  2  0
 17 18  1  0
 18 19  2  0
 19 20  1  0
 19 21  1  0
 21 22  2  0
 22 23  1  0
 18 24  1  0
 24 25  1  0
 25 26  2  0
 26 27  1  0
 27 28  2  0
 28 29  1  0
 29 30  1  0
 29 31  2  0
 31 32  1  0
 32 33  2  0
 13 34  2  0
 34 35  1  0
 34 36  1  0
 36 37  1  0
 37 38  1  0
 10  2  2  0
 38 11  1  0
  9  5  1  0
 22 16  1  0
 33 24  1  0
 38 36  2  0
 32 26  1  0
M  END
