CVD-0003208|dock_bobby27042020.46|mol2|5|dock1
     RDKit          3D

 22 24  0  0  0  0  0  0  0  0999 V2000
   14.3494   -2.3883   25.8998 C   0  0  0  0  0  0  0  0  0  0  0  0
   13.8987   -1.1069   25.2484 C   0  0  0  0  0  0  0  0  0  0  0  0
   12.9755   -1.3217   24.0647 C   0  0  0  0  0  0  0  0  0  0  0  0
   13.4698   -1.4464   22.7766 C   0  0  0  0  0  0  0  0  0  0  0  0
   12.7246   -1.6404   21.6800 N   0  0  0  0  0  0  0  0  0  0  0  0
   11.3976   -1.7164   21.8813 C   0  0  0  0  0  0  0  0  0  0  0  0
   10.4261   -1.9077   20.9431 N   0  0  0  0  0  0  0  0  0  0  0  0
    9.2090   -1.9220   21.5714 C   0  0  0  0  0  0  0  0  0  0  0  0
    9.3601   -1.7425   22.9152 C   0  0  0  0  0  0  0  0  0  0  0  0
    8.2847   -1.6938   23.9608 C   0  0  0  0  0  0  0  0  0  0  0  0
    7.5349   -0.3768   23.9784 C   0  0  0  0  0  0  0  0  0  0  0  0
    6.9016   -0.0955   22.6979 N   0  0  0  0  0  0  0  0  0  0  0  0
    7.4410    0.7297   21.8006 C   0  0  0  0  0  0  0  0  0  0  0  0
    8.5081    1.3035   22.0019 O   0  0  0  0  0  0  0  0  0  0  0  0
    6.6776    0.9275   20.5066 C   0  0  0  0  0  0  0  0  0  0  0  0
    6.6143   -0.3746   19.7176 C   0  0  0  0  0  0  0  0  0  0  0  0
    5.8393   -0.1325   18.4278 C   0  0  0  0  0  0  0  0  0  0  0  0
    4.5397    0.3634   18.6830 O   0  0  0  0  0  0  0  0  0  0  0  0
    4.5892    1.6177   19.3627 C   0  0  0  0  0  0  0  0  0  0  0  0
    5.2791    1.4911   20.7208 C   0  0  0  0  0  0  0  0  0  0  0  0
   10.7707   -1.6075   23.1329 C   0  0  0  0  0  0  0  0  0  0  0  0
   11.5992   -1.4066   24.2330 C   0  0  0  0  0  0  0  0  0  0  0  0
  1  2  1  0
  2  3  1  0
  3  4  2  0
  4  5  1  0
  5  6  2  0
  6  7  1  0
  7  8  1  0
  8  9  2  0
  9 10  1  0
 10 11  1  0
 11 12  1  0
 12 13  1  0
 13 14  2  0
 13 15  1  0
 15 16  1  0
 16 17  1  0
 17 18  1  0
 18 19  1  0
 19 20  1  0
  9 21  1  0
 21 22  2  0
 22  3  1  0
 21  6  1  0
 20 15  1  0
M  END
