CVD-0000023|dock_bobby27042020.43|mol2|10|dock1
     RDKit          3D

 39 42  0  0  0  0  0  0  0  0999 V2000
    8.4656   -0.8947   27.6461 C   0  0  0  0  0  0  0  0  0  0  0  0
    8.2245   -1.7641   26.4362 C   0  0  0  0  0  0  0  0  0  0  0  0
    7.2611   -2.7565   26.4521 C   0  0  0  0  0  0  0  0  0  0  0  0
    7.0859   -3.5266   25.3235 C   0  0  0  0  0  0  0  0  0  0  0  0
    7.7972   -3.3659   24.2016 N   0  0  0  0  0  0  0  0  0  0  0  0
    8.7246   -2.4035   24.1678 C   0  0  0  0  0  0  0  0  0  0  0  0
    8.9683   -1.5947   25.2776 C   0  0  0  0  0  0  0  0  0  0  0  0
    9.4213   -2.2776   22.9301 N   0  0  0  0  0  0  0  0  0  0  0  0
   10.8737   -2.4295   22.9362 C   0  0  0  0  0  0  0  0  0  0  0  0
   11.5396   -1.2161   23.3586 N   0  0  0  0  0  0  0  0  0  0  0  0
   12.9944   -1.3375   23.2299 C   0  0  0  0  0  0  0  0  0  0  0  0
   13.6480   -0.0710   23.6758 C   0  0  0  0  0  0  0  0  0  0  0  0
   13.2129    1.0435   22.9054 O   0  0  0  0  0  0  0  0  0  0  0  0
   11.8050    1.1741   23.0112 C   0  0  0  0  0  0  0  0  0  0  0  0
   11.0936   -0.0694   22.5689 C   0  0  0  0  0  0  0  0  0  0  0  0
    8.8095   -2.0112   21.6952 C   0  0  0  0  0  0  0  0  0  0  0  0
    9.4870   -1.8748   20.6832 O   0  0  0  0  0  0  0  0  0  0  0  0
    7.4430   -1.8817   21.6176 N   0  0  0  0  0  0  0  0  0  0  0  0
    6.7408   -1.5909   20.3997 C   0  0  0  0  0  0  0  0  0  0  0  0
    6.7175   -0.3229   19.7899 C   0  0  0  0  0  0  0  0  0  0  0  0
    7.5942    0.8388   20.2260 C   0  0  0  0  0  0  0  0  0  0  0  0
    7.0403    1.6226   21.4036 C   0  0  0  0  0  0  0  0  0  0  0  0
    7.8482    2.7973   21.6985 N   0  0  0  0  0  0  0  0  0  0  0  0
    7.3377    3.9114   22.2156 C   0  0  0  0  0  0  0  0  0  0  0  0
    6.1484    4.0443   22.4872 O   0  0  0  0  0  0  0  0  0  0  0  0
    8.3334    5.0310   22.4654 C   0  0  0  0  0  0  0  0  0  0  0  0
    7.7732    6.1602   23.2095 N   0  0  0  0  0  0  0  0  0  0  0  0
    7.0063    7.0268   22.3115 C   0  0  0  0  0  0  0  0  0  0  0  0
    6.4676    8.2339   23.0459 C   0  0  0  0  0  0  0  0  0  0  0  0
    7.5470    9.0074   23.6775 N   0  0  0  0  0  0  0  0  0  0  0  0
    8.3485    8.1343   24.5508 C   0  0  0  0  0  0  0  0  0  0  0  0
    8.8620    6.9322   23.8028 C   0  0  0  0  0  0  0  0  0  0  0  0
    5.8440   -0.1390   18.7110 C   0  0  0  0  0  0  0  0  0  0  0  0
    5.6252    1.2063   18.0706 C   0  0  0  0  0  0  0  0  0  0  0  0
    5.1608   -1.2472   18.2284 C   0  0  0  0  0  0  0  0  0  0  0  0
    5.2740   -2.4891   18.7085 N   0  0  0  0  0  0  0  0  0  0  0  0
    6.0452   -2.6575   19.7994 C   0  0  0  0  0  0  0  0  0  0  0  0
    6.1350   -3.9855   20.3508 C   0  0  0  0  0  0  0  0  0  0  0  0
    6.2539   -5.0716   20.7903 C   0  0  0  0  0  0  0  0  0  0  0  0
  1  2  1  0
  2  3  2  0
  3  4  1  0
  4  5  2  0
  5  6  1  0
  6  7  2  0
  6  8  1  0
  8  9  1  0
  9 10  1  0
 10 11  1  0
 11 12  1  0
 12 13  1  0
 13 14  1  0
 14 15  1  0
  8 16  1  0
 16 17  2  0
 16 18  1  0
 18 19  1  0
 19 20  1  0
 20 21  1  0
 21 22  1  0
 22 23  1  0
 23 24  1  0
 24 25  2  0
 24 26  1  0
 26 27  1  0
 27 28  1  0
 28 29  1  0
 29 30  1  0
 30 31  1  0
 31 32  1  0
 20 33  2  0
 33 34  1  0
 33 35  1  0
 35 36  2  0
 36 37  1  0
 37 38  1  0
 38 39  3  0
  7  2  1  0
 15 10  1  0
 37 19  2  0
 32 27  1  0
M  END
