CVD-0003477|dock_bobby27042020.87|mol2|43|dock3
     RDKit          3D

 23 25  0  0  0  0  0  0  0  0999 V2000
    9.3084    1.4292   20.7418 O   0  0  0  0  0  0  0  0  0  0  0  0
    8.7798    0.5264   21.3831 C   0  0  0  0  0  0  0  0  0  0  0  0
    9.3846    0.0188   22.6814 C   0  0  0  0  0  0  0  0  0  0  0  0
   10.7402    0.5305   22.8874 N   0  0  0  0  0  0  0  0  0  0  0  0
   10.8457    1.9229   22.9414 C   0  0  0  0  0  0  0  0  0  0  0  0
    9.8110    2.5583   23.0975 O   0  0  0  0  0  0  0  0  0  0  0  0
   12.0790    2.5192   22.8356 N   0  0  0  0  0  0  0  0  0  0  0  0
   12.4447    3.8903   22.8742 C   0  0  0  0  0  0  0  0  0  0  0  0
   11.6316    4.9102   23.3671 C   0  0  0  0  0  0  0  0  0  0  0  0
   12.0806    6.2208   23.3709 C   0  0  0  0  0  0  0  0  0  0  0  0
   13.3295    6.5359   22.8835 C   0  0  0  0  0  0  0  0  0  0  0  0
   14.1382    5.5381   22.3875 C   0  0  0  0  0  0  0  0  0  0  0  0
   13.7015    4.2244   22.3815 C   0  0  0  0  0  0  0  0  0  0  0  0
   11.8069   -0.4348   22.9611 C   0  0  0  0  0  0  0  0  0  0  0  0
   12.7278   -0.4375   24.0007 C   0  0  0  0  0  0  0  0  0  0  0  0
   13.7408   -1.3799   24.0154 C   0  0  0  0  0  0  0  0  0  0  0  0
   13.8052   -2.2914   22.9877 C   0  0  0  0  0  0  0  0  0  0  0  0
   12.9372   -2.3106   21.9763 N   0  0  0  0  0  0  0  0  0  0  0  0
   11.9620   -1.3965   21.9752 C   0  0  0  0  0  0  0  0  0  0  0  0
    7.6478   -0.0720   21.0063 N   0  0  0  0  0  0  0  0  0  0  0  0
    6.9262    0.2933   19.7871 C   0  0  0  0  0  0  0  0  0  0  0  0
    7.7368   -0.6351   18.6988 C   0  0  0  0  0  0  0  0  0  0  0  0
    6.2539   -0.5426   18.6676 C   0  0  0  0  0  0  0  0  0  0  0  0
  1  2  2  0
  2  3  1  0
  3  4  1  0
  4  5  1  0
  5  6  2  0
  5  7  1  0
  7  8  1  0
  8  9  2  0
  9 10  1  0
 10 11  2  0
 11 12  1  0
 12 13  2  0
  4 14  1  0
 14 15  2  0
 15 16  1  0
 16 17  2  0
 17 18  1  0
 18 19  2  0
  2 20  1  0
 20 21  1  0
 21 22  1  0
 22 23  1  0
 13  8  1  0
 19 14  1  0
 23 21  1  0
M  END
