CVD-0001320|dock_bobby27042020.95|mol2|39|dock1
     RDKit          3D

 25 27  0  0  0  0  0  0  0  0999 V2000
   14.2216   -0.8689   24.2909 C   0  0  0  0  0  0  0  0  0  0  0  0
   12.8555   -1.0929   23.8215 N   0  0  0  0  0  0  0  0  0  0  0  0
   12.1026    0.1572   23.8117 C   0  0  0  0  0  0  0  0  0  0  0  0
   10.6558   -0.0854   23.4180 C   0  0  0  0  0  0  0  0  0  0  0  0
   10.6057   -0.7102   22.0259 C   0  0  0  0  0  0  0  0  0  0  0  0
   11.4461   -1.9783   22.0022 C   0  0  0  0  0  0  0  0  0  0  0  0
   12.8576   -1.6528   22.4654 C   0  0  0  0  0  0  0  0  0  0  0  0
    9.1893   -0.9318   21.5374 C   0  0  0  0  0  0  0  0  0  0  0  0
    8.6814   -2.0491   21.4923 O   0  0  0  0  0  0  0  0  0  0  0  0
    8.5335    0.1697   21.1607 N   0  0  0  0  0  0  0  0  0  0  0  0
    7.1628    0.1483   20.6622 C   0  0  0  0  0  0  0  0  0  0  0  0
    7.1725    0.5149   19.1925 C   0  0  0  0  0  0  0  0  0  0  0  0
    5.7438    0.4704   18.6237 C   0  0  0  0  0  0  0  0  0  0  0  0
    4.8063    1.3551   19.4154 C   0  0  0  0  0  0  0  0  0  0  0  0
    4.8202    0.9992   20.8992 C   0  0  0  0  0  0  0  0  0  0  0  0
    6.2254    1.0242   21.4829 C   0  0  0  0  0  0  0  0  0  0  0  0
    6.7177    2.3967   21.5224 N   0  0  0  0  0  0  0  0  0  0  0  0
    7.4913    2.8656   22.5056 C   0  0  0  0  0  0  0  0  0  0  0  0
    7.8468    2.1712   23.4543 O   0  0  0  0  0  0  0  0  0  0  0  0
    7.9043    4.3165   22.3744 C   0  0  0  0  0  0  0  0  0  0  0  0
    6.7779    5.2276   22.8036 C   0  0  0  0  0  0  0  0  0  0  0  0
    7.2102    6.6898   22.7635 C   0  0  0  0  0  0  0  0  0  0  0  0
    8.4421    6.9223   23.5989 C   0  0  0  0  0  0  0  0  0  0  0  0
    9.5657    5.9999   23.1887 C   0  0  0  0  0  0  0  0  0  0  0  0
    9.1388    4.5386   23.2224 C   0  0  0  0  0  0  0  0  0  0  0  0
  1  2  1  0
  2  3  1  0
  3  4  1  0
  4  5  1  0
  5  6  1  0
  6  7  1  0
  5  8  1  0
  8  9  2  0
  8 10  1  0
 10 11  1  0
 11 12  1  0
 12 13  1  0
 13 14  1  0
 14 15  1  0
 15 16  1  0
 16 17  1  0
 17 18  1  0
 18 19  2  0
 18 20  1  0
 20 21  1  0
 21 22  1  0
 22 23  1  0
 23 24  1  0
 24 25  1  0
  7  2  1  0
 16 11  1  0
 25 20  1  0
M  END
