CVD-0002662|dock_bobby27042020.62|mol2|21|dock2
     RDKit          3D

 26 29  0  0  0  0  0  0  0  0999 V2000
    9.0263    1.4379   20.6705 O   0  0  0  0  0  0  0  0  0  0  0  0
    8.9944    0.6620   21.6185 C   0  0  0  0  0  0  0  0  0  0  0  0
    7.9299   -0.1392   21.8426 N   0  0  0  0  0  0  0  0  0  0  0  0
    6.7041   -0.0703   21.0470 C   0  0  0  0  0  0  0  0  0  0  0  0
    6.9812   -0.4030   19.5665 C   0  0  0  0  0  0  0  0  0  0  0  0
    5.7335   -0.2690   18.6955 C   0  0  0  0  0  0  0  0  0  0  0  0
    5.0980    1.1073   18.8448 C   0  0  0  0  0  0  0  0  0  0  0  0
    4.7973    1.4179   20.3042 C   0  0  0  0  0  0  0  0  0  0  0  0
    6.0561    1.3202   21.1599 C   0  0  0  0  0  0  0  0  0  0  0  0
   10.0367    0.5401   22.5416 N   0  0  0  0  0  0  0  0  0  0  0  0
   11.2684    1.2110   22.6051 C   0  0  0  0  0  0  0  0  0  0  0  0
   12.5914    0.8700   22.5069 C   0  0  0  0  0  0  0  0  0  0  0  0
   13.2906   -0.4446   22.2911 C   0  0  0  0  0  0  0  0  0  0  0  0
   13.5298   -1.2301   23.5612 C   0  0  0  0  0  0  0  0  0  0  0  0
   13.8815   -2.5666   23.5595 C   0  0  0  0  0  0  0  0  0  0  0  0
   14.1017   -3.2742   24.6705 N   0  0  0  0  0  0  0  0  0  0  0  0
   13.9597   -2.6060   25.8102 C   0  0  0  0  0  0  0  0  0  0  0  0
   13.6274   -1.3272   25.9524 N   0  0  0  0  0  0  0  0  0  0  0  0
   13.4183   -0.6599   24.8148 C   0  0  0  0  0  0  0  0  0  0  0  0
   13.3752    1.9964   22.6458 N   0  0  0  0  0  0  0  0  0  0  0  0
   12.5535    3.0206   22.8349 C   0  0  0  0  0  0  0  0  0  0  0  0
   12.7651    4.4124   23.0400 C   0  0  0  0  0  0  0  0  0  0  0  0
   11.7888    5.2640   23.2084 N   0  0  0  0  0  0  0  0  0  0  0  0
   10.5078    4.7744   23.1827 C   0  0  0  0  0  0  0  0  0  0  0  0
   10.2016    3.4782   22.9957 C   0  0  0  0  0  0  0  0  0  0  0  0
   11.2418    2.5879   22.8195 N   0  0  0  0  0  0  0  0  0  0  0  0
  1  2  2  0
  2  3  1  0
  3  4  1  0
  4  5  1  0
  5  6  1  0
  6  7  1  0
  7  8  1  0
  8  9  1  0
  2 10  1  0
 10 11  1  0
 11 12  2  0
 12 13  1  0
 13 14  1  0
 14 15  2  0
 15 16  1  0
 16 17  2  0
 17 18  1  0
 18 19  2  0
 12 20  1  0
 20 21  2  0
 21 22  1  0
 22 23  2  0
 23 24  1  0
 24 25  2  0
 25 26  1  0
  9  4  1  0
 26 11  1  0
 19 14  1  0
 26 21  1  0
M  END
