CVD-0000962|dock_bobby27042020.11|mol2|18|dock3
     RDKit          3D

 28 30  0  0  0  0  0  0  0  0999 V2000
    6.6478   -2.6988   24.5900 C   0  0  0  0  0  0  0  0  0  0  0  0
    6.9961   -1.5554   23.6813 C   0  0  0  0  0  0  0  0  0  0  0  0
    6.2270   -0.6030   23.6308 O   0  0  0  0  0  0  0  0  0  0  0  0
    8.1502   -1.6128   22.9558 N   0  0  0  0  0  0  0  0  0  0  0  0
    9.0385   -2.7770   22.9376 C   0  0  0  0  0  0  0  0  0  0  0  0
   10.4645   -2.3606   23.2467 C   0  0  0  0  0  0  0  0  0  0  0  0
   10.9218   -1.3594   22.2786 N   0  0  0  0  0  0  0  0  0  0  0  0
   10.0509   -0.1894   22.3555 C   0  0  0  0  0  0  0  0  0  0  0  0
    8.6148   -0.5663   22.0401 C   0  0  0  0  0  0  0  0  0  0  0  0
    8.4940   -0.8536   20.5456 C   0  0  0  0  0  0  0  0  0  0  0  0
    7.1876   -1.4488   20.2443 N   0  0  0  0  0  0  0  0  0  0  0  0
    6.4008   -1.0175   18.9062 S   0  0  0  0  0  0  0  0  0  0  0  0
    5.6144   -2.1450   18.5088 O   0  0  0  0  0  0  0  0  0  0  0  0
    7.3732   -0.4857   18.0012 O   0  0  0  0  0  0  0  0  0  0  0  0
    5.2971    0.2841   19.3385 C   0  0  0  0  0  0  0  0  0  0  0  0
    4.9596    1.2423   18.3970 C   0  0  0  0  0  0  0  0  0  0  0  0
    4.0876    2.2578   18.7472 C   0  0  0  0  0  0  0  0  0  0  0  0
    3.5436    2.3379   20.0194 C   0  0  0  0  0  0  0  0  0  0  0  0
    2.5911    3.4494   20.3876 C   0  0  0  0  0  0  0  0  0  0  0  0
    3.8944    1.3651   20.9421 C   0  0  0  0  0  0  0  0  0  0  0  0
    4.7643    0.3399   20.6157 C   0  0  0  0  0  0  0  0  0  0  0  0
   12.3631   -1.1296   22.1185 C   0  0  0  0  0  0  0  0  0  0  0  0
   12.9122   -1.8448   21.0573 O   0  0  0  0  0  0  0  0  0  0  0  0
   13.1105   -1.4914   23.3624 C   0  0  0  0  0  0  0  0  0  0  0  0
   13.9053   -2.6110   23.5802 C   0  0  0  0  0  0  0  0  0  0  0  0
   14.4467   -2.6022   24.8885 C   0  0  0  0  0  0  0  0  0  0  0  0
   14.0784   -1.5333   25.6149 C   0  0  0  0  0  0  0  0  0  0  0  0
   13.0542   -0.4856   24.7398 S   0  0  0  0  0  0  0  0  0  0  0  0
  1  2  1  0
  2  3  2  0
  2  4  1  0
  4  5  1  0
  5  6  1  0
  6  7  1  0
  7  8  1  0
  8  9  1  0
  9 10  1  0
 10 11  1  0
 11 12  1  0
 12 13  2  0
 12 14  2  0
 12 15  1  0
 15 16  2  0
 16 17  1  0
 17 18  2  0
 18 19  1  0
 18 20  1  0
 20 21  2  0
  7 22  1  0
 22 23  1  0
 22 24  1  0
 24 25  2  0
 25 26  1  0
 26 27  2  0
 27 28  1  0
  9  4  1  0
 21 15  1  0
 28 24  1  0
M  END
