CVD-0000110|dock_bobby27042020.85|mol2|28|dock3
     RDKit          3D

 17 19  0  0  0  0  0  0  0  0999 V2000
   12.7445    6.0164   21.6711 F   0  0  0  0  0  0  0  0  0  0  0  0
   11.8243    5.1356   22.1489 C   0  0  0  0  0  0  0  0  0  0  0  0
   10.5835    5.6042   22.4733 C   0  0  0  0  0  0  0  0  0  0  0  0
    9.6632    4.6954   22.9604 C   0  0  0  0  0  0  0  0  0  0  0  0
   10.0028    3.3618   23.1197 C   0  0  0  0  0  0  0  0  0  0  0  0
   11.2743    2.9017   22.7810 C   0  0  0  0  0  0  0  0  0  0  0  0
   12.1951    3.8199   22.2767 C   0  0  0  0  0  0  0  0  0  0  0  0
   11.6114    1.5149   22.9472 N   0  0  0  0  0  0  0  0  0  0  0  0
   13.3876    1.0898   23.4142 Se  0  0  0  0  0  2  0  0  0  0  0  0
   12.6061   -0.5422   24.1081 C   0  0  0  0  0  0  0  0  0  0  0  0
   13.5939   -1.6776   24.2401 C   0  0  0  0  0  0  0  0  0  0  0  0
   13.8514   -2.4831   23.2112 C   0  0  0  0  0  0  0  0  0  0  0  0
   13.1960   -2.3132   21.9754 C   0  0  0  0  0  0  0  0  0  0  0  0
   12.1057   -1.5545   21.8743 C   0  0  0  0  0  0  0  0  0  0  0  0
   11.5191   -0.8675   23.0776 C   0  0  0  0  0  0  0  0  0  0  0  0
   10.7803    0.4362   22.8120 C   0  0  0  0  0  0  0  0  0  0  0  0
    9.6038    0.4910   22.5103 O   0  0  0  0  0  0  0  0  0  0  0  0
  1  2  1  0
  2  3  2  0
  3  4  1  0
  4  5  2  0
  5  6  1  0
  6  7  2  0
  6  8  1  0
  8  9  1  0
  9 10  1  0
 10 11  1  0
 11 12  2  0
 12 13  1  0
 13 14  2  0
 14 15  1  0
 15 16  1  0
 16 17  2  0
  7  2  1  0
 16  8  1  0
 15 10  1  0
M  END
