CVD-0001916|dock_bobby27042020.93|mol2|35|dock1
     RDKit          3D

 31 34  0  0  0  0  0  0  0  0999 V2000
    6.7716    7.6400   21.1781 Br  0  0  0  0  0  0  0  0  0  0  0  0
    7.3172    5.8890   21.6719 C   0  0  0  0  0  0  0  0  0  0  0  0
    8.6486    5.6410   21.9247 C   0  0  0  0  0  0  0  0  0  0  0  0
    9.0470    4.3654   22.2845 C   0  0  0  0  0  0  0  0  0  0  0  0
    8.1150    3.3353   22.3911 C   0  0  0  0  0  0  0  0  0  0  0  0
    8.4548    2.0075   22.7530 N   0  0  0  0  0  0  0  0  0  0  0  0
    9.5208    1.2351   22.4222 C   0  0  0  0  0  0  0  0  0  0  0  0
   10.4494    1.5759   21.6957 O   0  0  0  0  0  0  0  0  0  0  0  0
    9.5274   -0.1809   23.0381 C   0  0  0  0  0  0  0  0  0  0  0  0
    8.5425   -1.0334   22.3122 N   0  0  0  0  0  0  0  0  0  0  0  0
    8.1301   -2.2621   22.8214 C   0  0  0  0  0  0  0  0  0  0  0  0
    8.5975   -2.6393   23.8953 O   0  0  0  0  0  0  0  0  0  0  0  0
    7.1454   -3.1973   22.1914 C   0  0  0  0  0  0  0  0  0  0  0  0
    6.8774   -4.4040   22.6204 C   0  0  0  0  0  0  0  0  0  0  0  0
    7.9742   -0.5946   21.0674 C   0  0  0  0  0  0  0  0  0  0  0  0
    8.6237   -0.9065   19.8762 C   0  0  0  0  0  0  0  0  0  0  0  0
    8.1178   -0.5250   18.6447 C   0  0  0  0  0  0  0  0  0  0  0  0
    6.9262    0.1936   18.5584 C   0  0  0  0  0  0  0  0  0  0  0  0
    6.2721    0.6513   17.4172 N   0  0  0  0  0  0  0  0  0  0  0  0
    5.1929    1.2805   17.7411 C   0  0  0  0  0  0  0  0  0  0  0  0
    4.8285    1.4030   19.4322 S   0  0  0  0  0  0  0  0  0  0  0  0
    6.2804    0.5118   19.7565 C   0  0  0  0  0  0  0  0  0  0  0  0
    6.7900    0.1349   20.9921 C   0  0  0  0  0  0  0  0  0  0  0  0
   10.9108   -0.8064   23.1920 C   0  0  0  0  0  0  0  0  0  0  0  0
   11.8810   -0.1662   23.9501 C   0  0  0  0  0  0  0  0  0  0  0  0
   13.1361   -0.7302   24.0963 C   0  0  0  0  0  0  0  0  0  0  0  0
   13.3908   -1.9308   23.4748 C   0  0  0  0  0  0  0  0  0  0  0  0
   12.4866   -2.5729   22.7346 N   0  0  0  0  0  0  0  0  0  0  0  0
   11.2840   -2.0055   22.5996 C   0  0  0  0  0  0  0  0  0  0  0  0
    6.7785    3.6161   22.1306 C   0  0  0  0  0  0  0  0  0  0  0  0
    6.3750    4.8893   21.7711 C   0  0  0  0  0  0  0  0  0  0  0  0
  1  2  1  0
  2  3  2  0
  3  4  1  0
  4  5  2  0
  5  6  1  0
  6  7  1  0
  7  8  2  0
  7  9  1  0
  9 10  1  0
 10 11  1  0
 11 12  2  0
 11 13  1  0
 13 14  2  0
 10 15  1  0
 15 16  2  0
 16 17  1  0
 17 18  2  0
 18 19  1  0
 19 20  2  0
 20 21  1  0
 21 22  1  0
 22 23  2  0
  9 24  1  0
 24 25  2  0
 25 26  1  0
 26 27  2  0
 27 28  1  0
 28 29  2  0
  5 30  1  0
 30 31  2  0
 31  2  1  0
 23 15  1  0
 29 24  1  0
 22 18  1  0
M  END
