CVD-0001631|dock_bobby27042020.9|mol2|10|dock1
     RDKit          3D

 19 20  0  0  0  0  0  0  0  0999 V2000
   14.0332   -2.1439   23.4519 C   0  0  0  0  0  0  0  0  0  0  0  0
   13.2929   -0.8200   23.5546 C   0  0  0  0  0  0  0  0  0  0  0  0
   13.6515    0.0601   22.3717 C   0  0  0  0  0  0  0  0  0  0  0  0
   12.9803    1.3576   22.4774 N   0  0  0  0  0  0  0  0  0  0  0  0
   11.5284    1.2036   22.6120 C   0  0  0  0  0  0  0  0  0  0  0  0
   11.2009    0.2980   23.7853 C   0  0  0  0  0  0  0  0  0  0  0  0
   11.8406   -1.0055   23.6271 N   0  0  0  0  0  0  0  0  0  0  0  0
   11.2048   -1.8786   22.6499 C   0  0  0  0  0  0  0  0  0  0  0  0
    9.7600   -1.7941   22.6640 N   0  0  0  0  0  0  0  0  0  0  0  0
    9.0978   -2.1592   21.3932 C   0  0  0  0  0  0  0  0  0  0  0  0
    7.8320   -1.3600   21.1214 C   0  0  0  0  0  0  0  0  0  0  0  0
    6.5312   -1.9954   21.6457 C   0  0  0  0  0  0  0  0  0  0  0  0
    6.7585   -2.6559   22.8953 O   0  0  0  0  0  0  0  0  0  0  0  0
    7.5525   -1.9497   23.8430 C   0  0  0  0  0  0  0  0  0  0  0  0
    9.0079   -2.3477   23.8001 C   0  0  0  0  0  0  0  0  0  0  0  0
   13.6485    2.5303   22.4481 C   0  0  0  0  0  0  0  0  0  0  0  0
   14.8660    2.5813   22.3259 O   0  0  0  0  0  0  0  0  0  0  0  0
   12.8198    3.7950   22.5662 C   0  0  0  0  0  0  0  0  0  0  0  0
   13.8358    5.2365   22.4340 Cl  0  0  0  0  0  0  0  0  0  0  0  0
  1  2  1  0
  2  3  1  0
  3  4  1  0
  4  5  1  0
  5  6  1  0
  6  7  1  0
  7  8  1  0
  8  9  1  0
  9 10  1  0
 10 11  1  0
 11 12  1  0
 12 13  1  0
 13 14  1  0
 14 15  1  0
  4 16  1  0
 16 17  2  0
 16 18  1  0
 18 19  1  0
  7  2  1  0
 15  9  1  0
M  END
