CVD-0000715|dock_bobby27042020.26|mol2|25|dock2
     RDKit          3D

 18 19  0  0  0  0  0  0  0  0999 V2000
   10.1378   -0.8512   23.3951 O   0  0  0  0  0  0  0  0  0  0  0  0
   10.4727   -1.2104   22.2713 C   0  0  0  0  0  0  0  0  0  0  0  0
   11.8752   -1.7186   22.0027 C   0  0  0  0  0  0  0  0  0  0  0  0
   12.7170   -1.7751   23.2574 C   0  0  0  0  0  0  0  0  0  0  0  0
   12.5485   -2.7804   24.1949 C   0  0  0  0  0  0  0  0  0  0  0  0
   13.3393   -2.8028   25.3302 C   0  0  0  0  0  0  0  0  0  0  0  0
   14.2807   -1.8119   25.4919 C   0  0  0  0  0  0  0  0  0  0  0  0
   14.4676   -0.8318   24.6068 N   0  0  0  0  0  0  0  0  0  0  0  0
   13.6923   -0.8309   23.5181 C   0  0  0  0  0  0  0  0  0  0  0  0
    9.6775   -1.2118   21.1738 N   0  0  0  0  0  0  0  0  0  0  0  0
    8.3243   -0.8310   20.9952 C   0  0  0  0  0  0  0  0  0  0  0  0
    7.3673   -0.8682   22.0083 C   0  0  0  0  0  0  0  0  0  0  0  0
    6.0911   -0.5083   21.8365 N   0  0  0  0  0  0  0  0  0  0  0  0
    5.7165   -0.0905   20.6253 C   0  0  0  0  0  0  0  0  0  0  0  0
    6.5879   -0.0140   19.5448 C   0  0  0  0  0  0  0  0  0  0  0  0
    7.9127   -0.3925   19.7413 C   0  0  0  0  0  0  0  0  0  0  0  0
    6.1371    0.4442   18.2539 C   0  0  0  0  0  0  0  0  0  0  0  0
    5.8112    0.8040   17.2199 N   0  0  0  0  0  0  0  0  0  0  0  0
  1  2  2  0
  2  3  1  0
  3  4  1  0
  4  5  2  0
  5  6  1  0
  6  7  2  0
  7  8  1  0
  8  9  2  0
  2 10  1  0
 10 11  1  0
 11 12  2  0
 12 13  1  0
 13 14  2  0
 14 15  1  0
 15 16  2  0
 15 17  1  0
 17 18  3  0
  9  4  1  0
 16 11  1  0
M  END
