CVD-0001689|dock_bobby27042020.66|mol2|22|dock2
     RDKit          3D

 23 25  0  0  0  0  0  0  0  0999 V2000
   13.5680    5.6796   22.3874 C   0  0  0  0  0  0  0  0  0  0  0  0
   12.5023    4.7059   22.8348 C   0  0  0  0  0  0  0  0  0  0  0  0
   12.6139    3.3730   22.1443 C   0  0  0  0  0  0  0  0  0  0  0  0
   11.5735    2.4458   22.5662 N   0  0  0  0  0  0  0  0  0  0  0  0
   11.8539    1.2881   23.2023 C   0  0  0  0  0  0  0  0  0  0  0  0
   13.1627    1.0177   23.4370 N   0  0  0  0  0  0  0  0  0  0  0  0
   13.5776   -0.3413   23.9714 C   0  0  0  0  0  0  0  0  0  0  0  0
   12.5167   -0.7574   25.0566 C   0  0  0  0  0  0  0  0  0  0  0  0
   11.0933   -0.6948   24.4789 C   0  0  0  0  0  0  0  0  0  0  0  0
   10.8285    0.3357   23.6325 C   0  0  0  0  0  0  0  0  0  0  0  0
    9.4181    0.4833   23.1262 C   0  0  0  0  0  0  0  0  0  0  0  0
    8.7127   -0.8232   22.7484 C   0  0  0  0  0  0  0  0  0  0  0  0
    9.4437   -1.5779   21.6455 C   0  0  0  0  0  0  0  0  0  0  0  0
   10.9501   -1.4076   21.5202 C   0  0  0  0  0  0  0  0  0  0  0  0
    8.7697   -1.1243   20.4500 N   0  0  0  0  0  0  0  0  0  0  0  0
    7.5978   -0.4963   20.6750 C   0  0  0  0  0  0  0  0  0  0  0  0
    6.8440   -0.0204   19.7506 N   0  0  0  0  0  0  0  0  0  0  0  0
    5.5613    0.4003   20.2438 C   0  0  0  0  0  0  0  0  0  0  0  0
    5.4414    0.8462   21.5027 C   0  0  0  0  0  0  0  0  0  0  0  0
    6.5185    0.6603   22.5646 C   0  0  0  0  0  0  0  0  0  0  0  0
    7.3179   -0.5987   22.1542 C   0  0  0  0  0  0  0  0  0  0  0  0
   12.8394   -2.1044   25.5466 C   0  0  0  0  0  0  0  0  0  0  0  0
   13.1095   -3.1510   25.9057 N   0  0  0  0  0  0  0  0  0  0  0  0
  1  2  1  0
  2  3  1  0
  3  4  1  0
  4  5  1  0
  5  6  2  0
  6  7  1  0
  7  8  1  0
  8  9  1  0
  9 10  2  0
 10 11  1  0
 11 12  1  0
 12 13  1  0
 13 14  1  0
 13 15  1  0
 15 16  1  0
 16 17  2  0
 17 18  1  0
 18 19  2  0
 19 20  1  0
 20 21  1  0
  8 22  1  0
 22 23  3  0
 10  5  1  0
 21 12  1  0
 21 16  1  0
M  END
