CVD-0000613|dock_bobby27042020.41|mol2|2|dock1
     RDKit          3D

 26 28  0  0  0  0  0  0  0  0999 V2000
   13.7104    6.1490   22.3191 C   0  0  0  0  0  0  0  0  0  0  0  0
   12.5365    5.6127   23.5047 S   0  0  0  0  0  0  0  0  0  0  0  0
   11.3352    6.3798   23.3329 O   0  0  0  0  0  0  0  0  0  0  0  0
   13.1618    5.6183   24.7970 O   0  0  0  0  0  0  0  0  0  0  0  0
   12.1921    3.9364   23.0623 C   0  0  0  0  0  0  0  0  0  0  0  0
   10.8782    3.5274   22.9009 C   0  0  0  0  0  0  0  0  0  0  0  0
   10.6112    2.2162   22.5496 C   0  0  0  0  0  0  0  0  0  0  0  0
   11.6561    1.3288   22.3613 C   0  0  0  0  0  0  0  0  0  0  0  0
   11.3792   -0.0057   22.0072 O   0  0  0  0  0  0  0  0  0  0  0  0
   11.5350   -1.1710   22.8711 C   0  0  0  0  0  0  0  0  0  0  0  0
   10.4256   -2.1806   22.5338 C   0  0  0  0  0  0  0  0  0  0  0  0
    9.0389   -1.5980   22.3558 C   0  0  0  0  0  0  0  0  0  0  0  0
    8.2908   -1.4189   23.3101 O   0  0  0  0  0  0  0  0  0  0  0  0
    8.7389   -1.3123   21.0655 N   0  0  0  0  0  0  0  0  0  0  0  0
    7.5706   -0.7667   20.4781 C   0  0  0  0  0  0  0  0  0  0  0  0
    7.5502   -0.1138   19.2497 C   0  0  0  0  0  0  0  0  0  0  0  0
    6.3514    0.3825   18.7671 C   0  0  0  0  0  0  0  0  0  0  0  0
    5.2121    0.2145   19.5197 C   0  0  0  0  0  0  0  0  0  0  0  0
    5.2006   -0.4062   20.6992 N   0  0  0  0  0  0  0  0  0  0  0  0
    6.3626   -0.8817   21.1563 C   0  0  0  0  0  0  0  0  0  0  0  0
   12.9197   -1.8157   22.6121 C   0  0  0  0  0  0  0  0  0  0  0  0
   13.5658   -1.9949   23.8925 C   0  0  0  0  0  0  0  0  0  0  0  0
   12.7465   -1.4421   24.9618 C   0  0  0  0  0  0  0  0  0  0  0  0
   11.5470   -0.8007   24.3591 C   0  0  0  0  0  0  0  0  0  0  0  0
   12.9681    1.7392   22.5222 C   0  0  0  0  0  0  0  0  0  0  0  0
   13.2398    3.0495   22.8734 C   0  0  0  0  0  0  0  0  0  0  0  0
  1  2  1  0
  2  3  2  0
  2  4  2  0
  2  5  1  0
  5  6  2  0
  6  7  1  0
  7  8  2  0
  8  9  1  0
  9 10  1  0
 10 11  1  0
 11 12  1  0
 12 13  2  0
 12 14  1  0
 14 15  1  0
 15 16  2  0
 16 17  1  0
 17 18  2  0
 18 19  1  0
 19 20  2  0
 10 21  1  0
 21 22  1  0
 22 23  1  0
 23 24  1  0
  8 25  1  0
 25 26  2  0
 26  5  1  0
 24 10  1  0
 20 15  1  0
M  END
