CVD-0000859|dock_bobby27042020.97|mol2|16|dock2
     RDKit          3D

 24 26  0  0  0  0  0  0  0  0999 V2000
   13.7084   -1.7368   23.6749 C   0  0  0  0  0  0  0  0  0  0  0  0
   12.4975   -1.3016   22.8403 C   0  0  0  0  0  0  0  0  0  0  0  0
   12.6781   -1.8221   21.4102 C   0  0  0  0  0  0  0  0  0  0  0  0
   12.4241    0.2068   22.8009 C   0  0  0  0  0  0  0  0  0  0  0  0
   13.5669    0.9887   22.8840 C   0  0  0  0  0  0  0  0  0  0  0  0
   13.5186    2.3669   22.8423 C   0  0  0  0  0  0  0  0  0  0  0  0
   12.2859    2.9779   22.7133 C   0  0  0  0  0  0  0  0  0  0  0  0
   11.1173    2.2354   22.6269 C   0  0  0  0  0  0  0  0  0  0  0  0
   11.1704    0.8402   22.6696 C   0  0  0  0  0  0  0  0  0  0  0  0
    9.9936    0.0831   22.5941 N   0  0  0  0  0  0  0  0  0  0  0  0
    9.9528   -1.3560   22.8028 C   0  0  0  0  0  0  0  0  0  0  0  0
   11.2202   -1.8656   23.4551 C   0  0  0  0  0  0  0  0  0  0  0  0
   11.2716   -3.2189   23.3701 F   0  0  0  0  0  0  0  0  0  0  0  0
   11.2088   -1.5628   24.7772 F   0  0  0  0  0  0  0  0  0  0  0  0
    8.6318    0.6318   22.3887 C   0  0  0  0  0  0  0  0  0  0  0  0
    7.8045   -0.3017   21.5133 C   0  0  0  0  0  0  0  0  0  0  0  0
    6.4156    0.2975   21.3284 C   0  0  0  0  0  0  0  0  0  0  0  0
    5.7734    0.5235   22.5680 O   0  0  0  0  0  0  0  0  0  0  0  0
    6.5067    1.4502   23.3688 C   0  0  0  0  0  0  0  0  0  0  0  0
    7.9046    0.9243   23.6943 C   0  0  0  0  0  0  0  0  0  0  0  0
   12.2014    4.7660   22.6622 S   0  0  0  0  0  0  0  0  0  0  0  0
   13.1538    5.1944   21.2507 C   0  0  0  0  0  0  0  0  0  0  0  0
   10.7725    5.1719   22.3872 N   0  0  0  0  0  0  0  0  0  0  0  0
   12.9085    5.2686   23.8264 O   0  0  0  0  0  0  0  0  0  0  0  0
  1  2  1  0
  2  3  1  0
  2  4  1  0
  4  5  2  0
  5  6  1  0
  6  7  2  0
  7  8  1  0
  8  9  2  0
  9 10  1  0
 10 11  1  0
 11 12  1  0
 12 13  1  0
 12 14  1  0
 10 15  1  0
 15 16  1  0
 16 17  1  0
 17 18  1  0
 18 19  1  0
 19 20  1  0
  7 21  1  0
 21 22  1  0
 21 23  2  0
 21 24  2  0
 12  2  1  0
 20 15  1  0
  9  4  1  0
M  END
