CVD-0000566|dock_bobby27042020.41|mol2|9|dock3
     RDKit          3D

 23 25  0  0  0  0  0  0  0  0999 V2000
    7.3598    0.4214   19.3400 C   0  0  0  0  0  0  0  0  0  0  0  0
    8.3064    0.6461   20.4718 C   0  0  0  0  0  0  0  0  0  0  0  0
    9.0067    1.7474   20.6367 N   0  0  0  0  0  0  0  0  0  0  0  0
    9.7907    1.6527   21.7576 C   0  0  0  0  0  0  0  0  0  0  0  0
    9.7208    0.5014   22.4692 C   0  0  0  0  0  0  0  0  0  0  0  0
   10.4658    0.1488   23.7216 C   0  0  0  0  0  0  0  0  0  0  0  0
   11.4833   -1.0133   23.6338 C   0  0  0  0  0  0  0  0  0  0  0  0
   10.8612   -2.2880   23.0159 C   0  0  0  0  0  0  0  0  0  0  0  0
    9.5001   -2.7406   23.5060 C   0  0  0  0  0  0  0  0  0  0  0  0
    9.0476   -2.3817   24.5873 O   0  0  0  0  0  0  0  0  0  0  0  0
    8.8692   -3.5624   22.6320 N   0  0  0  0  0  0  0  0  0  0  0  0
    7.6070   -4.2047   22.6895 C   0  0  0  0  0  0  0  0  0  0  0  0
    7.3962   -5.3387   21.9158 C   0  0  0  0  0  0  0  0  0  0  0  0
    6.1707   -5.9795   21.9584 C   0  0  0  0  0  0  0  0  0  0  0  0
    5.1887   -5.4683   22.7745 C   0  0  0  0  0  0  0  0  0  0  0  0
    5.3592   -4.3827   23.5290 N   0  0  0  0  0  0  0  0  0  0  0  0
    6.5463   -3.7701   23.4814 C   0  0  0  0  0  0  0  0  0  0  0  0
   12.5462   -0.5676   22.6330 C   0  0  0  0  0  0  0  0  0  0  0  0
   13.6974   -1.5525   22.5862 C   0  0  0  0  0  0  0  0  0  0  0  0
   14.3124   -1.7531   23.9627 C   0  0  0  0  0  0  0  0  0  0  0  0
   13.2593   -2.1863   24.9696 C   0  0  0  0  0  0  0  0  0  0  0  0
   12.0924   -1.2080   25.0152 C   0  0  0  0  0  0  0  0  0  0  0  0
    8.5929   -0.5522   21.6899 S   0  0  0  0  0  0  0  0  0  0  0  0
  1  2  1  0
  2  3  2  0
  3  4  1  0
  4  5  2  0
  5  6  1  0
  6  7  1  0
  7  8  1  0
  8  9  1  0
  9 10  2  0
  9 11  1  0
 11 12  1  0
 12 13  2  0
 13 14  1  0
 14 15  2  0
 15 16  1  0
 16 17  2  0
  7 18  1  0
 18 19  1  0
 19 20  1  0
 20 21  1  0
 21 22  1  0
  5 23  1  0
 23  2  1  0
 22  7  1  0
 17 12  1  0
M  END
