CVD-0001571|dock_bobby27042020.94|mol2|45|dock1
     RDKit          3D

 19 20  0  0  0  0  0  0  0  0999 V2000
   13.7873   -0.8349   24.0109 C   0  0  0  0  0  0  0  0  0  0  0  0
   13.7526   -0.1949   22.7363 O   0  0  0  0  0  0  0  0  0  0  0  0
   12.5946    0.5060   22.4690 C   0  0  0  0  0  0  0  0  0  0  0  0
   12.5711    1.8783   22.7267 C   0  0  0  0  0  0  0  0  0  0  0  0
   13.6876    2.4955   23.1933 O   0  0  0  0  0  0  0  0  0  0  0  0
   11.4201    2.6177   22.5153 C   0  0  0  0  0  0  0  0  0  0  0  0
   10.2910    1.9668   22.0330 C   0  0  0  0  0  0  0  0  0  0  0  0
    9.0303    2.4370   21.7592 N   0  0  0  0  0  0  0  0  0  0  0  0
    8.2633    1.4113   21.2812 C   0  0  0  0  0  0  0  0  0  0  0  0
    8.9861    0.2566   21.2309 C   0  0  0  0  0  0  0  0  0  0  0  0
    8.4909   -1.0768   20.7508 C   0  0  0  0  0  0  0  0  0  0  0  0
    6.9901   -1.1226   20.5357 C   0  0  0  0  0  0  0  0  0  0  0  0
    6.5654   -0.3592   19.3706 N   0  0  0  0  0  0  0  0  0  0  0  0
    5.3970    0.2839   19.3059 C   0  0  0  0  0  0  0  0  0  0  0  0
    5.1311    1.0357   18.0348 C   0  0  0  0  0  0  0  0  0  0  0  0
    4.5925    0.2764   20.2325 O   0  0  0  0  0  0  0  0  0  0  0  0
   10.2845    0.5900   21.7273 C   0  0  0  0  0  0  0  0  0  0  0  0
   11.4727   -0.1422   21.9559 C   0  0  0  0  0  0  0  0  0  0  0  0
   11.5212   -1.4763   21.6743 O   0  0  0  0  0  0  0  0  0  0  0  0
  1  2  1  0
  2  3  1  0
  3  4  2  0
  4  5  1  0
  4  6  1  0
  6  7  2  0
  7  8  1  0
  8  9  1  0
  9 10  2  0
 10 11  1  0
 11 12  1  0
 12 13  1  0
 13 14  1  0
 14 15  1  0
 14 16  2  0
 10 17  1  0
 17 18  2  0
 18 19  1  0
 18  3  1  0
 17  7  1  0
M  END
