CVD-0003205|dock_bobby27042020.88|mol2|38|dock1
     RDKit          3D

 24 25  0  0  0  0  0  0  0  0999 V2000
    6.3587   -5.7449   21.4301 C   0  0  0  0  0  0  0  0  0  0  0  0
    6.7162   -4.2987   21.6095 C   0  0  0  0  0  0  0  0  0  0  0  0
    6.0676   -3.3996   21.0836 O   0  0  0  0  0  0  0  0  0  0  0  0
    7.7903   -4.0479   22.3606 N   0  0  0  0  0  0  0  0  0  0  0  0
    8.2735   -2.6980   22.6134 C   0  0  0  0  0  0  0  0  0  0  0  0
    8.7651   -2.0262   21.3439 C   0  0  0  0  0  0  0  0  0  0  0  0
    9.2595   -0.6220   21.6113 C   0  0  0  0  0  0  0  0  0  0  0  0
    8.4247    0.4518   21.4498 C   0  0  0  0  0  0  0  0  0  0  0  0
    8.8920    1.7279   21.7016 C   0  0  0  0  0  0  0  0  0  0  0  0
   10.1186    2.0151   22.0999 N   0  0  0  0  0  0  0  0  0  0  0  0
   10.9811    0.9705   22.2744 C   0  0  0  0  0  0  0  0  0  0  0  0
   12.3121    1.2559   22.7064 C   0  0  0  0  0  0  0  0  0  0  0  0
   12.7521    2.6807   22.9590 C   0  0  0  0  0  0  0  0  0  0  0  0
   13.2072    3.3611   21.6804 C   0  0  0  0  0  0  0  0  0  0  0  0
   12.8528    4.7854   21.6974 N   0  0  0  0  0  0  0  0  0  0  0  0
   13.7736    5.8220   22.5024 S   0  0  0  0  0  0  0  0  0  0  0  0
   12.8833    6.3317   23.9217 C   0  0  0  0  0  0  0  0  0  0  0  0
   14.9308    5.1035   22.9386 O   0  0  0  0  0  0  0  0  0  0  0  0
   13.9557    6.9630   21.6592 O   0  0  0  0  0  0  0  0  0  0  0  0
   13.1955    0.2144   22.8858 C   0  0  0  0  0  0  0  0  0  0  0  0
   12.8011   -1.0886   22.6540 C   0  0  0  0  0  0  0  0  0  0  0  0
   13.9563   -2.3689   22.8970 Cl  0  0  0  0  0  0  0  0  0  0  0  0
   11.5406   -1.4018   22.2423 C   0  0  0  0  0  0  0  0  0  0  0  0
   10.5898   -0.3709   22.0398 C   0  0  0  0  0  0  0  0  0  0  0  0
  1  2  1  0
  2  3  2  0
  2  4  1  0
  4  5  1  0
  5  6  1  0
  6  7  1  0
  7  8  2  0
  8  9  1  0
  9 10  2  0
 10 11  1  0
 11 12  2  0
 12 13  1  0
 13 14  1  0
 14 15  1  0
 15 16  1  0
 16 17  1  0
 16 18  2  0
 16 19  2  0
 12 20  1  0
 20 21  2  0
 21 22  1  0
 21 23  1  0
 23 24  2  0
 24  7  1  0
 24 11  1  0
M  END
