CVD-0003523|dock_bobby27042020.30|mol2|37|dock2
     RDKit          3D

 28 30  0  0  0  0  0  0  0  0999 V2000
   13.4158    5.7342   21.7099 N   0  0  0  0  0  0  0  0  0  0  0  0
   13.3485    4.6957   22.9264 S   0  0  0  0  0  0  0  0  0  0  0  0
   13.3918    5.4577   24.1383 O   0  0  0  0  0  0  0  0  0  0  0  0
   14.3557    3.7043   22.6948 O   0  0  0  0  0  0  0  0  0  0  0  0
   11.7790    3.8741   22.8764 C   0  0  0  0  0  0  0  0  0  0  0  0
   11.7582    2.4896   22.7954 C   0  0  0  0  0  0  0  0  0  0  0  0
   10.5565    1.7947   22.7132 C   0  0  0  0  0  0  0  0  0  0  0  0
   10.5591    0.2990   22.5836 C   0  0  0  0  0  0  0  0  0  0  0  0
    9.2846   -0.3163   22.9569 N   0  0  0  0  0  0  0  0  0  0  0  0
    9.3158   -1.7427   22.6124 C   0  0  0  0  0  0  0  0  0  0  0  0
    8.4208   -2.6104   23.4869 C   0  0  0  0  0  0  0  0  0  0  0  0
    8.8441   -4.0777   23.4937 C   0  0  0  0  0  0  0  0  0  0  0  0
    8.0140   -4.9123   24.4479 C   0  0  0  0  0  0  0  0  0  0  0  0
    8.0127   -4.3207   25.7896 N   0  0  0  0  0  0  0  0  0  0  0  0
    7.4967   -2.9568   25.8110 C   0  0  0  0  0  0  0  0  0  0  0  0
    8.3496   -2.0858   24.9152 C   0  0  0  0  0  0  0  0  0  0  0  0
    8.3408   -4.9627   26.9359 C   0  0  0  0  0  0  0  0  0  0  0  0
    8.3190   -4.3894   28.0179 O   0  0  0  0  0  0  0  0  0  0  0  0
    8.7494   -6.4214   26.8580 C   0  0  0  0  0  0  0  0  0  0  0  0
   10.3088   -6.6062   26.0448 Cl  0  0  0  0  0  0  0  0  0  0  0  0
    8.2027    0.3466   22.2265 C   0  0  0  0  0  0  0  0  0  0  0  0
    8.0449    1.7813   22.6803 C   0  0  0  0  0  0  0  0  0  0  0  0
    9.3588    2.5147   22.7133 C   0  0  0  0  0  0  0  0  0  0  0  0
    9.3923    3.9032   22.7951 C   0  0  0  0  0  0  0  0  0  0  0  0
   10.5909    4.6073   22.8776 C   0  0  0  0  0  0  0  0  0  0  0  0
   10.5823    6.1103   22.9842 C   0  0  0  0  0  0  0  0  0  0  0  0
    9.6803    6.5062   23.9148 F   0  0  0  0  0  0  0  0  0  0  0  0
   10.1767    6.6581   21.8132 F   0  0  0  0  0  0  0  0  0  0  0  0
  1  2  1  0
  2  3  2  0
  2  4  2  0
  2  5  1  0
  5  6  2  0
  6  7  1  0
  7  8  1  0
  8  9  1  0
  9 10  1  0
 10 11  1  0
 11 12  1  0
 12 13  1  0
 13 14  1  0
 14 15  1  0
 15 16  1  0
 14 17  1  0
 17 18  2  0
 17 19  1  0
 19 20  1  0
  9 21  1  0
 21 22  1  0
 22 23  1  0
 23 24  1  0
 24 25  2  0
 25 26  1  0
 26 27  1  0
 26 28  1  0
 25  5  1  0
 23  7  2  0
 16 11  1  0
M  END
