CVD-0000697|dock_bobby27042020.12|mol2|13|dock3
     RDKit          3D

 28 30  0  0  0  0  0  0  0  0999 V2000
   14.3620    2.6951   22.0366 O   0  0  0  0  0  0  0  0  0  0  0  0
   13.1435    2.6014   22.1372 C   0  0  0  0  0  0  0  0  0  0  0  0
   12.2492    3.7890   21.8410 C   0  0  0  0  0  0  0  0  0  0  0  0
   11.9394    4.5992   23.0794 C   0  0  0  0  0  0  0  0  0  0  0  0
   12.9189    4.8438   24.0293 C   0  0  0  0  0  0  0  0  0  0  0  0
   12.6361    5.5887   25.1622 C   0  0  0  0  0  0  0  0  0  0  0  0
   11.3704    6.0982   25.3574 C   0  0  0  0  0  0  0  0  0  0  0  0
   10.3878    5.8634   24.4199 C   0  0  0  0  0  0  0  0  0  0  0  0
   10.6709    5.1185   23.2872 C   0  0  0  0  0  0  0  0  0  0  0  0
   12.4571    1.4889   22.4973 N   0  0  0  0  0  0  0  0  0  0  0  0
   12.9231    0.1895   22.8412 C   0  0  0  0  0  0  0  0  0  0  0  0
   14.1886   -0.0789   23.3625 C   0  0  0  0  0  0  0  0  0  0  0  0
   14.6184   -1.3033   23.6831 N   0  0  0  0  0  0  0  0  0  0  0  0
   13.7852   -2.3229   23.4926 C   0  0  0  0  0  0  0  0  0  0  0  0
   12.5137   -2.1744   22.9844 C   0  0  0  0  0  0  0  0  0  0  0  0
   12.0601   -0.9039   22.6471 C   0  0  0  0  0  0  0  0  0  0  0  0
   10.6552   -0.7883   22.0953 C   0  0  0  0  0  0  0  0  0  0  0  0
    9.6130   -0.6177   23.1860 C   0  0  0  0  0  0  0  0  0  0  0  0
    8.2593   -0.6347   22.6504 N   0  0  0  0  0  0  0  0  0  0  0  0
    7.7901    0.3635   21.8758 C   0  0  0  0  0  0  0  0  0  0  0  0
    8.4748    1.3390   21.5796 O   0  0  0  0  0  0  0  0  0  0  0  0
    6.5170    0.2198   21.4470 N   0  0  0  0  0  0  0  0  0  0  0  0
    5.8214    1.2459   20.6701 C   0  0  0  0  0  0  0  0  0  0  0  0
    5.5227    0.7543   19.2389 C   0  0  0  0  0  0  0  0  0  0  0  0
    4.7322    1.7768   18.4245 C   0  0  0  0  0  0  0  0  0  0  0  0
    3.4566    2.1932   19.1452 C   0  0  0  0  0  0  0  0  0  0  0  0
    3.7597    2.7073   20.5453 C   0  0  0  0  0  0  0  0  0  0  0  0
    4.5145    1.6653   21.3644 C   0  0  0  0  0  0  0  0  0  0  0  0
  1  2  2  0
  2  3  1  0
  3  4  1  0
  4  5  2  0
  5  6  1  0
  6  7  2  0
  7  8  1  0
  8  9  2  0
  2 10  1  0
 10 11  1  0
 11 12  2  0
 12 13  1  0
 13 14  2  0
 14 15  1  0
 15 16  2  0
 16 17  1  0
 17 18  1  0
 18 19  1  0
 19 20  1  0
 20 21  2  0
 20 22  1  0
 22 23  1  0
 23 24  1  0
 24 25  1  0
 25 26  1  0
 26 27  1  0
 27 28  1  0
  9  4  1  0
 16 11  1  0
 28 23  1  0
M  END
