CVD-0000067|dock_bobby27042020.85|mol2|35|dock2
     RDKit          3D

 17 18  0  0  0  0  0  0  0  0999 V2000
    9.9800    5.9530   22.8591 C   0  0  0  0  0  0  0  0  0  0  0  0
    9.6958    4.5724   22.6405 O   0  0  0  0  0  0  0  0  0  0  0  0
   10.7060    3.6425   22.6452 C   0  0  0  0  0  0  0  0  0  0  0  0
   12.0348    4.0115   22.4690 C   0  0  0  0  0  0  0  0  0  0  0  0
   13.0319    3.0512   22.4785 C   0  0  0  0  0  0  0  0  0  0  0  0
   12.6879    1.7181   22.6659 C   0  0  0  0  0  0  0  0  0  0  0  0
   13.4578    0.5821   22.7183 N   0  0  0  0  0  0  0  0  0  0  0  0
   12.6407   -0.4959   22.9242 C   0  0  0  0  0  0  0  0  0  0  0  0
   11.3398   -0.0955   23.0094 C   0  0  0  0  0  0  0  0  0  0  0  0
   10.1320   -0.9585   23.2300 C   0  0  0  0  0  0  0  0  0  0  0  0
   10.0488   -2.1201   22.2600 C   0  0  0  0  0  0  0  0  0  0  0  0
    9.5682   -1.7012   20.9511 N   0  0  0  0  0  0  0  0  0  0  0  0
    8.3063   -1.3251   20.7346 C   0  0  0  0  0  0  0  0  0  0  0  0
    7.9739   -0.9039   19.3333 C   0  0  0  0  0  0  0  0  0  0  0  0
    7.4703   -1.3102   21.6326 O   0  0  0  0  0  0  0  0  0  0  0  0
   11.3483    1.3301   22.8453 C   0  0  0  0  0  0  0  0  0  0  0  0
   10.3596    2.3121   22.8325 C   0  0  0  0  0  0  0  0  0  0  0  0
  1  2  1  0
  2  3  1  0
  3  4  2  0
  4  5  1  0
  5  6  2  0
  6  7  1  0
  7  8  1  0
  8  9  2  0
  9 10  1  0
 10 11  1  0
 11 12  1  0
 12 13  1  0
 13 14  1  0
 13 15  2  0
  9 16  1  0
 16 17  2  0
 17  3  1  0
 16  6  1  0
M  END
