CVD-0002647|dock_bobby27042020.76|mol2|28|dock3
     RDKit          3D

 22 23  0  0  0  0  0  0  0  0999 V2000
    7.7049   -3.6048   22.1521 C   0  0  0  0  0  0  0  0  0  0  0  0
    6.8155   -3.0017   21.1048 C   0  0  0  0  0  0  0  0  0  0  0  0
    5.9449   -3.6708   20.5588 O   0  0  0  0  0  0  0  0  0  0  0  0
    7.0886   -1.6971   20.8407 N   0  0  0  0  0  0  0  0  0  0  0  0
    6.4949   -0.7854   19.9241 C   0  0  0  0  0  0  0  0  0  0  0  0
    6.0778   -1.1429   18.6425 C   0  0  0  0  0  0  0  0  0  0  0  0
    5.5292   -0.2916   17.7713 N   0  0  0  0  0  0  0  0  0  0  0  0
    5.3971    0.9767   18.1486 C   0  0  0  0  0  0  0  0  0  0  0  0
    5.7717    1.4412   19.3900 C   0  0  0  0  0  0  0  0  0  0  0  0
    6.3155    0.5548   20.3168 C   0  0  0  0  0  0  0  0  0  0  0  0
    6.6749    1.0851   21.6915 C   0  0  0  0  0  0  0  0  0  0  0  0
    7.9712    1.8826   21.7658 C   0  0  0  0  0  0  0  0  0  0  0  0
    8.2699    2.3842   23.1748 C   0  0  0  0  0  0  0  0  0  0  0  0
    8.9619    1.3590   24.0178 C   0  0  0  0  0  0  0  0  0  0  0  0
   10.2090    0.9827   23.7897 C   0  0  0  0  0  0  0  0  0  0  0  0
   10.8570    0.0873   24.5024 N   0  0  0  0  0  0  0  0  0  0  0  0
   12.2445   -0.3262   24.2425 C   0  0  0  0  0  0  0  0  0  0  0  0
   12.8205   -1.1230   25.4311 C   0  0  0  0  0  0  0  0  0  0  0  0
   14.2365   -1.6293   25.1621 C   0  0  0  0  0  0  0  0  0  0  0  0
   14.3015   -2.4349   23.8710 C   0  0  0  0  0  0  0  0  0  0  0  0
   13.7615   -1.6331   22.6955 C   0  0  0  0  0  0  0  0  0  0  0  0
   12.3334   -1.1651   22.9562 C   0  0  0  0  0  0  0  0  0  0  0  0
  1  2  1  0
  2  3  2  0
  2  4  1  0
  4  5  1  0
  5  6  2  0
  6  7  1  0
  7  8  2  0
  8  9  1  0
  9 10  2  0
 10 11  1  0
 11 12  1  0
 12 13  1  0
 13 14  1  0
 14 15  2  0
 15 16  1  0
 16 17  1  0
 17 18  1  0
 18 19  1  0
 19 20  1  0
 20 21  1  0
 21 22  1  0
 10  5  1  0
 22 17  1  0
M  END
