CVD-0000253|dock_bobby27042020.13|mol2|32|dock2
     RDKit          3D

 32 36  0  0  0  0  0  0  0  0999 V2000
    5.1380    0.4072   21.6048 C   0  0  0  0  0  0  0  0  0  0  0  0
    5.3199   -0.0006   20.1760 C   0  0  0  0  0  0  0  0  0  0  0  0
    5.0008    0.9312   19.2124 N   0  0  0  0  0  0  0  0  0  0  0  0
    5.2038    0.4648   18.0195 C   0  0  0  0  0  0  0  0  0  0  0  0
    5.8016   -1.1408   17.9480 S   0  0  0  0  0  0  0  0  0  0  0  0
    5.7731   -1.2030   19.6738 C   0  0  0  0  0  0  0  0  0  0  0  0
    6.1836   -2.4100   20.4007 C   0  0  0  0  0  0  0  0  0  0  0  0
    5.5916   -3.5734   20.1931 N   0  0  0  0  0  0  0  0  0  0  0  0
    6.2185   -4.4769   21.0403 C   0  0  0  0  0  0  0  0  0  0  0  0
    5.9968   -5.8392   21.2359 C   0  0  0  0  0  0  0  0  0  0  0  0
    6.7758   -6.5123   22.1646 C   0  0  0  0  0  0  0  0  0  0  0  0
    7.7536   -5.8551   22.8859 C   0  0  0  0  0  0  0  0  0  0  0  0
    7.9881   -4.5015   22.7017 C   0  0  0  0  0  0  0  0  0  0  0  0
    7.2082   -3.8287   21.7690 C   0  0  0  0  0  0  0  0  0  0  0  0
    7.1926   -2.4999   21.3508 N   0  0  0  0  0  0  0  0  0  0  0  0
    8.0875   -1.5032   21.9299 C   0  0  0  0  0  0  0  0  0  0  0  0
    7.8867   -1.3898   23.4420 C   0  0  0  0  0  0  0  0  0  0  0  0
    6.8219   -1.7777   23.9068 O   0  0  0  0  0  0  0  0  0  0  0  0
    8.8964   -0.8733   24.2109 N   0  0  0  0  0  0  0  0  0  0  0  0
    8.6638   -0.7837   25.6559 C   0  0  0  0  0  0  0  0  0  0  0  0
    8.3392   -2.1085   26.2587 C   0  0  0  0  0  0  0  0  0  0  0  0
    8.0103   -3.2021   25.5865 N   0  0  0  0  0  0  0  0  0  0  0  0
    7.7962   -4.1662   26.5423 C   0  0  0  0  0  0  0  0  0  0  0  0
    7.9949   -3.6477   27.7747 C   0  0  0  0  0  0  0  0  0  0  0  0
    8.3385   -2.3394   27.5826 N   0  0  0  0  0  0  0  0  0  0  0  0
   10.1709   -0.4462   23.6873 C   0  0  0  0  0  0  0  0  0  0  0  0
   10.4084    0.8800   23.3583 C   0  0  0  0  0  0  0  0  0  0  0  0
   11.5793    1.3200   22.8881 N   0  0  0  0  0  0  0  0  0  0  0  0
   12.5569    0.4298   22.7016 C   0  0  0  0  0  0  0  0  0  0  0  0
   12.4320   -0.9188   22.9835 C   0  0  0  0  0  0  0  0  0  0  0  0
   13.5703   -1.8832   22.7549 C   0  0  0  0  0  0  0  0  0  0  0  0
   11.2159   -1.3445   23.4928 C   0  0  0  0  0  0  0  0  0  0  0  0
  1  2  1  0
  2  3  1  0
  3  4  2  0
  4  5  1  0
  5  6  1  0
  6  7  1  0
  7  8  2  0
  8  9  1  0
  9 10  2  0
 10 11  1  0
 11 12  2  0
 12 13  1  0
 13 14  2  0
 14 15  1  0
 15 16  1  0
 16 17  1  0
 17 18  2  0
 17 19  1  0
 19 20  1  0
 20 21  1  0
 21 22  2  0
 22 23  1  0
 23 24  2  0
 24 25  1  0
 19 26  1  0
 26 27  2  0
 27 28  1  0
 28 29  2  0
 29 30  1  0
 30 31  1  0
 30 32  2  0
  6  2  2  0
 15  7  1  0
 25 21  1  0
 32 26  1  0
 14  9  1  0
M  END
