CVD-0003307|dock_bobby27042020.16|mol2|52|dock2
     RDKit          3D

 35 38  0  0  0  0  0  0  0  0999 V2000
   10.0022   -0.8687   25.4486 O   0  0  0  0  0  0  0  0  0  0  0  0
   10.5378   -1.3825   24.4745 C   0  0  0  0  0  0  0  0  0  0  0  0
    9.6755   -2.1124   23.4455 C   0  0  0  0  0  0  0  0  0  0  0  0
    8.2588   -1.9114   23.7019 N   0  0  0  0  0  0  0  0  0  0  0  0
    7.4977   -3.1237   24.0111 C   0  0  0  0  0  0  0  0  0  0  0  0
    7.1440   -3.9296   22.7844 C   0  0  0  0  0  0  0  0  0  0  0  0
    7.4076   -5.2870   22.7121 C   0  0  0  0  0  0  0  0  0  0  0  0
    7.0726   -5.9933   21.5701 C   0  0  0  0  0  0  0  0  0  0  0  0
    6.4811   -5.3134   20.5299 C   0  0  0  0  0  0  0  0  0  0  0  0
    6.2157   -4.0067   20.5693 N   0  0  0  0  0  0  0  0  0  0  0  0
    6.5483   -3.3456   21.6823 C   0  0  0  0  0  0  0  0  0  0  0  0
    7.6671   -0.6831   23.6541 C   0  0  0  0  0  0  0  0  0  0  0  0
    6.4802   -0.5807   23.9392 O   0  0  0  0  0  0  0  0  0  0  0  0
    8.3875    0.3983   23.2966 N   0  0  0  0  0  0  0  0  0  0  0  0
    7.7749    1.7221   23.1842 C   0  0  0  0  0  0  0  0  0  0  0  0
    8.2138    2.4272   21.9025 C   0  0  0  0  0  0  0  0  0  0  0  0
    7.6925    3.8399   21.8142 C   0  0  0  0  0  0  0  0  0  0  0  0
    8.1305    4.6059   22.9943 N   0  0  0  0  0  0  0  0  0  0  0  0
    7.5950    4.0120   24.2366 C   0  0  0  0  0  0  0  0  0  0  0  0
    8.1133    2.6057   24.3833 C   0  0  0  0  0  0  0  0  0  0  0  0
    8.4008    6.2101   22.8887 S   0  0  0  0  0  0  0  0  0  0  0  0
    7.3187    6.8505   23.5696 O   0  0  0  0  0  0  0  0  0  0  0  0
    8.6385    6.4908   21.5068 O   0  0  0  0  0  0  0  0  0  0  0  0
    9.8813    6.5487   23.7769 C   0  0  0  0  0  0  0  0  0  0  0  0
    9.8554    7.4434   24.8345 C   0  0  0  0  0  0  0  0  0  0  0  0
   11.0270    7.7069   25.5242 C   0  0  0  0  0  0  0  0  0  0  0  0
   12.2044    7.0878   25.1623 C   0  0  0  0  0  0  0  0  0  0  0  0
   12.2216    6.2005   24.1074 C   0  0  0  0  0  0  0  0  0  0  0  0
   11.0605    5.9236   23.4051 C   0  0  0  0  0  0  0  0  0  0  0  0
   11.8756   -1.3148   24.2820 N   0  0  0  0  0  0  0  0  0  0  0  0
   12.5469   -1.9326   23.1324 C   0  0  0  0  0  0  0  0  0  0  0  0
   13.7745   -2.6889   23.5974 C   0  0  0  0  0  0  0  0  0  0  0  0
   14.6594   -1.8625   24.3263 O   0  0  0  0  0  0  0  0  0  0  0  0
   14.0020   -1.3335   25.4783 C   0  0  0  0  0  0  0  0  0  0  0  0
   12.7949   -0.5085   25.0907 C   0  0  0  0  0  0  0  0  0  0  0  0
  1  2  2  0
  2  3  1  0
  3  4  1  0
  4  5  1  0
  5  6  1  0
  6  7  2  0
  7  8  1  0
  8  9  2  0
  9 10  1  0
 10 11  2  0
  4 12  1  0
 12 13  2  0
 12 14  1  0
 14 15  1  0
 15 16  1  0
 16 17  1  0
 17 18  1  0
 18 19  1  0
 19 20  1  0
 18 21  1  0
 21 22  2  0
 21 23  2  0
 21 24  1  0
 24 25  2  0
 25 26  1  0
 26 27  2  0
 27 28  1  0
 28 29  2  0
  2 30  1  0
 30 31  1  0
 31 32  1  0
 32 33  1  0
 33 34  1  0
 34 35  1  0
 11  6  1  0
 20 15  1  0
 29 24  1  0
 35 30  1  0
M  END
