CVD-0002797|dock_bobby27042020.47|mol2|20|dock3
     RDKit          3D

 22 24  0  0  0  0  0  0  0  0999 V2000
    9.8115    0.5512   21.1421 O   0  0  0  0  0  0  0  0  0  0  0  0
   10.6187   -0.0384   21.8503 C   0  0  0  0  0  0  0  0  0  0  0  0
   10.6246   -1.5557   21.8622 C   0  0  0  0  0  0  0  0  0  0  0  0
    9.2388   -2.1432   22.0053 C   0  0  0  0  0  0  0  0  0  0  0  0
    8.9273   -2.9719   23.0720 C   0  0  0  0  0  0  0  0  0  0  0  0
    7.6571   -3.5076   23.2049 C   0  0  0  0  0  0  0  0  0  0  0  0
    6.6835   -3.2197   22.2729 C   0  0  0  0  0  0  0  0  0  0  0  0
    6.9798   -2.3961   21.2081 C   0  0  0  0  0  0  0  0  0  0  0  0
    8.2501   -1.8606   21.0756 C   0  0  0  0  0  0  0  0  0  0  0  0
   11.5539    0.6385   22.6700 N   0  0  0  0  0  0  0  0  0  0  0  0
   11.5325    2.0609   22.9042 C   0  0  0  0  0  0  0  0  0  0  0  0
   10.5695    2.7229   22.5360 O   0  0  0  0  0  0  0  0  0  0  0  0
   12.5630    2.6783   23.5187 N   0  0  0  0  0  0  0  0  0  0  0  0
   12.5453    4.1227   23.7499 C   0  0  0  0  0  0  0  0  0  0  0  0
   13.1011    4.6419   22.2923 C   0  0  0  0  0  0  0  0  0  0  0  0
   11.9512    5.3124   22.9527 C   0  0  0  0  0  0  0  0  0  0  0  0
   12.5858   -0.1313   23.3284 C   0  0  0  0  0  0  0  0  0  0  0  0
   12.6407   -0.2412   24.7112 C   0  0  0  0  0  0  0  0  0  0  0  0
   13.6508   -0.9912   25.2873 C   0  0  0  0  0  0  0  0  0  0  0  0
   14.5675   -1.6031   24.4629 C   0  0  0  0  0  0  0  0  0  0  0  0
   14.5335   -1.5109   23.1326 N   0  0  0  0  0  0  0  0  0  0  0  0
   13.5545   -0.7844   22.5846 C   0  0  0  0  0  0  0  0  0  0  0  0
  1  2  2  0
  2  3  1  0
  3  4  1  0
  4  5  2  0
  5  6  1  0
  6  7  2  0
  7  8  1  0
  8  9  2  0
  2 10  1  0
 10 11  1  0
 11 12  2  0
 11 13  1  0
 13 14  1  0
 14 15  1  0
 15 16  1  0
 10 17  1  0
 17 18  2  0
 18 19  1  0
 19 20  2  0
 20 21  1  0
 21 22  2  0
  9  4  1  0
 16 14  1  0
 22 17  1  0
M  END
