CVD-0002515|dock_bobby27042020.91|mol2|13|dock3
     RDKit          3D

 29 32  0  0  0  0  0  0  0  0999 V2000
    4.1796    3.7040   22.4403 C   0  0  0  0  0  0  0  0  0  0  0  0
    4.9485    2.5480   23.0098 C   0  0  0  0  0  0  0  0  0  0  0  0
    4.3620    1.6276   23.5683 O   0  0  0  0  0  0  0  0  0  0  0  0
    6.2996    2.5765   22.8887 N   0  0  0  0  0  0  0  0  0  0  0  0
    7.0168    3.6630   22.2179 C   0  0  0  0  0  0  0  0  0  0  0  0
    8.0654    4.2553   23.1410 C   0  0  0  0  0  0  0  0  0  0  0  0
    9.0065    3.2173   23.5718 N   0  0  0  0  0  0  0  0  0  0  0  0
    9.8878    2.7203   22.5123 C   0  0  0  0  0  0  0  0  0  0  0  0
   11.2589    3.3287   22.5471 C   0  0  0  0  0  0  0  0  0  0  0  0
   12.4592    2.6576   22.4496 C   0  0  0  0  0  0  0  0  0  0  0  0
   13.5558    3.5508   22.5186 C   0  0  0  0  0  0  0  0  0  0  0  0
   13.1904    4.8353   22.6604 C   0  0  0  0  0  0  0  0  0  0  0  0
   11.4941    5.0085   22.7157 S   0  0  0  0  0  0  0  0  0  0  0  0
    8.2725    2.1738   24.2831 C   0  0  0  0  0  0  0  0  0  0  0  0
    7.2203    1.5492   23.3852 C   0  0  0  0  0  0  0  0  0  0  0  0
    7.8225    0.6939   22.2641 C   0  0  0  0  0  0  0  0  0  0  0  0
    6.7340   -0.1757   21.5527 C   0  0  0  0  0  0  0  0  0  0  0  0
    5.6484    0.6239   21.0822 O   0  0  0  0  0  0  0  0  0  0  0  0
    6.1967   -1.2833   22.4758 C   0  0  0  0  0  0  0  0  0  0  0  0
    7.3592   -2.0566   23.0959 C   0  0  0  0  0  0  0  0  0  0  0  0
    8.3311   -1.1085   23.7815 C   0  0  0  0  0  0  0  0  0  0  0  0
    8.8702   -0.1469   22.8224 N   0  0  0  0  0  0  0  0  0  0  0  0
    9.9367   -0.6223   21.9239 C   0  0  0  0  0  0  0  0  0  0  0  0
   11.2949   -0.8550   22.5436 C   0  0  0  0  0  0  0  0  0  0  0  0
   11.5767   -0.4244   23.8312 C   0  0  0  0  0  0  0  0  0  0  0  0
   12.8203   -0.6484   24.3981 C   0  0  0  0  0  0  0  0  0  0  0  0
   13.7975   -1.3086   23.6850 C   0  0  0  0  0  0  0  0  0  0  0  0
   13.5303   -1.7458   22.4056 C   0  0  0  0  0  0  0  0  0  0  0  0
   12.2865   -1.5214   21.8393 C   0  0  0  0  0  0  0  0  0  0  0  0
  1  2  1  0
  2  3  2  0
  2  4  1  0
  4  5  1  0
  5  6  1  0
  6  7  1  0
  7  8  1  0
  8  9  1  0
  9 10  2  0
 10 11  1  0
 11 12  2  0
 12 13  1  0
  7 14  1  0
 14 15  1  0
 15 16  1  0
 16 17  1  0
 17 18  1  0
 17 19  1  0
 19 20  1  0
 20 21  1  0
 21 22  1  0
 22 23  1  0
 23 24  1  0
 24 25  2  0
 25 26  1  0
 26 27  2  0
 27 28  1  0
 28 29  2  0
 15  4  1  0
 22 16  1  0
 29 24  1  0
 13  9  1  0
M  END
