CVD-0003913|dock_bobby27042020.0|mol2|26|dock2
     RDKit          3D

 22 25  0  0  0  0  0  0  0  0999 V2000
   12.4216    3.4623   22.0675 C   0  0  0  0  0  0  0  0  0  0  0  0
   12.8936    2.3541   23.0057 C   0  0  0  0  0  0  0  0  0  0  0  0
   12.5430    0.9756   22.5002 C   0  0  0  0  0  0  0  0  0  0  0  0
   13.4075   -0.0945   22.6649 C   0  0  0  0  0  0  0  0  0  0  0  0
   13.0441   -1.3367   22.1822 C   0  0  0  0  0  0  0  0  0  0  0  0
   11.8884   -1.5834   21.5516 N   0  0  0  0  0  0  0  0  0  0  0  0
   11.0550   -0.5444   21.3927 C   0  0  0  0  0  0  0  0  0  0  0  0
   11.3400    0.7434   21.8477 C   0  0  0  0  0  0  0  0  0  0  0  0
    9.7975   -0.8431   20.6978 C   0  0  0  0  0  0  0  0  0  0  0  0
    9.1487    0.0039   19.9512 N   0  0  0  0  0  0  0  0  0  0  0  0
    7.9921   -0.5683   19.4275 C   0  0  0  0  0  0  0  0  0  0  0  0
    7.0548    0.0372   18.5883 C   0  0  0  0  0  0  0  0  0  0  0  0
    5.9510   -0.6818   18.1557 C   0  0  0  0  0  0  0  0  0  0  0  0
    5.7608   -1.9922   18.5413 C   0  0  0  0  0  0  0  0  0  0  0  0
    6.6756   -2.6146   19.3724 C   0  0  0  0  0  0  0  0  0  0  0  0
    7.7858   -1.8990   19.8105 C   0  0  0  0  0  0  0  0  0  0  0  0
    9.0746   -2.4335   20.8487 S   0  0  0  0  0  0  0  0  0  0  0  0
   13.0681    4.7878   22.3673 C   0  0  0  0  0  0  0  0  0  0  0  0
   14.2663    5.3186   21.8352 C   0  0  0  0  0  0  0  0  0  0  0  0
   14.5272    6.5170   22.3414 N   0  0  0  0  0  0  0  0  0  0  0  0
   13.5112    6.7612   23.1956 N   0  0  0  0  0  0  0  0  0  0  0  0
   12.6294    5.7561   23.2368 C   0  0  0  0  0  0  0  0  0  0  0  0
  1  2  1  0
  2  3  1  0
  3  4  2  0
  4  5  1  0
  5  6  2  0
  6  7  1  0
  7  8  2  0
  7  9  1  0
  9 10  2  0
 10 11  1  0
 11 12  2  0
 12 13  1  0
 13 14  2  0
 14 15  1  0
 15 16  2  0
 16 17  1  0
  1 18  1  0
 18 19  1  0
 19 20  2  0
 20 21  1  0
 21 22  1  0
  8  3  1  0
 17  9  1  0
 22 18  2  0
 16 11  1  0
M  END
