CVD-0002325|dock_bobby27042020.92|mol2|3|dock3
     RDKit          3D

 32 35  0  0  0  0  0  0  0  0999 V2000
    3.9448   -6.3862   22.6341 C   0  0  0  0  0  0  0  0  0  0  0  0
    5.2591   -6.3003   21.9138 C   0  0  0  0  0  0  0  0  0  0  0  0
    5.4064   -6.8703   20.8384 O   0  0  0  0  0  0  0  0  0  0  0  0
    6.2861   -5.6007   22.4679 N   0  0  0  0  0  0  0  0  0  0  0  0
    7.6275   -5.4342   21.8998 C   0  0  0  0  0  0  0  0  0  0  0  0
    8.0610   -3.9932   21.9728 C   0  0  0  0  0  0  0  0  0  0  0  0
    8.0161   -3.5024   23.3600 N   0  0  0  0  0  0  0  0  0  0  0  0
    6.6356   -3.6212   23.8316 C   0  0  0  0  0  0  0  0  0  0  0  0
    6.1810   -5.0612   23.8223 C   0  0  0  0  0  0  0  0  0  0  0  0
    8.4817   -2.1150   23.4469 C   0  0  0  0  0  0  0  0  0  0  0  0
   10.0083   -1.9797   23.6327 C   0  0  0  0  0  0  0  0  0  0  0  0
   10.6317   -3.0228   23.6905 O   0  0  0  0  0  0  0  0  0  0  0  0
   10.6767   -0.7724   23.6945 N   0  0  0  0  0  0  0  0  0  0  0  0
   12.1723   -0.6723   23.8001 C   0  0  0  0  0  0  0  0  0  0  0  0
   12.6617   -0.8443   25.2396 C   0  0  0  0  0  0  0  0  0  0  0  0
   13.8773   -2.1970   25.1942 S   0  0  0  0  0  0  0  0  0  0  0  0
   13.3747   -3.3746   25.8468 O   0  0  0  0  0  0  0  0  0  0  0  0
   15.1776   -1.7352   25.5966 O   0  0  0  0  0  0  0  0  0  0  0  0
   13.8448   -2.3886   23.4500 C   0  0  0  0  0  0  0  0  0  0  0  0
   12.9365   -1.5774   22.8944 C   0  0  0  0  0  0  0  0  0  0  0  0
    9.9591    0.4733   23.7141 C   0  0  0  0  0  0  0  0  0  0  0  0
   10.0108    1.3717   22.6521 C   0  0  0  0  0  0  0  0  0  0  0  0
    9.3031    2.5603   22.6848 C   0  0  0  0  0  0  0  0  0  0  0  0
    8.5546    2.8439   23.7928 C   0  0  0  0  0  0  0  0  0  0  0  0
    7.8567    4.0110   23.8292 F   0  0  0  0  0  0  0  0  0  0  0  0
    8.4804    2.0005   24.8659 C   0  0  0  0  0  0  0  0  0  0  0  0
    9.1883    0.8126   24.8206 C   0  0  0  0  0  0  0  0  0  0  0  0
    8.0849   -1.3132   22.2290 C   0  0  0  0  0  0  0  0  0  0  0  0
    8.8159   -1.1338   21.0601 C   0  0  0  0  0  0  0  0  0  0  0  0
    8.1140   -0.3167   20.1411 C   0  0  0  0  0  0  0  0  0  0  0  0
    6.9183    0.0961   20.5944 C   0  0  0  0  0  0  0  0  0  0  0  0
    6.5905   -0.4914   22.1628 S   0  0  0  0  0  0  0  0  0  0  0  0
  1  2  1  0
  2  3  2  0
  2  4  1  0
  4  5  1  0
  5  6  1  0
  6  7  1  0
  7  8  1  0
  8  9  1  0
  7 10  1  0
 10 11  1  0
 11 12  2  0
 11 13  1  0
 13 14  1  0
 14 15  1  0
 15 16  1  0
 16 17  2  0
 16 18  2  0
 16 19  1  0
 19 20  2  0
 13 21  1  0
 21 22  2  0
 22 23  1  0
 23 24  2  0
 24 25  1  0
 24 26  1  0
 26 27  2  0
 10 28  1  0
 28 29  2  0
 29 30  1  0
 30 31  2  0
 31 32  1  0
  9  4  1  0
 20 14  1  0
 27 21  1  0
 32 28  1  0
M  END
