CVD-0002036|dock_bobby27042020.93|mol2|14|dock2
     RDKit          3D

 26 28  0  0  0  0  0  0  0  0999 V2000
    9.8810    5.1395   23.2434 C   0  0  0  0  0  0  0  0  0  0  0  0
    8.6768    6.0310   23.0777 C   0  0  0  0  0  0  0  0  0  0  0  0
    8.6990    7.2825   23.6860 C   0  0  0  0  0  0  0  0  0  0  0  0
    7.6147    8.1217   23.5659 C   0  0  0  0  0  0  0  0  0  0  0  0
    6.5210    7.7980   22.8831 N   0  0  0  0  0  0  0  0  0  0  0  0
    6.4915    6.6022   22.2866 C   0  0  0  0  0  0  0  0  0  0  0  0
    7.5270    5.6674   22.3478 C   0  0  0  0  0  0  0  0  0  0  0  0
    7.5000    4.3847   21.7268 N   0  0  0  0  0  0  0  0  0  0  0  0
    6.4655    3.5148   21.5452 C   0  0  0  0  0  0  0  0  0  0  0  0
    5.3202    3.7354   21.9235 O   0  0  0  0  0  0  0  0  0  0  0  0
    6.7167    2.2024   20.8477 C   0  0  0  0  0  0  0  0  0  0  0  0
    5.8492    1.6331   19.9162 C   0  0  0  0  0  0  0  0  0  0  0  0
    6.1536    0.4234   19.3171 C   0  0  0  0  0  0  0  0  0  0  0  0
    7.3222   -0.2482   19.6295 C   0  0  0  0  0  0  0  0  0  0  0  0
    8.2046    0.2965   20.5574 C   0  0  0  0  0  0  0  0  0  0  0  0
    9.4230   -0.3207   20.9394 N   0  0  0  0  0  0  0  0  0  0  0  0
   10.1579   -0.2228   22.0991 C   0  0  0  0  0  0  0  0  0  0  0  0
    9.8480    0.4707   23.0621 O   0  0  0  0  0  0  0  0  0  0  0  0
   11.2889   -1.0047   22.0407 N   0  0  0  0  0  0  0  0  0  0  0  0
   12.3188   -1.2076   22.9937 C   0  0  0  0  0  0  0  0  0  0  0  0
   12.5146   -0.4160   24.1216 C   0  0  0  0  0  0  0  0  0  0  0  0
   13.5569   -0.7111   24.9837 C   0  0  0  0  0  0  0  0  0  0  0  0
   14.3716   -1.7824   24.6991 C   0  0  0  0  0  0  0  0  0  0  0  0
   14.2094   -2.5582   23.6278 N   0  0  0  0  0  0  0  0  0  0  0  0
   13.2007   -2.2651   22.8022 C   0  0  0  0  0  0  0  0  0  0  0  0
    7.8883    1.5135   21.1523 C   0  0  0  0  0  0  0  0  0  0  0  0
  1  2  1  0
  2  3  2  0
  3  4  1  0
  4  5  2  0
  5  6  1  0
  6  7  2  0
  7  8  1  0
  8  9  1  0
  9 10  2  0
  9 11  1  0
 11 12  2  0
 12 13  1  0
 13 14  2  0
 14 15  1  0
 15 16  1  0
 16 17  1  0
 17 18  2  0
 17 19  1  0
 19 20  1  0
 20 21  2  0
 21 22  1  0
 22 23  2  0
 23 24  1  0
 24 25  2  0
 15 26  2  0
  7  2  1  0
 26 11  1  0
 25 20  1  0
M  END
