CVD-0003305|dock_bobby27042020.45|mol2|39|dock2
     RDKit          3D

 13 13  0  0  0  0  0  0  0  0999 V2000
   13.9581    6.0494   22.1552 C   0  0  0  0  0  0  0  0  0  0  0  0
   13.9245    4.6121   22.3209 O   0  0  0  0  0  0  0  0  0  0  0  0
   12.7127    4.0645   22.3925 C   0  0  0  0  0  0  0  0  0  0  0  0
   11.6744    4.6959   22.2877 O   0  0  0  0  0  0  0  0  0  0  0  0
   12.7476    2.5862   22.6161 C   0  0  0  0  0  0  0  0  0  0  0  0
   11.5799    1.8910   22.9049 C   0  0  0  0  0  0  0  0  0  0  0  0
   11.6045    0.5237   23.1129 C   0  0  0  0  0  0  0  0  0  0  0  0
   12.7935   -0.1939   23.0398 C   0  0  0  0  0  0  0  0  0  0  0  0
   13.9624    0.5060   22.7502 C   0  0  0  0  0  0  0  0  0  0  0  0
   13.9392    1.8739   22.5418 C   0  0  0  0  0  0  0  0  0  0  0  0
   12.7710   -1.6804   23.2736 C   0  0  0  0  0  0  0  0  0  0  0  0
   13.8334   -2.2903   23.7855 N   0  0  0  0  0  0  0  0  0  0  0  0
   11.7472   -2.3070   22.9783 O   0  0  0  0  0  0  0  0  0  0  0  0
  1  2  1  0
  2  3  1  0
  3  4  2  0
  3  5  1  0
  5  6  2  0
  6  7  1  0
  7  8  2  0
  8  9  1  0
  9 10  2  0
  8 11  1  0
 11 12  1  0
 11 13  2  0
 10  5  1  0
M  END
