CVD-0003024|dock_bobby27042020.75|mol2|13|dock2
     RDKit          3D

 22 24  0  0  0  0  0  0  0  0999 V2000
   13.4836    3.1977   22.4938 C   0  0  0  0  0  0  0  0  0  0  0  0
   14.0124    1.8032   22.6582 C   0  0  0  0  0  0  0  0  0  0  0  0
   15.1865    1.5352   22.4296 O   0  0  0  0  0  0  0  0  0  0  0  0
   13.1536    0.8445   23.0830 N   0  0  0  0  0  0  0  0  0  0  0  0
   11.7426    1.1127   23.3698 C   0  0  0  0  0  0  0  0  0  0  0  0
   10.8532    0.1647   22.5870 C   0  0  0  0  0  0  0  0  0  0  0  0
   11.1813   -1.2259   22.9148 N   0  0  0  0  0  0  0  0  0  0  0  0
   10.2954   -2.1481   22.1890 C   0  0  0  0  0  0  0  0  0  0  0  0
    8.8347   -1.7735   22.2706 C   0  0  0  0  0  0  0  0  0  0  0  0
    8.0475   -2.2272   23.3144 C   0  0  0  0  0  0  0  0  0  0  0  0
    6.7117   -1.8778   23.3816 C   0  0  0  0  0  0  0  0  0  0  0  0
    6.1497   -1.0727   22.4052 C   0  0  0  0  0  0  0  0  0  0  0  0
    6.9204   -0.6006   21.3471 C   0  0  0  0  0  0  0  0  0  0  0  0
    8.2658   -0.9612   21.2979 C   0  0  0  0  0  0  0  0  0  0  0  0
    6.3635    0.2088   20.3658 N   0  0  0  0  0  0  0  0  0  0  0  0
    6.5759   -0.0734   18.9412 C   0  0  0  0  0  0  0  0  0  0  0  0
    5.2779    0.0545   18.1789 C   0  0  0  0  0  0  0  0  0  0  0  0
    4.6297    1.4096   18.4024 C   0  0  0  0  0  0  0  0  0  0  0  0
    4.4422    1.6690   19.8942 C   0  0  0  0  0  0  0  0  0  0  0  0
    5.7514    1.5075   20.6490 C   0  0  0  0  0  0  0  0  0  0  0  0
   12.5776   -1.4802   22.5699 C   0  0  0  0  0  0  0  0  0  0  0  0
   13.4997   -0.5560   23.3443 C   0  0  0  0  0  0  0  0  0  0  0  0
  1  2  1  0
  2  3  2  0
  2  4  1  0
  4  5  1  0
  5  6  1  0
  6  7  1  0
  7  8  1  0
  8  9  1  0
  9 10  2  0
 10 11  1  0
 11 12  2  0
 12 13  1  0
 13 14  2  0
 13 15  1  0
 15 16  1  0
 16 17  1  0
 17 18  1  0
 18 19  1  0
 19 20  1  0
  7 21  1  0
 21 22  1  0
 22  4  1  0
 14  9  1  0
 20 15  1  0
M  END
