CVD-0003542|dock_bobby27042020.87|mol2|33|dock2
     RDKit          3D

 29 32  0  0  0  0  0  0  0  0999 V2000
    5.5093    0.9975   17.2538 F   0  0  0  0  0  0  0  0  0  0  0  0
    4.9677    1.1280   18.4864 C   0  0  0  0  0  0  0  0  0  0  0  0
    4.1618    2.2174   18.7163 C   0  0  0  0  0  0  0  0  0  0  0  0
    3.5903    2.3704   19.9674 C   0  0  0  0  0  0  0  0  0  0  0  0
    3.8263    1.4394   20.9644 C   0  0  0  0  0  0  0  0  0  0  0  0
    4.6387    0.3635   20.6933 C   0  0  0  0  0  0  0  0  0  0  0  0
    4.8345   -0.5224   21.6964 F   0  0  0  0  0  0  0  0  0  0  0  0
    5.2502    0.1604   19.4522 C   0  0  0  0  0  0  0  0  0  0  0  0
    6.3208   -1.2328   19.0777 S   0  0  0  0  0  0  0  0  0  0  0  0
    7.0038   -1.0206   17.8394 O   0  0  0  0  0  0  0  0  0  0  0  0
    5.5730   -2.4357   19.2750 O   0  0  0  0  0  0  0  0  0  0  0  0
    7.4523   -1.1675   20.2514 N   0  0  0  0  0  0  0  0  0  0  0  0
    7.3900   -2.1939   21.3015 C   0  0  0  0  0  0  0  0  0  0  0  0
    8.7327   -2.3087   21.9518 C   0  0  0  0  0  0  0  0  0  0  0  0
    9.1700   -1.0173   22.4558 N   0  0  0  0  0  0  0  0  0  0  0  0
    9.1631    0.0507   21.4513 C   0  0  0  0  0  0  0  0  0  0  0  0
    7.8174    0.1487   20.7958 C   0  0  0  0  0  0  0  0  0  0  0  0
    9.5727   -0.8872   23.7409 C   0  0  0  0  0  0  0  0  0  0  0  0
    9.5981   -1.8466   24.5017 O   0  0  0  0  0  0  0  0  0  0  0  0
    9.9900    0.4817   24.2497 C   0  0  0  0  0  0  0  0  0  0  0  0
   11.2484    0.9988   23.6196 C   0  0  0  0  0  0  0  0  0  0  0  0
   12.3602    0.2812   23.2886 C   0  0  0  0  0  0  0  0  0  0  0  0
   13.3104    1.0949   22.7314 N   0  0  0  0  0  0  0  0  0  0  0  0
   12.8231    2.3683   22.6921 C   0  0  0  0  0  0  0  0  0  0  0  0
   13.4421    3.4638   22.2206 N   0  0  0  0  0  0  0  0  0  0  0  0
   12.7525    4.6107   22.2909 C   0  0  0  0  0  0  0  0  0  0  0  0
   11.4790    4.7109   22.8089 C   0  0  0  0  0  0  0  0  0  0  0  0
   10.8551    3.5711   23.2911 C   0  0  0  0  0  0  0  0  0  0  0  0
   11.5296    2.3529   23.2407 C   0  0  0  0  0  0  0  0  0  0  0  0
  1  2  1  0
  2  3  2  0
  3  4  1  0
  4  5  2  0
  5  6  1  0
  6  7  1  0
  6  8  2  0
  8  9  1  0
  9 10  2  0
  9 11  2  0
  9 12  1  0
 12 13  1  0
 13 14  1  0
 14 15  1  0
 15 16  1  0
 16 17  1  0
 15 18  1  0
 18 19  2  0
 18 20  1  0
 20 21  1  0
 21 22  2  0
 22 23  1  0
 23 24  1  0
 24 25  2  0
 25 26  1  0
 26 27  2  0
 27 28  1  0
 28 29  2  0
  8  2  1  0
 17 12  1  0
 29 21  1  0
 29 24  1  0
M  END
