CVD-0003723|dock_bobby27042020.58|mol2|44|dock1
     RDKit          3D

 24 25  0  0  0  0  0  0  0  0999 V2000
    7.7164   -5.0651   25.0371 C   0  0  0  0  0  0  0  0  0  0  0  0
    8.7939   -4.2952   24.3132 C   0  0  0  0  0  0  0  0  0  0  0  0
   10.0923   -4.2760   24.7882 C   0  0  0  0  0  0  0  0  0  0  0  0
   11.0750   -3.5735   24.1213 C   0  0  0  0  0  0  0  0  0  0  0  0
   10.7990   -2.8673   22.9549 C   0  0  0  0  0  0  0  0  0  0  0  0
   11.9564   -2.1372   22.3065 C   0  0  0  0  0  0  0  0  0  0  0  0
   11.8876   -0.6339   22.5073 C   0  0  0  0  0  0  0  0  0  0  0  0
   13.1776   -0.0055   22.1959 N   0  0  0  0  0  0  0  0  0  0  0  0
   13.7147    1.2137   23.0886 S   0  0  0  0  0  0  0  0  0  0  0  0
   12.5500    2.5170   22.9822 C   0  0  0  0  0  0  0  0  0  0  0  0
   14.9333    1.6628   22.4892 O   0  0  0  0  0  0  0  0  0  0  0  0
   13.7493    0.7575   24.4438 O   0  0  0  0  0  0  0  0  0  0  0  0
    9.4830   -2.8778   22.4547 C   0  0  0  0  0  0  0  0  0  0  0  0
    9.2189   -2.1518   21.2575 N   0  0  0  0  0  0  0  0  0  0  0  0
    8.1099   -1.4207   20.8896 C   0  0  0  0  0  0  0  0  0  0  0  0
    7.1073   -1.2681   21.5788 O   0  0  0  0  0  0  0  0  0  0  0  0
    8.2650   -0.8751   19.6349 N   0  0  0  0  0  0  0  0  0  0  0  0
    7.3914   -0.0639   18.8672 C   0  0  0  0  0  0  0  0  0  0  0  0
    6.0572    0.1777   19.1820 C   0  0  0  0  0  0  0  0  0  0  0  0
    5.3017    0.9895   18.3534 C   0  0  0  0  0  0  0  0  0  0  0  0
    5.8938    1.5361   17.2385 C   0  0  0  0  0  0  0  0  0  0  0  0
    7.1680    1.3236   16.9109 N   0  0  0  0  0  0  0  0  0  0  0  0
    7.8884    0.5386   17.7170 C   0  0  0  0  0  0  0  0  0  0  0  0
    8.5055   -3.5940   23.1517 C   0  0  0  0  0  0  0  0  0  0  0  0
  1  2  1  0
  2  3  2  0
  3  4  1  0
  4  5  2  0
  5  6  1  0
  6  7  1  0
  7  8  1  0
  8  9  1  0
  9 10  1  0
  9 11  2  0
  9 12  2  0
  5 13  1  0
 13 14  1  0
 14 15  1  0
 15 16  2  0
 15 17  1  0
 17 18  1  0
 18 19  2  0
 19 20  1  0
 20 21  2  0
 21 22  1  0
 22 23  2  0
 13 24  2  0
 24  2  1  0
 23 18  1  0
M  END
