CVD-0000799|dock_bobby27042020.26|mol2|13|dock1
     RDKit          3D

 22 24  0  0  0  0  0  0  0  0999 V2000
    8.7999    4.6069   22.7091 C   0  0  0  0  0  0  0  0  0  0  0  0
   10.0174    3.8758   22.5751 O   0  0  0  0  0  0  0  0  0  0  0  0
    9.9972    2.5271   22.3187 C   0  0  0  0  0  0  0  0  0  0  0  0
    8.8502    1.8920   21.8544 C   0  0  0  0  0  0  0  0  0  0  0  0
    8.8587    0.5182   21.6229 C   0  0  0  0  0  0  0  0  0  0  0  0
    7.6502   -0.1182   21.2485 N   0  0  0  0  0  0  0  0  0  0  0  0
    6.4242    0.0130   22.0379 C   0  0  0  0  0  0  0  0  0  0  0  0
    5.4136    0.8634   21.4489 C   0  0  0  0  0  0  0  0  0  0  0  0
    5.5706    1.5546   20.1745 C   0  0  0  0  0  0  0  0  0  0  0  0
    5.8645    0.8088   18.9532 C   0  0  0  0  0  0  0  0  0  0  0  0
    7.1867    0.1580   18.8474 C   0  0  0  0  0  0  0  0  0  0  0  0
    7.5195   -0.7677   19.9483 C   0  0  0  0  0  0  0  0  0  0  0  0
   10.0678   -0.1864   21.7643 C   0  0  0  0  0  0  0  0  0  0  0  0
   10.4254   -1.4885   21.4939 N   0  0  0  0  0  0  0  0  0  0  0  0
   11.7283   -1.6809   21.8620 C   0  0  0  0  0  0  0  0  0  0  0  0
   12.2594   -0.5247   22.3472 C   0  0  0  0  0  0  0  0  0  0  0  0
   13.6558   -0.3027   22.8687 C   0  0  0  0  0  0  0  0  0  0  0  0
   13.8172   -0.6327   24.2892 N   0  0  0  0  0  0  0  0  0  0  0  0
   13.7775   -2.0786   24.4752 C   0  0  0  0  0  0  0  0  0  0  0  0
   12.7598   -0.0190   25.0855 C   0  0  0  0  0  0  0  0  0  0  0  0
   11.2192    0.4589   22.2568 C   0  0  0  0  0  0  0  0  0  0  0  0
   11.1663    1.8195   22.5429 C   0  0  0  0  0  0  0  0  0  0  0  0
  1  2  1  0
  2  3  1  0
  3  4  2  0
  4  5  1  0
  5  6  1  0
  6  7  1  0
  7  8  1  0
  8  9  1  0
  9 10  1  0
 10 11  1  0
 11 12  1  0
  5 13  2  0
 13 14  1  0
 14 15  1  0
 15 16  2  0
 16 17  1  0
 17 18  1  0
 18 19  1  0
 18 20  1  0
 16 21  1  0
 21 22  2  0
 22  3  1  0
 12  6  1  0
 21 13  1  0
M  END
