CVD-0001312|dock_bobby27042020.10|mol2|10|dock3
     RDKit          3D

 19 20  0  0  0  0  0  0  0  0999 V2000
    3.7033    2.5019   18.1737 F   0  0  0  0  0  0  0  0  0  0  0  0
    4.3850    1.5749   18.9318 C   0  0  0  0  0  0  0  0  0  0  0  0
    5.4855    0.5969   17.9412 S   0  0  0  0  0  0  0  0  0  0  0  0
    5.6360   -0.8309   18.9515 C   0  0  0  0  0  0  0  0  0  0  0  0
    5.1475   -1.8917   18.6604 O   0  0  0  0  0  0  0  0  0  0  0  0
    6.4400   -0.5455   20.1963 C   0  0  0  0  0  0  0  0  0  0  0  0
    7.8610   -0.1247   19.8421 C   0  0  0  0  0  0  0  0  0  0  0  0
    8.6719    0.1220   21.0975 C   0  0  0  0  0  0  0  0  0  0  0  0
    8.6799   -1.0781   21.9299 N   0  0  0  0  0  0  0  0  0  0  0  0
    7.3414   -1.4892   22.3395 C   0  0  0  0  0  0  0  0  0  0  0  0
    6.4826   -1.7680   21.1105 C   0  0  0  0  0  0  0  0  0  0  0  0
    9.7655   -1.6178   22.5225 C   0  0  0  0  0  0  0  0  0  0  0  0
    9.6506   -2.6147   23.2096 O   0  0  0  0  0  0  0  0  0  0  0  0
   11.1161   -0.9469   22.3262 C   0  0  0  0  0  0  0  0  0  0  0  0
   11.1809    0.3478   23.1023 C   0  0  0  0  0  0  0  0  0  0  0  0
   12.5614    0.9864   22.9886 C   0  0  0  0  0  0  0  0  0  0  0  0
   13.6447    0.0368   23.4293 C   0  0  0  0  0  0  0  0  0  0  0  0
   13.5727   -1.2680   22.6718 C   0  0  0  0  0  0  0  0  0  0  0  0
   12.1952   -1.9083   22.7779 C   0  0  0  0  0  0  0  0  0  0  0  0
  1  2  1  0
  2  3  1  0
  3  4  1  0
  4  5  2  0
  4  6  1  0
  6  7  1  0
  7  8  1  0
  8  9  1  0
  9 10  1  0
 10 11  1  0
  9 12  1  0
 12 13  2  0
 12 14  1  0
 14 15  1  0
 15 16  1  0
 16 17  1  0
 17 18  1  0
 18 19  1  0
 11  6  1  0
 19 14  1  0
M  END
