CVD-0000906|dock_bobby27042020.11|mol2|26|dock2
     RDKit          3D

 23 23  0  0  0  0  0  0  0  0999 V2000
    8.8785   -3.2328   22.0680 C   0  0  0  0  0  0  0  0  0  0  0  0
    9.8496   -2.3650   22.8132 C   0  0  0  0  0  0  0  0  0  0  0  0
    9.8520   -2.3407   24.0398 O   0  0  0  0  0  0  0  0  0  0  0  0
   10.6873   -1.6624   22.0342 N   0  0  0  0  0  0  0  0  0  0  0  0
   11.7478   -0.7470   22.4638 C   0  0  0  0  0  0  0  0  0  0  0  0
   13.0818   -1.4620   22.7165 C   0  0  0  0  0  0  0  0  0  0  0  0
   13.2982   -1.8679   24.1589 C   0  0  0  0  0  0  0  0  0  0  0  0
   12.6807   -2.9696   24.5552 N   0  0  0  0  0  0  0  0  0  0  0  0
   14.0109   -1.1980   24.9119 O   0  0  0  0  0  0  0  0  0  0  0  0
   11.2689    0.0695   23.6662 C   0  0  0  0  0  0  0  0  0  0  0  0
   12.2016    1.2924   23.8805 C   0  0  0  0  0  0  0  0  0  0  0  0
   11.9198    2.3662   22.9249 N   0  0  0  0  0  0  0  0  0  0  0  0
   10.5296    2.7088   22.7022 C   0  0  0  0  0  0  0  0  0  0  0  0
    9.6418    1.4727   22.5237 C   0  0  0  0  0  0  0  0  0  0  0  0
    9.8731    0.4538   23.5244 N   0  0  0  0  0  0  0  0  0  0  0  0
    9.1043    0.6430   24.7588 C   0  0  0  0  0  0  0  0  0  0  0  0
    9.8033    0.1415   25.8717 O   0  0  0  0  0  0  0  0  0  0  0  0
    7.7755   -0.0539   24.6916 C   0  0  0  0  0  0  0  0  0  0  0  0
    7.0903    0.2018   23.4719 O   0  0  0  0  0  0  0  0  0  0  0  0
   12.7633    3.5683   23.0239 C   0  0  0  0  0  0  0  0  0  0  0  0
   12.3604    4.4204   24.0700 O   0  0  0  0  0  0  0  0  0  0  0  0
   12.7209    4.4096   21.7641 C   0  0  0  0  0  0  0  0  0  0  0  0
   14.1514    5.4630   21.5662 Cl  0  0  0  0  0  0  0  0  0  0  0  0
  1  2  1  0
  2  3  2  0
  2  4  1  0
  4  5  1  0
  5  6  1  0
  6  7  1  0
  7  8  1  0
  7  9  2  0
  5 10  1  0
 10 11  1  0
 11 12  1  0
 12 13  1  0
 13 14  1  0
 14 15  1  0
 15 16  1  0
 16 17  1  0
 16 18  1  0
 18 19  1  0
 12 20  1  0
 20 21  1  0
 20 22  1  0
 22 23  1  0
 15 10  1  0
M  END
