CVD-0001595|dock_bobby27042020.23|mol2|24|dock3
     RDKit          3D

 16 17  0  0  0  0  0  0  0  0999 V2000
    5.3657   -0.8681   19.7619 N   0  0  0  0  0  0  0  0  0  0  0  0
    6.3740   -1.1790   20.2107 C   0  0  0  0  0  0  0  0  0  0  0  0
    7.5158   -1.5776   20.7474 N   0  0  0  0  0  0  0  0  0  0  0  0
    8.7114   -0.7832   20.4920 C   0  0  0  0  0  0  0  0  0  0  0  0
    9.9212   -1.4260   21.1428 C   0  0  0  0  0  0  0  0  0  0  0  0
    9.7126   -1.6216   22.5712 N   0  0  0  0  0  0  0  0  0  0  0  0
   10.8951   -2.1844   23.1845 C   0  0  0  0  0  0  0  0  0  0  0  0
   12.0269   -1.2986   23.0218 N   0  0  0  0  0  0  0  0  0  0  0  0
   13.3442   -1.9694   23.0596 C   0  0  0  0  0  0  0  0  0  0  0  0
   13.6160   -2.6908   24.3712 C   0  0  0  0  0  0  0  0  0  0  0  0
   14.3368   -1.8520   25.4426 C   0  0  0  0  0  0  0  0  0  0  0  0
   13.8941   -0.4911   25.4022 O   0  0  0  0  0  0  0  0  0  0  0  0
   12.4906   -0.2915   25.2708 C   0  0  0  0  0  0  0  0  0  0  0  0
   12.0610   -0.0768   23.8397 C   0  0  0  0  0  0  0  0  0  0  0  0
    8.5486   -2.4713   22.7763 C   0  0  0  0  0  0  0  0  0  0  0  0
    7.3168   -1.8257   22.1745 C   0  0  0  0  0  0  0  0  0  0  0  0
  1  2  3  0
  2  3  1  0
  3  4  1  0
  4  5  1  0
  5  6  1  0
  6  7  1  0
  7  8  1  0
  8  9  1  0
  9 10  1  0
 10 11  1  0
 11 12  1  0
 12 13  1  0
 13 14  1  0
  6 15  1  0
 15 16  1  0
 16  3  1  0
 14  8  1  0
M  END
