CVD-0002109|dock_bobby27042020.78|mol2|34|dock3
     RDKit          3D

 21 23  0  0  0  0  0  0  0  0999 V2000
   12.5552   -2.2298   23.0964 C   0  0  0  0  0  0  0  0  0  0  0  0
   11.4559   -1.4772   23.8316 C   0  0  0  0  0  0  0  0  0  0  0  0
   10.1952   -2.3921   23.9738 C   0  0  0  0  0  0  0  0  0  0  0  0
    9.4705   -2.5768   22.6289 C   0  0  0  0  0  0  0  0  0  0  0  0
    9.2304   -1.2178   21.9737 C   0  0  0  0  0  0  0  0  0  0  0  0
   10.5307   -0.4361   21.8644 C   0  0  0  0  0  0  0  0  0  0  0  0
   11.1100   -0.2192   23.1881 N   0  0  0  0  0  0  0  0  0  0  0  0
   12.2242    0.7328   23.0892 C   0  0  0  0  0  0  0  0  0  0  0  0
   11.7669    2.1635   22.9347 C   0  0  0  0  0  0  0  0  0  0  0  0
   12.6629    3.1584   22.5755 C   0  0  0  0  0  0  0  0  0  0  0  0
   12.2442    4.4712   22.4369 C   0  0  0  0  0  0  0  0  0  0  0  0
   10.9248    4.8038   22.6568 C   0  0  0  0  0  0  0  0  0  0  0  0
   10.0243    3.8242   23.0159 C   0  0  0  0  0  0  0  0  0  0  0  0
   10.4431    2.5114   23.1544 C   0  0  0  0  0  0  0  0  0  0  0  0
   10.5436   -3.7043   24.4793 O   0  0  0  0  0  0  0  0  0  0  0  0
    9.4770   -4.5287   25.0092 C   0  0  0  0  0  0  0  0  0  0  0  0
    8.7906   -4.0114   26.3451 C   0  0  0  0  0  0  0  0  0  0  0  0
    9.4587   -5.5094   27.1874 S   0  0  0  0  0  0  0  0  0  0  0  0
   10.4601   -5.1770   28.1652 O   0  0  0  0  0  0  0  0  0  0  0  0
    8.4128   -6.4135   27.5834 O   0  0  0  0  0  0  0  0  0  0  0  0
   10.1290   -5.8408   25.5143 C   0  0  0  0  0  0  0  0  0  0  0  0
  1  2  1  0
  2  3  1  0
  3  4  1  0
  4  5  1  0
  5  6  1  0
  6  7  1  0
  7  8  1  0
  8  9  1  0
  9 10  2  0
 10 11  1  0
 11 12  2  0
 12 13  1  0
 13 14  2  0
  3 15  1  0
 15 16  1  0
 16 17  1  0
 17 18  1  0
 18 19  2  0
 18 20  2  0
 18 21  1  0
  7  2  1  0
 14  9  1  0
 21 16  1  0
M  END
