CVD-0000087|dock_bobby27042020.28|mol2|28|dock1
     RDKit          3D

 21 22  0  0  0  0  0  0  0  0999 V2000
    9.7442    3.6517   22.6189 C   0  0  0  0  0  0  0  0  0  0  0  0
   11.2291    3.4415   22.4815 C   0  0  0  0  0  0  0  0  0  0  0  0
   12.0567    4.4936   22.0960 C   0  0  0  0  0  0  0  0  0  0  0  0
   13.4260    4.3232   21.9839 C   0  0  0  0  0  0  0  0  0  0  0  0
   13.9920    3.0903   22.2595 C   0  0  0  0  0  0  0  0  0  0  0  0
   13.2035    2.0088   22.6446 C   0  0  0  0  0  0  0  0  0  0  0  0
   13.8254    0.6695   22.9396 C   0  0  0  0  0  0  0  0  0  0  0  0
   11.8221    2.2012   22.7422 C   0  0  0  0  0  0  0  0  0  0  0  0
   11.0298    1.1258   23.1107 O   0  0  0  0  0  0  0  0  0  0  0  0
   10.7283    0.2046   22.0671 C   0  0  0  0  0  0  0  0  0  0  0  0
    9.7123   -0.8068   22.5347 C   0  0  0  0  0  0  0  0  0  0  0  0
    9.2171   -0.7000   23.6524 O   0  0  0  0  0  0  0  0  0  0  0  0
    9.4079   -1.7883   21.6902 N   0  0  0  0  0  0  0  0  0  0  0  0
    8.4514   -2.8376   22.0125 C   0  0  0  0  0  0  0  0  0  0  0  0
    7.0255   -2.3170   22.0319 C   0  0  0  0  0  0  0  0  0  0  0  0
    6.6781   -1.5195   20.7982 C   0  0  0  0  0  0  0  0  0  0  0  0
    6.9860   -0.1703   20.7152 C   0  0  0  0  0  0  0  0  0  0  0  0
    6.6647    0.5625   19.5848 C   0  0  0  0  0  0  0  0  0  0  0  0
    6.0299   -0.0454   18.5232 C   0  0  0  0  0  0  0  0  0  0  0  0
    5.7167   -1.3856   18.5925 C   0  0  0  0  0  0  0  0  0  0  0  0
    6.0385   -2.1176   19.7233 C   0  0  0  0  0  0  0  0  0  0  0  0
  1  2  1  0
  2  3  2  0
  3  4  1  0
  4  5  2  0
  5  6  1  0
  6  7  1  0
  6  8  2  0
  8  9  1  0
  9 10  1  0
 10 11  1  0
 11 12  2  0
 11 13  1  0
 13 14  1  0
 14 15  1  0
 15 16  1  0
 16 17  2  0
 17 18  1  0
 18 19  2  0
 19 20  1  0
 20 21  2  0
  8  2  1  0
 21 16  1  0
M  END
