CVD-0000440|dock_bobby27042020.27|mol2|13|dock3
     RDKit          3D

 27 28  0  0  0  0  0  0  0  0999 V2000
    6.4663   -6.0562   21.5791 C   0  0  0  0  0  0  0  0  0  0  0  0
    6.8286   -4.8913   22.4461 C   0  0  0  0  0  0  0  0  0  0  0  0
    6.3922   -3.6353   21.8592 N   0  0  0  0  0  0  0  0  0  0  0  0
    7.2011   -2.5524   21.6965 C   0  0  0  0  0  0  0  0  0  0  0  0
    7.0876   -1.7257   20.5795 C   0  0  0  0  0  0  0  0  0  0  0  0
    7.9436   -0.6445   20.4828 C   0  0  0  0  0  0  0  0  0  0  0  0
    8.8541   -0.4488   21.4920 C   0  0  0  0  0  0  0  0  0  0  0  0
    9.7016    0.6028   21.4166 F   0  0  0  0  0  0  0  0  0  0  0  0
    8.9282   -1.2954   22.5807 C   0  0  0  0  0  0  0  0  0  0  0  0
    9.9217   -1.1055   23.7015 C   0  0  0  0  0  0  0  0  0  0  0  0
   11.2957   -0.7080   23.2019 C   0  0  0  0  0  0  0  0  0  0  0  0
   12.2020   -1.6748   22.7890 C   0  0  0  0  0  0  0  0  0  0  0  0
   13.4371   -1.2719   22.3463 C   0  0  0  0  0  0  0  0  0  0  0  0
   14.3187   -2.2261   21.9427 F   0  0  0  0  0  0  0  0  0  0  0  0
   13.8312    0.0422   22.2889 C   0  0  0  0  0  0  0  0  0  0  0  0
   12.9266    1.0151   22.7036 C   0  0  0  0  0  0  0  0  0  0  0  0
   13.2601    2.3558   22.6718 N   0  0  0  0  0  0  0  0  0  0  0  0
   12.5709    3.3279   21.8453 C   0  0  0  0  0  0  0  0  0  0  0  0
   12.8942    4.7543   22.2493 C   0  0  0  0  0  0  0  0  0  0  0  0
   13.3851    5.5220   21.4273 O   0  0  0  0  0  0  0  0  0  0  0  0
   12.6239    5.1583   23.5295 N   0  0  0  0  0  0  0  0  0  0  0  0
   12.9294    6.3050   24.2435 C   0  0  0  0  0  0  0  0  0  0  0  0
   13.5747    7.2382   23.7445 O   0  0  0  0  0  0  0  0  0  0  0  0
   12.4648    6.4121   25.6525 C   0  0  0  0  0  0  0  0  0  0  0  0
   12.3739    7.5083   26.3640 C   0  0  0  0  0  0  0  0  0  0  0  0
   11.6691    0.6291   23.1555 C   0  0  0  0  0  0  0  0  0  0  0  0
    8.0972   -2.3432   22.6695 N   0  0  0  0  0  0  0  0  0  0  0  0
  1  2  1  0
  2  3  1  0
  3  4  1  0
  4  5  2  0
  5  6  1  0
  6  7  2  0
  7  8  1  0
  7  9  1  0
  9 10  1  0
 10 11  1  0
 11 12  2  0
 12 13  1  0
 13 14  1  0
 13 15  2  0
 15 16  1  0
 16 17  1  0
 17 18  1  0
 18 19  1  0
 19 20  2  0
 19 21  1  0
 21 22  1  0
 22 23  2  0
 22 24  1  0
 24 25  2  0
 16 26  2  0
  9 27  2  0
 27  4  1  0
 26 11  1  0
M  END
