CVD-0001039|dock_bobby27042020.82|mol2|21|dock1
     RDKit          3D

 33 37  0  0  0  0  0  0  0  0999 V2000
    6.0761   11.7900   23.1257 C   0  0  0  0  0  0  0  0  0  0  0  0
    5.5394   10.7426   22.3199 O   0  0  0  0  0  0  0  0  0  0  0  0
    6.1214    9.4995   22.3242 C   0  0  0  0  0  0  0  0  0  0  0  0
    6.7954    9.0040   23.4297 C   0  0  0  0  0  0  0  0  0  0  0  0
    7.3660    7.7435   23.3863 C   0  0  0  0  0  0  0  0  0  0  0  0
    7.2736    6.9439   22.2479 C   0  0  0  0  0  0  0  0  0  0  0  0
    6.5963    7.4651   21.1499 C   0  0  0  0  0  0  0  0  0  0  0  0
    6.0266    8.7246   21.1832 C   0  0  0  0  0  0  0  0  0  0  0  0
    7.8479    5.5854   22.1335 C   0  0  0  0  0  0  0  0  0  0  0  0
    7.1968    4.6595   21.4501 N   0  0  0  0  0  0  0  0  0  0  0  0
    7.9773    3.5159   21.5331 C   0  0  0  0  0  0  0  0  0  0  0  0
    7.8786    2.1923   21.0409 C   0  0  0  0  0  0  0  0  0  0  0  0
    8.8377    1.2985   21.3289 N   0  0  0  0  0  0  0  0  0  0  0  0
    9.8780    1.7039   22.0799 C   0  0  0  0  0  0  0  0  0  0  0  0
   10.8292    0.7243   22.3358 N   0  0  0  0  0  0  0  0  0  0  0  0
   12.0726    0.8305   22.8794 C   0  0  0  0  0  0  0  0  0  0  0  0
   12.5547    1.8962   23.2527 O   0  0  0  0  0  0  0  0  0  0  0  0
   12.9137   -0.4063   23.0395 C   0  0  0  0  0  0  0  0  0  0  0  0
   13.6713   -0.5493   24.1958 C   0  0  0  0  0  0  0  0  0  0  0  0
   14.4568   -1.6735   24.3775 C   0  0  0  0  0  0  0  0  0  0  0  0
   14.4649   -2.6324   23.3918 C   0  0  0  0  0  0  0  0  0  0  0  0
   13.7516   -2.5291   22.2703 N   0  0  0  0  0  0  0  0  0  0  0  0
   12.9971   -1.4374   22.1083 C   0  0  0  0  0  0  0  0  0  0  0  0
   10.0792    2.9287   22.5909 N   0  0  0  0  0  0  0  0  0  0  0  0
    9.1022    3.7832   22.2847 C   0  0  0  0  0  0  0  0  0  0  0  0
    9.0272    5.1019   22.6604 N   0  0  0  0  0  0  0  0  0  0  0  0
   10.0466    5.7340   23.4929 C   0  0  0  0  0  0  0  0  0  0  0  0
    6.8589    1.6905   20.2612 N   0  0  0  0  0  0  0  0  0  0  0  0
    5.5101    2.2595   20.2291 C   0  0  0  0  0  0  0  0  0  0  0  0
    4.4775    1.1626   20.1399 C   0  0  0  0  0  0  0  0  0  0  0  0
    4.7295    0.2977   19.0489 O   0  0  0  0  0  0  0  0  0  0  0  0
    5.9951   -0.3321   19.2114 C   0  0  0  0  0  0  0  0  0  0  0  0
    7.0961    0.7108   19.2083 C   0  0  0  0  0  0  0  0  0  0  0  0
  1  2  1  0
  2  3  1  0
  3  4  2  0
  4  5  1  0
  5  6  2  0
  6  7  1  0
  7  8  2  0
  6  9  1  0
  9 10  2  0
 10 11  1  0
 11 12  2  0
 12 13  1  0
 13 14  2  0
 14 15  1  0
 15 16  1  0
 16 17  2  0
 16 18  1  0
 18 19  2  0
 19 20  1  0
 20 21  2  0
 21 22  1  0
 22 23  2  0
 14 24  1  0
 24 25  2  0
 25 26  1  0
 26 27  1  0
 12 28  1  0
 28 29  1  0
 29 30  1  0
 30 31  1  0
 31 32  1  0
 32 33  1  0
  8  3  1  0
 26  9  1  0
 33 28  1  0
 25 11  1  0
 23 18  1  0
M  END
