CVD-0000758|dock_bobby27042020.12|mol2|4|dock2
     RDKit          3D

 17 18  0  0  0  0  0  0  0  0999 V2000
    8.9737    0.3734   22.3840 O   0  0  0  0  0  0  0  0  0  0  0  0
    9.4349   -0.2646   21.4421 C   0  0  0  0  0  0  0  0  0  0  0  0
   10.7102   -0.8205   21.5351 N   0  0  0  0  0  0  0  0  0  0  0  0
   11.5309   -0.7015   22.6596 C   0  0  0  0  0  0  0  0  0  0  0  0
   11.6642    0.4182   23.4018 C   0  0  0  0  0  0  0  0  0  0  0  0
   12.5477    0.2596   24.4668 C   0  0  0  0  0  0  0  0  0  0  0  0
   13.0967   -0.9925   24.5418 C   0  0  0  0  0  0  0  0  0  0  0  0
   12.5148   -2.0096   23.2701 S   0  0  0  0  0  0  0  0  0  0  0  0
   14.0303   -1.4898   25.4994 C   0  0  0  0  0  0  0  0  0  0  0  0
   14.7919   -1.9173   26.2389 N   0  0  0  0  0  0  0  0  0  0  0  0
    8.8111   -0.5091   20.2434 N   0  0  0  0  0  0  0  0  0  0  0  0
    7.5308   -0.1163   19.7811 C   0  0  0  0  0  0  0  0  0  0  0  0
    6.4281    0.0648   20.6098 C   0  0  0  0  0  0  0  0  0  0  0  0
    5.2205    0.4508   20.0539 C   0  0  0  0  0  0  0  0  0  0  0  0
    5.1471    0.6443   18.6937 C   0  0  0  0  0  0  0  0  0  0  0  0
    6.1860    0.4785   17.8752 N   0  0  0  0  0  0  0  0  0  0  0  0
    7.3471    0.1059   18.4212 C   0  0  0  0  0  0  0  0  0  0  0  0
  1  2  2  0
  2  3  1  0
  3  4  1  0
  4  5  2  0
  5  6  1  0
  6  7  2  0
  7  8  1  0
  7  9  1  0
  9 10  3  0
  2 11  1  0
 11 12  1  0
 12 13  2  0
 13 14  1  0
 14 15  2  0
 15 16  1  0
 16 17  2  0
  8  4  1  0
 17 12  1  0
M  END
