CVD-0003192|dock_bobby27042020.74|mol2|35|dock3
     RDKit          3D

 27 29  0  0  0  0  0  0  0  0999 V2000
    9.4338   -4.9054   27.2308 C   0  0  0  0  0  0  0  0  0  0  0  0
    9.6583   -4.3978   25.8298 C   0  0  0  0  0  0  0  0  0  0  0  0
    9.6919   -2.9310   25.7757 N   0  0  0  0  0  0  0  0  0  0  0  0
    9.2548   -2.2249   26.8547 N   0  0  0  0  0  0  0  0  0  0  0  0
    9.3789   -0.9564   26.5127 C   0  0  0  0  0  0  0  0  0  0  0  0
    8.9853    0.0929   27.5014 C   0  0  0  0  0  0  0  0  0  0  0  0
    9.8848   -0.8090   25.2072 C   0  0  0  0  0  0  0  0  0  0  0  0
   10.1783    0.4533   24.4340 C   0  0  0  0  0  0  0  0  0  0  0  0
   11.6000    0.7578   24.3643 N   0  0  0  0  0  0  0  0  0  0  0  0
   12.4383   -0.1901   24.8406 N   0  0  0  0  0  0  0  0  0  0  0  0
   13.6454    0.2547   24.6792 N   0  0  0  0  0  0  0  0  0  0  0  0
   13.6378    1.4737   24.0886 N   0  0  0  0  0  0  0  0  0  0  0  0
   12.3729    1.7713   23.8982 C   0  0  0  0  0  0  0  0  0  0  0  0
   11.9758    2.9479   23.3112 N   0  0  0  0  0  0  0  0  0  0  0  0
   12.8729    3.5162   22.3009 C   0  0  0  0  0  0  0  0  0  0  0  0
   12.9010    5.0346   22.3069 C   0  0  0  0  0  0  0  0  0  0  0  0
   13.3895    5.6589   23.6044 C   0  0  0  0  0  0  0  0  0  0  0  0
   12.5099    5.5028   24.8312 C   0  0  0  0  0  0  0  0  0  0  0  0
   11.1961    6.1103   24.6675 N   0  0  0  0  0  0  0  0  0  0  0  0
   10.0396    5.4704   24.4592 C   0  0  0  0  0  0  0  0  0  0  0  0
    9.0116    6.1225   24.3336 O   0  0  0  0  0  0  0  0  0  0  0  0
    9.9262    3.9291   24.3747 C   0  0  0  0  0  0  0  0  0  0  0  0
   10.4142    3.3006   25.4859 F   0  0  0  0  0  0  0  0  0  0  0  0
    8.6042    3.5861   24.3231 F   0  0  0  0  0  0  0  0  0  0  0  0
   10.5610    3.2999   23.1509 C   0  0  0  0  0  0  0  0  0  0  0  0
   10.0700   -2.1202   24.7635 C   0  0  0  0  0  0  0  0  0  0  0  0
   10.5798   -2.6060   23.4484 C   0  0  0  0  0  0  0  0  0  0  0  0
  1  2  1  0
  2  3  1  0
  3  4  1  0
  4  5  2  0
  5  6  1  0
  5  7  1  0
  7  8  1  0
  8  9  1  0
  9 10  1  0
 10 11  2  0
 11 12  1  0
 12 13  2  0
 13 14  1  0
 14 15  1  0
 15 16  1  0
 16 17  1  0
 17 18  1  0
 18 19  1  0
 19 20  1  0
 20 21  2  0
 20 22  1  0
 22 23  1  0
 22 24  1  0
 22 25  1  0
  7 26  2  0
 26 27  1  0
 26  3  1  0
 13  9  1  0
 25 14  1  0
M  END
