CVD-0001679|dock_bobby27042020.9|mol2|3|dock3
     RDKit          3D

 18 19  0  0  0  0  0  0  0  0999 V2000
   14.2579   -1.4223   25.3352 C   0  0  0  0  0  0  0  0  0  0  0  0
   13.1019   -2.2402   24.8374 C   0  0  0  0  0  0  0  0  0  0  0  0
   12.8653   -3.3442   25.3149 O   0  0  0  0  0  0  0  0  0  0  0  0
   12.3234   -1.7509   23.8383 N   0  0  0  0  0  0  0  0  0  0  0  0
   12.4939   -0.4546   23.1847 C   0  0  0  0  0  0  0  0  0  0  0  0
   11.1968    0.3250   23.2195 C   0  0  0  0  0  0  0  0  0  0  0  0
   10.1159   -0.4717   22.6430 N   0  0  0  0  0  0  0  0  0  0  0  0
    9.9454   -1.7680   23.2967 C   0  0  0  0  0  0  0  0  0  0  0  0
   11.2425   -2.5476   23.2618 C   0  0  0  0  0  0  0  0  0  0  0  0
    9.3422    0.0145   21.6502 C   0  0  0  0  0  0  0  0  0  0  0  0
    9.5125    1.1402   21.1992 O   0  0  0  0  0  0  0  0  0  0  0  0
    8.2433   -0.8817   21.1119 C   0  0  0  0  0  0  0  0  0  0  0  0
    7.4341   -0.2129   20.0279 C   0  0  0  0  0  0  0  0  0  0  0  0
    6.0586   -0.0879   20.1282 C   0  0  0  0  0  0  0  0  0  0  0  0
    5.3731    0.5389   19.1020 C   0  0  0  0  0  0  0  0  0  0  0  0
    6.0687    1.0205   18.0148 C   0  0  0  0  0  0  0  0  0  0  0  0
    7.4348    0.8548   17.9969 C   0  0  0  0  0  0  0  0  0  0  0  0
    8.1222    0.2525   18.9763 N   0  0  0  0  0  0  0  0  0  0  0  0
  1  2  1  0
  2  3  2  0
  2  4  1  0
  4  5  1  0
  5  6  1  0
  6  7  1  0
  7  8  1  0
  8  9  1  0
  7 10  1  0
 10 11  2  0
 10 12  1  0
 12 13  1  0
 13 14  2  0
 14 15  1  0
 15 16  2  0
 16 17  1  0
 17 18  2  0
  9  4  1  0
 18 13  1  0
M  END
