CVD-0002477|dock_bobby27042020.63|mol2|14|dock1
     RDKit          3D

 29 32  0  0  0  0  0  0  0  0999 V2000
   -1.2964    1.1992   22.6476 F   0  0  0  0  0  0  0  0  0  0  0  0
   -0.8895    2.3436   22.0207 C   0  0  0  0  0  0  0  0  0  0  0  0
   -1.3215    3.5643   22.2710 C   0  0  0  0  0  0  0  0  0  0  0  0
   -0.8048    4.7567   21.5543 C   0  0  0  0  0  0  0  0  0  0  0  0
   -0.0896    4.3323   20.2833 C   0  0  0  0  0  0  0  0  0  0  0  0
    0.8504    3.2376   20.4890 N   0  0  0  0  0  0  0  0  0  0  0  0
    1.9483    3.6387   21.3722 C   0  0  0  0  0  0  0  0  0  0  0  0
    3.1963    2.8420   21.1352 C   0  0  0  0  0  0  0  0  0  0  0  0
    4.2594    3.0078   21.8474 N   0  0  0  0  0  0  0  0  0  0  0  0
    5.3020    2.1658   21.4653 N   0  0  0  0  0  0  0  0  0  0  0  0
    4.9792    1.3903   20.4732 C   0  0  0  0  0  0  0  0  0  0  0  0
    3.3547    1.6197   19.9081 S   0  0  0  0  0  0  0  0  0  0  0  0
    5.9013    0.4095   19.8822 C   0  0  0  0  0  0  0  0  0  0  0  0
    5.5400   -0.3124   18.7515 C   0  0  0  0  0  0  0  0  0  0  0  0
    6.4175   -1.2321   18.2059 C   0  0  0  0  0  0  0  0  0  0  0  0
    7.6590   -1.4381   18.7829 C   0  0  0  0  0  0  0  0  0  0  0  0
    8.0396   -0.7259   19.9147 C   0  0  0  0  0  0  0  0  0  0  0  0
    9.3260   -0.9896   20.4506 N   0  0  0  0  0  0  0  0  0  0  0  0
    9.8583   -0.7217   21.6913 C   0  0  0  0  0  0  0  0  0  0  0  0
    9.2528   -0.1669   22.6024 O   0  0  0  0  0  0  0  0  0  0  0  0
   11.1608   -1.1565   21.7804 N   0  0  0  0  0  0  0  0  0  0  0  0
   12.0829   -1.0900   22.8552 C   0  0  0  0  0  0  0  0  0  0  0  0
   13.0904   -2.0220   23.0868 C   0  0  0  0  0  0  0  0  0  0  0  0
   13.9335   -1.8526   24.1716 C   0  0  0  0  0  0  0  0  0  0  0  0
   13.7501   -0.7638   24.9922 C   0  0  0  0  0  0  0  0  0  0  0  0
   12.7951    0.1449   24.7965 N   0  0  0  0  0  0  0  0  0  0  0  0
   11.9867   -0.0277   23.7468 C   0  0  0  0  0  0  0  0  0  0  0  0
    7.1492    0.1994   20.4585 C   0  0  0  0  0  0  0  0  0  0  0  0
    0.1369    2.0624   20.9853 C   0  0  0  0  0  0  0  0  0  0  0  0
  1  2  1  0
  2  3  2  0
  3  4  1  0
  4  5  1  0
  5  6  1  0
  6  7  1  0
  7  8  1  0
  8  9  2  0
  9 10  1  0
 10 11  2  0
 11 12  1  0
 11 13  1  0
 13 14  2  0
 14 15  1  0
 15 16  2  0
 16 17  1  0
 17 18  1  0
 18 19  1  0
 19 20  2  0
 19 21  1  0
 21 22  1  0
 22 23  2  0
 23 24  1  0
 24 25  2  0
 25 26  1  0
 26 27  2  0
 17 28  2  0
  6 29  1  0
 29  2  1  0
 12  8  1  0
 28 13  1  0
 27 22  1  0
M  END
