CVD-0002967|dock_bobby27042020.32|mol2|28|dock3
     RDKit          3D

 32 35  0  0  0  0  0  0  0  0999 V2000
   13.6497   -1.5911   21.4547 C   0  0  0  0  0  0  0  0  0  0  0  0
   12.3088   -1.3718   21.9527 O   0  0  0  0  0  0  0  0  0  0  0  0
   12.2197   -0.7789   23.1402 C   0  0  0  0  0  0  0  0  0  0  0  0
   13.1572   -0.3132   23.7339 O   0  0  0  0  0  0  0  0  0  0  0  0
   10.7874   -0.7699   23.6405 C   0  0  0  0  0  0  0  0  0  0  0  0
    9.8551   -0.0098   22.7108 C   0  0  0  0  0  0  0  0  0  0  0  0
    8.4902   -0.1152   23.1522 O   0  0  0  0  0  0  0  0  0  0  0  0
    7.9926   -1.4347   23.1579 C   0  0  0  0  0  0  0  0  0  0  0  0
    8.0230   -2.0184   21.7545 C   0  0  0  0  0  0  0  0  0  0  0  0
    7.4986   -1.0868   20.6887 C   0  0  0  0  0  0  0  0  0  0  0  0
    8.2351   -0.8558   19.5363 C   0  0  0  0  0  0  0  0  0  0  0  0
    7.7849   -0.0175   18.5618 C   0  0  0  0  0  0  0  0  0  0  0  0
    6.5444    0.6501   18.6942 C   0  0  0  0  0  0  0  0  0  0  0  0
    6.0294    1.5304   17.7129 C   0  0  0  0  0  0  0  0  0  0  0  0
    4.8292    2.1502   17.8870 C   0  0  0  0  0  0  0  0  0  0  0  0
    4.0916    1.9250   19.0389 C   0  0  0  0  0  0  0  0  0  0  0  0
    4.5412    1.0846   20.0144 C   0  0  0  0  0  0  0  0  0  0  0  0
    5.7826    0.4237   19.8682 C   0  0  0  0  0  0  0  0  0  0  0  0
    6.2935   -0.4558   20.8503 C   0  0  0  0  0  0  0  0  0  0  0  0
    2.5337    2.7340   19.2430 S   0  0  0  0  0  0  0  0  0  0  0  0
    2.7778    4.1190   20.0082 N   0  0  0  0  0  0  0  0  0  0  0  0
    2.0430    3.0531   17.9359 O   0  0  0  0  0  0  0  0  0  0  0  0
    1.7339    1.9118   20.1006 O   0  0  0  0  0  0  0  0  0  0  0  0
    8.8095   -2.3243   24.1166 C   0  0  0  0  0  0  0  0  0  0  0  0
   10.2877   -2.1777   23.8077 C   0  0  0  0  0  0  0  0  0  0  0  0
   11.0478   -3.1156   23.7026 O   0  0  0  0  0  0  0  0  0  0  0  0
   10.2021    1.4559   22.6881 C   0  0  0  0  0  0  0  0  0  0  0  0
   11.4108    1.9058   22.1792 C   0  0  0  0  0  0  0  0  0  0  0  0
   11.6961    3.2600   22.1783 C   0  0  0  0  0  0  0  0  0  0  0  0
   10.7584    4.1285   22.6900 C   0  0  0  0  0  0  0  0  0  0  0  0
    9.5872    3.7288   23.1880 N   0  0  0  0  0  0  0  0  0  0  0  0
    9.3335    2.4168   23.1788 C   0  0  0  0  0  0  0  0  0  0  0  0
  1  2  1  0
  2  3  1  0
  3  4  2  0
  3  5  1  0
  5  6  1  0
  6  7  1  0
  7  8  1  0
  8  9  1  0
  9 10  1  0
 10 11  2  0
 11 12  1  0
 12 13  2  0
 13 14  1  0
 14 15  2  0
 15 16  1  0
 16 17  2  0
 17 18  1  0
 18 19  2  0
 16 20  1  0
 20 21  1  0
 20 22  2  0
 20 23  2  0
  8 24  1  0
 24 25  1  0
 25 26  2  0
  6 27  1  0
 27 28  2  0
 28 29  1  0
 29 30  2  0
 30 31  1  0
 31 32  2  0
 25  5  1  0
 32 27  1  0
 19 10  1  0
 18 13  1  0
M  END
