CVD-0003921|dock_bobby27042020.86|mol2|21|dock2
     RDKit          3D

 32 35  0  0  0  0  0  0  0  0999 V2000
   14.5043   -1.3344   24.6611 O   0  0  0  0  0  0  0  0  0  0  0  0
   13.0889   -1.5077   24.5343 C   0  0  0  0  0  0  0  0  0  0  0  0
   12.7144   -2.1401   23.2077 C   0  0  0  0  0  0  0  0  0  0  0  0
   11.2014   -2.2983   23.0361 C   0  0  0  0  0  0  0  0  0  0  0  0
   10.5238   -0.9419   23.2017 C   0  0  0  0  0  0  0  0  0  0  0  0
   10.8406   -0.3309   24.5576 C   0  0  0  0  0  0  0  0  0  0  0  0
   12.3595   -0.1844   24.7059 C   0  0  0  0  0  0  0  0  0  0  0  0
    9.0479   -1.0400   22.9902 N   0  0  0  0  0  0  0  0  0  0  0  0
    8.3504   -0.3286   21.8489 C   0  0  0  0  0  0  0  0  0  0  0  0
    6.8519   -0.1099   22.0540 C   0  0  0  0  0  0  0  0  0  0  0  0
    6.2413    0.6481   20.8885 C   0  0  0  0  0  0  0  0  0  0  0  0
    6.5138   -0.0439   19.5687 C   0  0  0  0  0  0  0  0  0  0  0  0
    8.0042   -0.2529   19.3574 C   0  0  0  0  0  0  0  0  0  0  0  0
    8.6252   -1.0176   20.5162 C   0  0  0  0  0  0  0  0  0  0  0  0
    9.0348    0.9813   21.8984 C   0  0  0  0  0  0  0  0  0  0  0  0
    9.6724    1.9788   22.0514 C   0  0  0  0  0  0  0  0  0  0  0  0
   10.4482    3.1600   22.3231 C   0  0  0  0  0  0  0  0  0  0  0  0
    9.8429    4.2847   22.8748 C   0  0  0  0  0  0  0  0  0  0  0  0
   10.6284    5.3976   23.1190 C   0  0  0  0  0  0  0  0  0  0  0  0
   11.9715    5.3636   22.8135 C   0  0  0  0  0  0  0  0  0  0  0  0
   12.4864    4.2083   22.2701 C   0  0  0  0  0  0  0  0  0  0  0  0
   11.7592    3.1113   22.0191 N   0  0  0  0  0  0  0  0  0  0  0  0
    8.1509   -1.9122   24.0686 S   0  0  0  0  0  0  0  0  0  0  0  0
    9.0680   -2.5350   24.9718 O   0  0  0  0  0  0  0  0  0  0  0  0
    7.1010   -1.0901   24.5849 O   0  0  0  0  0  0  0  0  0  0  0  0
    7.3336   -3.1860   23.1687 C   0  0  0  0  0  0  0  0  0  0  0  0
    8.0640   -4.0002   22.3180 C   0  0  0  0  0  0  0  0  0  0  0  0
    7.4155   -5.0028   21.6164 C   0  0  0  0  0  0  0  0  0  0  0  0
    6.0517   -5.1924   21.7626 C   0  0  0  0  0  0  0  0  0  0  0  0
    5.3710   -4.3661   22.6146 C   0  0  0  0  0  0  0  0  0  0  0  0
    4.0310   -4.5496   22.7613 F   0  0  0  0  0  0  0  0  0  0  0  0
    5.9673   -3.3584   23.3323 C   0  0  0  0  0  0  0  0  0  0  0  0
  1  2  1  0
  2  3  1  0
  3  4  1  0
  4  5  1  0
  5  6  1  0
  6  7  1  0
  5  8  1  0
  8  9  1  0
  9 10  1  0
 10 11  1  0
 11 12  1  0
 12 13  1  0
 13 14  1  0
  9 15  1  0
 15 16  3  0
 16 17  1  0
 17 18  2  0
 18 19  1  0
 19 20  2  0
 20 21  1  0
 21 22  2  0
  8 23  1  0
 23 24  2  0
 23 25  2  0
 23 26  1  0
 26 27  2  0
 27 28  1  0
 28 29  2  0
 29 30  1  0
 30 31  1  0
 30 32  2  0
  7  2  1  0
 14  9  1  0
 22 17  1  0
 32 26  1  0
M  END
