CVD-0002934|dock_bobby27042020.46|mol2|47|dock1
     RDKit          3D

 27 30  0  0  0  0  0  0  0  0999 V2000
   14.0308   -0.7749   23.5478 C   0  0  0  0  0  0  0  0  0  0  0  0
   12.7767   -0.0503   23.9242 C   0  0  0  0  0  0  0  0  0  0  0  0
   12.8140    0.7650   24.8300 O   0  0  0  0  0  0  0  0  0  0  0  0
   11.4998   -0.2765   23.1964 C   0  0  0  0  0  0  0  0  0  0  0  0
   11.1841   -1.6093   22.9241 C   0  0  0  0  0  0  0  0  0  0  0  0
    9.9397   -1.9877   22.4525 C   0  0  0  0  0  0  0  0  0  0  0  0
    8.9329   -1.0540   22.2374 C   0  0  0  0  0  0  0  0  0  0  0  0
    7.5410   -1.4900   21.8182 C   0  0  0  0  0  0  0  0  0  0  0  0
    6.9556   -0.6856   20.6754 C   0  0  0  0  0  0  0  0  0  0  0  0
    7.7283   -0.3504   19.5743 C   0  0  0  0  0  0  0  0  0  0  0  0
    7.2031    0.3864   18.5276 C   0  0  0  0  0  0  0  0  0  0  0  0
    5.8871    0.7917   18.5888 C   0  0  0  0  0  0  0  0  0  0  0  0
    5.1544    1.8034   17.1580 Br  0  0  0  0  0  0  0  0  0  0  0  0
    5.0939    0.4752   19.6706 C   0  0  0  0  0  0  0  0  0  0  0  0
    5.6358   -0.2623   20.7081 C   0  0  0  0  0  0  0  0  0  0  0  0
    9.2685    0.2911   22.4142 C   0  0  0  0  0  0  0  0  0  0  0  0
    8.4906    1.4177   22.2922 N   0  0  0  0  0  0  0  0  0  0  0  0
    9.2872    2.5203   22.3766 C   0  0  0  0  0  0  0  0  0  0  0  0
    8.9153    3.6804   22.2465 O   0  0  0  0  0  0  0  0  0  0  0  0
   10.5728    2.0882   22.5991 N   0  0  0  0  0  0  0  0  0  0  0  0
   11.7276    2.9559   22.5782 C   0  0  0  0  0  0  0  0  0  0  0  0
   11.6592    4.2722   23.0146 C   0  0  0  0  0  0  0  0  0  0  0  0
   12.7912    5.0658   22.9554 C   0  0  0  0  0  0  0  0  0  0  0  0
   13.9545    4.5180   22.4666 C   0  0  0  0  0  0  0  0  0  0  0  0
   14.0467    3.2564   22.0456 N   0  0  0  0  0  0  0  0  0  0  0  0
   12.9462    2.5000   22.1034 C   0  0  0  0  0  0  0  0  0  0  0  0
   10.5664    0.6953   22.7744 C   0  0  0  0  0  0  0  0  0  0  0  0
  1  2  1  0
  2  3  2  0
  2  4  1  0
  4  5  2  0
  5  6  1  0
  6  7  2  0
  7  8  1  0
  8  9  1  0
  9 10  2  0
 10 11  1  0
 11 12  2  0
 12 13  1  0
 12 14  1  0
 14 15  2  0
  7 16  1  0
 16 17  1  0
 17 18  1  0
 18 19  2  0
 18 20  1  0
 20 21  1  0
 21 22  2  0
 22 23  1  0
 23 24  2  0
 24 25  1  0
 25 26  2  0
 20 27  1  0
 27  4  1  0
 15  9  1  0
 27 16  2  0
 26 21  1  0
M  END
