CVD-0002451|dock_bobby27042020.63|mol2|18|dock2
     RDKit          3D

 22 24  0  0  0  0  0  0  0  0999 V2000
   13.7539    5.9153   22.3346 C   0  0  0  0  0  0  0  0  0  0  0  0
   13.0552    4.5777   22.3604 C   0  0  0  0  0  0  0  0  0  0  0  0
   13.7739    3.3951   22.4062 C   0  0  0  0  0  0  0  0  0  0  0  0
   13.1429    2.1640   22.4335 C   0  0  0  0  0  0  0  0  0  0  0  0
   11.7542    2.0844   22.4163 C   0  0  0  0  0  0  0  0  0  0  0  0
   11.0272    3.2684   22.3717 C   0  0  0  0  0  0  0  0  0  0  0  0
   11.6736    4.4912   22.3449 C   0  0  0  0  0  0  0  0  0  0  0  0
   11.0505    0.8229   22.4430 N   0  0  0  0  0  0  0  0  0  0  0  0
   11.3140   -0.2015   23.3230 C   0  0  0  0  0  0  0  0  0  0  0  0
   10.5429   -1.2265   23.1394 N   0  0  0  0  0  0  0  0  0  0  0  0
    9.7453   -0.8518   22.0982 N   0  0  0  0  0  0  0  0  0  0  0  0
    8.7256   -1.7605   21.5828 C   0  0  0  0  0  0  0  0  0  0  0  0
    7.4232   -1.6288   22.3569 C   0  0  0  0  0  0  0  0  0  0  0  0
    7.7156   -1.5079   23.7517 O   0  0  0  0  0  0  0  0  0  0  0  0
    6.6106   -0.4176   21.9126 C   0  0  0  0  0  0  0  0  0  0  0  0
    6.3058   -0.4048   20.4391 C   0  0  0  0  0  0  0  0  0  0  0  0
    6.3738    0.7340   19.5980 C   0  0  0  0  0  0  0  0  0  0  0  0
    6.0451    0.5068   18.2961 C   0  0  0  0  0  0  0  0  0  0  0  0
    5.6429   -1.1288   18.0865 S   0  0  0  0  0  0  0  0  0  0  0  0
    5.9103   -1.4958   19.7249 C   0  0  0  0  0  0  0  0  0  0  0  0
   10.0067    0.3932   21.6241 C   0  0  0  0  0  0  0  0  0  0  0  0
    9.4533    0.9756   20.7062 O   0  0  0  0  0  0  0  0  0  0  0  0
  1  2  1  0
  2  3  2  0
  3  4  1  0
  4  5  2  0
  5  6  1  0
  6  7  2  0
  5  8  1  0
  8  9  1  0
  9 10  2  0
 10 11  1  0
 11 12  1  0
 12 13  1  0
 13 14  1  0
 13 15  1  0
 15 16  1  0
 16 17  1  0
 17 18  2  0
 18 19  1  0
 19 20  1  0
 11 21  1  0
 21 22  2  0
  7  2  1  0
 21  8  1  0
 20 16  2  0
M  END
