CVD-0001854|dock_bobby27042020.94|mol2|4|dock1
     RDKit          3D

 12 12  0  0  0  0  0  0  0  0999 V2000
   13.4636    5.2260   22.4409 C   0  0  0  0  0  0  0  0  0  0  0  0
   12.3497    4.3485   22.5942 O   0  0  0  0  0  0  0  0  0  0  0  0
   12.5325    2.9880   22.5822 C   0  0  0  0  0  0  0  0  0  0  0  0
   13.7926    2.4171   22.4691 C   0  0  0  0  0  0  0  0  0  0  0  0
   13.9279    1.0399   22.4619 C   0  0  0  0  0  0  0  0  0  0  0  0
   12.8046    0.2375   22.5691 C   0  0  0  0  0  0  0  0  0  0  0  0
   11.5453    0.8016   22.6799 C   0  0  0  0  0  0  0  0  0  0  0  0
   11.4142    2.1787   22.6867 C   0  0  0  0  0  0  0  0  0  0  0  0
   12.9788   -1.5210   22.5535 S   0  0  0  0  0  0  0  0  0  0  0  0
   13.3846   -1.9776   21.0737 N   0  0  0  0  0  0  0  0  0  0  0  0
   14.0757   -1.8498   23.4138 O   0  0  0  0  0  0  0  0  0  0  0  0
   11.6902   -2.0810   22.8310 O   0  0  0  0  0  0  0  0  0  0  0  0
  1  2  1  0
  2  3  1  0
  3  4  2  0
  4  5  1  0
  5  6  2  0
  6  7  1  0
  7  8  2  0
  6  9  1  0
  9 10  1  0
  9 11  2  0
  9 12  2  0
  8  3  1  0
M  END
