CVD-0001791|dock_bobby27042020.8|mol2|25|dock3
     RDKit          3D

 31 34  0  0  0  0  0  0  0  0999 V2000
   10.0325   -5.4612   27.3038 C   0  0  0  0  0  0  0  0  0  0  0  0
    8.6828   -5.7936   26.7382 C   0  0  0  0  0  0  0  0  0  0  0  0
    8.3352   -6.9618   26.6034 O   0  0  0  0  0  0  0  0  0  0  0  0
    7.8743   -4.7644   26.3730 N   0  0  0  0  0  0  0  0  0  0  0  0
    8.1728   -3.3490   26.5348 C   0  0  0  0  0  0  0  0  0  0  0  0
    8.9869   -2.7162   25.4200 C   0  0  0  0  0  0  0  0  0  0  0  0
    8.3286   -2.7688   24.0842 N   0  0  0  0  0  0  0  0  0  0  0  0
    9.3096   -2.8524   22.9923 C   0  0  0  0  0  0  0  0  0  0  0  0
   10.2202   -1.6489   22.9299 C   0  0  0  0  0  0  0  0  0  0  0  0
   11.5928   -1.7979   23.1209 C   0  0  0  0  0  0  0  0  0  0  0  0
   12.4466   -0.7369   23.0692 C   0  0  0  0  0  0  0  0  0  0  0  0
   11.9705    0.5714   22.8162 C   0  0  0  0  0  0  0  0  0  0  0  0
   12.8237    1.6966   22.7551 C   0  0  0  0  0  0  0  0  0  0  0  0
   12.3443    2.9603   22.5082 C   0  0  0  0  0  0  0  0  0  0  0  0
   10.9734    3.1307   22.3127 C   0  0  0  0  0  0  0  0  0  0  0  0
   10.1120    2.0762   22.3624 C   0  0  0  0  0  0  0  0  0  0  0  0
   10.5765    0.7616   22.6152 C   0  0  0  0  0  0  0  0  0  0  0  0
    9.7395   -0.3723   22.6798 C   0  0  0  0  0  0  0  0  0  0  0  0
    8.4182   -0.1965   22.4891 F   0  0  0  0  0  0  0  0  0  0  0  0
   13.3089    4.1151   22.4565 C   0  0  0  0  0  0  0  0  0  0  0  0
   13.1212    5.1126   21.6001 N   0  0  0  0  0  0  0  0  0  0  0  0
   14.2733    4.1062   23.2296 O   0  0  0  0  0  0  0  0  0  0  0  0
    7.2567   -3.6856   23.5880 C   0  0  0  0  0  0  0  0  0  0  0  0
    6.2408   -4.0284   24.6646 C   0  0  0  0  0  0  0  0  0  0  0  0
    6.6289   -5.0847   25.6808 C   0  0  0  0  0  0  0  0  0  0  0  0
    4.9816   -4.5214   23.9788 C   0  0  0  0  0  0  0  0  0  0  0  0
    5.0053   -5.6505   23.1738 C   0  0  0  0  0  0  0  0  0  0  0  0
    3.8470   -6.0842   22.5531 C   0  0  0  0  0  0  0  0  0  0  0  0
    2.6877   -5.3708   22.7556 C   0  0  0  0  0  0  0  0  0  0  0  0
    2.6275   -4.2808   23.5215 N   0  0  0  0  0  0  0  0  0  0  0  0
    3.7593   -3.8822   24.1097 C   0  0  0  0  0  0  0  0  0  0  0  0
  1  2  1  0
  2  3  2  0
  2  4  1  0
  4  5  1  0
  5  6  1  0
  6  7  1  0
  7  8  1  0
  8  9  1  0
  9 10  2  0
 10 11  1  0
 11 12  2  0
 12 13  1  0
 13 14  2  0
 14 15  1  0
 15 16  2  0
 16 17  1  0
 17 18  2  0
 18 19  1  0
 14 20  1  0
 20 21  1  0
 20 22  2  0
  7 23  1  0
 23 24  1  0
 24 25  1  0
 24 26  1  0
 26 27  2  0
 27 28  1  0
 28 29  2  0
 29 30  1  0
 30 31  2  0
 25  4  1  0
 31 26  1  0
 18  9  1  0
 17 12  1  0
M  END
