CVD-0001214|dock_bobby27042020.81|mol2|43|dock1
     RDKit          3D

 24 26  0  0  0  0  0  0  0  0999 V2000
   13.3914   -2.1855   21.2559 C   0  0  0  0  0  0  0  0  0  0  0  0
   12.5594   -1.9262   22.4240 N   0  0  0  0  0  0  0  0  0  0  0  0
   13.2046   -1.1613   23.4847 C   0  0  0  0  0  0  0  0  0  0  0  0
   13.3703    0.3123   23.1550 C   0  0  0  0  0  0  0  0  0  0  0  0
   14.4779    0.7663   22.8887 O   0  0  0  0  0  0  0  0  0  0  0  0
   12.2056    1.0046   23.2023 N   0  0  0  0  0  0  0  0  0  0  0  0
   11.9460    2.3840   22.9693 C   0  0  0  0  0  0  0  0  0  0  0  0
   12.9380    3.3542   22.8247 C   0  0  0  0  0  0  0  0  0  0  0  0
   12.6925    4.6498   22.6057 N   0  0  0  0  0  0  0  0  0  0  0  0
   11.4217    5.0321   22.5201 C   0  0  0  0  0  0  0  0  0  0  0  0
   10.3642    4.1597   22.6468 C   0  0  0  0  0  0  0  0  0  0  0  0
   10.6064    2.8086   22.8767 C   0  0  0  0  0  0  0  0  0  0  0  0
    9.4275    1.8788   23.0077 C   0  0  0  0  0  0  0  0  0  0  0  0
   11.2048   -2.2369   22.4589 C   0  0  0  0  0  0  0  0  0  0  0  0
   10.6814   -3.0374   23.4705 C   0  0  0  0  0  0  0  0  0  0  0  0
    9.3314   -3.3404   23.5025 C   0  0  0  0  0  0  0  0  0  0  0  0
    8.4841   -2.8516   22.5261 C   0  0  0  0  0  0  0  0  0  0  0  0
    8.9855   -2.0547   21.5063 C   0  0  0  0  0  0  0  0  0  0  0  0
   10.3431   -1.7519   21.4757 C   0  0  0  0  0  0  0  0  0  0  0  0
    8.0857   -1.5360   20.4678 C   0  0  0  0  0  0  0  0  0  0  0  0
    6.7686   -1.1269   20.5522 C   0  0  0  0  0  0  0  0  0  0  0  0
    6.4213   -0.7332   19.2650 C   0  0  0  0  0  0  0  0  0  0  0  0
    7.4370   -0.8791   18.4230 N   0  0  0  0  0  0  0  0  0  0  0  0
    8.4593   -1.3760   19.1791 N   0  0  0  0  0  0  0  0  0  0  0  0
  1  2  1  0
  2  3  1  0
  3  4  1  0
  4  5  2  0
  4  6  1  0
  6  7  1  0
  7  8  2  0
  8  9  1  0
  9 10  2  0
 10 11  1  0
 11 12  2  0
 12 13  1  0
  2 14  1  0
 14 15  2  0
 15 16  1  0
 16 17  2  0
 17 18  1  0
 18 19  2  0
 18 20  1  0
 20 21  2  0
 21 22  1  0
 22 23  2  0
 23 24  1  0
 12  7  1  0
 19 14  1  0
 24 20  1  0
M  END
