CVD-0003836|dock_bobby27042020.15|mol2|22|dock1
     RDKit          3D

 30 33  0  0  0  0  0  0  0  0999 V2000
   12.9239    6.0931   23.4500 N   0  0  0  0  0  0  0  0  0  0  0  0
   13.4284    4.9938   22.4011 S   0  0  0  0  0  0  0  0  0  0  0  0
   14.7709    4.6491   22.7616 O   0  0  0  0  0  0  0  0  0  0  0  0
   13.1755    5.5120   21.0901 O   0  0  0  0  0  0  0  0  0  0  0  0
   12.4407    3.5410   22.5939 C   0  0  0  0  0  0  0  0  0  0  0  0
   13.0486    2.3018   22.6860 C   0  0  0  0  0  0  0  0  0  0  0  0
   12.2703    1.1668   22.8295 C   0  0  0  0  0  0  0  0  0  0  0  0
   10.8822    1.2484   22.8863 C   0  0  0  0  0  0  0  0  0  0  0  0
   10.2935    2.5058   22.7922 C   0  0  0  0  0  0  0  0  0  0  0  0
   11.0623    3.6466   22.6439 C   0  0  0  0  0  0  0  0  0  0  0  0
   10.1065    0.1064   23.0327 N   0  0  0  0  0  0  0  0  0  0  0  0
    9.2884   -0.1527   24.2213 C   0  0  0  0  0  0  0  0  0  0  0  0
    9.4422   -1.5629   24.7164 C   0  0  0  0  0  0  0  0  0  0  0  0
    9.1113   -2.5728   23.6120 C   0  0  0  0  0  0  0  0  0  0  0  0
    9.2601   -4.0095   24.1001 C   0  0  0  0  0  0  0  0  0  0  0  0
    8.7140   -4.2849   25.4351 N   0  0  0  0  0  0  0  0  0  0  0  0
    9.3130   -5.4909   25.9977 C   0  0  0  0  0  0  0  0  0  0  0  0
    8.8244   -5.7264   27.4165 C   0  0  0  0  0  0  0  0  0  0  0  0
    7.3052   -5.8776   27.4125 C   0  0  0  0  0  0  0  0  0  0  0  0
    6.6699   -4.6573   26.7627 C   0  0  0  0  0  0  0  0  0  0  0  0
    7.2594   -4.4651   25.3740 C   0  0  0  0  0  0  0  0  0  0  0  0
    6.7447   -6.1723   28.7901 C   0  0  0  0  0  0  0  0  0  0  0  0
    7.0939   -7.3356   29.4621 C   0  0  0  0  0  0  0  0  0  0  0  0
    6.5870   -7.6081   30.7218 C   0  0  0  0  0  0  0  0  0  0  0  0
    5.7201   -6.7172   31.3314 C   0  0  0  0  0  0  0  0  0  0  0  0
    5.3910   -5.5769   30.6510 C   0  0  0  0  0  0  0  0  0  0  0  0
    4.5405   -4.6919   31.2378 F   0  0  0  0  0  0  0  0  0  0  0  0
    5.8772   -5.2794   29.4016 C   0  0  0  0  0  0  0  0  0  0  0  0
    9.9737   -2.2763   22.4111 C   0  0  0  0  0  0  0  0  0  0  0  0
    9.8450   -0.8469   21.9293 C   0  0  0  0  0  0  0  0  0  0  0  0
  1  2  1  0
  2  3  2  0
  2  4  2  0
  2  5  1  0
  5  6  2  0
  6  7  1  0
  7  8  2  0
  8  9  1  0
  9 10  2  0
  8 11  1  0
 11 12  1  0
 12 13  1  0
 13 14  1  0
 14 15  1  0
 15 16  1  0
 16 17  1  0
 17 18  1  0
 18 19  1  0
 19 20  1  0
 20 21  1  0
 19 22  1  0
 22 23  2  0
 23 24  1  0
 24 25  2  0
 25 26  1  0
 26 27  1  0
 26 28  2  0
 14 29  1  0
 29 30  1  0
 10  5  1  0
 30 11  1  0
 21 16  1  0
 28 22  1  0
M  END
