CVD-0004071|dock_bobby27042020.0|mol2|2|dock2
     RDKit          3D

 24 26  0  0  0  0  0  0  0  0999 V2000
    4.0686    2.7215   18.6967 F   0  0  0  0  0  0  0  0  0  0  0  0
    4.5019    2.0515   19.7585 C   0  0  0  0  0  0  0  0  0  0  0  0
    5.0620    2.9541   20.5559 F   0  0  0  0  0  0  0  0  0  0  0  0
    3.4139    1.6295   20.3927 F   0  0  0  0  0  0  0  0  0  0  0  0
    5.4328    0.9376   19.4005 C   0  0  0  0  0  0  0  0  0  0  0  0
    5.2419    0.1465   18.2758 C   0  0  0  0  0  0  0  0  0  0  0  0
    6.1491   -0.8636   18.0091 C   0  0  0  0  0  0  0  0  0  0  0  0
    7.2210   -1.1436   18.7676 N   0  0  0  0  0  0  0  0  0  0  0  0
    7.4220   -0.3909   19.8543 C   0  0  0  0  0  0  0  0  0  0  0  0
    8.5490   -0.6985   20.6345 N   0  0  0  0  0  0  0  0  0  0  0  0
    8.7622   -0.5636   21.9658 C   0  0  0  0  0  0  0  0  0  0  0  0
    7.9472   -0.1184   22.7686 O   0  0  0  0  0  0  0  0  0  0  0  0
   10.1325   -1.0294   22.4159 C   0  0  0  0  0  0  0  0  0  0  0  0
   11.1459    0.0926   22.4301 C   0  0  0  0  0  0  0  0  0  0  0  0
   12.5017   -0.1921   22.3607 C   0  0  0  0  0  0  0  0  0  0  0  0
   13.4374    0.7975   22.3682 C   0  0  0  0  0  0  0  0  0  0  0  0
   13.0554    2.1576   22.4466 C   0  0  0  0  0  0  0  0  0  0  0  0
   13.9849    3.2248   22.4582 C   0  0  0  0  0  0  0  0  0  0  0  0
   13.5569    4.5171   22.5351 C   0  0  0  0  0  0  0  0  0  0  0  0
   12.2112    4.8126   22.6032 C   0  0  0  0  0  0  0  0  0  0  0  0
   11.2778    3.8190   22.5952 C   0  0  0  0  0  0  0  0  0  0  0  0
   11.6727    2.4623   22.5168 C   0  0  0  0  0  0  0  0  0  0  0  0
   10.7407    1.3991   22.5056 C   0  0  0  0  0  0  0  0  0  0  0  0
    6.5435    0.6386   20.1731 C   0  0  0  0  0  0  0  0  0  0  0  0
  1  2  1  0
  2  3  1  0
  2  4  1  0
  2  5  1  0
  5  6  2  0
  6  7  1  0
  7  8  2  0
  8  9  1  0
  9 10  1  0
 10 11  1  0
 11 12  2  0
 11 13  1  0
 13 14  1  0
 14 15  2  0
 15 16  1  0
 16 17  2  0
 17 18  1  0
 18 19  2  0
 19 20  1  0
 20 21  2  0
 21 22  1  0
 22 23  2  0
  9 24  2  0
 24  5  1  0
 23 14  1  0
 22 17  1  0
M  END
