CVD-0001068|dock_bobby27042020.53|mol2|47|dock1
     RDKit          3D

 21 23  0  0  0  0  0  0  0  0999 V2000
   10.5016   -6.5407   26.2569 N   0  0  0  0  0  0  0  0  0  0  0  0
    9.9837   -5.2863   26.0347 C   0  0  0  0  0  0  0  0  0  0  0  0
    9.2416   -4.6363   27.0221 C   0  0  0  0  0  0  0  0  0  0  0  0
    8.7328   -3.3708   26.7885 C   0  0  0  0  0  0  0  0  0  0  0  0
    8.9539   -2.7404   25.5756 C   0  0  0  0  0  0  0  0  0  0  0  0
    9.6763   -3.3734   24.5670 C   0  0  0  0  0  0  0  0  0  0  0  0
   10.1922   -4.6422   24.8150 C   0  0  0  0  0  0  0  0  0  0  0  0
    9.9538   -2.7747   23.2203 C   0  0  0  0  0  0  0  0  0  0  0  0
   11.0889   -2.9288   22.7562 O   0  0  0  0  0  0  0  0  0  0  0  0
    8.9741   -2.0146   22.4164 C   0  0  0  0  0  0  0  0  0  0  0  0
    9.2483   -1.3388   21.3027 C   0  0  0  0  0  0  0  0  0  0  0  0
    8.2775   -0.5861   20.5048 C   0  0  0  0  0  0  0  0  0  0  0  0
    8.4681   -0.3811   19.1414 C   0  0  0  0  0  0  0  0  0  0  0  0
    7.6302    0.2850   18.3816 N   0  0  0  0  0  0  0  0  0  0  0  0
    6.5196    0.7902   19.0024 C   0  0  0  0  0  0  0  0  0  0  0  0
    5.5634    1.5213   18.2609 C   0  0  0  0  0  0  0  0  0  0  0  0
    4.4581    2.0231   18.8830 C   0  0  0  0  0  0  0  0  0  0  0  0
    4.2527    1.8295   20.2347 C   0  0  0  0  0  0  0  0  0  0  0  0
    5.1488    1.1305   20.9892 C   0  0  0  0  0  0  0  0  0  0  0  0
    6.3094    0.5916   20.3880 C   0  0  0  0  0  0  0  0  0  0  0  0
    7.2131   -0.1109   21.1388 N   0  0  0  0  0  0  0  0  0  0  0  0
  1  2  1  0
  2  3  2  0
  3  4  1  0
  4  5  2  0
  5  6  1  0
  6  7  2  0
  6  8  1  0
  8  9  2  0
  8 10  1  0
 10 11  2  0
 11 12  1  0
 12 13  2  0
 13 14  1  0
 14 15  2  0
 15 16  1  0
 16 17  2  0
 17 18  1  0
 18 19  2  0
 19 20  1  0
 20 21  2  0
  7  2  1  0
 21 12  1  0
 20 15  1  0
M  END
