CVD-0002415|dock_bobby27042020.77|mol2|24|dock2
     RDKit          3D

 32 35  0  0  0  0  0  0  0  0999 V2000
    3.0842   -7.9543   26.8846 Cl  0  0  0  0  0  0  0  0  0  0  0  0
    3.9433   -6.7046   25.9750 C   0  0  0  0  0  0  0  0  0  0  0  0
    4.5096   -7.2525   24.6789 C   0  0  0  0  0  0  0  0  0  0  0  0
    4.2552   -8.4004   24.3360 O   0  0  0  0  0  0  0  0  0  0  0  0
    5.2876   -6.4448   23.9199 N   0  0  0  0  0  0  0  0  0  0  0  0
    5.6361   -5.0608   24.2299 C   0  0  0  0  0  0  0  0  0  0  0  0
    5.4602   -4.1950   22.9995 C   0  0  0  0  0  0  0  0  0  0  0  0
    6.3093   -4.7206   21.8488 C   0  0  0  0  0  0  0  0  0  0  0  0
    5.9614   -6.1839   21.5846 C   0  0  0  0  0  0  0  0  0  0  0  0
    6.1129   -7.0098   22.8577 C   0  0  0  0  0  0  0  0  0  0  0  0
    6.1095   -3.8825   20.6012 C   0  0  0  0  0  0  0  0  0  0  0  0
    5.4795   -4.3076   19.6375 O   0  0  0  0  0  0  0  0  0  0  0  0
    6.6772   -2.6531   20.6731 N   0  0  0  0  0  0  0  0  0  0  0  0
    6.7003   -1.5966   19.7285 C   0  0  0  0  0  0  0  0  0  0  0  0
    5.6297   -1.2180   18.9182 C   0  0  0  0  0  0  0  0  0  0  0  0
    5.7859   -0.1623   18.0344 C   0  0  0  0  0  0  0  0  0  0  0  0
    6.9806    0.5198   17.9498 C   0  0  0  0  0  0  0  0  0  0  0  0
    8.0501    0.1586   18.7499 C   0  0  0  0  0  0  0  0  0  0  0  0
    7.9153   -0.9045   19.6330 C   0  0  0  0  0  0  0  0  0  0  0  0
    8.8873   -1.3808   20.4784 O   0  0  0  0  0  0  0  0  0  0  0  0
    9.7885   -0.5320   21.2373 C   0  0  0  0  0  0  0  0  0  0  0  0
    9.0870    0.3501   22.2631 C   0  0  0  0  0  0  0  0  0  0  0  0
   10.0590    1.1233   23.1324 C   0  0  0  0  0  0  0  0  0  0  0  0
   11.0039    0.2334   23.8179 N   0  0  0  0  0  0  0  0  0  0  0  0
   11.8976    0.9964   24.6914 C   0  0  0  0  0  0  0  0  0  0  0  0
   12.5507    2.1774   24.0187 C   0  0  0  0  0  0  0  0  0  0  0  0
   12.0517    3.5029   24.0470 C   0  0  0  0  0  0  0  0  0  0  0  0
   12.8058    4.4064   23.3610 C   0  0  0  0  0  0  0  0  0  0  0  0
   14.1459    3.6256   22.6694 S   0  0  0  0  0  0  0  0  0  0  0  0
   13.6987    2.1067   23.2893 C   0  0  0  0  0  0  0  0  0  0  0  0
   11.7605   -0.5291   22.8213 C   0  0  0  0  0  0  0  0  0  0  0  0
   10.8345   -1.3728   21.9608 C   0  0  0  0  0  0  0  0  0  0  0  0
  1  2  1  0
  2  3  1  0
  3  4  2  0
  3  5  1  0
  5  6  1  0
  6  7  1  0
  7  8  1  0
  8  9  1  0
  9 10  1  0
  8 11  1  0
 11 12  2  0
 11 13  1  0
 13 14  1  0
 14 15  2  0
 15 16  1  0
 16 17  2  0
 17 18  1  0
 18 19  2  0
 19 20  1  0
 20 21  1  0
 21 22  1  0
 22 23  1  0
 23 24  1  0
 24 25  1  0
 25 26  1  0
 26 27  1  0
 27 28  2  0
 28 29  1  0
 29 30  1  0
 24 31  1  0
 31 32  1  0
 10  5  1  0
 19 14  1  0
 32 21  1  0
 30 26  2  0
M  END
