CVD-0001106|dock_bobby27042020.53|mol2|41|dock1
     RDKit          3D

 27 30  0  0  0  0  0  0  0  0999 V2000
    7.3824    0.2775   24.6986 C   0  0  0  0  0  0  0  0  0  0  0  0
    6.8786   -1.0881   24.7758 N   0  0  0  0  0  0  0  0  0  0  0  0
    5.9439   -1.4868   25.7022 C   0  0  0  0  0  0  0  0  0  0  0  0
    5.6946   -2.8093   25.5890 C   0  0  0  0  0  0  0  0  0  0  0  0
    6.5297   -3.3086   24.5429 C   0  0  0  0  0  0  0  0  0  0  0  0
    6.7462   -4.5789   23.9900 C   0  0  0  0  0  0  0  0  0  0  0  0
    7.6574   -4.7566   22.9661 C   0  0  0  0  0  0  0  0  0  0  0  0
    8.3545   -3.6783   22.4477 C   0  0  0  0  0  0  0  0  0  0  0  0
    8.1381   -2.3979   22.9568 C   0  0  0  0  0  0  0  0  0  0  0  0
    8.8381   -1.2961   22.3486 N   0  0  0  0  0  0  0  0  0  0  0  0
   10.2286   -0.9915   22.7640 C   0  0  0  0  0  0  0  0  0  0  0  0
   10.5440   -1.5873   24.1323 C   0  0  0  0  0  0  0  0  0  0  0  0
   11.9678   -1.2027   24.5431 C   0  0  0  0  0  0  0  0  0  0  0  0
   13.0047   -1.6224   23.5191 C   0  0  0  0  0  0  0  0  0  0  0  0
   14.3234   -1.2228   23.9024 O   0  0  0  0  0  0  0  0  0  0  0  0
   12.6419   -1.0664   22.1511 C   0  0  0  0  0  0  0  0  0  0  0  0
   11.2258   -1.4611   21.7166 C   0  0  0  0  0  0  0  0  0  0  0  0
    8.2474   -0.5588   21.3537 C   0  0  0  0  0  0  0  0  0  0  0  0
    8.8692    0.3480   20.8143 O   0  0  0  0  0  0  0  0  0  0  0  0
    6.8269   -0.8516   20.9019 C   0  0  0  0  0  0  0  0  0  0  0  0
    6.3970   -0.0057   19.7244 C   0  0  0  0  0  0  0  0  0  0  0  0
    5.3654    0.9116   19.8340 C   0  0  0  0  0  0  0  0  0  0  0  0
    4.9968    1.6685   18.7359 C   0  0  0  0  0  0  0  0  0  0  0  0
    5.6771    1.4821   17.5540 C   0  0  0  0  0  0  0  0  0  0  0  0
    6.6740    0.6066   17.4168 N   0  0  0  0  0  0  0  0  0  0  0  0
    7.0120   -0.1130   18.4911 C   0  0  0  0  0  0  0  0  0  0  0  0
    7.2491   -2.2006   24.0310 C   0  0  0  0  0  0  0  0  0  0  0  0
  1  2  1  0
  2  3  1  0
  3  4  2  0
  4  5  1  0
  5  6  2  0
  6  7  1  0
  7  8  2  0
  8  9  1  0
  9 10  1  0
 10 11  1  0
 11 12  1  0
 12 13  1  0
 13 14  1  0
 14 15  1  0
 14 16  1  0
 16 17  1  0
 10 18  1  0
 18 19  2  0
 18 20  1  0
 20 21  1  0
 21 22  2  0
 22 23  1  0
 23 24  2  0
 24 25  1  0
 25 26  2  0
  9 27  2  0
 27  2  1  0
 27  5  1  0
 17 11  1  0
 26 21  1  0
M  END
