CVD-0002458|dock_bobby27042020.63|mol2|17|dock2
     RDKit          3D

 31 34  0  0  0  0  0  0  0  0999 V2000
   13.4334    8.8423   27.1771 C   0  0  0  0  0  0  0  0  0  0  0  0
   13.4421    8.1392   25.8416 C   0  0  0  0  0  0  0  0  0  0  0  0
   13.2437    6.7710   25.7531 C   0  0  0  0  0  0  0  0  0  0  0  0
   13.2522    6.1152   24.5346 C   0  0  0  0  0  0  0  0  0  0  0  0
   13.4610    6.8364   23.3687 C   0  0  0  0  0  0  0  0  0  0  0  0
   13.4767    6.2331   22.1347 O   0  0  0  0  0  0  0  0  0  0  0  0
   12.7601    5.0230   21.9049 C   0  0  0  0  0  0  0  0  0  0  0  0
   13.5551    3.8329   22.4175 C   0  0  0  0  0  0  0  0  0  0  0  0
   14.6767    3.9880   22.8840 O   0  0  0  0  0  0  0  0  0  0  0  0
   12.9767    2.6161   22.3426 N   0  0  0  0  0  0  0  0  0  0  0  0
   11.6624    2.2693   21.8244 C   0  0  0  0  0  0  0  0  0  0  0  0
   10.8871    1.3729   22.7833 C   0  0  0  0  0  0  0  0  0  0  0  0
   11.6956    0.2073   23.1702 N   0  0  0  0  0  0  0  0  0  0  0  0
   12.9684    0.6539   23.7917 C   0  0  0  0  0  0  0  0  0  0  0  0
   13.7516    1.4444   22.7775 C   0  0  0  0  0  0  0  0  0  0  0  0
   11.0719   -0.9145   23.6601 C   0  0  0  0  0  0  0  0  0  0  0  0
   11.2193   -2.1850   23.0826 C   0  0  0  0  0  0  0  0  0  0  0  0
   10.6051   -3.2586   23.5916 N   0  0  0  0  0  0  0  0  0  0  0  0
    9.8346   -3.0752   24.6707 C   0  0  0  0  0  0  0  0  0  0  0  0
    9.1495   -4.2958   25.2359 C   0  0  0  0  0  0  0  0  0  0  0  0
    7.9030   -4.6331   24.5326 N   0  0  0  0  0  0  0  0  0  0  0  0
    7.0076   -3.4716   24.4713 C   0  0  0  0  0  0  0  0  0  0  0  0
    5.6922   -3.8097   23.7978 C   0  0  0  0  0  0  0  0  0  0  0  0
    5.8780   -4.3813   22.3974 C   0  0  0  0  0  0  0  0  0  0  0  0
    4.6630   -4.8273   21.7889 O   0  0  0  0  0  0  0  0  0  0  0  0
    6.8890   -5.5201   22.4729 C   0  0  0  0  0  0  0  0  0  0  0  0
    8.1733   -5.1078   23.1729 C   0  0  0  0  0  0  0  0  0  0  0  0
    9.6881   -1.8171   25.2335 C   0  0  0  0  0  0  0  0  0  0  0  0
   10.3003   -0.7384   24.7341 N   0  0  0  0  0  0  0  0  0  0  0  0
   13.6653    8.2036   23.4386 C   0  0  0  0  0  0  0  0  0  0  0  0
   13.6545    8.8410   24.6663 C   0  0  0  0  0  0  0  0  0  0  0  0
  1  2  1  0
  2  3  2  0
  3  4  1  0
  4  5  2  0
  5  6  1  0
  6  7  1  0
  7  8  1  0
  8  9  2  0
  8 10  1  0
 10 11  1  0
 11 12  1  0
 12 13  1  0
 13 14  1  0
 14 15  1  0
 13 16  1  0
 16 17  2  0
 17 18  1  0
 18 19  2  0
 19 20  1  0
 20 21  1  0
 21 22  1  0
 22 23  1  0
 23 24  1  0
 24 25  1  0
 24 26  1  0
 26 27  1  0
 19 28  1  0
 28 29  2  0
  5 30  1  0
 30 31  2  0
 31  2  1  0
 15 10  1  0
 29 16  1  0
 27 21  1  0
M  END
