CVD-0003425|dock_bobby27042020.31|mol2|3|dock3
     RDKit          3D

 21 23  0  0  0  0  0  0  0  0999 V2000
    8.6529   -0.6214   17.9727 Cl  0  0  0  0  0  0  0  0  0  0  0  0
    7.2371    0.3372   18.2706 C   0  0  0  0  0  0  0  0  0  0  0  0
    6.7573    0.9852   17.2222 N   0  0  0  0  0  0  0  0  0  0  0  0
    5.6380    1.6640   17.3571 C   0  0  0  0  0  0  0  0  0  0  0  0
    4.9147    1.7656   18.5649 C   0  0  0  0  0  0  0  0  0  0  0  0
    3.7484    2.4832   18.6048 N   0  0  0  0  0  0  0  0  0  0  0  0
    3.1168    2.5480   19.7643 C   0  0  0  0  0  0  0  0  0  0  0  0
    3.5460    1.9479   20.9287 C   0  0  0  0  0  0  0  0  0  0  0  0
    4.7030    1.2278   20.9103 C   0  0  0  0  0  0  0  0  0  0  0  0
    5.4383    1.1093   19.7052 C   0  0  0  0  0  0  0  0  0  0  0  0
    6.6587    0.3933   19.5315 C   0  0  0  0  0  0  0  0  0  0  0  0
    7.2452   -0.2518   20.6487 N   0  0  0  0  0  0  0  0  0  0  0  0
    8.5150   -0.0298   21.0645 C   0  0  0  0  0  0  0  0  0  0  0  0
    9.2612    0.7591   20.4940 O   0  0  0  0  0  0  0  0  0  0  0  0
    8.9606   -0.8375   22.2677 C   0  0  0  0  0  0  0  0  0  0  0  0
   10.4556   -0.7577   22.6020 C   0  0  0  0  0  0  0  0  0  0  0  0
   11.3021   -1.5075   21.5530 C   0  0  0  0  0  0  0  0  0  0  0  0
   12.7903   -1.5081   21.8970 C   0  0  0  0  0  0  0  0  0  0  0  0
   13.0354   -2.0519   23.2987 C   0  0  0  0  0  0  0  0  0  0  0  0
   12.2223   -1.2880   24.3339 C   0  0  0  0  0  0  0  0  0  0  0  0
   10.7337   -1.3260   24.0041 C   0  0  0  0  0  0  0  0  0  0  0  0
  1  2  1  0
  2  3  2  0
  3  4  1  0
  4  5  2  0
  5  6  1  0
  6  7  2  0
  7  8  1  0
  8  9  2  0
  9 10  1  0
 10 11  2  0
 11 12  1  0
 12 13  1  0
 13 14  2  0
 13 15  1  0
 15 16  1  0
 16 17  1  0
 17 18  1  0
 18 19  1  0
 19 20  1  0
 20 21  1  0
 11  2  1  0
 21 16  1  0
 10  5  1  0
M  END
