CVD-0001875|dock_bobby27042020.79|mol2|34|dock2
     RDKit          3D

 35 37  0  0  0  0  0  0  0  0999 V2000
   14.4300    6.6276   21.4324 C   0  0  0  0  0  0  0  0  0  0  0  0
   13.0840    6.3674   21.8256 O   0  0  0  0  0  0  0  0  0  0  0  0
   12.6967    5.0953   22.1666 C   0  0  0  0  0  0  0  0  0  0  0  0
   13.6095    4.0619   22.3120 C   0  0  0  0  0  0  0  0  0  0  0  0
   13.1661    2.7976   22.6571 C   0  0  0  0  0  0  0  0  0  0  0  0
   11.8163    2.5393   22.8626 C   0  0  0  0  0  0  0  0  0  0  0  0
   11.4372    1.2194   23.2140 N   0  0  0  0  0  0  0  0  0  0  0  0
   10.3183    0.5062   22.9326 C   0  0  0  0  0  0  0  0  0  0  0  0
    9.3625    0.9068   22.2738 O   0  0  0  0  0  0  0  0  0  0  0  0
   10.3204   -0.9209   23.5259 C   0  0  0  0  0  0  0  0  0  0  0  0
    9.2400   -1.7623   22.9413 N   0  0  0  0  0  0  0  0  0  0  0  0
    9.1609   -3.0756   23.3938 C   0  0  0  0  0  0  0  0  0  0  0  0
    9.9501   -3.5053   24.2341 O   0  0  0  0  0  0  0  0  0  0  0  0
    8.1344   -4.0331   22.8863 C   0  0  0  0  0  0  0  0  0  0  0  0
    8.0529   -5.2451   23.3686 C   0  0  0  0  0  0  0  0  0  0  0  0
    8.3428   -1.1686   21.9863 C   0  0  0  0  0  0  0  0  0  0  0  0
    8.5913   -1.2235   20.6181 C   0  0  0  0  0  0  0  0  0  0  0  0
    7.7295   -0.6427   19.7047 C   0  0  0  0  0  0  0  0  0  0  0  0
    6.5896   -0.0034   20.1580 C   0  0  0  0  0  0  0  0  0  0  0  0
    6.3075    0.0504   21.5113 C   0  0  0  0  0  0  0  0  0  0  0  0
    7.1794   -0.5356   22.4117 C   0  0  0  0  0  0  0  0  0  0  0  0
    5.4626    0.7640   18.9765 S   0  0  0  0  0  0  0  0  0  0  0  0
    3.9984    0.1751   18.8697 F   0  0  0  0  0  0  0  0  0  0  0  0
    5.5645    2.3298   18.7758 F   0  0  0  0  0  0  0  0  0  0  0  0
    4.2832    1.6462   19.5537 F   0  0  0  0  0  0  0  0  0  0  0  0
    5.1034   -0.0507   17.6691 F   0  0  0  0  0  0  0  0  0  0  0  0
    6.0712    1.2811   17.6110 F   0  0  0  0  0  0  0  0  0  0  0  0
   11.6960   -1.5734   23.4405 C   0  0  0  0  0  0  0  0  0  0  0  0
   12.6298   -1.4769   24.4622 C   0  0  0  0  0  0  0  0  0  0  0  0
   13.8642   -2.0891   24.3315 C   0  0  0  0  0  0  0  0  0  0  0  0
   14.1339   -2.7825   23.1737 C   0  0  0  0  0  0  0  0  0  0  0  0
   13.2627   -2.8924   22.1700 N   0  0  0  0  0  0  0  0  0  0  0  0
   12.0772   -2.2941   22.3196 C   0  0  0  0  0  0  0  0  0  0  0  0
   10.9104    3.5856   22.7133 C   0  0  0  0  0  0  0  0  0  0  0  0
   11.3500    4.8513   22.3683 C   0  0  0  0  0  0  0  0  0  0  0  0
  1  2  1  0
  2  3  1  0
  3  4  2  0
  4  5  1  0
  5  6  2  0
  6  7  1  0
  7  8  1  0
  8  9  2  0
  8 10  1  0
 10 11  1  0
 11 12  1  0
 12 13  2  0
 12 14  1  0
 14 15  2  0
 11 16  1  0
 16 17  2  0
 17 18  1  0
 18 19  2  0
 19 20  1  0
 20 21  2  0
 19 22  1  0
 22 23  1  0
 22 24  1  0
 22 25  1  0
 22 26  1  0
 22 27  1  0
 10 28  1  0
 28 29  2  0
 29 30  1  0
 30 31  2  0
 31 32  1  0
 32 33  2  0
  6 34  1  0
 34 35  2  0
 35  3  1  0
 21 16  1  0
 33 28  1  0
M  END
