CVD-0000865|dock_bobby27042020.11|mol2|32|dock2
     RDKit          3D

 25 26  0  0  0  0  0  0  0  0999 V2000
    7.9074   -0.9743   18.6818 C   0  0  0  0  0  0  0  0  0  0  0  0
    7.2651   -1.0308   20.0628 C   0  0  0  0  0  0  0  0  0  0  0  0
    6.3179    0.0832   20.1709 N   0  0  0  0  0  0  0  0  0  0  0  0
    5.2278    0.1858   19.4074 C   0  0  0  0  0  0  0  0  0  0  0  0
    4.9198   -0.6370   18.5507 O   0  0  0  0  0  0  0  0  0  0  0  0
    4.3898    1.4171   19.6734 C   0  0  0  0  0  0  0  0  0  0  0  0
    3.5712    1.3285   21.2385 Cl  0  0  0  0  0  0  0  0  0  0  0  0
    8.3075   -0.9722   21.1641 C   0  0  0  0  0  0  0  0  0  0  0  0
    8.4901   -2.0451   22.0233 C   0  0  0  0  0  0  0  0  0  0  0  0
    9.4404   -1.9679   23.0193 C   0  0  0  0  0  0  0  0  0  0  0  0
    9.6553   -3.3223   24.0925 Cl  0  0  0  0  0  0  0  0  0  0  0  0
   10.2260   -0.8468   23.1878 C   0  0  0  0  0  0  0  0  0  0  0  0
   10.0599    0.2455   22.3357 C   0  0  0  0  0  0  0  0  0  0  0  0
    9.0925    0.1594   21.3328 C   0  0  0  0  0  0  0  0  0  0  0  0
   10.8936    1.4677   22.4956 C   0  0  0  0  0  0  0  0  0  0  0  0
   12.2754    1.3812   22.6403 C   0  0  0  0  0  0  0  0  0  0  0  0
   13.0540    2.5142   22.7884 C   0  0  0  0  0  0  0  0  0  0  0  0
   12.4675    3.7693   22.8015 C   0  0  0  0  0  0  0  0  0  0  0  0
   11.0786    3.8841   22.6576 C   0  0  0  0  0  0  0  0  0  0  0  0
   10.4452    5.0891   22.6615 O   0  0  0  0  0  0  0  0  0  0  0  0
   10.3141    2.7382   22.5047 C   0  0  0  0  0  0  0  0  0  0  0  0
   13.5484    5.1626   22.9935 S   0  0  0  0  0  0  0  0  0  0  0  0
   13.7358    5.8593   21.5643 N   0  0  0  0  0  0  0  0  0  0  0  0
   14.8281    4.6570   23.3908 O   0  0  0  0  0  0  0  0  0  0  0  0
   12.8818    6.1048   23.8413 O   0  0  0  0  0  0  0  0  0  0  0  0
  1  2  1  0
  2  3  1  0
  3  4  1  0
  4  5  2  0
  4  6  1  0
  6  7  1  0
  2  8  1  0
  8  9  2  0
  9 10  1  0
 10 11  1  0
 10 12  2  0
 12 13  1  0
 13 14  2  0
 13 15  1  0
 15 16  2  0
 16 17  1  0
 17 18  2  0
 18 19  1  0
 19 20  1  0
 19 21  2  0
 18 22  1  0
 22 23  1  0
 22 24  2  0
 22 25  2  0
 14  8  1  0
 21 15  1  0
M  END
