CVD-0003674|dock_bobby27042020.87|mol2|13|dock3
     RDKit          3D

 17 17  0  0  0  0  0  0  0  0999 V2000
   14.3529   -2.6452   25.0308 C   0  0  0  0  0  0  0  0  0  0  0  0
   13.0085   -2.1725   24.7557 N   0  0  0  0  0  0  0  0  0  0  0  0
   12.6438   -1.7363   23.5579 C   0  0  0  0  0  0  0  0  0  0  0  0
   13.4191   -1.7045   22.6060 O   0  0  0  0  0  0  0  0  0  0  0  0
   11.2087   -1.2746   23.4210 C   0  0  0  0  0  0  0  0  0  0  0  0
   11.0357   -0.3927   22.1907 C   0  0  0  0  0  0  0  0  0  0  0  0
    9.5896    0.0328   22.0397 C   0  0  0  0  0  0  0  0  0  0  0  0
    8.7293   -1.1445   21.9577 N   0  0  0  0  0  0  0  0  0  0  0  0
    8.8211   -1.9935   23.1406 C   0  0  0  0  0  0  0  0  0  0  0  0
   10.2582   -2.4665   23.3326 C   0  0  0  0  0  0  0  0  0  0  0  0
    7.7368   -1.3326   21.0649 C   0  0  0  0  0  0  0  0  0  0  0  0
    7.0540   -2.3489   21.0494 O   0  0  0  0  0  0  0  0  0  0  0  0
    7.4418   -0.2485   20.0377 C   0  0  0  0  0  0  0  0  0  0  0  0
    5.9164   -0.5142   19.1524 S   0  0  0  0  0  0  0  0  0  0  0  0
    5.7667    0.8538   18.0636 C   0  0  0  0  0  0  0  0  0  0  0  0
    4.8437   -0.4662   20.1105 O   0  0  0  0  0  0  0  0  0  0  0  0
    6.0497   -1.7215   18.3801 O   0  0  0  0  0  0  0  0  0  0  0  0
  1  2  1  0
  2  3  1  0
  3  4  2  0
  3  5  1  0
  5  6  1  0
  6  7  1  0
  7  8  1  0
  8  9  1  0
  9 10  1  0
  8 11  1  0
 11 12  2  0
 11 13  1  0
 13 14  1  0
 14 15  1  0
 14 16  2  0
 14 17  2  0
 10  5  1  0
M  END
