CVD-0003603|dock_bobby27042020.44|mol2|44|dock3
     RDKit          3D

 22 24  0  0  0  0  0  0  0  0999 V2000
    8.5572   -0.7013   22.6057 O   0  0  0  0  0  0  0  0  0  0  0  0
    9.0023   -0.8451   21.4712 C   0  0  0  0  0  0  0  0  0  0  0  0
    8.3010   -0.2409   20.2730 C   0  0  0  0  0  0  0  0  0  0  0  0
    7.4491   -1.2026   19.4999 C   0  0  0  0  0  0  0  0  0  0  0  0
    6.7982   -0.9669   18.3246 C   0  0  0  0  0  0  0  0  0  0  0  0
    6.1182   -2.0842   17.9183 N   0  0  0  0  0  0  0  0  0  0  0  0
    6.3206   -3.0734   18.8354 C   0  0  0  0  0  0  0  0  0  0  0  0
    5.8288   -4.3236   18.8077 N   0  0  0  0  0  0  0  0  0  0  0  0
    6.1717   -5.1182   19.8310 C   0  0  0  0  0  0  0  0  0  0  0  0
    6.9798   -4.7211   20.8747 C   0  0  0  0  0  0  0  0  0  0  0  0
    7.4787   -3.4280   20.8876 C   0  0  0  0  0  0  0  0  0  0  0  0
    7.1515   -2.5618   19.8463 C   0  0  0  0  0  0  0  0  0  0  0  0
   10.1208   -1.5184   21.2158 N   0  0  0  0  0  0  0  0  0  0  0  0
   10.9107   -2.1421   22.2670 C   0  0  0  0  0  0  0  0  0  0  0  0
   11.5109   -1.1417   23.2223 C   0  0  0  0  0  0  0  0  0  0  0  0
   10.8598   -0.8112   24.3994 C   0  0  0  0  0  0  0  0  0  0  0  0
   11.4527    0.1207   25.2475 C   0  0  0  0  0  0  0  0  0  0  0  0
   12.6701    0.6860   24.8875 C   0  0  0  0  0  0  0  0  0  0  0  0
   13.2393    0.2928   23.6933 C   0  0  0  0  0  0  0  0  0  0  0  0
   12.6846   -0.6016   22.8645 N   0  0  0  0  0  0  0  0  0  0  0  0
   10.8068    0.4908   26.4826 C   0  0  0  0  0  0  0  0  0  0  0  0
   10.2999    0.7530   27.4721 N   0  0  0  0  0  0  0  0  0  0  0  0
  1  2  2  0
  2  3  1  0
  3  4  1  0
  4  5  2  0
  5  6  1  0
  6  7  1  0
  7  8  2  0
  8  9  1  0
  9 10  2  0
 10 11  1  0
 11 12  2  0
  2 13  1  0
 13 14  1  0
 14 15  1  0
 15 16  2  0
 16 17  1  0
 17 18  2  0
 18 19  1  0
 19 20  2  0
 17 21  1  0
 21 22  3  0
 12  4  1  0
 20 15  1  0
 12  7  1  0
M  END
