CVD-0002052|dock_bobby27042020.50|mol2|26|dock1
     RDKit          3D

 34 37  0  0  0  0  0  0  0  0999 V2000
   13.7418   -1.5749   21.8503 C   0  0  0  0  0  0  0  0  0  0  0  0
   12.4247   -0.9730   21.6269 N   0  0  0  0  0  0  0  0  0  0  0  0
   11.4943   -1.1131   22.7523 C   0  0  0  0  0  0  0  0  0  0  0  0
   10.1877   -0.4134   22.4852 C   0  0  0  0  0  0  0  0  0  0  0  0
    9.5981    0.4499   23.2739 C   0  0  0  0  0  0  0  0  0  0  0  0
    8.3386    1.0175   22.6544 C   0  0  0  0  0  0  0  0  0  0  0  0
    8.4777    2.5013   22.2911 C   0  0  0  0  0  0  0  0  0  0  0  0
    9.2291    3.2564   23.2845 N   0  0  0  0  0  0  0  0  0  0  0  0
   10.3854    3.9311   23.0395 C   0  0  0  0  0  0  0  0  0  0  0  0
   10.6703    5.1288   23.6936 C   0  0  0  0  0  0  0  0  0  0  0  0
   11.8610    5.7704   23.4046 C   0  0  0  0  0  0  0  0  0  0  0  0
   12.7371    5.2141   22.4798 C   0  0  0  0  0  0  0  0  0  0  0  0
   12.3633    4.0153   21.8799 C   0  0  0  0  0  0  0  0  0  0  0  0
   11.2160    3.3817   22.1477 N   0  0  0  0  0  0  0  0  0  0  0  0
   13.9871    5.8553   22.1540 C   0  0  0  0  0  0  0  0  0  0  0  0
   14.9706    6.3866   21.9187 N   0  0  0  0  0  0  0  0  0  0  0  0
    8.2858    0.2026   21.3231 C   0  0  0  0  0  0  0  0  0  0  0  0
    9.3412   -0.5963   21.3498 C   0  0  0  0  0  0  0  0  0  0  0  0
    7.1819    0.2295   20.3062 C   0  0  0  0  0  0  0  0  0  0  0  0
    6.7839   -0.9993   19.7618 C   0  0  0  0  0  0  0  0  0  0  0  0
    5.7718   -1.0872   18.8213 C   0  0  0  0  0  0  0  0  0  0  0  0
    5.1135    0.0414   18.3961 C   0  0  0  0  0  0  0  0  0  0  0  0
    5.4749    1.2724   18.9065 C   0  0  0  0  0  0  0  0  0  0  0  0
    6.4922    1.3427   19.8292 C   0  0  0  0  0  0  0  0  0  0  0  0
    6.7849    2.5910   20.2422 F   0  0  0  0  0  0  0  0  0  0  0  0
    6.8644    0.8033   23.7101 S   0  0  0  0  0  0  0  0  0  0  0  0
    5.6795    0.9651   22.9168 O   0  0  0  0  0  0  0  0  0  0  0  0
    7.0396    1.6532   24.8546 O   0  0  0  0  0  0  0  0  0  0  0  0
    6.9061   -0.8682   24.2695 C   0  0  0  0  0  0  0  0  0  0  0  0
    7.4086   -1.1702   25.5235 C   0  0  0  0  0  0  0  0  0  0  0  0
    7.4287   -2.4952   25.9234 C   0  0  0  0  0  0  0  0  0  0  0  0
    6.9509   -3.4550   25.0599 C   0  0  0  0  0  0  0  0  0  0  0  0
    6.4659   -3.1781   23.8486 N   0  0  0  0  0  0  0  0  0  0  0  0
    6.4494   -1.8973   23.4682 C   0  0  0  0  0  0  0  0  0  0  0  0
  1  2  1  0
  2  3  1  0
  3  4  1  0
  4  5  2  0
  5  6  1  0
  6  7  1  0
  7  8  1  0
  8  9  1  0
  9 10  2  0
 10 11  1  0
 11 12  2  0
 12 13  1  0
 13 14  2  0
 12 15  1  0
 15 16  3  0
  6 17  1  0
 17 18  2  0
 17 19  1  0
 19 20  2  0
 20 21  1  0
 21 22  2  0
 22 23  1  0
 23 24  2  0
 24 25  1  0
  6 26  1  0
 26 27  2  0
 26 28  2  0
 26 29  1  0
 29 30  2  0
 30 31  1  0
 31 32  2  0
 32 33  1  0
 33 34  2  0
 18  4  1  0
 24 19  1  0
 34 29  1  0
 14  9  1  0
M  END
