CVD-0000068|dock_bobby27042020.71|mol2|31|dock1
     RDKit          3D

 17 18  0  0  0  0  0  0  0  0999 V2000
   13.4043   -1.6727   21.0260 C   0  0  0  0  0  0  0  0  0  0  0  0
   12.8192   -2.0433   22.3647 C   0  0  0  0  0  0  0  0  0  0  0  0
   13.6923   -2.3904   23.3912 C   0  0  0  0  0  0  0  0  0  0  0  0
   13.1936   -2.7307   24.6281 C   0  0  0  0  0  0  0  0  0  0  0  0
   11.8934   -2.7470   24.9052 N   0  0  0  0  0  0  0  0  0  0  0  0
   11.0447   -2.4156   23.9271 C   0  0  0  0  0  0  0  0  0  0  0  0
   11.4366   -2.0528   22.6371 C   0  0  0  0  0  0  0  0  0  0  0  0
   10.5427   -1.6952   21.5867 N   0  0  0  0  0  0  0  0  0  0  0  0
    9.3038   -1.0957   21.6528 C   0  0  0  0  0  0  0  0  0  0  0  0
    8.7466   -0.7572   22.6913 O   0  0  0  0  0  0  0  0  0  0  0  0
    8.7645   -0.9219   20.3976 N   0  0  0  0  0  0  0  0  0  0  0  0
    7.5302   -0.3565   19.9868 C   0  0  0  0  0  0  0  0  0  0  0  0
    7.4678    0.1892   18.7094 C   0  0  0  0  0  0  0  0  0  0  0  0
    6.2957    0.7582   18.2412 C   0  0  0  0  0  0  0  0  0  0  0  0
    5.1733    0.7906   19.0383 C   0  0  0  0  0  0  0  0  0  0  0  0
    5.2215    0.2535   20.3058 C   0  0  0  0  0  0  0  0  0  0  0  0
    6.3885   -0.3186   20.7853 C   0  0  0  0  0  0  0  0  0  0  0  0
  1  2  1  0
  2  3  2  0
  3  4  1  0
  4  5  2  0
  5  6  1  0
  6  7  2  0
  7  8  1  0
  8  9  1  0
  9 10  2  0
  9 11  1  0
 11 12  1  0
 12 13  2  0
 13 14  1  0
 14 15  2  0
 15 16  1  0
 16 17  2  0
  7  2  1  0
 17 12  1  0
M  END
