CVD-0000139|dock_bobby27042020.99|mol2|32|dock3
     RDKit          3D

 18 19  0  0  0  0  0  0  0  0999 V2000
    8.9577   -0.1790   22.4692 O   0  0  0  0  0  0  0  0  0  0  0  0
    9.4804   -0.7627   21.5255 C   0  0  0  0  0  0  0  0  0  0  0  0
   10.7831   -1.5177   21.7006 C   0  0  0  0  0  0  0  0  0  0  0  0
   11.5650   -1.0449   22.9052 C   0  0  0  0  0  0  0  0  0  0  0  0
   11.6174    0.3016   23.2314 C   0  0  0  0  0  0  0  0  0  0  0  0
   12.3304    0.7368   24.3363 C   0  0  0  0  0  0  0  0  0  0  0  0
   13.0022   -0.1744   25.1329 C   0  0  0  0  0  0  0  0  0  0  0  0
   12.9573   -1.5284   24.8186 C   0  0  0  0  0  0  0  0  0  0  0  0
   12.2382   -1.9589   23.7059 C   0  0  0  0  0  0  0  0  0  0  0  0
   13.6518   -2.4892   25.6396 C   0  0  0  0  0  0  0  0  0  0  0  0
   14.2126   -3.2655   26.2623 N   0  0  0  0  0  0  0  0  0  0  0  0
    8.9867   -0.8176   20.2648 N   0  0  0  0  0  0  0  0  0  0  0  0
    7.8121   -0.2624   19.6995 C   0  0  0  0  0  0  0  0  0  0  0  0
    6.7402    0.2128   20.4482 C   0  0  0  0  0  0  0  0  0  0  0  0
    5.6381    0.7366   19.7947 C   0  0  0  0  0  0  0  0  0  0  0  0
    5.6363    0.7717   18.4191 C   0  0  0  0  0  0  0  0  0  0  0  0
    6.6482    0.3243   17.6757 N   0  0  0  0  0  0  0  0  0  0  0  0
    7.7072   -0.1794   18.3158 C   0  0  0  0  0  0  0  0  0  0  0  0
  1  2  2  0
  2  3  1  0
  3  4  1  0
  4  5  2  0
  5  6  1  0
  6  7  2  0
  7  8  1  0
  8  9  2  0
  8 10  1  0
 10 11  3  0
  2 12  1  0
 12 13  1  0
 13 14  2  0
 14 15  1  0
 15 16  2  0
 16 17  1  0
 17 18  2  0
  9  4  1  0
 18 13  1  0
M  END
