CVD-0001394|dock_bobby27042020.52|mol2|42|dock3
     RDKit          3D

 16 17  0  0  0  0  0  0  0  0999 V2000
   14.3172    6.3768   21.4319 C   0  0  0  0  0  0  0  0  0  0  0  0
   12.9667    5.3455   21.8568 S   0  0  0  0  0  0  0  0  0  0  0  0
   12.1729    5.1503   20.6829 O   0  0  0  0  0  0  0  0  0  0  0  0
   12.3364    5.8781   23.0252 O   0  0  0  0  0  0  0  0  0  0  0  0
   13.5873    3.8932   22.2559 N   0  0  0  0  0  0  0  0  0  0  0  0
   12.8105    2.7350   22.5728 C   0  0  0  0  0  0  0  0  0  0  0  0
   11.4208    2.7788   22.5592 C   0  0  0  0  0  0  0  0  0  0  0  0
   10.6914    1.6430   22.8697 C   0  0  0  0  0  0  0  0  0  0  0  0
   11.3390    0.4630   23.1943 C   0  0  0  0  0  0  0  0  0  0  0  0
   12.7274    0.4074   23.2112 C   0  0  0  0  0  0  0  0  0  0  0  0
   13.4573    1.5482   22.8992 C   0  0  0  0  0  0  0  0  0  0  0  0
   13.4222   -0.8431   23.5552 C   0  0  0  0  0  0  0  0  0  0  0  0
   14.0325   -1.1375   24.6603 N   0  0  0  0  0  0  0  0  0  0  0  0
   14.5002   -2.4147   24.4567 C   0  0  0  0  0  0  0  0  0  0  0  0
   14.1459   -2.8363   23.2230 C   0  0  0  0  0  0  0  0  0  0  0  0
   13.4429   -1.8313   22.6152 O   0  0  0  0  0  0  0  0  0  0  0  0
  1  2  1  0
  2  3  2  0
  2  4  2  0
  2  5  1  0
  5  6  1  0
  6  7  2  0
  7  8  1  0
  8  9  2  0
  9 10  1  0
 10 11  2  0
 10 12  1  0
 12 13  2  0
 13 14  1  0
 14 15  2  0
 15 16  1  0
 11  6  1  0
 16 12  1  0
M  END
