CVD-0000449|dock_bobby27042020.98|mol2|29|dock2
     RDKit          3D

 11 12  0  0  0  0  0  0  0  0999 V2000
   13.5794   -2.7347   25.4927 C   0  0  0  0  0  0  0  0  0  0  0  0
   13.0954   -1.6148   24.5882 C   0  0  0  0  0  0  0  0  0  0  0  0
   14.1249   -1.2086   23.5408 C   0  0  0  0  0  0  0  0  0  0  0  0
   13.5208   -0.1733   22.5970 C   0  0  0  0  0  0  0  0  0  0  0  0
   12.0623    0.0709   22.9982 C   0  0  0  0  0  0  0  0  0  0  0  0
   12.0824    0.6594   24.4081 C   0  0  0  0  0  0  0  0  0  0  0  0
   12.6482   -0.3841   25.3660 C   0  0  0  0  0  0  0  0  0  0  0  0
   11.2801   -1.2475   22.9756 C   0  0  0  0  0  0  0  0  0  0  0  0
   11.2899   -1.9168   21.6104 C   0  0  0  0  0  0  0  0  0  0  0  0
    9.8401   -1.0943   23.4380 C   0  0  0  0  0  0  0  0  0  0  0  0
   11.9416   -2.1615   23.9004 O   0  0  0  0  0  0  0  0  0  0  0  0
  1  2  1  0
  2  3  1  0
  3  4  1  0
  4  5  1  0
  5  6  1  0
  6  7  1  0
  5  8  1  0
  8  9  1  0
  8 10  1  0
  8 11  1  0
  7  2  1  0
 11  2  1  0
M  END
