CVD-0000592|dock_bobby27042020.69|mol2|42|dock1
     RDKit          3D

 23 25  0  0  0  0  0  0  0  0999 V2000
   11.7893    5.8328   22.9371 Cl  0  0  0  0  0  0  0  0  0  0  0  0
   11.6930    4.1035   22.7562 C   0  0  0  0  0  0  0  0  0  0  0  0
   12.8396    3.3513   22.8508 C   0  0  0  0  0  0  0  0  0  0  0  0
   12.7445    1.9778   22.7397 C   0  0  0  0  0  0  0  0  0  0  0  0
   11.5165    1.3600   22.5363 C   0  0  0  0  0  0  0  0  0  0  0  0
   11.4881   -0.0332   22.5171 O   0  0  0  0  0  0  0  0  0  0  0  0
   12.4757   -0.7940   23.1458 C   0  0  0  0  0  0  0  0  0  0  0  0
   12.9510   -0.4639   24.4056 C   0  0  0  0  0  0  0  0  0  0  0  0
   13.9315   -1.2478   24.9909 C   0  0  0  0  0  0  0  0  0  0  0  0
   14.4355   -2.3463   24.3285 C   0  0  0  0  0  0  0  0  0  0  0  0
   13.9626   -2.6688   23.0749 C   0  0  0  0  0  0  0  0  0  0  0  0
   12.9816   -1.8955   22.4771 C   0  0  0  0  0  0  0  0  0  0  0  0
   10.3484    2.1341   22.3655 C   0  0  0  0  0  0  0  0  0  0  0  0
   10.4668    3.5190   22.5186 C   0  0  0  0  0  0  0  0  0  0  0  0
    8.9528    1.6753   22.0341 C   0  0  0  0  0  0  0  0  0  0  0  0
    8.0078    2.2901   22.5172 O   0  0  0  0  0  0  0  0  0  0  0  0
    8.8132    0.6082   21.2019 N   0  0  0  0  0  0  0  0  0  0  0  0
    7.6523   -0.0525   20.7239 C   0  0  0  0  0  0  0  0  0  0  0  0
    7.6942   -0.6274   19.4600 C   0  0  0  0  0  0  0  0  0  0  0  0
    6.5784   -1.2763   18.9616 C   0  0  0  0  0  0  0  0  0  0  0  0
    5.4473   -1.3330   19.7415 C   0  0  0  0  0  0  0  0  0  0  0  0
    5.3737   -0.7936   20.9581 N   0  0  0  0  0  0  0  0  0  0  0  0
    6.4580   -0.1724   21.4327 C   0  0  0  0  0  0  0  0  0  0  0  0
  1  2  1  0
  2  3  2  0
  3  4  1  0
  4  5  2  0
  5  6  1  0
  6  7  1  0
  7  8  2  0
  8  9  1  0
  9 10  2  0
 10 11  1  0
 11 12  2  0
  5 13  1  0
 13 14  2  0
 13 15  1  0
 15 16  2  0
 15 17  1  0
 17 18  1  0
 18 19  2  0
 19 20  1  0
 20 21  2  0
 21 22  1  0
 22 23  2  0
 14  2  1  0
 23 18  1  0
 12  7  1  0
M  END
