CVD-0000420|dock_bobby27042020.27|mol2|16|dock1
     RDKit          3D

 23 25  0  0  0  0  0  0  0  0999 V2000
   13.9929    5.1252   21.9554 C   0  0  0  0  0  0  0  0  0  0  0  0
   12.7068    4.3336   21.9005 C   0  0  0  0  0  0  0  0  0  0  0  0
   12.7987    2.9801   22.5833 C   0  0  0  0  0  0  0  0  0  0  0  0
   11.6221    2.0659   22.3962 C   0  0  0  0  0  0  0  0  0  0  0  0
   10.3486    2.4621   22.1050 C   0  0  0  0  0  0  0  0  0  0  0  0
    9.5124    1.3840   22.0164 N   0  0  0  0  0  0  0  0  0  0  0  0
   10.2470    0.2514   22.2575 C   0  0  0  0  0  0  0  0  0  0  0  0
    9.8532   -1.0897   22.3012 C   0  0  0  0  0  0  0  0  0  0  0  0
    8.4999   -1.3350   22.0755 O   0  0  0  0  0  0  0  0  0  0  0  0
    7.8798   -0.8583   20.9548 C   0  0  0  0  0  0  0  0  0  0  0  0
    8.5127   -0.9353   19.7975 N   0  0  0  0  0  0  0  0  0  0  0  0
    7.8782   -0.4672   18.7150 C   0  0  0  0  0  0  0  0  0  0  0  0
    6.6157    0.0890   18.7457 C   0  0  0  0  0  0  0  0  0  0  0  0
    5.9411    0.1841   19.9591 C   0  0  0  0  0  0  0  0  0  0  0  0
    4.5647    0.7879   20.0524 C   0  0  0  0  0  0  0  0  0  0  0  0
    6.6160   -0.3027   21.0629 C   0  0  0  0  0  0  0  0  0  0  0  0
    6.0105   -0.2218   22.2622 F   0  0  0  0  0  0  0  0  0  0  0  0
   10.7892   -2.0771   22.5530 C   0  0  0  0  0  0  0  0  0  0  0  0
   12.0927   -1.6989   22.7434 C   0  0  0  0  0  0  0  0  0  0  0  0
   13.0164   -2.6576   22.9828 F   0  0  0  0  0  0  0  0  0  0  0  0
   12.5057   -0.3788   22.7000 C   0  0  0  0  0  0  0  0  0  0  0  0
   14.1757   -0.0128   22.9198 Cl  0  0  0  0  0  0  0  0  0  0  0  0
   11.5825    0.6376   22.4764 C   0  0  0  0  0  0  0  0  0  0  0  0
  1  2  1  0
  2  3  1  0
  3  4  1  0
  4  5  2  0
  5  6  1  0
  6  7  1  0
  7  8  2  0
  8  9  1  0
  9 10  1  0
 10 11  2  0
 11 12  1  0
 12 13  2  0
 13 14  1  0
 14 15  1  0
 14 16  2  0
 16 17  1  0
  8 18  1  0
 18 19  2  0
 19 20  1  0
 19 21  1  0
 21 22  1  0
 21 23  2  0
 23  4  1  0
 23  7  1  0
 16 10  1  0
M  END
