CVD-0002618|dock_bobby27042020.90|mol2|39|dock1
     RDKit          3D

 28 30  0  0  0  0  0  0  0  0999 V2000
    7.4955    0.2954   18.8713 C   0  0  0  0  0  0  0  0  0  0  0  0
    7.6739   -0.5652   20.0726 C   0  0  0  0  0  0  0  0  0  0  0  0
    8.5534   -0.2561   20.9848 N   0  0  0  0  0  0  0  0  0  0  0  0
    8.6568   -1.0963   22.0711 C   0  0  0  0  0  0  0  0  0  0  0  0
    9.7022   -0.6229   23.0435 C   0  0  0  0  0  0  0  0  0  0  0  0
   10.5056    0.4764   22.5065 N   0  0  0  0  0  0  0  0  0  0  0  0
   11.8067    0.5366   23.1790 C   0  0  0  0  0  0  0  0  0  0  0  0
   12.6510    1.6516   22.5905 C   0  0  0  0  0  0  0  0  0  0  0  0
   11.9586    2.9364   22.7123 N   0  0  0  0  0  0  0  0  0  0  0  0
   10.6268    2.8907   22.1006 C   0  0  0  0  0  0  0  0  0  0  0  0
    9.8155    1.7507   22.6889 C   0  0  0  0  0  0  0  0  0  0  0  0
   12.5181    4.0163   23.2951 C   0  0  0  0  0  0  0  0  0  0  0  0
   13.6526    3.9861   23.7554 O   0  0  0  0  0  0  0  0  0  0  0  0
   11.6763    5.2763   23.3490 C   0  0  0  0  0  0  0  0  0  0  0  0
   12.5352    6.6156   24.1211 Cl  0  0  0  0  0  0  0  0  0  0  0  0
    7.8643   -2.2413   22.2141 C   0  0  0  0  0  0  0  0  0  0  0  0
    7.9967   -3.0493   23.2773 N   0  0  0  0  0  0  0  0  0  0  0  0
    7.2605   -4.2705   23.5814 C   0  0  0  0  0  0  0  0  0  0  0  0
    7.6332   -4.8856   24.9090 C   0  0  0  0  0  0  0  0  0  0  0  0
    7.1364   -4.3678   26.0949 C   0  0  0  0  0  0  0  0  0  0  0  0
    7.4759   -4.9343   27.3122 C   0  0  0  0  0  0  0  0  0  0  0  0
    8.3195   -6.0311   27.3600 C   0  0  0  0  0  0  0  0  0  0  0  0
    8.8198   -6.5564   26.1794 C   0  0  0  0  0  0  0  0  0  0  0  0
    9.6516   -7.6373   26.2131 O   0  0  0  0  0  0  0  0  0  0  0  0
    8.4780   -5.9869   24.9614 C   0  0  0  0  0  0  0  0  0  0  0  0
    6.8984   -2.5616   21.2133 C   0  0  0  0  0  0  0  0  0  0  0  0
    6.1031   -3.4980   21.1441 O   0  0  0  0  0  0  0  0  0  0  0  0
    6.8775   -1.6544   20.1675 N   0  0  0  0  0  0  0  0  0  0  0  0
  1  2  1  0
  2  3  2  0
  3  4  1  0
  4  5  1  0
  5  6  1  0
  6  7  1  0
  7  8  1  0
  8  9  1  0
  9 10  1  0
 10 11  1  0
  9 12  1  0
 12 13  2  0
 12 14  1  0
 14 15  1  0
  4 16  2  0
 16 17  1  0
 17 18  1  0
 18 19  1  0
 19 20  2  0
 20 21  1  0
 21 22  2  0
 22 23  1  0
 23 24  1  0
 23 25  2  0
 16 26  1  0
 26 27  2  0
 26 28  1  0
 28  2  1  0
 11  6  1  0
 25 19  1  0
M  END
