CVD-0002506|dock_bobby27042020.19|mol2|32|dock2
     RDKit          3D

 32 34  0  0  0  0  0  0  0  0999 V2000
   14.0092   -1.2841   23.9027 Cl  0  0  0  0  0  0  0  0  0  0  0  0
   13.8601   -0.2464   22.4786 C   0  0  0  0  0  0  0  0  0  0  0  0
   12.5890    0.5799   22.5309 C   0  0  0  0  0  0  0  0  0  0  0  0
   12.6522    1.7948   22.6705 O   0  0  0  0  0  0  0  0  0  0  0  0
   11.3990   -0.0577   22.4267 N   0  0  0  0  0  0  0  0  0  0  0  0
   10.1146    0.6440   22.4802 C   0  0  0  0  0  0  0  0  0  0  0  0
    9.2221    0.0357   23.5460 C   0  0  0  0  0  0  0  0  0  0  0  0
    9.0098   -1.3895   23.2772 N   0  0  0  0  0  0  0  0  0  0  0  0
    8.1143   -1.9742   24.2838 C   0  0  0  0  0  0  0  0  0  0  0  0
    8.0418   -3.3970   24.2324 N   0  0  0  0  0  0  0  0  0  0  0  0
    7.5254   -4.1032   23.1893 C   0  0  0  0  0  0  0  0  0  0  0  0
    7.5771   -5.4963   23.1650 C   0  0  0  0  0  0  0  0  0  0  0  0
    7.0330   -6.1478   22.0739 C   0  0  0  0  0  0  0  0  0  0  0  0
    6.4553   -5.4088   21.0418 C   0  0  0  0  0  0  0  0  0  0  0  0
    5.8818   -6.0604   19.8934 C   0  0  0  0  0  0  0  0  0  0  0  0
    5.4322   -6.5489   18.9638 N   0  0  0  0  0  0  0  0  0  0  0  0
    6.4581   -4.0108   21.1721 C   0  0  0  0  0  0  0  0  0  0  0  0
    5.8959   -3.3266   20.1572 O   0  0  0  0  0  0  0  0  0  0  0  0
    6.1647   -1.9224   20.0270 C   0  0  0  0  0  0  0  0  0  0  0  0
    5.6988   -1.4685   18.6701 C   0  0  0  0  0  0  0  0  0  0  0  0
    5.8232   -0.0265   18.5378 N   0  0  0  0  0  0  0  0  0  0  0  0
    4.8398    0.8485   18.8821 C   0  0  0  0  0  0  0  0  0  0  0  0
    4.5205    1.9218   18.0524 C   0  0  0  0  0  0  0  0  0  0  0  0
    3.5130    2.7829   18.4476 C   0  0  0  0  0  0  0  0  0  0  0  0
    2.8491    2.5617   19.6488 C   0  0  0  0  0  0  0  0  0  0  0  0
    3.2405    1.4625   20.4074 C   0  0  0  0  0  0  0  0  0  0  0  0
    4.2125    0.6199   20.0403 N   0  0  0  0  0  0  0  0  0  0  0  0
    1.7937    3.4386   20.0924 C   0  0  0  0  0  0  0  0  0  0  0  0
    0.9661    4.1548   20.4198 N   0  0  0  0  0  0  0  0  0  0  0  0
    6.9758   -3.3757   22.2083 N   0  0  0  0  0  0  0  0  0  0  0  0
   10.3006   -2.0730   23.2821 C   0  0  0  0  0  0  0  0  0  0  0  0
   11.2178   -1.4978   22.2184 C   0  0  0  0  0  0  0  0  0  0  0  0
  1  2  1  0
  2  3  1  0
  3  4  2  0
  3  5  1  0
  5  6  1  0
  6  7  1  0
  7  8  1  0
  8  9  1  0
  9 10  1  0
 10 11  1  0
 11 12  2  0
 12 13  1  0
 13 14  2  0
 14 15  1  0
 15 16  3  0
 14 17  1  0
 17 18  1  0
 18 19  1  0
 19 20  1  0
 20 21  1  0
 21 22  1  0
 22 23  2  0
 23 24  1  0
 24 25  2  0
 25 26  1  0
 26 27  2  0
 25 28  1  0
 28 29  3  0
 17 30  2  0
  8 31  1  0
 31 32  1  0
 32  5  1  0
 30 11  1  0
 27 22  1  0
M  END
