CVD-0001704|dock_bobby27042020.51|mol2|34|dock3
     RDKit          3D

 19 20  0  0  0  0  0  0  0  0999 V2000
    6.7324   -6.4925   22.1375 C   0  0  0  0  0  0  0  0  0  0  0  0
    5.9642   -5.4390   22.0517 C   0  0  0  0  0  0  0  0  0  0  0  0
    6.4179   -4.1789   21.4206 C   0  0  0  0  0  0  0  0  0  0  0  0
    5.8369   -3.6957   20.4394 O   0  0  0  0  0  0  0  0  0  0  0  0
    7.5045   -3.6459   22.0294 N   0  0  0  0  0  0  0  0  0  0  0  0
    8.2598   -2.4753   21.7700 C   0  0  0  0  0  0  0  0  0  0  0  0
    7.5771   -1.3454   21.3405 C   0  0  0  0  0  0  0  0  0  0  0  0
    8.2657   -0.1724   21.0911 C   0  0  0  0  0  0  0  0  0  0  0  0
    9.6374   -0.1134   21.2640 C   0  0  0  0  0  0  0  0  0  0  0  0
   10.3538   -1.2432   21.6580 C   0  0  0  0  0  0  0  0  0  0  0  0
    9.6434   -2.4115   21.9248 C   0  0  0  0  0  0  0  0  0  0  0  0
   11.8489   -1.2968   21.8325 C   0  0  0  0  0  0  0  0  0  0  0  0
   12.4572   -1.9496   21.0018 O   0  0  0  0  0  0  0  0  0  0  0  0
   12.5372   -0.6711   22.8176 N   0  0  0  0  0  0  0  0  0  0  0  0
   11.9398    0.1105   23.9028 C   0  0  0  0  0  0  0  0  0  0  0  0
   11.8882   -0.6718   25.1907 C   0  0  0  0  0  0  0  0  0  0  0  0
   13.5293   -1.1794   25.7665 S   0  0  0  0  0  0  0  0  0  0  0  0
   14.1067   -1.9278   24.2309 C   0  0  0  0  0  0  0  0  0  0  0  0
   13.9424   -1.0330   23.0304 C   0  0  0  0  0  0  0  0  0  0  0  0
  1  2  2  0
  2  3  1  0
  3  4  2  0
  3  5  1  0
  5  6  1  0
  6  7  2  0
  7  8  1  0
  8  9  2  0
  9 10  1  0
 10 11  2  0
 10 12  1  0
 12 13  2  0
 12 14  1  0
 14 15  1  0
 15 16  1  0
 16 17  1  0
 17 18  1  0
 18 19  1  0
 11  6  1  0
 19 14  1  0
M  END
