CVD-0001372|dock_bobby27042020.10|mol2|1|dock3
     RDKit          3D

 32 34  0  0  0  0  0  0  0  0999 V2000
    7.2484    7.4257   21.8069 C   0  0  0  0  0  0  0  0  0  0  0  0
    6.9490    7.3360   23.2890 C   0  0  0  0  0  0  0  0  0  0  0  0
    7.8209    8.3081   24.0582 C   0  0  0  0  0  0  0  0  0  0  0  0
    5.4791    7.6037   23.5424 C   0  0  0  0  0  0  0  0  0  0  0  0
    7.2688    5.9555   23.7227 O   0  0  0  0  0  0  0  0  0  0  0  0
    8.4629    5.3750   23.5060 C   0  0  0  0  0  0  0  0  0  0  0  0
    9.4918    5.9486   23.2208 O   0  0  0  0  0  0  0  0  0  0  0  0
    8.2997    4.0184   23.6675 N   0  0  0  0  0  0  0  0  0  0  0  0
    9.2979    3.0262   23.5329 C   0  0  0  0  0  0  0  0  0  0  0  0
   10.3755    2.9972   22.6895 C   0  0  0  0  0  0  0  0  0  0  0  0
   11.2768    1.9102   22.6940 C   0  0  0  0  0  0  0  0  0  0  0  0
   11.1138    0.8445   23.5375 C   0  0  0  0  0  0  0  0  0  0  0  0
   10.0311    0.8684   24.3911 N   0  0  0  0  0  0  0  0  0  0  0  0
    9.0962    1.8859   24.4597 C   0  0  0  0  0  0  0  0  0  0  0  0
    8.1566    1.8331   25.2520 O   0  0  0  0  0  0  0  0  0  0  0  0
   12.0419   -0.3218   23.5630 C   0  0  0  0  0  0  0  0  0  0  0  0
   13.0440   -0.4022   24.5248 C   0  0  0  0  0  0  0  0  0  0  0  0
   13.1734    0.6031   25.4208 F   0  0  0  0  0  0  0  0  0  0  0  0
   13.9199   -1.4504   24.6491 C   0  0  0  0  0  0  0  0  0  0  0  0
   13.7929   -2.5159   23.7818 C   0  0  0  0  0  0  0  0  0  0  0  0
   12.8294   -2.5016   22.7898 C   0  0  0  0  0  0  0  0  0  0  0  0
   11.9691   -1.4095   22.6468 C   0  0  0  0  0  0  0  0  0  0  0  0
   11.0229   -1.3429   21.5881 N   0  0  0  0  0  0  0  0  0  0  0  0
    9.7262   -0.8806   21.6104 C   0  0  0  0  0  0  0  0  0  0  0  0
    9.1661   -0.4264   22.6033 O   0  0  0  0  0  0  0  0  0  0  0  0
    9.1380   -0.9862   20.3709 N   0  0  0  0  0  0  0  0  0  0  0  0
    7.8365   -0.6308   19.9353 C   0  0  0  0  0  0  0  0  0  0  0  0
    6.7606   -0.3900   20.7847 C   0  0  0  0  0  0  0  0  0  0  0  0
    5.5331   -0.0490   20.2432 C   0  0  0  0  0  0  0  0  0  0  0  0
    5.4121    0.0420   18.8758 C   0  0  0  0  0  0  0  0  0  0  0  0
    6.4232   -0.1828   18.0373 N   0  0  0  0  0  0  0  0  0  0  0  0
    7.6036   -0.5111   18.5699 C   0  0  0  0  0  0  0  0  0  0  0  0
  1  2  1  0
  2  3  1  0
  2  4  1  0
  2  5  1  0
  5  6  1  0
  6  7  2  0
  6  8  1  0
  8  9  1  0
  9 10  2  0
 10 11  1  0
 11 12  2  0
 12 13  1  0
 13 14  1  0
 14 15  2  0
 12 16  1  0
 16 17  2  0
 17 18  1  0
 17 19  1  0
 19 20  2  0
 20 21  1  0
 21 22  2  0
 22 23  1  0
 23 24  1  0
 24 25  2  0
 24 26  1  0
 26 27  1  0
 27 28  2  0
 28 29  1  0
 29 30  2  0
 30 31  1  0
 31 32  2  0
 14  9  1  0
 22 16  1  0
 32 27  1  0
M  END
