CVD-0003123|dock_bobby27042020.60|mol2|41|dock2
     RDKit          3D

 17 18  0  0  0  0  0  0  0  0999 V2000
   12.9528    6.0769   24.4703 C   0  0  0  0  0  0  0  0  0  0  0  0
   11.6135    5.7923   23.9570 N   0  0  0  0  0  0  0  0  0  0  0  0
   10.4543    6.3171   24.4007 C   0  0  0  0  0  0  0  0  0  0  0  0
    9.4096    5.8544   23.7517 N   0  0  0  0  0  0  0  0  0  0  0  0
    9.9299    4.9691   22.8399 C   0  0  0  0  0  0  0  0  0  0  0  0
   11.2882    4.9103   22.9514 C   0  0  0  0  0  0  0  0  0  0  0  0
   12.3050    4.1126   22.2102 C   0  0  0  0  0  0  0  0  0  0  0  0
   12.4611    2.7851   22.7643 N   0  0  0  0  0  0  0  0  0  0  0  0
   11.5033    1.8546   22.5956 C   0  0  0  0  0  0  0  0  0  0  0  0
   10.4936    2.1129   21.9517 O   0  0  0  0  0  0  0  0  0  0  0  0
   11.6645    0.6170   23.1483 N   0  0  0  0  0  0  0  0  0  0  0  0
   12.5634    0.2632   24.2405 C   0  0  0  0  0  0  0  0  0  0  0  0
   13.6159   -0.7063   23.7511 C   0  0  0  0  0  0  0  0  0  0  0  0
   12.9856   -1.9495   23.1229 C   0  0  0  0  0  0  0  0  0  0  0  0
   11.9838   -1.5495   22.0457 C   0  0  0  0  0  0  0  0  0  0  0  0
   11.3013   -2.6612   21.5142 F   0  0  0  0  0  0  0  0  0  0  0  0
   10.9749   -0.5361   22.5771 C   0  0  0  0  0  0  0  0  0  0  0  0
  1  2  1  0
  2  3  1  0
  3  4  2  0
  4  5  1  0
  5  6  2  0
  6  7  1  0
  7  8  1  0
  8  9  1  0
  9 10  2  0
  9 11  1  0
 11 12  1  0
 12 13  1  0
 13 14  1  0
 14 15  1  0
 15 16  1  0
 15 17  1  0
  6  2  1  0
 17 11  1  0
M  END
