CVD-0003478|dock_bobby27042020.73|mol2|37|dock1
     RDKit          3D

 28 30  0  0  0  0  0  0  0  0999 V2000
   13.9222    5.9256   21.8750 N   0  0  0  0  0  0  0  0  0  0  0  0
   13.5626    4.4092   21.5070 S   0  0  0  0  0  0  0  0  0  0  0  0
   14.7845    3.6577   21.5464 O   0  0  0  0  0  0  0  0  0  0  0  0
   12.8168    4.4313   20.2812 O   0  0  0  0  0  0  0  0  0  0  0  0
   12.4936    3.7706   22.7791 C   0  0  0  0  0  0  0  0  0  0  0  0
   12.2454    2.2941   22.6300 C   0  0  0  0  0  0  0  0  0  0  0  0
   13.2383    1.3764   22.9255 C   0  0  0  0  0  0  0  0  0  0  0  0
   12.9989    0.0207   22.7876 C   0  0  0  0  0  0  0  0  0  0  0  0
   11.7652   -0.4365   22.3540 C   0  0  0  0  0  0  0  0  0  0  0  0
   10.7489    0.4703   22.0528 C   0  0  0  0  0  0  0  0  0  0  0  0
    9.4488    0.1163   21.6033 N   0  0  0  0  0  0  0  0  0  0  0  0
    8.6214   -0.9191   21.9825 C   0  0  0  0  0  0  0  0  0  0  0  0
    8.9579   -1.7266   22.8374 O   0  0  0  0  0  0  0  0  0  0  0  0
    7.3565   -1.0503   21.3884 N   0  0  0  0  0  0  0  0  0  0  0  0
    6.3989   -2.0074   21.9445 C   0  0  0  0  0  0  0  0  0  0  0  0
    6.9173   -3.4368   21.9285 C   0  0  0  0  0  0  0  0  0  0  0  0
    8.0190   -3.7016   21.4573 O   0  0  0  0  0  0  0  0  0  0  0  0
    6.1162   -4.3655   22.4573 N   0  0  0  0  0  0  0  0  0  0  0  0
    6.4846   -5.7799   22.5200 C   0  0  0  0  0  0  0  0  0  0  0  0
    6.3882   -6.1606   20.9233 C   0  0  0  0  0  0  0  0  0  0  0  0
    5.8284   -7.0677   21.9587 C   0  0  0  0  0  0  0  0  0  0  0  0
    6.9139   -0.3241   20.2225 C   0  0  0  0  0  0  0  0  0  0  0  0
    5.7484    0.4324   20.2650 C   0  0  0  0  0  0  0  0  0  0  0  0
    5.3276    1.1140   19.1368 C   0  0  0  0  0  0  0  0  0  0  0  0
    6.0808    1.0174   17.9912 C   0  0  0  0  0  0  0  0  0  0  0  0
    7.2039    0.3043   17.9197 N   0  0  0  0  0  0  0  0  0  0  0  0
    7.6123   -0.3317   19.0222 C   0  0  0  0  0  0  0  0  0  0  0  0
   11.0109    1.8293   22.1976 C   0  0  0  0  0  0  0  0  0  0  0  0
  1  2  1  0
  2  3  2  0
  2  4  2  0
  2  5  1  0
  5  6  1  0
  6  7  2  0
  7  8  1  0
  8  9  2  0
  9 10  1  0
 10 11  1  0
 11 12  1  0
 12 13  2  0
 12 14  1  0
 14 15  1  0
 15 16  1  0
 16 17  2  0
 16 18  1  0
 18 19  1  0
 19 20  1  0
 20 21  1  0
 14 22  1  0
 22 23  2  0
 23 24  1  0
 24 25  2  0
 25 26  1  0
 26 27  2  0
 10 28  2  0
 28  6  1  0
 21 19  1  0
 27 22  1  0
M  END
