CVD-0000438|dock_bobby27042020.56|mol2|7|dock1
     RDKit          3D

 29 31  0  0  0  0  0  0  0  0999 V2000
   13.1356    7.3549   27.6111 C   0  0  0  0  0  0  0  0  0  0  0  0
   12.4504    7.2623   26.2837 C   0  0  0  0  0  0  0  0  0  0  0  0
   13.4084    7.1339   25.1983 N   0  0  0  0  0  0  0  0  0  0  0  0
   13.2532    6.2844   24.1457 C   0  0  0  0  0  0  0  0  0  0  0  0
   14.0571    6.3836   23.0111 C   0  0  0  0  0  0  0  0  0  0  0  0
   13.8409    5.4860   21.9821 C   0  0  0  0  0  0  0  0  0  0  0  0
   12.8480    4.5505   22.1386 C   0  0  0  0  0  0  0  0  0  0  0  0
   12.6193    3.6631   21.1435 F   0  0  0  0  0  0  0  0  0  0  0  0
   12.0772    4.4907   23.2831 C   0  0  0  0  0  0  0  0  0  0  0  0
   10.9772    3.4753   23.4793 C   0  0  0  0  0  0  0  0  0  0  0  0
   11.3538    2.1007   22.9655 C   0  0  0  0  0  0  0  0  0  0  0  0
   12.5074    1.4726   23.4145 C   0  0  0  0  0  0  0  0  0  0  0  0
   12.8099    0.2261   22.9261 C   0  0  0  0  0  0  0  0  0  0  0  0
   13.9426   -0.3818   23.3712 F   0  0  0  0  0  0  0  0  0  0  0  0
   12.0311   -0.4406   22.0127 C   0  0  0  0  0  0  0  0  0  0  0  0
   10.8730    0.1847   21.5601 C   0  0  0  0  0  0  0  0  0  0  0  0
   10.0449   -0.4314   20.6413 N   0  0  0  0  0  0  0  0  0  0  0  0
    8.6041   -0.2662   20.6323 C   0  0  0  0  0  0  0  0  0  0  0  0
    7.8910   -1.4944   20.1009 C   0  0  0  0  0  0  0  0  0  0  0  0
    7.3746   -1.4736   18.9889 O   0  0  0  0  0  0  0  0  0  0  0  0
    7.9041   -2.5494   20.9514 N   0  0  0  0  0  0  0  0  0  0  0  0
    7.2307   -3.7954   20.9069 C   0  0  0  0  0  0  0  0  0  0  0  0
    7.2640   -4.6184   22.0251 C   0  0  0  0  0  0  0  0  0  0  0  0
    6.6115   -5.8384   21.9973 C   0  0  0  0  0  0  0  0  0  0  0  0
    5.9435   -6.2015   20.8512 C   0  0  0  0  0  0  0  0  0  0  0  0
    5.8929   -5.4345   19.7620 N   0  0  0  0  0  0  0  0  0  0  0  0
    6.5258   -4.2578   19.7979 C   0  0  0  0  0  0  0  0  0  0  0  0
   10.5471    1.4481   22.0421 C   0  0  0  0  0  0  0  0  0  0  0  0
   12.2893    5.3639   24.2775 N   0  0  0  0  0  0  0  0  0  0  0  0
  1  2  1  0
  2  3  1  0
  3  4  1  0
  4  5  2  0
  5  6  1  0
  6  7  2  0
  7  8  1  0
  7  9  1  0
  9 10  1  0
 10 11  1  0
 11 12  2  0
 12 13  1  0
 13 14  1  0
 13 15  2  0
 15 16  1  0
 16 17  1  0
 17 18  1  0
 18 19  1  0
 19 20  2  0
 19 21  1  0
 21 22  1  0
 22 23  2  0
 23 24  1  0
 24 25  2  0
 25 26  1  0
 26 27  2  0
 16 28  2  0
  9 29  2  0
 29  4  1  0
 28 11  1  0
 27 22  1  0
M  END
