CVD-0001841|dock_bobby27042020.79|mol2|39|dock3
     RDKit          3D

 23 24  0  0  0  0  0  0  0  0999 V2000
    9.7835   -2.7740   23.9368 C   0  0  0  0  0  0  0  0  0  0  0  0
    9.5153   -1.9940   22.6693 C   0  0  0  0  0  0  0  0  0  0  0  0
   10.5407   -2.3364   21.7213 O   0  0  0  0  0  0  0  0  0  0  0  0
   11.6426   -1.4463   21.5386 C   0  0  0  0  0  0  0  0  0  0  0  0
   12.4044   -1.3032   22.8239 C   0  0  0  0  0  0  0  0  0  0  0  0
   12.2151   -0.1985   23.6395 C   0  0  0  0  0  0  0  0  0  0  0  0
   12.9199   -0.0650   24.8242 C   0  0  0  0  0  0  0  0  0  0  0  0
   13.8224   -1.0346   25.2055 C   0  0  0  0  0  0  0  0  0  0  0  0
   14.0205   -2.1372   24.4026 C   0  0  0  0  0  0  0  0  0  0  0  0
   13.3156   -2.2706   23.2180 C   0  0  0  0  0  0  0  0  0  0  0  0
    8.1301   -2.2845   22.0635 C   0  0  0  0  0  0  0  0  0  0  0  0
    7.9997   -3.6600   21.6068 N   0  0  0  0  0  0  0  0  0  0  0  0
    6.8099   -4.1988   21.3189 C   0  0  0  0  0  0  0  0  0  0  0  0
    6.8293   -5.6197   20.8372 C   0  0  0  0  0  0  0  0  0  0  0  0
    5.7652   -3.5643   21.4273 O   0  0  0  0  0  0  0  0  0  0  0  0
    7.8388   -1.3747   20.8732 C   0  0  0  0  0  0  0  0  0  0  0  0
    8.7196   -1.1495   20.0480 O   0  0  0  0  0  0  0  0  0  0  0  0
    6.5761   -0.8641   20.7985 N   0  0  0  0  0  0  0  0  0  0  0  0
    5.9959    0.0200   19.8636 C   0  0  0  0  0  0  0  0  0  0  0  0
    6.4796    0.2122   18.5280 C   0  0  0  0  0  0  0  0  0  0  0  0
    5.7455    1.1197   17.8250 C   0  0  0  0  0  0  0  0  0  0  0  0
    4.4831    1.7293   18.7814 S   0  0  0  0  0  0  0  0  0  0  0  0
    4.9142    0.7864   20.1275 C   0  0  0  0  0  0  0  0  0  0  0  0
  2  1  1  0
  2  3  1  0
  3  4  1  0
  4  5  1  0
  5  6  2  0
  6  7  1  0
  7  8  2  0
  8  9  1  0
  9 10  2  0
  2 11  1  0
 11 12  1  0
 12 13  1  0
 13 14  1  0
 13 15  2  0
 11 16  1  0
 16 17  2  0
 16 18  1  0
 18 19  1  0
 19 20  1  0
 20 21  2  0
 21 22  1  0
 22 23  1  0
 10  5  1  0
 23 19  2  0
M  END
