CVD-0001000|dock_bobby27042020.68|mol2|27|dock1
     RDKit          3D

 19 21  0  0  0  0  0  0  0  0999 V2000
    1.2661    2.7925   20.3455 Br  0  0  0  0  0  0  0  0  0  0  0  0
    2.8939    2.2967   19.5662 C   0  0  0  0  0  0  0  0  0  0  0  0
    3.3593    2.6654   18.3576 C   0  0  0  0  0  0  0  0  0  0  0  0
    4.6097    2.1138   18.0886 C   0  0  0  0  0  0  0  0  0  0  0  0
    5.0907    1.3210   19.1063 C   0  0  0  0  0  0  0  0  0  0  0  0
    3.9641    1.2630   20.4204 S   0  0  0  0  0  0  0  0  0  0  0  0
    6.3372    0.5926   19.1829 C   0  0  0  0  0  0  0  0  0  0  0  0
    7.0022    0.1743   18.1390 N   0  0  0  0  0  0  0  0  0  0  0  0
    8.1694   -0.5000   18.4906 N   0  0  0  0  0  0  0  0  0  0  0  0
    8.3271   -0.5571   19.7873 C   0  0  0  0  0  0  0  0  0  0  0  0
    9.3714   -1.1523   20.3893 N   0  0  0  0  0  0  0  0  0  0  0  0
    9.5164   -1.1979   21.8370 C   0  0  0  0  0  0  0  0  0  0  0  0
   10.9391   -0.9988   22.3008 C   0  0  0  0  0  0  0  0  0  0  0  0
   11.5008    0.2680   22.3419 C   0  0  0  0  0  0  0  0  0  0  0  0
   12.8049    0.4513   22.7704 C   0  0  0  0  0  0  0  0  0  0  0  0
   13.5627   -0.6305   23.1640 C   0  0  0  0  0  0  0  0  0  0  0  0
   13.0161   -1.8953   23.1293 C   0  0  0  0  0  0  0  0  0  0  0  0
   11.7120   -2.0780   22.7007 C   0  0  0  0  0  0  0  0  0  0  0  0
    7.0703    0.2048   20.7041 S   0  0  0  0  0  0  0  0  0  0  0  0
  1  2  1  0
  2  3  2  0
  3  4  1  0
  4  5  2  0
  5  6  1  0
  5  7  1  0
  7  8  2  0
  8  9  1  0
  9 10  2  0
 10 11  1  0
 11 12  1  0
 12 13  1  0
 13 14  2  0
 14 15  1  0
 15 16  2  0
 16 17  1  0
 17 18  2  0
 10 19  1  0
  6  2  1  0
 19  7  1  0
 18 13  1  0
M  END
