CVD-0002677|dock_bobby27042020.47|mol2|39|dock2
     RDKit          3D

 30 32  0  0  0  0  0  0  0  0999 V2000
    5.9624   -5.0726   24.5624 C   0  0  0  0  0  0  0  0  0  0  0  0
    6.9496   -4.5948   23.0959 S   0  0  0  0  0  0  0  0  0  0  0  0
    8.1152   -5.4634   23.0305 O   0  0  0  0  0  0  0  0  0  0  0  0
    6.1081   -4.7344   21.9169 O   0  0  0  0  0  0  0  0  0  0  0  0
    7.5099   -2.9286   23.1767 C   0  0  0  0  0  0  0  0  0  0  0  0
    8.4677   -2.5985   22.0463 C   0  0  0  0  0  0  0  0  0  0  0  0
    8.6619   -1.1541   21.8605 N   0  0  0  0  0  0  0  0  0  0  0  0
    8.8558   -0.4124   23.1165 C   0  0  0  0  0  0  0  0  0  0  0  0
    9.6339    0.8855   23.0048 C   0  0  0  0  0  0  0  0  0  0  0  0
    9.0297    2.1089   23.1508 C   0  0  0  0  0  0  0  0  0  0  0  0
    9.7428    3.2913   23.0450 C   0  0  0  0  0  0  0  0  0  0  0  0
   11.0808    3.2799   22.7911 C   0  0  0  0  0  0  0  0  0  0  0  0
   11.7660    2.0528   22.6307 C   0  0  0  0  0  0  0  0  0  0  0  0
   13.1545    1.9835   22.3664 C   0  0  0  0  0  0  0  0  0  0  0  0
   13.7813    0.7838   22.2173 C   0  0  0  0  0  0  0  0  0  0  0  0
   13.0850   -0.4109   22.3175 C   0  0  0  0  0  0  0  0  0  0  0  0
   13.8008   -1.7288   22.1522 C   0  0  0  0  0  0  0  0  0  0  0  0
   14.0233   -2.1548   20.7876 N   0  0  0  0  0  0  0  0  0  0  0  0
   11.7397   -0.3825   22.5739 C   0  0  0  0  0  0  0  0  0  0  0  0
   11.0320    0.8355   22.7388 C   0  0  0  0  0  0  0  0  0  0  0  0
    7.9203   -0.4765   20.7899 C   0  0  0  0  0  0  0  0  0  0  0  0
    8.1276   -1.1205   19.5566 O   0  0  0  0  0  0  0  0  0  0  0  0
    6.4232   -0.4679   21.0368 C   0  0  0  0  0  0  0  0  0  0  0  0
    5.6670    0.3633   20.0233 C   0  0  0  0  0  0  0  0  0  0  0  0
    5.3398    1.6663   20.3225 C   0  0  0  0  0  0  0  0  0  0  0  0
    4.6950    2.5157   19.5159 N   0  0  0  0  0  0  0  0  0  0  0  0
    4.3316    2.0597   18.3192 C   0  0  0  0  0  0  0  0  0  0  0  0
    4.5884    0.7724   17.9014 C   0  0  0  0  0  0  0  0  0  0  0  0
    5.2620   -0.1033   18.7584 C   0  0  0  0  0  0  0  0  0  0  0  0
    5.5093   -1.3925   18.3455 N   0  0  0  0  0  0  0  0  0  0  0  0
  1  2  1  0
  2  3  1  0
  2  4  1  0
  2  5  1  0
  5  6  1  0
  6  7  1  0
  7  8  1  0
  8  9  1  0
  9 10  2  0
 10 11  1  0
 11 12  2  0
 12 13  1  0
 13 14  2  0
 14 15  1  0
 15 16  2  0
 16 17  1  0
 17 18  1  0
 16 19  1  0
 19 20  2  0
  7 21  1  0
 21 22  1  0
 21 23  1  0
 23 24  1  0
 24 25  2  0
 25 26  1  0
 26 27  2  0
 27 28  1  0
 28 29  2  0
 29 30  1  0
 20  9  1  0
 29 24  1  0
 20 13  1  0
M  END
