CVD-0003439|dock_bobby27042020.31|mol2|1|dock1
     RDKit          3D

 18 19  0  0  0  0  0  0  0  0999 V2000
   12.8111   -0.6039   25.6100 N   0  0  0  0  0  0  0  0  0  0  0  0
   12.8569   -0.9721   24.2857 C   0  0  0  0  0  0  0  0  0  0  0  0
   14.0080   -1.5201   23.7354 C   0  0  0  0  0  0  0  0  0  0  0  0
   14.0992   -1.8917   22.4572 N   0  0  0  0  0  0  0  0  0  0  0  0
   13.0257   -1.7091   21.7351 C   0  0  0  0  0  0  0  0  0  0  0  0
   13.1697   -2.0986   20.4593 F   0  0  0  0  0  0  0  0  0  0  0  0
   11.8075   -1.1818   22.1188 C   0  0  0  0  0  0  0  0  0  0  0  0
   10.7419   -1.0574   21.1880 N   0  0  0  0  0  0  0  0  0  0  0  0
    9.5341   -0.4095   21.3167 C   0  0  0  0  0  0  0  0  0  0  0  0
    9.1747    0.1966   22.3206 O   0  0  0  0  0  0  0  0  0  0  0  0
    8.7807   -0.5303   20.1710 N   0  0  0  0  0  0  0  0  0  0  0  0
    7.4911   -0.0343   19.8511 C   0  0  0  0  0  0  0  0  0  0  0  0
    7.2843    0.4336   18.5583 C   0  0  0  0  0  0  0  0  0  0  0  0
    6.0500    0.9318   18.1771 C   0  0  0  0  0  0  0  0  0  0  0  0
    5.0088    0.9696   19.0775 C   0  0  0  0  0  0  0  0  0  0  0  0
    5.2004    0.5091   20.3615 C   0  0  0  0  0  0  0  0  0  0  0  0
    6.4309    0.0084   20.7546 C   0  0  0  0  0  0  0  0  0  0  0  0
   11.7440   -0.8027   23.4615 C   0  0  0  0  0  0  0  0  0  0  0  0
  1  2  1  0
  2  3  2  0
  3  4  1  0
  4  5  2  0
  5  6  1  0
  5  7  1  0
  7  8  1  0
  8  9  1  0
  9 10  2  0
  9 11  1  0
 11 12  1  0
 12 13  2  0
 13 14  1  0
 14 15  2  0
 15 16  1  0
 16 17  2  0
  7 18  2  0
 18  2  1  0
 17 12  1  0
M  END
