CVD-0002654|dock_bobby27042020.76|mol2|27|dock3
     RDKit          3D

 29 31  0  0  0  0  0  0  0  0999 V2000
   10.8494   -3.1229   23.7682 C   0  0  0  0  0  0  0  0  0  0  0  0
    9.8589   -4.2428   23.8954 C   0  0  0  0  0  0  0  0  0  0  0  0
   10.0981   -5.2162   24.6018 O   0  0  0  0  0  0  0  0  0  0  0  0
    8.7306   -4.0616   23.1604 N   0  0  0  0  0  0  0  0  0  0  0  0
    7.5791   -4.8811   23.0015 C   0  0  0  0  0  0  0  0  0  0  0  0
    7.0963   -5.7326   23.9947 C   0  0  0  0  0  0  0  0  0  0  0  0
    6.0252   -6.5185   23.8494 N   0  0  0  0  0  0  0  0  0  0  0  0
    5.3981   -6.4968   22.6767 C   0  0  0  0  0  0  0  0  0  0  0  0
    5.7827   -5.6896   21.6293 C   0  0  0  0  0  0  0  0  0  0  0  0
    6.8799   -4.8469   21.7801 C   0  0  0  0  0  0  0  0  0  0  0  0
    7.2370   -3.9538   20.6188 C   0  0  0  0  0  0  0  0  0  0  0  0
    6.8192   -2.6142   20.8866 O   0  0  0  0  0  0  0  0  0  0  0  0
    6.9158   -1.7096   19.7777 C   0  0  0  0  0  0  0  0  0  0  0  0
    5.6107   -1.7064   18.9848 C   0  0  0  0  0  0  0  0  0  0  0  0
    5.6892   -0.7765   17.7857 C   0  0  0  0  0  0  0  0  0  0  0  0
    6.0466    0.6377   18.2108 C   0  0  0  0  0  0  0  0  0  0  0  0
    7.3362    0.6514   19.0217 C   0  0  0  0  0  0  0  0  0  0  0  0
    7.2681   -0.2820   20.2194 C   0  0  0  0  0  0  0  0  0  0  0  0
    8.5681   -0.2199   21.0038 C   0  0  0  0  0  0  0  0  0  0  0  0
    8.8453    1.1221   21.4998 N   0  0  0  0  0  0  0  0  0  0  0  0
   10.0824    1.4978   21.8803 C   0  0  0  0  0  0  0  0  0  0  0  0
   11.0426    0.7336   21.8306 O   0  0  0  0  0  0  0  0  0  0  0  0
   10.1963    2.7703   22.3196 N   0  0  0  0  0  0  0  0  0  0  0  0
   11.4451    3.3170   22.8504 C   0  0  0  0  0  0  0  0  0  0  0  0
   12.4958    3.4916   21.7346 C   0  0  0  0  0  0  0  0  0  0  0  0
   13.7871    4.1287   22.2444 C   0  0  0  0  0  0  0  0  0  0  0  0
   13.5117    5.4462   22.9576 C   0  0  0  0  0  0  0  0  0  0  0  0
   12.4984    5.2627   24.0782 C   0  0  0  0  0  0  0  0  0  0  0  0
   11.1980    4.6626   23.5535 C   0  0  0  0  0  0  0  0  0  0  0  0
  1  2  1  0
  2  3  2  0
  2  4  1  0
  4  5  1  0
  5  6  2  0
  6  7  1  0
  7  8  2  0
  8  9  1  0
  9 10  2  0
 10 11  1  0
 11 12  1  0
 12 13  1  0
 13 14  1  0
 14 15  1  0
 15 16  1  0
 16 17  1  0
 17 18  1  0
 18 19  1  0
 19 20  1  0
 20 21  1  0
 21 22  2  0
 21 23  1  0
 23 24  1  0
 24 25  1  0
 25 26  1  0
 26 27  1  0
 27 28  1  0
 28 29  1  0
 10  5  1  0
 18 13  1  0
 29 24  1  0
M  END
