CVD-0002825|dock_bobby27042020.18|mol2|30|dock1
     RDKit          3D

 28 31  0  0  0  0  0  0  0  0999 V2000
   12.0669   -2.2871   23.0615 C   0  0  0  0  0  0  0  0  0  0  0  0
   11.5624   -0.8880   22.8159 C   0  0  0  0  0  0  0  0  0  0  0  0
   12.4992    0.1266   22.6442 C   0  0  0  0  0  0  0  0  0  0  0  0
   12.0765    1.4175   22.4227 C   0  0  0  0  0  0  0  0  0  0  0  0
   10.7931    1.7591   22.3631 N   0  0  0  0  0  0  0  0  0  0  0  0
    9.8825    0.7943   22.5276 C   0  0  0  0  0  0  0  0  0  0  0  0
   10.1960   -0.5464   22.7552 C   0  0  0  0  0  0  0  0  0  0  0  0
    9.2541   -1.5537   22.9254 N   0  0  0  0  0  0  0  0  0  0  0  0
    7.9486   -1.5368   23.5656 C   0  0  0  0  0  0  0  0  0  0  0  0
    6.8543   -1.9798   22.6540 C   0  0  0  0  0  0  0  0  0  0  0  0
    6.7462   -1.1506   21.3724 C   0  0  0  0  0  0  0  0  0  0  0  0
    7.7324   -1.1586   20.3931 C   0  0  0  0  0  0  0  0  0  0  0  0
    7.6041   -0.3969   19.2436 C   0  0  0  0  0  0  0  0  0  0  0  0
    6.4867    0.3864   19.0533 C   0  0  0  0  0  0  0  0  0  0  0  0
    5.4984    0.4070   20.0131 C   0  0  0  0  0  0  0  0  0  0  0  0
    5.6277   -0.3552   21.1622 C   0  0  0  0  0  0  0  0  0  0  0  0
    6.9387   -3.4662   22.4091 C   0  0  0  0  0  0  0  0  0  0  0  0
    6.5917   -4.0863   21.2071 C   0  0  0  0  0  0  0  0  0  0  0  0
    6.6375   -5.4571   21.0362 C   0  0  0  0  0  0  0  0  0  0  0  0
    7.0388   -6.2578   22.0836 C   0  0  0  0  0  0  0  0  0  0  0  0
    7.3885   -5.6730   23.2861 C   0  0  0  0  0  0  0  0  0  0  0  0
    7.3396   -4.2929   23.4501 C   0  0  0  0  0  0  0  0  0  0  0  0
    7.5761   -3.6901   24.8365 C   0  0  0  0  0  0  0  0  0  0  0  0
    7.8630   -2.2452   24.8668 N   0  0  0  0  0  0  0  0  0  0  0  0
    7.9020   -1.5324   26.0131 C   0  0  0  0  0  0  0  0  0  0  0  0
    8.0179   -0.3135   25.9940 O   0  0  0  0  0  0  0  0  0  0  0  0
    7.7998   -2.2903   27.3225 C   0  0  0  0  0  0  0  0  0  0  0  0
    8.1217   -1.2325   28.7026 Cl  0  0  0  0  0  0  0  0  0  0  0  0
  1  2  1  0
  2  3  2  0
  3  4  1  0
  4  5  2  0
  5  6  1  0
  6  7  2  0
  7  8  1  0
  8  9  1  0
  9 10  1  0
 10 11  1  0
 11 12  2  0
 12 13  1  0
 13 14  2  0
 14 15  1  0
 15 16  2  0
 10 17  1  0
 17 18  2  0
 18 19  1  0
 19 20  2  0
 20 21  1  0
 21 22  2  0
 22 23  1  0
 23 24  1  0
 24 25  1  0
 25 26  2  0
 25 27  1  0
 27 28  1  0
  7  2  1  0
 24  9  1  0
 16 11  1  0
 22 17  1  0
M  END
