CVD-0003213|dock_bobby27042020.74|mol2|32|dock3
     RDKit          3D

 33 36  0  0  0  0  0  0  0  0999 V2000
   10.2386   -6.7110   26.0452 N   0  0  0  0  0  0  0  0  0  0  0  0
    9.4891   -5.6964   25.5798 C   0  0  0  0  0  0  0  0  0  0  0  0
    8.5153   -5.0780   26.3911 C   0  0  0  0  0  0  0  0  0  0  0  0
    7.7725   -4.0392   25.8614 C   0  0  0  0  0  0  0  0  0  0  0  0
    7.9849   -3.6196   24.5588 C   0  0  0  0  0  0  0  0  0  0  0  0
    7.1887   -2.4837   23.9570 C   0  0  0  0  0  0  0  0  0  0  0  0
    6.8304   -2.7265   22.5026 C   0  0  0  0  0  0  0  0  0  0  0  0
    6.0032   -3.5895   22.2364 O   0  0  0  0  0  0  0  0  0  0  0  0
    7.4036   -1.9954   21.4993 N   0  0  0  0  0  0  0  0  0  0  0  0
    6.9674   -2.3559   20.1524 C   0  0  0  0  0  0  0  0  0  0  0  0
    6.7894   -1.1700   19.2387 C   0  0  0  0  0  0  0  0  0  0  0  0
    5.5672   -0.6780   18.8782 C   0  0  0  0  0  0  0  0  0  0  0  0
    5.6537    0.6712   17.8249 S   0  0  0  0  0  0  0  0  0  0  0  0
    7.3829    0.5396   17.8865 C   0  0  0  0  0  0  0  0  0  0  0  0
    8.0978    1.4267   17.1752 F   0  0  0  0  0  0  0  0  0  0  0  0
    7.8508   -0.4505   18.6500 C   0  0  0  0  0  0  0  0  0  0  0  0
    8.3329   -0.9012   21.6228 C   0  0  0  0  0  0  0  0  0  0  0  0
    7.8468    0.3767   21.8714 C   0  0  0  0  0  0  0  0  0  0  0  0
    8.6996    1.4575   22.0125 C   0  0  0  0  0  0  0  0  0  0  0  0
   10.0783    1.2920   21.9117 C   0  0  0  0  0  0  0  0  0  0  0  0
   11.0260    2.3381   22.0573 N   0  0  0  0  0  0  0  0  0  0  0  0
   10.8675    3.6342   22.4472 C   0  0  0  0  0  0  0  0  0  0  0  0
    9.7858    4.1234   22.7549 O   0  0  0  0  0  0  0  0  0  0  0  0
   12.0735    4.5341   22.5110 C   0  0  0  0  0  0  0  0  0  0  0  0
   13.0320    4.6329   21.5015 C   0  0  0  0  0  0  0  0  0  0  0  0
   14.1162    5.4849   21.6334 C   0  0  0  0  0  0  0  0  0  0  0  0
   14.2683    6.2522   22.7668 C   0  0  0  0  0  0  0  0  0  0  0  0
   13.3331    6.1687   23.7737 C   0  0  0  0  0  0  0  0  0  0  0  0
   12.2470    5.3191   23.6481 C   0  0  0  0  0  0  0  0  0  0  0  0
   10.5640    0.0176   21.6495 C   0  0  0  0  0  0  0  0  0  0  0  0
    9.7084   -1.0582   21.4943 C   0  0  0  0  0  0  0  0  0  0  0  0
    8.9603   -4.2819   23.8375 C   0  0  0  0  0  0  0  0  0  0  0  0
    9.6993   -5.2907   24.3142 N   0  0  0  0  0  0  0  0  0  0  0  0
  1  2  1  0
  2  3  2  0
  3  4  1  0
  4  5  2  0
  5  6  1  0
  6  7  1  0
  7  8  2  0
  7  9  1  0
  9 10  1  0
 10 11  1  0
 11 12  2  0
 12 13  1  0
 13 14  1  0
 14 15  1  0
 14 16  2  0
  9 17  1  0
 17 18  2  0
 18 19  1  0
 19 20  2  0
 20 21  1  0
 21 22  1  0
 22 23  2  0
 22 24  1  0
 24 25  2  0
 25 26  1  0
 26 27  2  0
 27 28  1  0
 28 29  2  0
 20 30  1  0
 30 31  2  0
  5 32  1  0
 32 33  2  0
 33  2  1  0
 16 11  1  0
 31 17  1  0
 29 24  1  0
M  END
