CVD-0003218|dock_bobby27042020.2|mol2|40|dock3
     RDKit          3D

 25 27  0  0  0  0  0  0  0  0999 V2000
   12.7441   -2.5082   24.7142 C   0  0  0  0  0  0  0  0  0  0  0  0
   12.4249   -1.2913   23.8491 C   0  0  0  0  0  0  0  0  0  0  0  0
   12.7599   -0.0231   24.6304 C   0  0  0  0  0  0  0  0  0  0  0  0
   13.2816   -1.3394   22.5863 C   0  0  0  0  0  0  0  0  0  0  0  0
   10.9342   -1.2945   23.4708 C   0  0  0  0  0  0  0  0  0  0  0  0
   10.4796   -2.4599   22.5968 C   0  0  0  0  0  0  0  0  0  0  0  0
    9.0521   -2.3045   22.2928 N   0  0  0  0  0  0  0  0  0  0  0  0
    8.1030   -2.8187   23.2655 C   0  0  0  0  0  0  0  0  0  0  0  0
    7.2090   -3.8998   22.7126 C   0  0  0  0  0  0  0  0  0  0  0  0
    5.8514   -4.0891   23.0701 C   0  0  0  0  0  0  0  0  0  0  0  0
    5.2396   -5.1298   22.4391 C   0  0  0  0  0  0  0  0  0  0  0  0
    6.3391   -5.8901   21.3917 S   0  0  0  0  0  0  0  0  0  0  0  0
    7.6021   -4.8251   21.7939 C   0  0  0  0  0  0  0  0  0  0  0  0
    8.6483   -1.6609   21.1782 C   0  0  0  0  0  0  0  0  0  0  0  0
    9.4440   -1.1718   20.3863 O   0  0  0  0  0  0  0  0  0  0  0  0
    7.1448   -1.5535   20.9302 C   0  0  0  0  0  0  0  0  0  0  0  0
    6.8442   -0.7044   19.7937 N   0  0  0  0  0  0  0  0  0  0  0  0
    7.6732   -0.6770   18.7175 N   0  0  0  0  0  0  0  0  0  0  0  0
    7.2207    0.1888   17.8557 N   0  0  0  0  0  0  0  0  0  0  0  0
    6.0904    0.7699   18.3858 C   0  0  0  0  0  0  0  0  0  0  0  0
    5.2354    1.7546   17.8931 C   0  0  0  0  0  0  0  0  0  0  0  0
    4.1581    2.1519   18.6701 C   0  0  0  0  0  0  0  0  0  0  0  0
    3.9268    1.5895   19.9102 C   0  0  0  0  0  0  0  0  0  0  0  0
    4.7640    0.6074   20.4159 C   0  0  0  0  0  0  0  0  0  0  0  0
    5.8426    0.2065   19.6367 C   0  0  0  0  0  0  0  0  0  0  0  0
  1  2  1  0
  2  3  1  0
  2  4  1  0
  2  5  1  0
  5  6  1  0
  6  7  1  0
  7  8  1  0
  8  9  1  0
  9 10  1  0
 10 11  2  0
 11 12  1  0
 12 13  1  0
  7 14  1  0
 14 15  2  0
 14 16  1  0
 16 17  1  0
 17 18  1  0
 18 19  2  0
 19 20  1  0
 20 21  2  0
 21 22  1  0
 22 23  2  0
 23 24  1  0
 24 25  2  0
 13  9  2  0
 25 17  1  0
 25 20  1  0
M  END
