CVD-0002450|dock_bobby27042020.77|mol2|19|dock2
     RDKit          3D

 26 28  0  0  0  0  0  0  0  0999 V2000
    5.7850    1.7891   17.1887 C   0  0  0  0  0  0  0  0  0  0  0  0
    6.2604    0.4329   17.4565 N   0  0  0  0  0  0  0  0  0  0  0  0
    5.1393   -0.4432   17.8089 C   0  0  0  0  0  0  0  0  0  0  0  0
    5.6329   -1.8585   18.0457 C   0  0  0  0  0  0  0  0  0  0  0  0
    6.6426   -1.8773   19.1063 N   0  0  0  0  0  0  0  0  0  0  0  0
    7.7510   -0.9639   18.8114 C   0  0  0  0  0  0  0  0  0  0  0  0
    7.2254    0.4365   18.5530 C   0  0  0  0  0  0  0  0  0  0  0  0
    6.5474   -2.6708   20.1923 C   0  0  0  0  0  0  0  0  0  0  0  0
    5.6062   -3.4362   20.3595 O   0  0  0  0  0  0  0  0  0  0  0  0
    7.6688   -2.5839   21.2132 C   0  0  0  0  0  0  0  0  0  0  0  0
    7.3921   -3.4188   22.3246 O   0  0  0  0  0  0  0  0  0  0  0  0
    8.2370   -3.1879   23.4333 C   0  0  0  0  0  0  0  0  0  0  0  0
    9.9766   -3.4353   23.0435 S   0  0  0  0  0  0  0  0  0  0  0  0
   10.7657   -2.2784   24.1894 C   0  0  0  0  0  0  0  0  0  0  0  0
   11.1725   -0.9658   23.5369 C   0  0  0  0  0  0  0  0  0  0  0  0
   12.0765   -0.2932   24.4452 O   0  0  0  0  0  0  0  0  0  0  0  0
   13.1777    0.2420   23.7060 C   0  0  0  0  0  0  0  0  0  0  0  0
   13.3544   -0.7641   22.5550 C   0  0  0  0  0  0  0  0  0  0  0  0
   14.0348   -1.9206   23.0337 O   0  0  0  0  0  0  0  0  0  0  0  0
   11.9034   -1.1071   22.2004 C   0  0  0  0  0  0  0  0  0  0  0  0
   11.3864   -0.1662   21.2644 O   0  0  0  0  0  0  0  0  0  0  0  0
   12.9042    1.6671   23.3459 C   0  0  0  0  0  0  0  0  0  0  0  0
   11.7018    2.3967   23.5757 C   0  0  0  0  0  0  0  0  0  0  0  0
   11.7440    3.6883   23.1439 C   0  0  0  0  0  0  0  0  0  0  0  0
   13.2596    4.0195   22.4522 S   0  0  0  0  0  0  0  0  0  0  0  0
   13.8415    2.4476   22.7363 C   0  0  0  0  0  0  0  0  0  0  0  0
  1  2  1  0
  2  3  1  0
  3  4  1  0
  4  5  1  0
  5  6  1  0
  6  7  1  0
  5  8  1  0
  8  9  2  0
  8 10  1  0
 10 11  1  0
 11 12  1  0
 12 13  1  0
 13 14  1  0
 14 15  1  0
 15 16  1  0
 16 17  1  0
 17 18  1  0
 18 19  1  0
 18 20  1  0
 20 21  1  0
 17 22  1  0
 22 23  1  0
 23 24  2  0
 24 25  1  0
 25 26  1  0
  7  2  1  0
 20 15  1  0
 26 22  2  0
M  END
