CVD-0000316|dock_bobby27042020.99|mol2|6|dock3
     RDKit          3D

 33 36  0  0  0  0  0  0  0  0999 V2000
    6.2290    0.0232   18.5087 C   0  0  0  0  0  0  0  0  0  0  0  0
    6.1738    0.6512   19.8710 C   0  0  0  0  0  0  0  0  0  0  0  0
    5.9286    1.8470   19.9845 O   0  0  0  0  0  0  0  0  0  0  0  0
    6.3823   -0.1162   20.9750 N   0  0  0  0  0  0  0  0  0  0  0  0
    6.6697   -1.5462   20.8684 C   0  0  0  0  0  0  0  0  0  0  0  0
    8.0500   -1.8423   21.3634 C   0  0  0  0  0  0  0  0  0  0  0  0
    8.1794   -1.3355   22.7245 N   0  0  0  0  0  0  0  0  0  0  0  0
    7.8723    0.1013   22.9002 C   0  0  0  0  0  0  0  0  0  0  0  0
    6.4814    0.3623   22.3417 C   0  0  0  0  0  0  0  0  0  0  0  0
    8.8966    0.9324   22.3029 N   0  0  0  0  0  0  0  0  0  0  0  0
    9.2464    2.1538   23.0364 C   0  0  0  0  0  0  0  0  0  0  0  0
    9.6311    3.2690   22.0811 C   0  0  0  0  0  0  0  0  0  0  0  0
   10.5515    4.2868   22.7175 C   0  0  0  0  0  0  0  0  0  0  0  0
   11.8807    4.3763   22.3155 C   0  0  0  0  0  0  0  0  0  0  0  0
   12.7213    5.3091   22.8951 C   0  0  0  0  0  0  0  0  0  0  0  0
   14.3796    5.3947   22.3703 Cl  0  0  0  0  0  0  0  0  0  0  0  0
   12.2830    6.1751   23.8785 C   0  0  0  0  0  0  0  0  0  0  0  0
   10.9504    6.1156   24.3083 C   0  0  0  0  0  0  0  0  0  0  0  0
   10.1593    6.8233   25.2691 C   0  0  0  0  0  0  0  0  0  0  0  0
    8.9022    6.3044   25.2345 C   0  0  0  0  0  0  0  0  0  0  0  0
    7.6823    6.6631   26.0198 C   0  0  0  0  0  0  0  0  0  0  0  0
    8.8590    5.2935   24.2898 N   0  0  0  0  0  0  0  0  0  0  0  0
   10.1025    5.1613   23.7113 C   0  0  0  0  0  0  0  0  0  0  0  0
    9.2806   -2.0113   23.7164 S   0  0  0  0  0  0  0  0  0  0  0  0
    9.3583   -3.3970   23.3715 O   0  0  0  0  0  0  0  0  0  0  0  0
    8.9150   -1.6312   25.0454 O   0  0  0  0  0  0  0  0  0  0  0  0
   10.8409   -1.2824   23.3555 C   0  0  0  0  0  0  0  0  0  0  0  0
   11.3257   -0.2643   24.1604 C   0  0  0  0  0  0  0  0  0  0  0  0
   12.5528    0.3052   23.8642 C   0  0  0  0  0  0  0  0  0  0  0  0
   13.2882   -0.1347   22.7762 C   0  0  0  0  0  0  0  0  0  0  0  0
   12.7815   -1.1473   21.9913 C   0  0  0  0  0  0  0  0  0  0  0  0
   13.7029   -1.7026   20.6218 Cl  0  0  0  0  0  0  0  0  0  0  0  0
   11.5622   -1.7343   22.2611 C   0  0  0  0  0  0  0  0  0  0  0  0
  1  2  1  0
  2  3  2  0
  2  4  1  0
  4  5  1  0
  5  6  1  0
  6  7  1  0
  7  8  1  0
  8  9  1  0
  8 10  1  0
 10 11  1  0
 11 12  1  0
 12 13  1  0
 13 14  2  0
 14 15  1  0
 15 16  1  0
 15 17  2  0
 17 18  1  0
 18 19  1  0
 19 20  2  0
 20 21  1  0
 20 22  1  0
 22 23  1  0
  7 24  1  0
 24 25  2  0
 24 26  2  0
 24 27  1  0
 27 28  2  0
 28 29  1  0
 29 30  2  0
 30 31  1  0
 31 32  1  0
 31 33  2  0
  9  4  1  0
 23 13  1  0
 33 27  1  0
 23 18  2  0
M  END
