CVD-0001497|dock_bobby27042020.67|mol2|1|dock2
     RDKit          3D

 23 24  0  0  0  0  0  0  0  0999 V2000
    2.2425    4.0922   17.8412 N   0  0  0  0  0  0  0  0  0  0  0  0
    1.8698    3.4376   18.9295 C   0  0  0  0  0  0  0  0  0  0  0  0
    0.6845    3.2315   19.2055 O   0  0  0  0  0  0  0  0  0  0  0  0
    2.9807    2.9459   19.8249 C   0  0  0  0  0  0  0  0  0  0  0  0
    3.8082    1.8125   19.2337 C   0  0  0  0  0  0  0  0  0  0  0  0
    4.7609    1.1593   20.2276 C   0  0  0  0  0  0  0  0  0  0  0  0
    5.7907    0.2655   19.5800 C   0  0  0  0  0  0  0  0  0  0  0  0
    5.5616   -0.3545   18.3666 C   0  0  0  0  0  0  0  0  0  0  0  0
    6.4425   -1.1500   17.7553 N   0  0  0  0  0  0  0  0  0  0  0  0
    7.6158   -1.3530   18.3599 C   0  0  0  0  0  0  0  0  0  0  0  0
    7.9646   -0.7850   19.5798 C   0  0  0  0  0  0  0  0  0  0  0  0
    9.2423   -1.0763   20.1209 N   0  0  0  0  0  0  0  0  0  0  0  0
    9.7770   -0.7913   21.3564 C   0  0  0  0  0  0  0  0  0  0  0  0
    9.1792   -0.1944   22.2457 O   0  0  0  0  0  0  0  0  0  0  0  0
   11.0660   -1.2622   21.4635 N   0  0  0  0  0  0  0  0  0  0  0  0
   11.9916   -1.1988   22.5360 C   0  0  0  0  0  0  0  0  0  0  0  0
   11.9268   -0.0911   23.3737 C   0  0  0  0  0  0  0  0  0  0  0  0
   12.7988    0.0384   24.4413 C   0  0  0  0  0  0  0  0  0  0  0  0
   13.7495   -0.9354   24.6904 C   0  0  0  0  0  0  0  0  0  0  0  0
   13.8210   -2.0420   23.8611 C   0  0  0  0  0  0  0  0  0  0  0  0
   14.7552   -3.0076   24.0988 O   0  0  0  0  0  0  0  0  0  0  0  0
   12.9505   -2.1789   22.7890 C   0  0  0  0  0  0  0  0  0  0  0  0
    7.0191    0.0388   20.1865 C   0  0  0  0  0  0  0  0  0  0  0  0
  1  2  1  0
  2  3  2  0
  2  4  1  0
  4  5  1  0
  5  6  1  0
  6  7  1  0
  7  8  2  0
  8  9  1  0
  9 10  2  0
 10 11  1  0
 11 12  1  0
 12 13  1  0
 13 14  2  0
 13 15  1  0
 15 16  1  0
 16 17  2  0
 17 18  1  0
 18 19  2  0
 19 20  1  0
 20 21  1  0
 20 22  2  0
 11 23  2  0
 23  7  1  0
 22 16  1  0
M  END
