CVD-0001418|dock_bobby27042020.24|mol2|2|dock1
     RDKit          3D

 40 44  0  0  0  0  0  0  0  0999 V2000
    2.6930    3.7013   23.9802 F   0  0  0  0  0  0  0  0  0  0  0  0
    3.2996    2.6142   23.5174 C   0  0  0  0  0  0  0  0  0  0  0  0
    2.5418    2.1693   22.5216 F   0  0  0  0  0  0  0  0  0  0  0  0
    3.2058    1.7055   24.4816 F   0  0  0  0  0  0  0  0  0  0  0  0
    4.7121    2.8723   23.0999 C   0  0  0  0  0  0  0  0  0  0  0  0
    5.4826    3.8256   23.7516 C   0  0  0  0  0  0  0  0  0  0  0  0
    6.7882    4.0594   23.3588 C   0  0  0  0  0  0  0  0  0  0  0  0
    7.3400    3.3306   22.3190 C   0  0  0  0  0  0  0  0  0  0  0  0
    6.5987    2.3559   21.6583 C   0  0  0  0  0  0  0  0  0  0  0  0
    5.2765    2.1553   22.0513 C   0  0  0  0  0  0  0  0  0  0  0  0
    7.2671    1.5977   20.5576 C   0  0  0  0  0  0  0  0  0  0  0  0
    8.4547    1.8392   20.3958 O   0  0  0  0  0  0  0  0  0  0  0  0
    6.5762    0.6061   19.6871 C   0  0  0  0  0  0  0  0  0  0  0  0
    5.8590    0.9636   18.4997 C   0  0  0  0  0  0  0  0  0  0  0  0
    5.3400   -0.0998   17.8361 C   0  0  0  0  0  0  0  0  0  0  0  0
    5.6881   -1.5759   18.6100 S   0  0  0  0  0  0  0  0  0  0  0  0
    6.5263   -0.7702   19.8936 C   0  0  0  0  0  0  0  0  0  0  0  0
    7.0307   -1.6930   20.9452 C   0  0  0  0  0  0  0  0  0  0  0  0
    6.6200   -3.0175   21.0551 C   0  0  0  0  0  0  0  0  0  0  0  0
    7.1249   -3.8459   22.0489 C   0  0  0  0  0  0  0  0  0  0  0  0
    6.7930   -5.2821   22.3233 C   0  0  0  0  0  0  0  0  0  0  0  0
    7.5561   -5.6413   23.6114 C   0  0  0  0  0  0  0  0  0  0  0  0
    8.5297   -4.4619   23.8660 C   0  0  0  0  0  0  0  0  0  0  0  0
    8.0548   -3.3646   22.9569 C   0  0  0  0  0  0  0  0  0  0  0  0
    8.4784   -2.0302   22.8582 C   0  0  0  0  0  0  0  0  0  0  0  0
    7.9650   -1.2054   21.8557 C   0  0  0  0  0  0  0  0  0  0  0  0
    9.2741   -1.3885   23.8800 N   0  0  0  0  0  0  0  0  0  0  0  0
   10.7471   -1.2896   23.7179 C   0  0  0  0  0  0  0  0  0  0  0  0
   11.2716   -1.8341   22.3823 C   0  0  0  0  0  0  0  0  0  0  0  0
   12.7346   -1.4305   22.2814 C   0  0  0  0  0  0  0  0  0  0  0  0
   12.8532    0.1872   23.0502 S   0  0  0  0  0  0  0  0  0  0  0  0
   12.8183    1.2218   22.0521 O   0  0  0  0  0  0  0  0  0  0  0  0
   13.9454    0.1919   23.9855 O   0  0  0  0  0  0  0  0  0  0  0  0
   11.2771    0.1153   23.9094 C   0  0  0  0  0  0  0  0  0  0  0  0
    8.6802   -0.9421   25.0355 C   0  0  0  0  0  0  0  0  0  0  0  0
    9.3479   -0.4878   25.9567 O   0  0  0  0  0  0  0  0  0  0  0  0
    7.1687   -0.9991   25.1694 C   0  0  0  0  0  0  0  0  0  0  0  0
    6.3374    0.1320   24.0934 Cl  0  0  0  0  0  0  0  0  0  0  0  0
    6.6624   -5.9246   24.7435 C   0  0  0  0  0  0  0  0  0  0  0  0
    5.9994   -6.1640   25.6382 N   0  0  0  0  0  0  0  0  0  0  0  0
  1  2  1  0
  2  3  1  0
  2  4  1  0
  2  5  1  0
  5  6  2  0
  6  7  1  0
  7  8  2  0
  8  9  1  0
  9 10  2  0
  9 11  1  0
 11 12  2  0
 11 13  1  0
 13 14  1  0
 14 15  2  0
 15 16  1  0
 16 17  1  0
 17 18  1  0
 18 19  2  0
 19 20  1  0
 20 21  1  0
 21 22  1  0
 22 23  1  0
 23 24  1  0
 24 25  1  0
 25 26  2  0
 25 27  1  0
 28 27  1  0
 28 29  1  0
 29 30  1  0
 30 31  1  0
 31 32  2  0
 31 33  2  0
 31 34  1  0
 27 35  1  0
 35 36  2  0
 35 37  1  0
 37 38  1  0
 22 39  1  0
 39 40  3  0
 10  5  1  0
 17 13  2  0
 26 18  1  0
 34 28  1  0
 24 20  2  0
M  END
