CVD-0002435|dock_bobby27042020.91|mol2|25|dock3
     RDKit          3D

 26 27  0  0  0  0  0  0  0  0999 V2000
    5.0250    0.4211   20.2521 C   0  0  0  0  0  0  0  0  0  0  0  0
    6.0824   -0.6243   20.4536 C   0  0  0  0  0  0  0  0  0  0  0  0
    6.5348   -1.2785   19.5193 O   0  0  0  0  0  0  0  0  0  0  0  0
    6.5140   -0.7885   21.7087 N   0  0  0  0  0  0  0  0  0  0  0  0
    7.5477   -1.7549   22.0417 C   0  0  0  0  0  0  0  0  0  0  0  0
    8.8759   -1.3500   21.3810 C   0  0  0  0  0  0  0  0  0  0  0  0
    9.5499   -0.1618   22.0234 C   0  0  0  0  0  0  0  0  0  0  0  0
    8.9885    1.1023   21.9448 C   0  0  0  0  0  0  0  0  0  0  0  0
    9.6034    2.1950   22.5292 C   0  0  0  0  0  0  0  0  0  0  0  0
   10.8002    2.0362   23.2062 C   0  0  0  0  0  0  0  0  0  0  0  0
   11.3898    3.1438   23.7795 O   0  0  0  0  0  0  0  0  0  0  0  0
   11.8973    4.2344   22.9715 C   0  0  0  0  0  0  0  0  0  0  0  0
   12.7341    5.3123   23.7848 C   0  0  0  0  0  0  0  0  0  0  0  0
   14.1832    4.8844   22.7278 S   0  0  0  0  0  0  0  0  0  0  0  0
   15.2338    4.2439   23.4721 O   0  0  0  0  0  0  0  0  0  0  0  0
   14.5305    5.9742   21.8564 O   0  0  0  0  0  0  0  0  0  0  0  0
   12.9750    3.7270   21.9799 C   0  0  0  0  0  0  0  0  0  0  0  0
   11.3762    0.7778   23.2920 C   0  0  0  0  0  0  0  0  0  0  0  0
   10.7491   -0.3057   22.7025 C   0  0  0  0  0  0  0  0  0  0  0  0
    7.1292   -3.1558   21.6007 C   0  0  0  0  0  0  0  0  0  0  0  0
    6.1791   -3.3037   20.8367 O   0  0  0  0  0  0  0  0  0  0  0  0
    7.8309   -4.1809   22.0849 N   0  0  0  0  0  0  0  0  0  0  0  0
    7.5094   -5.5575   21.7327 C   0  0  0  0  0  0  0  0  0  0  0  0
    6.1200   -5.9118   22.0464 C   0  0  0  0  0  0  0  0  0  0  0  0
    4.9815   -6.1432   22.2836 C   0  0  0  0  0  0  0  0  0  0  0  0
    3.2577   -6.4620   22.6968 Br  0  0  0  0  0  0  0  0  0  0  0  0
  1  2  1  0
  2  3  2  0
  2  4  1  0
  4  5  1  0
  5  6  1  0
  6  7  1  0
  7  8  2  0
  8  9  1  0
  9 10  2  0
 10 11  1  0
 11 12  1  0
 12 13  1  0
 13 14  1  0
 14 15  2  0
 14 16  2  0
 14 17  1  0
 10 18  1  0
 18 19  2  0
  5 20  1  0
 20 21  2  0
 20 22  1  0
 22 23  1  0
 23 24  1  0
 24 25  3  0
 25 26  1  0
 19  7  1  0
 17 12  1  0
M  END
