CVD-0003207|dock_bobby27042020.60|mol2|29|dock1
     RDKit          3D

 21 22  0  0  0  0  0  0  0  0999 V2000
    8.8717   -3.7092   25.2111 C   0  0  0  0  0  0  0  0  0  0  0  0
    8.4884   -3.3266   23.8044 C   0  0  0  0  0  0  0  0  0  0  0  0
    8.5333   -1.8690   23.5845 N   0  0  0  0  0  0  0  0  0  0  0  0
    7.2906   -1.1344   23.8796 C   0  0  0  0  0  0  0  0  0  0  0  0
    6.4287   -0.9525   22.6568 C   0  0  0  0  0  0  0  0  0  0  0  0
    9.6167   -1.2353   23.0881 C   0  0  0  0  0  0  0  0  0  0  0  0
    9.6040   -0.0233   22.9134 O   0  0  0  0  0  0  0  0  0  0  0  0
   10.8398   -2.0601   22.7640 C   0  0  0  0  0  0  0  0  0  0  0  0
   12.0561   -1.1959   22.4245 C   0  0  0  0  0  0  0  0  0  0  0  0
   13.3217   -2.0718   22.2182 C   0  0  0  0  0  0  0  0  0  0  0  0
   13.8892   -2.5172   23.4929 N   0  0  0  0  0  0  0  0  0  0  0  0
   14.0134   -1.5292   24.5456 C   0  0  0  0  0  0  0  0  0  0  0  0
   12.7536   -0.6699   24.6957 C   0  0  0  0  0  0  0  0  0  0  0  0
   12.2507   -0.1682   23.4354 N   0  0  0  0  0  0  0  0  0  0  0  0
   13.1361    0.8943   22.9394 C   0  0  0  0  0  0  0  0  0  0  0  0
   12.4360    2.2253   22.8109 C   0  0  0  0  0  0  0  0  0  0  0  0
   13.1484    3.4044   22.6711 C   0  0  0  0  0  0  0  0  0  0  0  0
   12.4466    4.5917   22.5545 C   0  0  0  0  0  0  0  0  0  0  0  0
   11.0691    4.5721   22.5794 C   0  0  0  0  0  0  0  0  0  0  0  0
   10.4421    3.3551   22.7207 C   0  0  0  0  0  0  0  0  0  0  0  0
   11.0966    2.1918   22.8353 N   0  0  0  0  0  0  0  0  0  0  0  0
  1  2  1  0
  2  3  1  0
  3  4  1  0
  4  5  1  0
  3  6  1  0
  6  7  2  0
  6  8  1  0
  8  9  1  0
  9 10  1  0
 10 11  1  0
 11 12  1  0
 12 13  1  0
 13 14  1  0
 14 15  1  0
 15 16  1  0
 16 17  2  0
 17 18  1  0
 18 19  2  0
 19 20  1  0
 20 21  2  0
 14  9  1  0
 21 16  1  0
M  END
