CVD-0001904|dock_bobby27042020.65|mol2|32|dock1
     RDKit          3D

 32 34  0  0  0  0  0  0  0  0999 V2000
   13.8953   -3.1983   25.6655 F   0  0  0  0  0  0  0  0  0  0  0  0
   13.9252   -2.2023   24.7874 C   0  0  0  0  0  0  0  0  0  0  0  0
   14.8904   -2.5038   23.9263 F   0  0  0  0  0  0  0  0  0  0  0  0
   14.3529   -1.1381   25.4571 F   0  0  0  0  0  0  0  0  0  0  0  0
   12.6052   -1.9764   24.1223 C   0  0  0  0  0  0  0  0  0  0  0  0
   11.5495   -1.3969   24.8118 C   0  0  0  0  0  0  0  0  0  0  0  0
   10.3263   -1.1891   24.1993 C   0  0  0  0  0  0  0  0  0  0  0  0
   10.1234   -1.5409   22.8676 C   0  0  0  0  0  0  0  0  0  0  0  0
   11.1804   -2.1326   22.1845 C   0  0  0  0  0  0  0  0  0  0  0  0
   12.4003   -2.3464   22.8008 C   0  0  0  0  0  0  0  0  0  0  0  0
    8.8731   -1.3180   22.1934 N   0  0  0  0  0  0  0  0  0  0  0  0
    8.4856    0.0837   21.8716 C   0  0  0  0  0  0  0  0  0  0  0  0
    9.7078    1.0263   22.0203 C   0  0  0  0  0  0  0  0  0  0  0  0
   10.8060    0.5460   21.7569 O   0  0  0  0  0  0  0  0  0  0  0  0
    9.5075    2.3120   22.4280 N   0  0  0  0  0  0  0  0  0  0  0  0
   10.4372    3.3693   22.6443 C   0  0  0  0  0  0  0  0  0  0  0  0
   11.8218    3.1739   22.6966 C   0  0  0  0  0  0  0  0  0  0  0  0
   12.6814    4.2409   22.9025 C   0  0  0  0  0  0  0  0  0  0  0  0
   12.1988    5.5178   23.0708 C   0  0  0  0  0  0  0  0  0  0  0  0
   10.8372    5.7434   23.0324 C   0  0  0  0  0  0  0  0  0  0  0  0
    9.9750    4.6829   22.8199 C   0  0  0  0  0  0  0  0  0  0  0  0
    8.1317    5.1329   22.7806 Br  0  0  0  0  0  0  0  0  0  0  0  0
    7.6101    0.2401   20.6303 C   0  0  0  0  0  0  0  0  0  0  0  0
    6.4218    0.9578   20.6288 C   0  0  0  0  0  0  0  0  0  0  0  0
    5.6753    1.0586   19.4677 C   0  0  0  0  0  0  0  0  0  0  0  0
    6.1435    0.4434   18.3292 C   0  0  0  0  0  0  0  0  0  0  0  0
    7.2853   -0.2440   18.2901 N   0  0  0  0  0  0  0  0  0  0  0  0
    7.9868   -0.3306   19.4241 C   0  0  0  0  0  0  0  0  0  0  0  0
    8.0284   -2.3640   21.8378 C   0  0  0  0  0  0  0  0  0  0  0  0
    6.9606   -2.1665   21.2600 O   0  0  0  0  0  0  0  0  0  0  0  0
    8.3841   -3.7844   22.1178 C   0  0  0  0  0  0  0  0  0  0  0  0
    7.7096   -4.7654   21.5785 C   0  0  0  0  0  0  0  0  0  0  0  0
  1  2  1  0
  2  3  1  0
  2  4  1  0
  2  5  1  0
  5  6  2  0
  6  7  1  0
  7  8  2  0
  8  9  1  0
  9 10  2  0
  8 11  1  0
 11 12  1  0
 12 13  1  0
 13 14  2  0
 13 15  1  0
 15 16  1  0
 16 17  2  0
 17 18  1  0
 18 19  2  0
 19 20  1  0
 20 21  2  0
 21 22  1  0
 12 23  1  0
 23 24  2  0
 24 25  1  0
 25 26  2  0
 26 27  1  0
 27 28  2  0
 11 29  1  0
 29 30  2  0
 29 31  1  0
 31 32  2  0
 10  5  1  0
 21 16  1  0
 28 23  1  0
M  END
