CVD-0000430|dock_bobby27042020.70|mol2|14|dock2
     RDKit          3D

 28 29  0  0  0  0  0  0  0  0999 V2000
    4.0941    2.4961   21.7192 C   0  0  0  0  0  0  0  0  0  0  0  0
    5.0648    3.3255   20.9382 C   0  0  0  0  0  0  0  0  0  0  0  0
    5.6118    2.5845   19.8139 N   0  0  0  0  0  0  0  0  0  0  0  0
    6.5660    1.6204   19.9314 C   0  0  0  0  0  0  0  0  0  0  0  0
    6.8870    0.7853   18.8622 C   0  0  0  0  0  0  0  0  0  0  0  0
    7.8668   -0.1703   19.0563 C   0  0  0  0  0  0  0  0  0  0  0  0
    8.4650   -0.2408   20.2903 C   0  0  0  0  0  0  0  0  0  0  0  0
    9.4271   -1.1683   20.5014 F   0  0  0  0  0  0  0  0  0  0  0  0
    8.1120    0.6082   21.3208 C   0  0  0  0  0  0  0  0  0  0  0  0
    8.7560    0.5546   22.6852 C   0  0  0  0  0  0  0  0  0  0  0  0
   10.2691    0.5907   22.6179 C   0  0  0  0  0  0  0  0  0  0  0  0
   10.9988   -0.5874   22.5325 C   0  0  0  0  0  0  0  0  0  0  0  0
   12.3859   -0.5733   22.4725 C   0  0  0  0  0  0  0  0  0  0  0  0
   13.1684   -1.8690   22.3825 C   0  0  0  0  0  0  0  0  0  0  0  0
   13.7216   -2.1433   21.0083 C   0  0  0  0  0  0  0  0  0  0  0  0
   13.0433    0.6497   22.5022 C   0  0  0  0  0  0  0  0  0  0  0  0
   12.3369    1.8440   22.5883 C   0  0  0  0  0  0  0  0  0  0  0  0
   13.0218    3.0444   22.6148 N   0  0  0  0  0  0  0  0  0  0  0  0
   12.6143    4.2134   21.8595 C   0  0  0  0  0  0  0  0  0  0  0  0
   12.0593    5.3062   22.7524 C   0  0  0  0  0  0  0  0  0  0  0  0
   12.7464    5.7972   23.6429 O   0  0  0  0  0  0  0  0  0  0  0  0
   10.7770    5.6982   22.4933 N   0  0  0  0  0  0  0  0  0  0  0  0
    9.9185    6.5006   23.2188 C   0  0  0  0  0  0  0  0  0  0  0  0
   10.2752    6.9959   24.2975 O   0  0  0  0  0  0  0  0  0  0  0  0
    8.5559    6.7618   22.6847 C   0  0  0  0  0  0  0  0  0  0  0  0
    7.6500    7.5385   23.2243 C   0  0  0  0  0  0  0  0  0  0  0  0
   10.9471    1.8023   22.6465 C   0  0  0  0  0  0  0  0  0  0  0  0
    7.1625    1.5342   21.1275 N   0  0  0  0  0  0  0  0  0  0  0  0
  1  2  1  0
  2  3  1  0
  3  4  1  0
  4  5  2  0
  5  6  1  0
  6  7  2  0
  7  8  1  0
  7  9  1  0
  9 10  1  0
 10 11  1  0
 11 12  2  0
 12 13  1  0
 13 14  1  0
 14 15  1  0
 13 16  2  0
 16 17  1  0
 17 18  1  0
 18 19  1  0
 19 20  1  0
 20 21  2  0
 20 22  1  0
 22 23  1  0
 23 24  2  0
 23 25  1  0
 25 26  2  0
 17 27  2  0
  9 28  2  0
 28  4  1  0
 27 11  1  0
M  END
