CVD-0001958|dock_bobby27042020.65|mol2|21|dock3
     RDKit          3D

 29 32  0  0  0  0  0  0  0  0999 V2000
   12.2965   -0.1414   21.9887 C   0  0  0  0  0  0  0  0  0  0  0  0
   11.1150   -0.8796   21.5346 N   0  0  0  0  0  0  0  0  0  0  0  0
   10.7553   -2.0301   22.3721 C   0  0  0  0  0  0  0  0  0  0  0  0
    9.4497   -2.6348   21.9827 C   0  0  0  0  0  0  0  0  0  0  0  0
    8.6557   -2.2289   20.9403 C   0  0  0  0  0  0  0  0  0  0  0  0
    7.5157   -3.0597   20.9157 C   0  0  0  0  0  0  0  0  0  0  0  0
    7.6112   -3.9710   21.9477 C   0  0  0  0  0  0  0  0  0  0  0  0
    6.5730   -4.9933   22.2273 C   0  0  0  0  0  0  0  0  0  0  0  0
    6.8561   -6.3544   22.0921 C   0  0  0  0  0  0  0  0  0  0  0  0
    5.8955   -7.3104   22.3782 C   0  0  0  0  0  0  0  0  0  0  0  0
    4.6411   -6.9336   22.8050 C   0  0  0  0  0  0  0  0  0  0  0  0
    4.3304   -5.5926   22.9454 C   0  0  0  0  0  0  0  0  0  0  0  0
    5.2957   -4.6595   22.6502 C   0  0  0  0  0  0  0  0  0  0  0  0
    4.9652   -3.3542   22.7797 F   0  0  0  0  0  0  0  0  0  0  0  0
    8.8212   -3.7288   22.6274 N   0  0  0  0  0  0  0  0  0  0  0  0
    9.3370   -4.4465   23.7465 C   0  0  0  0  0  0  0  0  0  0  0  0
    8.7513   -5.5131   24.5223 C   0  0  0  0  0  0  0  0  0  0  0  0
    9.6977   -5.8049   25.4643 C   0  0  0  0  0  0  0  0  0  0  0  0
   10.7325   -4.9888   25.2628 N   0  0  0  0  0  0  0  0  0  0  0  0
   10.5350   -4.1471   24.2214 N   0  0  0  0  0  0  0  0  0  0  0  0
    6.2366   -2.8710   19.7149 S   0  0  0  0  0  0  0  0  0  0  0  0
    5.0715   -3.5680   20.1873 O   0  0  0  0  0  0  0  0  0  0  0  0
    6.7754   -3.2176   18.4281 O   0  0  0  0  0  0  0  0  0  0  0  0
    5.8690   -1.1467   19.7024 C   0  0  0  0  0  0  0  0  0  0  0  0
    5.6911   -0.4789   18.5030 C   0  0  0  0  0  0  0  0  0  0  0  0
    5.3988    0.8736   18.5387 C   0  0  0  0  0  0  0  0  0  0  0  0
    5.2962    1.4970   19.7618 C   0  0  0  0  0  0  0  0  0  0  0  0
    5.4634    0.8655   20.9248 N   0  0  0  0  0  0  0  0  0  0  0  0
    5.7450   -0.4399   20.8834 C   0  0  0  0  0  0  0  0  0  0  0  0
  1  2  1  0
  2  3  1  0
  3  4  1  0
  4  5  2  0
  5  6  1  0
  6  7  2  0
  7  8  1  0
  8  9  2  0
  9 10  1  0
 10 11  2  0
 11 12  1  0
 12 13  2  0
 13 14  1  0
  7 15  1  0
 15 16  1  0
 16 17  1  0
 17 18  2  0
 18 19  1  0
 19 20  1  0
  6 21  1  0
 21 22  2  0
 21 23  2  0
 21 24  1  0
 24 25  2  0
 25 26  1  0
 26 27  2  0
 27 28  1  0
 28 29  2  0
 15  4  1  0
 20 16  2  0
 29 24  1  0
 13  8  1  0
M  END
