CVD-0000377|dock_bobby27042020.70|mol2|22|dock2
     RDKit          3D

 29 31  0  0  0  0  0  0  0  0999 V2000
   14.0313    5.8051   22.1330 C   0  0  0  0  0  0  0  0  0  0  0  0
   13.8016    4.5353   22.8912 C   0  0  0  0  0  0  0  0  0  0  0  0
   12.3992    4.1530   22.8761 N   0  0  0  0  0  0  0  0  0  0  0  0
   11.9578    2.8739   22.7218 C   0  0  0  0  0  0  0  0  0  0  0  0
   10.6721    2.6070   22.2497 C   0  0  0  0  0  0  0  0  0  0  0  0
   10.2594    1.2802   22.1419 C   0  0  0  0  0  0  0  0  0  0  0  0
    8.9592    0.9033   21.7121 N   0  0  0  0  0  0  0  0  0  0  0  0
    7.9177    0.3259   22.3850 C   0  0  0  0  0  0  0  0  0  0  0  0
    7.9468   -0.2387   23.6207 C   0  0  0  0  0  0  0  0  0  0  0  0
    6.4296   -0.8388   24.0985 S   0  0  0  0  0  0  0  0  0  0  0  0
    5.6983   -0.3691   22.6375 C   0  0  0  0  0  0  0  0  0  0  0  0
    6.5762    0.2433   21.7985 C   0  0  0  0  0  0  0  0  0  0  0  0
    6.2143    0.7636   20.4327 C   0  0  0  0  0  0  0  0  0  0  0  0
    4.7827    1.2287   20.2332 C   0  0  0  0  0  0  0  0  0  0  0  0
    4.7171    1.5006   18.7619 C   0  0  0  0  0  0  0  0  0  0  0  0
    5.6703    0.4880   18.0799 C   0  0  0  0  0  0  0  0  0  0  0  0
    6.4267   -0.2188   19.2419 C   0  0  0  0  0  0  0  0  0  0  0  0
    5.9628   -1.6333   19.5313 C   0  0  0  0  0  0  0  0  0  0  0  0
    5.0147   -2.1278   18.9266 O   0  0  0  0  0  0  0  0  0  0  0  0
    6.6751   -2.2829   20.4952 N   0  0  0  0  0  0  0  0  0  0  0  0
    6.4923   -3.5675   20.9722 C   0  0  0  0  0  0  0  0  0  0  0  0
    5.5945   -4.3002   20.5317 O   0  0  0  0  0  0  0  0  0  0  0  0
    7.4030   -4.0631   22.0374 C   0  0  0  0  0  0  0  0  0  0  0  0
    7.3415   -5.2329   22.6228 C   0  0  0  0  0  0  0  0  0  0  0  0
   11.1832    0.2680   22.4679 C   0  0  0  0  0  0  0  0  0  0  0  0
   12.4571    0.6451   22.9097 C   0  0  0  0  0  0  0  0  0  0  0  0
   12.8330    1.9194   23.0475 N   0  0  0  0  0  0  0  0  0  0  0  0
   10.8623   -1.1328   22.3682 C   0  0  0  0  0  0  0  0  0  0  0  0
   10.6275   -2.2455   22.2608 N   0  0  0  0  0  0  0  0  0  0  0  0
  1  2  1  0
  2  3  1  0
  3  4  1  0
  4  5  2  0
  5  6  1  0
  6  7  1  0
  7  8  1  0
  8  9  2  0
  9 10  1  0
 10 11  1  0
 11 12  2  0
 13 12  1  0
 13 14  1  0
 14 15  1  0
 15 16  1  0
 16 17  1  0
 17 18  1  0
 18 19  2  0
 18 20  1  0
 20 21  1  0
 21 22  2  0
 21 23  1  0
 23 24  2  0
  6 25  2  0
 25 26  1  0
 26 27  2  0
 25 28  1  0
 28 29  3  0
 27  4  1  0
 12  8  1  0
 17 13  1  0
M  END
