CVD-0000698|dock_bobby27042020.97|mol2|40|dock3
     RDKit          3D

 28 30  0  0  0  0  0  0  0  0999 V2000
   13.7349    0.8276   23.2191 C   0  0  0  0  0  0  0  0  0  0  0  0
   12.4310    0.2924   22.8313 N   0  0  0  0  0  0  0  0  0  0  0  0
   11.5227    0.2713   23.9816 C   0  0  0  0  0  0  0  0  0  0  0  0
   10.1586   -0.2464   23.5644 C   0  0  0  0  0  0  0  0  0  0  0  0
   10.2750   -1.5872   22.9869 N   0  0  0  0  0  0  0  0  0  0  0  0
   11.2240   -1.6119   21.8695 C   0  0  0  0  0  0  0  0  0  0  0  0
   12.5698   -1.0644   22.3086 C   0  0  0  0  0  0  0  0  0  0  0  0
    9.5529   -2.6516   23.4381 C   0  0  0  0  0  0  0  0  0  0  0  0
    9.9286   -3.7904   23.1889 O   0  0  0  0  0  0  0  0  0  0  0  0
    8.4342   -2.4335   24.1533 N   0  0  0  0  0  0  0  0  0  0  0  0
    7.6838   -3.5577   24.6944 C   0  0  0  0  0  0  0  0  0  0  0  0
    6.2748   -3.6202   24.1327 C   0  0  0  0  0  0  0  0  0  0  0  0
    6.1597   -4.5658   22.9561 C   0  0  0  0  0  0  0  0  0  0  0  0
    5.8766   -5.8992   23.2310 C   0  0  0  0  0  0  0  0  0  0  0  0
    5.7604   -6.7919   22.1886 C   0  0  0  0  0  0  0  0  0  0  0  0
    5.9054   -6.4459   20.9122 N   0  0  0  0  0  0  0  0  0  0  0  0
    6.1769   -5.1656   20.6404 C   0  0  0  0  0  0  0  0  0  0  0  0
    6.3159   -4.1765   21.6138 C   0  0  0  0  0  0  0  0  0  0  0  0
    6.6034   -2.8116   21.3341 N   0  0  0  0  0  0  0  0  0  0  0  0
    6.2021   -2.0219   20.3074 C   0  0  0  0  0  0  0  0  0  0  0  0
    5.4759   -2.3608   19.3793 O   0  0  0  0  0  0  0  0  0  0  0  0
    6.7357   -0.6059   20.3952 C   0  0  0  0  0  0  0  0  0  0  0  0
    5.8816    0.3794   19.6298 C   0  0  0  0  0  0  0  0  0  0  0  0
    6.2760    0.8402   18.3833 C   0  0  0  0  0  0  0  0  0  0  0  0
    5.4954    1.7452   17.6834 C   0  0  0  0  0  0  0  0  0  0  0  0
    4.3116    2.2005   18.2229 C   0  0  0  0  0  0  0  0  0  0  0  0
    3.9086    1.7512   19.4622 C   0  0  0  0  0  0  0  0  0  0  0  0
    4.6896    0.8463   20.1615 C   0  0  0  0  0  0  0  0  0  0  0  0
  1  2  1  0
  2  3  1  0
  3  4  1  0
  4  5  1  0
  5  6  1  0
  6  7  1  0
  5  8  1  0
  8  9  2  0
  8 10  1  0
 10 11  1  0
 11 12  1  0
 12 13  1  0
 13 14  2  0
 14 15  1  0
 15 16  2  0
 16 17  1  0
 17 18  2  0
 18 19  1  0
 19 20  1  0
 20 21  2  0
 20 22  1  0
 22 23  1  0
 23 24  2  0
 24 25  1  0
 25 26  2  0
 26 27  1  0
 27 28  2  0
  7  2  1  0
 18 13  1  0
 28 23  1  0
M  END
