CVD-0001568|dock_bobby27042020.37|mol2|43|dock3
     RDKit          3D

 28 31  0  0  0  0  0  0  0  0999 V2000
   13.9513    5.8995   21.8966 C   0  0  0  0  0  0  0  0  0  0  0  0
   13.9552    4.4167   22.1255 C   0  0  0  0  0  0  0  0  0  0  0  0
   14.9734    3.7469   21.9928 O   0  0  0  0  0  0  0  0  0  0  0  0
   12.7412    3.7723   22.4917 N   0  0  0  0  0  0  0  0  0  0  0  0
   11.5117    4.5594   22.6549 C   0  0  0  0  0  0  0  0  0  0  0  0
   10.4548    3.5250   23.0421 C   0  0  0  0  0  0  0  0  0  0  0  0
   11.1765    2.1984   23.0705 C   0  0  0  0  0  0  0  0  0  0  0  0
   12.5163    2.4445   22.7338 C   0  0  0  0  0  0  0  0  0  0  0  0
   13.2018    1.2682   22.7500 N   0  0  0  0  0  0  0  0  0  0  0  0
   12.3234    0.2494   23.0948 C   0  0  0  0  0  0  0  0  0  0  0  0
   12.5504   -1.1160   23.2409 C   0  0  0  0  0  0  0  0  0  0  0  0
   11.5004   -1.9451   23.5965 C   0  0  0  0  0  0  0  0  0  0  0  0
   10.2317   -1.4195   23.8055 C   0  0  0  0  0  0  0  0  0  0  0  0
    9.1628   -2.2199   24.1592 O   0  0  0  0  0  0  0  0  0  0  0  0
    9.0277   -3.5279   23.6502 C   0  0  0  0  0  0  0  0  0  0  0  0
    9.6924   -4.4912   24.4491 O   0  0  0  0  0  0  0  0  0  0  0  0
    9.1956   -4.5527   25.8049 C   0  0  0  0  0  0  0  0  0  0  0  0
    7.7235   -4.9853   25.7964 C   0  0  0  0  0  0  0  0  0  0  0  0
    7.1928   -5.0280   27.1177 O   0  0  0  0  0  0  0  0  0  0  0  0
    6.8794   -4.0670   24.8992 C   0  0  0  0  0  0  0  0  0  0  0  0
    6.7344   -2.7915   25.5160 O   0  0  0  0  0  0  0  0  0  0  0  0
    7.5473   -3.8930   23.5379 C   0  0  0  0  0  0  0  0  0  0  0  0
    6.8171   -2.9604   22.7422 O   0  0  0  0  0  0  0  0  0  0  0  0
   10.0927   -5.5349   26.5530 C   0  0  0  0  0  0  0  0  0  0  0  0
   10.1338   -6.7215   26.0032 O   0  0  0  0  0  0  0  0  0  0  0  0
   10.6975   -5.2232   27.5554 O   0  0  0  0  0  0  0  0  0  0  0  0
    9.9926   -0.0599   23.6629 C   0  0  0  0  0  0  0  0  0  0  0  0
   11.0337    0.7831   23.3074 C   0  0  0  0  0  0  0  0  0  0  0  0
  1  2  1  0
  2  3  2  0
  2  4  1  0
  4  5  1  0
  5  6  1  0
  6  7  1  0
  7  8  2  0
  8  9  1  0
  9 10  1  0
 10 11  2  0
 11 12  1  0
 12 13  2  0
 13 14  1  0
 14 15  1  0
 15 16  1  0
 16 17  1  0
 17 18  1  0
 18 19  1  0
 18 20  1  0
 20 21  1  0
 20 22  1  0
 22 23  1  0
 17 24  1  0
 24 25  1  0
 24 26  2  0
 13 27  1  0
 27 28  2  0
  8  4  1  0
 28 10  1  0
 28  7  1  0
 22 15  1  0
M  END
