CVD-0001924|dock_bobby27042020.79|mol2|26|dock3
     RDKit          3D

 24 26  0  0  0  0  0  0  0  0999 V2000
    8.1824   -0.6370   28.1159 N   0  0  0  0  0  0  0  0  0  0  0  0
    9.1460   -0.7218   26.9955 C   0  0  0  0  0  0  0  0  0  0  0  0
    8.6453   -1.4290   25.7394 C   0  0  0  0  0  0  0  0  0  0  0  0
    9.3848   -0.9091   24.6311 O   0  0  0  0  0  0  0  0  0  0  0  0
    8.9869   -1.5349   23.4023 C   0  0  0  0  0  0  0  0  0  0  0  0
    9.4068   -2.9799   23.3956 C   0  0  0  0  0  0  0  0  0  0  0  0
    9.1932   -3.6676   24.7183 C   0  0  0  0  0  0  0  0  0  0  0  0
    9.3759   -5.0539   24.8460 C   0  0  0  0  0  0  0  0  0  0  0  0
    9.8046   -5.8319   23.8049 O   0  0  0  0  0  0  0  0  0  0  0  0
    9.1265   -5.6902   26.0605 C   0  0  0  0  0  0  0  0  0  0  0  0
    9.3335   -7.0286   26.1635 O   0  0  0  0  0  0  0  0  0  0  0  0
    8.6949   -4.9571   27.1550 C   0  0  0  0  0  0  0  0  0  0  0  0
    8.5158   -3.5923   27.0264 C   0  0  0  0  0  0  0  0  0  0  0  0
    8.7607   -2.9364   25.8168 C   0  0  0  0  0  0  0  0  0  0  0  0
    9.6130   -0.7280   22.2653 C   0  0  0  0  0  0  0  0  0  0  0  0
    9.4216    0.7809   22.4869 C   0  0  0  0  0  0  0  0  0  0  0  0
    7.9461    1.1584   22.3867 C   0  0  0  0  0  0  0  0  0  0  0  0
    7.3653    0.7431   21.0370 C   0  0  0  0  0  0  0  0  0  0  0  0
    7.5858   -0.7332   20.7557 C   0  0  0  0  0  0  0  0  0  0  0  0
    6.9766   -1.1809   19.4200 C   0  0  0  0  0  0  0  0  0  0  0  0
    5.5850   -0.7165   18.9773 C   0  0  0  0  0  0  0  0  0  0  0  0
    5.5716    0.6240   18.3757 C   0  0  0  0  0  0  0  0  0  0  0  0
    6.2413    0.9653   17.4471 O   0  0  0  0  0  0  0  0  0  0  0  0
    9.0606   -1.1255   20.8988 C   0  0  0  0  0  0  0  0  0  0  0  0
  1  2  1  0
  2  3  1  0
  3  4  1  0
  4  5  1  0
  5  6  1  0
  6  7  1  0
  7  8  2  0
  8  9  1  0
  8 10  1  0
 10 11  1  0
 10 12  2  0
 12 13  1  0
 13 14  2  0
  5 15  1  0
 15 16  1  0
 16 17  1  0
 17 18  1  0
 18 19  1  0
 19 20  1  0
 20 21  1  0
 21 22  1  0
 22 23  2  0
 19 24  1  0
 14  3  1  0
 24 15  1  0
 14  7  1  0
M  END
