CVD-0004009|dock_bobby27042020.0|mol2|12|dock2
     RDKit          3D

 18 18  0  0  0  0  0  0  0  0999 V2000
   13.3490   -1.7635   21.9271 C   0  0  0  0  0  0  0  0  0  0  0  0
   12.9513   -1.2481   23.3124 C   0  0  0  0  0  0  0  0  0  0  0  0
   11.6313   -1.8668   23.7788 C   0  0  0  0  0  0  0  0  0  0  0  0
   12.8631    0.2176   23.3134 N   0  0  0  0  0  0  0  0  0  0  0  0
   11.9417    0.9234   22.6211 C   0  0  0  0  0  0  0  0  0  0  0  0
   11.1178    0.3472   21.9207 O   0  0  0  0  0  0  0  0  0  0  0  0
   11.9426    2.4281   22.7208 C   0  0  0  0  0  0  0  0  0  0  0  0
   13.1747    3.0902   22.7540 C   0  0  0  0  0  0  0  0  0  0  0  0
   13.2455    4.4688   22.8387 C   0  0  0  0  0  0  0  0  0  0  0  0
   12.0969    5.2232   22.8723 C   0  0  0  0  0  0  0  0  0  0  0  0
   10.8579    4.6104   22.8350 C   0  0  0  0  0  0  0  0  0  0  0  0
   10.7776    3.2231   22.7759 C   0  0  0  0  0  0  0  0  0  0  0  0
    9.1284    2.5576   22.7819 S   0  0  0  0  0  0  0  0  0  0  0  0
    8.0799    3.7306   23.0814 N   0  0  0  0  0  0  0  0  0  0  0  0
    9.0219    1.6514   23.8856 O   0  0  0  0  0  0  0  0  0  0  0  0
    8.8554    2.0335   21.4767 O   0  0  0  0  0  0  0  0  0  0  0  0
   14.0102   -1.6593   24.2713 C   0  0  0  0  0  0  0  0  0  0  0  0
   14.7737   -2.0107   25.0385 N   0  0  0  0  0  0  0  0  0  0  0  0
  1  2  1  0
  2  3  1  0
  2  4  1  0
  4  5  1  0
  5  6  2  0
  5  7  1  0
  7  8  2  0
  8  9  1  0
  9 10  2  0
 10 11  1  0
 11 12  2  0
 12 13  1  0
 13 14  1  0
 13 15  2  0
 13 16  2  0
  2 17  1  0
 17 18  3  0
 12  7  1  0
M  END
