CVD-0003918|dock_bobby27042020.29|mol2|21|dock1
     RDKit          3D

 32 35  0  0  0  0  0  0  0  0999 V2000
    5.9970    1.3257   17.4496 O   0  0  0  0  0  0  0  0  0  0  0  0
    6.0928    0.0824   18.1527 C   0  0  0  0  0  0  0  0  0  0  0  0
    5.2982    0.1016   19.4441 C   0  0  0  0  0  0  0  0  0  0  0  0
    5.4193   -1.2061   20.2307 C   0  0  0  0  0  0  0  0  0  0  0  0
    6.8903   -1.5045   20.5023 C   0  0  0  0  0  0  0  0  0  0  0  0
    7.6820   -1.5918   19.2071 C   0  0  0  0  0  0  0  0  0  0  0  0
    7.5437   -0.2729   18.4379 C   0  0  0  0  0  0  0  0  0  0  0  0
    7.0537   -2.7481   21.3147 N   0  0  0  0  0  0  0  0  0  0  0  0
    7.5841   -2.6636   22.7365 C   0  0  0  0  0  0  0  0  0  0  0  0
    8.0411   -3.9968   23.3274 C   0  0  0  0  0  0  0  0  0  0  0  0
    8.5980   -3.8162   24.7284 C   0  0  0  0  0  0  0  0  0  0  0  0
    7.6019   -3.1303   25.6406 C   0  0  0  0  0  0  0  0  0  0  0  0
    7.1541   -1.7991   25.0604 C   0  0  0  0  0  0  0  0  0  0  0  0
    6.5877   -1.9691   23.6591 C   0  0  0  0  0  0  0  0  0  0  0  0
    8.7691   -1.8048   22.5239 C   0  0  0  0  0  0  0  0  0  0  0  0
    9.7744   -1.2008   22.3250 C   0  0  0  0  0  0  0  0  0  0  0  0
   10.9888   -0.4743   22.0129 C   0  0  0  0  0  0  0  0  0  0  0  0
   12.2022   -1.0722   22.7544 C   0  0  0  0  0  0  0  0  0  0  0  0
   13.4857   -0.2834   22.5028 C   0  0  0  0  0  0  0  0  0  0  0  0
   13.3045    1.1919   22.8358 C   0  0  0  0  0  0  0  0  0  0  0  0
   12.1257    1.7853   22.0776 C   0  0  0  0  0  0  0  0  0  0  0  0
   10.8407    1.0157   22.3654 C   0  0  0  0  0  0  0  0  0  0  0  0
    6.6676   -4.1670   20.5553 S   0  0  0  0  0  0  0  0  0  0  0  0
    7.8700   -4.9329   20.4446 O   0  0  0  0  0  0  0  0  0  0  0  0
    5.8258   -3.9959   19.4128 O   0  0  0  0  0  0  0  0  0  0  0  0
    5.6305   -4.9874   21.7451 C   0  0  0  0  0  0  0  0  0  0  0  0
    4.5643   -4.2771   22.2769 C   0  0  0  0  0  0  0  0  0  0  0  0
    3.7390   -4.8937   23.2038 C   0  0  0  0  0  0  0  0  0  0  0  0
    3.9665   -6.1957   23.5975 C   0  0  0  0  0  0  0  0  0  0  0  0
    5.0274   -6.9130   23.0714 C   0  0  0  0  0  0  0  0  0  0  0  0
    5.8408   -6.2944   22.1531 C   0  0  0  0  0  0  0  0  0  0  0  0
    6.8794   -6.9876   21.6329 F   0  0  0  0  0  0  0  0  0  0  0  0
  1  2  1  0
  2  3  1  0
  3  4  1  0
  4  5  1  0
  5  6  1  0
  6  7  1  0
  5  8  1  0
  8  9  1  0
  9 10  1  0
 10 11  1  0
 11 12  1  0
 12 13  1  0
 13 14  1  0
  9 15  1  0
 15 16  3  0
 16 17  1  0
 17 18  1  0
 18 19  1  0
 19 20  1  0
 20 21  1  0
 21 22  1  0
  8 23  1  0
 23 24  2  0
 23 25  2  0
 23 26  1  0
 26 27  2  0
 27 28  1  0
 28 29  2  0
 29 30  1  0
 30 31  2  0
 31 32  1  0
  7  2  1  0
 14  9  1  0
 22 17  1  0
 31 26  1  0
M  END
