CVD-0000091|dock_bobby27042020.71|mol2|27|dock3
     RDKit          3D

 18 18  0  0  0  0  0  0  0  0999 V2000
   13.4669    5.4222   22.3906 C   0  0  0  0  0  0  0  0  0  0  0  0
   12.8247    4.1939   22.9926 C   0  0  0  0  0  0  0  0  0  0  0  0
   13.2420    2.9080   22.3025 C   0  0  0  0  0  0  0  0  0  0  0  0
   12.5651    1.6631   22.8498 C   0  0  0  0  0  0  0  0  0  0  0  0
   13.2950    0.3734   22.4996 C   0  0  0  0  0  0  0  0  0  0  0  0
   12.6279   -0.8862   23.0420 C   0  0  0  0  0  0  0  0  0  0  0  0
   13.5811   -2.0698   22.9813 C   0  0  0  0  0  0  0  0  0  0  0  0
   11.4204   -1.1875   22.2768 N   0  0  0  0  0  0  0  0  0  0  0  0
   10.1961   -1.1961   22.8082 C   0  0  0  0  0  0  0  0  0  0  0  0
    9.9728   -0.9514   23.9897 O   0  0  0  0  0  0  0  0  0  0  0  0
    9.0522   -1.5177   21.8797 C   0  0  0  0  0  0  0  0  0  0  0  0
    8.3832   -0.3265   21.4793 O   0  0  0  0  0  0  0  0  0  0  0  0
    7.4401   -0.3622   20.4814 C   0  0  0  0  0  0  0  0  0  0  0  0
    7.1696    0.8113   19.7981 C   0  0  0  0  0  0  0  0  0  0  0  0
    6.2255    0.8159   18.7854 C   0  0  0  0  0  0  0  0  0  0  0  0
    5.5548   -0.3413   18.4553 C   0  0  0  0  0  0  0  0  0  0  0  0
    5.8250   -1.5084   19.1361 C   0  0  0  0  0  0  0  0  0  0  0  0
    6.7667   -1.5302   20.1518 C   0  0  0  0  0  0  0  0  0  0  0  0
  1  2  1  0
  2  3  1  0
  3  4  1  0
  4  5  1  0
  5  6  1  0
  6  7  1  0
  6  8  1  0
  8  9  1  0
  9 10  2  0
  9 11  1  0
 11 12  1  0
 12 13  1  0
 13 14  2  0
 14 15  1  0
 15 16  2  0
 16 17  1  0
 17 18  2  0
 18 13  1  0
M  END
