CVD-0002625|dock_bobby27042020.90|mol2|38|dock1
     RDKit          3D

 17 18  0  0  0  0  0  0  0  0999 V2000
   13.7097   -1.3547   21.7696 C   0  0  0  0  0  0  0  0  0  0  0  0
   12.5344   -1.1586   22.6959 C   0  0  0  0  0  0  0  0  0  0  0  0
   12.5310   -0.1392   23.6351 C   0  0  0  0  0  0  0  0  0  0  0  0
   11.4489    0.0391   24.4803 C   0  0  0  0  0  0  0  0  0  0  0  0
   10.3546   -0.8041   24.3932 C   0  0  0  0  0  0  0  0  0  0  0  0
   10.3325   -1.8308   23.4632 C   0  0  0  0  0  0  0  0  0  0  0  0
    9.1445   -2.7557   23.3539 C   0  0  0  0  0  0  0  0  0  0  0  0
    8.3568   -2.5903   22.0608 C   0  0  0  0  0  0  0  0  0  0  0  0
    7.6315   -1.2591   21.9705 C   0  0  0  0  0  0  0  0  0  0  0  0
    7.0299   -0.9934   20.6563 N   0  0  0  0  0  0  0  0  0  0  0  0
    7.9945   -0.3405   19.7630 C   0  0  0  0  0  0  0  0  0  0  0  0
    7.4136   -0.1051   18.3827 C   0  0  0  0  0  0  0  0  0  0  0  0
    6.1243    0.7068   18.4175 C   0  0  0  0  0  0  0  0  0  0  0  0
    5.4868    0.8352   17.1428 O   0  0  0  0  0  0  0  0  0  0  0  0
    5.1791    0.0653   19.4273 C   0  0  0  0  0  0  0  0  0  0  0  0
    5.8374   -0.1508   20.7797 C   0  0  0  0  0  0  0  0  0  0  0  0
   11.4277   -1.9915   22.6241 C   0  0  0  0  0  0  0  0  0  0  0  0
  1  2  1  0
  2  3  2  0
  3  4  1  0
  4  5  2  0
  5  6  1  0
  6  7  1  0
  7  8  1  0
  8  9  1  0
  9 10  1  0
 10 11  1  0
 11 12  1  0
 12 13  1  0
 13 14  1  0
 13 15  1  0
 15 16  1  0
  6 17  2  0
 17  2  1  0
 16 10  1  0
M  END
