CVD-0002413|dock_bobby27042020.6|mol2|5|dock2
     RDKit          3D

 26 29  0  0  0  0  0  0  0  0999 V2000
    7.6858   -6.0387   24.0249 F   0  0  0  0  0  0  0  0  0  0  0  0
    8.1315   -4.8495   23.5589 C   0  0  0  0  0  0  0  0  0  0  0  0
    7.3936   -4.1818   22.6186 C   0  0  0  0  0  0  0  0  0  0  0  0
    7.8350   -2.9482   22.1302 C   0  0  0  0  0  0  0  0  0  0  0  0
    9.0219   -2.3961   22.6432 C   0  0  0  0  0  0  0  0  0  0  0  0
    9.7711   -3.1139   23.5755 C   0  0  0  0  0  0  0  0  0  0  0  0
    9.3174   -4.3338   24.0357 C   0  0  0  0  0  0  0  0  0  0  0  0
   10.2483   -5.2037   25.2107 Cl  0  0  0  0  0  0  0  0  0  0  0  0
    9.4236   -1.1187   22.1803 N   0  0  0  0  0  0  0  0  0  0  0  0
   10.5975   -0.4678   22.7170 C   0  0  0  0  0  0  0  0  0  0  0  0
   10.4782    0.4868   23.7204 C   0  0  0  0  0  0  0  0  0  0  0  0
   11.6066    1.1052   24.2327 C   0  0  0  0  0  0  0  0  0  0  0  0
   12.8569    0.7797   23.7534 C   0  0  0  0  0  0  0  0  0  0  0  0
   12.9844   -0.1663   22.7596 C   0  0  0  0  0  0  0  0  0  0  0  0
   11.8627   -0.7909   22.2402 C   0  0  0  0  0  0  0  0  0  0  0  0
    8.7131   -0.4102   21.2110 C   0  0  0  0  0  0  0  0  0  0  0  0
    9.0801    0.6967   20.8475 O   0  0  0  0  0  0  0  0  0  0  0  0
    7.5558   -0.9990   20.6867 N   0  0  0  0  0  0  0  0  0  0  0  0
    6.8335   -0.2528   19.6765 C   0  0  0  0  0  0  0  0  0  0  0  0
    5.5029    0.1064   19.8477 C   0  0  0  0  0  0  0  0  0  0  0  0
    4.8592    0.8223   18.8539 C   0  0  0  0  0  0  0  0  0  0  0  0
    5.5657    1.1569   17.7217 C   0  0  0  0  0  0  0  0  0  0  0  0
    6.8434    0.8255   17.5335 N   0  0  0  0  0  0  0  0  0  0  0  0
    7.4556    0.1342   18.4999 C   0  0  0  0  0  0  0  0  0  0  0  0
    7.0666   -2.2509   21.0900 C   0  0  0  0  0  0  0  0  0  0  0  0
    5.7026   -2.9293   20.4227 S   0  0  0  0  0  0  0  0  0  0  0  0
  1  2  1  0
  2  3  2  0
  3  4  1  0
  4  5  2  0
  5  6  1  0
  6  7  2  0
  7  8  1  0
  5  9  1  0
  9 10  1  0
 10 11  2  0
 11 12  1  0
 12 13  2  0
 13 14  1  0
 14 15  2  0
  9 16  1  0
 16 17  2  0
 16 18  1  0
 18 19  1  0
 19 20  2  0
 20 21  1  0
 21 22  2  0
 22 23  1  0
 23 24  2  0
 18 25  1  0
 25 26  2  0
  7  2  1  0
 15 10  1  0
 24 19  1  0
 25  4  1  0
M  END
