CVD-0003015|dock_bobby27042020.3|mol2|29|dock3
     RDKit          3D

 22 24  0  0  0  0  0  0  0  0999 V2000
   14.6522    1.6774   22.5811 O   0  0  0  0  0  0  0  0  0  0  0  0
   13.5502    0.9396   22.2605 C   0  0  0  0  0  0  0  0  0  0  0  0
   12.3598    1.5683   21.9380 C   0  0  0  0  0  0  0  0  0  0  0  0
   11.2404    0.8169   21.6264 C   0  0  0  0  0  0  0  0  0  0  0  0
   11.2800   -0.5762   21.6245 C   0  0  0  0  0  0  0  0  0  0  0  0
   12.4952   -1.1875   21.9263 C   0  0  0  0  0  0  0  0  0  0  0  0
   13.6145   -0.4431   22.2542 C   0  0  0  0  0  0  0  0  0  0  0  0
   10.0625   -1.3442   21.2962 C   0  0  0  0  0  0  0  0  0  0  0  0
    9.4072   -0.7002   20.2756 O   0  0  0  0  0  0  0  0  0  0  0  0
    8.2373   -1.1681   19.7164 C   0  0  0  0  0  0  0  0  0  0  0  0
    7.6660   -0.4210   18.6870 C   0  0  0  0  0  0  0  0  0  0  0  0
    8.2146    0.7426   18.2259 O   0  0  0  0  0  0  0  0  0  0  0  0
    6.4868   -0.8827   18.1067 C   0  0  0  0  0  0  0  0  0  0  0  0
    5.9281   -0.1568   17.1036 O   0  0  0  0  0  0  0  0  0  0  0  0
    5.8897   -2.0547   18.5355 C   0  0  0  0  0  0  0  0  0  0  0  0
    6.4596   -2.7923   19.5597 C   0  0  0  0  0  0  0  0  0  0  0  0
    5.8264   -3.9338   19.9366 O   0  0  0  0  0  0  0  0  0  0  0  0
    7.6562   -2.3572   20.1777 C   0  0  0  0  0  0  0  0  0  0  0  0
    8.3130   -3.0778   21.2655 C   0  0  0  0  0  0  0  0  0  0  0  0
    7.8905   -4.1272   21.7391 O   0  0  0  0  0  0  0  0  0  0  0  0
    9.5338   -2.5011   21.8054 C   0  0  0  0  0  0  0  0  0  0  0  0
   10.0580   -3.1918   22.8233 O   0  0  0  0  0  0  0  0  0  0  0  0
  1  2  1  0
  2  3  2  0
  3  4  1  0
  4  5  2  0
  5  6  1  0
  6  7  2  0
  5  8  1  0
  8  9  1  0
  9 10  1  0
 10 11  2  0
 11 12  1  0
 11 13  1  0
 13 14  1  0
 13 15  2  0
 15 16  1  0
 16 17  1  0
 16 18  2  0
 18 19  1  0
 19 20  2  0
 19 21  1  0
 21 22  1  0
  7  2  1  0
 21  8  2  0
 18 10  1  0
M  END
