CVD-0003259|dock_bobby27042020.17|mol2|5|dock2
     RDKit          3D

 23 26  0  0  0  0  0  0  0  0999 V2000
   14.2584    0.7714   22.9983 O   0  0  0  0  0  0  0  0  0  0  0  0
   13.2134   -0.1008   22.5544 C   0  0  0  0  0  0  0  0  0  0  0  0
   11.8850    0.6032   22.6831 C   0  0  0  0  0  0  0  0  0  0  0  0
   10.7457   -0.3037   22.2316 C   0  0  0  0  0  0  0  0  0  0  0  0
   10.7604   -1.5874   23.0184 C   0  0  0  0  0  0  0  0  0  0  0  0
    9.6429   -2.5201   22.5437 C   0  0  0  0  0  0  0  0  0  0  0  0
    8.3299   -1.8352   22.2803 C   0  0  0  0  0  0  0  0  0  0  0  0
    7.3767   -1.6846   23.2376 C   0  0  0  0  0  0  0  0  0  0  0  0
    5.9740   -0.8621   22.6842 S   0  0  0  0  0  0  0  0  0  0  0  0
    6.6485   -0.6848   21.1080 C   0  0  0  0  0  0  0  0  0  0  0  0
    6.3186   -0.1292   19.8244 C   0  0  0  0  0  0  0  0  0  0  0  0
    5.0361    0.5728   19.4650 C   0  0  0  0  0  0  0  0  0  0  0  0
    4.3287    1.1665   20.6697 C   0  0  0  0  0  0  0  0  0  0  0  0
    3.0613    1.8584   20.3024 C   0  0  0  0  0  0  0  0  0  0  0  0
    1.8407    1.3750   20.4848 N   0  0  0  0  0  0  0  0  0  0  0  0
    0.9888    2.3372   19.9982 C   0  0  0  0  0  0  0  0  0  0  0  0
    1.6986    3.3859   19.5262 C   0  0  0  0  0  0  0  0  0  0  0  0
    3.0132    3.0703   19.7230 N   0  0  0  0  0  0  0  0  0  0  0  0
    7.4057   -0.3879   19.0149 C   0  0  0  0  0  0  0  0  0  0  0  0
    8.3514   -1.0522   19.7338 N   0  0  0  0  0  0  0  0  0  0  0  0
    7.9061   -1.2455   21.0230 C   0  0  0  0  0  0  0  0  0  0  0  0
   12.0887   -2.2914   22.8898 C   0  0  0  0  0  0  0  0  0  0  0  0
   13.2281   -1.3847   23.3412 C   0  0  0  0  0  0  0  0  0  0  0  0
  1  2  1  0
  2  3  1  0
  3  4  1  0
  4  5  1  0
  5  6  1  0
  6  7  1  0
  7  8  2  0
  8  9  1  0
  9 10  1  0
 10 11  1  0
 11 12  1  0
 12 13  1  0
 13 14  1  0
 14 15  2  0
 15 16  1  0
 16 17  2  0
 17 18  1  0
 11 19  2  0
 19 20  1  0
 20 21  1  0
  5 22  1  0
 22 23  1  0
 23  2  1  0
 21  7  1  0
 21 10  2  0
 18 14  1  0
M  END
