CVD-0001222|dock_bobby27042020.67|mol2|44|dock2
     RDKit          3D

 21 23  0  0  0  0  0  0  0  0999 V2000
    6.6946   -3.4389   21.1016 C   0  0  0  0  0  0  0  0  0  0  0  0
    6.7939   -2.3396   20.0753 C   0  0  0  0  0  0  0  0  0  0  0  0
    5.8042   -2.2497   19.1010 C   0  0  0  0  0  0  0  0  0  0  0  0
    5.8670   -1.2541   18.1522 C   0  0  0  0  0  0  0  0  0  0  0  0
    6.8418   -0.3504   18.1115 N   0  0  0  0  0  0  0  0  0  0  0  0
    7.7976   -0.4256   19.0430 C   0  0  0  0  0  0  0  0  0  0  0  0
    7.8342   -1.3907   20.0498 C   0  0  0  0  0  0  0  0  0  0  0  0
    8.8506   -1.4721   21.0424 N   0  0  0  0  0  0  0  0  0  0  0  0
    9.6137   -0.4987   21.5977 C   0  0  0  0  0  0  0  0  0  0  0  0
    9.5926    0.6934   21.3110 O   0  0  0  0  0  0  0  0  0  0  0  0
   10.5643   -1.0028   22.6662 C   0  0  0  0  0  0  0  0  0  0  0  0
    9.8837   -1.5664   23.8118 N   0  0  0  0  0  0  0  0  0  0  0  0
   10.0742   -2.7709   24.3602 C   0  0  0  0  0  0  0  0  0  0  0  0
   10.9288   -3.7595   24.0039 C   0  0  0  0  0  0  0  0  0  0  0  0
   10.7575   -4.8100   24.8718 N   0  0  0  0  0  0  0  0  0  0  0  0
    9.7897   -4.5189   25.8041 C   0  0  0  0  0  0  0  0  0  0  0  0
    9.2778   -5.2567   26.8658 C   0  0  0  0  0  0  0  0  0  0  0  0
    8.2853   -4.6865   27.6484 C   0  0  0  0  0  0  0  0  0  0  0  0
    7.8132   -3.4155   27.3829 C   0  0  0  0  0  0  0  0  0  0  0  0
    8.3201   -2.6763   26.3258 C   0  0  0  0  0  0  0  0  0  0  0  0
    9.3177   -3.2281   25.5256 C   0  0  0  0  0  0  0  0  0  0  0  0
  1  2  1  0
  2  3  2  0
  3  4  1  0
  4  5  2  0
  5  6  1  0
  6  7  2  0
  7  8  1  0
  8  9  1  0
  9 10  2  0
  9 11  1  0
 11 12  1  0
 12 13  1  0
 13 14  2  0
 14 15  1  0
 15 16  1  0
 16 17  2  0
 17 18  1  0
 18 19  2  0
 19 20  1  0
 20 21  2  0
  7  2  1  0
 21 13  1  0
 21 16  1  0
M  END
