CVD-0003527|dock_bobby27042020.73|mol2|30|dock2
     RDKit          3D

 25 26  0  0  0  0  0  0  0  0999 V2000
   11.1396   -1.5438   21.6460 C   0  0  0  0  0  0  0  0  0  0  0  0
   11.2563   -0.8014   22.9720 C   0  0  0  0  0  0  0  0  0  0  0  0
   12.5342   -1.1607   23.5947 N   0  0  0  0  0  0  0  0  0  0  0  0
   12.7504   -1.0779   24.9092 C   0  0  0  0  0  0  0  0  0  0  0  0
   11.9056   -0.6961   25.7131 O   0  0  0  0  0  0  0  0  0  0  0  0
   14.1409   -1.4873   25.3426 C   0  0  0  0  0  0  0  0  0  0  0  0
   14.4102   -3.2311   25.2265 Cl  0  0  0  0  0  0  0  0  0  0  0  0
   11.1645    0.7014   22.7718 C   0  0  0  0  0  0  0  0  0  0  0  0
   12.2549    1.5291   23.0326 C   0  0  0  0  0  0  0  0  0  0  0  0
   12.1557    2.8915   22.8397 C   0  0  0  0  0  0  0  0  0  0  0  0
   13.5356    3.9004   23.1720 Cl  0  0  0  0  0  0  0  0  0  0  0  0
   10.9894    3.4691   22.3908 C   0  0  0  0  0  0  0  0  0  0  0  0
    9.8990    2.6598   22.1297 C   0  0  0  0  0  0  0  0  0  0  0  0
    9.9833    1.2845   22.3164 C   0  0  0  0  0  0  0  0  0  0  0  0
    8.9025    0.4367   22.0720 O   0  0  0  0  0  0  0  0  0  0  0  0
    7.7022    0.8872   21.5187 C   0  0  0  0  0  0  0  0  0  0  0  0
    6.8604    1.7322   22.2236 C   0  0  0  0  0  0  0  0  0  0  0  0
    5.6808    2.1665   21.6426 C   0  0  0  0  0  0  0  0  0  0  0  0
    5.3375    1.7638   20.3633 C   0  0  0  0  0  0  0  0  0  0  0  0
    6.1894    0.9195   19.6706 C   0  0  0  0  0  0  0  0  0  0  0  0
    7.3753    0.4766   20.2363 C   0  0  0  0  0  0  0  0  0  0  0  0
    5.7688    0.4024   18.0339 S   0  0  0  0  0  0  0  0  0  0  0  0
    5.8301   -1.1964   17.9755 N   0  0  0  0  0  0  0  0  0  0  0  0
    4.4077    0.7826   17.8018 O   0  0  0  0  0  0  0  0  0  0  0  0
    6.7849    0.8976   17.1545 O   0  0  0  0  0  0  0  0  0  0  0  0
  1  2  1  0
  2  3  1  0
  3  4  1  0
  4  5  2  0
  4  6  1  0
  6  7  1  0
  2  8  1  0
  8  9  2  0
  9 10  1  0
 10 11  1  0
 10 12  2  0
 12 13  1  0
 13 14  2  0
 14 15  1  0
 15 16  1  0
 16 17  2  0
 17 18  1  0
 18 19  2  0
 19 20  1  0
 20 21  2  0
 20 22  1  0
 22 23  1  0
 22 24  2  0
 22 25  2  0
 14  8  1  0
 21 16  1  0
M  END
