CVD-0003828|dock_bobby27042020.29|mol2|34|dock2
     RDKit          3D

 25 27  0  0  0  0  0  0  0  0999 V2000
    5.8684   -1.3443   19.3608 C   0  0  0  0  0  0  0  0  0  0  0  0
    5.8230   -0.2136   20.2757 N   0  0  0  0  0  0  0  0  0  0  0  0
    6.9330   -0.0783   21.2394 C   0  0  0  0  0  0  0  0  0  0  0  0
    8.2686   -0.2087   20.5770 C   0  0  0  0  0  0  0  0  0  0  0  0
    9.4301    0.0097   21.5328 C   0  0  0  0  0  0  0  0  0  0  0  0
    9.2682    1.2707   22.2395 N   0  0  0  0  0  0  0  0  0  0  0  0
    8.0062    1.4119   22.9556 C   0  0  0  0  0  0  0  0  0  0  0  0
    6.8472    1.2490   21.9763 C   0  0  0  0  0  0  0  0  0  0  0  0
   10.3234    2.1609   22.4105 C   0  0  0  0  0  0  0  0  0  0  0  0
   10.1248    3.5370   22.3403 C   0  0  0  0  0  0  0  0  0  0  0  0
   11.1729    4.4257   22.5014 C   0  0  0  0  0  0  0  0  0  0  0  0
   12.4456    3.9452   22.7507 C   0  0  0  0  0  0  0  0  0  0  0  0
   12.6690    2.5830   22.8346 C   0  0  0  0  0  0  0  0  0  0  0  0
   11.6150    1.7044   22.6577 C   0  0  0  0  0  0  0  0  0  0  0  0
   13.7868    5.0743   22.9726 S   0  0  0  0  0  0  0  0  0  0  0  0
   14.1353    5.7327   21.5556 N   0  0  0  0  0  0  0  0  0  0  0  0
   14.9279    4.3088   23.3761 O   0  0  0  0  0  0  0  0  0  0  0  0
   13.3230    6.1268   23.8260 O   0  0  0  0  0  0  0  0  0  0  0  0
    4.7546    0.7195   20.0971 C   0  0  0  0  0  0  0  0  0  0  0  0
    3.8404    0.8821   21.1422 C   0  0  0  0  0  0  0  0  0  0  0  0
    2.7577    1.7320   20.9943 C   0  0  0  0  0  0  0  0  0  0  0  0
    2.5670    2.4191   19.8197 C   0  0  0  0  0  0  0  0  0  0  0  0
    3.4844    2.2828   18.7967 C   0  0  0  0  0  0  0  0  0  0  0  0
    4.6066    1.4659   18.9173 C   0  0  0  0  0  0  0  0  0  0  0  0
    5.5745    1.4840   17.7622 C   0  0  0  0  0  0  0  0  0  0  0  0
  1  2  1  0
  2  3  1  0
  3  4  1  0
  4  5  1  0
  5  6  1  0
  6  7  1  0
  7  8  1  0
  6  9  1  0
  9 10  2  0
 10 11  1  0
 11 12  2  0
 12 13  1  0
 13 14  2  0
 12 15  1  0
 15 16  1  0
 15 17  2  0
 15 18  2  0
  2 19  1  0
 19 20  2  0
 20 21  1  0
 21 22  2  0
 22 23  1  0
 23 24  2  0
 24 25  1  0
  8  3  1  0
 14  9  1  0
 24 19  1  0
M  END
