CVD-0001059|dock_bobby27042020.82|mol2|18|dock3
     RDKit          3D

 22 25  0  0  0  0  0  0  0  0999 V2000
    2.4887    2.6962   22.3644 Cl  0  0  0  0  0  0  0  0  0  0  0  0
    3.7026    2.0050   21.3246 C   0  0  0  0  0  0  0  0  0  0  0  0
    3.4767    1.9854   19.9642 C   0  0  0  0  0  0  0  0  0  0  0  0
    4.4126    1.4495   19.1324 C   0  0  0  0  0  0  0  0  0  0  0  0
    5.6141    0.9128   19.6495 C   0  0  0  0  0  0  0  0  0  0  0  0
    6.5415    0.3792   18.7962 N   0  0  0  0  0  0  0  0  0  0  0  0
    7.6370   -0.1072   19.2985 C   0  0  0  0  0  0  0  0  0  0  0  0
    8.6979   -0.7409   18.0794 Cl  0  0  0  0  0  0  0  0  0  0  0  0
    7.9712   -0.1403   20.6597 C   0  0  0  0  0  0  0  0  0  0  0  0
    7.0431    0.3943   21.5187 C   0  0  0  0  0  0  0  0  0  0  0  0
    5.8312    0.9401   21.0440 C   0  0  0  0  0  0  0  0  0  0  0  0
    4.8409    1.5030   21.8814 C   0  0  0  0  0  0  0  0  0  0  0  0
    9.1951   -0.6769   21.2910 C   0  0  0  0  0  0  0  0  0  0  0  0
    9.3556   -0.8732   22.5672 N   0  0  0  0  0  0  0  0  0  0  0  0
   10.6447   -1.3813   22.6921 C   0  0  0  0  0  0  0  0  0  0  0  0
   11.3820   -1.7819   23.8058 C   0  0  0  0  0  0  0  0  0  0  0  0
   12.6646   -2.2520   23.5930 C   0  0  0  0  0  0  0  0  0  0  0  0
   13.6908   -2.8042   25.0928 Br  0  0  0  0  0  0  0  0  0  0  0  0
   13.2300   -2.3363   22.3344 C   0  0  0  0  0  0  0  0  0  0  0  0
   12.4926   -1.9371   21.2342 C   0  0  0  0  0  0  0  0  0  0  0  0
   11.2069   -1.4652   21.4403 C   0  0  0  0  0  0  0  0  0  0  0  0
   10.2822   -1.0131   20.5211 O   0  0  0  0  0  0  0  0  0  0  0  0
  1  2  1  0
  2  3  2  0
  3  4  1  0
  4  5  2  0
  5  6  1  0
  6  7  2  0
  7  8  1  0
  7  9  1  0
  9 10  2  0
 10 11  1  0
 11 12  2  0
  9 13  1  0
 13 14  2  0
 14 15  1  0
 15 16  2  0
 16 17  1  0
 17 18  1  0
 17 19  2  0
 19 20  1  0
 20 21  2  0
 21 22  1  0
 12  2  1  0
 22 13  1  0
 11  5  1  0
 21 15  1  0
M  END
