CVD-0002252|dock_bobby27042020.78|mol2|9|dock2
     RDKit          3D

 43 48  0  0  0  0  0  0  0  0999 V2000
    7.4499    3.4943   22.4644 F   0  0  0  0  0  0  0  0  0  0  0  0
    8.6021    4.1736   22.6662 C   0  0  0  0  0  0  0  0  0  0  0  0
    8.4677    5.5026   22.9913 C   0  0  0  0  0  0  0  0  0  0  0  0
    9.6071    6.2586   23.1901 C   0  0  0  0  0  0  0  0  0  0  0  0
   10.8447    5.6712   23.0663 C   0  0  0  0  0  0  0  0  0  0  0  0
   10.9582    4.3275   22.7511 C   0  0  0  0  0  0  0  0  0  0  0  0
    9.8300    3.5309   22.5368 C   0  0  0  0  0  0  0  0  0  0  0  0
    9.9554    2.0852   22.2038 C   0  0  0  0  0  0  0  0  0  0  0  0
    9.0381    1.3218   21.5020 C   0  0  0  0  0  0  0  0  0  0  0  0
    9.4915   -0.0031   21.3824 C   0  0  0  0  0  0  0  0  0  0  0  0
    8.7513   -1.1188   20.6929 C   0  0  0  0  0  0  0  0  0  0  0  0
    8.8569   -2.3963   21.3714 N   0  0  0  0  0  0  0  0  0  0  0  0
    8.0762   -2.7503   22.4557 C   0  0  0  0  0  0  0  0  0  0  0  0
    8.1168   -1.9893   23.6170 C   0  0  0  0  0  0  0  0  0  0  0  0
    7.3464   -2.3478   24.7066 C   0  0  0  0  0  0  0  0  0  0  0  0
    6.5122   -3.4658   24.6873 C   0  0  0  0  0  0  0  0  0  0  0  0
    5.6634   -3.8653   25.8670 C   0  0  0  0  0  0  0  0  0  0  0  0
    4.3746   -4.4539   25.4016 C   0  0  0  0  0  0  0  0  0  0  0  0
    4.6160   -5.6306   24.5307 N   0  0  0  0  0  0  0  0  0  0  0  0
    5.6362   -5.5006   23.4735 C   0  0  0  0  0  0  0  0  0  0  0  0
    6.4777   -4.2213   23.5213 C   0  0  0  0  0  0  0  0  0  0  0  0
    7.2495   -3.8673   22.4213 C   0  0  0  0  0  0  0  0  0  0  0  0
    4.0065   -6.8289   24.6676 C   0  0  0  0  0  0  0  0  0  0  0  0
    4.2530   -7.7683   23.9216 O   0  0  0  0  0  0  0  0  0  0  0  0
    3.0001   -6.9758   25.7925 C   0  0  0  0  0  0  0  0  0  0  0  0
    1.6513   -5.8510   25.5866 Cl  0  0  0  0  0  0  0  0  0  0  0  0
    6.3657   -4.8271   26.8140 C   0  0  0  0  0  0  0  0  0  0  0  0
    7.4278   -5.6056   26.3759 C   0  0  0  0  0  0  0  0  0  0  0  0
    8.0683   -6.4791   27.2389 C   0  0  0  0  0  0  0  0  0  0  0  0
    7.6555   -6.5845   28.5498 C   0  0  0  0  0  0  0  0  0  0  0  0
    6.6026   -5.8165   28.9989 C   0  0  0  0  0  0  0  0  0  0  0  0
    5.9614   -4.9428   28.1367 C   0  0  0  0  0  0  0  0  0  0  0  0
   10.7180   -0.0666   22.0236 C   0  0  0  0  0  0  0  0  0  0  0  0
   11.0207    1.1935   22.5243 N   0  0  0  0  0  0  0  0  0  0  0  0
   12.4919    1.3864   23.3484 S   0  0  0  0  0  0  0  0  0  0  0  0
   13.4597    1.8437   22.3998 O   0  0  0  0  0  0  0  0  0  0  0  0
   12.1772    2.2142   24.4710 O   0  0  0  0  0  0  0  0  0  0  0  0
   12.9498   -0.1922   23.9777 C   0  0  0  0  0  0  0  0  0  0  0  0
   13.7142   -1.0561   23.2123 C   0  0  0  0  0  0  0  0  0  0  0  0
   14.0559   -2.2856   23.7484 C   0  0  0  0  0  0  0  0  0  0  0  0
   13.6239   -2.5981   25.0175 C   0  0  0  0  0  0  0  0  0  0  0  0
   12.8887   -1.7750   25.7666 N   0  0  0  0  0  0  0  0  0  0  0  0
   12.5626   -0.5896   25.2433 C   0  0  0  0  0  0  0  0  0  0  0  0
  1  2  1  0
  2  3  2  0
  3  4  1  0
  4  5  2  0
  5  6  1  0
  6  7  2  0
  7  8  1  0
  8  9  2  0
  9 10  1  0
 10 11  1  0
 11 12  1  0
 12 13  1  0
 13 14  2  0
 14 15  1  0
 15 16  2  0
 16 17  1  0
 17 18  1  0
 18 19  1  0
 19 20  1  0
 20 21  1  0
 21 22  2  0
 19 23  1  0
 23 24  2  0
 23 25  1  0
 25 26  1  0
 17 27  1  0
 27 28  2  0
 28 29  1  0
 29 30  2  0
 30 31  1  0
 31 32  2  0
 10 33  2  0
 33 34  1  0
 34 35  1  0
 35 36  2  0
 35 37  2  0
 35 38  1  0
 38 39  2  0
 39 40  1  0
 40 41  2  0
 41 42  1  0
 42 43  2  0
  7  2  1  0
 34  8  1  0
 43 38  1  0
 22 13  1  0
 32 27  1  0
 21 16  1  0
M  END
