CVD-0004004|dock_bobby27042020.72|mol2|8|dock2
     RDKit          3D

 24 26  0  0  0  0  0  0  0  0999 V2000
    9.7841   -5.9732   24.1352 N   0  0  0  0  0  0  0  0  0  0  0  0
    9.7825   -4.4053   24.4594 S   0  0  0  0  0  0  0  0  0  0  0  0
    8.9621   -4.2119   25.6172 O   0  0  0  0  0  0  0  0  0  0  0  0
   11.1493   -3.9795   24.4994 O   0  0  0  0  0  0  0  0  0  0  0  0
    9.0022   -3.5547   23.1128 C   0  0  0  0  0  0  0  0  0  0  0  0
    7.7661   -4.0547   22.7413 C   0  0  0  0  0  0  0  0  0  0  0  0
    7.0182   -3.4316   21.7611 C   0  0  0  0  0  0  0  0  0  0  0  0
    7.4877   -2.2871   21.1262 C   0  0  0  0  0  0  0  0  0  0  0  0
    8.7531   -1.8173   21.4749 C   0  0  0  0  0  0  0  0  0  0  0  0
    9.5445   -2.4445   22.4407 C   0  0  0  0  0  0  0  0  0  0  0  0
   10.9017   -1.8255   22.6376 C   0  0  0  0  0  0  0  0  0  0  0  0
   11.2608   -1.5064   23.7672 O   0  0  0  0  0  0  0  0  0  0  0  0
   11.7073   -1.6101   21.5796 N   0  0  0  0  0  0  0  0  0  0  0  0
   13.0507   -1.0745   21.7147 C   0  0  0  0  0  0  0  0  0  0  0  0
   14.1183   -1.5677   20.7425 C   0  0  0  0  0  0  0  0  0  0  0  0
   14.1571   -2.0204   22.1700 C   0  0  0  0  0  0  0  0  0  0  0  0
   13.1107    0.3390   22.1536 C   0  0  0  0  0  0  0  0  0  0  0  0
   13.1887    1.4040   22.5466 N   0  0  0  0  0  0  0  0  0  0  0  0
    6.7042   -1.6488   20.1725 N   0  0  0  0  0  0  0  0  0  0  0  0
    6.0501   -2.3469   19.0640 C   0  0  0  0  0  0  0  0  0  0  0  0
    6.1061   -1.5112   17.8087 C   0  0  0  0  0  0  0  0  0  0  0  0
    5.5798   -0.2152   18.0222 O   0  0  0  0  0  0  0  0  0  0  0  0
    6.3467    0.4632   19.0103 C   0  0  0  0  0  0  0  0  0  0  0  0
    6.2523   -0.2723   20.3332 C   0  0  0  0  0  0  0  0  0  0  0  0
  1  2  1  0
  2  3  2  0
  2  4  2  0
  2  5  1  0
  5  6  2  0
  6  7  1  0
  7  8  2  0
  8  9  1  0
  9 10  2  0
 10 11  1  0
 11 12  2  0
 11 13  1  0
 13 14  1  0
 14 15  1  0
 15 16  1  0
 14 17  1  0
 17 18  3  0
  8 19  1  0
 19 20  1  0
 20 21  1  0
 21 22  1  0
 22 23  1  0
 23 24  1  0
 10  5  1  0
 16 14  1  0
 24 19  1  0
M  END
