CVD-0002555|dock_bobby27042020.63|mol2|2|dock2
     RDKit          3D

 21 22  0  0  0  0  0  0  0  0999 V2000
    6.1286   -6.3557   22.2510 C   0  0  0  0  0  0  0  0  0  0  0  0
    6.5495   -4.9154   22.2342 C   0  0  0  0  0  0  0  0  0  0  0  0
    6.1601   -4.1353   21.3710 O   0  0  0  0  0  0  0  0  0  0  0  0
    7.3586   -4.5284   23.2223 N   0  0  0  0  0  0  0  0  0  0  0  0
    7.8395   -3.1604   23.3528 C   0  0  0  0  0  0  0  0  0  0  0  0
    8.8437   -2.8024   22.2754 C   0  0  0  0  0  0  0  0  0  0  0  0
    9.4735   -1.4376   22.5175 C   0  0  0  0  0  0  0  0  0  0  0  0
   10.4886   -1.0227   21.4711 C   0  0  0  0  0  0  0  0  0  0  0  0
   11.8921   -1.6463   21.6977 C   0  0  0  0  0  0  0  0  0  0  0  0
   12.3638   -1.2299   23.0791 C   0  0  0  0  0  0  0  0  0  0  0  0
   13.2610   -2.0177   23.8166 C   0  0  0  0  0  0  0  0  0  0  0  0
   13.7794   -3.1813   23.3160 O   0  0  0  0  0  0  0  0  0  0  0  0
   13.7755   -1.5565   25.0274 C   0  0  0  0  0  0  0  0  0  0  0  0
   14.7088   -2.3031   25.6739 O   0  0  0  0  0  0  0  0  0  0  0  0
   13.4088   -0.3137   25.5214 C   0  0  0  0  0  0  0  0  0  0  0  0
   12.5257    0.4665   24.8002 C   0  0  0  0  0  0  0  0  0  0  0  0
   11.9975    0.0265   23.5863 C   0  0  0  0  0  0  0  0  0  0  0  0
   10.9252    0.8434   22.9076 C   0  0  0  0  0  0  0  0  0  0  0  0
   11.3138    2.3152   22.8237 C   0  0  0  0  0  0  0  0  0  0  0  0
   12.6947    2.5353   22.3377 N   0  0  0  0  0  0  0  0  0  0  0  0
   10.6581    0.4060   21.5805 O   0  0  0  0  0  0  0  0  0  0  0  0
  1  2  1  0
  2  3  2  0
  2  4  1  0
  4  5  1  0
  5  6  1  0
  6  7  1  0
  7  8  1  0
  8  9  1  0
  9 10  1  0
 10 11  2  0
 11 12  1  0
 11 13  1  0
 13 14  1  0
 13 15  2  0
 15 16  1  0
 16 17  2  0
 17 18  1  0
 18 19  1  0
 19 20  1  0
 18 21  1  0
 21  8  1  0
 17 10  1  0
M  END
