CVD-0001325|dock_bobby27042020.24|mol2|18|dock1
     RDKit          3D

 21 22  0  0  0  0  0  0  0  0999 V2000
   14.7479   -1.8230   26.0975 Cl  0  0  0  0  0  0  0  0  0  0  0  0
   13.7423   -2.8844   25.1029 C   0  0  0  0  0  0  0  0  0  0  0  0
   13.4830   -2.3133   23.7263 C   0  0  0  0  0  0  0  0  0  0  0  0
   13.9430   -2.8478   22.7220 O   0  0  0  0  0  0  0  0  0  0  0  0
   12.7435   -1.2085   23.6800 N   0  0  0  0  0  0  0  0  0  0  0  0
   12.4333   -0.5618   22.4235 C   0  0  0  0  0  0  0  0  0  0  0  0
   11.1681   -1.1172   21.8062 C   0  0  0  0  0  0  0  0  0  0  0  0
   11.1098   -1.4398   20.6394 O   0  0  0  0  0  0  0  0  0  0  0  0
    9.9637   -1.2547   22.7388 C   0  0  0  0  0  0  0  0  0  0  0  0
    9.8558   -2.5729   23.5472 C   0  0  0  0  0  0  0  0  0  0  0  0
    8.4784   -3.1571   23.3329 C   0  0  0  0  0  0  0  0  0  0  0  0
    7.7682   -2.2939   22.2993 C   0  0  0  0  0  0  0  0  0  0  0  0
    8.6932   -1.1897   22.0035 N   0  0  0  0  0  0  0  0  0  0  0  0
    8.4763   -0.1935   21.1298 C   0  0  0  0  0  0  0  0  0  0  0  0
    9.2970    0.6856   20.9482 O   0  0  0  0  0  0  0  0  0  0  0  0
    7.1684   -0.1679   20.3643 C   0  0  0  0  0  0  0  0  0  0  0  0
    7.3812    0.3806   18.9725 C   0  0  0  0  0  0  0  0  0  0  0  0
    6.0589    0.4978   18.2216 C   0  0  0  0  0  0  0  0  0  0  0  0
    5.0644    1.3325   18.9857 C   0  0  0  0  0  0  0  0  0  0  0  0
    4.8627    0.8018   20.3854 C   0  0  0  0  0  0  0  0  0  0  0  0
    6.1800    0.6782   21.1389 C   0  0  0  0  0  0  0  0  0  0  0  0
  1  2  1  0
  2  3  1  0
  3  4  2  0
  3  5  1  0
  5  6  1  0
  6  7  1  0
  7  8  2  0
  7  9  1  0
  9 10  1  0
 10 11  1  0
 11 12  1  0
 12 13  1  0
 13 14  1  0
 14 15  2  0
 14 16  1  0
 16 17  1  0
 17 18  1  0
 18 19  1  0
 19 20  1  0
 20 21  1  0
 13  9  1  0
 21 16  1  0
M  END
