CVD-0000383|dock_bobby27042020.70|mol2|21|dock2
     RDKit          3D

 23 25  0  0  0  0  0  0  0  0999 V2000
    9.7369   -5.2689   27.3762 C   0  0  0  0  0  0  0  0  0  0  0  0
   10.0479   -4.7395   26.0609 N   0  0  0  0  0  0  0  0  0  0  0  0
    9.1238   -4.1954   25.2812 C   0  0  0  0  0  0  0  0  0  0  0  0
    7.9436   -4.0970   25.6062 O   0  0  0  0  0  0  0  0  0  0  0  0
    9.6280   -3.6950   23.9420 C   0  0  0  0  0  0  0  0  0  0  0  0
   10.5554   -2.4559   24.0516 C   0  0  0  0  0  0  0  0  0  0  0  0
   10.1488   -1.5084   22.9290 C   0  0  0  0  0  0  0  0  0  0  0  0
    9.2305   -2.3242   22.0203 C   0  0  0  0  0  0  0  0  0  0  0  0
    8.4941   -3.2482   23.0012 C   0  0  0  0  0  0  0  0  0  0  0  0
    7.7193   -4.3631   22.3492 C   0  0  0  0  0  0  0  0  0  0  0  0
    7.8271   -5.7367   22.7552 C   0  0  0  0  0  0  0  0  0  0  0  0
    7.0392   -6.5735   22.0330 C   0  0  0  0  0  0  0  0  0  0  0  0
    6.1431   -5.7447   20.8444 S   0  0  0  0  0  0  0  0  0  0  0  0
    6.8346   -4.2295   21.3179 C   0  0  0  0  0  0  0  0  0  0  0  0
    6.3652   -3.0766   20.5485 C   0  0  0  0  0  0  0  0  0  0  0  0
    6.0679   -1.9415   21.1857 N   0  0  0  0  0  0  0  0  0  0  0  0
    5.6418   -0.9121   20.4422 C   0  0  0  0  0  0  0  0  0  0  0  0
    5.5197   -1.0315   19.0643 C   0  0  0  0  0  0  0  0  0  0  0  0
    5.0880    0.0081   18.2858 N   0  0  0  0  0  0  0  0  0  0  0  0
    5.0814    1.3855   18.7288 C   0  0  0  0  0  0  0  0  0  0  0  0
    5.8548   -2.2495   18.5221 C   0  0  0  0  0  0  0  0  0  0  0  0
    5.7553   -2.4223   17.1954 F   0  0  0  0  0  0  0  0  0  0  0  0
    6.2717   -3.2677   19.2274 N   0  0  0  0  0  0  0  0  0  0  0  0
  1  2  1  0
  2  3  1  0
  3  4  2  0
  5  3  1  0
  5  6  1  0
  6  7  1  0
  7  8  1  0
  8  9  1  0
  9 10  1  0
 10 11  1  0
 11 12  2  0
 12 13  1  0
 13 14  1  0
 14 15  1  0
 15 16  2  0
 16 17  1  0
 17 18  2  0
 18 19  1  0
 19 20  1  0
 18 21  1  0
 21 22  1  0
 21 23  2  0
  9  5  1  0
 14 10  2  0
 23 15  1  0
M  END
