CVD-0001123|dock_bobby27042020.39|mol2|16|dock2
     RDKit          3D

 23 25  0  0  0  0  0  0  0  0999 V2000
   14.7216   -1.7181   25.6844 C   0  0  0  0  0  0  0  0  0  0  0  0
   13.5345   -2.4407   25.1165 C   0  0  0  0  0  0  0  0  0  0  0  0
   13.0254   -3.3654   25.7402 O   0  0  0  0  0  0  0  0  0  0  0  0
   13.0262   -2.0509   23.9159 N   0  0  0  0  0  0  0  0  0  0  0  0
   13.5736   -0.9820   23.0662 C   0  0  0  0  0  0  0  0  0  0  0  0
   12.7237    0.2806   23.1994 C   0  0  0  0  0  0  0  0  0  0  0  0
   11.2909   -0.1077   23.0104 C   0  0  0  0  0  0  0  0  0  0  0  0
   10.8264   -1.3806   23.1373 C   0  0  0  0  0  0  0  0  0  0  0  0
   11.7158   -2.5419   23.4752 C   0  0  0  0  0  0  0  0  0  0  0  0
    9.5055   -1.4522   22.7481 N   0  0  0  0  0  0  0  0  0  0  0  0
    9.1126   -0.1845   22.3601 C   0  0  0  0  0  0  0  0  0  0  0  0
    7.8385    0.2691   22.0016 C   0  0  0  0  0  0  0  0  0  0  0  0
    6.6515   -0.6637   21.8998 C   0  0  0  0  0  0  0  0  0  0  0  0
    6.4876   -1.2486   20.5087 C   0  0  0  0  0  0  0  0  0  0  0  0
    5.8298   -0.2864   19.6164 N   0  0  0  0  0  0  0  0  0  0  0  0
    6.5677    0.1816   18.2723 S   0  0  0  0  0  0  0  0  0  0  0  0
    5.5986    1.4477   17.5479 C   0  0  0  0  0  0  0  0  0  0  0  0
    6.5701   -0.9391   17.3835 O   0  0  0  0  0  0  0  0  0  0  0  0
    7.8223    0.7493   18.6589 O   0  0  0  0  0  0  0  0  0  0  0  0
    7.6777    1.6359   21.7929 C   0  0  0  0  0  0  0  0  0  0  0  0
    8.7418    2.5137   21.9354 C   0  0  0  0  0  0  0  0  0  0  0  0
    9.9998    2.0522   22.2911 C   0  0  0  0  0  0  0  0  0  0  0  0
   10.2075    0.6921   22.5099 C   0  0  0  0  0  0  0  0  0  0  0  0
  1  2  1  0
  2  3  2  0
  2  4  1  0
  4  5  1  0
  5  6  1  0
  6  7  1  0
  7  8  2  0
  8  9  1  0
  8 10  1  0
 10 11  1  0
 11 12  2  0
 12 13  1  0
 13 14  1  0
 14 15  1  0
 15 16  1  0
 16 17  1  0
 16 18  2  0
 16 19  2  0
 12 20  1  0
 20 21  2  0
 21 22  1  0
 22 23  2  0
  9  4  1  0
 23 11  1  0
 23  7  1  0
M  END
