CVD-0000562|dock_bobby27042020.98|mol2|12|dock1
     RDKit          3D

 24 26  0  0  0  0  0  0  0  0999 V2000
   14.0810    6.4025   22.0358 C   0  0  0  0  0  0  0  0  0  0  0  0
   13.3306    5.1153   22.1525 C   0  0  0  0  0  0  0  0  0  0  0  0
   13.7456    3.8254   22.3465 C   0  0  0  0  0  0  0  0  0  0  0  0
   12.5877    3.0539   22.3697 C   0  0  0  0  0  0  0  0  0  0  0  0
   11.4924    3.8037   22.2006 N   0  0  0  0  0  0  0  0  0  0  0  0
   11.9886    5.0646   22.0705 N   0  0  0  0  0  0  0  0  0  0  0  0
   12.4895    1.6408   22.5457 C   0  0  0  0  0  0  0  0  0  0  0  0
   12.3456    0.4571   22.6477 C   0  0  0  0  0  0  0  0  0  0  0  0
   12.0807   -0.9854   22.7175 C   0  0  0  0  0  0  0  0  0  0  0  0
   11.0262   -1.4372   21.6752 C   0  0  0  0  0  0  0  0  0  0  0  0
    9.7843   -0.5811   21.5244 C   0  0  0  0  0  0  0  0  0  0  0  0
    9.3936    0.1631   22.4172 O   0  0  0  0  0  0  0  0  0  0  0  0
    9.1785   -0.7336   20.3217 N   0  0  0  0  0  0  0  0  0  0  0  0
    8.0149   -0.1340   19.7791 C   0  0  0  0  0  0  0  0  0  0  0  0
    6.9942    0.4187   20.5460 C   0  0  0  0  0  0  0  0  0  0  0  0
    5.8993    0.9802   19.9118 C   0  0  0  0  0  0  0  0  0  0  0  0
    5.8534    0.9747   18.5368 C   0  0  0  0  0  0  0  0  0  0  0  0
    6.8154    0.4530   17.7759 N   0  0  0  0  0  0  0  0  0  0  0  0
    7.8678   -0.0865   18.3975 C   0  0  0  0  0  0  0  0  0  0  0  0
   11.4406   -1.2033   24.0860 C   0  0  0  0  0  0  0  0  0  0  0  0
   12.4391   -0.9590   25.1998 C   0  0  0  0  0  0  0  0  0  0  0  0
   13.6717   -1.8361   25.0423 C   0  0  0  0  0  0  0  0  0  0  0  0
   14.3103   -1.6346   23.6777 C   0  0  0  0  0  0  0  0  0  0  0  0
   13.3106   -1.8669   22.5520 C   0  0  0  0  0  0  0  0  0  0  0  0
  1  2  1  0
  2  3  2  0
  3  4  1  0
  4  5  2  0
  5  6  1  0
  4  7  1  0
  7  8  3  0
  8  9  1  0
  9 10  1  0
 10 11  1  0
 11 12  2  0
 11 13  1  0
 13 14  1  0
 14 15  2  0
 15 16  1  0
 16 17  2  0
 17 18  1  0
 18 19  2  0
  9 20  1  0
 20 21  1  0
 21 22  1  0
 22 23  1  0
 23 24  1  0
  6  2  1  0
 24  9  1  0
 19 14  1  0
M  END
