CVD-0003460|dock_bobby27042020.30|mol2|46|dock2
     RDKit          3D

 20 21  0  0  0  0  0  0  0  0999 V2000
    3.5817    1.9638   20.0724 C   0  0  0  0  0  0  0  0  0  0  0  0
    4.9521    1.8753   20.5486 N   0  0  0  0  0  0  0  0  0  0  0  0
    5.2639    2.7009   21.7034 C   0  0  0  0  0  0  0  0  0  0  0  0
    5.9207    1.1824   19.8612 C   0  0  0  0  0  0  0  0  0  0  0  0
    5.8836    1.0684   18.4792 C   0  0  0  0  0  0  0  0  0  0  0  0
    6.8113    0.4106   17.7785 N   0  0  0  0  0  0  0  0  0  0  0  0
    7.7762   -0.1393   18.4637 C   0  0  0  0  0  0  0  0  0  0  0  0
    8.6784   -0.7844   17.7087 F   0  0  0  0  0  0  0  0  0  0  0  0
    7.9617   -0.1296   19.8293 C   0  0  0  0  0  0  0  0  0  0  0  0
    9.0713   -0.7828   20.4252 N   0  0  0  0  0  0  0  0  0  0  0  0
    9.5052   -0.7849   21.7091 C   0  0  0  0  0  0  0  0  0  0  0  0
    8.9815   -0.1841   22.6414 O   0  0  0  0  0  0  0  0  0  0  0  0
   10.7426   -1.6284   21.9235 C   0  0  0  0  0  0  0  0  0  0  0  0
   11.3460   -1.4851   23.3243 C   0  0  0  0  0  0  0  0  0  0  0  0
   12.4207   -2.5615   23.5809 C   0  0  0  0  0  0  0  0  0  0  0  0
   13.0931   -2.4007   24.9430 C   0  0  0  0  0  0  0  0  0  0  0  0
   13.6600   -0.9980   25.1197 C   0  0  0  0  0  0  0  0  0  0  0  0
   12.5885    0.0596   24.8966 C   0  0  0  0  0  0  0  0  0  0  0  0
   11.9499   -0.0838   23.5189 C   0  0  0  0  0  0  0  0  0  0  0  0
    6.9768    0.5657   20.5305 C   0  0  0  0  0  0  0  0  0  0  0  0
  1  2  1  0
  2  3  1  0
  2  4  1  0
  4  5  2  0
  5  6  1  0
  6  7  2  0
  7  8  1  0
  7  9  1  0
  9 10  1  0
 10 11  1  0
 11 12  2  0
 11 13  1  0
 13 14  1  0
 14 15  1  0
 15 16  1  0
 16 17  1  0
 17 18  1  0
 18 19  1  0
  9 20  2  0
 20  4  1  0
 19 14  1  0
M  END
