CVD-0001928|dock_bobby27042020.93|mol2|31|dock3
     RDKit          3D

 21 22  0  0  0  0  0  0  0  0999 V2000
    5.6188    0.6421   18.3550 C   0  0  0  0  0  0  0  0  0  0  0  0
    5.5795    0.2591   19.8164 C   0  0  0  0  0  0  0  0  0  0  0  0
    6.2707   -1.0502   20.0886 C   0  0  0  0  0  0  0  0  0  0  0  0
    6.2891   -1.3640   21.5185 N   0  0  0  0  0  0  0  0  0  0  0  0
    7.1034   -2.5355   21.8471 C   0  0  0  0  0  0  0  0  0  0  0  0
    8.5516   -2.1702   22.1067 C   0  0  0  0  0  0  0  0  0  0  0  0
    8.7331   -1.5015   23.4625 C   0  0  0  0  0  0  0  0  0  0  0  0
   10.0397   -0.7506   23.6253 C   0  0  0  0  0  0  0  0  0  0  0  0
    9.9794    0.6513   23.0819 C   0  0  0  0  0  0  0  0  0  0  0  0
   11.3388    1.2417   22.8108 C   0  0  0  0  0  0  0  0  0  0  0  0
   11.4867    2.5948   22.4662 C   0  0  0  0  0  0  0  0  0  0  0  0
   10.4198    3.4502   22.4079 O   0  0  0  0  0  0  0  0  0  0  0  0
   12.7568    3.1387   22.2741 C   0  0  0  0  0  0  0  0  0  0  0  0
   12.8738    4.4640   22.0003 O   0  0  0  0  0  0  0  0  0  0  0  0
   13.8881    2.3491   22.4212 C   0  0  0  0  0  0  0  0  0  0  0  0
   13.7399    1.0176   22.7604 C   0  0  0  0  0  0  0  0  0  0  0  0
   12.4759    0.4597   22.9558 C   0  0  0  0  0  0  0  0  0  0  0  0
   12.3571   -1.0207   23.2375 C   0  0  0  0  0  0  0  0  0  0  0  0
   13.3480   -1.8686   22.4524 C   0  0  0  0  0  0  0  0  0  0  0  0
   13.5557   -1.3763   21.0724 N   0  0  0  0  0  0  0  0  0  0  0  0
   11.0462   -1.5064   22.9354 O   0  0  0  0  0  0  0  0  0  0  0  0
  1  2  1  0
  2  3  1  0
  3  4  1  0
  4  5  1  0
  5  6  1  0
  6  7  1  0
  7  8  1  0
  8  9  1  0
  9 10  1  0
 10 11  2  0
 11 12  1  0
 11 13  1  0
 13 14  1  0
 13 15  2  0
 15 16  1  0
 16 17  2  0
 17 18  1  0
 18 19  1  0
 19 20  1  0
 18 21  1  0
 21  8  1  0
 17 10  1  0
M  END
