CVD-0000945|dock_bobby27042020.54|mol2|18|dock2
     RDKit          3D

 17 18  0  0  0  0  0  0  0  0999 V2000
    5.3013   -1.0509   18.8785 O   0  0  0  0  0  0  0  0  0  0  0  0
    5.5878   -2.3000   19.1372 C   0  0  0  0  0  0  0  0  0  0  0  0
    5.0293   -3.2125   18.5567 O   0  0  0  0  0  0  0  0  0  0  0  0
    6.6270   -2.5561   20.1730 C   0  0  0  0  0  0  0  0  0  0  0  0
    7.5363   -1.5646   20.4041 C   0  0  0  0  0  0  0  0  0  0  0  0
    8.5208   -1.6514   21.2988 N   0  0  0  0  0  0  0  0  0  0  0  0
    8.6976   -2.7719   22.0733 C   0  0  0  0  0  0  0  0  0  0  0  0
    9.7206   -2.8699   23.0073 C   0  0  0  0  0  0  0  0  0  0  0  0
   10.5690   -1.8371   23.1630 F   0  0  0  0  0  0  0  0  0  0  0  0
    9.8831   -3.9990   23.7741 C   0  0  0  0  0  0  0  0  0  0  0  0
   10.8795   -4.0785   24.6750 F   0  0  0  0  0  0  0  0  0  0  0  0
    9.0128   -5.0487   23.6091 C   0  0  0  0  0  0  0  0  0  0  0  0
    9.1730   -6.1597   24.3640 F   0  0  0  0  0  0  0  0  0  0  0  0
    7.9897   -4.9935   22.6986 C   0  0  0  0  0  0  0  0  0  0  0  0
    7.8151   -3.8523   21.9146 C   0  0  0  0  0  0  0  0  0  0  0  0
    6.7141   -3.7839   20.9300 C   0  0  0  0  0  0  0  0  0  0  0  0
    5.9524   -4.7372   20.8045 O   0  0  0  0  0  0  0  0  0  0  0  0
  1  2  1  0
  2  3  2  0
  2  4  1  0
  4  5  2  0
  5  6  1  0
  6  7  1  0
  7  8  2  0
  8  9  1  0
  8 10  1  0
 10 11  1  0
 10 12  2  0
 12 13  1  0
 12 14  1  0
 14 15  2  0
 15 16  1  0
 16 17  2  0
 16  4  1  0
 15  7  1  0
M  END
