CVD-0000013|dock_bobby27042020.85|mol2|44|dock1
     RDKit          3D

 21 22  0  0  0  0  0  0  0  0999 V2000
   13.9148   -1.1685   24.9529 C   0  0  0  0  0  0  0  0  0  0  0  0
   12.9846   -2.0724   24.2707 N   0  0  0  0  0  0  0  0  0  0  0  0
   11.8190   -1.3709   23.7336 C   0  0  0  0  0  0  0  0  0  0  0  0
   10.9383   -2.3122   22.9595 C   0  0  0  0  0  0  0  0  0  0  0  0
    9.7923   -1.5762   22.5311 O   0  0  0  0  0  0  0  0  0  0  0  0
    8.7948   -2.3606   21.8777 C   0  0  0  0  0  0  0  0  0  0  0  0
    7.7128   -1.4577   21.2807 C   0  0  0  0  0  0  0  0  0  0  0  0
    6.6987   -1.2190   21.9298 O   0  0  0  0  0  0  0  0  0  0  0  0
    7.9959   -0.9910   20.0398 N   0  0  0  0  0  0  0  0  0  0  0  0
    7.2553   -0.1444   19.1785 C   0  0  0  0  0  0  0  0  0  0  0  0
    5.9588    0.2859   19.4415 C   0  0  0  0  0  0  0  0  0  0  0  0
    5.3234    1.1136   18.5319 C   0  0  0  0  0  0  0  0  0  0  0  0
    5.9961    1.4868   17.3909 C   0  0  0  0  0  0  0  0  0  0  0  0
    7.2378    1.0904   17.1124 N   0  0  0  0  0  0  0  0  0  0  0  0
    7.8425    0.2917   17.9964 C   0  0  0  0  0  0  0  0  0  0  0  0
    8.1730   -3.3108   22.8764 C   0  0  0  0  0  0  0  0  0  0  0  0
    7.8971   -2.8962   24.1717 C   0  0  0  0  0  0  0  0  0  0  0  0
    7.3246   -3.7660   25.0847 C   0  0  0  0  0  0  0  0  0  0  0  0
    7.0209   -5.0585   24.7134 C   0  0  0  0  0  0  0  0  0  0  0  0
    7.2887   -5.4825   23.4293 C   0  0  0  0  0  0  0  0  0  0  0  0
    7.8612   -4.6140   22.5150 C   0  0  0  0  0  0  0  0  0  0  0  0
  1  2  1  0
  2  3  1  0
  3  4  1  0
  4  5  1  0
  5  6  1  0
  6  7  1  0
  7  8  2  0
  7  9  1  0
  9 10  1  0
 10 11  2  0
 11 12  1  0
 12 13  2  0
 13 14  1  0
 14 15  2  0
  6 16  1  0
 16 17  2  0
 17 18  1  0
 18 19  2  0
 19 20  1  0
 20 21  2  0
 15 10  1  0
 21 16  1  0
M  END
