CVD-0000589|dock_bobby27042020.12|mol2|29|dock3
     RDKit          3D

 23 25  0  0  0  0  0  0  0  0999 V2000
   10.1222   -0.0720   22.5543 O   0  0  0  0  0  0  0  0  0  0  0  0
   10.8372    1.0859   22.6625 C   0  0  0  0  0  0  0  0  0  0  0  0
   10.2311    2.3530   22.4818 C   0  0  0  0  0  0  0  0  0  0  0  0
   11.0315    3.4914   22.4175 C   0  0  0  0  0  0  0  0  0  0  0  0
   12.3893    3.3826   22.6216 C   0  0  0  0  0  0  0  0  0  0  0  0
   13.3791    4.8122   22.5269 Cl  0  0  0  0  0  0  0  0  0  0  0  0
   12.9840    2.1710   22.9033 C   0  0  0  0  0  0  0  0  0  0  0  0
   12.2144    1.0064   22.9405 C   0  0  0  0  0  0  0  0  0  0  0  0
   12.9320   -0.2623   23.2707 C   0  0  0  0  0  0  0  0  0  0  0  0
   13.4908   -0.4327   24.5342 C   0  0  0  0  0  0  0  0  0  0  0  0
   14.1624   -1.5964   24.8698 C   0  0  0  0  0  0  0  0  0  0  0  0
   14.2883   -2.6143   23.9501 C   0  0  0  0  0  0  0  0  0  0  0  0
   13.7389   -2.4690   22.6951 C   0  0  0  0  0  0  0  0  0  0  0  0
   13.0650   -1.3068   22.3586 C   0  0  0  0  0  0  0  0  0  0  0  0
    8.7502    2.5839   22.3506 C   0  0  0  0  0  0  0  0  0  0  0  0
    8.2352    3.4343   23.0688 O   0  0  0  0  0  0  0  0  0  0  0  0
    8.0649    1.8228   21.4556 N   0  0  0  0  0  0  0  0  0  0  0  0
    6.6866    1.7936   21.1223 C   0  0  0  0  0  0  0  0  0  0  0  0
    6.1676    0.6370   20.5543 C   0  0  0  0  0  0  0  0  0  0  0  0
    4.8261    0.5767   20.2208 C   0  0  0  0  0  0  0  0  0  0  0  0
    4.0375    1.6765   20.4650 C   0  0  0  0  0  0  0  0  0  0  0  0
    4.5035    2.8013   21.0072 N   0  0  0  0  0  0  0  0  0  0  0  0
    5.8014    2.8513   21.3232 C   0  0  0  0  0  0  0  0  0  0  0  0
  1  2  1  0
  2  3  2  0
  3  4  1  0
  4  5  2  0
  5  6  1  0
  5  7  1  0
  7  8  2  0
  8  9  1  0
  9 10  2  0
 10 11  1  0
 11 12  2  0
 12 13  1  0
 13 14  2  0
  3 15  1  0
 15 16  2  0
 15 17  1  0
 17 18  1  0
 18 19  2  0
 19 20  1  0
 20 21  2  0
 21 22  1  0
 22 23  2  0
  8  2  1  0
 14  9  1  0
 23 18  1  0
M  END
