CVD-0003670|dock_bobby27042020.44|mol2|34|dock3
     RDKit          3D

 20 21  0  0  0  0  0  0  0  0999 V2000
    7.0376   -3.0368   22.4614 C   0  0  0  0  0  0  0  0  0  0  0  0
    7.7386   -1.8239   22.0706 N   0  0  0  0  0  0  0  0  0  0  0  0
    8.9627   -1.4959   22.8291 C   0  0  0  0  0  0  0  0  0  0  0  0
   10.1742   -2.2102   22.2429 C   0  0  0  0  0  0  0  0  0  0  0  0
   11.4308   -1.8380   23.0025 C   0  0  0  0  0  0  0  0  0  0  0  0
   11.6201   -0.3901   22.9743 N   0  0  0  0  0  0  0  0  0  0  0  0
   10.5065    0.3359   23.5754 C   0  0  0  0  0  0  0  0  0  0  0  0
    9.2126    0.0104   22.8368 C   0  0  0  0  0  0  0  0  0  0  0  0
   12.7828    0.2492   22.7065 C   0  0  0  0  0  0  0  0  0  0  0  0
   12.8490    1.4720   22.6893 O   0  0  0  0  0  0  0  0  0  0  0  0
   14.0197   -0.5850   22.4329 C   0  0  0  0  0  0  0  0  0  0  0  0
   13.9339   -1.4157   20.8741 Cl  0  0  0  0  0  0  0  0  0  0  0  0
    7.2101   -1.0600   21.0700 C   0  0  0  0  0  0  0  0  0  0  0  0
    5.9168   -0.5431   21.0832 C   0  0  0  0  0  0  0  0  0  0  0  0
    5.5081    0.2188   20.0025 C   0  0  0  0  0  0  0  0  0  0  0  0
    6.3738    0.4527   18.9417 C   0  0  0  0  0  0  0  0  0  0  0  0
    7.6430   -0.1069   19.0226 C   0  0  0  0  0  0  0  0  0  0  0  0
    8.0554   -0.8450   20.0578 N   0  0  0  0  0  0  0  0  0  0  0  0
    5.9722    1.2430   17.8043 C   0  0  0  0  0  0  0  0  0  0  0  0
    5.6856    1.8681   16.8922 N   0  0  0  0  0  0  0  0  0  0  0  0
  1  2  1  0
  2  3  1  0
  3  4  1  0
  4  5  1  0
  5  6  1  0
  6  7  1  0
  7  8  1  0
  6  9  1  0
  9 10  2  0
  9 11  1  0
 11 12  1  0
  2 13  1  0
 13 14  2  0
 14 15  1  0
 15 16  2  0
 16 17  1  0
 17 18  2  0
 16 19  1  0
 19 20  3  0
  8  3  1  0
 18 13  1  0
M  END
