CVD-0002928|dock_bobby27042020.32|mol2|34|dock2
     RDKit          3D

 17 18  0  0  0  0  0  0  0  0999 V2000
   13.7425    5.0597   21.7837 Cl  0  0  0  0  0  0  0  0  0  0  0  0
   12.8217    4.9302   23.2879 C   0  0  0  0  0  0  0  0  0  0  0  0
   11.7076    3.9197   23.2122 C   0  0  0  0  0  0  0  0  0  0  0  0
   10.5312    4.1948   23.3149 O   0  0  0  0  0  0  0  0  0  0  0  0
   12.1901    2.5044   22.9966 C   0  0  0  0  0  0  0  0  0  0  0  0
   11.1486    1.4121   23.2444 C   0  0  0  0  0  0  0  0  0  0  0  0
   10.0174    1.5433   22.2203 C   0  0  0  0  0  0  0  0  0  0  0  0
   10.1064    0.3188   21.4536 N   0  0  0  0  0  0  0  0  0  0  0  0
   11.0815   -0.5034   21.8318 C   0  0  0  0  0  0  0  0  0  0  0  0
   11.4119   -1.5601   21.3069 O   0  0  0  0  0  0  0  0  0  0  0  0
   11.6809    0.0720   22.9670 N   0  0  0  0  0  0  0  0  0  0  0  0
   12.6386   -0.5089   23.8672 C   0  0  0  0  0  0  0  0  0  0  0  0
   13.5914   -1.3861   23.3622 C   0  0  0  0  0  0  0  0  0  0  0  0
   14.5152   -1.9717   24.2092 C   0  0  0  0  0  0  0  0  0  0  0  0
   14.4557   -1.6770   25.5499 C   0  0  0  0  0  0  0  0  0  0  0  0
   13.5553   -0.8430   26.0665 N   0  0  0  0  0  0  0  0  0  0  0  0
   12.6917   -0.2560   25.2316 C   0  0  0  0  0  0  0  0  0  0  0  0
  1  2  1  0
  2  3  1  0
  3  4  2  0
  3  5  1  0
  5  6  1  0
  6  7  1  0
  7  8  1  0
  8  9  1  0
  9 10  2  0
  9 11  1  0
 11 12  1  0
 12 13  2  0
 13 14  1  0
 14 15  2  0
 15 16  1  0
 16 17  2  0
 11  6  1  0
 17 12  1  0
M  END
