CVD-0002553|dock_bobby27042020.91|mol2|7|dock3
     RDKit          3D

 32 33  0  0  0  0  0  0  0  0999 V2000
   14.8766    1.1840   22.4241 O   0  0  0  0  0  0  0  0  0  0  0  0
   13.7889    0.3604   22.4387 C   0  0  0  0  0  0  0  0  0  0  0  0
   13.6657   -0.6472   21.4957 C   0  0  0  0  0  0  0  0  0  0  0  0
   12.5604   -1.4790   21.5166 C   0  0  0  0  0  0  0  0  0  0  0  0
   11.5656   -1.3250   22.4695 C   0  0  0  0  0  0  0  0  0  0  0  0
   10.3607   -2.2344   22.4838 C   0  0  0  0  0  0  0  0  0  0  0  0
    9.0165   -1.5036   22.3301 C   0  0  0  0  0  0  0  0  0  0  0  0
    8.8226   -1.1104   20.9441 N   0  0  0  0  0  0  0  0  0  0  0  0
    7.7814   -0.3668   20.5638 C   0  0  0  0  0  0  0  0  0  0  0  0
    6.9258    0.0317   21.3480 O   0  0  0  0  0  0  0  0  0  0  0  0
    7.7186   -0.0499   19.0822 C   0  0  0  0  0  0  0  0  0  0  0  0
    6.0608    0.1616   18.4741 S   0  0  0  0  0  0  0  0  0  0  0  0
    6.1592    0.5184   17.0907 O   0  0  0  0  0  0  0  0  0  0  0  0
    5.3135   -1.0009   18.8491 O   0  0  0  0  0  0  0  0  0  0  0  0
    5.4132    1.4167   19.2412 N   0  0  0  0  0  0  0  0  0  0  0  0
    4.0350    1.8606   18.9991 C   0  0  0  0  0  0  0  0  0  0  0  0
    3.4464    2.4868   20.2505 C   0  0  0  0  0  0  0  0  0  0  0  0
    2.0274    2.9628   20.0533 C   0  0  0  0  0  0  0  0  0  0  0  0
    1.7537    4.0730   19.2693 C   0  0  0  0  0  0  0  0  0  0  0  0
    0.4525    4.5119   19.0907 C   0  0  0  0  0  0  0  0  0  0  0  0
   -0.5918    3.8460   19.6952 C   0  0  0  0  0  0  0  0  0  0  0  0
   -0.3342    2.7415   20.4784 C   0  0  0  0  0  0  0  0  0  0  0  0
    0.9674    2.3034   20.6563 C   0  0  0  0  0  0  0  0  0  0  0  0
    7.8624   -2.3871   22.7987 C   0  0  0  0  0  0  0  0  0  0  0  0
    7.0630   -2.8408   21.9841 O   0  0  0  0  0  0  0  0  0  0  0  0
    7.7709   -2.6254   24.1072 N   0  0  0  0  0  0  0  0  0  0  0  0
    6.7033   -3.4493   24.6586 C   0  0  0  0  0  0  0  0  0  0  0  0
    7.1285   -4.2100   25.8396 C   0  0  0  0  0  0  0  0  0  0  0  0
    7.5260   -4.8003   26.7882 C   0  0  0  0  0  0  0  0  0  0  0  0
    8.1385   -5.6418   28.2579 Br  0  0  0  0  0  0  0  0  0  0  0  0
   11.7018   -0.3119   23.4058 C   0  0  0  0  0  0  0  0  0  0  0  0
   12.8018    0.5272   23.3966 C   0  0  0  0  0  0  0  0  0  0  0  0
  1  2  1  0
  2  3  2  0
  3  4  1  0
  4  5  2  0
  5  6  1  0
  6  7  1  0
  7  8  1  0
  8  9  1  0
  9 10  2  0
  9 11  1  0
 11 12  1  0
 12 13  2  0
 12 14  2  0
 12 15  1  0
 15 16  1  0
 16 17  1  0
 17 18  1  0
 18 19  2  0
 19 20  1  0
 20 21  2  0
 21 22  1  0
 22 23  2  0
  7 24  1  0
 24 25  2  0
 24 26  1  0
 26 27  1  0
 27 28  1  0
 28 29  3  0
 29 30  1  0
  5 31  1  0
 31 32  2  0
 32  2  1  0
 23 18  1  0
M  END
