CVD-0001690|dock_bobby27042020.51|mol2|36|dock3
     RDKit          3D

 14 14  0  0  0  0  0  0  0  0999 V2000
   13.4312    5.4560   22.1293 C   0  0  0  0  0  0  0  0  0  0  0  0
   12.5249    4.3256   22.2158 N   0  0  0  0  0  0  0  0  0  0  0  0
   12.9692    3.0884   22.4915 C   0  0  0  0  0  0  0  0  0  0  0  0
   14.1584    2.8490   22.6839 O   0  0  0  0  0  0  0  0  0  0  0  0
   12.0174    2.1310   22.5416 N   0  0  0  0  0  0  0  0  0  0  0  0
   12.3797    0.7624   22.7461 C   0  0  0  0  0  0  0  0  0  0  0  0
   12.7345    0.3566   24.1662 C   0  0  0  0  0  0  0  0  0  0  0  0
   13.0215   -1.1294   24.1545 C   0  0  0  0  0  0  0  0  0  0  0  0
   11.8942   -1.8494   23.6382 O   0  0  0  0  0  0  0  0  0  0  0  0
   11.4901   -1.4408   22.3426 C   0  0  0  0  0  0  0  0  0  0  0  0
   12.4177   -1.8290   21.3472 N   0  0  0  0  0  0  0  0  0  0  0  0
   10.1319   -2.0824   22.1276 C   0  0  0  0  0  0  0  0  0  0  0  0
    9.4091   -1.4416   21.0858 O   0  0  0  0  0  0  0  0  0  0  0  0
   11.2602   -0.0280   22.3062 O   0  0  0  0  0  0  0  0  0  0  0  0
  1  2  1  0
  2  3  1  0
  3  4  2  0
  3  5  1  0
  6  5  1  0
  6  7  1  0
  7  8  1  0
  8  9  1  0
  9 10  1  0
 10 11  1  0
 10 12  1  0
 12 13  1  0
 10 14  1  0
 14  6  1  0
M  END
