CVD-0003645|dock_bobby27042020.44|mol2|38|dock1
     RDKit          3D

 31 34  0  0  0  0  0  0  0  0999 V2000
   12.5131    6.7891   24.2642 O   0  0  0  0  0  0  0  0  0  0  0  0
   13.0015    6.0427   23.4183 N   0  0  0  0  0  0  0  0  0  0  0  0
   14.0544    6.2589   22.8424 O   0  0  0  0  0  0  0  0  0  0  0  0
   12.2723    4.8134   23.0794 C   0  0  0  0  0  0  0  0  0  0  0  0
   12.9757    3.6734   22.7367 C   0  0  0  0  0  0  0  0  0  0  0  0
   12.2947    2.5292   22.3676 C   0  0  0  0  0  0  0  0  0  0  0  0
   10.9023    2.5202   22.3367 C   0  0  0  0  0  0  0  0  0  0  0  0
   10.1873    3.6494   22.7950 C   0  0  0  0  0  0  0  0  0  0  0  0
   10.8880    4.8100   23.1114 C   0  0  0  0  0  0  0  0  0  0  0  0
    8.7423    3.6748   22.9745 N   0  0  0  0  0  0  0  0  0  0  0  0
    8.1557    2.5957   23.0288 O   0  0  0  0  0  0  0  0  0  0  0  0
    8.1485    4.7382   23.0022 O   0  0  0  0  0  0  0  0  0  0  0  0
   10.3144    1.3154   21.8252 N   0  0  0  0  0  0  0  0  0  0  0  0
    9.1982    1.4900   21.0236 N   0  0  0  0  0  0  0  0  0  0  0  0
    8.8455    0.2594   20.6388 C   0  0  0  0  0  0  0  0  0  0  0  0
    9.6984   -0.7032   21.1981 C   0  0  0  0  0  0  0  0  0  0  0  0
   10.6206   -0.0208   21.9667 C   0  0  0  0  0  0  0  0  0  0  0  0
   11.7024   -0.6392   22.7643 C   0  0  0  0  0  0  0  0  0  0  0  0
   12.2997   -1.8060   22.2993 C   0  0  0  0  0  0  0  0  0  0  0  0
   13.3334   -2.4085   22.9938 C   0  0  0  0  0  0  0  0  0  0  0  0
   13.7734   -1.8400   24.1680 C   0  0  0  0  0  0  0  0  0  0  0  0
   15.0877   -2.5805   25.0378 Cl  0  0  0  0  0  0  0  0  0  0  0  0
   13.1905   -0.6965   24.6666 C   0  0  0  0  0  0  0  0  0  0  0  0
   12.1471   -0.1100   23.9725 C   0  0  0  0  0  0  0  0  0  0  0  0
    7.6922    0.0610   19.7470 C   0  0  0  0  0  0  0  0  0  0  0  0
    7.5894   -1.0838   18.9648 C   0  0  0  0  0  0  0  0  0  0  0  0
    6.5069   -1.2751   18.1247 C   0  0  0  0  0  0  0  0  0  0  0  0
    5.5385   -0.3095   18.0818 C   0  0  0  0  0  0  0  0  0  0  0  0
    4.4721   -0.4929   17.2573 F   0  0  0  0  0  0  0  0  0  0  0  0
    5.5968    0.8329   18.8328 C   0  0  0  0  0  0  0  0  0  0  0  0
    6.6833    1.0146   19.6697 C   0  0  0  0  0  0  0  0  0  0  0  0
  1  2  1  0
  2  3  2  0
  2  4  1  0
  4  5  2  0
  5  6  1  0
  6  7  2  0
  7  8  1  0
  8  9  2  0
  8 10  1  0
 10 11  1  0
 10 12  2  0
  7 13  1  0
 13 14  1  0
 14 15  2  0
 15 16  1  0
 16 17  2  0
 17 18  1  0
 18 19  2  0
 19 20  1  0
 20 21  2  0
 21 22  1  0
 21 23  1  0
 23 24  2  0
 15 25  1  0
 25 26  2  0
 26 27  1  0
 27 28  2  0
 28 29  1  0
 28 30  1  0
 30 31  2  0
  9  4  1  0
 17 13  1  0
 24 18  1  0
 31 25  1  0
M  CHG  4   1  -1   2   1  10   1  11  -1
M  END
