CVD-0001766|dock_bobby27042020.66|mol2|11|dock1
     RDKit          3D

 23 25  0  0  0  0  0  0  0  0999 V2000
    9.2797   -0.9306   21.7602 O   0  0  0  0  0  0  0  0  0  0  0  0
    9.3384    0.2904   21.8002 C   0  0  0  0  0  0  0  0  0  0  0  0
    8.5367    1.0763   21.0005 N   0  0  0  0  0  0  0  0  0  0  0  0
    7.5546    0.7128   20.0407 C   0  0  0  0  0  0  0  0  0  0  0  0
    6.4344    1.5265   19.9249 C   0  0  0  0  0  0  0  0  0  0  0  0
    5.4484    1.2196   19.0042 C   0  0  0  0  0  0  0  0  0  0  0  0
    5.6072    0.1028   18.2184 C   0  0  0  0  0  0  0  0  0  0  0  0
    6.6670   -0.7003   18.3028 N   0  0  0  0  0  0  0  0  0  0  0  0
    7.6128   -0.3971   19.1975 C   0  0  0  0  0  0  0  0  0  0  0  0
   10.2580    0.8901   22.6750 N   0  0  0  0  0  0  0  0  0  0  0  0
   11.1060    0.0328   23.5216 C   0  0  0  0  0  0  0  0  0  0  0  0
   12.2004   -0.6542   22.7197 C   0  0  0  0  0  0  0  0  0  0  0  0
   12.8007   -1.8906   23.3871 C   0  0  0  0  0  0  0  0  0  0  0  0
   14.0370   -2.1925   22.3461 C   0  0  0  0  0  0  0  0  0  0  0  0
   14.2433   -2.2632   23.8160 C   0  0  0  0  0  0  0  0  0  0  0  0
   10.4374    2.3097   22.8558 C   0  0  0  0  0  0  0  0  0  0  0  0
    9.3830    3.0862   23.3293 C   0  0  0  0  0  0  0  0  0  0  0  0
    9.5277    4.4524   23.5049 C   0  0  0  0  0  0  0  0  0  0  0  0
   10.7267    5.0735   23.2078 C   0  0  0  0  0  0  0  0  0  0  0  0
   11.7910    4.3141   22.7396 C   0  0  0  0  0  0  0  0  0  0  0  0
   11.6494    2.9385   22.5732 C   0  0  0  0  0  0  0  0  0  0  0  0
   13.0486    4.9459   22.4251 C   0  0  0  0  0  0  0  0  0  0  0  0
   14.0323    5.4754   22.1864 N   0  0  0  0  0  0  0  0  0  0  0  0
  1  2  2  0
  2  3  1  0
  3  4  1  0
  4  5  2  0
  5  6  1  0
  6  7  2  0
  7  8  1  0
  8  9  2  0
  2 10  1  0
 10 11  1  0
 11 12  1  0
 12 13  1  0
 13 14  1  0
 14 15  1  0
 10 16  1  0
 16 17  2  0
 17 18  1  0
 18 19  2  0
 19 20  1  0
 20 21  2  0
 20 22  1  0
 22 23  3  0
  9  4  1  0
 15 13  1  0
 21 16  1  0
M  END
