CVD-0002368|dock_bobby27042020.34|mol2|32|dock3
     RDKit          3D

 38 42  0  0  0  0  0  0  0  0999 V2000
    4.9342    1.1095   19.2310 C   0  0  0  0  0  0  0  0  0  0  0  0
    5.5808    0.0508   18.4511 N   0  0  0  0  0  0  0  0  0  0  0  0
    6.9100   -0.3352   18.9366 C   0  0  0  0  0  0  0  0  0  0  0  0
    6.8825   -0.7134   20.3942 C   0  0  0  0  0  0  0  0  0  0  0  0
    7.6302   -0.0863   21.4086 C   0  0  0  0  0  0  0  0  0  0  0  0
    7.3555   -0.6890   22.6203 C   0  0  0  0  0  0  0  0  0  0  0  0
    7.9037   -0.3584   23.9623 C   0  0  0  0  0  0  0  0  0  0  0  0
    7.0496   -0.0910   25.0204 C   0  0  0  0  0  0  0  0  0  0  0  0
    5.7246   -0.0304   24.7547 F   0  0  0  0  0  0  0  0  0  0  0  0
    7.4615    0.1059   26.3143 C   0  0  0  0  0  0  0  0  0  0  0  0
    8.8147    0.0329   26.5862 C   0  0  0  0  0  0  0  0  0  0  0  0
    9.7290   -0.1700   25.5663 C   0  0  0  0  0  0  0  0  0  0  0  0
    9.2912   -0.3045   24.2487 C   0  0  0  0  0  0  0  0  0  0  0  0
   10.2519   -0.3645   23.1830 N   0  0  0  0  0  0  0  0  0  0  0  0
   10.2996   -1.5270   22.2646 C   0  0  0  0  0  0  0  0  0  0  0  0
   11.5154   -2.2082   22.3295 C   0  0  0  0  0  0  0  0  0  0  0  0
   12.7510   -1.5509   22.6890 C   0  0  0  0  0  0  0  0  0  0  0  0
   12.6192   -0.0609   22.8038 C   0  0  0  0  0  0  0  0  0  0  0  0
   13.7080    0.7752   22.5768 C   0  0  0  0  0  0  0  0  0  0  0  0
   13.5791    2.1498   22.5901 C   0  0  0  0  0  0  0  0  0  0  0  0
   12.3327    2.6982   22.8363 C   0  0  0  0  0  0  0  0  0  0  0  0
   11.2263    1.8932   23.0667 C   0  0  0  0  0  0  0  0  0  0  0  0
   11.3712    0.5073   23.0503 C   0  0  0  0  0  0  0  0  0  0  0  0
   12.1543    4.4534   22.9388 S   0  0  0  0  0  0  0  0  0  0  0  0
   10.6032    4.8159   22.7785 N   0  0  0  0  0  0  0  0  0  0  0  0
   12.8397    5.0194   21.8160 O   0  0  0  0  0  0  0  0  0  0  0  0
   12.5468    4.8468   24.2589 O   0  0  0  0  0  0  0  0  0  0  0  0
    6.4075   -1.7107   22.3583 N   0  0  0  0  0  0  0  0  0  0  0  0
    6.1261   -1.7105   20.9971 C   0  0  0  0  0  0  0  0  0  0  0  0
    5.6344   -2.7912   23.4159 S   0  0  0  0  0  0  0  0  0  0  0  0
    6.1368   -2.5492   24.7322 O   0  0  0  0  0  0  0  0  0  0  0  0
    4.2372   -2.6266   23.1599 O   0  0  0  0  0  0  0  0  0  0  0  0
    6.0661   -4.4368   22.9577 C   0  0  0  0  0  0  0  0  0  0  0  0
    7.3894   -4.8357   23.0473 C   0  0  0  0  0  0  0  0  0  0  0  0
    7.7187   -6.1346   22.7017 C   0  0  0  0  0  0  0  0  0  0  0  0
    6.7193   -6.9796   22.2769 C   0  0  0  0  0  0  0  0  0  0  0  0
    5.4419   -6.6107   22.1793 N   0  0  0  0  0  0  0  0  0  0  0  0
    5.1311   -5.3557   22.5174 C   0  0  0  0  0  0  0  0  0  0  0  0
  1  2  1  0
  2  3  1  0
  3  4  1  0
  4  5  1  0
  5  6  2  0
  6  7  1  0
  7  8  2  0
  8  9  1  0
  8 10  1  0
 10 11  2  0
 11 12  1  0
 12 13  2  0
 13 14  1  0
 14 15  1  0
 15 16  1  0
 16 17  1  0
 17 18  1  0
 18 19  2  0
 19 20  1  0
 20 21  2  0
 21 22  1  0
 22 23  2  0
 21 24  1  0
 24 25  1  0
 24 26  2  0
 24 27  2  0
  6 28  1  0
 28 29  1  0
 28 30  1  0
 30 31  2  0
 30 32  2  0
 30 33  1  0
 33 34  2  0
 34 35  1  0
 35 36  2  0
 36 37  1  0
 37 38  2  0
 29  4  2  0
 38 33  1  0
 13  7  1  0
 23 14  1  0
 23 18  1  0
M  END
