CVD-0003744|dock_bobby27042020.30|mol2|3|dock1
     RDKit          3D

 24 27  0  0  0  0  0  0  0  0999 V2000
    4.4636    1.9579   21.1425 C   0  0  0  0  0  0  0  0  0  0  0  0
    5.2402    1.2338   20.0747 C   0  0  0  0  0  0  0  0  0  0  0  0
    4.7462    1.1164   18.7759 C   0  0  0  0  0  0  0  0  0  0  0  0
    5.4793    0.4427   17.8147 C   0  0  0  0  0  0  0  0  0  0  0  0
    6.6706   -0.1263   18.0469 N   0  0  0  0  0  0  0  0  0  0  0  0
    7.1277   -0.0035   19.3040 C   0  0  0  0  0  0  0  0  0  0  0  0
    8.2970   -0.4764   19.8292 N   0  0  0  0  0  0  0  0  0  0  0  0
    8.3063   -0.1020   21.1291 C   0  0  0  0  0  0  0  0  0  0  0  0
    7.2394    0.5792   21.5014 N   0  0  0  0  0  0  0  0  0  0  0  0
    6.4831    0.6447   20.3387 C   0  0  0  0  0  0  0  0  0  0  0  0
    9.4590   -0.4445   22.0670 C   0  0  0  0  0  0  0  0  0  0  0  0
   10.4676   -1.4431   21.5005 C   0  0  0  0  0  0  0  0  0  0  0  0
   11.6037   -1.6922   22.4768 C   0  0  0  0  0  0  0  0  0  0  0  0
   11.0893   -2.1462   23.8274 C   0  0  0  0  0  0  0  0  0  0  0  0
   10.0941   -1.1492   24.3978 C   0  0  0  0  0  0  0  0  0  0  0  0
    8.9478   -0.8972   23.4307 C   0  0  0  0  0  0  0  0  0  0  0  0
   10.1041    0.8689   22.1772 C   0  0  0  0  0  0  0  0  0  0  0  0
   10.6757    1.9106   22.2338 C   0  0  0  0  0  0  0  0  0  0  0  0
   11.3684    3.1835   22.2320 C   0  0  0  0  0  0  0  0  0  0  0  0
   10.5335    4.2733   22.9353 C   0  0  0  0  0  0  0  0  0  0  0  0
   11.2680    5.6104   23.0138 C   0  0  0  0  0  0  0  0  0  0  0  0
   12.6363    5.4540   23.6646 C   0  0  0  0  0  0  0  0  0  0  0  0
   13.4683    4.4003   22.9477 C   0  0  0  0  0  0  0  0  0  0  0  0
   12.7442    3.0584   22.9084 C   0  0  0  0  0  0  0  0  0  0  0  0
  1  2  1  0
  2  3  2  0
  3  4  1  0
  4  5  2  0
  5  6  1  0
  6  7  1  0
  7  8  1  0
  8  9  2  0
  9 10  1  0
  8 11  1  0
 11 12  1  0
 12 13  1  0
 13 14  1  0
 14 15  1  0
 15 16  1  0
 11 17  1  0
 17 18  3  0
 18 19  1  0
 19 20  1  0
 20 21  1  0
 21 22  1  0
 22 23  1  0
 23 24  1  0
 10  2  1  0
 16 11  1  0
 24 19  1  0
 10  6  2  0
M  END
