CVD-0003475|dock_bobby27042020.16|mol2|28|dock2
     RDKit          3D

 26 28  0  0  0  0  0  0  0  0999 V2000
   10.3699   -5.2000   25.6930 C   0  0  0  0  0  0  0  0  0  0  0  0
    9.6446   -3.9885   25.3472 N   0  0  0  0  0  0  0  0  0  0  0  0
    8.4674   -3.7435   26.1730 C   0  0  0  0  0  0  0  0  0  0  0  0
    7.7800   -4.9971   26.6147 C   0  0  0  0  0  0  0  0  0  0  0  0
    7.5449   -5.4386   27.9209 C   0  0  0  0  0  0  0  0  0  0  0  0
    6.9017   -6.6050   27.7942 C   0  0  0  0  0  0  0  0  0  0  0  0
    6.3553   -7.6078   28.7567 C   0  0  0  0  0  0  0  0  0  0  0  0
    6.7379   -6.8876   26.4878 O   0  0  0  0  0  0  0  0  0  0  0  0
    7.3135   -5.8338   25.7361 N   0  0  0  0  0  0  0  0  0  0  0  0
   10.1258   -3.2603   24.2777 C   0  0  0  0  0  0  0  0  0  0  0  0
   10.8983   -3.8695   23.5549 O   0  0  0  0  0  0  0  0  0  0  0  0
    9.8152   -1.9595   23.9802 N   0  0  0  0  0  0  0  0  0  0  0  0
    9.2355   -0.9849   24.9098 C   0  0  0  0  0  0  0  0  0  0  0  0
   10.0699    0.2794   24.9517 C   0  0  0  0  0  0  0  0  0  0  0  0
   10.3069    0.8647   23.5612 C   0  0  0  0  0  0  0  0  0  0  0  0
   10.8192   -0.2208   22.6232 C   0  0  0  0  0  0  0  0  0  0  0  0
    9.9354   -1.4484   22.6195 C   0  0  0  0  0  0  0  0  0  0  0  0
   11.1954    2.0269   23.5799 N   0  0  0  0  0  0  0  0  0  0  0  0
   11.3264    2.8373   22.5198 C   0  0  0  0  0  0  0  0  0  0  0  0
   10.6981    2.6290   21.4861 O   0  0  0  0  0  0  0  0  0  0  0  0
   12.2526    4.0176   22.5915 C   0  0  0  0  0  0  0  0  0  0  0  0
   13.1961    4.3044   21.6071 C   0  0  0  0  0  0  0  0  0  0  0  0
   14.0253    5.4076   21.7267 C   0  0  0  0  0  0  0  0  0  0  0  0
   13.9284    6.2381   22.8219 C   0  0  0  0  0  0  0  0  0  0  0  0
   13.0000    5.9677   23.8031 C   0  0  0  0  0  0  0  0  0  0  0  0
   12.1681    4.8666   23.6901 C   0  0  0  0  0  0  0  0  0  0  0  0
  1  2  1  0
  2  3  1  0
  3  4  1  0
  4  5  1  0
  5  6  2  0
  6  7  1  0
  6  8  1  0
  8  9  1  0
  2 10  1  0
 10 11  2  0
 10 12  1  0
 12 13  1  0
 13 14  1  0
 14 15  1  0
 15 16  1  0
 16 17  1  0
 15 18  1  0
 18 19  1  0
 19 20  2  0
 19 21  1  0
 21 22  2  0
 22 23  1  0
 23 24  2  0
 24 25  1  0
 25 26  2  0
  9  4  2  0
 17 12  1  0
 26 21  1  0
M  END
