CVD-0002349|dock_bobby27042020.49|mol2|12|dock1
     RDKit          3D

 15 15  0  0  0  0  0  0  0  0999 V2000
   12.8770   -0.1756   24.8975 C   0  0  0  0  0  0  0  0  0  0  0  0
   12.5139   -0.3033   23.4860 N   0  0  0  0  0  0  0  0  0  0  0  0
   11.9935   -1.6441   23.2018 C   0  0  0  0  0  0  0  0  0  0  0  0
   11.8208   -1.8870   21.7401 C   0  0  0  0  0  0  0  0  0  0  0  0
   12.8687   -1.9615   21.0531 N   0  0  0  0  0  0  0  0  0  0  0  0
   10.6312   -2.0108   21.1934 N   0  0  0  0  0  0  0  0  0  0  0  0
   11.5180    0.7098   23.1137 C   0  0  0  0  0  0  0  0  0  0  0  0
   12.1164    2.0704   22.8483 C   0  0  0  0  0  0  0  0  0  0  0  0
   11.3231    3.2030   22.7669 C   0  0  0  0  0  0  0  0  0  0  0  0
   11.8927    4.4381   22.5196 C   0  0  0  0  0  0  0  0  0  0  0  0
   13.2731    4.4975   22.3574 C   0  0  0  0  0  0  0  0  0  0  0  0
   14.0698    3.4144   22.4298 N   0  0  0  0  0  0  0  0  0  0  0  0
   13.4771    2.2389   22.6706 C   0  0  0  0  0  0  0  0  0  0  0  0
   13.9303    5.7632   22.0963 C   0  0  0  0  0  0  0  0  0  0  0  0
   14.4196    6.7782   21.9086 N   0  0  0  0  0  0  0  0  0  0  0  0
  1  2  1  0
  2  3  1  0
  3  4  1  0
  4  5  1  0
  4  6  2  0
  2  7  1  0
  7  8  1  0
  8  9  2  0
  9 10  1  0
 10 11  2  0
 11 12  1  0
 12 13  2  0
 11 14  1  0
 14 15  3  0
 13  8  1  0
M  END
