CVD-0000776|dock_bobby27042020.55|mol2|1|dock1
     RDKit          3D

 32 35  0  0  0  0  0  0  0  0999 V2000
   14.4256   -3.3540   25.3272 Cl  0  0  0  0  0  0  0  0  0  0  0  0
   13.6678   -1.7840   25.0279 C   0  0  0  0  0  0  0  0  0  0  0  0
   12.4904   -1.9286   24.0797 C   0  0  0  0  0  0  0  0  0  0  0  0
   12.0263   -3.0387   23.8511 O   0  0  0  0  0  0  0  0  0  0  0  0
   11.9804   -0.8162   23.4999 N   0  0  0  0  0  0  0  0  0  0  0  0
   10.8291   -0.8659   22.5650 C   0  0  0  0  0  0  0  0  0  0  0  0
    9.7747    0.1137   22.9592 C   0  0  0  0  0  0  0  0  0  0  0  0
   10.3532    1.5054   23.0015 C   0  0  0  0  0  0  0  0  0  0  0  0
    9.5996    2.6286   22.6538 C   0  0  0  0  0  0  0  0  0  0  0  0
   10.1304    3.9056   22.7000 C   0  0  0  0  0  0  0  0  0  0  0  0
   11.4360    4.0867   23.0980 C   0  0  0  0  0  0  0  0  0  0  0  0
   12.2011    2.9891   23.4470 C   0  0  0  0  0  0  0  0  0  0  0  0
   11.6735    1.7026   23.4027 C   0  0  0  0  0  0  0  0  0  0  0  0
   12.5372    0.5112   23.8277 C   0  0  0  0  0  0  0  0  0  0  0  0
    9.1480   -0.2931   24.2905 C   0  0  0  0  0  0  0  0  0  0  0  0
    9.6950    0.1256   25.5014 C   0  0  0  0  0  0  0  0  0  0  0  0
    9.1164   -0.2663   26.7039 C   0  0  0  0  0  0  0  0  0  0  0  0
    7.9886   -1.0768   26.6480 C   0  0  0  0  0  0  0  0  0  0  0  0
    7.4398   -1.4895   25.5004 N   0  0  0  0  0  0  0  0  0  0  0  0
    7.9994   -1.1072   24.3412 C   0  0  0  0  0  0  0  0  0  0  0  0
    7.3314   -1.5996   23.0792 C   0  0  0  0  0  0  0  0  0  0  0  0
    6.8136   -0.5071   22.2688 N   0  0  0  0  0  0  0  0  0  0  0  0
    6.7207   -0.6452   20.9336 C   0  0  0  0  0  0  0  0  0  0  0  0
    7.0518   -1.7033   20.4121 O   0  0  0  0  0  0  0  0  0  0  0  0
    6.2603    0.3805   20.1547 N   0  0  0  0  0  0  0  0  0  0  0  0
    5.4683    1.4937   20.6907 C   0  0  0  0  0  0  0  0  0  0  0  0
    4.2759    1.7571   19.7938 C   0  0  0  0  0  0  0  0  0  0  0  0
    4.6642    1.9993   18.4566 O   0  0  0  0  0  0  0  0  0  0  0  0
    5.3690    0.8714   17.9371 C   0  0  0  0  0  0  0  0  0  0  0  0
    6.6138    0.5818   18.7462 C   0  0  0  0  0  0  0  0  0  0  0  0
    9.6729    0.1574   27.9650 C   0  0  0  0  0  0  0  0  0  0  0  0
   10.1091    0.4623   28.9759 N   0  0  0  0  0  0  0  0  0  0  0  0
  1  2  1  0
  2  3  1  0
  3  4  2  0
  3  5  1  0
  5  6  1  0
  6  7  1  0
  7  8  1  0
  8  9  2  0
  9 10  1  0
 10 11  2  0
 11 12  1  0
 12 13  2  0
 13 14  1  0
  7 15  1  0
 15 16  2  0
 16 17  1  0
 17 18  2  0
 18 19  1  0
 19 20  2  0
 20 21  1  0
 21 22  1  0
 22 23  1  0
 23 24  2  0
 23 25  1  0
 25 26  1  0
 26 27  1  0
 27 28  1  0
 28 29  1  0
 29 30  1  0
 17 31  1  0
 31 32  3  0
 14  5  1  0
 20 15  1  0
 30 25  1  0
 13  8  1  0
M  END
