CVD-0000469|dock_bobby27042020.41|mol2|23|dock1
     RDKit          3D

 27 29  0  0  0  0  0  0  0  0999 V2000
    6.5867   -2.2722   23.8117 N   0  0  0  0  0  0  0  0  0  0  0  0
    6.8459   -1.9600   22.5008 C   0  0  0  0  0  0  0  0  0  0  0  0
    5.5369   -1.8249   21.7504 C   0  0  0  0  0  0  0  0  0  0  0  0
    5.7760   -1.2969   20.3144 C   0  0  0  0  0  0  0  0  0  0  0  0
    5.1181   -1.7386   19.3976 O   0  0  0  0  0  0  0  0  0  0  0  0
    6.8569   -0.2267   20.0990 C   0  0  0  0  0  0  0  0  0  0  0  0
    8.0687   -0.6060   20.9597 C   0  0  0  0  0  0  0  0  0  0  0  0
    7.6730   -0.7811   22.3408 N   0  0  0  0  0  0  0  0  0  0  0  0
    8.7223   -0.5195   23.3129 C   0  0  0  0  0  0  0  0  0  0  0  0
   10.0218   -0.7758   22.7120 N   0  0  0  0  0  0  0  0  0  0  0  0
   10.3993   -2.1988   22.7057 C   0  0  0  0  0  0  0  0  0  0  0  0
   11.4220   -2.4864   23.7822 C   0  0  0  0  0  0  0  0  0  0  0  0
   12.7345   -1.7802   23.4465 C   0  0  0  0  0  0  0  0  0  0  0  0
   12.4357   -0.4894   22.6732 C   0  0  0  0  0  0  0  0  0  0  0  0
   13.5498    0.5154   22.7346 C   0  0  0  0  0  0  0  0  0  0  0  0
   13.3354    1.8264   22.6990 C   0  0  0  0  0  0  0  0  0  0  0  0
   12.0060    2.3138   22.6177 C   0  0  0  0  0  0  0  0  0  0  0  0
   10.9502    1.5335   22.8421 C   0  0  0  0  0  0  0  0  0  0  0  0
   11.1119    0.0854   23.2108 C   0  0  0  0  0  0  0  0  0  0  0  0
   11.7632    4.0336   22.2223 S   0  0  0  0  0  0  0  0  0  0  0  0
   12.9243    4.8831   22.8832 N   0  0  0  0  0  0  0  0  0  0  0  0
   11.9013    4.1469   20.8072 O   0  0  0  0  0  0  0  0  0  0  0  0
   10.5401    4.4230   22.8441 O   0  0  0  0  0  0  0  0  0  0  0  0
    7.2985   -0.1576   18.3658 S   0  0  0  0  0  0  0  0  0  0  0  0
    8.0082   -1.5346   17.9267 N   0  0  0  0  0  0  0  0  0  0  0  0
    6.0759   -0.0589   17.6248 O   0  0  0  0  0  0  0  0  0  0  0  0
    8.2730    0.8831   18.2211 O   0  0  0  0  0  0  0  0  0  0  0  0
  1  2  1  0
  2  3  1  0
  3  4  1  0
  4  5  2  0
  4  6  1  0
  6  7  1  0
  7  8  1  0
  8  9  1  0
  9 10  1  0
 10 11  1  0
 11 12  1  0
 12 13  1  0
 13 14  1  0
 14 15  1  0
 15 16  2  0
 16 17  1  0
 17 18  2  0
 18 19  1  0
 17 20  1  0
 20 21  1  0
 20 22  2  0
 20 23  2  0
  6 24  1  0
 24 25  1  0
 24 26  2  0
 24 27  2  0
  8  2  1  0
 19 10  1  0
 19 14  1  0
M  END
