CVD-0001499|dock_bobby27042020.9|mol2|30|dock1
     RDKit          3D

 23 24  0  0  0  0  0  0  0  0999 V2000
    1.8734    2.9276   19.3138 O   0  0  0  0  0  0  0  0  0  0  0  0
    1.6451    2.2641   20.4213 C   0  0  0  0  0  0  0  0  0  0  0  0
    0.5764    1.7566   20.6813 O   0  0  0  0  0  0  0  0  0  0  0  0
    2.8428    2.1984   21.3248 C   0  0  0  0  0  0  0  0  0  0  0  0
    3.8969    1.1750   20.9250 C   0  0  0  0  0  0  0  0  0  0  0  0
    4.8971    1.6913   19.8982 C   0  0  0  0  0  0  0  0  0  0  0  0
    5.8211    0.6244   19.3628 C   0  0  0  0  0  0  0  0  0  0  0  0
    5.5135   -0.1104   18.2338 C   0  0  0  0  0  0  0  0  0  0  0  0
    6.3000   -1.0603   17.7227 N   0  0  0  0  0  0  0  0  0  0  0  0
    7.4544   -1.3092   18.3464 C   0  0  0  0  0  0  0  0  0  0  0  0
    7.8758   -0.6374   19.4881 C   0  0  0  0  0  0  0  0  0  0  0  0
    9.1241   -0.9918   20.0595 N   0  0  0  0  0  0  0  0  0  0  0  0
    9.6898   -0.6388   21.2632 C   0  0  0  0  0  0  0  0  0  0  0  0
    9.1547    0.0946   22.0880 O   0  0  0  0  0  0  0  0  0  0  0  0
   10.9302   -1.2144   21.4200 N   0  0  0  0  0  0  0  0  0  0  0  0
   11.8639   -1.1332   22.4844 C   0  0  0  0  0  0  0  0  0  0  0  0
   11.9052   -0.0816   23.3976 C   0  0  0  0  0  0  0  0  0  0  0  0
   12.8497   -0.0758   24.4111 C   0  0  0  0  0  0  0  0  0  0  0  0
   13.7625   -1.1087   24.5326 C   0  0  0  0  0  0  0  0  0  0  0  0
   13.7264   -2.1561   23.6281 C   0  0  0  0  0  0  0  0  0  0  0  0
   14.6207   -3.1807   23.7366 O   0  0  0  0  0  0  0  0  0  0  0  0
   12.7838   -2.1690   22.6108 C   0  0  0  0  0  0  0  0  0  0  0  0
    7.0279    0.3468   19.9913 C   0  0  0  0  0  0  0  0  0  0  0  0
  1  2  1  0
  2  3  2  0
  2  4  1  0
  4  5  1  0
  5  6  1  0
  6  7  1  0
  7  8  2  0
  8  9  1  0
  9 10  2  0
 10 11  1  0
 11 12  1  0
 12 13  1  0
 13 14  2  0
 13 15  1  0
 15 16  1  0
 16 17  2  0
 17 18  1  0
 18 19  2  0
 19 20  1  0
 20 21  1  0
 20 22  2  0
 11 23  2  0
 23  7  1  0
 22 16  1  0
M  END
