CVD-0000136|dock_bobby27042020.99|mol2|33|dock1
     RDKit          3D

 14 15  0  0  0  0  0  0  0  0999 V2000
   14.1078    5.9193   21.9786 C   0  0  0  0  0  0  0  0  0  0  0  0
   13.0925    5.7550   23.0659 C   0  0  0  0  0  0  0  0  0  0  0  0
   12.0257    4.8527   22.6657 N   0  0  0  0  0  0  0  0  0  0  0  0
   12.1205    3.4955   22.7177 C   0  0  0  0  0  0  0  0  0  0  0  0
   10.9980    2.6837   22.5608 C   0  0  0  0  0  0  0  0  0  0  0  0
   11.1675    1.3126   22.6248 C   0  0  0  0  0  0  0  0  0  0  0  0
   12.4292    0.7725   22.8406 C   0  0  0  0  0  0  0  0  0  0  0  0
   13.4805    1.6659   22.9843 C   0  0  0  0  0  0  0  0  0  0  0  0
   13.3422    2.9954   22.9263 N   0  0  0  0  0  0  0  0  0  0  0  0
   12.6188   -0.6876   22.9102 C   0  0  0  0  0  0  0  0  0  0  0  0
   11.8459   -1.7717   22.7189 C   0  0  0  0  0  0  0  0  0  0  0  0
   12.5651   -2.9231   22.9252 N   0  0  0  0  0  0  0  0  0  0  0  0
   13.7199   -2.5048   23.2268 C   0  0  0  0  0  0  0  0  0  0  0  0
   13.8596   -1.1555   23.2462 O   0  0  0  0  0  0  0  0  0  0  0  0
  1  2  1  0
  2  3  1  0
  3  4  1  0
  4  5  2  0
  5  6  1  0
  6  7  2  0
  7  8  1  0
  8  9  2  0
  7 10  1  0
 10 11  2  0
 11 12  1  0
 12 13  2  0
 13 14  1  0
  9  4  1  0
 14 10  1  0
M  END
