CVD-0000622|dock_bobby27042020.12|mol2|24|dock3
     RDKit          3D

 24 26  0  0  0  0  0  0  0  0999 V2000
    9.6978    0.6039   22.9873 O   0  0  0  0  0  0  0  0  0  0  0  0
   10.0977   -0.1549   22.1100 C   0  0  0  0  0  0  0  0  0  0  0  0
   11.4438   -0.8469   22.1982 C   0  0  0  0  0  0  0  0  0  0  0  0
   12.4896   -0.2235   23.1567 C   0  0  0  0  0  0  0  0  0  0  0  0
   13.8104   -0.8963   22.7914 C   0  0  0  0  0  0  0  0  0  0  0  0
   13.7964   -2.3643   23.1678 C   0  0  0  0  0  0  0  0  0  0  0  0
   13.4919   -2.5555   24.6457 C   0  0  0  0  0  0  0  0  0  0  0  0
   12.1835   -1.8793   25.0220 C   0  0  0  0  0  0  0  0  0  0  0  0
   12.1841   -0.4054   24.6368 C   0  0  0  0  0  0  0  0  0  0  0  0
   12.6831    1.2101   22.9083 C   0  0  0  0  0  0  0  0  0  0  0  0
   12.8859    2.3757   22.7489 C   0  0  0  0  0  0  0  0  0  0  0  0
   13.1973    3.7746   22.6176 C   0  0  0  0  0  0  0  0  0  0  0  0
   12.6600    4.7187   23.4851 C   0  0  0  0  0  0  0  0  0  0  0  0
   13.0154    6.0401   23.2827 C   0  0  0  0  0  0  0  0  0  0  0  0
   13.8709    6.3221   22.2423 C   0  0  0  0  0  0  0  0  0  0  0  0
   14.3637    5.3988   21.4359 N   0  0  0  0  0  0  0  0  0  0  0  0
   14.0246    4.1114   21.6239 N   0  0  0  0  0  0  0  0  0  0  0  0
    9.4140   -0.4656   20.9819 N   0  0  0  0  0  0  0  0  0  0  0  0
    8.1436   -0.0466   20.5144 C   0  0  0  0  0  0  0  0  0  0  0  0
    7.8141    0.0850   19.1691 C   0  0  0  0  0  0  0  0  0  0  0  0
    6.5408    0.5026   18.8221 C   0  0  0  0  0  0  0  0  0  0  0  0
    5.6360    0.7759   19.8219 C   0  0  0  0  0  0  0  0  0  0  0  0
    5.9225    0.6590   21.1183 N   0  0  0  0  0  0  0  0  0  0  0  0
    7.1541    0.2553   21.4430 C   0  0  0  0  0  0  0  0  0  0  0  0
  1  2  2  0
  2  3  1  0
  3  4  1  0
  4  5  1  0
  5  6  1  0
  6  7  1  0
  7  8  1  0
  8  9  1  0
  4 10  1  0
 10 11  3  0
 11 12  1  0
 12 13  2  0
 13 14  1  0
 14 15  2  0
 15 16  1  0
 16 17  2  0
  2 18  1  0
 18 19  1  0
 19 20  2  0
 20 21  1  0
 21 22  2  0
 22 23  1  0
 23 24  2  0
  9  4  1  0
 17 12  1  0
 24 19  1  0
M  END
