CVD-0003530|dock_bobby27042020.30|mol2|36|dock2
     RDKit          3D

 32 35  0  0  0  0  0  0  0  0999 V2000
    8.8433   -3.3317   23.8106 C   0  0  0  0  0  0  0  0  0  0  0  0
    8.0325   -2.2395   23.1176 C   0  0  0  0  0  0  0  0  0  0  0  0
    8.9597   -1.3268   22.3162 C   0  0  0  0  0  0  0  0  0  0  0  0
    9.6307   -0.2753   23.0697 N   0  0  0  0  0  0  0  0  0  0  0  0
   10.0451    0.8605   22.5088 C   0  0  0  0  0  0  0  0  0  0  0  0
    9.8816    1.0855   21.3128 O   0  0  0  0  0  0  0  0  0  0  0  0
   10.7273    1.8714   23.4052 C   0  0  0  0  0  0  0  0  0  0  0  0
   12.0570    1.2884   23.8762 C   0  0  0  0  0  0  0  0  0  0  0  0
   10.9201    3.2117   22.6933 C   0  0  0  0  0  0  0  0  0  0  0  0
   11.6589    4.2592   23.4738 C   0  0  0  0  0  0  0  0  0  0  0  0
   12.9544    4.6429   23.2870 C   0  0  0  0  0  0  0  0  0  0  0  0
   13.2977    5.6218   24.1782 N   0  0  0  0  0  0  0  0  0  0  0  0
   12.2127    5.8986   24.9727 C   0  0  0  0  0  0  0  0  0  0  0  0
   12.0593    6.8038   26.0173 C   0  0  0  0  0  0  0  0  0  0  0  0
   10.8297    6.8833   26.6499 C   0  0  0  0  0  0  0  0  0  0  0  0
    9.7805    6.0811   26.2501 C   0  0  0  0  0  0  0  0  0  0  0  0
    9.9333    5.1766   25.2112 C   0  0  0  0  0  0  0  0  0  0  0  0
   11.1581    5.0644   24.5538 C   0  0  0  0  0  0  0  0  0  0  0  0
    6.9538   -2.8654   22.1940 C   0  0  0  0  0  0  0  0  0  0  0  0
    5.7590   -1.9045   22.0283 C   0  0  0  0  0  0  0  0  0  0  0  0
    5.8142   -1.1017   20.7513 C   0  0  0  0  0  0  0  0  0  0  0  0
    5.6906   -1.7224   19.5180 C   0  0  0  0  0  0  0  0  0  0  0  0
    5.7382   -0.9857   18.3462 C   0  0  0  0  0  0  0  0  0  0  0  0
    5.9091    0.3812   18.3945 C   0  0  0  0  0  0  0  0  0  0  0  0
    6.0319    1.0110   19.6143 C   0  0  0  0  0  0  0  0  0  0  0  0
    5.9843    0.2737   20.7857 C   0  0  0  0  0  0  0  0  0  0  0  0
    6.4601   -4.2005   22.7139 C   0  0  0  0  0  0  0  0  0  0  0  0
    5.6796   -4.2721   23.8595 C   0  0  0  0  0  0  0  0  0  0  0  0
    5.2273   -5.4924   24.3333 C   0  0  0  0  0  0  0  0  0  0  0  0
    5.5488   -6.6559   23.6681 C   0  0  0  0  0  0  0  0  0  0  0  0
    6.3224   -6.6001   22.5287 C   0  0  0  0  0  0  0  0  0  0  0  0
    6.7753   -5.3803   22.0543 C   0  0  0  0  0  0  0  0  0  0  0  0
  1  2  1  0
  2  3  1  0
  3  4  1  0
  4  5  1  0
  5  6  2  0
  5  7  1  0
  7  8  1  0
  7  9  1  0
  9 10  1  0
 10 11  2  0
 11 12  1  0
 12 13  1  0
 13 14  2  0
 14 15  1  0
 15 16  2  0
 16 17  1  0
 17 18  2  0
  2 19  1  0
 19 20  1  0
 20 21  1  0
 21 22  2  0
 22 23  1  0
 23 24  2  0
 24 25  1  0
 25 26  2  0
 19 27  1  0
 27 28  2  0
 28 29  1  0
 29 30  2  0
 30 31  1  0
 31 32  2  0
 18 10  1  0
 26 21  1  0
 32 27  1  0
 18 13  1  0
M  END
