CVD-0001559|dock_bobby27042020.66|mol2|41|dock2
     RDKit          3D

 33 37  0  0  0  0  0  0  0  0999 V2000
    7.9431    0.9346   21.5052 O   0  0  0  0  0  0  0  0  0  0  0  0
    8.4398    0.1317   20.7213 C   0  0  0  0  0  0  0  0  0  0  0  0
    7.7591   -0.1968   19.4038 C   0  0  0  0  0  0  0  0  0  0  0  0
    6.5323    0.5749   19.2376 N   0  0  0  0  0  0  0  0  0  0  0  0
    6.3512    1.2891   18.0854 C   0  0  0  0  0  0  0  0  0  0  0  0
    5.2413    2.0116   17.8644 C   0  0  0  0  0  0  0  0  0  0  0  0
    4.2232    2.0343   18.8578 C   0  0  0  0  0  0  0  0  0  0  0  0
    2.9516    2.6651   18.9777 C   0  0  0  0  0  0  0  0  0  0  0  0
    2.4366    2.2937   20.1908 C   0  0  0  0  0  0  0  0  0  0  0  0
    3.3170    1.4661   20.8337 N   0  0  0  0  0  0  0  0  0  0  0  0
    4.4335    1.2770   20.0511 C   0  0  0  0  0  0  0  0  0  0  0  0
    5.6065    0.5092   20.2857 C   0  0  0  0  0  0  0  0  0  0  0  0
    5.8490   -0.1644   21.2804 O   0  0  0  0  0  0  0  0  0  0  0  0
    9.5964   -0.5065   20.9343 N   0  0  0  0  0  0  0  0  0  0  0  0
   10.4163   -0.3301   22.1263 C   0  0  0  0  0  0  0  0  0  0  0  0
   10.3393   -1.5181   23.0925 C   0  0  0  0  0  0  0  0  0  0  0  0
   11.4890   -1.6586   24.1033 C   0  0  0  0  0  0  0  0  0  0  0  0
   12.8627   -1.9731   23.4780 C   0  0  0  0  0  0  0  0  0  0  0  0
   13.8672   -1.1371   24.2603 C   0  0  0  0  0  0  0  0  0  0  0  0
   13.0355   -0.1289   24.8896 N   0  0  0  0  0  0  0  0  0  0  0  0
   11.7264   -0.3929   24.8848 C   0  0  0  0  0  0  0  0  0  0  0  0
   10.8602    0.3065   25.4002 O   0  0  0  0  0  0  0  0  0  0  0  0
   10.0488    0.9683   22.8447 C   0  0  0  0  0  0  0  0  0  0  0  0
    9.2641    1.0212   23.7762 O   0  0  0  0  0  0  0  0  0  0  0  0
   10.7149    2.2594   22.3299 C   0  0  0  0  0  0  0  0  0  0  0  0
   10.6004    2.6037   21.1545 O   0  0  0  0  0  0  0  0  0  0  0  0
   11.4011    2.9408   23.2523 N   0  0  0  0  0  0  0  0  0  0  0  0
   12.1335    4.2028   23.0442 C   0  0  0  0  0  0  0  0  0  0  0  0
   13.0433    4.8162   24.1321 C   0  0  0  0  0  0  0  0  0  0  0  0
   12.8653    6.0855   23.2435 C   0  0  0  0  0  0  0  0  0  0  0  0
   11.4167    5.5751   22.9940 C   0  0  0  0  0  0  0  0  0  0  0  0
   13.5996    5.6876   21.9326 C   0  0  0  0  0  0  0  0  0  0  0  0
   13.0225    4.2412   21.7930 C   0  0  0  0  0  0  0  0  0  0  0  0
  1  2  2  0
  2  3  1  0
  3  4  1  0
  4  5  1  0
  5  6  2  0
  6  7  1  0
  7  8  1  0
  8  9  2  0
  9 10  1  0
 10 11  1  0
 11 12  1  0
 12 13  2  0
  2 14  1  0
 14 15  1  0
 15 16  1  0
 16 17  1  0
 17 18  1  0
 18 19  1  0
 19 20  1  0
 20 21  1  0
 21 22  2  0
 15 23  1  0
 23 24  2  0
 23 25  1  0
 25 26  2  0
 25 27  1  0
 27 28  1  0
 28 29  1  0
 29 30  1  0
 30 31  1  0
 30 32  1  0
 32 33  1  0
 12  4  1  0
 21 17  1  0
 31 28  1  0
 11  7  2  0
 33 28  1  0
M  END
