CVD-0000996|dock_bobby27042020.39|mol2|36|dock1
     RDKit          3D

 31 35  0  0  0  0  0  0  0  0999 V2000
   13.3874    9.3789   25.4634 C   0  0  0  0  0  0  0  0  0  0  0  0
   13.7186    8.8576   24.1776 O   0  0  0  0  0  0  0  0  0  0  0  0
   13.4339    7.5515   23.8663 C   0  0  0  0  0  0  0  0  0  0  0  0
   13.8305    7.0715   22.6297 C   0  0  0  0  0  0  0  0  0  0  0  0
   13.5640    5.7614   22.2749 C   0  0  0  0  0  0  0  0  0  0  0  0
   12.8981    4.9110   23.1484 C   0  0  0  0  0  0  0  0  0  0  0  0
   12.5050    5.4037   24.3866 C   0  0  0  0  0  0  0  0  0  0  0  0
   12.7678    6.7131   24.7493 C   0  0  0  0  0  0  0  0  0  0  0  0
   12.6150    3.5176   22.7702 C   0  0  0  0  0  0  0  0  0  0  0  0
   13.4722    2.5437   22.6710 N   0  0  0  0  0  0  0  0  0  0  0  0
   12.6998    1.4521   22.2882 C   0  0  0  0  0  0  0  0  0  0  0  0
   13.0229    0.1243   22.0199 C   0  0  0  0  0  0  0  0  0  0  0  0
   12.0152   -0.7530   21.6493 C   0  0  0  0  0  0  0  0  0  0  0  0
   10.6817   -0.3504   21.5395 C   0  0  0  0  0  0  0  0  0  0  0  0
   10.3719    0.9845   21.8140 C   0  0  0  0  0  0  0  0  0  0  0  0
   11.3892    1.8446   22.1778 C   0  0  0  0  0  0  0  0  0  0  0  0
   11.3114    3.1875   22.4870 O   0  0  0  0  0  0  0  0  0  0  0  0
    9.6180   -1.3123   21.1420 C   0  0  0  0  0  0  0  0  0  0  0  0
    9.3319   -2.4442   21.8998 C   0  0  0  0  0  0  0  0  0  0  0  0
    8.3405   -3.3259   21.5095 C   0  0  0  0  0  0  0  0  0  0  0  0
    7.6325   -3.0495   20.3429 C   0  0  0  0  0  0  0  0  0  0  0  0
    6.6456   -3.8813   19.9118 N   0  0  0  0  0  0  0  0  0  0  0  0
    6.5554   -5.2756   20.2970 C   0  0  0  0  0  0  0  0  0  0  0  0
    5.7994   -5.5082   21.5827 C   0  0  0  0  0  0  0  0  0  0  0  0
    5.1298   -4.4686   22.2095 C   0  0  0  0  0  0  0  0  0  0  0  0
    4.4387   -4.6811   23.3907 C   0  0  0  0  0  0  0  0  0  0  0  0
    4.4099   -5.9361   23.9597 C   0  0  0  0  0  0  0  0  0  0  0  0
    5.0724   -6.9782   23.3478 C   0  0  0  0  0  0  0  0  0  0  0  0
    5.7634   -6.7651   22.1666 C   0  0  0  0  0  0  0  0  0  0  0  0
    7.8809   -1.9699   19.5970 N   0  0  0  0  0  0  0  0  0  0  0  0
    8.8506   -1.1389   19.9961 C   0  0  0  0  0  0  0  0  0  0  0  0
  1  2  1  0
  2  3  1  0
  3  4  2  0
  4  5  1  0
  5  6  2  0
  6  7  1  0
  7  8  2  0
  6  9  1  0
  9 10  2  0
 10 11  1  0
 11 12  2  0
 12 13  1  0
 13 14  2  0
 14 15  1  0
 15 16  2  0
 16 17  1  0
 14 18  1  0
 18 19  2  0
 19 20  1  0
 20 21  2  0
 21 22  1  0
 22 23  1  0
 23 24  1  0
 24 25  2  0
 25 26  1  0
 26 27  2  0
 27 28  1  0
 28 29  2  0
 21 30  1  0
 30 31  2  0
  8  3  1  0
 17  9  1  0
 31 18  1  0
 16 11  1  0
 29 24  1  0
M  END
