CVD-0001395|dock_bobby27042020.38|mol2|18|dock3
     RDKit          3D

 17 18  0  0  0  0  0  0  0  0999 V2000
   10.3716   -1.4271   21.7838 C   0  0  0  0  0  0  0  0  0  0  0  0
   11.5890   -0.9888   22.4653 N   0  0  0  0  0  0  0  0  0  0  0  0
   12.6239   -1.8486   22.7492 C   0  0  0  0  0  0  0  0  0  0  0  0
   13.5647   -1.1237   23.3853 C   0  0  0  0  0  0  0  0  0  0  0  0
   13.1505    0.1774   23.5173 N   0  0  0  0  0  0  0  0  0  0  0  0
   11.9465    0.2389   22.9550 C   0  0  0  0  0  0  0  0  0  0  0  0
   11.2066    1.5193   22.9311 C   0  0  0  0  0  0  0  0  0  0  0  0
    9.8270    1.6248   23.1020 C   0  0  0  0  0  0  0  0  0  0  0  0
    9.2043    2.8616   23.0723 C   0  0  0  0  0  0  0  0  0  0  0  0
    9.9386    4.0163   22.8685 C   0  0  0  0  0  0  0  0  0  0  0  0
   11.3132    3.9313   22.6921 C   0  0  0  0  0  0  0  0  0  0  0  0
   12.1021    5.1046   22.4774 N   0  0  0  0  0  0  0  0  0  0  0  0
   13.7167    5.1093   22.2605 S   0  0  0  0  0  0  0  0  0  0  0  0
   14.1959    6.7796   22.0411 C   0  0  0  0  0  0  0  0  0  0  0  0
   14.3123    4.6187   23.4649 O   0  0  0  0  0  0  0  0  0  0  0  0
   13.9743    4.4111   21.0390 O   0  0  0  0  0  0  0  0  0  0  0  0
   11.9341    2.6880   22.7246 C   0  0  0  0  0  0  0  0  0  0  0  0
  1  2  1  0
  2  3  1  0
  3  4  2  0
  4  5  1  0
  5  6  2  0
  6  7  1  0
  7  8  2  0
  8  9  1  0
  9 10  2  0
 10 11  1  0
 11 12  1  0
 12 13  1  0
 13 14  1  0
 13 15  2  0
 13 16  2  0
 11 17  2  0
  6  2  1  0
 17  7  1  0
M  END
