CVD-0001665|dock_bobby27042020.9|mol2|5|dock3
     RDKit          3D

 28 30  0  0  0  0  0  0  0  0999 V2000
    5.6146   -6.7721   21.4074 N   0  0  0  0  0  0  0  0  0  0  0  0
    6.1069   -5.5419   21.3167 C   0  0  0  0  0  0  0  0  0  0  0  0
    5.6953   -4.7358   20.4747 O   0  0  0  0  0  0  0  0  0  0  0  0
    7.1765   -5.1241   22.2480 C   0  0  0  0  0  0  0  0  0  0  0  0
    7.3843   -5.9970   23.2190 N   0  0  0  0  0  0  0  0  0  0  0  0
    8.3300   -5.7222   24.1208 C   0  0  0  0  0  0  0  0  0  0  0  0
    8.4892   -6.6540   25.0868 F   0  0  0  0  0  0  0  0  0  0  0  0
    9.1081   -4.6044   24.1205 C   0  0  0  0  0  0  0  0  0  0  0  0
    8.8911   -3.7044   23.1091 N   0  0  0  0  0  0  0  0  0  0  0  0
    9.6802   -2.4787   23.0544 C   0  0  0  0  0  0  0  0  0  0  0  0
    8.7754   -1.2481   23.0868 C   0  0  0  0  0  0  0  0  0  0  0  0
    7.5677   -1.3767   23.2438 O   0  0  0  0  0  0  0  0  0  0  0  0
    9.3462   -0.0346   22.9317 N   0  0  0  0  0  0  0  0  0  0  0  0
   10.7738    0.2194   22.7570 C   0  0  0  0  0  0  0  0  0  0  0  0
   11.2103    1.3583   23.6555 C   0  0  0  0  0  0  0  0  0  0  0  0
   10.3987    2.6137   23.3614 C   0  0  0  0  0  0  0  0  0  0  0  0
    8.9099    2.3029   23.4986 C   0  0  0  0  0  0  0  0  0  0  0  0
    8.5233    1.1261   22.6090 C   0  0  0  0  0  0  0  0  0  0  0  0
   10.8028    3.7487   24.2837 C   0  0  0  0  0  0  0  0  0  0  0  0
   10.0714    4.0559   25.2058 O   0  0  0  0  0  0  0  0  0  0  0  0
   11.9635    4.4092   24.0789 N   0  0  0  0  0  0  0  0  0  0  0  0
   12.9379    4.1218   23.0244 C   0  0  0  0  0  0  0  0  0  0  0  0
   13.1829    5.3534   22.1779 C   0  0  0  0  0  0  0  0  0  0  0  0
   13.6089    6.5365   23.0465 C   0  0  0  0  0  0  0  0  0  0  0  0
   12.5989    6.7675   24.1572 C   0  0  0  0  0  0  0  0  0  0  0  0
   12.3696    5.5085   24.9624 C   0  0  0  0  0  0  0  0  0  0  0  0
    7.9263   -3.8823   22.1154 C   0  0  0  0  0  0  0  0  0  0  0  0
    7.7751   -3.0354   21.2421 O   0  0  0  0  0  0  0  0  0  0  0  0
  1  2  1  0
  2  3  2  0
  2  4  1  0
  4  5  2  0
  5  6  1  0
  6  7  1  0
  6  8  2  0
  8  9  1  0
  9 10  1  0
 10 11  1  0
 11 12  2  0
 11 13  1  0
 13 14  1  0
 14 15  1  0
 15 16  1  0
 16 17  1  0
 17 18  1  0
 16 19  1  0
 19 20  2  0
 19 21  1  0
 21 22  1  0
 22 23  1  0
 23 24  1  0
 24 25  1  0
 25 26  1  0
  9 27  1  0
 27 28  2  0
 27  4  1  0
 18 13  1  0
 26 21  1  0
M  END
