CVD-0000930|dock_bobby27042020.68|mol2|39|dock1
     RDKit          3D

 42 45  0  0  0  0  0  0  0  0999 V2000
   12.6599    4.6147   22.6672 C   0  0  0  0  0  0  0  0  0  0  0  0
   11.7494    3.5354   23.2082 C   0  0  0  0  0  0  0  0  0  0  0  0
   12.1008    2.3006   22.7235 N   0  0  0  0  0  0  0  0  0  0  0  0
   10.3624    3.8304   22.9015 N   0  0  0  0  0  0  0  0  0  0  0  0
    9.3393    2.8088   23.1661 C   0  0  0  0  0  0  0  0  0  0  0  0
    7.9324    3.4247   23.1840 C   0  0  0  0  0  0  0  0  0  0  0  0
    7.6372    4.3113   21.9925 C   0  0  0  0  0  0  0  0  0  0  0  0
    8.2297    5.4950   21.9854 N   0  0  0  0  0  0  0  0  0  0  0  0
    6.8768    3.9449   21.0916 O   0  0  0  0  0  0  0  0  0  0  0  0
    9.4482    1.7412   22.0785 C   0  0  0  0  0  0  0  0  0  0  0  0
    9.8902    2.0387   20.9720 O   0  0  0  0  0  0  0  0  0  0  0  0
    9.0562    0.5008   22.3827 N   0  0  0  0  0  0  0  0  0  0  0  0
    9.1218   -0.5928   21.4214 C   0  0  0  0  0  0  0  0  0  0  0  0
    9.8445   -1.8213   21.9856 C   0  0  0  0  0  0  0  0  0  0  0  0
    9.0023   -2.6800   22.9000 C   0  0  0  0  0  0  0  0  0  0  0  0
    7.8805   -3.2292   22.0437 C   0  0  0  0  0  0  0  0  0  0  0  0
    6.9386   -2.1635   21.4650 C   0  0  0  0  0  0  0  0  0  0  0  0
    7.7304   -0.9657   20.9310 N   0  0  0  0  0  0  0  0  0  0  0  0
    7.3504   -0.0776   19.9860 C   0  0  0  0  0  0  0  0  0  0  0  0
    8.0739    0.8627   19.6827 O   0  0  0  0  0  0  0  0  0  0  0  0
    6.0026   -0.2711   19.3181 C   0  0  0  0  0  0  0  0  0  0  0  0
    5.5835    1.1332   18.3284 Cl  0  0  0  0  0  0  0  0  0  0  0  0
    7.0270   -4.2031   22.8019 C   0  0  0  0  0  0  0  0  0  0  0  0
    7.0613   -4.3136   24.0925 N   0  0  0  0  0  0  0  0  0  0  0  0
    6.1684   -5.2853   24.5381 C   0  0  0  0  0  0  0  0  0  0  0  0
    5.9297   -5.6861   25.8531 C   0  0  0  0  0  0  0  0  0  0  0  0
    4.9933   -6.6784   26.1554 C   0  0  0  0  0  0  0  0  0  0  0  0
    4.2951   -7.2722   25.1064 C   0  0  0  0  0  0  0  0  0  0  0  0
    4.5142   -6.8996   23.7930 C   0  0  0  0  0  0  0  0  0  0  0  0
    5.4477   -5.9074   23.5131 C   0  0  0  0  0  0  0  0  0  0  0  0
    5.9071   -5.2557   21.9678 S   0  0  0  0  0  0  0  0  0  0  0  0
    4.7494   -7.0896   27.5646 C   0  0  0  0  0  0  0  0  0  0  0  0
    3.4564   -7.2776   28.0476 C   0  0  0  0  0  0  0  0  0  0  0  0
    3.2232   -7.6577   29.3575 C   0  0  0  0  0  0  0  0  0  0  0  0
    4.2864   -7.8670   30.2257 C   0  0  0  0  0  0  0  0  0  0  0  0
    4.0610   -8.2420   31.5117 O   0  0  0  0  0  0  0  0  0  0  0  0
    5.5902   -7.6872   29.7606 C   0  0  0  0  0  0  0  0  0  0  0  0
    5.8111   -7.2992   28.4470 C   0  0  0  0  0  0  0  0  0  0  0  0
    6.9814   -7.9390   30.8291 S   0  0  0  0  0  0  0  0  0  0  0  0
    7.9971   -8.9464   30.1104 N   0  0  0  0  0  0  0  0  0  0  0  0
    6.4992   -8.5918   32.0091 O   0  0  0  0  0  0  0  0  0  0  0  0
    7.6520   -6.6802   30.9584 O   0  0  0  0  0  0  0  0  0  0  0  0
  1  2  1  0
  2  3  1  0
  2  4  1  0
  4  5  1  0
  5  6  1  0
  6  7  1  0
  7  8  1  0
  7  9  2  0
  5 10  1  0
 10 11  2  0
 10 12  1  0
 12 13  1  0
 13 14  1  0
 14 15  1  0
 15 16  1  0
 16 17  1  0
 17 18  1  0
 18 19  1  0
 19 20  2  0
 19 21  1  0
 21 22  1  0
 16 23  1  0
 23 24  2  0
 24 25  1  0
 25 26  2  0
 26 27  1  0
 27 28  2  0
 28 29  1  0
 29 30  2  0
 30 31  1  0
 27 32  1  0
 32 33  2  0
 33 34  1  0
 34 35  2  0
 35 36  1  0
 35 37  1  0
 37 38  2  0
 37 39  1  0
 39 40  1  0
 39 41  2  0
 39 42  2  0
 18 13  1  0
 31 23  1  0
 38 32  1  0
 30 25  1  0
M  END
