CVD-0002449|dock_bobby27042020.91|mol2|23|dock1
     RDKit          3D

 10 10  0  0  0  0  0  0  0  0999 V2000
   14.2596   -2.2635   23.8819 C   0  0  0  0  0  0  0  0  0  0  0  0
   13.6265   -0.9945   23.9234 O   0  0  0  0  0  0  0  0  0  0  0  0
   12.6675   -0.8394   22.9005 C   0  0  0  0  0  0  0  0  0  0  0  0
   12.0541    0.5289   23.0084 C   0  0  0  0  0  0  0  0  0  0  0  0
   13.0301    1.5787   22.7528 N   0  0  0  0  0  0  0  0  0  0  0  0
   12.7438    2.8749   22.6788 C   0  0  0  0  0  0  0  0  0  0  0  0
   13.7443    3.8665   22.4246 C   0  0  0  0  0  0  0  0  0  0  0  0
   13.2349    5.1299   22.3896 C   0  0  0  0  0  0  0  0  0  0  0  0
   11.5596    5.0997   22.6638 S   0  0  0  0  0  0  0  0  0  0  0  0
   11.5119    3.4088   22.8287 C   0  0  0  0  0  0  0  0  0  0  0  0
  1  2  1  0
  2  3  1  0
  3  4  1  0
  4  5  1  0
  5  6  1  0
  6  7  1  0
  7  8  2  0
  8  9  1  0
  9 10  1  0
 10  6  2  0
M  END
