CVD-0001000|dock_bobby27042020.54|mol2|8|dock2
     RDKit          3D

 19 21  0  0  0  0  0  0  0  0999 V2000
    1.1792    2.8221   20.4232 Br  0  0  0  0  0  0  0  0  0  0  0  0
    2.7812    2.2939   19.6122 C   0  0  0  0  0  0  0  0  0  0  0  0
    3.2145    2.6264   18.3814 C   0  0  0  0  0  0  0  0  0  0  0  0
    4.4533    2.0590   18.0925 C   0  0  0  0  0  0  0  0  0  0  0  0
    4.9581    1.2908   19.1175 C   0  0  0  0  0  0  0  0  0  0  0  0
    3.8688    1.2764   20.4639 S   0  0  0  0  0  0  0  0  0  0  0  0
    6.2017    0.5561   19.1790 C   0  0  0  0  0  0  0  0  0  0  0  0
    6.8878    0.1953   18.1272 N   0  0  0  0  0  0  0  0  0  0  0  0
    8.0464   -0.5008   18.4646 N   0  0  0  0  0  0  0  0  0  0  0  0
    8.1764   -0.6305   19.7592 C   0  0  0  0  0  0  0  0  0  0  0  0
    9.2057   -1.2609   20.3504 N   0  0  0  0  0  0  0  0  0  0  0  0
    9.3146   -1.3845   21.7965 C   0  0  0  0  0  0  0  0  0  0  0  0
   10.6940   -1.0657   22.3205 C   0  0  0  0  0  0  0  0  0  0  0  0
   11.5660   -2.0801   22.6848 C   0  0  0  0  0  0  0  0  0  0  0  0
   12.8327   -1.7880   23.1625 C   0  0  0  0  0  0  0  0  0  0  0  0
   13.2429   -0.4775   23.2805 C   0  0  0  0  0  0  0  0  0  0  0  0
   12.3864    0.5406   22.9205 C   0  0  0  0  0  0  0  0  0  0  0  0
   11.1198    0.2479   22.4430 C   0  0  0  0  0  0  0  0  0  0  0  0
    6.9019    0.0816   20.6911 S   0  0  0  0  0  0  0  0  0  0  0  0
  1  2  1  0
  2  3  2  0
  3  4  1  0
  4  5  2  0
  5  6  1  0
  5  7  1  0
  7  8  2  0
  8  9  1  0
  9 10  2  0
 10 11  1  0
 11 12  1  0
 12 13  1  0
 13 14  2  0
 14 15  1  0
 15 16  2  0
 16 17  1  0
 17 18  2  0
 10 19  1  0
  6  2  1  0
 19  7  1  0
 18 13  1  0
M  END
