CVD-0002687|dock_bobby27042020.62|mol2|16|dock1
     RDKit          3D

 33 36  0  0  0  0  0  0  0  0999 V2000
    9.0212   -1.2183   23.6198 O   0  0  0  0  0  0  0  0  0  0  0  0
    9.6064   -1.3115   22.5441 C   0  0  0  0  0  0  0  0  0  0  0  0
    9.2311   -2.1625   21.5850 N   0  0  0  0  0  0  0  0  0  0  0  0
    8.0913   -3.0488   21.7542 C   0  0  0  0  0  0  0  0  0  0  0  0
    6.7869   -2.2500   21.8982 C   0  0  0  0  0  0  0  0  0  0  0  0
    6.4928   -1.3671   20.7097 C   0  0  0  0  0  0  0  0  0  0  0  0
    6.1286   -1.9177   19.4907 C   0  0  0  0  0  0  0  0  0  0  0  0
    5.8556   -1.1077   18.4009 C   0  0  0  0  0  0  0  0  0  0  0  0
    5.9430    0.2627   18.5180 C   0  0  0  0  0  0  0  0  0  0  0  0
    6.3028    0.8231   19.7247 C   0  0  0  0  0  0  0  0  0  0  0  0
    6.5756    0.0127   20.8141 C   0  0  0  0  0  0  0  0  0  0  0  0
    8.2950   -3.9033   23.0012 C   0  0  0  0  0  0  0  0  0  0  0  0
    9.3893   -4.0343   23.5219 O   0  0  0  0  0  0  0  0  0  0  0  0
    7.0578   -4.6157   23.5812 C   0  0  0  0  0  0  0  0  0  0  0  0
    6.2954   -5.2577   22.8601 O   0  0  0  0  0  0  0  0  0  0  0  0
    6.8980   -4.4744   24.8962 N   0  0  0  0  0  0  0  0  0  0  0  0
    5.7837   -5.0802   25.6102 C   0  0  0  0  0  0  0  0  0  0  0  0
    6.2220   -5.8871   26.8062 C   0  0  0  0  0  0  0  0  0  0  0  0
    5.4915   -6.9764   27.2504 C   0  0  0  0  0  0  0  0  0  0  0  0
    5.9470   -7.6724   28.3566 C   0  0  0  0  0  0  0  0  0  0  0  0
    7.1050   -7.2682   28.9843 C   0  0  0  0  0  0  0  0  0  0  0  0
    7.7674   -6.1738   28.4766 C   0  0  0  0  0  0  0  0  0  0  0  0
    7.3487   -5.4825   27.4082 N   0  0  0  0  0  0  0  0  0  0  0  0
   10.8207   -0.4382   22.2415 C   0  0  0  0  0  0  0  0  0  0  0  0
   10.4251    1.0173   21.8402 C   0  0  0  0  0  0  0  0  0  0  0  0
   10.1136    1.6372   23.1857 C   0  0  0  0  0  0  0  0  0  0  0  0
   11.2035    1.0467   24.0867 C   0  0  0  0  0  0  0  0  0  0  0  0
   11.5992   -0.2100   23.4225 N   0  0  0  0  0  0  0  0  0  0  0  0
   12.6321   -1.0094   23.8667 C   0  0  0  0  0  0  0  0  0  0  0  0
   13.4428   -0.7108   25.0172 C   0  0  0  0  0  0  0  0  0  0  0  0
   14.4004   -1.6507   25.2543 C   0  0  0  0  0  0  0  0  0  0  0  0
   14.3152   -2.8846   24.0893 S   0  0  0  0  0  0  0  0  0  0  0  0
   13.0081   -2.1728   23.2676 C   0  0  0  0  0  0  0  0  0  0  0  0
  1  2  2  0
  2  3  1  0
  3  4  1  0
  4  5  1  0
  5  6  1  0
  6  7  2  0
  7  8  1  0
  8  9  2  0
  9 10  1  0
 10 11  2  0
  4 12  1  0
 12 13  2  0
 12 14  1  0
 14 15  2  0
 14 16  1  0
 16 17  1  0
 17 18  1  0
 18 19  2  0
 19 20  1  0
 20 21  2  0
 21 22  1  0
 22 23  2  0
  2 24  1  0
 24 25  1  0
 25 26  1  0
 26 27  1  0
 27 28  1  0
 28 29  1  0
 29 30  1  0
 30 31  2  0
 31 32  1  0
 32 33  1  0
 11  6  1  0
 23 18  1  0
 28 24  1  0
 33 29  2  0
M  END
