CVD-0000584|dock_bobby27042020.83|mol2|50|dock2
     RDKit          3D

 23 25  0  0  0  0  0  0  0  0999 V2000
    7.4010   -1.2084   18.2342 C   0  0  0  0  0  0  0  0  0  0  0  0
    7.0286    0.0267   19.0138 C   0  0  0  0  0  0  0  0  0  0  0  0
    5.8530    0.6900   18.6751 C   0  0  0  0  0  0  0  0  0  0  0  0
    5.4805    1.8192   19.3684 C   0  0  0  0  0  0  0  0  0  0  0  0
    6.1968    2.3247   20.3678 N   0  0  0  0  0  0  0  0  0  0  0  0
    7.3280    1.6961   20.7027 C   0  0  0  0  0  0  0  0  0  0  0  0
    7.8024    0.5450   20.0711 C   0  0  0  0  0  0  0  0  0  0  0  0
    9.0048   -0.1354   20.4193 N   0  0  0  0  0  0  0  0  0  0  0  0
    9.6344   -0.2421   21.6392 C   0  0  0  0  0  0  0  0  0  0  0  0
    9.2295    0.2652   22.6794 O   0  0  0  0  0  0  0  0  0  0  0  0
   10.7701   -0.9828   21.5610 N   0  0  0  0  0  0  0  0  0  0  0  0
   11.7085   -1.3241   22.6232 C   0  0  0  0  0  0  0  0  0  0  0  0
   12.2988   -0.0651   23.2971 C   0  0  0  0  0  0  0  0  0  0  0  0
   13.6274   -0.3114   22.6062 C   0  0  0  0  0  0  0  0  0  0  0  0
   13.1188   -1.6673   22.1101 C   0  0  0  0  0  0  0  0  0  0  0  0
   11.0992   -2.2824   23.5692 C   0  0  0  0  0  0  0  0  0  0  0  0
   10.6861   -3.0340   24.3995 C   0  0  0  0  0  0  0  0  0  0  0  0
   10.2353   -3.9035   25.4502 C   0  0  0  0  0  0  0  0  0  0  0  0
    9.4106   -3.4616   26.4796 C   0  0  0  0  0  0  0  0  0  0  0  0
    8.9834   -4.2576   27.4632 N   0  0  0  0  0  0  0  0  0  0  0  0
    9.3977   -5.5194   27.4027 C   0  0  0  0  0  0  0  0  0  0  0  0
   10.1821   -6.0673   26.4797 N   0  0  0  0  0  0  0  0  0  0  0  0
   10.5929   -5.2465   25.5097 C   0  0  0  0  0  0  0  0  0  0  0  0
  1  2  1  0
  2  3  2  0
  3  4  1  0
  4  5  2  0
  5  6  1  0
  6  7  2  0
  7  8  1  0
  8  9  1  0
  9 10  2  0
  9 11  1  0
 11 12  1  0
 12 13  1  0
 13 14  1  0
 14 15  1  0
 12 16  1  0
 16 17  3  0
 17 18  1  0
 18 19  2  0
 19 20  1  0
 20 21  2  0
 21 22  1  0
 22 23  2  0
  7  2  1  0
 15 12  1  0
 23 18  1  0
M  END
