CVD-0002134|dock_bobby27042020.21|mol2|25|dock2
     RDKit          3D

 24 25  0  0  0  0  0  0  0  0999 V2000
    8.4139   -3.2352   21.3303 C   0  0  0  0  0  0  0  0  0  0  0  0
    8.4782   -1.7412   21.1158 C   0  0  0  0  0  0  0  0  0  0  0  0
    9.8703   -1.3436   21.1396 N   0  0  0  0  0  0  0  0  0  0  0  0
   10.3727   -0.5698   22.1041 C   0  0  0  0  0  0  0  0  0  0  0  0
    9.6940   -0.1472   23.0350 O   0  0  0  0  0  0  0  0  0  0  0  0
   11.8407   -0.2418   21.9805 C   0  0  0  0  0  0  0  0  0  0  0  0
   12.4917    0.0446   23.3315 C   0  0  0  0  0  0  0  0  0  0  0  0
   12.2623    1.4617   23.7985 C   0  0  0  0  0  0  0  0  0  0  0  0
   11.2630    1.7565   24.7126 C   0  0  0  0  0  0  0  0  0  0  0  0
   11.0506    3.0574   25.1377 C   0  0  0  0  0  0  0  0  0  0  0  0
   11.8373    4.0886   24.6530 C   0  0  0  0  0  0  0  0  0  0  0  0
   12.8371    3.7968   23.7399 C   0  0  0  0  0  0  0  0  0  0  0  0
   13.0510    2.4959   23.3109 C   0  0  0  0  0  0  0  0  0  0  0  0
   13.8501    5.0965   23.1015 S   0  0  0  0  0  0  0  0  0  0  0  0
   13.8651    4.9899   21.5042 N   0  0  0  0  0  0  0  0  0  0  0  0
   15.1877    4.8580   23.5544 O   0  0  0  0  0  0  0  0  0  0  0  0
   13.2169    6.3365   23.4372 O   0  0  0  0  0  0  0  0  0  0  0  0
    7.8598   -1.3045   20.0071 N   0  0  0  0  0  0  0  0  0  0  0  0
    6.4010   -1.4125   20.0874 C   0  0  0  0  0  0  0  0  0  0  0  0
    5.7571   -1.1163   18.7516 C   0  0  0  0  0  0  0  0  0  0  0  0
    6.1430    0.2535   18.2348 C   0  0  0  0  0  0  0  0  0  0  0  0
    5.5966    0.5437   16.9454 O   0  0  0  0  0  0  0  0  0  0  0  0
    7.6635    0.3526   18.2238 C   0  0  0  0  0  0  0  0  0  0  0  0
    8.2500    0.0352   19.5861 C   0  0  0  0  0  0  0  0  0  0  0  0
  1  2  1  0
  2  3  1  0
  3  4  1  0
  4  5  2  0
  4  6  1  0
  6  7  1  0
  7  8  1  0
  8  9  2  0
  9 10  1  0
 10 11  2  0
 11 12  1  0
 12 13  2  0
 12 14  1  0
 14 15  1  0
 14 16  2  0
 14 17  2  0
  2 18  1  0
 18 19  1  0
 19 20  1  0
 20 21  1  0
 21 22  1  0
 21 23  1  0
 23 24  1  0
 13  8  1  0
 24 18  1  0
M  END
