CVD-0001146|dock_bobby27042020.96|mol2|17|dock2
     RDKit          3D

 37 41  0  0  0  0  0  0  0  0999 V2000
   12.7802    6.2702   23.3718 O   0  0  0  0  0  0  0  0  0  0  0  0
   12.1867    5.2403   22.9996 C   0  0  0  0  0  0  0  0  0  0  0  0
   12.7302    4.1523   22.4197 C   0  0  0  0  0  0  0  0  0  0  0  0
   11.7087    3.2664   22.1812 N   0  0  0  0  0  0  0  0  0  0  0  0
   10.6274    3.8546   22.6182 C   0  0  0  0  0  0  0  0  0  0  0  0
   10.8495    5.0967   23.1479 O   0  0  0  0  0  0  0  0  0  0  0  0
    9.3270    3.4160   22.6313 N   0  0  0  0  0  0  0  0  0  0  0  0
    8.2619    4.3081   23.0604 C   0  0  0  0  0  0  0  0  0  0  0  0
    7.2068    4.3706   22.0595 N   0  0  0  0  0  0  0  0  0  0  0  0
    6.5320    3.0813   22.0300 C   0  0  0  0  0  0  0  0  0  0  0  0
    7.5032    1.9383   21.9653 C   0  0  0  0  0  0  0  0  0  0  0  0
    6.9567    0.7656   21.6157 N   0  0  0  0  0  0  0  0  0  0  0  0
    7.7791   -0.2836   21.5349 C   0  0  0  0  0  0  0  0  0  0  0  0
    7.1361   -1.5460   21.3076 N   0  0  0  0  0  0  0  0  0  0  0  0
    7.2027   -2.6027   22.3612 C   0  0  0  0  0  0  0  0  0  0  0  0
    8.3162   -3.6078   22.0598 C   0  0  0  0  0  0  0  0  0  0  0  0
    7.5534   -5.2534   22.1998 S   0  0  0  0  0  0  0  0  0  0  0  0
    7.6270   -5.9748   20.9589 O   0  0  0  0  0  0  0  0  0  0  0  0
    8.0035   -5.9362   23.3816 O   0  0  0  0  0  0  0  0  0  0  0  0
    5.9245   -4.6571   22.4669 C   0  0  0  0  0  0  0  0  0  0  0  0
    5.9084   -3.3208   22.5423 C   0  0  0  0  0  0  0  0  0  0  0  0
    6.5117   -1.8462   20.1257 C   0  0  0  0  0  0  0  0  0  0  0  0
    6.0481   -2.9639   19.9377 O   0  0  0  0  0  0  0  0  0  0  0  0
    6.4243   -0.7869   19.0404 C   0  0  0  0  0  0  0  0  0  0  0  0
    8.0236   -0.2439   18.5149 Cl  0  0  0  0  0  0  0  0  0  0  0  0
    9.1524   -0.1984   21.7964 C   0  0  0  0  0  0  0  0  0  0  0  0
    9.9008   -1.3524   21.5607 O   0  0  0  0  0  0  0  0  0  0  0  0
   10.9978   -1.7144   22.3452 C   0  0  0  0  0  0  0  0  0  0  0  0
   12.1998   -2.0160   21.7323 C   0  0  0  0  0  0  0  0  0  0  0  0
   13.2812   -2.3673   22.5186 C   0  0  0  0  0  0  0  0  0  0  0  0
   13.1043   -2.3984   23.8986 C   0  0  0  0  0  0  0  0  0  0  0  0
   11.9378   -2.1035   24.5042 N   0  0  0  0  0  0  0  0  0  0  0  0
   10.9067   -1.7654   23.7206 C   0  0  0  0  0  0  0  0  0  0  0  0
   14.2041   -2.7614   24.7708 C   0  0  0  0  0  0  0  0  0  0  0  0
   15.0512   -3.0331   25.4873 N   0  0  0  0  0  0  0  0  0  0  0  0
    9.7016    1.0204   22.1565 C   0  0  0  0  0  0  0  0  0  0  0  0
    8.8660    2.1333   22.2487 C   0  0  0  0  0  0  0  0  0  0  0  0
  1  2  1  0
  2  3  2  0
  3  4  1  0
  4  5  2  0
  5  6  1  0
  5  7  1  0
  7  8  1  0
  8  9  1  0
  9 10  1  0
 10 11  1  0
 11 12  2  0
 12 13  1  0
 13 14  1  0
 14 15  1  0
 15 16  1  0
 16 17  1  0
 17 18  2  0
 17 19  2  0
 17 20  1  0
 20 21  2  0
 14 22  1  0
 22 23  2  0
 22 24  1  0
 24 25  1  0
 13 26  2  0
 26 27  1  0
 27 28  1  0
 28 29  2  0
 29 30  1  0
 30 31  2  0
 31 32  1  0
 32 33  2  0
 31 34  1  0
 34 35  3  0
 26 36  1  0
 36 37  2  0
  6  2  1  0
 37  7  1  0
 37 11  1  0
 21 15  1  0
 33 28  1  0
M  END
