CVD-0000490|dock_bobby27042020.41|mol2|20|dock3
     RDKit          3D

 33 34  0  0  0  0  0  0  0  0999 V2000
   12.4668    4.6917   21.5893 N   0  0  0  0  0  0  0  0  0  0  0  0
   12.4118    4.0125   22.9593 S   0  0  0  0  0  0  0  0  0  0  0  0
   13.2017    2.7654   22.8781 O   0  0  0  0  0  0  0  0  0  0  0  0
   12.8638    4.9934   23.9691 O   0  0  0  0  0  0  0  0  0  0  0  0
   10.7903    3.5941   23.3117 N   0  0  0  0  0  0  0  0  0  0  0  0
   10.2092    2.4097   22.6682 C   0  0  0  0  0  0  0  0  0  0  0  0
   10.4363    1.1829   23.5285 C   0  0  0  0  0  0  0  0  0  0  0  0
   10.1459   -0.0758   22.8318 N   0  0  0  0  0  0  0  0  0  0  0  0
   11.2629   -0.6182   22.0437 C   0  0  0  0  0  0  0  0  0  0  0  0
   11.8036   -1.9180   22.6140 C   0  0  0  0  0  0  0  0  0  0  0  0
   13.2886   -1.8790   22.8623 C   0  0  0  0  0  0  0  0  0  0  0  0
   13.7535   -0.6748   24.3188 Br  0  0  0  0  0  0  0  0  0  0  0  0
    8.9194   -0.6339   22.9109 C   0  0  0  0  0  0  0  0  0  0  0  0
    8.0464   -0.1091   23.5754 O   0  0  0  0  0  0  0  0  0  0  0  0
    8.5927   -1.9369   22.1776 C   0  0  0  0  0  0  0  0  0  0  0  0
    7.1028   -1.9816   21.8041 C   0  0  0  0  0  0  0  0  0  0  0  0
    6.7854   -1.2282   20.5353 C   0  0  0  0  0  0  0  0  0  0  0  0
    5.8615   -1.7229   19.6279 C   0  0  0  0  0  0  0  0  0  0  0  0
    5.5682   -1.0393   18.4614 C   0  0  0  0  0  0  0  0  0  0  0  0
    6.2040    0.1606   18.1863 C   0  0  0  0  0  0  0  0  0  0  0  0
    5.9191    0.8402   17.0380 O   0  0  0  0  0  0  0  0  0  0  0  0
    7.1308    0.6668   19.0834 C   0  0  0  0  0  0  0  0  0  0  0  0
    7.4145   -0.0275   20.2460 C   0  0  0  0  0  0  0  0  0  0  0  0
    8.9370   -3.0532   23.0429 N   0  0  0  0  0  0  0  0  0  0  0  0
    8.2666   -3.2629   24.1969 C   0  0  0  0  0  0  0  0  0  0  0  0
    7.4012   -2.4847   24.5875 O   0  0  0  0  0  0  0  0  0  0  0  0
    8.6656   -4.4083   24.8412 N   0  0  0  0  0  0  0  0  0  0  0  0
    8.2203   -4.9788   26.0594 C   0  0  0  0  0  0  0  0  0  0  0  0
    6.9637   -4.7519   26.6117 C   0  0  0  0  0  0  0  0  0  0  0  0
    6.6311   -5.3612   27.8094 C   0  0  0  0  0  0  0  0  0  0  0  0
    7.5569   -6.1757   28.4198 C   0  0  0  0  0  0  0  0  0  0  0  0
    8.7677   -6.4117   27.9150 N   0  0  0  0  0  0  0  0  0  0  0  0
    9.0790   -5.8191   26.7588 C   0  0  0  0  0  0  0  0  0  0  0  0
  1  2  1  0
  2  3  2  0
  2  4  2  0
  2  5  1  0
  5  6  1  0
  6  7  1  0
  7  8  1  0
  8  9  1  0
  9 10  1  0
 10 11  1  0
 11 12  1  0
  8 13  1  0
 13 14  2  0
 13 15  1  0
 15 16  1  0
 16 17  1  0
 17 18  2  0
 18 19  1  0
 19 20  2  0
 20 21  1  0
 20 22  1  0
 22 23  2  0
 15 24  1  0
 24 25  1  0
 25 26  2  0
 25 27  1  0
 27 28  1  0
 28 29  2  0
 29 30  1  0
 30 31  2  0
 31 32  1  0
 32 33  2  0
 23 17  1  0
 33 28  1  0
M  END
