CVD-0000590|dock_bobby27042020.98|mol2|8|dock3
     RDKit          3D

 22 24  0  0  0  0  0  0  0  0999 V2000
   10.2995    5.5875   22.9006 Cl  0  0  0  0  0  0  0  0  0  0  0  0
   10.9411    3.9686   22.8915 C   0  0  0  0  0  0  0  0  0  0  0  0
   12.2988    3.7771   22.9980 C   0  0  0  0  0  0  0  0  0  0  0  0
   12.8006    2.4888   23.0399 C   0  0  0  0  0  0  0  0  0  0  0  0
   11.9562    1.3772   22.9729 C   0  0  0  0  0  0  0  0  0  0  0  0
   12.6161    0.0508   23.1579 C   0  0  0  0  0  0  0  0  0  0  0  0
   13.3839   -0.2054   24.2899 C   0  0  0  0  0  0  0  0  0  0  0  0
   13.9956   -1.4343   24.4731 C   0  0  0  0  0  0  0  0  0  0  0  0
   13.8503   -2.4288   23.5304 C   0  0  0  0  0  0  0  0  0  0  0  0
   13.0919   -2.1952   22.4039 C   0  0  0  0  0  0  0  0  0  0  0  0
   12.4792   -0.9671   22.2185 C   0  0  0  0  0  0  0  0  0  0  0  0
   10.5768    1.5974   22.7586 C   0  0  0  0  0  0  0  0  0  0  0  0
   10.0792    2.9004   22.7741 C   0  0  0  0  0  0  0  0  0  0  0  0
    9.5314    0.5469   22.5026 C   0  0  0  0  0  0  0  0  0  0  0  0
    9.4943   -0.4214   23.2548 O   0  0  0  0  0  0  0  0  0  0  0  0
    8.6708    0.7396   21.4676 N   0  0  0  0  0  0  0  0  0  0  0  0
    7.6684   -0.1072   20.9303 C   0  0  0  0  0  0  0  0  0  0  0  0
    6.9539   -1.0502   21.6638 C   0  0  0  0  0  0  0  0  0  0  0  0
    5.9939   -1.8184   21.0275 C   0  0  0  0  0  0  0  0  0  0  0  0
    5.7751   -1.6290   19.6826 C   0  0  0  0  0  0  0  0  0  0  0  0
    6.4451   -0.7373   18.9532 N   0  0  0  0  0  0  0  0  0  0  0  0
    7.3680    0.0001   19.5770 C   0  0  0  0  0  0  0  0  0  0  0  0
  1  2  1  0
  2  3  2  0
  3  4  1  0
  4  5  2  0
  5  6  1  0
  6  7  2  0
  7  8  1  0
  8  9  2  0
  9 10  1  0
 10 11  2  0
  5 12  1  0
 12 13  2  0
 12 14  1  0
 14 15  2  0
 14 16  1  0
 16 17  1  0
 17 18  2  0
 18 19  1  0
 19 20  2  0
 20 21  1  0
 21 22  2  0
 13  2  1  0
 22 17  1  0
 11  6  1  0
M  END
