CVD-0003373|dock_bobby27042020.74|mol2|9|dock3
     RDKit          3D

 20 22  0  0  0  0  0  0  0  0999 V2000
   14.6121   -2.2920   25.5752 C   0  0  0  0  0  0  0  0  0  0  0  0
   13.8839   -1.5006   24.5849 N   0  0  0  0  0  0  0  0  0  0  0  0
   12.7989   -0.7511   25.2250 C   0  0  0  0  0  0  0  0  0  0  0  0
   12.0726    0.1000   24.2000 C   0  0  0  0  0  0  0  0  0  0  0  0
   11.5418   -0.7382   23.1228 N   0  0  0  0  0  0  0  0  0  0  0  0
   12.5947   -1.5469   22.5007 C   0  0  0  0  0  0  0  0  0  0  0  0
   13.3206   -2.3663   23.5522 C   0  0  0  0  0  0  0  0  0  0  0  0
   10.2272   -0.7213   22.7501 C   0  0  0  0  0  0  0  0  0  0  0  0
    9.5370    0.2377   23.0529 O   0  0  0  0  0  0  0  0  0  0  0  0
    9.7282   -1.8168   22.0305 N   0  0  0  0  0  0  0  0  0  0  0  0
    8.4544   -2.0203   21.4596 C   0  0  0  0  0  0  0  0  0  0  0  0
    7.6661   -3.0739   21.8318 C   0  0  0  0  0  0  0  0  0  0  0  0
    7.8616   -4.0579   22.7133 F   0  0  0  0  0  0  0  0  0  0  0  0
    6.4989   -3.0594   21.1520 N   0  0  0  0  0  0  0  0  0  0  0  0
    6.4858   -1.9890   20.3078 C   0  0  0  0  0  0  0  0  0  0  0  0
    5.4774   -1.6683   19.4801 N   0  0  0  0  0  0  0  0  0  0  0  0
    5.6545   -0.5768   18.7278 C   0  0  0  0  0  0  0  0  0  0  0  0
    6.7912    0.1979   18.7717 C   0  0  0  0  0  0  0  0  0  0  0  0
    7.8210   -0.1496   19.6325 C   0  0  0  0  0  0  0  0  0  0  0  0
    7.6932   -1.2814   20.4453 C   0  0  0  0  0  0  0  0  0  0  0  0
  1  2  1  0
  2  3  1  0
  3  4  1  0
  4  5  1  0
  5  6  1  0
  6  7  1  0
  5  8  1  0
  8  9  2  0
  8 10  1  0
 10 11  1  0
 11 12  2  0
 12 13  1  0
 12 14  1  0
 14 15  1  0
 15 16  2  0
 16 17  1  0
 17 18  2  0
 18 19  1  0
 19 20  2  0
  7  2  1  0
 20 11  1  0
 20 15  1  0
M  END
