CVD-0001360|dock_bobby27042020.81|mol2|21|dock1
     RDKit          3D

 39 44  0  0  0  0  0  0  0  0999 V2000
    7.9811   -6.6935   28.2760 O   0  0  0  0  0  0  0  0  0  0  0  0
    8.3839   -5.9916   27.2214 C   0  0  0  0  0  0  0  0  0  0  0  0
    9.7763   -5.7443   27.0924 C   0  0  0  0  0  0  0  0  0  0  0  0
   10.2584   -5.0338   26.0395 C   0  0  0  0  0  0  0  0  0  0  0  0
    9.3759   -4.5273   25.0512 C   0  0  0  0  0  0  0  0  0  0  0  0
    9.5931   -3.8077   23.9319 N   0  0  0  0  0  0  0  0  0  0  0  0
    8.3632   -3.6422   23.4265 N   0  0  0  0  0  0  0  0  0  0  0  0
    7.3542   -4.1907   24.1160 N   0  0  0  0  0  0  0  0  0  0  0  0
    7.9901   -4.7599   25.1578 C   0  0  0  0  0  0  0  0  0  0  0  0
    7.5245   -5.5040   26.2681 C   0  0  0  0  0  0  0  0  0  0  0  0
    8.1649   -2.9084   22.2033 C   0  0  0  0  0  0  0  0  0  0  0  0
    8.8380   -1.6963   22.0697 C   0  0  0  0  0  0  0  0  0  0  0  0
    8.7255   -0.9183   20.9145 C   0  0  0  0  0  0  0  0  0  0  0  0
    9.4790    0.3837   20.8127 C   0  0  0  0  0  0  0  0  0  0  0  0
    8.9645    1.2973   20.1852 O   0  0  0  0  0  0  0  0  0  0  0  0
   10.8289    0.6267   21.4389 C   0  0  0  0  0  0  0  0  0  0  0  0
   11.1795    1.9224   21.8298 C   0  0  0  0  0  0  0  0  0  0  0  0
   12.4132    2.2164   22.4068 C   0  0  0  0  0  0  0  0  0  0  0  0
   13.3037    1.1689   22.6098 C   0  0  0  0  0  0  0  0  0  0  0  0
   14.5141    1.3653   23.1645 F   0  0  0  0  0  0  0  0  0  0  0  0
   12.9695   -0.1133   22.2458 C   0  0  0  0  0  0  0  0  0  0  0  0
   13.8496   -1.1079   22.4619 F   0  0  0  0  0  0  0  0  0  0  0  0
   11.7536   -0.4232   21.6598 C   0  0  0  0  0  0  0  0  0  0  0  0
   11.5154   -1.7262   21.3234 O   0  0  0  0  0  0  0  0  0  0  0  0
   12.6869    3.5843   22.7575 N   0  0  0  0  0  0  0  0  0  0  0  0
   12.5105    4.0609   23.9973 N   0  0  0  0  0  0  0  0  0  0  0  0
   12.8774    5.3535   23.8853 C   0  0  0  0  0  0  0  0  0  0  0  0
   12.9252    6.4105   24.8300 C   0  0  0  0  0  0  0  0  0  0  0  0
   13.3415    7.6486   24.4560 C   0  0  0  0  0  0  0  0  0  0  0  0
   13.7349    7.9053   23.1159 C   0  0  0  0  0  0  0  0  0  0  0  0
   14.1313    9.1390   22.8191 O   0  0  0  0  0  0  0  0  0  0  0  0
   13.6910    6.8865   22.1967 C   0  0  0  0  0  0  0  0  0  0  0  0
   13.2631    5.5842   22.5493 C   0  0  0  0  0  0  0  0  0  0  0  0
   13.1373    4.4472   21.8382 N   0  0  0  0  0  0  0  0  0  0  0  0
    7.8867   -1.3794   19.8775 C   0  0  0  0  0  0  0  0  0  0  0  0
    7.6867   -0.7160   18.7059 O   0  0  0  0  0  0  0  0  0  0  0  0
    7.2100   -2.5791   20.0199 C   0  0  0  0  0  0  0  0  0  0  0  0
    7.3409   -3.3490   21.1628 C   0  0  0  0  0  0  0  0  0  0  0  0
    6.6517   -4.5184   21.2256 O   0  0  0  0  0  0  0  0  0  0  0  0
  1  2  1  0
  2  3  1  0
  3  4  2  0
  4  5  1  0
  5  6  2  0
  6  7  1  0
  7  8  1  0
  8  9  2  0
  9 10  1  0
  7 11  1  0
 11 12  2  0
 12 13  1  0
 13 14  1  0
 14 15  2  0
 14 16  1  0
 16 17  2  0
 17 18  1  0
 18 19  2  0
 19 20  1  0
 19 21  1  0
 21 22  1  0
 21 23  2  0
 23 24  1  0
 18 25  1  0
 25 26  1  0
 26 27  2  0
 27 28  1  0
 28 29  2  0
 29 30  1  0
 30 31  1  0
 30 32  2  0
 32 33  1  0
 33 34  2  0
 13 35  2  0
 35 36  1  0
 35 37  1  0
 37 38  2  0
 38 39  1  0
 10  2  2  0
 38 11  1  0
  9  5  1  0
 23 16  1  0
 34 25  1  0
 33 27  1  0
M  END
