CVD-0002580|dock_bobby27042020.48|mol2|9|dock2
     RDKit          3D

 37 40  0  0  0  0  0  0  0  0999 V2000
    1.9246   -6.8743   23.1086 C   0  0  0  0  0  0  0  0  0  0  0  0
    1.6642   -5.4963   23.5328 N   0  0  0  0  0  0  0  0  0  0  0  0
    2.5991   -4.9844   24.5407 C   0  0  0  0  0  0  0  0  0  0  0  0
    4.0114   -4.9411   24.0193 C   0  0  0  0  0  0  0  0  0  0  0  0
    5.1665   -5.1918   24.7816 C   0  0  0  0  0  0  0  0  0  0  0  0
    6.2907   -5.0621   23.9885 C   0  0  0  0  0  0  0  0  0  0  0  0
    7.6924   -5.2432   24.4367 C   0  0  0  0  0  0  0  0  0  0  0  0
    8.4458   -6.2167   23.7784 C   0  0  0  0  0  0  0  0  0  0  0  0
    9.7797   -6.4180   24.0909 C   0  0  0  0  0  0  0  0  0  0  0  0
   10.3885   -5.6607   25.0666 C   0  0  0  0  0  0  0  0  0  0  0  0
    9.6582   -4.7150   25.7637 C   0  0  0  0  0  0  0  0  0  0  0  0
    8.3282   -4.5497   25.4573 C   0  0  0  0  0  0  0  0  0  0  0  0
    7.6332   -3.6759   26.2174 F   0  0  0  0  0  0  0  0  0  0  0  0
    5.8172   -4.7434   22.6864 N   0  0  0  0  0  0  0  0  0  0  0  0
    4.4303   -4.6686   22.7249 C   0  0  0  0  0  0  0  0  0  0  0  0
    6.6195   -4.4847   21.2141 S   0  0  0  0  0  0  0  0  0  0  0  0
    5.5817   -4.2155   20.2681 O   0  0  0  0  0  0  0  0  0  0  0  0
    7.4964   -5.5918   20.9915 O   0  0  0  0  0  0  0  0  0  0  0  0
    7.5490   -3.0031   21.4126 C   0  0  0  0  0  0  0  0  0  0  0  0
    8.7272   -3.0046   22.1395 C   0  0  0  0  0  0  0  0  0  0  0  0
    9.4292   -1.8211   22.2786 C   0  0  0  0  0  0  0  0  0  0  0  0
    8.9048   -0.6800   21.6731 C   0  0  0  0  0  0  0  0  0  0  0  0
    9.6321    0.5014   21.8275 O   0  0  0  0  0  0  0  0  0  0  0  0
    9.1726    1.6712   22.3516 C   0  0  0  0  0  0  0  0  0  0  0  0
    8.0098    1.9351   22.6113 O   0  0  0  0  0  0  0  0  0  0  0  0
   10.2785    2.6502   22.5909 C   0  0  0  0  0  0  0  0  0  0  0  0
   11.3461    2.7708   21.7059 C   0  0  0  0  0  0  0  0  0  0  0  0
   12.3618    3.6809   21.9396 C   0  0  0  0  0  0  0  0  0  0  0  0
   12.3142    4.4828   23.0680 C   0  0  0  0  0  0  0  0  0  0  0  0
   11.2619    4.3770   23.9622 C   0  0  0  0  0  0  0  0  0  0  0  0
   10.2520    3.4635   23.7182 C   0  0  0  0  0  0  0  0  0  0  0  0
   13.6119    5.6425   23.3747 S   0  0  0  0  0  0  0  0  0  0  0  0
   13.9685    6.3803   21.9994 N   0  0  0  0  0  0  0  0  0  0  0  0
   14.7692    4.8955   23.7669 O   0  0  0  0  0  0  0  0  0  0  0  0
   13.0952    6.6366   24.2669 O   0  0  0  0  0  0  0  0  0  0  0  0
    7.7823   -0.6600   20.9777 N   0  0  0  0  0  0  0  0  0  0  0  0
    7.1183   -1.8147   20.8552 C   0  0  0  0  0  0  0  0  0  0  0  0
  1  2  1  0
  2  3  1  0
  3  4  1  0
  4  5  1  0
  5  6  2  0
  6  7  1  0
  7  8  2  0
  8  9  1  0
  9 10  2  0
 10 11  1  0
 11 12  2  0
 12 13  1  0
  6 14  1  0
 14 15  1  0
 14 16  1  0
 16 17  2  0
 16 18  2  0
 16 19  1  0
 19 20  2  0
 20 21  1  0
 21 22  2  0
 22 23  1  0
 23 24  1  0
 24 25  2  0
 24 26  1  0
 26 27  2  0
 27 28  1  0
 28 29  2  0
 29 30  1  0
 30 31  2  0
 29 32  1  0
 32 33  1  0
 32 34  2  0
 32 35  2  0
 22 36  1  0
 36 37  2  0
 15  4  2  0
 37 19  1  0
 12  7  1  0
 31 26  1  0
M  END
