CVD-0000733|dock_bobby27042020.69|mol2|21|dock1
     RDKit          3D

 25 27  0  0  0  0  0  0  0  0999 V2000
   13.7179   -2.0728   22.5604 N   0  0  0  0  0  0  0  0  0  0  0  0
   12.6201   -1.3584   22.3716 C   0  0  0  0  0  0  0  0  0  0  0  0
   11.8090   -1.6286   21.4828 O   0  0  0  0  0  0  0  0  0  0  0  0
   12.4367   -0.1869   23.3191 C   0  0  0  0  0  0  0  0  0  0  0  0
   13.2236    0.9591   22.7255 C   0  0  0  0  0  0  0  0  0  0  0  0
   12.2087    2.0665   22.5719 C   0  0  0  0  0  0  0  0  0  0  0  0
   12.5562    3.4045   21.9635 C   0  0  0  0  0  0  0  0  0  0  0  0
   12.3671    4.5658   22.9130 C   0  0  0  0  0  0  0  0  0  0  0  0
   11.1293    5.1622   23.0863 C   0  0  0  0  0  0  0  0  0  0  0  0
   10.9923    6.2212   23.9665 C   0  0  0  0  0  0  0  0  0  0  0  0
   12.1061    6.6521   24.6506 C   0  0  0  0  0  0  0  0  0  0  0  0
   13.3106    6.0978   24.5061 N   0  0  0  0  0  0  0  0  0  0  0  0
   13.4185    5.0766   23.6507 C   0  0  0  0  0  0  0  0  0  0  0  0
   11.0096    1.7039   23.0426 C   0  0  0  0  0  0  0  0  0  0  0  0
   11.0096    0.2703   23.5166 C   0  0  0  0  0  0  0  0  0  0  0  0
    9.9972   -0.6470   22.8478 C   0  0  0  0  0  0  0  0  0  0  0  0
    9.7124   -1.8983   23.3758 C   0  0  0  0  0  0  0  0  0  0  0  0
    8.7924   -2.7287   22.7587 C   0  0  0  0  0  0  0  0  0  0  0  0
    8.1498   -2.3113   21.6058 C   0  0  0  0  0  0  0  0  0  0  0  0
    8.4188   -1.0629   21.0591 C   0  0  0  0  0  0  0  0  0  0  0  0
    9.3464   -0.2431   21.6912 C   0  0  0  0  0  0  0  0  0  0  0  0
    7.7315   -0.6072   19.8118 C   0  0  0  0  0  0  0  0  0  0  0  0
    7.5282    0.7051   19.7862 F   0  0  0  0  0  0  0  0  0  0  0  0
    8.4195   -0.8915   18.7119 F   0  0  0  0  0  0  0  0  0  0  0  0
    6.5370   -1.1647   19.6494 F   0  0  0  0  0  0  0  0  0  0  0  0
  1  2  1  0
  2  3  2  0
  4  2  1  0
  4  5  1  0
  5  6  1  0
  6  7  1  0
  7  8  1  0
  8  9  2  0
  9 10  1  0
 10 11  2  0
 11 12  1  0
 12 13  2  0
  6 14  2  0
 14 15  1  0
 15 16  1  0
 16 17  2  0
 17 18  1  0
 18 19  2  0
 19 20  1  0
 20 21  2  0
 20 22  1  0
 22 23  1  0
 22 24  1  0
 22 25  1  0
 15  4  1  0
 21 16  1  0
 13  8  1  0
M  END
