CVD-0002348|dock_bobby27042020.63|mol2|34|dock2
     RDKit          3D

 20 21  0  0  0  0  0  0  0  0999 V2000
    7.2069   -4.9516   22.2909 C   0  0  0  0  0  0  0  0  0  0  0  0
    8.1463   -3.8557   22.7253 C   0  0  0  0  0  0  0  0  0  0  0  0
    8.2386   -2.7086   21.8012 N   0  0  0  0  0  0  0  0  0  0  0  0
    9.0646   -1.6294   22.3614 C   0  0  0  0  0  0  0  0  0  0  0  0
   10.4033   -2.1096   22.8995 C   0  0  0  0  0  0  0  0  0  0  0  0
   11.3790   -1.0209   23.0411 N   0  0  0  0  0  0  0  0  0  0  0  0
   12.7944   -1.3807   22.8091 C   0  0  0  0  0  0  0  0  0  0  0  0
   13.3588   -2.3194   23.8651 C   0  0  0  0  0  0  0  0  0  0  0  0
   14.0330   -1.6269   25.0638 C   0  0  0  0  0  0  0  0  0  0  0  0
   13.3375   -0.4246   25.4104 O   0  0  0  0  0  0  0  0  0  0  0  0
   11.9163   -0.5069   25.4358 C   0  0  0  0  0  0  0  0  0  0  0  0
   11.2803   -0.0532   24.1440 C   0  0  0  0  0  0  0  0  0  0  0  0
    6.9222   -2.1824   21.4115 C   0  0  0  0  0  0  0  0  0  0  0  0
    6.9731   -0.9627   20.5078 C   0  0  0  0  0  0  0  0  0  0  0  0
    8.0604   -1.0853   19.5765 O   0  0  0  0  0  0  0  0  0  0  0  0
    7.8523   -0.0906   18.5661 C   0  0  0  0  0  0  0  0  0  0  0  0
    6.3442    0.2150   18.5270 C   0  0  0  0  0  0  0  0  0  0  0  0
    5.7681    0.0219   17.2345 O   0  0  0  0  0  0  0  0  0  0  0  0
    5.7635   -0.7116   19.6178 C   0  0  0  0  0  0  0  0  0  0  0  0
    5.3822   -1.9501   19.0264 O   0  0  0  0  0  0  0  0  0  0  0  0
  1  2  1  0
  2  3  1  0
  3  4  1  0
  4  5  1  0
  5  6  1  0
  6  7  1  0
  7  8  1  0
  8  9  1  0
  9 10  1  0
 10 11  1  0
 11 12  1  0
  3 13  1  0
 13 14  1  0
 14 15  1  0
 15 16  1  0
 16 17  1  0
 17 18  1  0
 17 19  1  0
 19 20  1  0
 12  6  1  0
 19 14  1  0
M  END
