CVD-0003667|dock_bobby27042020.1|mol2|20|dock1
     RDKit          3D

 19 19  0  0  0  0  0  0  0  0999 V2000
   13.9772   -0.8192   25.1578 C   0  0  0  0  0  0  0  0  0  0  0  0
   13.1168   -2.0529   25.3330 C   0  0  0  0  0  0  0  0  0  0  0  0
   13.9654   -3.3011   25.4539 C   0  0  0  0  0  0  0  0  0  0  0  0
   12.2170   -2.1857   24.1838 N   0  0  0  0  0  0  0  0  0  0  0  0
   11.1115   -1.4512   24.0315 C   0  0  0  0  0  0  0  0  0  0  0  0
   10.7639   -0.6032   24.8492 O   0  0  0  0  0  0  0  0  0  0  0  0
   10.3092   -1.7321   22.7785 C   0  0  0  0  0  0  0  0  0  0  0  0
    9.5936   -0.4758   22.2974 C   0  0  0  0  0  0  0  0  0  0  0  0
    8.7628   -0.7748   21.0665 C   0  0  0  0  0  0  0  0  0  0  0  0
    7.8037   -1.8371   21.3580 N   0  0  0  0  0  0  0  0  0  0  0  0
    8.4470   -3.0794   21.7720 C   0  0  0  0  0  0  0  0  0  0  0  0
    9.2871   -2.8401   23.0221 C   0  0  0  0  0  0  0  0  0  0  0  0
    6.4963   -1.8289   21.0279 C   0  0  0  0  0  0  0  0  0  0  0  0
    5.7491   -2.7601   21.3000 O   0  0  0  0  0  0  0  0  0  0  0  0
    5.9156   -0.6322   20.2872 C   0  0  0  0  0  0  0  0  0  0  0  0
    6.4158   -0.5519   18.5770 S   0  0  0  0  0  0  0  0  0  0  0  0
    5.6091    0.8625   17.9229 C   0  0  0  0  0  0  0  0  0  0  0  0
    7.8376   -0.3310   18.5501 O   0  0  0  0  0  0  0  0  0  0  0  0
    5.9243   -1.7284   17.9093 O   0  0  0  0  0  0  0  0  0  0  0  0
  1  2  1  0
  2  3  1  0
  2  4  1  0
  4  5  1  0
  5  6  2  0
  5  7  1  0
  7  8  1  0
  8  9  1  0
  9 10  1  0
 10 11  1  0
 11 12  1  0
 10 13  1  0
 13 14  2  0
 13 15  1  0
 15 16  1  0
 16 17  1  0
 16 18  2  0
 16 19  2  0
 12  7  1  0
M  END
