CVD-0001311|dock_bobby27042020.24|mol2|20|dock2
     RDKit          3D

 17 18  0  0  0  0  0  0  0  0999 V2000
    5.2826   -2.3023   17.7699 F   0  0  0  0  0  0  0  0  0  0  0  0
    5.7502   -1.0207   17.9643 C   0  0  0  0  0  0  0  0  0  0  0  0
    5.6366   -0.5306   19.6667 S   0  0  0  0  0  0  0  0  0  0  0  0
    6.1494   -1.9645   20.5465 C   0  0  0  0  0  0  0  0  0  0  0  0
    5.6811   -3.0489   20.3150 O   0  0  0  0  0  0  0  0  0  0  0  0
    7.1999   -1.6957   21.5993 C   0  0  0  0  0  0  0  0  0  0  0  0
    8.4169   -1.0096   20.9911 C   0  0  0  0  0  0  0  0  0  0  0  0
    9.4802   -0.7791   22.0450 C   0  0  0  0  0  0  0  0  0  0  0  0
    9.8560   -2.0492   22.6606 N   0  0  0  0  0  0  0  0  0  0  0  0
    8.7307   -2.7186   23.3041 C   0  0  0  0  0  0  0  0  0  0  0  0
    7.6324   -2.9914   22.2819 C   0  0  0  0  0  0  0  0  0  0  0  0
   11.1147   -2.4670   22.8939 C   0  0  0  0  0  0  0  0  0  0  0  0
   11.3319   -3.5324   23.4389 O   0  0  0  0  0  0  0  0  0  0  0  0
   12.2704   -1.5871   22.4625 C   0  0  0  0  0  0  0  0  0  0  0  0
   12.4999   -0.2255   23.1326 C   0  0  0  0  0  0  0  0  0  0  0  0
   14.0048   -0.4757   22.9742 C   0  0  0  0  0  0  0  0  0  0  0  0
   13.7218   -1.9741   22.7672 C   0  0  0  0  0  0  0  0  0  0  0  0
  1  2  1  0
  2  3  1  0
  3  4  1  0
  4  5  2  0
  4  6  1  0
  6  7  1  0
  7  8  1  0
  8  9  1  0
  9 10  1  0
 10 11  1  0
  9 12  1  0
 12 13  2  0
 12 14  1  0
 14 15  1  0
 15 16  1  0
 16 17  1  0
 11  6  1  0
 17 14  1  0
M  END
