CVD-0000567|dock_bobby27042020.26|mol2|47|dock3
     RDKit          3D

 23 25  0  0  0  0  0  0  0  0999 V2000
    8.5554    1.7661   21.8813 O   0  0  0  0  0  0  0  0  0  0  0  0
    9.3562    0.9815   21.3844 C   0  0  0  0  0  0  0  0  0  0  0  0
   10.7799    0.8610   21.8908 C   0  0  0  0  0  0  0  0  0  0  0  0
   11.3599    2.0186   22.7357 C   0  0  0  0  0  0  0  0  0  0  0  0
   11.1433    3.4007   22.0625 C   0  0  0  0  0  0  0  0  0  0  0  0
   11.8331    4.5879   22.6907 C   0  0  0  0  0  0  0  0  0  0  0  0
   13.0986    4.9755   22.2775 C   0  0  0  0  0  0  0  0  0  0  0  0
   13.7285    6.0674   22.8511 C   0  0  0  0  0  0  0  0  0  0  0  0
   13.0996    6.7862   23.8446 C   0  0  0  0  0  0  0  0  0  0  0  0
   11.8408    6.4134   24.2638 C   0  0  0  0  0  0  0  0  0  0  0  0
   11.2116    5.3214   23.6897 C   0  0  0  0  0  0  0  0  0  0  0  0
   12.8684    1.7852   22.7424 C   0  0  0  0  0  0  0  0  0  0  0  0
   13.2238    0.5408   23.5314 C   0  0  0  0  0  0  0  0  0  0  0  0
   12.6896    0.6142   24.9537 C   0  0  0  0  0  0  0  0  0  0  0  0
   11.1892    0.8578   24.9579 C   0  0  0  0  0  0  0  0  0  0  0  0
   10.8216    2.1006   24.1572 C   0  0  0  0  0  0  0  0  0  0  0  0
    9.0879    0.1430   20.3538 N   0  0  0  0  0  0  0  0  0  0  0  0
    7.9079   -0.0697   19.5981 C   0  0  0  0  0  0  0  0  0  0  0  0
    6.6761    0.0822   20.2217 C   0  0  0  0  0  0  0  0  0  0  0  0
    5.5129   -0.1211   19.5005 C   0  0  0  0  0  0  0  0  0  0  0  0
    5.6136   -0.4712   18.1741 C   0  0  0  0  0  0  0  0  0  0  0  0
    6.7797   -0.6247   17.5467 N   0  0  0  0  0  0  0  0  0  0  0  0
    7.8981   -0.4263   18.2514 C   0  0  0  0  0  0  0  0  0  0  0  0
  1  2  2  0
  2  3  1  0
  3  4  1  0
  4  5  1  0
  5  6  1  0
  6  7  2  0
  7  8  1  0
  8  9  2  0
  9 10  1  0
 10 11  2  0
  4 12  1  0
 12 13  1  0
 13 14  1  0
 14 15  1  0
 15 16  1  0
  2 17  1  0
 17 18  1  0
 18 19  2  0
 19 20  1  0
 20 21  2  0
 21 22  1  0
 22 23  2  0
 16  4  1  0
 23 18  1  0
 11  6  1  0
M  END
