CVD-0002548|dock_bobby27042020.77|mol2|4|dock3
     RDKit          3D

 32 33  0  0  0  0  0  0  0  0999 V2000
   12.8625    5.8498   23.9342 C   0  0  0  0  0  0  0  0  0  0  0  0
   13.8549    4.6544   23.1259 S   0  0  0  0  0  0  0  0  0  0  0  0
   15.1261    4.6169   23.7804 O   0  0  0  0  0  0  0  0  0  0  0  0
   13.8173    4.9227   21.7214 O   0  0  0  0  0  0  0  0  0  0  0  0
   13.1694    3.2223   23.3490 N   0  0  0  0  0  0  0  0  0  0  0  0
   13.8325    2.0137   22.8451 C   0  0  0  0  0  0  0  0  0  0  0  0
   13.6501    0.8593   23.8140 C   0  0  0  0  0  0  0  0  0  0  0  0
   12.4244    0.0315   23.5119 C   0  0  0  0  0  0  0  0  0  0  0  0
   12.4551   -0.9626   22.5477 C   0  0  0  0  0  0  0  0  0  0  0  0
   11.3336   -1.7239   22.2718 C   0  0  0  0  0  0  0  0  0  0  0  0
   10.1403   -1.5158   22.9544 C   0  0  0  0  0  0  0  0  0  0  0  0
   10.1104   -0.5176   23.9252 C   0  0  0  0  0  0  0  0  0  0  0  0
   11.2369    0.2397   24.1948 C   0  0  0  0  0  0  0  0  0  0  0  0
    8.9511   -2.3687   22.6168 C   0  0  0  0  0  0  0  0  0  0  0  0
    8.1674   -2.6877   23.5059 O   0  0  0  0  0  0  0  0  0  0  0  0
    8.7603   -2.7702   21.3521 N   0  0  0  0  0  0  0  0  0  0  0  0
    7.6193   -3.5964   20.9928 C   0  0  0  0  0  0  0  0  0  0  0  0
    6.3231   -2.7770   21.1074 C   0  0  0  0  0  0  0  0  0  0  0  0
    6.2046   -1.6604   20.0985 C   0  0  0  0  0  0  0  0  0  0  0  0
    5.5261   -1.8507   18.9048 C   0  0  0  0  0  0  0  0  0  0  0  0
    5.4163   -0.8327   17.9743 C   0  0  0  0  0  0  0  0  0  0  0  0
    5.9918    0.4013   18.2305 C   0  0  0  0  0  0  0  0  0  0  0  0
    5.8871    1.4097   17.3175 O   0  0  0  0  0  0  0  0  0  0  0  0
    6.6743    0.6059   19.4188 C   0  0  0  0  0  0  0  0  0  0  0  0
    6.7763   -0.4211   20.3405 C   0  0  0  0  0  0  0  0  0  0  0  0
    7.5581   -4.8351   21.8838 C   0  0  0  0  0  0  0  0  0  0  0  0
    8.2506   -4.9015   22.8959 O   0  0  0  0  0  0  0  0  0  0  0  0
    6.7377   -5.8160   21.5067 N   0  0  0  0  0  0  0  0  0  0  0  0
    6.6104   -7.0429   22.2820 C   0  0  0  0  0  0  0  0  0  0  0  0
    5.3878   -7.0750   23.0934 C   0  0  0  0  0  0  0  0  0  0  0  0
    4.3965   -7.1594   23.7388 C   0  0  0  0  0  0  0  0  0  0  0  0
    2.8576   -7.2837   24.6661 Br  0  0  0  0  0  0  0  0  0  0  0  0
  1  2  1  0
  2  3  2  0
  2  4  2  0
  2  5  1  0
  5  6  1  0
  6  7  1  0
  7  8  1  0
  8  9  2  0
  9 10  1  0
 10 11  2  0
 11 12  1  0
 12 13  2  0
 11 14  1  0
 14 15  2  0
 14 16  1  0
 16 17  1  0
 17 18  1  0
 18 19  1  0
 19 20  2  0
 20 21  1  0
 21 22  2  0
 22 23  1  0
 22 24  1  0
 24 25  2  0
 17 26  1  0
 26 27  2  0
 26 28  1  0
 28 29  1  0
 29 30  1  0
 30 31  3  0
 31 32  1  0
 13  8  1  0
 25 19  1  0
M  END
