CVD-0002653|dock_bobby27042020.90|mol2|34|dock1
     RDKit          3D

 29 30  0  0  0  0  0  0  0  0999 V2000
    5.4634    1.0849   18.3469 C   0  0  0  0  0  0  0  0  0  0  0  0
    6.2478    0.7151   19.5714 C   0  0  0  0  0  0  0  0  0  0  0  0
    7.1974    1.3878   19.9603 O   0  0  0  0  0  0  0  0  0  0  0  0
    5.8596   -0.3991   20.2015 N   0  0  0  0  0  0  0  0  0  0  0  0
    6.5215   -0.8979   21.3828 C   0  0  0  0  0  0  0  0  0  0  0  0
    7.9327   -1.0880   21.1485 N   0  0  0  0  0  0  0  0  0  0  0  0
    8.7966   -1.1796   22.1835 C   0  0  0  0  0  0  0  0  0  0  0  0
    8.4416   -1.0331   23.3502 O   0  0  0  0  0  0  0  0  0  0  0  0
   10.0750   -1.4439   21.8315 N   0  0  0  0  0  0  0  0  0  0  0  0
   11.1838   -1.5004   22.7859 C   0  0  0  0  0  0  0  0  0  0  0  0
   11.4341   -0.1221   23.4315 C   0  0  0  0  0  0  0  0  0  0  0  0
   12.6322   -0.1310   24.3790 C   0  0  0  0  0  0  0  0  0  0  0  0
   13.8837   -0.6540   23.6859 C   0  0  0  0  0  0  0  0  0  0  0  0
   13.6410   -2.0281   23.0780 C   0  0  0  0  0  0  0  0  0  0  0  0
   12.4681   -2.0012   22.1034 C   0  0  0  0  0  0  0  0  0  0  0  0
    5.8890   -2.2212   21.8049 C   0  0  0  0  0  0  0  0  0  0  0  0
    5.4072   -2.9958   20.9826 O   0  0  0  0  0  0  0  0  0  0  0  0
    5.9049   -2.4585   23.1163 N   0  0  0  0  0  0  0  0  0  0  0  0
    5.3676   -3.6819   23.6935 C   0  0  0  0  0  0  0  0  0  0  0  0
    5.9862   -4.9403   23.1311 C   0  0  0  0  0  0  0  0  0  0  0  0
    5.3032   -5.6453   22.1449 C   0  0  0  0  0  0  0  0  0  0  0  0
    5.8630   -6.7885   21.6193 C   0  0  0  0  0  0  0  0  0  0  0  0
    7.0414   -7.2683   22.0064 N   0  0  0  0  0  0  0  0  0  0  0  0
    7.7029   -6.5998   22.9557 C   0  0  0  0  0  0  0  0  0  0  0  0
    7.2335   -5.4332   23.5591 C   0  0  0  0  0  0  0  0  0  0  0  0
    7.9420   -4.7270   24.5715 N   0  0  0  0  0  0  0  0  0  0  0  0
    8.6893   -5.1727   25.6155 C   0  0  0  0  0  0  0  0  0  0  0  0
    9.2544   -4.0728   26.4654 C   0  0  0  0  0  0  0  0  0  0  0  0
    8.9004   -6.3490   25.8895 O   0  0  0  0  0  0  0  0  0  0  0  0
  1  2  1  0
  2  3  2  0
  2  4  1  0
  4  5  1  0
  5  6  1  0
  6  7  1  0
  7  8  2  0
  7  9  1  0
  9 10  1  0
 10 11  1  0
 11 12  1  0
 12 13  1  0
 13 14  1  0
 14 15  1  0
  5 16  1  0
 16 17  2  0
 16 18  1  0
 18 19  1  0
 19 20  1  0
 20 21  2  0
 21 22  1  0
 22 23  2  0
 23 24  1  0
 24 25  2  0
 25 26  1  0
 26 27  1  0
 27 28  1  0
 27 29  2  0
 15 10  1  0
 25 20  1  0
M  END
