CVD-0002991|dock_bobby27042020.89|mol2|24|dock2
     RDKit          3D

 21 23  0  0  0  0  0  0  0  0999 V2000
    8.0228   -5.2311   27.6632 C   0  0  0  0  0  0  0  0  0  0  0  0
    8.9648   -4.6769   26.6222 C   0  0  0  0  0  0  0  0  0  0  0  0
    9.9942   -5.4512   26.1107 C   0  0  0  0  0  0  0  0  0  0  0  0
   10.8584   -4.9378   25.1584 C   0  0  0  0  0  0  0  0  0  0  0  0
   10.6998   -3.6387   24.7078 C   0  0  0  0  0  0  0  0  0  0  0  0
    9.6774   -2.8433   25.2044 C   0  0  0  0  0  0  0  0  0  0  0  0
    8.8239   -3.3773   26.1584 C   0  0  0  0  0  0  0  0  0  0  0  0
    9.4964   -1.4111   24.7187 C   0  0  0  0  0  0  0  0  0  0  0  0
    8.5162   -1.3712   23.5940 C   0  0  0  0  0  0  0  0  0  0  0  0
    9.0449   -2.0699   22.3962 N   0  0  0  0  0  0  0  0  0  0  0  0
   10.4116   -1.7279   21.9539 C   0  0  0  0  0  0  0  0  0  0  0  0
   11.2442   -0.9375   22.9678 C   0  0  0  0  0  0  0  0  0  0  0  0
   12.4459   -0.3541   22.5785 C   0  0  0  0  0  0  0  0  0  0  0  0
   13.2134    0.3660   23.4764 C   0  0  0  0  0  0  0  0  0  0  0  0
   12.7848    0.5104   24.7771 C   0  0  0  0  0  0  0  0  0  0  0  0
   11.5907   -0.0667   25.1722 C   0  0  0  0  0  0  0  0  0  0  0  0
   10.8019   -0.7966   24.2830 C   0  0  0  0  0  0  0  0  0  0  0  0
    8.3367   -2.9492   21.6481 C   0  0  0  0  0  0  0  0  0  0  0  0
    8.8328   -3.5009   20.6737 O   0  0  0  0  0  0  0  0  0  0  0  0
    6.9029   -3.2510   22.0408 C   0  0  0  0  0  0  0  0  0  0  0  0
    6.1421   -4.3361   20.8699 Cl  0  0  0  0  0  0  0  0  0  0  0  0
  1  2  1  0
  2  3  2  0
  3  4  1  0
  4  5  2  0
  5  6  1  0
  6  7  2  0
  6  8  1  0
  8  9  1  0
  9 10  1  0
 10 11  1  0
 11 12  1  0
 12 13  2  0
 13 14  1  0
 14 15  2  0
 15 16  1  0
 16 17  2  0
 10 18  1  0
 18 19  2  0
 18 20  1  0
 20 21  1  0
  7  2  1  0
 17  8  1  0
 17 12  1  0
M  END
