CVD-0003564|dock_bobby27042020.1|mol2|35|dock2
     RDKit          3D

 24 26  0  0  0  0  0  0  0  0999 V2000
   14.2238    5.2952   22.4356 N   0  0  0  0  0  0  0  0  0  0  0  0
   12.7211    4.7460   22.4935 S   0  0  0  0  0  0  0  0  0  0  0  0
   12.0668    5.1757   21.2943 O   0  0  0  0  0  0  0  0  0  0  0  0
   12.1753    5.1386   23.7581 O   0  0  0  0  0  0  0  0  0  0  0  0
   12.7690    2.9797   22.4649 C   0  0  0  0  0  0  0  0  0  0  0  0
   13.9860    2.3194   22.4884 C   0  0  0  0  0  0  0  0  0  0  0  0
   13.9984    0.9365   22.4638 C   0  0  0  0  0  0  0  0  0  0  0  0
   12.8176    0.2004   22.4161 C   0  0  0  0  0  0  0  0  0  0  0  0
   12.8470   -1.3029   22.3552 C   0  0  0  0  0  0  0  0  0  0  0  0
   11.5048   -1.9164   22.6877 C   0  0  0  0  0  0  0  0  0  0  0  0
   10.4326   -1.2668   21.9314 N   0  0  0  0  0  0  0  0  0  0  0  0
    9.1715   -1.9767   22.1494 C   0  0  0  0  0  0  0  0  0  0  0  0
    7.9555   -1.2360   21.6200 C   0  0  0  0  0  0  0  0  0  0  0  0
    7.0138   -0.9722   22.3602 O   0  0  0  0  0  0  0  0  0  0  0  0
    8.0469   -0.9174   20.3063 N   0  0  0  0  0  0  0  0  0  0  0  0
    7.1480   -0.2329   19.4517 C   0  0  0  0  0  0  0  0  0  0  0  0
    5.8512    0.1177   19.8129 C   0  0  0  0  0  0  0  0  0  0  0  0
    5.0528    0.7868   18.9013 C   0  0  0  0  0  0  0  0  0  0  0  0
    5.5680    1.0855   17.6610 C   0  0  0  0  0  0  0  0  0  0  0  0
    6.8059    0.7623   17.2868 N   0  0  0  0  0  0  0  0  0  0  0  0
    7.5687    0.1169   18.1737 C   0  0  0  0  0  0  0  0  0  0  0  0
   10.2955    0.1156   22.3930 C   0  0  0  0  0  0  0  0  0  0  0  0
   11.5926    0.8725   22.3925 C   0  0  0  0  0  0  0  0  0  0  0  0
   11.5829    2.2635   22.4174 C   0  0  0  0  0  0  0  0  0  0  0  0
  1  2  1  0
  2  3  2  0
  2  4  2  0
  2  5  1  0
  5  6  2  0
  6  7  1  0
  7  8  2  0
  8  9  1  0
  9 10  1  0
 10 11  1  0
 11 12  1  0
 12 13  1  0
 13 14  2  0
 13 15  1  0
 15 16  1  0
 16 17  2  0
 17 18  1  0
 18 19  2  0
 19 20  1  0
 20 21  2  0
 11 22  1  0
 22 23  1  0
 23 24  2  0
 24  5  1  0
 23  8  1  0
 21 16  1  0
M  END
