CVD-0002490|dock_bobby27042020.48|mol2|23|dock1
     RDKit          3D

 38 41  0  0  0  0  0  0  0  0999 V2000
   11.9298    5.9980   25.9181 C   0  0  0  0  0  0  0  0  0  0  0  0
   11.3829    5.6650   24.6020 N   0  0  0  0  0  0  0  0  0  0  0  0
    9.9847    5.6708   24.4390 C   0  0  0  0  0  0  0  0  0  0  0  0
    9.3752    6.0877   23.2583 C   0  0  0  0  0  0  0  0  0  0  0  0
    8.0036    6.0533   23.2351 C   0  0  0  0  0  0  0  0  0  0  0  0
    7.2433    5.6531   24.2462 N   0  0  0  0  0  0  0  0  0  0  0  0
    7.9380    5.2807   25.3203 C   0  0  0  0  0  0  0  0  0  0  0  0
    9.2615    5.2640   25.4862 N   0  0  0  0  0  0  0  0  0  0  0  0
    7.1034    6.5580   21.7706 S   0  0  0  0  0  0  0  0  0  0  0  0
    5.8571    5.5647   21.6190 N   0  0  0  0  0  0  0  0  0  0  0  0
    6.5796    7.8687   22.0132 O   0  0  0  0  0  0  0  0  0  0  0  0
    7.9588    6.3477   20.6414 O   0  0  0  0  0  0  0  0  0  0  0  0
   12.3040    5.4445   23.5139 C   0  0  0  0  0  0  0  0  0  0  0  0
   13.3106    6.3772   23.2622 C   0  0  0  0  0  0  0  0  0  0  0  0
   14.2342    6.1671   22.2549 C   0  0  0  0  0  0  0  0  0  0  0  0
   14.1734    5.0221   21.4819 C   0  0  0  0  0  0  0  0  0  0  0  0
   15.0988    4.8100   20.5019 O   0  0  0  0  0  0  0  0  0  0  0  0
   13.1728    4.0895   21.6997 C   0  0  0  0  0  0  0  0  0  0  0  0
   12.2296    4.3051   22.6927 C   0  0  0  0  0  0  0  0  0  0  0  0
   11.1842    3.4057   22.9080 O   0  0  0  0  0  0  0  0  0  0  0  0
   11.3787    2.0281   23.0127 C   0  0  0  0  0  0  0  0  0  0  0  0
   12.6344    1.4469   23.1471 C   0  0  0  0  0  0  0  0  0  0  0  0
   12.7586    0.0723   23.2376 C   0  0  0  0  0  0  0  0  0  0  0  0
   11.6474   -0.7539   23.1947 C   0  0  0  0  0  0  0  0  0  0  0  0
   11.7865   -2.2533   23.2976 C   0  0  0  0  0  0  0  0  0  0  0  0
   10.4019   -0.1604   23.0599 C   0  0  0  0  0  0  0  0  0  0  0  0
   10.2426    1.2181   22.9663 C   0  0  0  0  0  0  0  0  0  0  0  0
    8.8661    1.8242   22.8222 C   0  0  0  0  0  0  0  0  0  0  0  0
    7.8779    0.8744   22.2898 N   0  0  0  0  0  0  0  0  0  0  0  0
    6.5210    1.4081   22.4403 C   0  0  0  0  0  0  0  0  0  0  0  0
    5.5029    0.4068   21.9271 C   0  0  0  0  0  0  0  0  0  0  0  0
    5.7664    0.0829   20.5234 N   0  0  0  0  0  0  0  0  0  0  0  0
    7.1380   -0.3980   20.3299 C   0  0  0  0  0  0  0  0  0  0  0  0
    8.1323    0.6105   20.8759 C   0  0  0  0  0  0  0  0  0  0  0  0
    4.8272    0.1974   19.5545 C   0  0  0  0  0  0  0  0  0  0  0  0
    3.6907    0.5770   19.8079 O   0  0  0  0  0  0  0  0  0  0  0  0
    5.2110   -0.1494   18.1285 C   0  0  0  0  0  0  0  0  0  0  0  0
    5.5955   -1.8677   17.9644 Cl  0  0  0  0  0  0  0  0  0  0  0  0
  1  2  1  0
  2  3  1  0
  3  4  2  0
  4  5  1  0
  5  6  2  0
  6  7  1  0
  7  8  2  0
  5  9  1  0
  9 10  1  0
  9 11  2  0
  9 12  2  0
  2 13  1  0
 13 14  2  0
 14 15  1  0
 15 16  2  0
 16 17  1  0
 16 18  1  0
 18 19  2  0
 19 20  1  0
 20 21  1  0
 21 22  2  0
 22 23  1  0
 23 24  2  0
 24 25  1  0
 24 26  1  0
 26 27  2  0
 27 28  1  0
 28 29  1  0
 29 30  1  0
 30 31  1  0
 31 32  1  0
 32 33  1  0
 33 34  1  0
 32 35  1  0
 35 36  2  0
 35 37  1  0
 37 38  1  0
  8  3  1  0
 19 13  1  0
 27 21  1  0
 34 29  1  0
M  END
