CVD-0000561|dock_bobby27042020.12|mol2|33|dock3
     RDKit          3D

 23 25  0  0  0  0  0  0  0  0999 V2000
    9.2089    0.4017   22.3610 O   0  0  0  0  0  0  0  0  0  0  0  0
    9.6161   -0.3671   21.4961 C   0  0  0  0  0  0  0  0  0  0  0  0
   10.8458   -1.2293   21.7036 C   0  0  0  0  0  0  0  0  0  0  0  0
   11.8839   -0.7306   22.7402 C   0  0  0  0  0  0  0  0  0  0  0  0
   11.2345   -0.9159   24.1092 C   0  0  0  0  0  0  0  0  0  0  0  0
   12.2193   -0.6229   25.2235 C   0  0  0  0  0  0  0  0  0  0  0  0
   13.4658   -1.4863   25.1037 C   0  0  0  0  0  0  0  0  0  0  0  0
   14.1138   -1.3172   23.7390 C   0  0  0  0  0  0  0  0  0  0  0  0
   13.1277   -1.5986   22.6124 C   0  0  0  0  0  0  0  0  0  0  0  0
   12.1285    0.7126   22.6283 C   0  0  0  0  0  0  0  0  0  0  0  0
   12.4102    1.8733   22.5530 C   0  0  0  0  0  0  0  0  0  0  0  0
   12.8323    3.2351   22.4844 C   0  0  0  0  0  0  0  0  0  0  0  0
   12.7485    4.1650   21.3967 C   0  0  0  0  0  0  0  0  0  0  0  0
   13.2998    5.3199   21.8798 C   0  0  0  0  0  0  0  0  0  0  0  0
   13.6754    5.0884   23.1424 N   0  0  0  0  0  0  0  0  0  0  0  0
   13.4031    3.8223   23.5420 N   0  0  0  0  0  0  0  0  0  0  0  0
    9.0442   -0.5446   20.2802 N   0  0  0  0  0  0  0  0  0  0  0  0
    7.9031    0.0469   19.6828 C   0  0  0  0  0  0  0  0  0  0  0  0
    6.8269    0.3922   20.4903 C   0  0  0  0  0  0  0  0  0  0  0  0
    5.7040    0.9707   19.9254 C   0  0  0  0  0  0  0  0  0  0  0  0
    5.6881    1.1882   18.5675 C   0  0  0  0  0  0  0  0  0  0  0  0
    6.7038    0.8684   17.7655 N   0  0  0  0  0  0  0  0  0  0  0  0
    7.7845    0.3101   18.3199 C   0  0  0  0  0  0  0  0  0  0  0  0
  1  2  2  0
  2  3  1  0
  3  4  1  0
  4  5  1  0
  5  6  1  0
  6  7  1  0
  7  8  1  0
  8  9  1  0
  4 10  1  0
 10 11  3  0
 11 12  1  0
 12 13  1  0
 13 14  2  0
 14 15  1  0
 15 16  1  0
  2 17  1  0
 17 18  1  0
 18 19  2  0
 19 20  1  0
 20 21  2  0
 21 22  1  0
 22 23  2  0
  9  4  1  0
 16 12  2  0
 23 18  1  0
M  END
