CVD-0001932|dock_bobby27042020.79|mol2|23|dock3
     RDKit          3D

 23 25  0  0  0  0  0  0  0  0999 V2000
    7.1076   -2.8807   23.1042 C   0  0  0  0  0  0  0  0  0  0  0  0
    8.4217   -2.2556   22.6429 C   0  0  0  0  0  0  0  0  0  0  0  0
    8.5054   -2.2977   21.1113 C   0  0  0  0  0  0  0  0  0  0  0  0
    7.4314   -1.5285   20.3456 C   0  0  0  0  0  0  0  0  0  0  0  0
    6.4273   -2.4897   19.6768 C   0  0  0  0  0  0  0  0  0  0  0  0
    5.3816   -1.7525   18.8426 C   0  0  0  0  0  0  0  0  0  0  0  0
    6.0358   -0.8339   17.8186 C   0  0  0  0  0  0  0  0  0  0  0  0
    7.0017    0.1339   18.4871 C   0  0  0  0  0  0  0  0  0  0  0  0
    8.0659   -0.6118   19.2856 C   0  0  0  0  0  0  0  0  0  0  0  0
    9.6209   -2.9778   23.2607 C   0  0  0  0  0  0  0  0  0  0  0  0
    9.8157   -2.9118   24.7981 C   0  0  0  0  0  0  0  0  0  0  0  0
    9.9655   -1.4513   25.1911 C   0  0  0  0  0  0  0  0  0  0  0  0
    9.5927   -0.9575   26.4480 C   0  0  0  0  0  0  0  0  0  0  0  0
    8.7361   -1.6635   27.2529 O   0  0  0  0  0  0  0  0  0  0  0  0
    9.9474    0.3289   26.8460 C   0  0  0  0  0  0  0  0  0  0  0  0
    9.5343    0.7861   28.0566 O   0  0  0  0  0  0  0  0  0  0  0  0
   10.6806    1.1493   25.9980 C   0  0  0  0  0  0  0  0  0  0  0  0
   11.0534    0.6726   24.7555 C   0  0  0  0  0  0  0  0  0  0  0  0
   10.7017   -0.6154   24.3489 C   0  0  0  0  0  0  0  0  0  0  0  0
   10.9540   -1.0314   22.9219 C   0  0  0  0  0  0  0  0  0  0  0  0
   12.3299   -0.6171   22.4174 C   0  0  0  0  0  0  0  0  0  0  0  0
   12.8522   -1.5226   21.3698 N   0  0  0  0  0  0  0  0  0  0  0  0
   10.8323   -2.4275   22.7006 O   0  0  0  0  0  0  0  0  0  0  0  0
  1  2  1  0
  2  3  1  0
  3  4  1  0
  4  5  1  0
  5  6  1  0
  6  7  1  0
  7  8  1  0
  8  9  1  0
  2 10  1  0
 10 11  1  0
 11 12  1  0
 12 13  2  0
 13 14  1  0
 13 15  1  0
 15 16  1  0
 15 17  2  0
 17 18  1  0
 18 19  2  0
 19 20  1  0
 20 21  1  0
 21 22  1  0
 20 23  1  0
  9  4  1  0
 23 10  1  0
 19 12  1  0
M  END
