CVD-0001959|dock_bobby27042020.50|mol2|40|dock3
     RDKit          3D

 36 39  0  0  0  0  0  0  0  0999 V2000
    8.9084   -3.2036   25.6240 C   0  0  0  0  0  0  0  0  0  0  0  0
   10.1438   -3.4633   24.8803 N   0  0  0  0  0  0  0  0  0  0  0  0
   10.3691   -2.5633   23.7441 C   0  0  0  0  0  0  0  0  0  0  0  0
    9.2973   -2.6901   22.7151 C   0  0  0  0  0  0  0  0  0  0  0  0
    8.5408   -3.7846   22.3760 C   0  0  0  0  0  0  0  0  0  0  0  0
    7.6666   -3.4104   21.3230 C   0  0  0  0  0  0  0  0  0  0  0  0
    7.9053   -2.0781   21.0176 C   0  0  0  0  0  0  0  0  0  0  0  0
    7.2897   -1.1889   19.9993 C   0  0  0  0  0  0  0  0  0  0  0  0
    5.8986   -1.0738   19.9248 C   0  0  0  0  0  0  0  0  0  0  0  0
    5.2979   -0.2626   18.9765 C   0  0  0  0  0  0  0  0  0  0  0  0
    6.0635    0.4463   18.0782 C   0  0  0  0  0  0  0  0  0  0  0  0
    7.4428    0.3596   18.1283 C   0  0  0  0  0  0  0  0  0  0  0  0
    8.0186   -0.4398   19.0870 C   0  0  0  0  0  0  0  0  0  0  0  0
    9.3685   -0.4758   19.1287 F   0  0  0  0  0  0  0  0  0  0  0  0
    8.9037   -1.6300   21.8880 N   0  0  0  0  0  0  0  0  0  0  0  0
    9.5009   -0.3095   21.9523 C   0  0  0  0  0  0  0  0  0  0  0  0
   10.8638   -0.1429   21.6835 C   0  0  0  0  0  0  0  0  0  0  0  0
   11.6647   -1.1810   21.3202 O   0  0  0  0  0  0  0  0  0  0  0  0
   11.4476    1.1091   21.7886 C   0  0  0  0  0  0  0  0  0  0  0  0
   10.7062    2.2422   22.1443 C   0  0  0  0  0  0  0  0  0  0  0  0
   11.3621    3.5912   22.2614 C   0  0  0  0  0  0  0  0  0  0  0  0
   12.5040    3.8130   21.6525 O   0  0  0  0  0  0  0  0  0  0  0  0
   10.8460    4.4843   22.9108 O   0  0  0  0  0  0  0  0  0  0  0  0
    9.3206    2.0737   22.3960 C   0  0  0  0  0  0  0  0  0  0  0  0
    8.4797    3.0899   22.7546 O   0  0  0  0  0  0  0  0  0  0  0  0
    8.7385    0.8145   22.2749 C   0  0  0  0  0  0  0  0  0  0  0  0
    6.6710    0.6432   22.5705 I   0  0  0  0  0  0  0  0  0  0  0  0
    6.5325   -4.5842   20.6463 S   0  0  0  0  0  0  0  0  0  0  0  0
    5.5803   -3.8892   19.8237 O   0  0  0  0  0  0  0  0  0  0  0  0
    7.3134   -5.6228   20.0318 O   0  0  0  0  0  0  0  0  0  0  0  0
    5.6838   -5.3131   22.0090 C   0  0  0  0  0  0  0  0  0  0  0  0
    4.6809   -4.6164   22.6610 C   0  0  0  0  0  0  0  0  0  0  0  0
    4.0379   -5.2271   23.7237 C   0  0  0  0  0  0  0  0  0  0  0  0
    4.4202   -6.4986   24.0872 C   0  0  0  0  0  0  0  0  0  0  0  0
    5.3837   -7.1816   23.4672 N   0  0  0  0  0  0  0  0  0  0  0  0
    6.0003   -6.5867   22.4421 C   0  0  0  0  0  0  0  0  0  0  0  0
  1  2  1  0
  2  3  1  0
  3  4  1  0
  4  5  2  0
  5  6  1  0
  6  7  2  0
  7  8  1  0
  8  9  2  0
  9 10  1  0
 10 11  2  0
 11 12  1  0
 12 13  2  0
 13 14  1  0
  7 15  1  0
 15 16  1  0
 16 17  2  0
 17 18  1  0
 17 19  1  0
 19 20  2  0
 20 21  1  0
 21 22  1  0
 21 23  2  0
 20 24  1  0
 24 25  1  0
 24 26  2  0
 26 27  1  0
  6 28  1  0
 28 29  2  0
 28 30  2  0
 28 31  1  0
 31 32  2  0
 32 33  1  0
 33 34  2  0
 34 35  1  0
 35 36  2  0
 15  4  1  0
 26 16  1  0
 36 31  1  0
 13  8  1  0
M  END
