CVD-0001961|dock_bobby27042020.22|mol2|12|dock1
     RDKit          3D

 29 32  0  0  0  0  0  0  0  0999 V2000
   13.4061    5.4530   22.4994 C   0  0  0  0  0  0  0  0  0  0  0  0
   13.2213    3.9995   22.4941 N   0  0  0  0  0  0  0  0  0  0  0  0
   11.8668    3.5585   22.8438 C   0  0  0  0  0  0  0  0  0  0  0  0
   11.7007    2.0725   22.6628 C   0  0  0  0  0  0  0  0  0  0  0  0
   10.4773    1.3807   22.7020 C   0  0  0  0  0  0  0  0  0  0  0  0
   10.6895    0.0293   22.5025 C   0  0  0  0  0  0  0  0  0  0  0  0
    9.6118   -0.9888   22.4793 C   0  0  0  0  0  0  0  0  0  0  0  0
    8.6532   -0.9158   21.4735 C   0  0  0  0  0  0  0  0  0  0  0  0
    7.6171   -1.8292   21.4140 C   0  0  0  0  0  0  0  0  0  0  0  0
    7.5436   -2.8233   22.3773 C   0  0  0  0  0  0  0  0  0  0  0  0
    8.4607   -2.9179   23.3540 N   0  0  0  0  0  0  0  0  0  0  0  0
    9.4662   -2.0350   23.3826 C   0  0  0  0  0  0  0  0  0  0  0  0
    6.4602   -3.8426   22.3990 C   0  0  0  0  0  0  0  0  0  0  0  0
    5.3667   -3.6957   23.2479 C   0  0  0  0  0  0  0  0  0  0  0  0
    4.3528   -4.6385   23.2760 C   0  0  0  0  0  0  0  0  0  0  0  0
    4.4118   -5.7450   22.4575 C   0  0  0  0  0  0  0  0  0  0  0  0
    5.4857   -5.9089   21.6099 C   0  0  0  0  0  0  0  0  0  0  0  0
    6.5012   -4.9677   21.5795 C   0  0  0  0  0  0  0  0  0  0  0  0
   12.0954   -0.1230   22.3434 N   0  0  0  0  0  0  0  0  0  0  0  0
   12.6920    1.1279   22.4428 C   0  0  0  0  0  0  0  0  0  0  0  0
   13.0830   -1.4762   22.0793 S   0  0  0  0  0  0  0  0  0  0  0  0
   14.2983   -0.9503   21.5396 O   0  0  0  0  0  0  0  0  0  0  0  0
   12.3260   -2.4150   21.3105 O   0  0  0  0  0  0  0  0  0  0  0  0
   13.4528   -2.1356   23.6689 C   0  0  0  0  0  0  0  0  0  0  0  0
   14.4453   -1.5674   24.4491 C   0  0  0  0  0  0  0  0  0  0  0  0
   14.7066   -2.1211   25.6904 C   0  0  0  0  0  0  0  0  0  0  0  0
   13.9718   -3.2119   26.0972 C   0  0  0  0  0  0  0  0  0  0  0  0
   13.0143   -3.7705   25.3555 N   0  0  0  0  0  0  0  0  0  0  0  0
   12.7673   -3.2314   24.1582 C   0  0  0  0  0  0  0  0  0  0  0  0
  1  2  1  0
  2  3  1  0
  3  4  1  0
  4  5  1  0
  5  6  2  0
  6  7  1  0
  7  8  2  0
  8  9  1  0
  9 10  2  0
 10 11  1  0
 11 12  2  0
 10 13  1  0
 13 14  2  0
 14 15  1  0
 15 16  2  0
 16 17  1  0
 17 18  2  0
  6 19  1  0
 19 20  1  0
 19 21  1  0
 21 22  2  0
 21 23  2  0
 21 24  1  0
 24 25  2  0
 25 26  1  0
 26 27  2  0
 27 28  1  0
 28 29  2  0
 20  4  2  0
 29 24  1  0
 12  7  1  0
 18 13  1  0
M  END
