CVD-0002398|dock_bobby27042020.34|mol2|27|dock3
     RDKit          3D

 26 29  0  0  0  0  0  0  0  0999 V2000
    6.5858   -6.5126   23.1696 F   0  0  0  0  0  0  0  0  0  0  0  0
    7.1997   -5.3513   22.8464 C   0  0  0  0  0  0  0  0  0  0  0  0
    6.5984   -4.5012   21.9574 C   0  0  0  0  0  0  0  0  0  0  0  0
    7.2207   -3.2983   21.6252 C   0  0  0  0  0  0  0  0  0  0  0  0
    8.4433   -2.9569   22.2225 C   0  0  0  0  0  0  0  0  0  0  0  0
    9.0496   -3.8545   23.1003 C   0  0  0  0  0  0  0  0  0  0  0  0
    8.4192   -5.0435   23.4143 C   0  0  0  0  0  0  0  0  0  0  0  0
    9.1739   -6.1401   24.5244 Cl  0  0  0  0  0  0  0  0  0  0  0  0
    9.0157   -1.7029   21.8915 N   0  0  0  0  0  0  0  0  0  0  0  0
   10.2423   -1.2648   22.5186 C   0  0  0  0  0  0  0  0  0  0  0  0
   10.2083   -0.4244   23.6254 C   0  0  0  0  0  0  0  0  0  0  0  0
   11.3868   -0.0103   24.2233 C   0  0  0  0  0  0  0  0  0  0  0  0
   12.6030   -0.4276   23.7276 C   0  0  0  0  0  0  0  0  0  0  0  0
   12.6458   -1.2614   22.6315 C   0  0  0  0  0  0  0  0  0  0  0  0
   11.4734   -1.6817   22.0259 C   0  0  0  0  0  0  0  0  0  0  0  0
    8.4343   -0.8212   20.9754 C   0  0  0  0  0  0  0  0  0  0  0  0
    8.9566    0.2568   20.7365 O   0  0  0  0  0  0  0  0  0  0  0  0
    7.2298   -1.2146   20.3717 N   0  0  0  0  0  0  0  0  0  0  0  0
    6.6249   -0.3097   19.4106 C   0  0  0  0  0  0  0  0  0  0  0  0
    5.3503    0.2084   19.6046 C   0  0  0  0  0  0  0  0  0  0  0  0
    4.8112    1.0710   18.6665 C   0  0  0  0  0  0  0  0  0  0  0  0
    5.5627    1.3921   17.5604 C   0  0  0  0  0  0  0  0  0  0  0  0
    6.7868    0.9101   17.3472 N   0  0  0  0  0  0  0  0  0  0  0  0
    7.2950    0.0750   18.2588 C   0  0  0  0  0  0  0  0  0  0  0  0
    6.5655   -2.4273   20.6429 C   0  0  0  0  0  0  0  0  0  0  0  0
    5.5240   -2.7518   20.0978 O   0  0  0  0  0  0  0  0  0  0  0  0
  1  2  1  0
  2  3  2  0
  3  4  1  0
  4  5  2  0
  5  6  1  0
  6  7  2  0
  7  8  1  0
  5  9  1  0
  9 10  1  0
 10 11  2  0
 11 12  1  0
 12 13  2  0
 13 14  1  0
 14 15  2  0
  9 16  1  0
 16 17  2  0
 16 18  1  0
 18 19  1  0
 19 20  2  0
 20 21  1  0
 21 22  2  0
 22 23  1  0
 23 24  2  0
 18 25  1  0
 25 26  2  0
  7  2  1  0
 15 10  1  0
 24 19  1  0
 25  4  1  0
M  END
