CVD-0001177|dock_bobby27042020.10|mol2|30|dock1
     RDKit          3D

 32 34  0  0  0  0  0  0  0  0999 V2000
   12.3285    8.3458   26.7853 C   0  0  0  0  0  0  0  0  0  0  0  0
   12.4521    6.8726   26.9398 C   0  0  0  0  0  0  0  0  0  0  0  0
   11.6411    6.2116   25.9224 O   0  0  0  0  0  0  0  0  0  0  0  0
   12.0195    6.2937   24.6481 C   0  0  0  0  0  0  0  0  0  0  0  0
   13.0340    6.8163   24.2652 O   0  0  0  0  0  0  0  0  0  0  0  0
   11.0147    5.6236   23.7228 C   0  0  0  0  0  0  0  0  0  0  0  0
    9.9077    6.6140   23.3470 C   0  0  0  0  0  0  0  0  0  0  0  0
    8.5494    5.9724   23.0686 C   0  0  0  0  0  0  0  0  0  0  0  0
    7.5492    6.9348   22.4751 C   0  0  0  0  0  0  0  0  0  0  0  0
    6.8046    7.7756   23.2880 C   0  0  0  0  0  0  0  0  0  0  0  0
    5.8845    8.6564   22.7443 C   0  0  0  0  0  0  0  0  0  0  0  0
    5.6970    8.7066   21.3798 C   0  0  0  0  0  0  0  0  0  0  0  0
    6.4294    7.8756   20.5598 C   0  0  0  0  0  0  0  0  0  0  0  0
    7.3492    6.9951   21.1045 C   0  0  0  0  0  0  0  0  0  0  0  0
   11.6921    5.1093   22.5261 N   0  0  0  0  0  0  0  0  0  0  0  0
   12.6880    4.0488   22.7147 C   0  0  0  0  0  0  0  0  0  0  0  0
   13.8372    4.2143   21.7283 C   0  0  0  0  0  0  0  0  0  0  0  0
   12.0737    2.6661   22.5255 C   0  0  0  0  0  0  0  0  0  0  0  0
   11.0189    2.5484   21.9086 O   0  0  0  0  0  0  0  0  0  0  0  0
   12.7926    1.6622   23.0858 N   0  0  0  0  0  0  0  0  0  0  0  0
   12.5647    0.2641   23.1296 C   0  0  0  0  0  0  0  0  0  0  0  0
   13.5924   -0.6757   23.1343 C   0  0  0  0  0  0  0  0  0  0  0  0
   13.2925   -2.0274   23.1789 C   0  0  0  0  0  0  0  0  0  0  0  0
   11.9764   -2.4536   23.2184 C   0  0  0  0  0  0  0  0  0  0  0  0
   10.9405   -1.5347   23.2131 C   0  0  0  0  0  0  0  0  0  0  0  0
    9.5019   -1.9905   23.2595 C   0  0  0  0  0  0  0  0  0  0  0  0
    8.6052   -1.1414   22.4632 N   0  0  0  0  0  0  0  0  0  0  0  0
    7.2371   -1.6926   22.4169 C   0  0  0  0  0  0  0  0  0  0  0  0
    6.6020   -1.0245   21.2159 C   0  0  0  0  0  0  0  0  0  0  0  0
    7.7380   -0.6310   20.3285 C   0  0  0  0  0  0  0  0  0  0  0  0
    9.0065   -1.0307   21.0496 C   0  0  0  0  0  0  0  0  0  0  0  0
   11.2476   -0.1814   23.1697 C   0  0  0  0  0  0  0  0  0  0  0  0
  1  2  1  0
  2  3  1  0
  3  4  1  0
  4  5  2  0
  4  6  1  0
  6  7  1  0
  7  8  1  0
  8  9  1  0
  9 10  2  0
 10 11  1  0
 11 12  2  0
 12 13  1  0
 13 14  2  0
  6 15  1  0
 15 16  1  0
 16 17  1  0
 16 18  1  0
 18 19  2  0
 18 20  1  0
 20 21  1  0
 21 22  2  0
 22 23  1  0
 23 24  2  0
 24 25  1  0
 25 26  1  0
 26 27  1  0
 27 28  1  0
 28 29  1  0
 29 30  1  0
 30 31  1  0
 25 32  2  0
 14  9  1  0
 32 21  1  0
 31 27  1  0
M  END
