CVD-0002531|dock_bobby27042020.63|mol2|6|dock3
     RDKit          3D

 28 30  0  0  0  0  0  0  0  0999 V2000
    8.7398    0.9871   22.5386 O   0  0  0  0  0  0  0  0  0  0  0  0
    8.9092   -0.1191   22.0371 C   0  0  0  0  0  0  0  0  0  0  0  0
    7.7325   -0.9911   21.6589 C   0  0  0  0  0  0  0  0  0  0  0  0
    7.3892   -0.9479   20.1688 C   0  0  0  0  0  0  0  0  0  0  0  0
    7.0228    0.4731   19.7857 C   0  0  0  0  0  0  0  0  0  0  0  0
    6.5401    0.5449   18.3389 C   0  0  0  0  0  0  0  0  0  0  0  0
    5.3956   -0.4234   18.0976 C   0  0  0  0  0  0  0  0  0  0  0  0
    5.7856   -1.8419   18.4996 C   0  0  0  0  0  0  0  0  0  0  0  0
    6.2314   -1.9174   19.9620 C   0  0  0  0  0  0  0  0  0  0  0  0
    6.5806   -3.5833   20.5228 S   0  0  0  0  0  0  0  0  0  0  0  0
    7.9855   -3.7975   20.3249 O   0  0  0  0  0  0  0  0  0  0  0  0
    5.6611   -4.4804   19.8842 O   0  0  0  0  0  0  0  0  0  0  0  0
    6.3090   -3.6697   22.1106 N   0  0  0  0  0  0  0  0  0  0  0  0
    7.1916   -4.4774   22.9610 C   0  0  0  0  0  0  0  0  0  0  0  0
    6.9940   -5.9572   22.6855 C   0  0  0  0  0  0  0  0  0  0  0  0
    5.6471   -6.4619   23.1439 C   0  0  0  0  0  0  0  0  0  0  0  0
    4.6967   -6.8820   22.2261 C   0  0  0  0  0  0  0  0  0  0  0  0
    3.4598   -7.3423   22.6459 C   0  0  0  0  0  0  0  0  0  0  0  0
    3.1578   -7.3873   23.9899 C   0  0  0  0  0  0  0  0  0  0  0  0
    4.0927   -6.9717   24.9133 C   0  0  0  0  0  0  0  0  0  0  0  0
    5.3292   -6.5115   24.4925 C   0  0  0  0  0  0  0  0  0  0  0  0
   10.1104   -0.6823   21.7610 N   0  0  0  0  0  0  0  0  0  0  0  0
   11.4297   -0.2025   21.9527 C   0  0  0  0  0  0  0  0  0  0  0  0
   12.5215   -1.0212   22.2226 C   0  0  0  0  0  0  0  0  0  0  0  0
   13.7704   -0.4488   22.3934 C   0  0  0  0  0  0  0  0  0  0  0  0
   13.8942    0.9175   22.2906 C   0  0  0  0  0  0  0  0  0  0  0  0
   12.8669    1.7269   22.0330 N   0  0  0  0  0  0  0  0  0  0  0  0
   11.6659    1.1649   21.8698 C   0  0  0  0  0  0  0  0  0  0  0  0
  1  2  2  0
  2  3  1  0
  3  4  1  0
  4  5  1  0
  5  6  1  0
  6  7  1  0
  7  8  1  0
  8  9  1  0
  9 10  1  0
 10 11  2  0
 10 12  2  0
 10 13  1  0
 13 14  1  0
 14 15  1  0
 15 16  1  0
 16 17  2  0
 17 18  1  0
 18 19  2  0
 19 20  1  0
 20 21  2  0
  2 22  1  0
 22 23  1  0
 23 24  2  0
 24 25  1  0
 25 26  2  0
 26 27  1  0
 27 28  2  0
  9  4  1  0
 21 16  1  0
 28 23  1  0
M  END
