CVD-0000132|dock_bobby27042020.57|mol2|12|dock3
     RDKit          3D

 29 31  0  0  0  0  0  0  0  0999 V2000
    5.5067   -5.7236   23.4646 N   0  0  0  0  0  0  0  0  0  0  0  0
    6.4135   -5.6333   22.6014 C   0  0  0  0  0  0  0  0  0  0  0  0
    6.8568   -6.6344   21.8732 N   0  0  0  0  0  0  0  0  0  0  0  0
    7.0609   -4.3095   22.3712 C   0  0  0  0  0  0  0  0  0  0  0  0
    8.1765   -3.9612   23.3739 C   0  0  0  0  0  0  0  0  0  0  0  0
    8.7594   -2.5861   23.1399 C   0  0  0  0  0  0  0  0  0  0  0  0
    9.3247   -2.1138   22.0278 C   0  0  0  0  0  0  0  0  0  0  0  0
    9.8797   -0.8298   21.7838 N   0  0  0  0  0  0  0  0  0  0  0  0
   11.2981   -0.5592   22.1647 C   0  0  0  0  0  0  0  0  0  0  0  0
   12.1519   -1.7831   21.9274 C   0  0  0  0  0  0  0  0  0  0  0  0
   13.5843   -1.5514   22.3971 C   0  0  0  0  0  0  0  0  0  0  0  0
   13.6282   -1.1335   23.8437 C   0  0  0  0  0  0  0  0  0  0  0  0
   12.7602    0.0774   24.0919 C   0  0  0  0  0  0  0  0  0  0  0  0
   11.3294   -0.1461   23.6210 C   0  0  0  0  0  0  0  0  0  0  0  0
    9.1506    0.2333   21.1957 C   0  0  0  0  0  0  0  0  0  0  0  0
    9.6458    1.3517   21.1324 O   0  0  0  0  0  0  0  0  0  0  0  0
    7.9075    0.0247   20.7031 N   0  0  0  0  0  0  0  0  0  0  0  0
    7.1758    1.0521   19.9580 C   0  0  0  0  0  0  0  0  0  0  0  0
    5.7239    1.1683   20.4347 C   0  0  0  0  0  0  0  0  0  0  0  0
    4.9115    0.0868   19.7013 C   0  0  0  0  0  0  0  0  0  0  0  0
    4.9749    0.2793   18.1772 C   0  0  0  0  0  0  0  0  0  0  0  0
    6.3699    0.5249   17.6794 N   0  0  0  0  0  0  0  0  0  0  0  0
    7.2862    0.8369   18.4885 C   0  0  0  0  0  0  0  0  0  0  0  0
    7.6729   -4.0481   24.8040 C   0  0  0  0  0  0  0  0  0  0  0  0
    8.1064   -5.0604   25.6487 C   0  0  0  0  0  0  0  0  0  0  0  0
    7.6491   -5.1376   26.9536 C   0  0  0  0  0  0  0  0  0  0  0  0
    6.7540   -4.2038   27.4300 C   0  0  0  0  0  0  0  0  0  0  0  0
    6.3158   -3.1922   26.6025 C   0  0  0  0  0  0  0  0  0  0  0  0
    6.7726   -3.1142   25.2973 C   0  0  0  0  0  0  0  0  0  0  0  0
  1  2  1  0
  2  3  2  0
  2  4  1  0
  4  5  1  0
  5  6  1  0
  6  7  2  0
  7  8  1  0
  8  9  1  0
  9 10  1  0
 10 11  1  0
 11 12  1  0
 12 13  1  0
 13 14  1  0
  8 15  1  0
 15 16  2  0
 15 17  1  0
 17 18  1  0
 18 19  1  0
 19 20  1  0
 20 21  1  0
 21 22  1  0
 22 23  2  0
  5 24  1  0
 24 25  2  0
 25 26  1  0
 26 27  2  0
 27 28  1  0
 28 29  2  0
 14  9  1  0
 23 18  1  0
 29 24  1  0
M  END
