CVD-0003749|dock_bobby27042020.58|mol2|40|dock2
     RDKit          3D

 21 22  0  0  0  0  0  0  0  0999 V2000
   12.9645    5.5064   22.2250 C   0  0  0  0  0  0  0  0  0  0  0  0
   12.8278    4.0109   22.3757 C   0  0  0  0  0  0  0  0  0  0  0  0
   13.9462    3.1930   22.4119 C   0  0  0  0  0  0  0  0  0  0  0  0
   13.8336    1.8206   22.5458 C   0  0  0  0  0  0  0  0  0  0  0  0
   12.5753    1.2503   22.6439 C   0  0  0  0  0  0  0  0  0  0  0  0
   11.4418    2.0457   22.6109 C   0  0  0  0  0  0  0  0  0  0  0  0
   11.5801    3.4157   22.4763 C   0  0  0  0  0  0  0  0  0  0  0  0
   12.4159   -0.4940   22.8215 S   0  0  0  0  0  0  0  0  0  0  0  0
   13.6161   -1.0976   22.3285 O   0  0  0  0  0  0  0  0  0  0  0  0
   11.9918   -0.7626   24.1615 O   0  0  0  0  0  0  0  0  0  0  0  0
   11.2215   -0.9815   21.8521 N   0  0  0  0  0  0  0  0  0  0  0  0
    9.8841   -1.3198   22.3699 C   0  0  0  0  0  0  0  0  0  0  0  0
    9.8440   -2.6826   23.0580 C   0  0  0  0  0  0  0  0  0  0  0  0
    8.4442   -3.0674   23.4926 C   0  0  0  0  0  0  0  0  0  0  0  0
    7.5077   -2.9771   22.3680 N   0  0  0  0  0  0  0  0  0  0  0  0
    7.4508   -1.6441   21.7789 C   0  0  0  0  0  0  0  0  0  0  0  0
    8.8253   -1.2610   21.2764 C   0  0  0  0  0  0  0  0  0  0  0  0
    6.6792   -3.9629   21.9493 C   0  0  0  0  0  0  0  0  0  0  0  0
    5.9310   -3.8052   20.9927 O   0  0  0  0  0  0  0  0  0  0  0  0
    6.6864   -5.2819   22.6984 C   0  0  0  0  0  0  0  0  0  0  0  0
    5.4800   -6.3924   22.0361 Cl  0  0  0  0  0  0  0  0  0  0  0  0
  1  2  1  0
  2  3  2  0
  3  4  1  0
  4  5  2  0
  5  6  1  0
  6  7  2  0
  5  8  1  0
  8  9  2  0
  8 10  2  0
  8 11  1  0
 11 12  1  0
 12 13  1  0
 13 14  1  0
 14 15  1  0
 15 16  1  0
 16 17  1  0
 15 18  1  0
 18 19  2  0
 18 20  1  0
 20 21  1  0
  7  2  1  0
 17 12  1  0
M  END
