CVD-0001359|dock_bobby27042020.95|mol2|33|dock3
     RDKit          3D

 38 43  0  0  0  0  0  0  0  0999 V2000
    5.3027   -7.7612   23.8799 O   0  0  0  0  0  0  0  0  0  0  0  0
    5.3914   -6.4555   23.6467 C   0  0  0  0  0  0  0  0  0  0  0  0
    5.6154   -5.6052   24.7617 C   0  0  0  0  0  0  0  0  0  0  0  0
    5.7168   -4.2602   24.5969 C   0  0  0  0  0  0  0  0  0  0  0  0
    5.5998   -3.6846   23.3059 C   0  0  0  0  0  0  0  0  0  0  0  0
    5.6606   -2.4068   22.8796 N   0  0  0  0  0  0  0  0  0  0  0  0
    5.4772   -2.5129   21.5563 N   0  0  0  0  0  0  0  0  0  0  0  0
    5.3008   -3.7499   21.0740 N   0  0  0  0  0  0  0  0  0  0  0  0
    5.3773   -4.5082   22.1843 C   0  0  0  0  0  0  0  0  0  0  0  0
    5.2773   -5.9044   22.3944 C   0  0  0  0  0  0  0  0  0  0  0  0
    5.4741   -1.3409   20.7195 C   0  0  0  0  0  0  0  0  0  0  0  0
    5.7108   -0.1149   21.3369 C   0  0  0  0  0  0  0  0  0  0  0  0
    5.7107    1.0817   20.6154 C   0  0  0  0  0  0  0  0  0  0  0  0
    5.9640    2.3858   21.3286 C   0  0  0  0  0  0  0  0  0  0  0  0
    5.0073    3.1110   21.5560 O   0  0  0  0  0  0  0  0  0  0  0  0
    7.3267    2.8490   21.7782 C   0  0  0  0  0  0  0  0  0  0  0  0
    8.3284    1.9096   22.0364 C   0  0  0  0  0  0  0  0  0  0  0  0
    9.6030    2.2939   22.4465 C   0  0  0  0  0  0  0  0  0  0  0  0
    9.8817    3.6531   22.6226 C   0  0  0  0  0  0  0  0  0  0  0  0
   11.1005    4.0999   23.0239 O   0  0  0  0  0  0  0  0  0  0  0  0
    8.8923    4.5914   22.3848 C   0  0  0  0  0  0  0  0  0  0  0  0
    7.6276    4.2150   21.9651 C   0  0  0  0  0  0  0  0  0  0  0  0
    6.7423    5.2272   21.7540 O   0  0  0  0  0  0  0  0  0  0  0  0
   10.5684    1.2485   22.6678 N   0  0  0  0  0  0  0  0  0  0  0  0
   10.7066    0.2007   21.8437 N   0  0  0  0  0  0  0  0  0  0  0  0
   11.6977   -0.5147   22.4128 C   0  0  0  0  0  0  0  0  0  0  0  0
   12.3227   -1.7325   22.0409 C   0  0  0  0  0  0  0  0  0  0  0  0
   13.3198   -2.2539   22.8023 C   0  0  0  0  0  0  0  0  0  0  0  0
   13.7524   -1.5904   23.9809 C   0  0  0  0  0  0  0  0  0  0  0  0
   14.7323   -2.1564   24.6783 O   0  0  0  0  0  0  0  0  0  0  0  0
   13.1514   -0.4113   24.3463 C   0  0  0  0  0  0  0  0  0  0  0  0
   12.1099    0.1620   23.5782 C   0  0  0  0  0  0  0  0  0  0  0  0
   11.3826    1.2851   23.7306 N   0  0  0  0  0  0  0  0  0  0  0  0
    5.4853    1.0227   19.2235 C   0  0  0  0  0  0  0  0  0  0  0  0
    5.4649    2.1115   18.4069 O   0  0  0  0  0  0  0  0  0  0  0  0
    5.2627   -0.1997   18.6122 C   0  0  0  0  0  0  0  0  0  0  0  0
    5.2496   -1.3774   19.3396 C   0  0  0  0  0  0  0  0  0  0  0  0
    5.0158   -2.5368   18.6707 O   0  0  0  0  0  0  0  0  0  0  0  0
  1  2  1  0
  2  3  1  0
  3  4  2  0
  4  5  1  0
  5  6  2  0
  6  7  1  0
  7  8  1  0
  8  9  2  0
  9 10  1  0
  7 11  1  0
 11 12  2  0
 12 13  1  0
 13 14  1  0
 14 15  2  0
 14 16  1  0
 16 17  2  0
 17 18  1  0
 18 19  2  0
 19 20  1  0
 19 21  1  0
 21 22  2  0
 22 23  1  0
 18 24  1  0
 24 25  1  0
 25 26  2  0
 26 27  1  0
 27 28  2  0
 28 29  1  0
 29 30  1  0
 29 31  2  0
 31 32  1  0
 32 33  2  0
 13 34  2  0
 34 35  1  0
 34 36  1  0
 36 37  2  0
 37 38  1  0
 10  2  2  0
 37 11  1  0
  9  5  1  0
 22 16  1  0
 33 24  1  0
 32 26  1  0
M  END
