CVD-0002185|dock_bobby27042020.35|mol2|20|dock1
     RDKit          3D

 31 34  0  0  0  0  0  0  0  0999 V2000
    6.5755   -3.6313   27.4506 F   0  0  0  0  0  0  0  0  0  0  0  0
    7.4478   -4.3787   26.7218 C   0  0  0  0  0  0  0  0  0  0  0  0
    8.6844   -4.6331   27.2543 C   0  0  0  0  0  0  0  0  0  0  0  0
    9.5816   -5.3922   26.5236 C   0  0  0  0  0  0  0  0  0  0  0  0
    9.1995   -5.8708   25.2754 C   0  0  0  0  0  0  0  0  0  0  0  0
    9.8761   -6.6333   24.3550 N   0  0  0  0  0  0  0  0  0  0  0  0
    9.0655   -6.8434   23.2730 C   0  0  0  0  0  0  0  0  0  0  0  0
    7.8599   -6.2334   23.4578 C   0  0  0  0  0  0  0  0  0  0  0  0
    6.6913   -6.2182   22.5166 C   0  0  0  0  0  0  0  0  0  0  0  0
    6.9720   -5.4577   21.2359 C   0  0  0  0  0  0  0  0  0  0  0  0
    7.4432   -4.1056   21.4995 N   0  0  0  0  0  0  0  0  0  0  0  0
    6.9082   -3.0494   20.8789 C   0  0  0  0  0  0  0  0  0  0  0  0
    6.0000   -3.1841   20.0644 O   0  0  0  0  0  0  0  0  0  0  0  0
    7.4318   -1.6682   21.1868 C   0  0  0  0  0  0  0  0  0  0  0  0
    6.6761   -0.5170   20.9904 C   0  0  0  0  0  0  0  0  0  0  0  0
    7.2403    0.7073   21.3002 C   0  0  0  0  0  0  0  0  0  0  0  0
    8.5347    0.7806   21.7973 C   0  0  0  0  0  0  0  0  0  0  0  0
    9.0772    2.0548   22.1026 N   0  0  0  0  0  0  0  0  0  0  0  0
   10.3818    2.4920   22.1347 C   0  0  0  0  0  0  0  0  0  0  0  0
   11.3534    1.7870   21.8833 O   0  0  0  0  0  0  0  0  0  0  0  0
   10.4545    3.8211   22.4850 N   0  0  0  0  0  0  0  0  0  0  0  0
   11.5723    4.6798   22.6419 C   0  0  0  0  0  0  0  0  0  0  0  0
   12.6170    4.5486   21.7339 C   0  0  0  0  0  0  0  0  0  0  0  0
   13.7389    5.3545   21.8279 C   0  0  0  0  0  0  0  0  0  0  0  0
   13.8335    6.2988   22.8257 C   0  0  0  0  0  0  0  0  0  0  0  0
   12.8055    6.4389   23.7317 C   0  0  0  0  0  0  0  0  0  0  0  0
   11.6779    5.6385   23.6478 C   0  0  0  0  0  0  0  0  0  0  0  0
    9.2095   -0.4264   21.9596 C   0  0  0  0  0  0  0  0  0  0  0  0
    8.6838   -1.6211   21.6667 N   0  0  0  0  0  0  0  0  0  0  0  0
    7.9247   -5.5997   24.7438 C   0  0  0  0  0  0  0  0  0  0  0  0
    7.0327   -4.8335   25.4927 C   0  0  0  0  0  0  0  0  0  0  0  0
  1  2  1  0
  2  3  2  0
  3  4  1  0
  4  5  2  0
  5  6  1  0
  6  7  1  0
  7  8  2  0
  8  9  1  0
  9 10  1  0
 10 11  1  0
 11 12  1  0
 12 13  2  0
 12 14  1  0
 14 15  2  0
 15 16  1  0
 16 17  2  0
 17 18  1  0
 18 19  1  0
 19 20  2  0
 19 21  1  0
 21 22  1  0
 22 23  2  0
 23 24  1  0
 24 25  2  0
 25 26  1  0
 26 27  2  0
 17 28  1  0
 28 29  2  0
  8 30  1  0
 30 31  2  0
 31  2  1  0
 30  5  1  0
 29 14  1  0
 27 22  1  0
M  END
