CVD-0003472|dock_bobby27042020.59|mol2|38|dock1
     RDKit          3D

 27 29  0  0  0  0  0  0  0  0999 V2000
   12.7973   -2.0944   22.6829 C   0  0  0  0  0  0  0  0  0  0  0  0
   12.3539   -0.8857   23.3613 N   0  0  0  0  0  0  0  0  0  0  0  0
   13.3261    0.1966   23.3909 C   0  0  0  0  0  0  0  0  0  0  0  0
   12.7616    1.4986   22.9176 C   0  0  0  0  0  0  0  0  0  0  0  0
   13.4499    2.6749   22.6033 C   0  0  0  0  0  0  0  0  0  0  0  0
   12.5098    3.5514   22.2318 C   0  0  0  0  0  0  0  0  0  0  0  0
   12.5278    4.9732   21.7749 C   0  0  0  0  0  0  0  0  0  0  0  0
   11.2982    2.9681   22.3053 O   0  0  0  0  0  0  0  0  0  0  0  0
   11.4797    1.6361   22.7521 N   0  0  0  0  0  0  0  0  0  0  0  0
   11.1374   -0.6914   23.9799 C   0  0  0  0  0  0  0  0  0  0  0  0
   11.1013    0.2153   24.7966 O   0  0  0  0  0  0  0  0  0  0  0  0
   10.0138   -1.4340   23.7361 N   0  0  0  0  0  0  0  0  0  0  0  0
    8.9265   -1.4568   24.7007 C   0  0  0  0  0  0  0  0  0  0  0  0
    7.6263   -1.1266   24.0380 C   0  0  0  0  0  0  0  0  0  0  0  0
    7.4099   -2.0540   22.9184 N   0  0  0  0  0  0  0  0  0  0  0  0
    8.4798   -1.9565   21.9144 C   0  0  0  0  0  0  0  0  0  0  0  0
    9.7913   -2.2859   22.5636 C   0  0  0  0  0  0  0  0  0  0  0  0
    5.8771   -2.2489   22.3987 S   0  0  0  0  0  0  0  0  0  0  0  0
    5.0429   -2.1664   23.5572 O   0  0  0  0  0  0  0  0  0  0  0  0
    5.8682   -3.4330   21.5972 O   0  0  0  0  0  0  0  0  0  0  0  0
    5.5012   -0.8815   21.3571 C   0  0  0  0  0  0  0  0  0  0  0  0
    5.2707    0.3655   21.9137 C   0  0  0  0  0  0  0  0  0  0  0  0
    4.9804    1.4340   21.0841 C   0  0  0  0  0  0  0  0  0  0  0  0
    4.9153    1.2847   19.7077 C   0  0  0  0  0  0  0  0  0  0  0  0
    4.6005    2.4593   18.8137 C   0  0  0  0  0  0  0  0  0  0  0  0
    5.1532    0.0273   19.1752 C   0  0  0  0  0  0  0  0  0  0  0  0
    5.4454   -1.0564   19.9842 C   0  0  0  0  0  0  0  0  0  0  0  0
  1  2  1  0
  2  3  1  0
  3  4  1  0
  4  5  1  0
  5  6  2  0
  6  7  1  0
  6  8  1  0
  8  9  1  0
  2 10  1  0
 10 11  2  0
 10 12  1  0
 12 13  1  0
 13 14  1  0
 14 15  1  0
 15 16  1  0
 16 17  1  0
 15 18  1  0
 18 19  2  0
 18 20  2  0
 18 21  1  0
 21 22  2  0
 22 23  1  0
 23 24  2  0
 24 25  1  0
 24 26  1  0
 26 27  2  0
  9  4  2  0
 17 12  1  0
 27 21  1  0
M  END
