CVD-0002405|dock_bobby27042020.20|mol2|15|dock1
     RDKit          3D

 27 30  0  0  0  0  0  0  0  0999 V2000
   13.8467   -1.6856   22.0296 C   0  0  0  0  0  0  0  0  0  0  0  0
   12.5221   -1.2383   22.5981 C   0  0  0  0  0  0  0  0  0  0  0  0
   12.4685   -0.3955   23.6964 C   0  0  0  0  0  0  0  0  0  0  0  0
   11.2522    0.0153   24.2138 C   0  0  0  0  0  0  0  0  0  0  0  0
   10.0678   -0.4113   23.6377 C   0  0  0  0  0  0  0  0  0  0  0  0
   10.0964   -1.2549   22.5339 C   0  0  0  0  0  0  0  0  0  0  0  0
   11.3290   -1.6575   22.0291 C   0  0  0  0  0  0  0  0  0  0  0  0
    8.8688   -1.7110   21.9217 N   0  0  0  0  0  0  0  0  0  0  0  0
    8.3286   -2.9808   22.2465 C   0  0  0  0  0  0  0  0  0  0  0  0
    8.8962   -3.8191   23.2052 C   0  0  0  0  0  0  0  0  0  0  0  0
    8.3452   -5.0635   23.4455 C   0  0  0  0  0  0  0  0  0  0  0  0
    9.0744   -6.1043   24.6241 Cl  0  0  0  0  0  0  0  0  0  0  0  0
    7.2240   -5.4696   22.7512 C   0  0  0  0  0  0  0  0  0  0  0  0
    6.6996   -6.6944   22.9856 F   0  0  0  0  0  0  0  0  0  0  0  0
    6.6291   -4.6526   21.8273 C   0  0  0  0  0  0  0  0  0  0  0  0
    7.1684   -3.3920   21.5735 C   0  0  0  0  0  0  0  0  0  0  0  0
    6.4855   -2.5289   20.6032 C   0  0  0  0  0  0  0  0  0  0  0  0
    5.4540   -2.8782   20.0546 O   0  0  0  0  0  0  0  0  0  0  0  0
    7.0954   -1.2803   20.3701 N   0  0  0  0  0  0  0  0  0  0  0  0
    6.4664   -0.3856   19.4151 C   0  0  0  0  0  0  0  0  0  0  0  0
    5.2345    0.2028   19.6746 C   0  0  0  0  0  0  0  0  0  0  0  0
    4.6670    1.0466   18.7364 C   0  0  0  0  0  0  0  0  0  0  0  0
    5.3474    1.2783   17.5639 C   0  0  0  0  0  0  0  0  0  0  0  0
    6.5301    0.7293   17.2880 N   0  0  0  0  0  0  0  0  0  0  0  0
    7.0695   -0.0812   18.2039 C   0  0  0  0  0  0  0  0  0  0  0  0
    8.2754   -0.8481   20.9954 C   0  0  0  0  0  0  0  0  0  0  0  0
    8.7887    0.2293   20.7353 O   0  0  0  0  0  0  0  0  0  0  0  0
  1  2  1  0
  2  3  2  0
  3  4  1  0
  4  5  2  0
  5  6  1  0
  6  7  2  0
  6  8  1  0
  8  9  1  0
  9 10  2  0
 10 11  1  0
 11 12  1  0
 11 13  2  0
 13 14  1  0
 13 15  1  0
 15 16  2  0
 16 17  1  0
 17 18  2  0
 17 19  1  0
 19 20  1  0
 20 21  2  0
 21 22  1  0
 22 23  2  0
 23 24  1  0
 24 25  2  0
 19 26  1  0
 26 27  2  0
  7  2  1  0
 26  8  1  0
 16  9  1  0
 25 20  1  0
M  END
