CVD-0000113|dock_bobby27042020.42|mol2|37|dock1
     RDKit          3D

 20 22  0  0  0  0  0  0  0  0999 V2000
   14.0013   -1.4627   23.2124 N   0  0  0  0  0  0  0  0  0  0  0  0
   13.4103    0.0127   23.4043 S   0  0  0  0  0  0  0  0  0  0  0  0
   14.2946    0.9142   22.7289 O   0  0  0  0  0  0  0  0  0  0  0  0
   13.1738    0.1953   24.8050 O   0  0  0  0  0  0  0  0  0  0  0  0
   11.8447    0.0993   22.5891 C   0  0  0  0  0  0  0  0  0  0  0  0
   11.1698    1.3042   22.5177 C   0  0  0  0  0  0  0  0  0  0  0  0
    9.9515    1.3716   21.8652 C   0  0  0  0  0  0  0  0  0  0  0  0
    9.3802    0.2409   21.2847 C   0  0  0  0  0  0  0  0  0  0  0  0
   10.0742   -0.9629   21.3819 C   0  0  0  0  0  0  0  0  0  0  0  0
   11.3010   -1.0363   22.0172 C   0  0  0  0  0  0  0  0  0  0  0  0
    8.1120    0.3329   20.6159 N   0  0  0  0  0  0  0  0  0  0  0  0
    6.7960    1.4547   21.3664 Se  0  0  0  0  0  2  0  0  0  0  0  0
    5.5586    0.3115   20.4082 C   0  0  0  0  0  0  0  0  0  0  0  0
    4.2185    0.9625   20.1573 C   0  0  0  0  0  0  0  0  0  0  0  0
    4.0236    1.7442   19.0967 C   0  0  0  0  0  0  0  0  0  0  0  0
    5.0550    1.9722   18.1642 C   0  0  0  0  0  0  0  0  0  0  0  0
    6.1411    1.2016   18.1405 C   0  0  0  0  0  0  0  0  0  0  0  0
    6.2989    0.0467   19.0921 C   0  0  0  0  0  0  0  0  0  0  0  0
    7.7265   -0.3152   19.4744 C   0  0  0  0  0  0  0  0  0  0  0  0
    8.4226   -1.0768   18.8311 O   0  0  0  0  0  0  0  0  0  0  0  0
  1  2  1  0
  2  3  2  0
  2  4  2  0
  2  5  1  0
  5  6  2  0
  6  7  1  0
  7  8  2  0
  8  9  1  0
  9 10  2  0
  8 11  1  0
 11 12  1  0
 12 13  1  0
 13 14  1  0
 14 15  2  0
 15 16  1  0
 16 17  2  0
 17 18  1  0
 18 19  1  0
 19 20  2  0
 10  5  1  0
 19 11  1  0
 18 13  1  0
M  END
