CVD-0001210|dock_bobby27042020.39|mol2|3|dock1
     RDKit          3D

 27 29  0  0  0  0  0  0  0  0999 V2000
    5.5809    0.6212   18.1132 C   0  0  0  0  0  0  0  0  0  0  0  0
    6.8950    0.3626   18.6037 O   0  0  0  0  0  0  0  0  0  0  0  0
    7.1024   -0.6042   19.5559 C   0  0  0  0  0  0  0  0  0  0  0  0
    8.1719   -0.4393   20.4204 C   0  0  0  0  0  0  0  0  0  0  0  0
    8.4449   -1.4019   21.3885 C   0  0  0  0  0  0  0  0  0  0  0  0
    9.5385   -1.3113   22.2743 N   0  0  0  0  0  0  0  0  0  0  0  0
   10.6259   -0.4303   22.3159 C   0  0  0  0  0  0  0  0  0  0  0  0
   11.9635   -0.8017   22.1886 C   0  0  0  0  0  0  0  0  0  0  0  0
   12.9301    0.1757   22.2253 C   0  0  0  0  0  0  0  0  0  0  0  0
   14.2267   -0.2087   22.0787 F   0  0  0  0  0  0  0  0  0  0  0  0
   12.6746    1.5137   22.4016 C   0  0  0  0  0  0  0  0  0  0  0  0
   11.3468    1.9053   22.5560 C   0  0  0  0  0  0  0  0  0  0  0  0
   10.6981    3.1680   22.7663 C   0  0  0  0  0  0  0  0  0  0  0  0
   11.3708    4.5044   22.8814 C   0  0  0  0  0  0  0  0  0  0  0  0
   10.4288    5.6055   23.3261 C   0  0  0  0  0  0  0  0  0  0  0  0
    9.3986    5.8728   22.3328 N   0  0  0  0  0  0  0  0  0  0  0  0
    8.3142    6.6033   22.5995 C   0  0  0  0  0  0  0  0  0  0  0  0
    7.3556    6.8020   21.4624 C   0  0  0  0  0  0  0  0  0  0  0  0
    8.1201    7.0965   23.7062 O   0  0  0  0  0  0  0  0  0  0  0  0
    9.3621    2.9047   22.8387 C   0  0  0  0  0  0  0  0  0  0  0  0
    9.1318    1.5646   22.6881 N   0  0  0  0  0  0  0  0  0  0  0  0
   10.3355    0.9267   22.5122 C   0  0  0  0  0  0  0  0  0  0  0  0
    7.6054   -2.5040   21.5077 C   0  0  0  0  0  0  0  0  0  0  0  0
    6.5280   -2.6545   20.6447 C   0  0  0  0  0  0  0  0  0  0  0  0
    5.6801   -3.7309   20.7300 O   0  0  0  0  0  0  0  0  0  0  0  0
    6.1240   -4.9574   21.3070 C   0  0  0  0  0  0  0  0  0  0  0  0
    6.2745   -1.7131   19.6610 C   0  0  0  0  0  0  0  0  0  0  0  0
  1  2  1  0
  2  3  1  0
  3  4  2  0
  4  5  1  0
  5  6  1  0
  6  7  1  0
  7  8  2  0
  8  9  1  0
  9 10  1  0
  9 11  2  0
 11 12  1  0
 12 13  1  0
 13 14  1  0
 14 15  1  0
 15 16  1  0
 16 17  1  0
 17 18  1  0
 17 19  2  0
 13 20  2  0
 20 21  1  0
 21 22  1  0
  5 23  2  0
 23 24  1  0
 24 25  1  0
 25 26  1  0
 24 27  2  0
 27  3  1  0
 22  7  1  0
 22 12  2  0
M  END
