CVD-0001099|dock_bobby27042020.82|mol2|12|dock1
     RDKit          3D

 23 25  0  0  0  0  0  0  0  0999 V2000
   12.7190    6.3222   24.1956 C   0  0  0  0  0  0  0  0  0  0  0  0
   13.3345    5.4354   23.1533 C   0  0  0  0  0  0  0  0  0  0  0  0
   14.1223    5.8664   22.3171 O   0  0  0  0  0  0  0  0  0  0  0  0
   12.9883    4.1475   23.1990 N   0  0  0  0  0  0  0  0  0  0  0  0
   13.5139    3.1598   22.2674 C   0  0  0  0  0  0  0  0  0  0  0  0
   13.2073    1.7437   22.7123 C   0  0  0  0  0  0  0  0  0  0  0  0
   11.7646    1.3719   22.5326 C   0  0  0  0  0  0  0  0  0  0  0  0
   10.7331    2.1968   22.1908 C   0  0  0  0  0  0  0  0  0  0  0  0
    9.5609    1.4940   22.1231 N   0  0  0  0  0  0  0  0  0  0  0  0
    9.8219    0.1804   22.4259 C   0  0  0  0  0  0  0  0  0  0  0  0
    8.9472   -0.9083   22.4863 C   0  0  0  0  0  0  0  0  0  0  0  0
    7.4715   -0.7664   22.1967 C   0  0  0  0  0  0  0  0  0  0  0  0
    7.1990   -0.0081   20.9667 N   0  0  0  0  0  0  0  0  0  0  0  0
    7.6975   -0.7278   19.7886 C   0  0  0  0  0  0  0  0  0  0  0  0
    7.4764    0.0600   18.5124 C   0  0  0  0  0  0  0  0  0  0  0  0
    6.0148    0.4338   18.2975 C   0  0  0  0  0  0  0  0  0  0  0  0
    5.7954    1.2850   17.1693 O   0  0  0  0  0  0  0  0  0  0  0  0
    5.4932    1.0882   19.5720 C   0  0  0  0  0  0  0  0  0  0  0  0
    5.7647    0.2460   20.8074 C   0  0  0  0  0  0  0  0  0  0  0  0
    9.4927   -2.1446   22.8216 C   0  0  0  0  0  0  0  0  0  0  0  0
   10.8472   -2.2853   23.0860 C   0  0  0  0  0  0  0  0  0  0  0  0
   11.7015   -1.1947   23.0229 C   0  0  0  0  0  0  0  0  0  0  0  0
   11.1987    0.0623   22.6895 C   0  0  0  0  0  0  0  0  0  0  0  0
  1  2  1  0
  2  3  2  0
  2  4  1  0
  4  5  1  0
  5  6  1  0
  6  7  1  0
  7  8  2  0
  8  9  1  0
  9 10  1  0
 10 11  2  0
 11 12  1  0
 12 13  1  0
 13 14  1  0
 14 15  1  0
 15 16  1  0
 16 17  1  0
 16 18  1  0
 18 19  1  0
 11 20  1  0
 20 21  2  0
 21 22  1  0
 22 23  2  0
 23  7  1  0
 23 10  1  0
 19 13  1  0
M  END
