CVD-0000609|dock_bobby27042020.98|mol2|5|dock3
     RDKit          3D

 27 29  0  0  0  0  0  0  0  0999 V2000
   13.9841    5.9874   21.7718 N   0  0  0  0  0  0  0  0  0  0  0  0
   13.6124    5.2642   23.1508 S   0  0  0  0  0  0  0  0  0  0  0  0
   14.7760    4.5487   23.5809 O   0  0  0  0  0  0  0  0  0  0  0  0
   13.0547    6.2611   24.0148 O   0  0  0  0  0  0  0  0  0  0  0  0
   12.3467    4.0721   22.8345 C   0  0  0  0  0  0  0  0  0  0  0  0
   11.0243    4.4773   22.7641 C   0  0  0  0  0  0  0  0  0  0  0  0
   10.0404    3.5318   22.5295 C   0  0  0  0  0  0  0  0  0  0  0  0
   10.3698    2.1964   22.3667 C   0  0  0  0  0  0  0  0  0  0  0  0
   11.6995    1.8108   22.4230 C   0  0  0  0  0  0  0  0  0  0  0  0
   12.0843    0.4655   22.2402 O   0  0  0  0  0  0  0  0  0  0  0  0
   11.6569   -0.6910   23.0234 C   0  0  0  0  0  0  0  0  0  0  0  0
   10.1310   -0.8785   22.9953 C   0  0  0  0  0  0  0  0  0  0  0  0
    9.4959   -0.8475   21.6202 C   0  0  0  0  0  0  0  0  0  0  0  0
   10.1699   -0.9275   20.5987 O   0  0  0  0  0  0  0  0  0  0  0  0
    8.1463   -0.7284   21.6560 N   0  0  0  0  0  0  0  0  0  0  0  0
    7.1872   -0.6656   20.6151 C   0  0  0  0  0  0  0  0  0  0  0  0
    5.9330   -0.0784   20.7479 C   0  0  0  0  0  0  0  0  0  0  0  0
    5.0708   -0.0717   19.6648 C   0  0  0  0  0  0  0  0  0  0  0  0
    5.4820   -0.6483   18.4852 C   0  0  0  0  0  0  0  0  0  0  0  0
    6.6768   -1.2180   18.3282 N   0  0  0  0  0  0  0  0  0  0  0  0
    7.5014   -1.2193   19.3793 C   0  0  0  0  0  0  0  0  0  0  0  0
   12.0120   -0.3435   24.4668 C   0  0  0  0  0  0  0  0  0  0  0  0
   13.5143   -0.3018   24.6633 C   0  0  0  0  0  0  0  0  0  0  0  0
   14.1638   -1.6156   24.2562 C   0  0  0  0  0  0  0  0  0  0  0  0
   13.8069   -1.9763   22.8233 C   0  0  0  0  0  0  0  0  0  0  0  0
   12.2984   -2.0092   22.6136 C   0  0  0  0  0  0  0  0  0  0  0  0
   12.6966    2.7410   22.6682 C   0  0  0  0  0  0  0  0  0  0  0  0
  1  2  1  0
  2  3  2  0
  2  4  2  0
  2  5  1  0
  5  6  2  0
  6  7  1  0
  7  8  2  0
  8  9  1  0
  9 10  1  0
 10 11  1  0
 11 12  1  0
 12 13  1  0
 13 14  2  0
 13 15  1  0
 15 16  1  0
 16 17  2  0
 17 18  1  0
 18 19  2  0
 19 20  1  0
 20 21  2  0
 11 22  1  0
 22 23  1  0
 23 24  1  0
 24 25  1  0
 25 26  1  0
  9 27  2  0
 27  5  1  0
 26 11  1  0
 21 16  1  0
M  END
