CVD-0003294|dock_bobby27042020.2|mol2|29|dock1
     RDKit          3D

 16 17  0  0  0  0  0  0  0  0999 V2000
    8.9446   -0.5507   21.8385 C   0  0  0  0  0  0  0  0  0  0  0  0
   10.2252    0.0344   22.2291 N   0  0  0  0  0  0  0  0  0  0  0  0
   10.5099    1.3887   22.2710 C   0  0  0  0  0  0  0  0  0  0  0  0
    9.6457    2.3177   21.9309 O   0  0  0  0  0  0  0  0  0  0  0  0
   11.8332    1.5277   22.7250 C   0  0  0  0  0  0  0  0  0  0  0  0
   12.5207    2.6472   22.9116 N   0  0  0  0  0  0  0  0  0  0  0  0
   12.0520    3.9974   22.6850 C   0  0  0  0  0  0  0  0  0  0  0  0
   13.0672    5.0810   22.9881 C   0  0  0  0  0  0  0  0  0  0  0  0
   13.8819    5.4469   22.0110 N   0  0  0  0  0  0  0  0  0  0  0  0
   13.0979    5.5858   24.1141 O   0  0  0  0  0  0  0  0  0  0  0  0
   12.3521    0.1893   22.9710 C   0  0  0  0  0  0  0  0  0  0  0  0
   13.5718   -0.3131   23.4191 C   0  0  0  0  0  0  0  0  0  0  0  0
   13.7376   -1.6823   23.5529 C   0  0  0  0  0  0  0  0  0  0  0  0
   12.7095   -2.5521   23.2476 C   0  0  0  0  0  0  0  0  0  0  0  0
   11.4862   -2.0810   22.7966 C   0  0  0  0  0  0  0  0  0  0  0  0
   11.3205   -0.7073   22.6592 C   0  0  0  0  0  0  0  0  0  0  0  0
  1  2  1  0
  2  3  1  0
  3  4  1  0
  3  5  2  0
  5  6  1  0
  6  7  1  0
  7  8  1  0
  8  9  1  0
  8 10  2  0
  5 11  1  0
 11 12  2  0
 12 13  1  0
 13 14  2  0
 14 15  1  0
 15 16  2  0
 16  2  1  0
 16 11  1  0
M  END
