CVD-0003771|dock_bobby27042020.44|mol2|19|dock2
     RDKit          3D

 25 27  0  0  0  0  0  0  0  0999 V2000
   13.7678   -0.3984   26.0108 Cl  0  0  0  0  0  0  0  0  0  0  0  0
   14.2295   -1.0901   24.4502 C   0  0  0  0  0  0  0  0  0  0  0  0
   13.1928   -2.0940   23.9842 C   0  0  0  0  0  0  0  0  0  0  0  0
   13.4879   -3.2693   23.8081 O   0  0  0  0  0  0  0  0  0  0  0  0
   11.9386   -1.6437   23.7641 N   0  0  0  0  0  0  0  0  0  0  0  0
   11.4847   -0.2600   23.9358 C   0  0  0  0  0  0  0  0  0  0  0  0
   10.8067    0.2427   22.6772 C   0  0  0  0  0  0  0  0  0  0  0  0
    9.6894   -0.6870   22.2086 C   0  0  0  0  0  0  0  0  0  0  0  0
   10.2024   -2.1198   22.1419 C   0  0  0  0  0  0  0  0  0  0  0  0
   10.8556   -2.5624   23.4326 C   0  0  0  0  0  0  0  0  0  0  0  0
    9.0901   -0.2605   20.9259 N   0  0  0  0  0  0  0  0  0  0  0  0
    7.6602   -0.4900   20.6558 C   0  0  0  0  0  0  0  0  0  0  0  0
    6.9106    0.6261   21.3786 C   0  0  0  0  0  0  0  0  0  0  0  0
    5.4344    0.6018   21.0360 C   0  0  0  0  0  0  0  0  0  0  0  0
    5.2115    0.6958   19.5344 C   0  0  0  0  0  0  0  0  0  0  0  0
    5.9634   -0.4052   18.8043 C   0  0  0  0  0  0  0  0  0  0  0  0
    7.4467   -0.3956   19.1516 C   0  0  0  0  0  0  0  0  0  0  0  0
    7.1703   -1.7408   21.2720 C   0  0  0  0  0  0  0  0  0  0  0  0
    6.8666   -2.7514   21.8211 C   0  0  0  0  0  0  0  0  0  0  0  0
    6.5605   -3.9830   22.5208 C   0  0  0  0  0  0  0  0  0  0  0  0
    6.8322   -5.2125   21.6298 C   0  0  0  0  0  0  0  0  0  0  0  0
    6.4505   -6.5239   22.3139 C   0  0  0  0  0  0  0  0  0  0  0  0
    5.0062   -6.4976   22.7970 C   0  0  0  0  0  0  0  0  0  0  0  0
    4.7513   -5.3003   23.7013 C   0  0  0  0  0  0  0  0  0  0  0  0
    5.0977   -3.9927   22.9966 C   0  0  0  0  0  0  0  0  0  0  0  0
  1  2  1  0
  2  3  1  0
  3  4  2  0
  3  5  1  0
  5  6  1  0
  6  7  1  0
  7  8  1  0
  8  9  1  0
  9 10  1  0
  8 11  1  0
 11 12  1  0
 12 13  1  0
 13 14  1  0
 14 15  1  0
 15 16  1  0
 16 17  1  0
 12 18  1  0
 18 19  3  0
 19 20  1  0
 20 21  1  0
 21 22  1  0
 22 23  1  0
 23 24  1  0
 24 25  1  0
 10  5  1  0
 17 12  1  0
 25 20  1  0
M  END
