CVD-0001925|dock_bobby27042020.79|mol2|25|dock1
     RDKit          3D

 23 25  0  0  0  0  0  0  0  0999 V2000
   10.7314   -2.0516   21.2944 N   0  0  0  0  0  0  0  0  0  0  0  0
   10.1199   -0.8357   21.8751 C   0  0  0  0  0  0  0  0  0  0  0  0
    8.7260   -0.5598   21.3305 C   0  0  0  0  0  0  0  0  0  0  0  0
    8.8636    0.4825   20.3720 O   0  0  0  0  0  0  0  0  0  0  0  0
    7.6689    0.7092   19.5956 C   0  0  0  0  0  0  0  0  0  0  0  0
    6.4913    0.9450   20.5244 C   0  0  0  0  0  0  0  0  0  0  0  0
    5.2633    1.5103   19.8214 C   0  0  0  0  0  0  0  0  0  0  0  0
    4.0543    1.7634   20.7167 C   0  0  0  0  0  0  0  0  0  0  0  0
    2.7334    2.1944   20.0730 C   0  0  0  0  0  0  0  0  0  0  0  0
    1.6011    2.2651   21.1182 C   0  0  0  0  0  0  0  0  0  0  0  0
    0.2863    2.7625   20.5206 C   0  0  0  0  0  0  0  0  0  0  0  0
    0.4697    4.0976   19.8107 C   0  0  0  0  0  0  0  0  0  0  0  0
    1.5661    4.0141   18.7584 C   0  0  0  0  0  0  0  0  0  0  0  0
    2.8852    3.5548   19.3711 C   0  0  0  0  0  0  0  0  0  0  0  0
    7.5179   -0.5194   18.6587 C   0  0  0  0  0  0  0  0  0  0  0  0
    7.4081   -1.7554   19.5328 C   0  0  0  0  0  0  0  0  0  0  0  0
    6.7285   -2.9043   19.1004 C   0  0  0  0  0  0  0  0  0  0  0  0
    6.0754   -2.9496   17.8999 O   0  0  0  0  0  0  0  0  0  0  0  0
    6.7479   -4.0678   19.8679 C   0  0  0  0  0  0  0  0  0  0  0  0
    6.0948   -5.1684   19.4126 O   0  0  0  0  0  0  0  0  0  0  0  0
    7.4381   -4.1086   21.0699 C   0  0  0  0  0  0  0  0  0  0  0  0
    8.1095   -2.9811   21.5025 C   0  0  0  0  0  0  0  0  0  0  0  0
    8.1036   -1.8062   20.7509 C   0  0  0  0  0  0  0  0  0  0  0  0
  1  2  1  0
  2  3  1  0
  3  4  1  0
  4  5  1  0
  5  6  1  0
  6  7  1  0
  7  8  1  0
  8  9  1  0
  9 10  1  0
 10 11  1  0
 11 12  1  0
 12 13  1  0
 13 14  1  0
  5 15  1  0
 15 16  1  0
 16 17  2  0
 17 18  1  0
 17 19  1  0
 19 20  1  0
 19 21  2  0
 21 22  1  0
 22 23  2  0
 23  3  1  0
 14  9  1  0
 23 16  1  0
M  END
