CVD-0000321|dock_bobby27042020.99|mol2|5|dock3
     RDKit          3D

 21 22  0  0  0  0  0  0  0  0999 V2000
    4.9453    0.3113   18.1887 C   0  0  0  0  0  0  0  0  0  0  0  0
    5.8359   -1.1695   18.4735 S   0  0  0  0  0  0  0  0  0  0  0  0
    6.9590   -1.1892   17.5880 O   0  0  0  0  0  0  0  0  0  0  0  0
    4.9109   -2.2595   18.4279 O   0  0  0  0  0  0  0  0  0  0  0  0
    6.4162   -1.1082   19.9668 N   0  0  0  0  0  0  0  0  0  0  0  0
    7.6727   -0.3961   20.2287 C   0  0  0  0  0  0  0  0  0  0  0  0
    7.8583   -0.1670   21.7179 C   0  0  0  0  0  0  0  0  0  0  0  0
    8.8647    0.9218   22.0169 C   0  0  0  0  0  0  0  0  0  0  0  0
    8.4530    2.2471   22.1173 C   0  0  0  0  0  0  0  0  0  0  0  0
    9.3744    3.2422   22.3877 C   0  0  0  0  0  0  0  0  0  0  0  0
    8.8274    4.8911   22.5083 Cl  0  0  0  0  0  0  0  0  0  0  0  0
   10.7165    2.9657   22.5649 C   0  0  0  0  0  0  0  0  0  0  0  0
   11.1701    1.6430   22.4700 C   0  0  0  0  0  0  0  0  0  0  0  0
   12.4445    0.9989   22.5897 C   0  0  0  0  0  0  0  0  0  0  0  0
   12.2284   -0.3280   22.3859 C   0  0  0  0  0  0  0  0  0  0  0  0
   10.8959   -0.5621   22.1491 N   0  0  0  0  0  0  0  0  0  0  0  0
   10.2218    0.6375   22.1943 C   0  0  0  0  0  0  0  0  0  0  0  0
   13.4487   -1.5831   22.4242 S   0  0  0  0  0  0  0  0  0  0  0  0
   13.6678   -2.0376   20.9236 N   0  0  0  0  0  0  0  0  0  0  0  0
   14.6612   -0.9832   22.8763 O   0  0  0  0  0  0  0  0  0  0  0  0
   12.8978   -2.6897   23.1357 O   0  0  0  0  0  0  0  0  0  0  0  0
  1  2  1  0
  2  3  2  0
  2  4  2  0
  2  5  1  0
  5  6  1  0
  6  7  1  0
  7  8  1  0
  8  9  2  0
  9 10  1  0
 10 11  1  0
 10 12  2  0
 12 13  1  0
 13 14  1  0
 14 15  2  0
 15 16  1  0
 16 17  1  0
 15 18  1  0
 18 19  1  0
 18 20  2  0
 18 21  2  0
 17  8  1  0
 17 13  2  0
M  END
