CVD-0003614|dock_bobby27042020.87|mol2|22|dock3
     RDKit          3D

 18 19  0  0  0  0  0  0  0  0999 V2000
    8.4454   -0.3370   19.1149 C   0  0  0  0  0  0  0  0  0  0  0  0
    7.6232   -1.5451   19.5072 C   0  0  0  0  0  0  0  0  0  0  0  0
    6.3691   -1.7483   18.9085 C   0  0  0  0  0  0  0  0  0  0  0  0
    5.8785   -0.9150   17.9275 N   0  0  0  0  0  0  0  0  0  0  0  0
    5.6011   -2.8294   19.3242 C   0  0  0  0  0  0  0  0  0  0  0  0
    5.9917   -3.6985   20.2536 N   0  0  0  0  0  0  0  0  0  0  0  0
    7.2022   -3.5312   20.7905 C   0  0  0  0  0  0  0  0  0  0  0  0
    8.0610   -2.4817   20.4646 C   0  0  0  0  0  0  0  0  0  0  0  0
    9.3495   -2.3166   21.0469 N   0  0  0  0  0  0  0  0  0  0  0  0
    9.7704   -2.5087   22.3217 C   0  0  0  0  0  0  0  0  0  0  0  0
    9.0706   -2.8838   23.2561 O   0  0  0  0  0  0  0  0  0  0  0  0
   11.2434   -2.2038   22.5006 C   0  0  0  0  0  0  0  0  0  0  0  0
   11.6095   -0.7194   22.6275 C   0  0  0  0  0  0  0  0  0  0  0  0
   11.2305   -0.1689   24.0177 C   0  0  0  0  0  0  0  0  0  0  0  0
   11.6485    1.2889   24.2012 C   0  0  0  0  0  0  0  0  0  0  0  0
   13.1322    1.4806   23.9147 C   0  0  0  0  0  0  0  0  0  0  0  0
   13.4951    0.9650   22.5295 C   0  0  0  0  0  0  0  0  0  0  0  0
   13.1101   -0.5021   22.3685 C   0  0  0  0  0  0  0  0  0  0  0  0
  1  2  1  0
  2  3  2  0
  3  4  1  0
  3  5  1  0
  5  6  2  0
  6  7  1  0
  7  8  2  0
  8  9  1  0
  9 10  1  0
 10 11  2  0
 10 12  1  0
 12 13  1  0
 13 14  1  0
 14 15  1  0
 15 16  1  0
 16 17  1  0
 17 18  1  0
  8  2  1  0
 18 13  1  0
M  END
