CVD-0000191|dock_bobby27042020.13|mol2|41|dock2
     RDKit          3D

 25 28  0  0  0  0  0  0  0  0999 V2000
   15.0549    6.6882   22.3374 F   0  0  0  0  0  0  0  0  0  0  0  0
   13.9261    5.9351   22.4325 C   0  0  0  0  0  0  0  0  0  0  0  0
   13.8272    4.8042   21.6691 C   0  0  0  0  0  0  0  0  0  0  0  0
   12.6778    4.0399   21.7669 C   0  0  0  0  0  0  0  0  0  0  0  0
   11.6460    4.4154   22.6207 C   0  0  0  0  0  0  0  0  0  0  0  0
   10.4703    3.6764   22.7583 O   0  0  0  0  0  0  0  0  0  0  0  0
   10.4134    2.3441   22.4730 C   0  0  0  0  0  0  0  0  0  0  0  0
   11.4003    1.5289   22.7586 N   0  0  0  0  0  0  0  0  0  0  0  0
   11.2496    0.2375   22.4324 C   0  0  0  0  0  0  0  0  0  0  0  0
   10.1939   -0.3152   21.8403 N   0  0  0  0  0  0  0  0  0  0  0  0
    9.1596    0.5283   21.5350 C   0  0  0  0  0  0  0  0  0  0  0  0
    8.0032    0.0147   20.9025 C   0  0  0  0  0  0  0  0  0  0  0  0
    6.9635    0.8420   20.5910 C   0  0  0  0  0  0  0  0  0  0  0  0
    7.0132    2.1904   20.8828 C   0  0  0  0  0  0  0  0  0  0  0  0
    8.1068    2.7304   21.4918 C   0  0  0  0  0  0  0  0  0  0  0  0
    9.2113    1.9113   21.8349 C   0  0  0  0  0  0  0  0  0  0  0  0
   12.3706   -0.6728   22.7627 C   0  0  0  0  0  0  0  0  0  0  0  0
   13.1260   -0.5015   23.9164 C   0  0  0  0  0  0  0  0  0  0  0  0
   14.1665   -1.3701   24.1951 C   0  0  0  0  0  0  0  0  0  0  0  0
   14.4242   -2.3907   23.3085 C   0  0  0  0  0  0  0  0  0  0  0  0
   13.7198   -2.5843   22.1924 N   0  0  0  0  0  0  0  0  0  0  0  0
   12.7187   -1.7356   21.9397 C   0  0  0  0  0  0  0  0  0  0  0  0
   11.7987    5.5739   23.3777 C   0  0  0  0  0  0  0  0  0  0  0  0
   10.5321    6.0636   24.4548 Cl  0  0  0  0  0  0  0  0  0  0  0  0
   12.9397    6.3488   23.2928 C   0  0  0  0  0  0  0  0  0  0  0  0
  1  2  1  0
  2  3  2  0
  3  4  1  0
  4  5  2  0
  5  6  1  0
  6  7  1  0
  7  8  2  0
  8  9  1  0
  9 10  2  0
 10 11  1  0
 11 12  2  0
 12 13  1  0
 13 14  2  0
 14 15  1  0
 15 16  2  0
  9 17  1  0
 17 18  2  0
 18 19  1  0
 19 20  2  0
 20 21  1  0
 21 22  2  0
  5 23  1  0
 23 24  1  0
 23 25  2  0
 25  2  1  0
 16  7  1  0
 22 17  1  0
 16 11  1  0
M  END
