CVD-0002751|dock_bobby27042020.4|mol2|32|dock1
     RDKit          3D

 24 25  0  0  0  0  0  0  0  0999 V2000
   13.9429   -1.5753   21.6924 C   0  0  0  0  0  0  0  0  0  0  0  0
   12.4924   -1.5319   21.6622 N   0  0  0  0  0  0  0  0  0  0  0  0
   11.7769   -1.0900   22.6872 C   0  0  0  0  0  0  0  0  0  0  0  0
   12.2844   -0.6877   23.7306 O   0  0  0  0  0  0  0  0  0  0  0  0
   10.2597   -1.0976   22.5232 C   0  0  0  0  0  0  0  0  0  0  0  0
    9.7514   -2.5380   22.6210 C   0  0  0  0  0  0  0  0  0  0  0  0
    8.3430   -2.6648   23.1822 C   0  0  0  0  0  0  0  0  0  0  0  0
    7.8434   -4.0453   23.2406 N   0  0  0  0  0  0  0  0  0  0  0  0
    7.2149   -4.4173   21.9696 C   0  0  0  0  0  0  0  0  0  0  0  0
    6.7376   -5.8568   22.0212 C   0  0  0  0  0  0  0  0  0  0  0  0
    5.7944   -6.0437   23.1259 N   0  0  0  0  0  0  0  0  0  0  0  0
    6.3735   -5.6234   24.4056 C   0  0  0  0  0  0  0  0  0  0  0  0
    6.8659   -4.1903   24.3162 C   0  0  0  0  0  0  0  0  0  0  0  0
    4.5641   -6.5679   22.9559 C   0  0  0  0  0  0  0  0  0  0  0  0
    4.1592   -6.9308   21.8587 O   0  0  0  0  0  0  0  0  0  0  0  0
    3.7020   -6.6795   24.1980 C   0  0  0  0  0  0  0  0  0  0  0  0
    2.1325   -7.3990   23.8155 Cl  0  0  0  0  0  0  0  0  0  0  0  0
    9.8288   -0.5023   21.2725 N   0  0  0  0  0  0  0  0  0  0  0  0
    8.8744    0.5080   21.1893 C   0  0  0  0  0  0  0  0  0  0  0  0
    7.7977    0.3713   20.3213 C   0  0  0  0  0  0  0  0  0  0  0  0
    6.8431    1.3705   20.2314 C   0  0  0  0  0  0  0  0  0  0  0  0
    6.9525    2.5081   21.0014 C   0  0  0  0  0  0  0  0  0  0  0  0
    8.0171    2.6517   21.8645 C   0  0  0  0  0  0  0  0  0  0  0  0
    8.9781    1.6591   21.9629 C   0  0  0  0  0  0  0  0  0  0  0  0
  1  2  1  0
  2  3  1  0
  3  4  2  0
  3  5  1  0
  5  6  1  0
  6  7  1  0
  7  8  1  0
  8  9  1  0
  9 10  1  0
 10 11  1  0
 11 12  1  0
 12 13  1  0
 11 14  1  0
 14 15  2  0
 14 16  1  0
 16 17  1  0
  5 18  1  0
 18 19  1  0
 19 20  2  0
 20 21  1  0
 21 22  2  0
 22 23  1  0
 23 24  2  0
 13  8  1  0
 24 19  1  0
M  END
