CVD-0001091|dock_bobby27042020.25|mol2|10|dock2
     RDKit          3D

 22 23  0  0  0  0  0  0  0  0999 V2000
   13.7171   -2.3855   22.9874 C   0  0  0  0  0  0  0  0  0  0  0  0
   13.8509   -0.9077   23.0759 C   0  0  0  0  0  0  0  0  0  0  0  0
   12.5686   -0.3182   22.8306 O   0  0  0  0  0  0  0  0  0  0  0  0
   12.4552    1.0443   22.7000 C   0  0  0  0  0  0  0  0  0  0  0  0
   13.4947    1.9461   22.9026 C   0  0  0  0  0  0  0  0  0  0  0  0
   13.2884    3.3078   22.7515 C   0  0  0  0  0  0  0  0  0  0  0  0
   12.0484    3.7930   22.3985 C   0  0  0  0  0  0  0  0  0  0  0  0
   10.9977    2.9170   22.1928 C   0  0  0  0  0  0  0  0  0  0  0  0
   11.1772    1.5315   22.3386 C   0  0  0  0  0  0  0  0  0  0  0  0
   10.0572    0.6074   22.1194 C   0  0  0  0  0  0  0  0  0  0  0  0
   10.1011   -0.5504   21.4654 C   0  0  0  0  0  0  0  0  0  0  0  0
    8.9021   -1.3954   21.3109 C   0  0  0  0  0  0  0  0  0  0  0  0
    9.0370   -2.6218   21.3830 O   0  0  0  0  0  0  0  0  0  0  0  0
    7.5529   -0.8072   21.0731 C   0  0  0  0  0  0  0  0  0  0  0  0
    6.6940   -0.5619   22.1498 C   0  0  0  0  0  0  0  0  0  0  0  0
    5.4423   -0.0184   21.9495 C   0  0  0  0  0  0  0  0  0  0  0  0
    4.4112    0.2676   23.3234 Cl  0  0  0  0  0  0  0  0  0  0  0  0
    4.9881    0.3034   20.6908 C   0  0  0  0  0  0  0  0  0  0  0  0
    5.8238    0.0679   19.6119 C   0  0  0  0  0  0  0  0  0  0  0  0
    5.1461    0.5529   17.6878 I   0  0  0  0  0  0  0  0  0  0  0  0
    7.0999   -0.4809   19.7663 C   0  0  0  0  0  0  0  0  0  0  0  0
    7.8309   -0.6662   18.6266 O   0  0  0  0  0  0  0  0  0  0  0  0
  1  2  1  0
  2  3  1  0
  3  4  1  0
  4  5  2  0
  5  6  1  0
  6  7  2  0
  7  8  1  0
  8  9  2  0
  9 10  1  0
 10 11  2  0
 11 12  1  0
 12 13  2  0
 12 14  1  0
 14 15  2  0
 15 16  1  0
 16 17  1  0
 16 18  2  0
 18 19  1  0
 19 20  1  0
 19 21  2  0
 21 22  1  0
  9  4  1  0
 21 14  1  0
M  END
