CVD-0000107|dock_bobby27042020.42|mol2|38|dock1
     RDKit          3D

 17 19  0  0  0  0  0  0  0  0999 V2000
    6.0851    1.3801   17.3573 O   0  0  0  0  0  0  0  0  0  0  0  0
    6.2552    0.3422   18.2263 C   0  0  0  0  0  0  0  0  0  0  0  0
    5.4711   -0.7905   18.1033 C   0  0  0  0  0  0  0  0  0  0  0  0
    5.6571   -1.8355   18.9883 C   0  0  0  0  0  0  0  0  0  0  0  0
    6.6215   -1.7578   19.9788 C   0  0  0  0  0  0  0  0  0  0  0  0
    7.4158   -0.6206   20.1136 C   0  0  0  0  0  0  0  0  0  0  0  0
    7.2126    0.4363   19.2262 C   0  0  0  0  0  0  0  0  0  0  0  0
    8.4112   -0.5513   21.1473 N   0  0  0  0  0  0  0  0  0  0  0  0
    8.6867    1.1118   22.0052 Se  0  0  0  0  0  2  0  0  0  0  0  0
   10.4580    0.3597   22.2032 C   0  0  0  0  0  0  0  0  0  0  0  0
   11.5315    1.0152   23.0363 C   0  0  0  0  0  0  0  0  0  0  0  0
   12.4555    0.2629   23.6331 C   0  0  0  0  0  0  0  0  0  0  0  0
   12.4345   -1.1436   23.5145 C   0  0  0  0  0  0  0  0  0  0  0  0
   11.3524   -1.7883   23.0748 C   0  0  0  0  0  0  0  0  0  0  0  0
   10.1029   -1.0341   22.7112 C   0  0  0  0  0  0  0  0  0  0  0  0
    9.2259   -1.5640   21.5902 C   0  0  0  0  0  0  0  0  0  0  0  0
    9.2459   -2.7070   21.1763 O   0  0  0  0  0  0  0  0  0  0  0  0
  1  2  1  0
  2  3  2  0
  3  4  1  0
  4  5  2  0
  5  6  1  0
  6  7  2  0
  6  8  1  0
  8  9  1  0
  9 10  1  0
 10 11  1  0
 11 12  2  0
 12 13  1  0
 13 14  2  0
 14 15  1  0
 15 16  1  0
 16 17  2  0
  7  2  1  0
 16  8  1  0
 15 10  1  0
M  END
