CVD-0002319|dock_bobby27042020.77|mol2|39|dock1
     RDKit          3D

 25 27  0  0  0  0  0  0  0  0999 V2000
    7.8140   -1.1798   27.0697 C   0  0  0  0  0  0  0  0  0  0  0  0
    9.1850   -0.7953   26.5965 C   0  0  0  0  0  0  0  0  0  0  0  0
   10.0111   -0.3314   27.3750 O   0  0  0  0  0  0  0  0  0  0  0  0
    9.3931   -1.0304   25.2745 N   0  0  0  0  0  0  0  0  0  0  0  0
   10.5388   -0.8258   24.4570 C   0  0  0  0  0  0  0  0  0  0  0  0
   11.4727    0.1851   24.6824 C   0  0  0  0  0  0  0  0  0  0  0  0
   12.5472    0.3957   23.9165 N   0  0  0  0  0  0  0  0  0  0  0  0
   12.7212   -0.4007   22.8659 C   0  0  0  0  0  0  0  0  0  0  0  0
   11.8659   -1.4330   22.5509 C   0  0  0  0  0  0  0  0  0  0  0  0
   10.7549   -1.6762   23.3559 C   0  0  0  0  0  0  0  0  0  0  0  0
    9.8521   -2.8495   22.9899 C   0  0  0  0  0  0  0  0  0  0  0  0
    8.5651   -2.3712   22.4605 N   0  0  0  0  0  0  0  0  0  0  0  0
    8.7579   -1.2545   21.5209 C   0  0  0  0  0  0  0  0  0  0  0  0
    7.4330   -0.7395   21.0216 C   0  0  0  0  0  0  0  0  0  0  0  0
    6.6604   -1.8179   20.3972 N   0  0  0  0  0  0  0  0  0  0  0  0
    6.5063   -2.9766   21.2748 C   0  0  0  0  0  0  0  0  0  0  0  0
    7.8638   -3.4397   21.7470 C   0  0  0  0  0  0  0  0  0  0  0  0
    6.0094   -1.7537   19.2097 C   0  0  0  0  0  0  0  0  0  0  0  0
    6.0835   -0.4683   18.4392 C   0  0  0  0  0  0  0  0  0  0  0  0
    5.3920   -2.7202   18.7766 O   0  0  0  0  0  0  0  0  0  0  0  0
    9.6854   -3.7616   24.1863 C   0  0  0  0  0  0  0  0  0  0  0  0
    8.5118   -4.0049   24.8901 C   0  0  0  0  0  0  0  0  0  0  0  0
    8.7370   -4.9123   25.9534 C   0  0  0  0  0  0  0  0  0  0  0  0
   10.0120   -5.3268   26.0450 C   0  0  0  0  0  0  0  0  0  0  0  0
   11.0005   -4.6316   24.8398 S   0  0  0  0  0  0  0  0  0  0  0  0
  1  2  1  0
  2  3  2  0
  2  4  1  0
  4  5  1  0
  5  6  2  0
  6  7  1  0
  7  8  2  0
  8  9  1  0
  9 10  2  0
 10 11  1  0
 11 12  1  0
 12 13  1  0
 13 14  1  0
 14 15  1  0
 15 16  1  0
 16 17  1  0
 15 18  1  0
 18 19  1  0
 18 20  2  0
 11 21  1  0
 21 22  2  0
 22 23  1  0
 23 24  2  0
 24 25  1  0
 10  5  1  0
 17 12  1  0
 25 21  1  0
M  END
