CVD-0000098|dock_bobby27042020.71|mol2|26|dock2
     RDKit          3D

 28 30  0  0  0  0  0  0  0  0999 V2000
    3.0443    2.2946   20.2808 C   0  0  0  0  0  0  0  0  0  0  0  0
    4.1007    1.4397   19.6612 C   0  0  0  0  0  0  0  0  0  0  0  0
    4.7899    0.3648   20.0609 C   0  0  0  0  0  0  0  0  0  0  0  0
    5.6369    0.0454   18.9948 C   0  0  0  0  0  0  0  0  0  0  0  0
    6.6274   -1.0720   18.9048 C   0  0  0  0  0  0  0  0  0  0  0  0
    6.9580   -1.6273   20.2070 N   0  0  0  0  0  0  0  0  0  0  0  0
    7.7986   -0.7418   21.0168 C   0  0  0  0  0  0  0  0  0  0  0  0
    9.0479   -1.3268   21.4347 N   0  0  0  0  0  0  0  0  0  0  0  0
    9.6841   -0.9206   22.5331 C   0  0  0  0  0  0  0  0  0  0  0  0
    9.2515   -0.0277   23.2570 O   0  0  0  0  0  0  0  0  0  0  0  0
   10.9845   -1.6325   22.8388 C   0  0  0  0  0  0  0  0  0  0  0  0
   12.0752   -1.1662   21.9027 C   0  0  0  0  0  0  0  0  0  0  0  0
   13.4130   -1.8071   22.2574 C   0  0  0  0  0  0  0  0  0  0  0  0
   13.7846   -1.5458   23.6937 C   0  0  0  0  0  0  0  0  0  0  0  0
   12.6894   -1.9907   24.6339 C   0  0  0  0  0  0  0  0  0  0  0  0
   11.3500   -1.3575   24.2821 C   0  0  0  0  0  0  0  0  0  0  0  0
    6.5343   -2.8515   20.6331 C   0  0  0  0  0  0  0  0  0  0  0  0
    5.8368   -3.5353   19.8939 O   0  0  0  0  0  0  0  0  0  0  0  0
    6.8868   -3.2913   21.8567 N   0  0  0  0  0  0  0  0  0  0  0  0
    6.4176   -4.5786   22.3574 C   0  0  0  0  0  0  0  0  0  0  0  0
    5.9707   -4.7277   23.7827 C   0  0  0  0  0  0  0  0  0  0  0  0
    4.9393   -4.7527   22.6578 C   0  0  0  0  0  0  0  0  0  0  0  0
    4.3078   -6.0315   22.3031 N   0  0  0  0  0  0  0  0  0  0  0  0
    2.9979   -6.2446   22.9270 C   0  0  0  0  0  0  0  0  0  0  0  0
    2.4674   -7.6105   22.6908 C   0  0  0  0  0  0  0  0  0  0  0  0
    1.5663   -7.9470   21.8178 C   0  0  0  0  0  0  0  0  0  0  0  0
    5.4835    0.8675   17.9996 N   0  0  0  0  0  0  0  0  0  0  0  0
    4.4860    1.7826   18.4171 O   0  0  0  0  0  0  0  0  0  0  0  0
  1  2  1  0
  2  3  2  0
  3  4  1  0
  4  5  1  0
  5  6  1  0
  6  7  1  0
  7  8  1  0
  8  9  1  0
  9 10  2  0
  9 11  1  0
 11 12  1  0
 12 13  1  0
 13 14  1  0
 14 15  1  0
 15 16  1  0
  6 17  1  0
 17 18  2  0
 17 19  1  0
 20 19  1  0
 20 21  1  0
 21 22  1  0
 22 23  1  0
 23 24  1  0
 24 25  1  0
 25 26  2  0
  4 27  2  0
 27 28  1  0
 28  2  1  0
 16 11  1  0
 22 20  1  0
M  END
