CVD-0002304|dock_bobby27042020.92|mol2|6|dock3
     RDKit          3D

 40 43  0  0  0  0  0  0  0  0999 V2000
    4.1180   -0.1897   26.7918 C   0  0  0  0  0  0  0  0  0  0  0  0
    5.4554    0.0289   26.2347 N   0  0  0  0  0  0  0  0  0  0  0  0
    5.4658    0.4692   24.8356 C   0  0  0  0  0  0  0  0  0  0  0  0
    6.8636    0.7513   24.3507 C   0  0  0  0  0  0  0  0  0  0  0  0
    7.6650   -0.1025   23.7645 C   0  0  0  0  0  0  0  0  0  0  0  0
    8.9663    0.5421   23.3360 C   0  0  0  0  0  0  0  0  0  0  0  0
   10.2203   -0.1837   23.9027 C   0  0  0  0  0  0  0  0  0  0  0  0
   10.7242    0.4242   25.2040 C   0  0  0  0  0  0  0  0  0  0  0  0
    9.9903   -1.6466   24.1103 N   0  0  0  0  0  0  0  0  0  0  0  0
   10.5496   -2.5630   23.1159 C   0  0  0  0  0  0  0  0  0  0  0  0
    9.2583   -2.0698   25.1688 C   0  0  0  0  0  0  0  0  0  0  0  0
    8.7577   -1.2793   25.9457 O   0  0  0  0  0  0  0  0  0  0  0  0
    9.0555   -3.5543   25.4026 C   0  0  0  0  0  0  0  0  0  0  0  0
    9.0199   -3.8706   26.8927 C   0  0  0  0  0  0  0  0  0  0  0  0
    8.7783   -5.3490   27.1175 C   0  0  0  0  0  0  0  0  0  0  0  0
    7.5323   -5.7545   26.4724 N   0  0  0  0  0  0  0  0  0  0  0  0
    7.5404   -5.5199   25.0325 C   0  0  0  0  0  0  0  0  0  0  0  0
    7.7644   -4.0386   24.7468 C   0  0  0  0  0  0  0  0  0  0  0  0
    6.5694   -6.5231   27.0297 C   0  0  0  0  0  0  0  0  0  0  0  0
    5.5486   -6.7981   26.4116 O   0  0  0  0  0  0  0  0  0  0  0  0
    6.7747   -7.0332   28.4432 C   0  0  0  0  0  0  0  0  0  0  0  0
    5.5491   -8.2317   28.8777 Cl  0  0  0  0  0  0  0  0  0  0  0  0
    8.7653    1.9858   23.8965 C   0  0  0  0  0  0  0  0  0  0  0  0
    7.5770    1.9814   24.4803 C   0  0  0  0  0  0  0  0  0  0  0  0
    9.7808    3.0926   23.8914 C   0  0  0  0  0  0  0  0  0  0  0  0
   11.0271    2.9108   23.2825 C   0  0  0  0  0  0  0  0  0  0  0  0
   11.9916    3.9041   23.2797 C   0  0  0  0  0  0  0  0  0  0  0  0
   11.7495    5.1156   23.8812 C   0  0  0  0  0  0  0  0  0  0  0  0
   10.5279    5.3430   24.4830 C   0  0  0  0  0  0  0  0  0  0  0  0
    9.5792    4.3477   24.4682 C   0  0  0  0  0  0  0  0  0  0  0  0
    8.4098    4.6785   25.0595 F   0  0  0  0  0  0  0  0  0  0  0  0
    9.1243    0.6642   21.5200 S   0  0  0  0  0  0  0  0  0  0  0  0
    9.6965    1.9324   21.1667 O   0  0  0  0  0  0  0  0  0  0  0  0
    9.7807   -0.5295   21.0651 O   0  0  0  0  0  0  0  0  0  0  0  0
    7.4778    0.6242   20.8908 C   0  0  0  0  0  0  0  0  0  0  0  0
    7.0611   -0.4312   20.0978 C   0  0  0  0  0  0  0  0  0  0  0  0
    5.7623   -0.4227   19.6193 C   0  0  0  0  0  0  0  0  0  0  0  0
    4.9415    0.6320   19.9497 C   0  0  0  0  0  0  0  0  0  0  0  0
    5.3306    1.6557   20.7110 N   0  0  0  0  0  0  0  0  0  0  0  0
    6.5855    1.6419   21.1697 C   0  0  0  0  0  0  0  0  0  0  0  0
  1  2  1  0
  2  3  1  0
  3  4  1  0
  4  5  2  0
  5  6  1  0
  6  7  1  0
  7  8  1  0
  7  9  1  0
  9 10  1  0
  9 11  1  0
 11 12  2  0
 11 13  1  0
 13 14  1  0
 14 15  1  0
 15 16  1  0
 16 17  1  0
 17 18  1  0
 16 19  1  0
 19 20  2  0
 19 21  1  0
 21 22  1  0
  6 23  1  0
 23 24  2  0
 23 25  1  0
 25 26  2  0
 26 27  1  0
 27 28  2  0
 28 29  1  0
 29 30  2  0
 30 31  1  0
  6 32  1  0
 32 33  2  0
 32 34  2  0
 32 35  1  0
 35 36  2  0
 36 37  1  0
 37 38  2  0
 38 39  1  0
 39 40  2  0
 24  4  1  0
 30 25  1  0
 40 35  1  0
 18 13  1  0
M  END
