CVD-0001358|dock_bobby27042020.10|mol2|3|dock1
     RDKit          3D

 38 43  0  0  0  0  0  0  0  0999 V2000
   13.1605    4.8554   22.3730 C   0  0  0  0  0  0  0  0  0  0  0  0
   12.1545    3.7464   22.5116 C   0  0  0  0  0  0  0  0  0  0  0  0
   11.8048    3.2750   23.8069 C   0  0  0  0  0  0  0  0  0  0  0  0
   10.9011    2.2857   24.0020 C   0  0  0  0  0  0  0  0  0  0  0  0
   10.2807    1.6987   22.8753 C   0  0  0  0  0  0  0  0  0  0  0  0
    9.3645    0.7162   22.7622 N   0  0  0  0  0  0  0  0  0  0  0  0
    9.1824    0.6187   21.4391 N   0  0  0  0  0  0  0  0  0  0  0  0
    9.9000    1.4523   20.6759 N   0  0  0  0  0  0  0  0  0  0  0  0
   10.6108    2.1527   21.5814 C   0  0  0  0  0  0  0  0  0  0  0  0
   11.5617    3.1937   21.4115 C   0  0  0  0  0  0  0  0  0  0  0  0
    8.2702   -0.3226   20.8428 C   0  0  0  0  0  0  0  0  0  0  0  0
    7.9401   -1.4518   21.5885 C   0  0  0  0  0  0  0  0  0  0  0  0
    7.0778   -2.4325   21.0914 C   0  0  0  0  0  0  0  0  0  0  0  0
    6.7559   -3.6421   21.9323 C   0  0  0  0  0  0  0  0  0  0  0  0
    5.7166   -4.2416   21.7014 O   0  0  0  0  0  0  0  0  0  0  0  0
    7.6392   -4.1566   23.0408 C   0  0  0  0  0  0  0  0  0  0  0  0
    7.0659   -4.7828   24.1505 C   0  0  0  0  0  0  0  0  0  0  0  0
    7.8449   -5.2791   25.1932 C   0  0  0  0  0  0  0  0  0  0  0  0
    9.2343   -5.1301   25.1373 C   0  0  0  0  0  0  0  0  0  0  0  0
   10.0551   -5.5861   26.1195 O   0  0  0  0  0  0  0  0  0  0  0  0
    9.8119   -4.4976   24.0499 C   0  0  0  0  0  0  0  0  0  0  0  0
    9.0427   -4.0136   23.0052 C   0  0  0  0  0  0  0  0  0  0  0  0
    9.7237   -3.4199   21.9871 O   0  0  0  0  0  0  0  0  0  0  0  0
    7.1571   -5.9239   26.2818 N   0  0  0  0  0  0  0  0  0  0  0  0
    5.9890   -6.5606   26.1283 N   0  0  0  0  0  0  0  0  0  0  0  0
    5.7139   -7.0029   27.3717 C   0  0  0  0  0  0  0  0  0  0  0  0
    4.6287   -7.7461   27.8907 C   0  0  0  0  0  0  0  0  0  0  0  0
    4.6191   -8.0509   29.2100 C   0  0  0  0  0  0  0  0  0  0  0  0
    5.6586   -7.6517   30.0944 C   0  0  0  0  0  0  0  0  0  0  0  0
    5.5842   -8.0347   31.5466 C   0  0  0  0  0  0  0  0  0  0  0  0
    6.7173   -6.9367   29.6094 C   0  0  0  0  0  0  0  0  0  0  0  0
    6.7571   -6.5990   28.2306 C   0  0  0  0  0  0  0  0  0  0  0  0
    7.6707   -5.9109   27.5180 N   0  0  0  0  0  0  0  0  0  0  0  0
    6.5206   -2.2444   19.8086 C   0  0  0  0  0  0  0  0  0  0  0  0
    5.6650   -3.1193   19.2124 O   0  0  0  0  0  0  0  0  0  0  0  0
    6.8421   -1.1141   19.0761 C   0  0  0  0  0  0  0  0  0  0  0  0
    7.7097   -0.1564   19.5723 C   0  0  0  0  0  0  0  0  0  0  0  0
    7.9837    0.9212   18.7913 O   0  0  0  0  0  0  0  0  0  0  0  0
  1  2  1  0
  2  3  1  0
  3  4  2  0
  4  5  1  0
  5  6  2  0
  6  7  1  0
  7  8  1  0
  8  9  2  0
  9 10  1  0
  7 11  1  0
 11 12  2  0
 12 13  1  0
 13 14  1  0
 14 15  2  0
 14 16  1  0
 16 17  2  0
 17 18  1  0
 18 19  2  0
 19 20  1  0
 19 21  1  0
 21 22  2  0
 22 23  1  0
 18 24  1  0
 24 25  1  0
 25 26  2  0
 26 27  1  0
 27 28  2  0
 28 29  1  0
 29 30  1  0
 29 31  2  0
 31 32  1  0
 32 33  2  0
 13 34  2  0
 34 35  1  0
 34 36  1  0
 36 37  2  0
 37 38  1  0
 10  2  2  0
 37 11  1  0
  9  5  1  0
 22 16  1  0
 33 24  1  0
 32 26  1  0
M  END
