CVD-0003935|dock_bobby27042020.86|mol2|19|dock1
     RDKit          3D

 23 25  0  0  0  0  0  0  0  0999 V2000
    8.2550   -0.2407   19.1052 N   0  0  0  0  0  0  0  0  0  0  0  0
    8.2491    0.3117   20.6078 S   0  0  0  0  0  0  0  0  0  0  0  0
    8.9888    1.5381   20.6111 O   0  0  0  0  0  0  0  0  0  0  0  0
    6.8866    0.3246   21.0489 O   0  0  0  0  0  0  0  0  0  0  0  0
    9.1237   -0.8348   21.6294 C   0  0  0  0  0  0  0  0  0  0  0  0
    8.6158   -2.1094   21.8157 C   0  0  0  0  0  0  0  0  0  0  0  0
    9.3091   -2.9929   22.6234 C   0  0  0  0  0  0  0  0  0  0  0  0
   10.4894   -2.6006   23.2307 C   0  0  0  0  0  0  0  0  0  0  0  0
   11.0053   -1.3224   23.0459 C   0  0  0  0  0  0  0  0  0  0  0  0
   10.3048   -0.4330   22.2360 C   0  0  0  0  0  0  0  0  0  0  0  0
   12.3159   -0.9007   23.7134 C   0  0  0  0  0  0  0  0  0  0  0  0
   13.5604   -1.6931   23.2206 C   0  0  0  0  0  0  0  0  0  0  0  0
   14.3336   -2.0841   24.4378 C   0  0  0  0  0  0  0  0  0  0  0  0
   13.5497   -1.7274   25.6123 C   0  0  0  0  0  0  0  0  0  0  0  0
   12.2612   -1.1161   25.2426 C   0  0  0  0  0  0  0  0  0  0  0  0
   12.4633    0.5379   23.4271 C   0  0  0  0  0  0  0  0  0  0  0  0
   12.6398    1.6904   23.1716 C   0  0  0  0  0  0  0  0  0  0  0  0
   12.8695    3.0939   22.9513 C   0  0  0  0  0  0  0  0  0  0  0  0
   11.8664    4.0193   23.2215 C   0  0  0  0  0  0  0  0  0  0  0  0
   12.1325    5.3583   22.9943 C   0  0  0  0  0  0  0  0  0  0  0  0
   13.3673    5.7352   22.5130 C   0  0  0  0  0  0  0  0  0  0  0  0
   14.3005    4.7520   22.2738 C   0  0  0  0  0  0  0  0  0  0  0  0
   14.0810    3.4465   22.4808 N   0  0  0  0  0  0  0  0  0  0  0  0
  1  2  1  0
  2  3  2  0
  2  4  2  0
  2  5  1  0
  5  6  2  0
  6  7  1  0
  7  8  2  0
  8  9  1  0
  9 10  2  0
  9 11  1  0
 11 12  1  0
 12 13  1  0
 13 14  1  0
 14 15  1  0
 11 16  1  0
 16 17  3  0
 17 18  1  0
 18 19  2  0
 19 20  1  0
 20 21  2  0
 21 22  1  0
 22 23  2  0
 10  5  1  0
 15 11  1  0
 23 18  1  0
M  END
