CVD-0003221|dock_bobby27042020.60|mol2|27|dock1
     RDKit          3D

 31 34  0  0  0  0  0  0  0  0999 V2000
    7.3922   -2.9876   22.4737 O   0  0  0  0  0  0  0  0  0  0  0  0
    8.1218   -3.7724   23.0670 C   0  0  0  0  0  0  0  0  0  0  0  0
    7.7124   -5.2312   23.1540 C   0  0  0  0  0  0  0  0  0  0  0  0
    6.2442   -5.4433   22.8613 C   0  0  0  0  0  0  0  0  0  0  0  0
    5.2611   -4.8476   23.6335 C   0  0  0  0  0  0  0  0  0  0  0  0
    3.9268   -5.0665   23.3389 C   0  0  0  0  0  0  0  0  0  0  0  0
    3.6169   -5.8811   22.2736 C   0  0  0  0  0  0  0  0  0  0  0  0
    4.5406   -6.4696   21.5123 N   0  0  0  0  0  0  0  0  0  0  0  0
    5.8223   -6.2436   21.8163 C   0  0  0  0  0  0  0  0  0  0  0  0
    9.2879   -3.3350   23.6302 N   0  0  0  0  0  0  0  0  0  0  0  0
   10.0475   -4.3705   24.3310 C   0  0  0  0  0  0  0  0  0  0  0  0
    9.5090   -4.6827   25.7047 C   0  0  0  0  0  0  0  0  0  0  0  0
    8.4307   -4.0047   26.3247 C   0  0  0  0  0  0  0  0  0  0  0  0
    8.1122   -4.4643   27.5668 C   0  0  0  0  0  0  0  0  0  0  0  0
    9.1452   -5.7457   27.9851 S   0  0  0  0  0  0  0  0  0  0  0  0
    9.9908   -5.6681   26.5120 C   0  0  0  0  0  0  0  0  0  0  0  0
    9.8207   -1.9964   23.5834 C   0  0  0  0  0  0  0  0  0  0  0  0
   10.0022   -1.2310   24.7297 C   0  0  0  0  0  0  0  0  0  0  0  0
   10.5342    0.0438   24.6581 C   0  0  0  0  0  0  0  0  0  0  0  0
   10.8855    0.6095   23.4393 C   0  0  0  0  0  0  0  0  0  0  0  0
   11.4240    1.9223   23.4561 N   0  0  0  0  0  0  0  0  0  0  0  0
   11.5618    2.8402   22.4584 C   0  0  0  0  0  0  0  0  0  0  0  0
   11.1974    2.6475   21.3034 O   0  0  0  0  0  0  0  0  0  0  0  0
   12.1939    4.1716   22.7683 C   0  0  0  0  0  0  0  0  0  0  0  0
   13.1688    4.6535   21.8983 C   0  0  0  0  0  0  0  0  0  0  0  0
   13.7913    5.8698   22.1223 C   0  0  0  0  0  0  0  0  0  0  0  0
   13.4534    6.6302   23.2192 C   0  0  0  0  0  0  0  0  0  0  0  0
   12.4918    6.1727   24.0924 C   0  0  0  0  0  0  0  0  0  0  0  0
   11.8652    4.9568   23.8741 C   0  0  0  0  0  0  0  0  0  0  0  0
   10.6856   -0.1461   22.2870 C   0  0  0  0  0  0  0  0  0  0  0  0
   10.1645   -1.4258   22.3643 C   0  0  0  0  0  0  0  0  0  0  0  0
  1  2  2  0
  2  3  1  0
  3  4  1  0
  4  5  2  0
  5  6  1  0
  6  7  2  0
  7  8  1  0
  8  9  2  0
  2 10  1  0
 10 11  1  0
 11 12  1  0
 12 13  1  0
 13 14  2  0
 14 15  1  0
 15 16  1  0
 10 17  1  0
 17 18  2  0
 18 19  1  0
 19 20  2  0
 20 21  1  0
 21 22  1  0
 22 23  2  0
 22 24  1  0
 24 25  2  0
 25 26  1  0
 26 27  2  0
 27 28  1  0
 28 29  2  0
 20 30  1  0
 30 31  2  0
  9  4  1  0
 16 12  2  0
 31 17  1  0
 29 24  1  0
M  END
