CVD-0003441|dock_bobby27042020.2|mol2|8|dock1
     RDKit          3D

 20 22  0  0  0  0  0  0  0  0999 V2000
    8.8813   -0.6740   18.2419 F   0  0  0  0  0  0  0  0  0  0  0  0
    7.7138   -0.1391   18.6250 C   0  0  0  0  0  0  0  0  0  0  0  0
    6.7944   -0.1994   17.6953 N   0  0  0  0  0  0  0  0  0  0  0  0
    5.6112    0.3839   17.9262 C   0  0  0  0  0  0  0  0  0  0  0  0
    5.3191    1.0309   19.1195 C   0  0  0  0  0  0  0  0  0  0  0  0
    4.2227    1.7061   19.6015 N   0  0  0  0  0  0  0  0  0  0  0  0
    4.4852    2.1480   20.8767 C   0  0  0  0  0  0  0  0  0  0  0  0
    5.7343    1.7810   21.2508 C   0  0  0  0  0  0  0  0  0  0  0  0
    6.2898    1.0646   20.1385 C   0  0  0  0  0  0  0  0  0  0  0  0
    7.5288    0.4416   19.9115 C   0  0  0  0  0  0  0  0  0  0  0  0
    8.4565    0.4772   21.0103 N   0  0  0  0  0  0  0  0  0  0  0  0
    9.3507   -0.4630   21.4061 C   0  0  0  0  0  0  0  0  0  0  0  0
    9.5350   -1.5522   20.8767 O   0  0  0  0  0  0  0  0  0  0  0  0
   10.1321   -0.0347   22.6312 C   0  0  0  0  0  0  0  0  0  0  0  0
   11.2035   -1.0174   23.1213 C   0  0  0  0  0  0  0  0  0  0  0  0
   12.3492   -1.1490   22.0971 C   0  0  0  0  0  0  0  0  0  0  0  0
   13.4679   -2.0658   22.5885 C   0  0  0  0  0  0  0  0  0  0  0  0
   13.9892   -1.6241   23.9499 C   0  0  0  0  0  0  0  0  0  0  0  0
   12.8597   -1.5265   24.9652 C   0  0  0  0  0  0  0  0  0  0  0  0
   11.7658   -0.5786   24.4842 C   0  0  0  0  0  0  0  0  0  0  0  0
  1  2  1  0
  2  3  2  0
  3  4  1  0
  4  5  2  0
  5  6  1  0
  6  7  1  0
  7  8  2  0
  8  9  1  0
  9 10  2  0
 10 11  1  0
 11 12  1  0
 12 13  2  0
 12 14  1  0
 14 15  1  0
 15 16  1  0
 16 17  1  0
 17 18  1  0
 18 19  1  0
 19 20  1  0
 10  2  1  0
 20 15  1  0
  9  5  1  0
M  END
