CVD-0002398|dock_bobby27042020.20|mol2|16|dock3
     RDKit          3D

 26 29  0  0  0  0  0  0  0  0999 V2000
    6.6351   -6.6385   23.0747 F   0  0  0  0  0  0  0  0  0  0  0  0
    7.2056   -5.4405   22.8115 C   0  0  0  0  0  0  0  0  0  0  0  0
    6.6292   -4.6139   21.8846 C   0  0  0  0  0  0  0  0  0  0  0  0
    7.2154   -3.3807   21.6018 C   0  0  0  0  0  0  0  0  0  0  0  0
    8.3987   -3.0039   22.2546 C   0  0  0  0  0  0  0  0  0  0  0  0
    8.9505   -3.8528   23.2134 C   0  0  0  0  0  0  0  0  0  0  0  0
    8.3549   -5.0709   23.4801 C   0  0  0  0  0  0  0  0  0  0  0  0
    9.0634   -6.1252   24.6593 Cl  0  0  0  0  0  0  0  0  0  0  0  0
    8.9768   -1.7558   21.9119 N   0  0  0  0  0  0  0  0  0  0  0  0
   10.2230   -1.3349   22.5115 C   0  0  0  0  0  0  0  0  0  0  0  0
   10.2269   -0.5358   23.6491 C   0  0  0  0  0  0  0  0  0  0  0  0
   11.4253   -0.1352   24.2161 C   0  0  0  0  0  0  0  0  0  0  0  0
   12.6237   -0.5241   23.6582 C   0  0  0  0  0  0  0  0  0  0  0  0
   12.6290   -1.3155   22.5301 C   0  0  0  0  0  0  0  0  0  0  0  0
   11.4365   -1.7218   21.9549 C   0  0  0  0  0  0  0  0  0  0  0  0
    8.3955   -0.8757   20.9939 C   0  0  0  0  0  0  0  0  0  0  0  0
    8.9207    0.1995   20.7490 O   0  0  0  0  0  0  0  0  0  0  0  0
    7.2010   -1.2800   20.3771 N   0  0  0  0  0  0  0  0  0  0  0  0
    6.5858   -0.3799   19.4181 C   0  0  0  0  0  0  0  0  0  0  0  0
    5.2973    0.1043   19.6067 C   0  0  0  0  0  0  0  0  0  0  0  0
    4.7448    0.9633   18.6732 C   0  0  0  0  0  0  0  0  0  0  0  0
    5.4970    1.3145   17.5768 C   0  0  0  0  0  0  0  0  0  0  0  0
    6.7344    0.8650   17.3688 N   0  0  0  0  0  0  0  0  0  0  0  0
    7.2555    0.0328   18.2757 C   0  0  0  0  0  0  0  0  0  0  0  0
    6.5598   -2.5109   20.6189 C   0  0  0  0  0  0  0  0  0  0  0  0
    5.5355   -2.8482   20.0499 O   0  0  0  0  0  0  0  0  0  0  0  0
  1  2  1  0
  2  3  2  0
  3  4  1  0
  4  5  2  0
  5  6  1  0
  6  7  2  0
  7  8  1  0
  5  9  1  0
  9 10  1  0
 10 11  2  0
 11 12  1  0
 12 13  2  0
 13 14  1  0
 14 15  2  0
  9 16  1  0
 16 17  2  0
 16 18  1  0
 18 19  1  0
 19 20  2  0
 20 21  1  0
 21 22  2  0
 22 23  1  0
 23 24  2  0
 18 25  1  0
 25 26  2  0
  7  2  1  0
 15 10  1  0
 24 19  1  0
 25  4  1  0
M  END
