CVD-0003987|dock_bobby27042020.14|mol2|43|dock2
     RDKit          3D

 21 20  0  0  0  0  0  0  0  0999 V2000
   12.3099    4.4048   22.3502 O   0  0  0  0  0  0  0  0  0  0  0  0
   13.1813    3.4088   22.4864 C   0  0  0  0  0  0  0  0  0  0  0  0
   12.8402    2.1472   22.8543 C   0  0  0  0  0  0  0  0  0  0  0  0
   13.8105    1.0516   23.0059 C   0  0  0  0  0  0  0  0  0  0  0  0
   14.8872    1.0218   22.4405 O   0  0  0  0  0  0  0  0  0  0  0  0
   13.2892   -0.2345   24.0942 S   0  0  0  0  0  0  0  0  0  0  0  0
   13.3033   -1.7355   23.0652 C   0  0  0  0  0  0  0  0  0  0  0  0
   12.2856   -1.7676   21.9736 C   0  0  0  0  0  0  0  0  0  0  0  0
   11.0727   -1.2386   22.0374 C   0  0  0  0  0  0  0  0  0  0  0  0
   10.1538   -1.2945   20.9870 N   0  0  0  0  0  0  0  0  0  0  0  0
    8.8402   -0.9876   21.1103 C   0  0  0  0  0  0  0  0  0  0  0  0
    8.3537   -0.6297   22.1819 O   0  0  0  0  0  0  0  0  0  0  0  0
    8.0292   -1.1254   19.8118 C   0  0  0  0  0  0  0  0  0  0  0  0
    8.4810   -0.9069   18.7114 O   0  0  0  0  0  0  0  0  0  0  0  0
    6.7728   -1.5132   20.0440 O   0  0  0  0  0  0  0  0  0  0  0  0
    5.8860   -1.4770   18.9081 C   0  0  0  0  0  0  0  0  0  0  0  0
    5.2665   -0.1471   18.5686 C   0  0  0  0  0  0  0  0  0  0  0  0
    5.4782    0.2192   17.4193 O   0  0  0  0  0  0  0  0  0  0  0  0
    4.4820    0.6876   19.4477 C   0  0  0  0  0  0  0  0  0  0  0  0
    3.9929    1.8584   19.1419 C   0  0  0  0  0  0  0  0  0  0  0  0
    3.4618    2.9988   18.8387 C   0  0  0  0  0  0  0  0  0  0  0  0
  1  2  1  0
  2  3  2  0
  3  4  1  0
  4  5  2  0
  4  6  1  0
  6  7  1  0
  7  8  1  0
  8  9  2  0
  9 10  1  0
 10 11  1  0
 11 12  2  0
 11 13  1  0
 13 14  2  0
 13 15  1  0
 15 16  1  0
 16 17  1  0
 17 18  2  0
 17 19  1  0
 19 20  2  0
 20 21  2  0
M  END
