CVD-0001391|dock_bobby27042020.52|mol2|43|dock3
     RDKit          3D

 20 22  0  0  0  0  0  0  0  0999 V2000
   10.4558   -2.5385   21.0104 O   0  0  0  0  0  0  0  0  0  0  0  0
   10.3383   -1.6601   21.8557 C   0  0  0  0  0  0  0  0  0  0  0  0
    8.9715   -1.0839   22.1804 C   0  0  0  0  0  0  0  0  0  0  0  0
    7.8501   -1.7345   21.4272 C   0  0  0  0  0  0  0  0  0  0  0  0
    6.9793   -1.1360   20.5645 C   0  0  0  0  0  0  0  0  0  0  0  0
    6.0893   -2.0504   20.0671 N   0  0  0  0  0  0  0  0  0  0  0  0
    6.3729   -3.2707   20.6065 C   0  0  0  0  0  0  0  0  0  0  0  0
    5.7353   -4.4312   20.3775 N   0  0  0  0  0  0  0  0  0  0  0  0
    6.2035   -5.5035   21.0308 C   0  0  0  0  0  0  0  0  0  0  0  0
    7.2747   -5.4678   21.8978 C   0  0  0  0  0  0  0  0  0  0  0  0
    7.9209   -4.2624   22.1224 C   0  0  0  0  0  0  0  0  0  0  0  0
    7.4727   -3.1173   21.4673 C   0  0  0  0  0  0  0  0  0  0  0  0
   11.3932   -1.1708   22.5404 N   0  0  0  0  0  0  0  0  0  0  0  0
   11.2703   -0.1457   23.5725 C   0  0  0  0  0  0  0  0  0  0  0  0
   11.7185   -0.6540   24.9414 C   0  0  0  0  0  0  0  0  0  0  0  0
   13.4127   -1.1526   24.8671 S   0  0  0  0  0  0  0  0  0  0  0  0
   13.7661   -1.8549   26.0711 O   0  0  0  0  0  0  0  0  0  0  0  0
   14.2209   -0.0271   24.4825 O   0  0  0  0  0  0  0  0  0  0  0  0
   13.3493   -2.3107   23.5276 C   0  0  0  0  0  0  0  0  0  0  0  0
   12.7473   -1.6371   22.2844 C   0  0  0  0  0  0  0  0  0  0  0  0
  1  2  2  0
  2  3  1  0
  3  4  1  0
  4  5  2  0
  5  6  1  0
  6  7  1  0
  7  8  2  0
  8  9  1  0
  9 10  2  0
 10 11  1  0
 11 12  2  0
  2 13  1  0
 13 14  1  0
 14 15  1  0
 15 16  1  0
 16 17  2  0
 16 18  2  0
 16 19  1  0
 19 20  1  0
 12  4  1  0
 20 13  1  0
 12  7  1  0
M  END
