CVD-0001419|dock_bobby27042020.9|mol2|42|dock2
     RDKit          3D

 17 18  0  0  0  0  0  0  0  0999 V2000
    4.0104    1.3976   18.6234 F   0  0  0  0  0  0  0  0  0  0  0  0
    5.1695    0.8402   19.0666 C   0  0  0  0  0  0  0  0  0  0  0  0
    6.2514    0.8253   18.2319 C   0  0  0  0  0  0  0  0  0  0  0  0
    7.4266    0.2569   18.6891 C   0  0  0  0  0  0  0  0  0  0  0  0
    7.5140   -0.2884   19.9652 C   0  0  0  0  0  0  0  0  0  0  0  0
    8.7615   -0.8494   20.3446 N   0  0  0  0  0  0  0  0  0  0  0  0
    9.4040   -1.0046   21.5392 C   0  0  0  0  0  0  0  0  0  0  0  0
    8.8335   -0.5699   22.6617 N   0  0  0  0  0  0  0  0  0  0  0  0
   10.6238   -1.6220   21.5159 N   0  0  0  0  0  0  0  0  0  0  0  0
   11.5627   -2.0088   22.5067 C   0  0  0  0  0  0  0  0  0  0  0  0
   12.8901   -1.6317   22.3480 C   0  0  0  0  0  0  0  0  0  0  0  0
   13.8303   -2.0154   23.2881 C   0  0  0  0  0  0  0  0  0  0  0  0
   13.4184   -2.7692   24.3622 C   0  0  0  0  0  0  0  0  0  0  0  0
   12.1512   -3.1367   24.5513 N   0  0  0  0  0  0  0  0  0  0  0  0
   11.2472   -2.7343   23.6528 C   0  0  0  0  0  0  0  0  0  0  0  0
    6.3843   -0.2499   20.7814 C   0  0  0  0  0  0  0  0  0  0  0  0
    5.2057    0.3176   20.3292 C   0  0  0  0  0  0  0  0  0  0  0  0
  1  2  1  0
  2  3  2  0
  3  4  1  0
  4  5  2  0
  5  6  1  0
  6  7  1  0
  7  8  2  0
  7  9  1  0
  9 10  1  0
 10 11  2  0
 11 12  1  0
 12 13  2  0
 13 14  1  0
 14 15  2  0
  5 16  1  0
 16 17  2  0
 17  2  1  0
 15 10  1  0
M  END
