CVD-0000043|dock_bobby27042020.28|mol2|36|dock1
     RDKit          3D

 20 21  0  0  0  0  0  0  0  0999 V2000
    9.6152    1.1573   21.0101 O   0  0  0  0  0  0  0  0  0  0  0  0
    9.4209    1.4619   22.4014 S   0  0  0  0  0  0  0  0  0  0  0  0
    8.1238    1.2457   22.9815 O   0  0  0  0  0  0  0  0  0  0  0  0
   10.5977    0.5661   23.3318 C   0  0  0  0  0  0  0  0  0  0  0  0
   11.5488   -0.1461   22.7531 C   0  0  0  0  0  0  0  0  0  0  0  0
   12.5874   -0.9286   23.4333 C   0  0  0  0  0  0  0  0  0  0  0  0
   13.0258   -0.6217   24.7166 C   0  0  0  0  0  0  0  0  0  0  0  0
   14.0086   -1.3936   25.3109 C   0  0  0  0  0  0  0  0  0  0  0  0
   14.5273   -2.4545   24.6030 C   0  0  0  0  0  0  0  0  0  0  0  0
   14.1302   -2.7770   23.3709 N   0  0  0  0  0  0  0  0  0  0  0  0
   13.1802   -2.0201   22.8132 C   0  0  0  0  0  0  0  0  0  0  0  0
    9.8575    3.1510   22.6559 C   0  0  0  0  0  0  0  0  0  0  0  0
    8.8905    4.1381   22.5612 C   0  0  0  0  0  0  0  0  0  0  0  0
    9.2600    5.4579   22.7600 C   0  0  0  0  0  0  0  0  0  0  0  0
   10.5760    5.7797   23.0475 C   0  0  0  0  0  0  0  0  0  0  0  0
   11.5444    4.7924   23.1417 C   0  0  0  0  0  0  0  0  0  0  0  0
   12.9828    5.1564   23.4527 C   0  0  0  0  0  0  0  0  0  0  0  0
   13.7240    5.6438   22.2912 C   0  0  0  0  0  0  0  0  0  0  0  0
   14.3116    5.9943   21.3843 N   0  0  0  0  0  0  0  0  0  0  0  0
   11.1765    3.4682   22.9414 C   0  0  0  0  0  0  0  0  0  0  0  0
  1  2  2  0
  2  3  2  0
  2  4  1  0
  4  5  2  0
  5  6  1  0
  6  7  2  0
  7  8  1  0
  8  9  2  0
  9 10  1  0
 10 11  2  0
  2 12  1  0
 12 13  2  0
 13 14  1  0
 14 15  2  0
 15 16  1  0
 16 17  1  0
 17 18  1  0
 18 19  3  0
 16 20  2  0
 11  6  1  0
 20 12  1  0
M  END
