CVD-0000009|dock_bobby27042020.43|mol2|12|dock3
     RDKit          3D

 21 22  0  0  0  0  0  0  0  0999 V2000
    9.9428   -5.2896   26.2871 C   0  0  0  0  0  0  0  0  0  0  0  0
   10.3365   -5.4818   24.8889 N   0  0  0  0  0  0  0  0  0  0  0  0
    9.1829   -5.4835   23.9906 C   0  0  0  0  0  0  0  0  0  0  0  0
    8.9556   -4.1138   23.3722 C   0  0  0  0  0  0  0  0  0  0  0  0
    7.7759   -4.0615   22.3870 C   0  0  0  0  0  0  0  0  0  0  0  0
    7.7097   -2.6923   21.7063 C   0  0  0  0  0  0  0  0  0  0  0  0
    8.4682   -1.7864   22.0396 O   0  0  0  0  0  0  0  0  0  0  0  0
    6.7543   -2.6051   20.7479 N   0  0  0  0  0  0  0  0  0  0  0  0
    6.3751   -1.5273   19.9099 C   0  0  0  0  0  0  0  0  0  0  0  0
    6.4399   -0.1894   20.2862 C   0  0  0  0  0  0  0  0  0  0  0  0
    6.0435    0.7861   19.3875 C   0  0  0  0  0  0  0  0  0  0  0  0
    5.5958    0.4017   18.1447 C   0  0  0  0  0  0  0  0  0  0  0  0
    5.5226   -0.8713   17.7562 N   0  0  0  0  0  0  0  0  0  0  0  0
    5.9075   -1.8052   18.6306 C   0  0  0  0  0  0  0  0  0  0  0  0
    6.4461   -4.3304   23.0736 C   0  0  0  0  0  0  0  0  0  0  0  0
    5.8873   -3.3935   23.9312 C   0  0  0  0  0  0  0  0  0  0  0  0
    4.6747   -3.6387   24.5533 C   0  0  0  0  0  0  0  0  0  0  0  0
    4.0024   -4.8274   24.3245 C   0  0  0  0  0  0  0  0  0  0  0  0
    4.5625   -5.7523   23.4708 C   0  0  0  0  0  0  0  0  0  0  0  0
    3.7279   -7.2514   23.1731 Cl  0  0  0  0  0  0  0  0  0  0  0  0
    5.7702   -5.5196   22.8449 C   0  0  0  0  0  0  0  0  0  0  0  0
  1  2  1  0
  2  3  1  0
  3  4  1  0
  4  5  1  0
  5  6  1  0
  6  7  2  0
  6  8  1  0
  8  9  1  0
  9 10  2  0
 10 11  1  0
 11 12  2  0
 12 13  1  0
 13 14  2  0
  5 15  1  0
 15 16  2  0
 16 17  1  0
 17 18  2  0
 18 19  1  0
 19 20  1  0
 19 21  2  0
 14  9  1  0
 21 15  1  0
M  END
