CVD-0000267|dock_bobby27042020.99|mol2|13|dock2
     RDKit          3D

 29 32  0  0  0  0  0  0  0  0999 V2000
   14.3499    4.5416   22.5459 C   0  0  0  0  0  0  0  0  0  0  0  0
   13.0650    3.8357   22.2841 C   0  0  0  0  0  0  0  0  0  0  0  0
   12.4709    3.8867   21.1351 N   0  0  0  0  0  0  0  0  0  0  0  0
   11.3104    3.0999   21.3404 O   0  0  0  0  0  0  0  0  0  0  0  0
   11.3740    2.6815   22.6092 C   0  0  0  0  0  0  0  0  0  0  0  0
   10.2597    1.8313   23.1006 C   0  0  0  0  0  0  0  0  0  0  0  0
   10.4688    0.3464   22.7786 C   0  0  0  0  0  0  0  0  0  0  0  0
    9.3091   -0.3944   23.2687 N   0  0  0  0  0  0  0  0  0  0  0  0
    8.5689   -1.1856   22.4616 C   0  0  0  0  0  0  0  0  0  0  0  0
    8.7783   -1.2766   21.2548 O   0  0  0  0  0  0  0  0  0  0  0  0
    7.5812   -1.8693   23.0800 N   0  0  0  0  0  0  0  0  0  0  0  0
    6.6286   -2.7030   22.3583 C   0  0  0  0  0  0  0  0  0  0  0  0
    7.2257   -4.1001   22.1441 C   0  0  0  0  0  0  0  0  0  0  0  0
    6.4000   -5.3262   22.0650 C   0  0  0  0  0  0  0  0  0  0  0  0
    7.3431   -5.1550   23.1915 C   0  0  0  0  0  0  0  0  0  0  0  0
    6.2463   -2.0777   21.0321 C   0  0  0  0  0  0  0  0  0  0  0  0
    6.0732   -2.8492   19.8945 C   0  0  0  0  0  0  0  0  0  0  0  0
    5.7344   -2.3600   18.6981 N   0  0  0  0  0  0  0  0  0  0  0  0
    5.5512   -1.0400   18.6005 C   0  0  0  0  0  0  0  0  0  0  0  0
    5.7010   -0.1970   19.6819 C   0  0  0  0  0  0  0  0  0  0  0  0
    5.4271    1.6721   19.4844 Br  0  0  0  0  0  0  0  0  0  0  0  0
    6.0509   -0.7109   20.9116 C   0  0  0  0  0  0  0  0  0  0  0  0
   11.7568   -0.1648   23.3932 C   0  0  0  0  0  0  0  0  0  0  0  0
   12.7294   -0.7649   22.6056 C   0  0  0  0  0  0  0  0  0  0  0  0
   13.9044   -1.2346   23.1682 C   0  0  0  0  0  0  0  0  0  0  0  0
   14.1209   -1.1110   24.5239 C   0  0  0  0  0  0  0  0  0  0  0  0
   13.1628   -0.5183   25.3182 C   0  0  0  0  0  0  0  0  0  0  0  0
   11.9874   -0.0482   24.7568 C   0  0  0  0  0  0  0  0  0  0  0  0
   12.4165    3.0996   23.2400 N   0  0  0  0  0  0  0  0  0  0  0  0
  1  2  1  0
  2  3  2  0
  3  4  1  0
  4  5  1  0
  5  6  1  0
  6  7  1  0
  7  8  1  0
  8  9  1  0
  9 10  2  0
  9 11  1  0
 11 12  1  0
 12 13  1  0
 13 14  1  0
 14 15  1  0
 12 16  1  0
 16 17  2  0
 17 18  1  0
 18 19  2  0
 19 20  1  0
 20 21  1  0
 20 22  2  0
  7 23  1  0
 23 24  2  0
 24 25  1  0
 25 26  2  0
 26 27  1  0
 27 28  2  0
  5 29  2  0
 29  2  1  0
 15 13  1  0
 22 16  1  0
 28 23  1  0
M  END
