CVD-0000471|dock_bobby27042020.12|mol2|46|dock3
     RDKit          3D

 28 31  0  0  0  0  0  0  0  0999 V2000
   14.6112    6.0685   22.5799 Cl  0  0  0  0  0  0  0  0  0  0  0  0
   13.4930    4.9505   23.3093 C   0  0  0  0  0  0  0  0  0  0  0  0
   12.5398    5.4259   24.1806 C   0  0  0  0  0  0  0  0  0  0  0  0
   11.6497    4.5277   24.7415 C   0  0  0  0  0  0  0  0  0  0  0  0
   11.7220    3.1799   24.4315 C   0  0  0  0  0  0  0  0  0  0  0  0
   12.7072    2.6949   23.5714 C   0  0  0  0  0  0  0  0  0  0  0  0
   13.5865    3.6094   22.9986 C   0  0  0  0  0  0  0  0  0  0  0  0
   12.8886    1.2485   23.1959 C   0  0  0  0  0  0  0  0  0  0  0  0
   13.9397    0.7356   23.5397 O   0  0  0  0  0  0  0  0  0  0  0  0
   11.9894    0.4906   22.5271 N   0  0  0  0  0  0  0  0  0  0  0  0
   10.7083    0.9578   22.0003 C   0  0  0  0  0  0  0  0  0  0  0  0
    9.5840    0.0727   22.4944 C   0  0  0  0  0  0  0  0  0  0  0  0
    9.8641   -1.3242   22.1696 N   0  0  0  0  0  0  0  0  0  0  0  0
   11.1452   -1.7913   22.6964 C   0  0  0  0  0  0  0  0  0  0  0  0
   12.2695   -0.9062   22.2023 C   0  0  0  0  0  0  0  0  0  0  0  0
    8.9671   -2.0801   21.5025 C   0  0  0  0  0  0  0  0  0  0  0  0
    9.2340   -3.2467   21.2400 O   0  0  0  0  0  0  0  0  0  0  0  0
    7.5946   -1.5505   21.0515 C   0  0  0  0  0  0  0  0  0  0  0  0
    6.5837   -1.8721   21.6686 O   0  0  0  0  0  0  0  0  0  0  0  0
    7.4768   -0.6855   19.8989 C   0  0  0  0  0  0  0  0  0  0  0  0
    8.4042   -0.3549   18.9326 C   0  0  0  0  0  0  0  0  0  0  0  0
    7.8568    0.5062   18.0218 N   0  0  0  0  0  0  0  0  0  0  0  0
    6.5525    0.7702   18.3625 C   0  0  0  0  0  0  0  0  0  0  0  0
    5.5521    1.5554   17.8050 C   0  0  0  0  0  0  0  0  0  0  0  0
    4.3292    1.6547   18.3357 N   0  0  0  0  0  0  0  0  0  0  0  0
    4.0768    0.9635   19.4485 C   0  0  0  0  0  0  0  0  0  0  0  0
    4.9985    0.1538   20.0822 C   0  0  0  0  0  0  0  0  0  0  0  0
    6.2756    0.0427   19.5367 C   0  0  0  0  0  0  0  0  0  0  0  0
  1  2  1  0
  2  3  2  0
  3  4  1  0
  4  5  2  0
  5  6  1  0
  6  7  2  0
  6  8  1  0
  8  9  2  0
  8 10  1  0
 10 11  1  0
 11 12  1  0
 12 13  1  0
 13 14  1  0
 14 15  1  0
 13 16  1  0
 16 17  2  0
 16 18  1  0
 18 19  2  0
 18 20  1  0
 20 21  2  0
 21 22  1  0
 22 23  1  0
 23 24  2  0
 24 25  1  0
 25 26  2  0
 26 27  1  0
 27 28  2  0
  7  2  1  0
 15 10  1  0
 28 20  1  0
 28 23  1  0
M  END
