CVD-0002087|dock_bobby27042020.93|mol2|6|dock2
     RDKit          3D

 17 18  0  0  0  0  0  0  0  0999 V2000
    8.4600   -0.6433   20.7623 C   0  0  0  0  0  0  0  0  0  0  0  0
    7.3586   -1.1237   19.8344 C   0  0  0  0  0  0  0  0  0  0  0  0
    6.2788   -0.0897   19.6256 C   0  0  0  0  0  0  0  0  0  0  0  0
    5.1813   -0.0289   20.4706 C   0  0  0  0  0  0  0  0  0  0  0  0
    4.1919    0.9216   20.2813 C   0  0  0  0  0  0  0  0  0  0  0  0
    4.2886    1.8242   19.2445 C   0  0  0  0  0  0  0  0  0  0  0  0
    5.3748    1.7763   18.3975 C   0  0  0  0  0  0  0  0  0  0  0  0
    6.3635    0.8255   18.5875 C   0  0  0  0  0  0  0  0  0  0  0  0
    9.4893   -1.6724   20.9181 N   0  0  0  0  0  0  0  0  0  0  0  0
   10.5036   -1.3873   21.8943 C   0  0  0  0  0  0  0  0  0  0  0  0
   12.1700   -1.9049   21.4132 S   0  0  0  0  0  0  0  0  0  0  0  0
   13.0755   -1.7378   22.9166 C   0  0  0  0  0  0  0  0  0  0  0  0
   14.0351   -2.6981   23.2184 C   0  0  0  0  0  0  0  0  0  0  0  0
   14.7524   -2.6352   24.3435 N   0  0  0  0  0  0  0  0  0  0  0  0
   14.4991   -1.6106   25.1578 C   0  0  0  0  0  0  0  0  0  0  0  0
   13.5440   -0.6607   24.8576 C   0  0  0  0  0  0  0  0  0  0  0  0
   12.8207   -0.7158   23.7327 N   0  0  0  0  0  0  0  0  0  0  0  0
  1  2  1  0
  2  3  1  0
  3  4  2  0
  4  5  1  0
  5  6  2  0
  6  7  1  0
  7  8  2  0
  1  9  1  0
  9 10  1  0
 10 11  1  0
 11 12  1  0
 12 13  2  0
 13 14  1  0
 14 15  2  0
 15 16  1  0
 16 17  2  0
  8  3  1  0
 17 12  1  0
M  END
