CVD-0000936|dock_bobby27042020.82|mol2|38|dock2
     RDKit          3D

 27 28  0  0  0  0  0  0  0  0999 V2000
    7.5957    4.2817   23.1591 C   0  0  0  0  0  0  0  0  0  0  0  0
    7.7294    2.8607   22.6266 C   0  0  0  0  0  0  0  0  0  0  0  0
    9.0955    2.6246   22.1479 N   0  0  0  0  0  0  0  0  0  0  0  0
   10.1546    2.5701   23.1626 C   0  0  0  0  0  0  0  0  0  0  0  0
   10.8625    1.2134   23.1692 C   0  0  0  0  0  0  0  0  0  0  0  0
   12.1597    1.2133   23.9757 C   0  0  0  0  0  0  0  0  0  0  0  0
   12.8551   -0.1266   23.9799 C   0  0  0  0  0  0  0  0  0  0  0  0
   13.2025   -0.7497   22.7911 C   0  0  0  0  0  0  0  0  0  0  0  0
   13.8375   -1.9803   22.7943 C   0  0  0  0  0  0  0  0  0  0  0  0
   14.1325   -2.6039   23.9874 C   0  0  0  0  0  0  0  0  0  0  0  0
   13.7918   -1.9967   25.1768 C   0  0  0  0  0  0  0  0  0  0  0  0
   13.1567   -0.7659   25.1725 C   0  0  0  0  0  0  0  0  0  0  0  0
   11.1893    3.6569   22.9173 C   0  0  0  0  0  0  0  0  0  0  0  0
   11.4018    4.5785   23.6618 O   0  0  0  0  0  0  0  0  0  0  0  0
   11.8319    3.4607   21.7698 O   0  0  0  0  0  0  0  0  0  0  0  0
   12.8271    4.4114   21.4243 C   0  0  0  0  0  0  0  0  0  0  0  0
   14.1993    4.4278   22.5245 S   0  0  0  0  0  0  0  0  0  0  0  0
    6.7016    2.6454   21.5129 C   0  0  0  0  0  0  0  0  0  0  0  0
    5.8905    3.5178   21.2663 O   0  0  0  0  0  0  0  0  0  0  0  0
    6.7428    1.4862   20.8367 N   0  0  0  0  0  0  0  0  0  0  0  0
    7.6892    0.3851   21.0699 C   0  0  0  0  0  0  0  0  0  0  0  0
    7.3136   -0.6970   20.0670 C   0  0  0  0  0  0  0  0  0  0  0  0
    6.0828   -0.2262   19.3267 C   0  0  0  0  0  0  0  0  0  0  0  0
    5.7600    1.2216   19.7770 C   0  0  0  0  0  0  0  0  0  0  0  0
    4.3370    1.4908   20.2448 C   0  0  0  0  0  0  0  0  0  0  0  0
    4.0748    0.9570   21.4106 O   0  0  0  0  0  0  0  0  0  0  0  0
    3.5410    2.1344   19.5970 O   0  0  0  0  0  0  0  0  0  0  0  0
  2  1  1  0
  2  3  1  0
  3  4  1  0
  4  5  1  0
  5  6  1  0
  6  7  1  0
  7  8  2  0
  8  9  1  0
  9 10  2  0
 10 11  1  0
 11 12  2  0
  4 13  1  0
 13 14  2  0
 13 15  1  0
 15 16  1  0
 16 17  1  0
  2 18  1  0
 18 19  2  0
 18 20  1  0
 20 21  1  0
 21 22  1  0
 22 23  1  0
 23 24  1  0
 24 25  1  0
 25 26  1  0
 25 27  2  0
 12  7  1  0
 24 20  1  0
M  END
