CVD-0002477|dock_bobby27042020.48|mol2|25|dock1
     RDKit          3D

 29 32  0  0  0  0  0  0  0  0999 V2000
   12.7848    6.1916   28.8882 F   0  0  0  0  0  0  0  0  0  0  0  0
   13.0597    7.1113   27.9152 C   0  0  0  0  0  0  0  0  0  0  0  0
   13.5173    8.3335   28.1059 C   0  0  0  0  0  0  0  0  0  0  0  0
   13.8031    9.2630   26.9848 C   0  0  0  0  0  0  0  0  0  0  0  0
   13.1159    8.7807   25.7191 C   0  0  0  0  0  0  0  0  0  0  0  0
   13.3201    7.3616   25.4572 N   0  0  0  0  0  0  0  0  0  0  0  0
   12.7562    6.9737   24.1619 C   0  0  0  0  0  0  0  0  0  0  0  0
   13.0983    5.5630   23.7859 C   0  0  0  0  0  0  0  0  0  0  0  0
   14.3182    5.1458   23.7331 N   0  0  0  0  0  0  0  0  0  0  0  0
   14.4146    3.8043   23.3681 N   0  0  0  0  0  0  0  0  0  0  0  0
   13.2529    3.2589   23.1609 C   0  0  0  0  0  0  0  0  0  0  0  0
   11.9201    4.3449   23.3950 S   0  0  0  0  0  0  0  0  0  0  0  0
   13.0792    1.8537   22.7651 C   0  0  0  0  0  0  0  0  0  0  0  0
   13.9866    0.8832   23.1693 C   0  0  0  0  0  0  0  0  0  0  0  0
   13.8086   -0.4350   22.7881 C   0  0  0  0  0  0  0  0  0  0  0  0
   12.7280   -0.8010   22.0024 C   0  0  0  0  0  0  0  0  0  0  0  0
   11.8078    0.1598   21.5879 C   0  0  0  0  0  0  0  0  0  0  0  0
   10.6762   -0.1301   20.7837 N   0  0  0  0  0  0  0  0  0  0  0  0
    9.4263    0.4453   20.7454 C   0  0  0  0  0  0  0  0  0  0  0  0
    9.0673    1.3753   21.4600 O   0  0  0  0  0  0  0  0  0  0  0  0
    8.6281   -0.1572   19.8003 N   0  0  0  0  0  0  0  0  0  0  0  0
    7.2870    0.1066   19.4236 C   0  0  0  0  0  0  0  0  0  0  0  0
    6.4829    1.0817   20.0064 C   0  0  0  0  0  0  0  0  0  0  0  0
    5.1852    1.2486   19.5545 C   0  0  0  0  0  0  0  0  0  0  0  0
    4.7264    0.4425   18.5385 C   0  0  0  0  0  0  0  0  0  0  0  0
    5.4719   -0.4992   17.9610 N   0  0  0  0  0  0  0  0  0  0  0  0
    6.7228   -0.6523   18.4043 C   0  0  0  0  0  0  0  0  0  0  0  0
   11.9966    1.4823   21.9770 C   0  0  0  0  0  0  0  0  0  0  0  0
   12.7748    6.5736   26.5609 C   0  0  0  0  0  0  0  0  0  0  0  0
  1  2  1  0
  2  3  2  0
  3  4  1  0
  4  5  1  0
  5  6  1  0
  6  7  1  0
  7  8  1  0
  8  9  2  0
  9 10  1  0
 10 11  2  0
 11 12  1  0
 11 13  1  0
 13 14  2  0
 14 15  1  0
 15 16  2  0
 16 17  1  0
 17 18  1  0
 18 19  1  0
 19 20  2  0
 19 21  1  0
 21 22  1  0
 22 23  2  0
 23 24  1  0
 24 25  2  0
 25 26  1  0
 26 27  2  0
 17 28  2  0
  6 29  1  0
 29  2  1  0
 12  8  1  0
 28 13  1  0
 27 22  1  0
M  END
