CVD-0001706|dock_bobby27042020.23|mol2|8|dock2
     RDKit          3D

 20 21  0  0  0  0  0  0  0  0999 V2000
    6.1955   -2.0158   18.2223 C   0  0  0  0  0  0  0  0  0  0  0  0
    7.1248   -1.1513   18.9513 C   0  0  0  0  0  0  0  0  0  0  0  0
    7.8662   -0.4553   19.5653 C   0  0  0  0  0  0  0  0  0  0  0  0
    8.7178    0.3671   20.3982 C   0  0  0  0  0  0  0  0  0  0  0  0
    8.3524    1.4843   20.7435 O   0  0  0  0  0  0  0  0  0  0  0  0
    9.8853   -0.2310   20.7153 N   0  0  0  0  0  0  0  0  0  0  0  0
   10.9811    0.2162   21.4952 C   0  0  0  0  0  0  0  0  0  0  0  0
   12.1439   -0.5420   21.4692 C   0  0  0  0  0  0  0  0  0  0  0  0
   13.2495   -0.1420   22.1969 C   0  0  0  0  0  0  0  0  0  0  0  0
   13.2085    1.0126   22.9582 C   0  0  0  0  0  0  0  0  0  0  0  0
   12.0423    1.7736   23.0333 C   0  0  0  0  0  0  0  0  0  0  0  0
   10.9436    1.3685   22.2786 C   0  0  0  0  0  0  0  0  0  0  0  0
   11.8796    3.0192   23.8644 C   0  0  0  0  0  0  0  0  0  0  0  0
   11.6911    2.8418   25.0557 O   0  0  0  0  0  0  0  0  0  0  0  0
   11.9425    4.2846   23.3844 N   0  0  0  0  0  0  0  0  0  0  0  0
   11.8418    5.5024   24.1919 C   0  0  0  0  0  0  0  0  0  0  0  0
   13.1946    6.1184   24.4435 C   0  0  0  0  0  0  0  0  0  0  0  0
   14.0456    6.5855   22.9136 S   0  0  0  0  0  0  0  0  0  0  0  0
   13.8712    5.0140   22.0471 C   0  0  0  0  0  0  0  0  0  0  0  0
   12.4572    4.4952   22.0272 C   0  0  0  0  0  0  0  0  0  0  0  0
  1  2  1  0
  2  3  3  0
  3  4  1  0
  4  5  2  0
  4  6  1  0
  6  7  1  0
  7  8  2  0
  8  9  1  0
  9 10  2  0
 10 11  1  0
 11 12  2  0
 11 13  1  0
 13 14  2  0
 13 15  1  0
 15 16  1  0
 16 17  1  0
 17 18  1  0
 18 19  1  0
 19 20  1  0
 12  7  1  0
 20 15  1  0
M  END
