CVD-0001915|dock_bobby27042020.8|mol2|7|dock2
     RDKit          3D

 34 36  0  0  0  0  0  0  0  0999 V2000
   10.2232   -5.6680   26.7983 C   0  0  0  0  0  0  0  0  0  0  0  0
    8.8861   -5.5323   27.2668 O   0  0  0  0  0  0  0  0  0  0  0  0
    7.8941   -5.6426   26.2616 C   0  0  0  0  0  0  0  0  0  0  0  0
    6.5609   -5.8501   26.9538 C   0  0  0  0  0  0  0  0  0  0  0  0
    7.8918   -4.3899   25.4185 C   0  0  0  0  0  0  0  0  0  0  0  0
    8.2648   -3.1674   25.9567 C   0  0  0  0  0  0  0  0  0  0  0  0
    8.2581   -2.0166   25.1888 C   0  0  0  0  0  0  0  0  0  0  0  0
    7.8740   -2.0573   23.8542 C   0  0  0  0  0  0  0  0  0  0  0  0
    7.5044   -3.2822   23.3103 C   0  0  0  0  0  0  0  0  0  0  0  0
    7.5116   -4.4283   24.0853 C   0  0  0  0  0  0  0  0  0  0  0  0
    7.8763   -0.8463   23.0861 N   0  0  0  0  0  0  0  0  0  0  0  0
    8.4456   -0.7946   21.7130 C   0  0  0  0  0  0  0  0  0  0  0  0
    9.2471    0.5118   21.5570 C   0  0  0  0  0  0  0  0  0  0  0  0
    8.8460    1.3926   20.8022 O   0  0  0  0  0  0  0  0  0  0  0  0
   10.3706    0.5373   22.3173 N   0  0  0  0  0  0  0  0  0  0  0  0
   11.3724    1.5377   22.4643 C   0  0  0  0  0  0  0  0  0  0  0  0
   11.0724    2.9015   22.4776 C   0  0  0  0  0  0  0  0  0  0  0  0
   12.0761    3.8422   22.6221 C   0  0  0  0  0  0  0  0  0  0  0  0
   13.3937    3.4490   22.7556 C   0  0  0  0  0  0  0  0  0  0  0  0
   14.3494    4.4243   22.8957 O   0  0  0  0  0  0  0  0  0  0  0  0
   14.1529    5.7125   22.3157 C   0  0  0  0  0  0  0  0  0  0  0  0
   13.7073    2.0987   22.7444 C   0  0  0  0  0  0  0  0  0  0  0  0
   12.7143    1.1335   22.6014 C   0  0  0  0  0  0  0  0  0  0  0  0
   13.1462   -0.3105   22.5967 C   0  0  0  0  0  0  0  0  0  0  0  0
    7.4392   -0.9010   20.5766 C   0  0  0  0  0  0  0  0  0  0  0  0
    6.0849   -0.6836   20.7785 C   0  0  0  0  0  0  0  0  0  0  0  0
    5.2063   -0.7880   19.7143 C   0  0  0  0  0  0  0  0  0  0  0  0
    5.7124   -1.1076   18.4744 C   0  0  0  0  0  0  0  0  0  0  0  0
    7.0093   -1.3216   18.2467 N   0  0  0  0  0  0  0  0  0  0  0  0
    7.8396   -1.2154   19.2886 C   0  0  0  0  0  0  0  0  0  0  0  0
    7.2601    0.3292   23.4933 C   0  0  0  0  0  0  0  0  0  0  0  0
    7.2194    1.2883   22.7236 O   0  0  0  0  0  0  0  0  0  0  0  0
    6.6221    0.5252   24.8332 C   0  0  0  0  0  0  0  0  0  0  0  0
    6.5128    1.6672   25.4651 C   0  0  0  0  0  0  0  0  0  0  0  0
  1  2  1  0
  2  3  1  0
  3  4  1  0
  3  5  1  0
  5  6  2  0
  6  7  1  0
  7  8  2  0
  8  9  1  0
  9 10  2  0
  8 11  1  0
 11 12  1  0
 12 13  1  0
 13 14  2  0
 13 15  1  0
 15 16  1  0
 16 17  2  0
 17 18  1  0
 18 19  2  0
 19 20  1  0
 20 21  1  0
 19 22  1  0
 22 23  2  0
 23 24  1  0
 12 25  1  0
 25 26  2  0
 26 27  1  0
 27 28  2  0
 28 29  1  0
 29 30  2  0
 11 31  1  0
 31 32  2  0
 31 33  1  0
 33 34  2  0
 10  5  1  0
 23 16  1  0
 30 25  1  0
M  END
