CVD-0000239|dock_bobby27042020.28|mol2|5|dock2
     RDKit          3D

 30 34  0  0  0  0  0  0  0  0999 V2000
   13.6674    4.3610   21.9714 N   0  0  0  0  0  0  0  0  0  0  0  0
   12.3695    4.3723   22.2938 C   0  0  0  0  0  0  0  0  0  0  0  0
   11.6333    5.4736   22.3993 N   0  0  0  0  0  0  0  0  0  0  0  0
   10.3807    5.0704   22.7223 N   0  0  0  0  0  0  0  0  0  0  0  0
   10.3140    3.7778   22.7977 N   0  0  0  0  0  0  0  0  0  0  0  0
   11.5698    3.3041   22.5610 N   0  0  0  0  0  0  0  0  0  0  0  0
   11.7732    1.8880   22.6288 C   0  0  0  0  0  0  0  0  0  0  0  0
   12.9084    1.4139   23.2714 C   0  0  0  0  0  0  0  0  0  0  0  0
   13.1189    0.0523   23.3913 C   0  0  0  0  0  0  0  0  0  0  0  0
   12.2033   -0.8453   22.8721 C   0  0  0  0  0  0  0  0  0  0  0  0
   11.0735   -0.3899   22.1959 C   0  0  0  0  0  0  0  0  0  0  0  0
   10.8777    0.9829   22.0662 C   0  0  0  0  0  0  0  0  0  0  0  0
   10.0486   -1.3127   21.5948 C   0  0  0  0  0  0  0  0  0  0  0  0
   10.4493   -2.2840   20.9706 O   0  0  0  0  0  0  0  0  0  0  0  0
    8.7096   -1.0423   21.7935 N   0  0  0  0  0  0  0  0  0  0  0  0
    7.6506   -1.8352   21.3121 C   0  0  0  0  0  0  0  0  0  0  0  0
    6.5948   -1.7709   20.4076 C   0  0  0  0  0  0  0  0  0  0  0  0
    5.9082   -2.9691   20.3615 N   0  0  0  0  0  0  0  0  0  0  0  0
    6.4886   -3.7663   21.2460 C   0  0  0  0  0  0  0  0  0  0  0  0
    6.1868   -5.0942   21.6199 C   0  0  0  0  0  0  0  0  0  0  0  0
    6.9504   -5.7048   22.5732 C   0  0  0  0  0  0  0  0  0  0  0  0
    8.0236   -5.0246   23.1744 C   0  0  0  0  0  0  0  0  0  0  0  0
    8.3170   -3.7568   22.8200 C   0  0  0  0  0  0  0  0  0  0  0  0
    7.5522   -3.1200   21.8581 N   0  0  0  0  0  0  0  0  0  0  0  0
    6.0412   -0.7257   19.5175 C   0  0  0  0  0  0  0  0  0  0  0  0
    6.0896    0.6079   19.9043 C   0  0  0  0  0  0  0  0  0  0  0  0
    5.5878    1.5883   19.0665 C   0  0  0  0  0  0  0  0  0  0  0  0
    5.0525    1.2076   17.8575 C   0  0  0  0  0  0  0  0  0  0  0  0
    4.9972   -0.0614   17.4518 N   0  0  0  0  0  0  0  0  0  0  0  0
    5.4892   -0.9945   18.2725 C   0  0  0  0  0  0  0  0  0  0  0  0
  1  2  1  0
  2  3  2  0
  3  4  1  0
  4  5  2  0
  5  6  1  0
  6  7  1  0
  7  8  2  0
  8  9  1  0
  9 10  2  0
 10 11  1  0
 11 12  2  0
 11 13  1  0
 13 14  2  0
 13 15  1  0
 15 16  1  0
 16 17  2  0
 17 18  1  0
 18 19  2  0
 19 20  1  0
 20 21  2  0
 21 22  1  0
 22 23  2  0
 23 24  1  0
 17 25  1  0
 25 26  2  0
 26 27  1  0
 27 28  2  0
 28 29  1  0
 29 30  2  0
  6  2  1  0
 12  7  1  0
 24 16  1  0
 30 25  1  0
 24 19  1  0
M  END
