CVD-0002166|dock_bobby27042020.50|mol2|3|dock1
     RDKit          3D

 26 28  0  0  0  0  0  0  0  0999 V2000
    9.1970   -0.1804   22.7195 O   0  0  0  0  0  0  0  0  0  0  0  0
    9.7086   -0.6783   21.7221 C   0  0  0  0  0  0  0  0  0  0  0  0
   10.9889   -1.1809   21.6779 N   0  0  0  0  0  0  0  0  0  0  0  0
   11.9843   -1.2561   22.6846 C   0  0  0  0  0  0  0  0  0  0  0  0
   12.9768   -2.2302   22.7388 C   0  0  0  0  0  0  0  0  0  0  0  0
   13.8974   -2.2026   23.7724 C   0  0  0  0  0  0  0  0  0  0  0  0
   13.8038   -1.2092   24.7193 C   0  0  0  0  0  0  0  0  0  0  0  0
   12.8654   -0.2632   24.6943 N   0  0  0  0  0  0  0  0  0  0  0  0
   11.9818   -0.2987   23.6929 C   0  0  0  0  0  0  0  0  0  0  0  0
    9.0794   -0.8068   20.5048 N   0  0  0  0  0  0  0  0  0  0  0  0
    7.7753   -0.4342   20.0903 C   0  0  0  0  0  0  0  0  0  0  0  0
    7.1263   -0.9866   18.9883 C   0  0  0  0  0  0  0  0  0  0  0  0
    5.8504   -0.5644   18.6536 C   0  0  0  0  0  0  0  0  0  0  0  0
    5.2112    0.4053   19.4060 C   0  0  0  0  0  0  0  0  0  0  0  0
    5.8383    0.9687   20.5044 C   0  0  0  0  0  0  0  0  0  0  0  0
    5.1473    2.0246   21.3329 C   0  0  0  0  0  0  0  0  0  0  0  0
    5.4618    3.3825   20.9362 N   0  0  0  0  0  0  0  0  0  0  0  0
    6.4857    4.1000   21.4733 C   0  0  0  0  0  0  0  0  0  0  0  0
    6.5596    5.4796   21.2892 C   0  0  0  0  0  0  0  0  0  0  0  0
    7.6198    6.1639   21.8553 C   0  0  0  0  0  0  0  0  0  0  0  0
    8.5767    5.4692   22.5865 C   0  0  0  0  0  0  0  0  0  0  0  0
    8.4151    4.0929   22.7139 C   0  0  0  0  0  0  0  0  0  0  0  0
    7.3960    3.4156   22.1730 N   0  0  0  0  0  0  0  0  0  0  0  0
    9.6954    6.1498   23.1908 C   0  0  0  0  0  0  0  0  0  0  0  0
   10.5660    6.6872   23.6988 N   0  0  0  0  0  0  0  0  0  0  0  0
    7.1169    0.5394   20.8347 C   0  0  0  0  0  0  0  0  0  0  0  0
  1  2  2  0
  2  3  1  0
  3  4  1  0
  4  5  2  0
  5  6  1  0
  6  7  2  0
  7  8  1  0
  8  9  2  0
  2 10  1  0
 10 11  1  0
 11 12  2  0
 12 13  1  0
 13 14  2  0
 14 15  1  0
 15 16  1  0
 16 17  1  0
 17 18  1  0
 18 19  2  0
 19 20  1  0
 20 21  2  0
 21 22  1  0
 22 23  2  0
 21 24  1  0
 24 25  3  0
 15 26  2  0
  9  4  1  0
 26 11  1  0
 23 18  1  0
M  END
