CVD-0000629|dock_bobby27042020.12|mol2|23|dock2
     RDKit          3D

 25 27  0  0  0  0  0  0  0  0999 V2000
    4.8830    0.7331   21.6250 C   0  0  0  0  0  0  0  0  0  0  0  0
    5.5096    0.7189   20.2542 C   0  0  0  0  0  0  0  0  0  0  0  0
    4.6978    0.9670   19.1514 C   0  0  0  0  0  0  0  0  0  0  0  0
    5.2423    0.9638   17.8869 C   0  0  0  0  0  0  0  0  0  0  0  0
    6.5306    0.7322   17.6520 N   0  0  0  0  0  0  0  0  0  0  0  0
    7.3207    0.4938   18.7035 C   0  0  0  0  0  0  0  0  0  0  0  0
    6.8774    0.4727   20.0264 C   0  0  0  0  0  0  0  0  0  0  0  0
    7.7162    0.2199   21.1480 N   0  0  0  0  0  0  0  0  0  0  0  0
    8.9882    0.6157   21.4014 C   0  0  0  0  0  0  0  0  0  0  0  0
    9.6712    1.3414   20.6868 O   0  0  0  0  0  0  0  0  0  0  0  0
    9.5369    0.0679   22.7019 C   0  0  0  0  0  0  0  0  0  0  0  0
   10.9802    0.5284   23.0512 C   0  0  0  0  0  0  0  0  0  0  0  0
   12.0827   -0.3005   22.3458 C   0  0  0  0  0  0  0  0  0  0  0  0
   12.7444   -0.5683   23.7068 C   0  0  0  0  0  0  0  0  0  0  0  0
   11.5686    0.1024   24.4136 C   0  0  0  0  0  0  0  0  0  0  0  0
   11.1014    2.0425   22.8686 C   0  0  0  0  0  0  0  0  0  0  0  0
    9.9747    2.8562   22.8714 C   0  0  0  0  0  0  0  0  0  0  0  0
   10.0800    4.2265   22.7058 C   0  0  0  0  0  0  0  0  0  0  0  0
   11.3216    4.8119   22.5319 C   0  0  0  0  0  0  0  0  0  0  0  0
   12.4470    4.0048   22.5258 C   0  0  0  0  0  0  0  0  0  0  0  0
   12.3491    2.6312   22.6933 C   0  0  0  0  0  0  0  0  0  0  0  0
   14.0425    4.7335   22.3111 S   0  0  0  0  0  0  0  0  0  0  0  0
   13.8851    6.3256   22.3691 N   0  0  0  0  0  0  0  0  0  0  0  0
   14.4911    4.4001   20.9924 O   0  0  0  0  0  0  0  0  0  0  0  0
   14.8440    4.3460   23.4329 O   0  0  0  0  0  0  0  0  0  0  0  0
  1  2  1  0
  2  3  2  0
  3  4  1  0
  4  5  2  0
  5  6  1  0
  6  7  2  0
  7  8  1  0
  8  9  1  0
  9 10  2  0
  9 11  1  0
 11 12  1  0
 12 13  1  0
 13 14  1  0
 14 15  1  0
 12 16  1  0
 16 17  2  0
 17 18  1  0
 18 19  2  0
 19 20  1  0
 20 21  2  0
 20 22  1  0
 22 23  1  0
 22 24  2  0
 22 25  2  0
  7  2  1  0
 15 12  1  0
 21 16  1  0
M  END
