CVD-0001866|dock_bobby27042020.8|mol2|14|dock3
     RDKit          3D

 18 19  0  0  0  0  0  0  0  0999 V2000
   14.8750   -2.6201   25.1501 Cl  0  0  0  0  0  0  0  0  0  0  0  0
   13.4158   -2.4024   24.1753 C   0  0  0  0  0  0  0  0  0  0  0  0
   12.4932   -1.3625   24.7819 C   0  0  0  0  0  0  0  0  0  0  0  0
   12.8081   -0.7870   25.8160 O   0  0  0  0  0  0  0  0  0  0  0  0
   11.3220   -1.0979   24.1574 N   0  0  0  0  0  0  0  0  0  0  0  0
   10.4076   -0.1083   24.7030 C   0  0  0  0  0  0  0  0  0  0  0  0
   10.0285    0.8926   23.6572 C   0  0  0  0  0  0  0  0  0  0  0  0
    9.4703    0.1846   22.4964 N   0  0  0  0  0  0  0  0  0  0  0  0
   10.4401   -0.7527   21.9108 C   0  0  0  0  0  0  0  0  0  0  0  0
   10.8302   -1.7642   22.9475 C   0  0  0  0  0  0  0  0  0  0  0  0
    8.5235    1.0372   21.4943 S   0  0  0  0  0  0  0  0  0  0  0  0
    7.5858    1.7522   22.3019 O   0  0  0  0  0  0  0  0  0  0  0  0
    9.3834    1.7662   20.6156 O   0  0  0  0  0  0  0  0  0  0  0  0
    7.6131   -0.0763   20.5146 C   0  0  0  0  0  0  0  0  0  0  0  0
    6.9952   -1.2164   20.9728 C   0  0  0  0  0  0  0  0  0  0  0  0
    6.3401   -1.8862   19.9117 C   0  0  0  0  0  0  0  0  0  0  0  0
    6.4670   -1.2669   18.7261 C   0  0  0  0  0  0  0  0  0  0  0  0
    7.3906    0.1637   18.8423 S   0  0  0  0  0  0  0  0  0  0  0  0
  1  2  1  0
  2  3  1  0
  3  4  2  0
  3  5  1  0
  5  6  1  0
  6  7  1  0
  7  8  1  0
  8  9  1  0
  9 10  1  0
  8 11  1  0
 11 12  2  0
 11 13  2  0
 11 14  1  0
 14 15  2  0
 15 16  1  0
 16 17  2  0
 17 18  1  0
 10  5  1  0
 18 14  1  0
M  END
