CVD-0002302|dock_bobby27042020.20|mol2|31|dock2
     RDKit          3D

 40 43  0  0  0  0  0  0  0  0999 V2000
    8.7859   -4.6101   27.0661 C   0  0  0  0  0  0  0  0  0  0  0  0
    8.9858   -5.2309   25.6920 C   0  0  0  0  0  0  0  0  0  0  0  0
    9.5868   -6.6244   25.7665 C   0  0  0  0  0  0  0  0  0  0  0  0
    7.7713   -5.0893   24.8413 N   0  0  0  0  0  0  0  0  0  0  0  0
    8.0836   -5.0293   23.4164 C   0  0  0  0  0  0  0  0  0  0  0  0
    6.4625   -4.9893   25.2231 C   0  0  0  0  0  0  0  0  0  0  0  0
    6.2699   -4.9372   26.4227 O   0  0  0  0  0  0  0  0  0  0  0  0
    5.1898   -4.9412   24.3385 C   0  0  0  0  0  0  0  0  0  0  0  0
    5.0656   -6.2725   23.5564 C   0  0  0  0  0  0  0  0  0  0  0  0
    3.7438   -6.3418   22.8137 C   0  0  0  0  0  0  0  0  0  0  0  0
    2.6291   -6.2213   23.7517 N   0  0  0  0  0  0  0  0  0  0  0  0
    2.6327   -4.9788   24.5330 C   0  0  0  0  0  0  0  0  0  0  0  0
    3.9666   -4.7996   25.2681 C   0  0  0  0  0  0  0  0  0  0  0  0
    1.8032   -7.2353   24.0937 C   0  0  0  0  0  0  0  0  0  0  0  0
    0.8755   -7.0580   24.8730 O   0  0  0  0  0  0  0  0  0  0  0  0
    2.0477   -8.6011   23.4807 C   0  0  0  0  0  0  0  0  0  0  0  0
    1.6512   -8.6445   21.7579 Cl  0  0  0  0  0  0  0  0  0  0  0  0
    5.2451   -3.7852   23.4276 N   0  0  0  0  0  0  0  0  0  0  0  0
    5.6617   -2.5262   24.0471 C   0  0  0  0  0  0  0  0  0  0  0  0
    6.7720   -1.8824   23.2590 C   0  0  0  0  0  0  0  0  0  0  0  0
    8.1188   -1.8159   23.6589 C   0  0  0  0  0  0  0  0  0  0  0  0
    8.8661   -1.1747   22.6893 C   0  0  0  0  0  0  0  0  0  0  0  0
   10.3251   -0.9178   22.7495 C   0  0  0  0  0  0  0  0  0  0  0  0
   11.1113   -1.5011   21.7542 C   0  0  0  0  0  0  0  0  0  0  0  0
   12.4891   -1.3625   21.7614 C   0  0  0  0  0  0  0  0  0  0  0  0
   13.1111   -0.6378   22.7534 C   0  0  0  0  0  0  0  0  0  0  0  0
   12.3563   -0.0156   23.7315 C   0  0  0  0  0  0  0  0  0  0  0  0
   10.9880   -0.1424   23.6909 C   0  0  0  0  0  0  0  0  0  0  0  0
   10.2855    0.5486   24.6146 F   0  0  0  0  0  0  0  0  0  0  0  0
    7.9505   -0.8148   21.6629 N   0  0  0  0  0  0  0  0  0  0  0  0
    6.6845   -1.2608   22.0217 C   0  0  0  0  0  0  0  0  0  0  0  0
    8.1498    0.0218   20.2006 S   0  0  0  0  0  0  0  0  0  0  0  0
    8.5400   -0.9247   19.2027 O   0  0  0  0  0  0  0  0  0  0  0  0
    9.0253    1.1090   20.5112 O   0  0  0  0  0  0  0  0  0  0  0  0
    6.5774    0.7077   19.8063 C   0  0  0  0  0  0  0  0  0  0  0  0
    6.1864    1.9204   20.3476 C   0  0  0  0  0  0  0  0  0  0  0  0
    4.9431    2.4247   20.0068 C   0  0  0  0  0  0  0  0  0  0  0  0
    4.1487    1.7023   19.1454 C   0  0  0  0  0  0  0  0  0  0  0  0
    4.5131    0.5337   18.6155 N   0  0  0  0  0  0  0  0  0  0  0  0
    5.7144    0.0528   18.9483 C   0  0  0  0  0  0  0  0  0  0  0  0
  1  2  1  0
  2  3  1  0
  2  4  1  0
  4  5  1  0
  4  6  1  0
  6  7  2  0
  6  8  1  0
  8  9  1  0
  9 10  1  0
 10 11  1  0
 11 12  1  0
 12 13  1  0
 11 14  1  0
 14 15  2  0
 14 16  1  0
 16 17  1  0
  8 18  1  0
 18 19  1  0
 19 20  1  0
 20 21  1  0
 21 22  2  0
 22 23  1  0
 23 24  2  0
 24 25  1  0
 25 26  2  0
 26 27  1  0
 27 28  2  0
 28 29  1  0
 22 30  1  0
 30 31  1  0
 30 32  1  0
 32 33  2  0
 32 34  2  0
 32 35  1  0
 35 36  2  0
 36 37  1  0
 37 38  2  0
 38 39  1  0
 39 40  2  0
 13  8  1  0
 31 20  2  0
 40 35  1  0
 28 23  1  0
M  END
