CVD-0002734|dock_bobby27042020.47|mol2|29|dock3
     RDKit          3D

 20 21  0  0  0  0  0  0  0  0999 V2000
    6.8662   -0.9334   22.8934 F   0  0  0  0  0  0  0  0  0  0  0  0
    7.1910    0.0318   22.0040 C   0  0  0  0  0  0  0  0  0  0  0  0
    6.7246    1.1928   22.5166 F   0  0  0  0  0  0  0  0  0  0  0  0
    8.6503    0.1164   21.9154 N   0  0  0  0  0  0  0  0  0  0  0  0
    9.2588   -1.2230   21.8604 C   0  0  0  0  0  0  0  0  0  0  0  0
   10.7557   -1.1261   21.7202 C   0  0  0  0  0  0  0  0  0  0  0  0
   11.3284   -0.3384   22.8163 N   0  0  0  0  0  0  0  0  0  0  0  0
   10.7010    0.9749   22.9491 C   0  0  0  0  0  0  0  0  0  0  0  0
    9.2052    0.8121   23.0775 C   0  0  0  0  0  0  0  0  0  0  0  0
   12.4086   -0.6672   23.5553 C   0  0  0  0  0  0  0  0  0  0  0  0
   12.8111    0.0507   24.4620 O   0  0  0  0  0  0  0  0  0  0  0  0
   13.1126   -1.9657   23.2099 C   0  0  0  0  0  0  0  0  0  0  0  0
   14.5948   -2.1660   24.1535 Cl  0  0  0  0  0  0  0  0  0  0  0  0
    6.5739   -0.2411   20.6624 C   0  0  0  0  0  0  0  0  0  0  0  0
    6.2059   -1.5319   20.3041 C   0  0  0  0  0  0  0  0  0  0  0  0
    5.6335   -1.7874   19.0695 C   0  0  0  0  0  0  0  0  0  0  0  0
    5.4193   -0.7533   18.1736 C   0  0  0  0  0  0  0  0  0  0  0  0
    5.7849    0.5252   18.5347 C   0  0  0  0  0  0  0  0  0  0  0  0
    5.5201    1.8342   17.4171 Cl  0  0  0  0  0  0  0  0  0  0  0  0
    6.3563    0.7944   19.7617 C   0  0  0  0  0  0  0  0  0  0  0  0
  1  2  1  0
  2  3  1  0
  2  4  1  0
  4  5  1  0
  5  6  1  0
  6  7  1  0
  7  8  1  0
  8  9  1  0
  7 10  1  0
 10 11  2  0
 10 12  1  0
 12 13  1  0
  2 14  1  0
 14 15  2  0
 15 16  1  0
 16 17  2  0
 17 18  1  0
 18 19  1  0
 18 20  2  0
  9  4  1  0
 20 14  1  0
M  END
