CVD-0003497|dock_bobby27042020.1|mol2|46|dock3
     RDKit          3D

 38 40  0  0  0  0  0  0  0  0999 V2000
   13.8058   -1.3509   21.4602 C   0  0  0  0  0  0  0  0  0  0  0  0
   13.9828   -1.8519   22.8704 C   0  0  0  0  0  0  0  0  0  0  0  0
   12.9002   -1.4300   23.7637 N   0  0  0  0  0  0  0  0  0  0  0  0
   13.1445   -1.6063   25.1998 C   0  0  0  0  0  0  0  0  0  0  0  0
   13.6924   -2.9607   25.5728 C   0  0  0  0  0  0  0  0  0  0  0  0
   11.6078   -1.1530   23.2514 C   0  0  0  0  0  0  0  0  0  0  0  0
   10.7516   -2.1834   22.8756 C   0  0  0  0  0  0  0  0  0  0  0  0
    9.4437   -1.9607   22.4470 C   0  0  0  0  0  0  0  0  0  0  0  0
    8.5667   -3.0194   22.0863 N   0  0  0  0  0  0  0  0  0  0  0  0
    8.4682   -4.2790   22.5783 C   0  0  0  0  0  0  0  0  0  0  0  0
    9.1599   -4.7568   23.4716 O   0  0  0  0  0  0  0  0  0  0  0  0
    7.3952   -5.1080   21.9009 C   0  0  0  0  0  0  0  0  0  0  0  0
    6.0684   -5.0321   22.6218 C   0  0  0  0  0  0  0  0  0  0  0  0
    5.0940   -5.9967   22.4188 C   0  0  0  0  0  0  0  0  0  0  0  0
    3.8765   -5.9318   23.0727 C   0  0  0  0  0  0  0  0  0  0  0  0
    3.6173   -4.8880   23.9464 C   0  0  0  0  0  0  0  0  0  0  0  0
    2.4189   -4.8180   24.5947 O   0  0  0  0  0  0  0  0  0  0  0  0
    4.5815   -3.9158   24.1581 C   0  0  0  0  0  0  0  0  0  0  0  0
    5.7947   -3.9931   23.4976 C   0  0  0  0  0  0  0  0  0  0  0  0
    8.9828   -0.6346   22.3903 C   0  0  0  0  0  0  0  0  0  0  0  0
    7.6750   -0.3539   21.9730 N   0  0  0  0  0  0  0  0  0  0  0  0
    7.1623    0.1497   20.8135 C   0  0  0  0  0  0  0  0  0  0  0  0
    7.9697    0.0562   19.7462 N   0  0  0  0  0  0  0  0  0  0  0  0
    7.4647    0.5374   18.6033 C   0  0  0  0  0  0  0  0  0  0  0  0
    6.2012    1.0826   18.4908 C   0  0  0  0  0  0  0  0  0  0  0  0
    5.4434    1.1215   19.6553 C   0  0  0  0  0  0  0  0  0  0  0  0
    5.9262    0.6742   20.8229 N   0  0  0  0  0  0  0  0  0  0  0  0
    4.0377    1.6625   19.6846 C   0  0  0  0  0  0  0  0  0  0  0  0
    3.2998    1.5074   20.7782 N   0  0  0  0  0  0  0  0  0  0  0  0
    3.6027    2.2427   18.6836 O   0  0  0  0  0  0  0  0  0  0  0  0
    9.8478    0.3990   22.7400 C   0  0  0  0  0  0  0  0  0  0  0  0
   11.1686    0.1750   23.1180 C   0  0  0  0  0  0  0  0  0  0  0  0
   12.0208    1.2335   23.3356 N   0  0  0  0  0  0  0  0  0  0  0  0
   11.7495    2.6072   22.9441 C   0  0  0  0  0  0  0  0  0  0  0  0
   13.0255    3.4247   22.9671 C   0  0  0  0  0  0  0  0  0  0  0  0
   12.8238    4.8128   22.5567 N   0  0  0  0  0  0  0  0  0  0  0  0
   12.3784    5.6269   23.6818 C   0  0  0  0  0  0  0  0  0  0  0  0
   14.0443    5.3811   21.9950 C   0  0  0  0  0  0  0  0  0  0  0  0
  1  2  1  0
  2  3  1  0
  3  4  1  0
  4  5  1  0
  3  6  1  0
  6  7  2  0
  7  8  1  0
  8  9  1  0
  9 10  1  0
 10 11  2  0
 10 12  1  0
 12 13  1  0
 13 14  2  0
 14 15  1  0
 15 16  2  0
 16 17  1  0
 16 18  1  0
 18 19  2  0
  8 20  2  0
 20 21  1  0
 21 22  1  0
 22 23  2  0
 23 24  1  0
 24 25  2  0
 25 26  1  0
 26 27  2  0
 26 28  1  0
 28 29  1  0
 28 30  2  0
 20 31  1  0
 31 32  2  0
 32 33  1  0
 33 34  1  0
 34 35  1  0
 35 36  1  0
 36 37  1  0
 36 38  1  0
 32  6  1  0
 19 13  1  0
 27 22  1  0
M  END
