CVD-0002379|dock_bobby27042020.77|mol2|30|dock3
     RDKit          3D

 38 42  0  0  0  0  0  0  0  0999 V2000
   14.0165    6.2430   22.1483 C   0  0  0  0  0  0  0  0  0  0  0  0
   13.6586    4.8639   22.4899 N   0  0  0  0  0  0  0  0  0  0  0  0
   12.2592    4.5156   22.2220 C   0  0  0  0  0  0  0  0  0  0  0  0
   11.9884    3.0571   22.4827 C   0  0  0  0  0  0  0  0  0  0  0  0
   12.9645    2.0918   22.7881 C   0  0  0  0  0  0  0  0  0  0  0  0
   12.3695    0.8568   22.9638 C   0  0  0  0  0  0  0  0  0  0  0  0
   13.0866   -0.3997   23.2913 C   0  0  0  0  0  0  0  0  0  0  0  0
   13.6570   -0.4849   24.5627 C   0  0  0  0  0  0  0  0  0  0  0  0
   14.3076   -1.6347   24.9777 C   0  0  0  0  0  0  0  0  0  0  0  0
   14.4094   -2.7198   24.1364 C   0  0  0  0  0  0  0  0  0  0  0  0
   13.8851   -2.6542   22.8581 C   0  0  0  0  0  0  0  0  0  0  0  0
   13.2640   -1.4952   22.4572 C   0  0  0  0  0  0  0  0  0  0  0  0
   12.8307   -1.4477   21.1789 F   0  0  0  0  0  0  0  0  0  0  0  0
   10.9741    1.0678   22.7807 N   0  0  0  0  0  0  0  0  0  0  0  0
   10.7619    2.4092   22.4873 C   0  0  0  0  0  0  0  0  0  0  0  0
    9.7086    0.0000   22.9076 S   0  0  0  0  0  0  0  0  0  0  0  0
   10.2698   -1.3172   23.0733 O   0  0  0  0  0  0  0  0  0  0  0  0
    8.8506    0.5949   24.0359 N   0  0  0  0  0  0  0  0  0  0  0  0
    8.9119   -0.0311   25.5304 S   0  0  0  0  0  0  0  0  0  0  0  0
   10.2841   -0.2452   25.9011 O   0  0  0  0  0  0  0  0  0  0  0  0
    8.1082    0.7678   26.4147 O   0  0  0  0  0  0  0  0  0  0  0  0
    8.1423   -1.6099   25.3839 C   0  0  0  0  0  0  0  0  0  0  0  0
    8.2713   -2.5271   26.4120 C   0  0  0  0  0  0  0  0  0  0  0  0
    7.6691   -3.7624   26.2854 C   0  0  0  0  0  0  0  0  0  0  0  0
    6.9401   -4.1002   25.1513 C   0  0  0  0  0  0  0  0  0  0  0  0
    6.2472   -5.4370   25.0458 C   0  0  0  0  0  0  0  0  0  0  0  0
    6.0458   -5.8308   23.5971 C   0  0  0  0  0  0  0  0  0  0  0  0
    5.3590   -4.7077   22.8412 C   0  0  0  0  0  0  0  0  0  0  0  0
    6.1423   -3.4818   22.9397 N   0  0  0  0  0  0  0  0  0  0  0  0
    6.0083   -2.5204   21.8515 C   0  0  0  0  0  0  0  0  0  0  0  0
    6.8123   -3.1601   24.1060 C   0  0  0  0  0  0  0  0  0  0  0  0
    7.4225   -1.9122   24.2380 C   0  0  0  0  0  0  0  0  0  0  0  0
    8.7671    0.0886   21.4238 C   0  0  0  0  0  0  0  0  0  0  0  0
    8.9361   -0.8603   20.4303 C   0  0  0  0  0  0  0  0  0  0  0  0
    8.1561   -0.7661   19.2908 C   0  0  0  0  0  0  0  0  0  0  0  0
    7.2437    0.2604   19.1954 C   0  0  0  0  0  0  0  0  0  0  0  0
    7.0646    1.1757   20.1492 N   0  0  0  0  0  0  0  0  0  0  0  0
    7.8196    1.0788   21.2473 C   0  0  0  0  0  0  0  0  0  0  0  0
  1  2  1  0
  2  3  1  0
  3  4  1  0
  4  5  1  0
  5  6  2  0
  6  7  1  0
  7  8  2  0
  8  9  1  0
  9 10  2  0
 10 11  1  0
 11 12  2  0
 12 13  1  0
  6 14  1  0
 14 15  1  0
 14 16  1  0
 16 17  2  0
 16 18  2  0
 18 19  1  0
 19 20  2  0
 19 21  2  0
 19 22  1  0
 22 23  2  0
 23 24  1  0
 24 25  2  0
 25 26  1  0
 26 27  1  0
 27 28  1  0
 28 29  1  0
 29 30  1  0
 29 31  1  0
 31 32  2  0
 16 33  1  0
 33 34  2  0
 34 35  1  0
 35 36  2  0
 36 37  1  0
 37 38  2  0
 15  4  2  0
 32 22  1  0
 38 33  1  0
 12  7  1  0
 31 25  1  0
M  END
