CVD-0002484|dock_bobby27042020.34|mol2|14|dock2
     RDKit          3D

 20 21  0  0  0  0  0  0  0  0999 V2000
   13.7944    6.0702   22.3216 C   0  0  0  0  0  0  0  0  0  0  0  0
   12.9097    4.8536   22.4463 C   0  0  0  0  0  0  0  0  0  0  0  0
   11.5289    4.9739   22.4367 C   0  0  0  0  0  0  0  0  0  0  0  0
   10.7214    3.8547   22.5475 C   0  0  0  0  0  0  0  0  0  0  0  0
   11.2901    2.5986   22.6690 C   0  0  0  0  0  0  0  0  0  0  0  0
   12.6677    2.4505   22.6811 C   0  0  0  0  0  0  0  0  0  0  0  0
   13.3022    1.0867   22.8088 C   0  0  0  0  0  0  0  0  0  0  0  0
   12.9184    0.3577   24.0895 C   0  0  0  0  0  0  0  0  0  0  0  0
   13.2147   -1.4313   24.0328 S   0  0  0  0  0  0  0  0  0  0  0  0
   11.6088   -2.1513   23.6357 C   0  0  0  0  0  0  0  0  0  0  0  0
   10.6896   -1.7291   24.6647 O   0  0  0  0  0  0  0  0  0  0  0  0
    9.3884   -2.2919   24.5443 C   0  0  0  0  0  0  0  0  0  0  0  0
    9.4276   -4.0987   24.6606 Cl  0  0  0  0  0  0  0  0  0  0  0  0
    8.7747   -1.9403   23.2070 C   0  0  0  0  0  0  0  0  0  0  0  0
    8.5403   -0.5354   23.2038 O   0  0  0  0  0  0  0  0  0  0  0  0
    9.6895   -2.3404   22.0842 C   0  0  0  0  0  0  0  0  0  0  0  0
    9.1174   -1.9204   20.8473 O   0  0  0  0  0  0  0  0  0  0  0  0
   11.0741   -1.7344   22.2796 C   0  0  0  0  0  0  0  0  0  0  0  0
   11.9513   -2.1747   21.2474 O   0  0  0  0  0  0  0  0  0  0  0  0
   13.4594    3.5862   22.5675 C   0  0  0  0  0  0  0  0  0  0  0  0
  1  2  1  0
  2  3  2  0
  3  4  1  0
  4  5  2  0
  5  6  1  0
  6  7  1  0
  7  8  1  0
  8  9  1  0
  9 10  1  0
 10 11  1  0
 11 12  1  0
 12 13  1  0
 12 14  1  0
 14 15  1  0
 14 16  1  0
 16 17  1  0
 16 18  1  0
 18 19  1  0
  6 20  2  0
 20  2  1  0
 18 10  1  0
M  END
