CVD-0000675|dock_bobby27042020.40|mol2|42|dock3
     RDKit          3D

 24 26  0  0  0  0  0  0  0  0999 V2000
    6.7069    0.7299   18.4932 C   0  0  0  0  0  0  0  0  0  0  0  0
    6.8995   -0.9644   18.8923 S   0  0  0  0  0  0  0  0  0  0  0  0
    5.7120   -1.4009   19.5595 O   0  0  0  0  0  0  0  0  0  0  0  0
    7.3114   -1.6551   17.7095 O   0  0  0  0  0  0  0  0  0  0  0  0
    8.1010   -1.0817   19.9472 N   0  0  0  0  0  0  0  0  0  0  0  0
    7.8340   -0.9028   21.3797 C   0  0  0  0  0  0  0  0  0  0  0  0
    9.0979   -0.7686   22.2299 C   0  0  0  0  0  0  0  0  0  0  0  0
    9.8038    0.5494   21.9254 C   0  0  0  0  0  0  0  0  0  0  0  0
    9.3688    1.2340   21.0208 O   0  0  0  0  0  0  0  0  0  0  0  0
   10.8911    0.9342   22.6747 N   0  0  0  0  0  0  0  0  0  0  0  0
   11.5110   -0.0971   23.5398 C   0  0  0  0  0  0  0  0  0  0  0  0
   12.9655    0.2226   23.8771 C   0  0  0  0  0  0  0  0  0  0  0  0
   13.6531    1.0160   22.7635 C   0  0  0  0  0  0  0  0  0  0  0  0
   12.8921    2.2947   22.5741 C   0  0  0  0  0  0  0  0  0  0  0  0
   13.5003    3.5432   22.5211 C   0  0  0  0  0  0  0  0  0  0  0  0
   12.7064    4.6674   22.5075 C   0  0  0  0  0  0  0  0  0  0  0  0
   11.3774    4.6219   22.5423 N   0  0  0  0  0  0  0  0  0  0  0  0
   10.7833    3.4221   22.5934 C   0  0  0  0  0  0  0  0  0  0  0  0
   11.4898    2.2214   22.6116 C   0  0  0  0  0  0  0  0  0  0  0  0
    8.7517   -0.8047   23.7054 C   0  0  0  0  0  0  0  0  0  0  0  0
    8.2923    0.2482   24.4879 C   0  0  0  0  0  0  0  0  0  0  0  0
    8.0770   -0.1709   25.8230 C   0  0  0  0  0  0  0  0  0  0  0  0
    8.3588   -1.4686   26.0310 C   0  0  0  0  0  0  0  0  0  0  0  0
    8.9005   -2.2438   24.6101 S   0  0  0  0  0  0  0  0  0  0  0  0
  1  2  1  0
  2  3  2  0
  2  4  2  0
  2  5  1  0
  5  6  1  0
  7  6  1  0
  7  8  1  0
  8  9  2  0
  8 10  1  0
 10 11  1  0
 11 12  1  0
 12 13  1  0
 13 14  1  0
 14 15  2  0
 15 16  1  0
 16 17  2  0
 17 18  1  0
 18 19  2  0
  7 20  1  0
 20 21  2  0
 21 22  1  0
 22 23  2  0
 23 24  1  0
 19 10  1  0
 24 20  1  0
 19 14  1  0
M  END
