CVD-0003076|dock_bobby27042020.61|mol2|6|dock2
     RDKit          3D

 19 20  0  0  0  0  0  0  0  0999 V2000
    7.6453   -0.6118   18.8882 C   0  0  0  0  0  0  0  0  0  0  0  0
    8.0836   -0.5640   20.3184 C   0  0  0  0  0  0  0  0  0  0  0  0
    9.0457   -1.6132   20.6129 N   0  0  0  0  0  0  0  0  0  0  0  0
    9.1165   -2.2239   21.8081 C   0  0  0  0  0  0  0  0  0  0  0  0
    8.0295   -2.9419   22.1556 N   0  0  0  0  0  0  0  0  0  0  0  0
    8.0370   -3.5796   23.3294 C   0  0  0  0  0  0  0  0  0  0  0  0
    9.1099   -3.5445   24.2087 C   0  0  0  0  0  0  0  0  0  0  0  0
   10.2287   -2.8048   23.8445 C   0  0  0  0  0  0  0  0  0  0  0  0
   10.2721   -2.1111   22.6343 C   0  0  0  0  0  0  0  0  0  0  0  0
   11.5085   -1.3083   22.2392 C   0  0  0  0  0  0  0  0  0  0  0  0
   12.8428   -2.0306   22.2984 C   0  0  0  0  0  0  0  0  0  0  0  0
   13.8316   -0.9367   22.0359 C   0  0  0  0  0  0  0  0  0  0  0  0
   13.2322    0.3582   22.6382 C   0  0  0  0  0  0  0  0  0  0  0  0
   11.7811   -0.0127   23.0610 C   0  0  0  0  0  0  0  0  0  0  0  0
   11.5818   -0.1871   24.5537 C   0  0  0  0  0  0  0  0  0  0  0  0
   10.3244   -0.1753   24.9664 N   0  0  0  0  0  0  0  0  0  0  0  0
   12.5264   -0.3305   25.3304 O   0  0  0  0  0  0  0  0  0  0  0  0
    9.0709   -4.2531   25.4641 C   0  0  0  0  0  0  0  0  0  0  0  0
    9.0536   -4.8409   26.4434 N   0  0  0  0  0  0  0  0  0  0  0  0
  1  2  1  0
  2  3  1  0
  3  4  1  0
  4  5  2  0
  5  6  1  0
  6  7  2  0
  7  8  1  0
  8  9  2  0
 10  9  1  0
 10 11  1  0
 11 12  1  0
 12 13  1  0
 13 14  1  0
 14 15  1  0
 15 16  1  0
 15 17  2  0
  7 18  1  0
 18 19  3  0
  9  4  1  0
 14 10  1  0
M  END
