CVD-0002679|dock_bobby27042020.90|mol2|30|dock1
     RDKit          3D

 28 30  0  0  0  0  0  0  0  0999 V2000
    5.8800   -1.4488   18.4152 N   0  0  0  0  0  0  0  0  0  0  0  0
    6.2939   -1.2429   19.6589 C   0  0  0  0  0  0  0  0  0  0  0  0
    5.5398   -1.2523   20.6385 O   0  0  0  0  0  0  0  0  0  0  0  0
    7.7917   -0.9885   19.8061 C   0  0  0  0  0  0  0  0  0  0  0  0
    8.4343   -0.5297   18.8775 O   0  0  0  0  0  0  0  0  0  0  0  0
    8.4376   -1.3411   21.1422 C   0  0  0  0  0  0  0  0  0  0  0  0
    8.3870   -2.8629   21.3464 C   0  0  0  0  0  0  0  0  0  0  0  0
    8.9070   -3.3016   22.6937 C   0  0  0  0  0  0  0  0  0  0  0  0
    8.0339   -3.6898   23.6981 C   0  0  0  0  0  0  0  0  0  0  0  0
    8.5106   -4.0895   24.9356 C   0  0  0  0  0  0  0  0  0  0  0  0
    9.8664   -4.1048   25.1831 C   0  0  0  0  0  0  0  0  0  0  0  0
   10.7453   -3.7200   24.1935 C   0  0  0  0  0  0  0  0  0  0  0  0
   10.2680   -3.3204   22.9563 C   0  0  0  0  0  0  0  0  0  0  0  0
    9.8143   -0.8739   21.1367 N   0  0  0  0  0  0  0  0  0  0  0  0
   10.2707   -0.0249   22.0622 C   0  0  0  0  0  0  0  0  0  0  0  0
    9.5596    0.4076   22.9652 O   0  0  0  0  0  0  0  0  0  0  0  0
   11.7352    0.3897   21.9345 C   0  0  0  0  0  0  0  0  0  0  0  0
   12.6913   -0.5778   22.6674 C   0  0  0  0  0  0  0  0  0  0  0  0
   13.4617    0.2390   23.6468 C   0  0  0  0  0  0  0  0  0  0  0  0
   13.3709    1.6596   23.1422 C   0  0  0  0  0  0  0  0  0  0  0  0
   12.0227    1.6915   22.5785 N   0  0  0  0  0  0  0  0  0  0  0  0
   11.7878    2.8539   21.7052 C   0  0  0  0  0  0  0  0  0  0  0  0
   12.3034    4.1434   22.2977 C   0  0  0  0  0  0  0  0  0  0  0  0
   13.1378    4.9748   21.5666 C   0  0  0  0  0  0  0  0  0  0  0  0
   13.6087    6.1589   22.1088 C   0  0  0  0  0  0  0  0  0  0  0  0
   13.2496    6.5254   23.3881 C   0  0  0  0  0  0  0  0  0  0  0  0
   12.4197    5.7082   24.1251 C   0  0  0  0  0  0  0  0  0  0  0  0
   11.9489    4.5241   23.5827 C   0  0  0  0  0  0  0  0  0  0  0  0
  1  2  1  0
  2  3  2  0
  2  4  1  0
  4  5  2  0
  4  6  1  0
  6  7  1  0
  7  8  1  0
  8  9  2  0
  9 10  1  0
 10 11  2  0
 11 12  1  0
 12 13  2  0
  6 14  1  0
 14 15  1  0
 15 16  2  0
 15 17  1  0
 17 18  1  0
 18 19  1  0
 19 20  1  0
 20 21  1  0
 21 22  1  0
 22 23  1  0
 23 24  2  0
 24 25  1  0
 25 26  2  0
 26 27  1  0
 27 28  2  0
 13  8  1  0
 21 17  1  0
 28 23  1  0
M  END
