CVD-0000696|dock_bobby27042020.26|mol2|28|dock1
     RDKit          3D

 29 31  0  0  0  0  0  0  0  0999 V2000
    8.5447   -3.4530   27.0440 C   0  0  0  0  0  0  0  0  0  0  0  0
    7.9727   -4.1128   25.8715 N   0  0  0  0  0  0  0  0  0  0  0  0
    7.1644   -3.2015   25.0614 C   0  0  0  0  0  0  0  0  0  0  0  0
    6.5674   -3.9279   23.8872 C   0  0  0  0  0  0  0  0  0  0  0  0
    7.6178   -4.5156   23.0507 N   0  0  0  0  0  0  0  0  0  0  0  0
    7.0452   -5.1761   21.8767 C   0  0  0  0  0  0  0  0  0  0  0  0
    6.2727   -4.2378   20.9655 C   0  0  0  0  0  0  0  0  0  0  0  0
    5.1489   -4.5376   20.5768 O   0  0  0  0  0  0  0  0  0  0  0  0
    6.9495   -3.1005   20.6716 N   0  0  0  0  0  0  0  0  0  0  0  0
    6.5717   -1.9871   19.8708 C   0  0  0  0  0  0  0  0  0  0  0  0
    5.7225   -2.0669   18.7675 C   0  0  0  0  0  0  0  0  0  0  0  0
    5.3710   -1.0157   18.0204 N   0  0  0  0  0  0  0  0  0  0  0  0
    5.8633    0.1745   18.3536 C   0  0  0  0  0  0  0  0  0  0  0  0
    6.7102    0.3695   19.4221 C   0  0  0  0  0  0  0  0  0  0  0  0
    7.0812   -0.7193   20.2035 C   0  0  0  0  0  0  0  0  0  0  0  0
    8.0105   -0.4580   21.3694 C   0  0  0  0  0  0  0  0  0  0  0  0
    9.4735   -0.6114   20.9943 C   0  0  0  0  0  0  0  0  0  0  0  0
   10.3413    0.1721   21.8619 N   0  0  0  0  0  0  0  0  0  0  0  0
   10.3254    1.5197   21.8514 C   0  0  0  0  0  0  0  0  0  0  0  0
    9.5815    2.1596   21.1129 O   0  0  0  0  0  0  0  0  0  0  0  0
   11.1818    2.1198   22.7069 N   0  0  0  0  0  0  0  0  0  0  0  0
   11.3568    3.5711   22.7660 C   0  0  0  0  0  0  0  0  0  0  0  0
   10.4127    4.2043   23.8085 C   0  0  0  0  0  0  0  0  0  0  0  0
   10.6225    5.7112   23.9458 C   0  0  0  0  0  0  0  0  0  0  0  0
   12.0790    6.0435   24.2427 C   0  0  0  0  0  0  0  0  0  0  0  0
   13.0041    5.4433   23.1937 C   0  0  0  0  0  0  0  0  0  0  0  0
   12.8160    3.9332   23.0911 C   0  0  0  0  0  0  0  0  0  0  0  0
    8.4261   -5.4268   23.8607 C   0  0  0  0  0  0  0  0  0  0  0  0
    9.0232   -4.7004   25.0349 C   0  0  0  0  0  0  0  0  0  0  0  0
  1  2  1  0
  2  3  1  0
  3  4  1  0
  4  5  1  0
  5  6  1  0
  6  7  1  0
  7  8  2  0
  7  9  1  0
  9 10  1  0
 10 11  2  0
 11 12  1  0
 12 13  2  0
 13 14  1  0
 14 15  2  0
 15 16  1  0
 16 17  1  0
 17 18  1  0
 18 19  1  0
 19 20  2  0
 19 21  1  0
 21 22  1  0
 22 23  1  0
 23 24  1  0
 24 25  1  0
 25 26  1  0
 26 27  1  0
  5 28  1  0
 28 29  1  0
 29  2  1  0
 15 10  1  0
 27 22  1  0
M  END
