CVD-0000138|dock_bobby27042020.42|mol2|33|dock3
     RDKit          3D

 18 19  0  0  0  0  0  0  0  0999 V2000
    9.5818   -0.4897   22.9274 O   0  0  0  0  0  0  0  0  0  0  0  0
    9.9383   -0.9370   21.8426 C   0  0  0  0  0  0  0  0  0  0  0  0
   11.1279   -1.5952   21.6279 N   0  0  0  0  0  0  0  0  0  0  0  0
   12.1844   -1.9150   22.5183 C   0  0  0  0  0  0  0  0  0  0  0  0
   11.8714   -2.2185   23.8372 C   0  0  0  0  0  0  0  0  0  0  0  0
   12.8817   -2.5343   24.7281 C   0  0  0  0  0  0  0  0  0  0  0  0
   14.1804   -2.5383   24.2757 C   0  0  0  0  0  0  0  0  0  0  0  0
   14.5147   -2.2520   23.0176 N   0  0  0  0  0  0  0  0  0  0  0  0
   13.5319   -1.9481   22.1641 C   0  0  0  0  0  0  0  0  0  0  0  0
    9.2018   -0.8460   20.6832 N   0  0  0  0  0  0  0  0  0  0  0  0
    7.9340   -0.2622   20.4312 C   0  0  0  0  0  0  0  0  0  0  0  0
    7.0309   -0.2146   21.4878 C   0  0  0  0  0  0  0  0  0  0  0  0
    5.7733    0.3401   21.3200 C   0  0  0  0  0  0  0  0  0  0  0  0
    5.3968    0.8566   20.0932 C   0  0  0  0  0  0  0  0  0  0  0  0
    6.2885    0.8160   19.0282 C   0  0  0  0  0  0  0  0  0  0  0  0
    7.5545    0.2584   19.1945 C   0  0  0  0  0  0  0  0  0  0  0  0
    5.9075    1.3513   17.7445 C   0  0  0  0  0  0  0  0  0  0  0  0
    5.6202    1.8041   16.7359 N   0  0  0  0  0  0  0  0  0  0  0  0
  1  2  2  0
  2  3  1  0
  3  4  1  0
  4  5  2  0
  5  6  1  0
  6  7  2  0
  7  8  1  0
  8  9  2  0
  2 10  1  0
 10 11  1  0
 11 12  2  0
 12 13  1  0
 13 14  2  0
 14 15  1  0
 15 16  2  0
 15 17  1  0
 17 18  3  0
  9  4  1  0
 16 11  1  0
M  END
