CVD-0000752|dock_bobby27042020.97|mol2|32|dock1
     RDKit          3D

 19 21  0  0  0  0  0  0  0  0999 V2000
   14.6886   -2.4357   25.6588 C   0  0  0  0  0  0  0  0  0  0  0  0
   13.4574   -1.7449   25.1716 C   0  0  0  0  0  0  0  0  0  0  0  0
   12.9392   -0.5194   25.2510 C   0  0  0  0  0  0  0  0  0  0  0  0
   11.7389   -0.4526   24.5914 N   0  0  0  0  0  0  0  0  0  0  0  0
   11.5778   -1.6421   24.1381 C   0  0  0  0  0  0  0  0  0  0  0  0
   10.5057   -2.0632   23.4026 N   0  0  0  0  0  0  0  0  0  0  0  0
    9.7980   -1.3866   22.4508 C   0  0  0  0  0  0  0  0  0  0  0  0
   10.0561   -0.2348   22.1148 O   0  0  0  0  0  0  0  0  0  0  0  0
    8.6635   -2.1574   21.8095 C   0  0  0  0  0  0  0  0  0  0  0  0
    7.7732   -1.2949   20.9675 C   0  0  0  0  0  0  0  0  0  0  0  0
    6.5498   -0.7654   21.2591 C   0  0  0  0  0  0  0  0  0  0  0  0
    6.1284   -0.0193   20.1142 C   0  0  0  0  0  0  0  0  0  0  0  0
    5.0176    0.7509   19.7399 C   0  0  0  0  0  0  0  0  0  0  0  0
    4.9854    1.3367   18.4843 C   0  0  0  0  0  0  0  0  0  0  0  0
    6.0520    1.1468   17.6297 C   0  0  0  0  0  0  0  0  0  0  0  0
    7.1394    0.4217   17.9327 N   0  0  0  0  0  0  0  0  0  0  0  0
    7.1561   -0.1399   19.1533 C   0  0  0  0  0  0  0  0  0  0  0  0
    8.1416   -0.9181   19.6953 N   0  0  0  0  0  0  0  0  0  0  0  0
   12.5768   -2.5107   24.4396 O   0  0  0  0  0  0  0  0  0  0  0  0
  1  2  1  0
  2  3  2  0
  3  4  1  0
  4  5  2  0
  5  6  1  0
  6  7  1  0
  7  8  2  0
  7  9  1  0
  9 10  1  0
 10 11  2  0
 11 12  1  0
 12 13  2  0
 13 14  1  0
 14 15  2  0
 15 16  1  0
 16 17  2  0
 17 18  1  0
  5 19  1  0
 19  2  1  0
 18 10  1  0
 17 12  1  0
M  END
