CVD-0001684|dock_bobby27042020.37|mol2|26|dock2
     RDKit          3D

 22 23  0  0  0  0  0  0  0  0999 V2000
   14.1177   -1.8699   24.1787 N   0  0  0  0  0  0  0  0  0  0  0  0
   12.8454   -2.2888   24.1434 C   0  0  0  0  0  0  0  0  0  0  0  0
   12.4571   -3.1764   24.9159 O   0  0  0  0  0  0  0  0  0  0  0  0
   11.9707   -1.7449   23.2627 N   0  0  0  0  0  0  0  0  0  0  0  0
   12.1316   -0.4571   22.5899 C   0  0  0  0  0  0  0  0  0  0  0  0
   10.9042    0.4028   22.8030 C   0  0  0  0  0  0  0  0  0  0  0  0
    9.7054   -0.3194   22.3829 N   0  0  0  0  0  0  0  0  0  0  0  0
    9.5445   -1.6072   23.0558 C   0  0  0  0  0  0  0  0  0  0  0  0
   10.7719   -2.4671   22.8427 C   0  0  0  0  0  0  0  0  0  0  0  0
    8.8368    0.2207   21.5084 C   0  0  0  0  0  0  0  0  0  0  0  0
    9.0747    1.2787   20.9581 O   0  0  0  0  0  0  0  0  0  0  0  0
    7.5415   -0.5280   21.2237 C   0  0  0  0  0  0  0  0  0  0  0  0
    6.9608   -0.8204   22.4560 F   0  0  0  0  0  0  0  0  0  0  0  0
    6.5877    0.2636   20.3734 C   0  0  0  0  0  0  0  0  0  0  0  0
    5.4776    0.8730   20.9567 C   0  0  0  0  0  0  0  0  0  0  0  0
    4.5750    1.6078   20.2054 C   0  0  0  0  0  0  0  0  0  0  0  0
    4.7586    1.7534   18.8408 C   0  0  0  0  0  0  0  0  0  0  0  0
    5.8513    1.1523   18.2642 C   0  0  0  0  0  0  0  0  0  0  0  0
    6.0463    1.2836   16.9321 F   0  0  0  0  0  0  0  0  0  0  0  0
    6.7749    0.4093   18.9871 C   0  0  0  0  0  0  0  0  0  0  0  0
    7.9021   -0.2020   18.3424 C   0  0  0  0  0  0  0  0  0  0  0  0
    8.8075   -0.6530   17.8115 N   0  0  0  0  0  0  0  0  0  0  0  0
  1  2  1  0
  2  3  2  0
  2  4  1  0
  4  5  1  0
  5  6  1  0
  6  7  1  0
  7  8  1  0
  8  9  1  0
  7 10  1  0
 10 11  2  0
 10 12  1  0
 12 13  1  0
 12 14  1  0
 14 15  2  0
 15 16  1  0
 16 17  2  0
 17 18  1  0
 18 19  1  0
 18 20  2  0
 20 21  1  0
 21 22  3  0
  9  4  1  0
 20 14  1  0
M  END
