CVD-0001563|dock_bobby27042020.9|mol2|20|dock1
     RDKit          3D

 25 27  0  0  0  0  0  0  0  0999 V2000
    6.6844   -5.4764   21.2447 C   0  0  0  0  0  0  0  0  0  0  0  0
    6.3015   -5.9440   22.6050 C   0  0  0  0  0  0  0  0  0  0  0  0
    5.2146   -6.6723   22.8044 C   0  0  0  0  0  0  0  0  0  0  0  0
    7.2130   -5.5309   23.7338 C   0  0  0  0  0  0  0  0  0  0  0  0
    8.7019   -5.8299   23.6055 C   0  0  0  0  0  0  0  0  0  0  0  0
    9.5101   -5.4880   24.8495 C   0  0  0  0  0  0  0  0  0  0  0  0
    9.4165   -4.0480   25.2795 C   0  0  0  0  0  0  0  0  0  0  0  0
    8.7584   -3.5581   26.3906 C   0  0  0  0  0  0  0  0  0  0  0  0
    8.5829   -2.2128   26.3052 N   0  0  0  0  0  0  0  0  0  0  0  0
    9.1270   -1.7571   25.1158 C   0  0  0  0  0  0  0  0  0  0  0  0
    9.3244   -0.3506   24.6127 C   0  0  0  0  0  0  0  0  0  0  0  0
   10.7852    0.5037   25.2941 S   0  0  0  0  0  0  0  0  0  0  0  0
   11.1457    1.3651   23.7243 C   0  0  0  0  0  0  0  0  0  0  0  0
   11.2654    2.8665   23.9079 C   0  0  0  0  0  0  0  0  0  0  0  0
   11.5959    3.6513   22.6457 C   0  0  0  0  0  0  0  0  0  0  0  0
   11.5320    5.1587   22.8468 C   0  0  0  0  0  0  0  0  0  0  0  0
   12.6305    5.6775   23.7092 C   0  0  0  0  0  0  0  0  0  0  0  0
   13.6912    6.1249   23.2090 N   0  0  0  0  0  0  0  0  0  0  0  0
   12.3953    5.6372   25.0024 N   0  0  0  0  0  0  0  0  0  0  0  0
   10.0465    1.0181   22.7332 C   0  0  0  0  0  0  0  0  0  0  0  0
    9.5265   -0.3665   23.0916 C   0  0  0  0  0  0  0  0  0  0  0  0
   10.3648   -1.5132   22.5678 C   0  0  0  0  0  0  0  0  0  0  0  0
   11.0294   -1.4207   21.5384 O   0  0  0  0  0  0  0  0  0  0  0  0
   10.2559   -2.7154   23.2307 N   0  0  0  0  0  0  0  0  0  0  0  0
    9.6457   -2.8520   24.4630 C   0  0  0  0  0  0  0  0  0  0  0  0
  1  2  1  0
  2  3  2  0
  2  4  1  0
  4  5  1  0
  5  6  1  0
  6  7  1  0
  7  8  2  0
  8  9  1  0
  9 10  1  0
 10 11  1  0
 11 12  1  0
 12 13  1  0
 13 14  1  0
 14 15  1  0
 15 16  1  0
 16 17  1  0
 17 18  1  0
 17 19  2  0
 13 20  1  0
 20 21  1  0
 21 22  1  0
 22 23  2  0
 22 24  1  0
 24 25  1  0
 25  7  1  0
 25 10  2  0
 21 11  1  0
M  END
