CVD-0000200|dock_bobby27042020.85|mol2|14|dock1
     RDKit          3D

 23 25  0  0  0  0  0  0  0  0999 V2000
   13.1736    5.4299   22.7191 C   0  0  0  0  0  0  0  0  0  0  0  0
   13.4167    4.0779   23.1032 O   0  0  0  0  0  0  0  0  0  0  0  0
   12.5098    3.0966   22.7893 C   0  0  0  0  0  0  0  0  0  0  0  0
   12.9124    1.7756   22.8843 C   0  0  0  0  0  0  0  0  0  0  0  0
   12.0278    0.7579   22.5761 C   0  0  0  0  0  0  0  0  0  0  0  0
   10.7314    1.0341   22.1684 C   0  0  0  0  0  0  0  0  0  0  0  0
   10.3425    2.3626   22.0791 C   0  0  0  0  0  0  0  0  0  0  0  0
   11.2159    3.3919   22.3840 C   0  0  0  0  0  0  0  0  0  0  0  0
    9.7642   -0.0849   21.8347 C   0  0  0  0  0  0  0  0  0  0  0  0
   10.0327   -1.4427   22.4558 C   0  0  0  0  0  0  0  0  0  0  0  0
    8.7520   -2.2243   22.2583 C   0  0  0  0  0  0  0  0  0  0  0  0
    8.4898   -3.3442   23.2520 C   0  0  0  0  0  0  0  0  0  0  0  0
    7.7129   -1.1674   22.2568 N   0  0  0  0  0  0  0  0  0  0  0  0
    8.3343    0.1681   22.2717 C   0  0  0  0  0  0  0  0  0  0  0  0
    6.2644   -1.3556   21.5386 S   0  0  0  0  0  0  0  0  0  0  0  0
    6.1847   -2.7259   21.1378 O   0  0  0  0  0  0  0  0  0  0  0  0
    5.2912   -0.8214   22.4399 O   0  0  0  0  0  0  0  0  0  0  0  0
    6.2619   -0.3634   20.0856 C   0  0  0  0  0  0  0  0  0  0  0  0
    5.2329    0.5326   19.8514 C   0  0  0  0  0  0  0  0  0  0  0  0
    5.2682    1.2895   18.6931 C   0  0  0  0  0  0  0  0  0  0  0  0
    6.3213    1.1203   17.8229 C   0  0  0  0  0  0  0  0  0  0  0  0
    7.3182    0.2597   18.0348 N   0  0  0  0  0  0  0  0  0  0  0  0
    7.2779   -0.4680   19.1546 C   0  0  0  0  0  0  0  0  0  0  0  0
  1  2  1  0
  2  3  1  0
  3  4  2  0
  4  5  1  0
  5  6  2  0
  6  7  1  0
  7  8  2  0
  6  9  1  0
  9 10  1  0
 10 11  1  0
 11 12  1  0
 11 13  1  0
 13 14  1  0
 13 15  1  0
 15 16  2  0
 15 17  2  0
 15 18  1  0
 18 19  2  0
 19 20  1  0
 20 21  2  0
 21 22  1  0
 22 23  2  0
  8  3  1  0
 14  9  1  0
 23 18  1  0
M  END
