CVD-0000529|dock_bobby27042020.84|mol2|5|dock1
     RDKit          3D

 22 22  0  0  0  0  0  0  0  0999 V2000
    9.2435    5.0143   23.0308 C   0  0  0  0  0  0  0  0  0  0  0  0
    9.3427    3.5828   22.5945 C   0  0  0  0  0  0  0  0  0  0  0  0
    8.2508    3.0519   22.0447 N   0  0  0  0  0  0  0  0  0  0  0  0
    8.2866    1.7797   21.6384 C   0  0  0  0  0  0  0  0  0  0  0  0
    9.4063    0.9657   21.7593 C   0  0  0  0  0  0  0  0  0  0  0  0
    9.4312   -0.3267   21.3421 O   0  0  0  0  0  0  0  0  0  0  0  0
   10.5495    1.5200   22.3396 C   0  0  0  0  0  0  0  0  0  0  0  0
   11.7947    0.6697   22.4921 C   0  0  0  0  0  0  0  0  0  0  0  0
   11.8382    0.0781   23.8341 N   0  0  0  0  0  0  0  0  0  0  0  0
   12.9938   -0.7867   24.0787 C   0  0  0  0  0  0  0  0  0  0  0  0
   12.9549   -1.4527   25.4549 C   0  0  0  0  0  0  0  0  0  0  0  0
   14.1870   -2.7499   25.7376 S   0  0  0  0  0  0  0  0  0  0  0  0
   12.9995   -1.8705   23.0122 C   0  0  0  0  0  0  0  0  0  0  0  0
   13.9023   -1.6712   22.0858 O   0  0  0  0  0  0  0  0  0  0  0  0
   12.2397   -2.8137   23.0311 O   0  0  0  0  0  0  0  0  0  0  0  0
   10.5186    2.8601   22.7653 C   0  0  0  0  0  0  0  0  0  0  0  0
   11.7325    3.4945   23.3960 C   0  0  0  0  0  0  0  0  0  0  0  0
   12.6538    3.8480   22.3332 O   0  0  0  0  0  0  0  0  0  0  0  0
   13.8497    4.8686   22.6093 P   0  0  0  0  0  0  0  0  0  0  0  0
   14.5354    5.1880   21.2593 O   0  0  0  0  0  0  0  0  0  0  0  0
   14.8720    4.1708   23.5383 O   0  0  0  0  0  0  0  0  0  0  0  0
   13.2666    6.0946   23.2420 O   0  0  0  0  0  0  0  0  0  0  0  0
  1  2  1  0
  2  3  2  0
  3  4  1  0
  4  5  2  0
  5  6  1  0
  5  7  1  0
  7  8  1  0
  8  9  1  0
  9 10  1  0
 10 11  1  0
 11 12  1  0
 10 13  1  0
 13 14  1  0
 13 15  2  0
  7 16  2  0
 16 17  1  0
 17 18  1  0
 18 19  1  0
 19 20  1  0
 19 21  1  0
 19 22  2  0
 16  2  1  0
M  END
