CVD-0002932|dock_bobby27042020.75|mol2|27|dock3
     RDKit          3D

 26 29  0  0  0  0  0  0  0  0999 V2000
   12.8859    3.4670   23.1554 C   0  0  0  0  0  0  0  0  0  0  0  0
   12.4624    2.0325   23.0370 C   0  0  0  0  0  0  0  0  0  0  0  0
   13.2357    1.2024   22.5788 O   0  0  0  0  0  0  0  0  0  0  0  0
   11.1417    1.7308   23.4549 N   0  0  0  0  0  0  0  0  0  0  0  0
   10.1302    2.7753   23.2793 C   0  0  0  0  0  0  0  0  0  0  0  0
    9.5781    2.6648   21.8803 C   0  0  0  0  0  0  0  0  0  0  0  0
    8.9768    1.3457   21.7074 N   0  0  0  0  0  0  0  0  0  0  0  0
    7.7172    1.2846   22.4619 C   0  0  0  0  0  0  0  0  0  0  0  0
    6.4896    1.2660   21.5825 C   0  0  0  0  0  0  0  0  0  0  0  0
    5.2308    1.4879   22.1189 C   0  0  0  0  0  0  0  0  0  0  0  0
    4.1049    1.4710   21.3125 C   0  0  0  0  0  0  0  0  0  0  0  0
    4.2255    1.2319   19.9604 C   0  0  0  0  0  0  0  0  0  0  0  0
    5.4716    1.0098   19.4147 C   0  0  0  0  0  0  0  0  0  0  0  0
    6.5973    1.0268   20.2212 C   0  0  0  0  0  0  0  0  0  0  0  0
    9.9479    0.2839   22.0243 C   0  0  0  0  0  0  0  0  0  0  0  0
    9.5074   -1.0968   22.0047 N   0  0  0  0  0  0  0  0  0  0  0  0
   10.0941   -1.8424   23.0291 C   0  0  0  0  0  0  0  0  0  0  0  0
    9.9235   -3.0137   23.3433 O   0  0  0  0  0  0  0  0  0  0  0  0
   10.9638   -0.9325   23.6378 N   0  0  0  0  0  0  0  0  0  0  0  0
   10.4659    0.4363   23.4607 C   0  0  0  0  0  0  0  0  0  0  0  0
   12.1429   -1.2396   24.4009 C   0  0  0  0  0  0  0  0  0  0  0  0
   12.8152   -2.4483   24.2664 C   0  0  0  0  0  0  0  0  0  0  0  0
   13.9321   -2.6969   25.0448 C   0  0  0  0  0  0  0  0  0  0  0  0
   14.3525   -1.7269   25.9242 C   0  0  0  0  0  0  0  0  0  0  0  0
   13.7361   -0.5537   26.0624 N   0  0  0  0  0  0  0  0  0  0  0  0
   12.6532   -0.3281   25.3121 C   0  0  0  0  0  0  0  0  0  0  0  0
  1  2  1  0
  2  3  2  0
  2  4  1  0
  4  5  1  0
  5  6  1  0
  6  7  1  0
  7  8  1  0
  8  9  1  0
  9 10  2  0
 10 11  1  0
 11 12  2  0
 12 13  1  0
 13 14  2  0
  7 15  1  0
 15 16  1  0
 16 17  1  0
 17 18  2  0
 17 19  1  0
 19 20  1  0
 19 21  1  0
 21 22  2  0
 22 23  1  0
 23 24  2  0
 24 25  1  0
 25 26  2  0
 20  4  1  0
 26 21  1  0
 14  9  1  0
 20 15  1  0
M  END
