CVD-0003738|dock_bobby27042020.44|mol2|24|dock1
     RDKit          3D

 25 27  0  0  0  0  0  0  0  0999 V2000
   14.0774    0.0307   22.1043 O   0  0  0  0  0  0  0  0  0  0  0  0
   13.9160   -0.9639   23.1191 C   0  0  0  0  0  0  0  0  0  0  0  0
   13.2019   -2.2138   22.6009 C   0  0  0  0  0  0  0  0  0  0  0  0
   11.7187   -1.9674   22.3089 C   0  0  0  0  0  0  0  0  0  0  0  0
   11.0369   -1.4448   23.5655 C   0  0  0  0  0  0  0  0  0  0  0  0
   11.7005   -0.1708   24.0802 C   0  0  0  0  0  0  0  0  0  0  0  0
   13.1859   -0.4196   24.3409 C   0  0  0  0  0  0  0  0  0  0  0  0
    9.5884   -1.2417   23.3466 N   0  0  0  0  0  0  0  0  0  0  0  0
    8.7445   -1.3860   24.5432 C   0  0  0  0  0  0  0  0  0  0  0  0
    8.8244   -2.7384   25.2433 C   0  0  0  0  0  0  0  0  0  0  0  0
    7.7036   -2.8901   26.2921 C   0  0  0  0  0  0  0  0  0  0  0  0
    7.7125   -4.2638   26.9602 C   0  0  0  0  0  0  0  0  0  0  0  0
    7.6610   -5.3828   25.9281 C   0  0  0  0  0  0  0  0  0  0  0  0
    8.7877   -5.2469   24.9140 C   0  0  0  0  0  0  0  0  0  0  0  0
    8.7477   -3.8875   24.2235 C   0  0  0  0  0  0  0  0  0  0  0  0
    9.1286   -0.1866   22.4192 C   0  0  0  0  0  0  0  0  0  0  0  0
    8.6725    1.0526   23.1680 C   0  0  0  0  0  0  0  0  0  0  0  0
    8.1679    2.0949   22.1784 C   0  0  0  0  0  0  0  0  0  0  0  0
    7.0749    1.5140   21.3048 C   0  0  0  0  0  0  0  0  0  0  0  0
    7.5629    0.3097   20.6186 N   0  0  0  0  0  0  0  0  0  0  0  0
    8.0339   -0.7439   21.5226 C   0  0  0  0  0  0  0  0  0  0  0  0
    7.3668    0.0295   19.3089 C   0  0  0  0  0  0  0  0  0  0  0  0
    7.9412   -0.9107   18.7619 O   0  0  0  0  0  0  0  0  0  0  0  0
    6.4332    0.8844   18.5225 C   0  0  0  0  0  0  0  0  0  0  0  0
    5.2067    1.0857   18.9256 C   0  0  0  0  0  0  0  0  0  0  0  0
  1  2  1  0
  2  3  1  0
  3  4  1  0
  4  5  1  0
  5  6  1  0
  6  7  1  0
  5  8  1  0
  8  9  1  0
  9 10  1  0
 10 11  1  0
 11 12  1  0
 12 13  1  0
 13 14  1  0
 14 15  1  0
  8 16  1  0
 16 17  1  0
 17 18  1  0
 18 19  1  0
 19 20  1  0
 20 21  1  0
 20 22  1  0
 22 23  2  0
 22 24  1  0
 24 25  2  0
  7  2  1  0
 15 10  1  0
 21 16  1  0
M  END
