CVD-0004067|dock_bobby27042020.57|mol2|35|dock3
     RDKit          3D

 22 25  0  0  0  0  0  0  0  0999 V2000
   13.2660    4.6970   22.5818 C   0  0  0  0  0  0  0  0  0  0  0  0
   12.4148    3.4637   22.6354 C   0  0  0  0  0  0  0  0  0  0  0  0
   12.7825    2.2160   22.9311 C   0  0  0  0  0  0  0  0  0  0  0  0
   11.7749    1.2664   22.9048 N   0  0  0  0  0  0  0  0  0  0  0  0
   11.5699   -0.0969   23.1012 C   0  0  0  0  0  0  0  0  0  0  0  0
   10.2138   -0.2713   22.8746 C   0  0  0  0  0  0  0  0  0  0  0  0
    9.6281    0.9339   22.5309 N   0  0  0  0  0  0  0  0  0  0  0  0
   10.5793    1.8311   22.5635 C   0  0  0  0  0  0  0  0  0  0  0  0
   10.7280    3.5467   22.2880 S   0  0  0  0  0  0  0  0  0  0  0  0
    9.3157   -1.4453   22.9353 C   0  0  0  0  0  0  0  0  0  0  0  0
    8.0602   -1.3655   22.3419 C   0  0  0  0  0  0  0  0  0  0  0  0
    7.1920   -2.4425   22.3505 C   0  0  0  0  0  0  0  0  0  0  0  0
    7.5953   -3.5966   22.9632 C   0  0  0  0  0  0  0  0  0  0  0  0
    6.7529   -4.6648   22.9624 F   0  0  0  0  0  0  0  0  0  0  0  0
    8.8107   -3.7198   23.5778 C   0  0  0  0  0  0  0  0  0  0  0  0
    9.6646   -2.6309   23.5752 C   0  0  0  0  0  0  0  0  0  0  0  0
   12.6892   -1.0019   23.4585 C   0  0  0  0  0  0  0  0  0  0  0  0
   13.3951   -0.8580   24.6481 C   0  0  0  0  0  0  0  0  0  0  0  0
   14.4266   -1.7322   24.9275 C   0  0  0  0  0  0  0  0  0  0  0  0
   14.7915   -2.7316   24.1254 N   0  0  0  0  0  0  0  0  0  0  0  0
   14.1048   -2.8692   22.9917 C   0  0  0  0  0  0  0  0  0  0  0  0
   13.0653   -2.0421   22.6145 C   0  0  0  0  0  0  0  0  0  0  0  0
  1  2  1  0
  2  3  2  0
  3  4  1  0
  4  5  1  0
  5  6  2  0
  6  7  1  0
  7  8  2  0
  8  9  1  0
  6 10  1  0
 10 11  2  0
 11 12  1  0
 12 13  2  0
 13 14  1  0
 13 15  1  0
 15 16  2  0
  5 17  1  0
 17 18  2  0
 18 19  1  0
 19 20  2  0
 20 21  1  0
 21 22  2  0
  9  2  1  0
 16 10  1  0
 22 17  1  0
  8  4  1  0
M  END
