CVD-0000262|dock_bobby27042020.85|mol2|5|dock3
     RDKit          3D

 23 25  0  0  0  0  0  0  0  0999 V2000
   12.2351    5.2728   23.4786 O   0  0  0  0  0  0  0  0  0  0  0  0
   13.0365    4.8328   22.3940 C   0  0  0  0  0  0  0  0  0  0  0  0
   13.4161    3.3926   22.5373 C   0  0  0  0  0  0  0  0  0  0  0  0
   12.2168    2.6092   22.4659 O   0  0  0  0  0  0  0  0  0  0  0  0
   12.3487    1.2699   22.4648 C   0  0  0  0  0  0  0  0  0  0  0  0
   13.5286    0.7855   22.8089 N   0  0  0  0  0  0  0  0  0  0  0  0
   13.6743   -0.5439   22.8123 C   0  0  0  0  0  0  0  0  0  0  0  0
   12.6634   -1.4118   22.4780 C   0  0  0  0  0  0  0  0  0  0  0  0
   11.4340   -0.8870   22.1201 C   0  0  0  0  0  0  0  0  0  0  0  0
   11.2320    0.4949   22.1012 C   0  0  0  0  0  0  0  0  0  0  0  0
    9.8585    0.9536   21.6974 C   0  0  0  0  0  0  0  0  0  0  0  0
    9.5849    2.1501   21.6905 O   0  0  0  0  0  0  0  0  0  0  0  0
    8.9526    0.0376   21.3499 N   0  0  0  0  0  0  0  0  0  0  0  0
    7.7029   -0.5482   20.9157 C   0  0  0  0  0  0  0  0  0  0  0  0
    7.2223    0.0544   19.6281 C   0  0  0  0  0  0  0  0  0  0  0  0
    7.7972   -0.0406   18.3572 C   0  0  0  0  0  0  0  0  0  0  0  0
    7.1155    0.6227   17.4328 N   0  0  0  0  0  0  0  0  0  0  0  0
    6.0601    1.1776   18.1054 N   0  0  0  0  0  0  0  0  0  0  0  0
    5.0746    1.9600   17.5645 C   0  0  0  0  0  0  0  0  0  0  0  0
    4.1064    2.4252   18.3832 C   0  0  0  0  0  0  0  0  0  0  0  0
    4.1053    2.1178   19.7565 C   0  0  0  0  0  0  0  0  0  0  0  0
    5.0885    1.3378   20.2943 C   0  0  0  0  0  0  0  0  0  0  0  0
    6.0995    0.8513   19.4384 C   0  0  0  0  0  0  0  0  0  0  0  0
  1  2  1  0
  2  3  1  0
  3  4  1  0
  4  5  1  0
  5  6  2  0
  6  7  1  0
  7  8  2  0
  8  9  1  0
  9 10  2  0
 10 11  1  0
 11 12  2  0
 11 13  1  0
 13 14  1  0
 14 15  1  0
 15 16  1  0
 16 17  2  0
 17 18  1  0
 18 19  1  0
 19 20  2  0
 20 21  1  0
 21 22  2  0
 22 23  1  0
 10  5  1  0
 23 15  2  0
 23 18  1  0
M  END
