CVD-0001624|dock_bobby27042020.9|mol2|11|dock2
     RDKit          3D

 21 22  0  0  0  0  0  0  0  0999 V2000
   14.1066   -2.7085   23.6411 C   0  0  0  0  0  0  0  0  0  0  0  0
   14.3413   -1.5645   24.4487 O   0  0  0  0  0  0  0  0  0  0  0  0
   13.3207   -0.5911   24.3733 C   0  0  0  0  0  0  0  0  0  0  0  0
   13.2573   -0.0087   22.9825 C   0  0  0  0  0  0  0  0  0  0  0  0
   12.2977    1.1488   22.9054 C   0  0  0  0  0  0  0  0  0  0  0  0
   12.7206    2.4904   22.7905 C   0  0  0  0  0  0  0  0  0  0  0  0
   11.6813    3.3532   22.7276 C   0  0  0  0  0  0  0  0  0  0  0  0
   11.7635    5.2166   22.5727 Br  0  0  0  0  0  0  0  0  0  0  0  0
   10.1584    2.5677   22.8049 S   0  0  0  0  0  0  0  0  0  0  0  0
   10.9431    1.0226   22.9261 C   0  0  0  0  0  0  0  0  0  0  0  0
   10.1462   -0.2460   23.0271 C   0  0  0  0  0  0  0  0  0  0  0  0
    8.7780   -0.1459   22.5088 N   0  0  0  0  0  0  0  0  0  0  0  0
    7.9985   -1.3280   22.8879 C   0  0  0  0  0  0  0  0  0  0  0  0
    6.5727   -1.2004   22.3844 C   0  0  0  0  0  0  0  0  0  0  0  0
    6.5571   -1.0289   20.9301 N   0  0  0  0  0  0  0  0  0  0  0  0
    7.3782    0.1121   20.5132 C   0  0  0  0  0  0  0  0  0  0  0  0
    8.7899   -0.0294   21.0529 C   0  0  0  0  0  0  0  0  0  0  0  0
    5.8380   -1.8261   20.1043 C   0  0  0  0  0  0  0  0  0  0  0  0
    5.1499   -2.7414   20.5384 O   0  0  0  0  0  0  0  0  0  0  0  0
    5.8907   -1.5602   18.6117 C   0  0  0  0  0  0  0  0  0  0  0  0
    5.1886    0.0147   18.2196 Cl  0  0  0  0  0  0  0  0  0  0  0  0
  1  2  1  0
  2  3  1  0
  3  4  1  0
  4  5  1  0
  5  6  1  0
  6  7  2  0
  7  8  1  0
  7  9  1  0
  9 10  1  0
 10 11  1  0
 11 12  1  0
 12 13  1  0
 13 14  1  0
 14 15  1  0
 15 16  1  0
 16 17  1  0
 15 18  1  0
 18 19  2  0
 18 20  1  0
 20 21  1  0
 10  5  2  0
 17 12  1  0
M  END
