CVD-0001691|dock_bobby27042020.37|mol2|25|dock3
     RDKit          3D

 20 21  0  0  0  0  0  0  0  0999 V2000
    8.0271   -1.1583   24.6794 C   0  0  0  0  0  0  0  0  0  0  0  0
    8.7223   -1.6257   23.3827 C   0  0  0  0  0  0  0  0  0  0  0  0
    9.0401   -3.1402   23.5101 C   0  0  0  0  0  0  0  0  0  0  0  0
    7.9061   -4.1495   23.4758 C   0  0  0  0  0  0  0  0  0  0  0  0
    8.3597   -5.4912   23.3990 O   0  0  0  0  0  0  0  0  0  0  0  0
   10.0112   -0.7702   23.2457 C   0  0  0  0  0  0  0  0  0  0  0  0
   10.8632   -0.7329   24.5020 C   0  0  0  0  0  0  0  0  0  0  0  0
   12.2941   -0.5348   23.9797 C   0  0  0  0  0  0  0  0  0  0  0  0
   12.2290   -1.0361   22.4921 C   0  0  0  0  0  0  0  0  0  0  0  0
   13.1418   -2.1955   22.1818 C   0  0  0  0  0  0  0  0  0  0  0  0
   13.4444   -2.2777   20.7946 O   0  0  0  0  0  0  0  0  0  0  0  0
   10.8370   -1.4141   22.2714 O   0  0  0  0  0  0  0  0  0  0  0  0
    7.8167   -1.3894   22.1529 C   0  0  0  0  0  0  0  0  0  0  0  0
    6.5372   -0.9495   22.2143 C   0  0  0  0  0  0  0  0  0  0  0  0
    5.8800   -0.5383   23.2936 O   0  0  0  0  0  0  0  0  0  0  0  0
    5.7899   -0.9513   20.9056 C   0  0  0  0  0  0  0  0  0  0  0  0
    6.6248   -0.4196   19.8497 O   0  0  0  0  0  0  0  0  0  0  0  0
    7.8192   -1.0287   19.7219 C   0  0  0  0  0  0  0  0  0  0  0  0
    8.3002   -0.9309   18.5771 O   0  0  0  0  0  0  0  0  0  0  0  0
    8.3583   -1.6479   20.8105 C   0  0  0  0  0  0  0  0  0  0  0  0
  1  2  1  0
  2  3  1  0
  3  4  1  0
  4  5  1  0
  6  2  1  0
  6  7  1  0
  7  8  1  0
  8  9  1  0
  9 10  1  0
 10 11  1  0
  9 12  1  0
  2 13  1  0
 13 14  2  0
 14 15  1  0
 14 16  1  0
 16 17  1  0
 17 18  1  0
 18 19  1  0
 18 20  2  0
 12  6  1  0
 20 13  1  0
M  END
