CVD-0002048|dock_bobby27042020.7|mol2|33|dock3
     RDKit          3D

 34 37  0  0  0  0  0  0  0  0999 V2000
    8.4299    5.9951   24.1043 C   0  0  0  0  0  0  0  0  0  0  0  0
    8.7727    5.7858   22.6626 C   0  0  0  0  0  0  0  0  0  0  0  0
   10.2068    5.6500   22.4710 N   0  0  0  0  0  0  0  0  0  0  0  0
   10.8823    4.4852   22.6667 C   0  0  0  0  0  0  0  0  0  0  0  0
   12.2581    4.4166   22.4563 C   0  0  0  0  0  0  0  0  0  0  0  0
   12.8976    3.2090   22.6694 C   0  0  0  0  0  0  0  0  0  0  0  0
   12.1663    2.1012   23.0837 C   0  0  0  0  0  0  0  0  0  0  0  0
   10.7969    2.2729   23.2657 C   0  0  0  0  0  0  0  0  0  0  0  0
   10.1613    3.4327   23.0648 N   0  0  0  0  0  0  0  0  0  0  0  0
   12.7995    0.8326   23.3139 C   0  0  0  0  0  0  0  0  0  0  0  0
   13.3376   -0.2251   23.4495 C   0  0  0  0  0  0  0  0  0  0  0  0
   13.9696   -1.4917   23.5433 N   0  0  0  0  0  0  0  0  0  0  0  0
   13.4394   -2.6056   22.7705 C   0  0  0  0  0  0  0  0  0  0  0  0
   11.9503   -2.4902   22.5762 C   0  0  0  0  0  0  0  0  0  0  0  0
   11.3163   -1.7127   21.5920 C   0  0  0  0  0  0  0  0  0  0  0  0
    9.9406   -1.8298   21.6955 C   0  0  0  0  0  0  0  0  0  0  0  0
    8.9301   -1.1643   20.8280 C   0  0  0  0  0  0  0  0  0  0  0  0
    8.6529   -1.6366   19.5421 C   0  0  0  0  0  0  0  0  0  0  0  0
    7.7176   -1.0166   18.7307 C   0  0  0  0  0  0  0  0  0  0  0  0
    7.0403    0.0975   19.1688 C   0  0  0  0  0  0  0  0  0  0  0  0
    7.2908    0.5980   20.4322 C   0  0  0  0  0  0  0  0  0  0  0  0
    8.2136   -0.0398   21.2270 C   0  0  0  0  0  0  0  0  0  0  0  0
    8.3979    0.4869   22.4593 F   0  0  0  0  0  0  0  0  0  0  0  0
    9.7192   -2.7080   22.7965 N   0  0  0  0  0  0  0  0  0  0  0  0
   10.9479   -3.0984   23.3143 C   0  0  0  0  0  0  0  0  0  0  0  0
    8.3179   -3.3134   23.5386 S   0  0  0  0  0  0  0  0  0  0  0  0
    7.5065   -2.1939   23.9043 O   0  0  0  0  0  0  0  0  0  0  0  0
    7.7986   -4.2725   22.6137 O   0  0  0  0  0  0  0  0  0  0  0  0
    8.8258   -4.1963   24.9738 C   0  0  0  0  0  0  0  0  0  0  0  0
    9.0150   -5.5667   24.9223 C   0  0  0  0  0  0  0  0  0  0  0  0
    9.4196   -6.2204   26.0733 C   0  0  0  0  0  0  0  0  0  0  0  0
    9.6183   -5.4833   27.2188 C   0  0  0  0  0  0  0  0  0  0  0  0
    9.4417   -4.1627   27.2823 N   0  0  0  0  0  0  0  0  0  0  0  0
    9.0512   -3.5378   26.1676 C   0  0  0  0  0  0  0  0  0  0  0  0
  1  2  1  0
  2  3  1  0
  3  4  1  0
  4  5  2  0
  5  6  1  0
  6  7  2  0
  7  8  1  0
  8  9  2  0
  7 10  1  0
 10 11  3  0
 11 12  1  0
 12 13  1  0
 13 14  1  0
 14 15  1  0
 15 16  2  0
 16 17  1  0
 17 18  2  0
 18 19  1  0
 19 20  2  0
 20 21  1  0
 21 22  2  0
 22 23  1  0
 16 24  1  0
 24 25  1  0
 24 26  1  0
 26 27  2  0
 26 28  2  0
 26 29  1  0
 29 30  2  0
 30 31  1  0
 31 32  2  0
 32 33  1  0
 33 34  2  0
  9  4  1  0
 25 14  2  0
 34 29  1  0
 22 17  1  0
M  END
