CVD-0002987|dock_bobby27042020.46|mol2|39|dock2
     RDKit          3D

 25 27  0  0  0  0  0  0  0  0999 V2000
   13.3208   -1.8973   20.7979 N   0  0  0  0  0  0  0  0  0  0  0  0
   12.9344   -1.4168   21.9690 C   0  0  0  0  0  0  0  0  0  0  0  0
   13.7225   -1.2142   22.8954 O   0  0  0  0  0  0  0  0  0  0  0  0
   11.4533   -1.1265   22.1081 C   0  0  0  0  0  0  0  0  0  0  0  0
   10.6067   -2.3730   22.3732 C   0  0  0  0  0  0  0  0  0  0  0  0
    9.5077   -1.9367   23.3469 C   0  0  0  0  0  0  0  0  0  0  0  0
    9.6846   -0.4434   23.5453 C   0  0  0  0  0  0  0  0  0  0  0  0
   11.1777   -0.1843   23.2831 C   0  0  0  0  0  0  0  0  0  0  0  0
   11.4488    1.2717   22.9901 C   0  0  0  0  0  0  0  0  0  0  0  0
   10.4783    2.3093   23.0988 C   0  0  0  0  0  0  0  0  0  0  0  0
   10.9538    3.5481   22.7893 C   0  0  0  0  0  0  0  0  0  0  0  0
   12.5954    3.4496   22.3630 S   0  0  0  0  0  0  0  0  0  0  0  0
   12.6565    1.7668   22.5965 C   0  0  0  0  0  0  0  0  0  0  0  0
    8.1513   -2.2846   22.7628 C   0  0  0  0  0  0  0  0  0  0  0  0
    7.7435   -1.6578   21.5880 C   0  0  0  0  0  0  0  0  0  0  0  0
    6.5038   -1.9568   21.0672 C   0  0  0  0  0  0  0  0  0  0  0  0
    5.6774   -2.8508   21.6182 N   0  0  0  0  0  0  0  0  0  0  0  0
    6.1075   -3.4885   22.6925 C   0  0  0  0  0  0  0  0  0  0  0  0
    5.0538   -4.7741   23.1922 Cl  0  0  0  0  0  0  0  0  0  0  0  0
    7.2863   -3.2123   23.3752 C   0  0  0  0  0  0  0  0  0  0  0  0
    7.7184   -3.7739   24.6248 N   0  0  0  0  0  0  0  0  0  0  0  0
    8.2700   -4.9968   24.8166 C   0  0  0  0  0  0  0  0  0  0  0  0
    8.4903   -5.8281   23.9422 O   0  0  0  0  0  0  0  0  0  0  0  0
    8.5928   -5.2977   26.2636 C   0  0  0  0  0  0  0  0  0  0  0  0
    9.7678   -6.6126   26.3977 Cl  0  0  0  0  0  0  0  0  0  0  0  0
  1  2  1  0
  2  3  2  0
  2  4  1  0
  4  5  1  0
  5  6  1  0
  6  7  1  0
  7  8  1  0
  8  9  1  0
  9 10  1  0
 10 11  2  0
 11 12  1  0
 12 13  1  0
  6 14  1  0
 14 15  2  0
 15 16  1  0
 16 17  2  0
 17 18  1  0
 18 19  1  0
 18 20  2  0
 20 21  1  0
 21 22  1  0
 22 23  2  0
 22 24  1  0
 24 25  1  0
  8  4  1  0
 13  9  2  0
 20 14  1  0
M  END
