CVD-0002545|dock_bobby27042020.48|mol2|15|dock3
     RDKit          3D

 32 33  0  0  0  0  0  0  0  0999 V2000
    2.5485   -5.7350   23.0389 C   0  0  0  0  0  0  0  0  0  0  0  0
    3.8115   -6.9469   22.9863 S   0  0  0  0  0  0  0  0  0  0  0  0
    3.3581   -8.0925   23.7129 O   0  0  0  0  0  0  0  0  0  0  0  0
    4.2075   -7.1160   21.6223 O   0  0  0  0  0  0  0  0  0  0  0  0
    5.0797   -6.3625   23.7744 N   0  0  0  0  0  0  0  0  0  0  0  0
    6.0427   -5.5044   23.0764 C   0  0  0  0  0  0  0  0  0  0  0  0
    6.6241   -4.3844   23.9508 C   0  0  0  0  0  0  0  0  0  0  0  0
    7.7428   -3.6726   23.1868 C   0  0  0  0  0  0  0  0  0  0  0  0
    8.1819   -4.0924   22.1194 O   0  0  0  0  0  0  0  0  0  0  0  0
    8.2018   -2.5655   23.7778 N   0  0  0  0  0  0  0  0  0  0  0  0
    9.2676   -1.7731   23.1869 C   0  0  0  0  0  0  0  0  0  0  0  0
    9.9213   -0.8820   24.2540 C   0  0  0  0  0  0  0  0  0  0  0  0
   11.0439   -0.0299   23.7135 C   0  0  0  0  0  0  0  0  0  0  0  0
   10.8015    1.2543   23.2516 C   0  0  0  0  0  0  0  0  0  0  0  0
   11.8251    2.0397   22.7517 C   0  0  0  0  0  0  0  0  0  0  0  0
   13.1176    1.5424   22.7074 C   0  0  0  0  0  0  0  0  0  0  0  0
   14.1318    2.3115   22.2162 O   0  0  0  0  0  0  0  0  0  0  0  0
   13.3747    0.2598   23.1644 C   0  0  0  0  0  0  0  0  0  0  0  0
   12.3415   -0.5145   23.6615 C   0  0  0  0  0  0  0  0  0  0  0  0
    8.7324   -0.9064   22.0507 C   0  0  0  0  0  0  0  0  0  0  0  0
    9.2753   -0.9194   20.9492 O   0  0  0  0  0  0  0  0  0  0  0  0
    7.6663   -0.1556   22.3262 N   0  0  0  0  0  0  0  0  0  0  0  0
    7.0653    0.7128   21.3226 C   0  0  0  0  0  0  0  0  0  0  0  0
    6.5597   -0.0294   20.1619 C   0  0  0  0  0  0  0  0  0  0  0  0
    6.1901   -0.6721   19.2363 C   0  0  0  0  0  0  0  0  0  0  0  0
    5.5924   -1.6005   17.8134 Br  0  0  0  0  0  0  0  0  0  0  0  0
    7.1818   -4.9333   25.2545 C   0  0  0  0  0  0  0  0  0  0  0  0
    6.6361   -4.5569   26.4739 C   0  0  0  0  0  0  0  0  0  0  0  0
    7.1424   -5.0594   27.6610 C   0  0  0  0  0  0  0  0  0  0  0  0
    8.1991   -5.9443   27.6437 C   0  0  0  0  0  0  0  0  0  0  0  0
    8.7500   -6.3277   26.4398 C   0  0  0  0  0  0  0  0  0  0  0  0
    8.2445   -5.8258   25.2521 C   0  0  0  0  0  0  0  0  0  0  0  0
  1  2  1  0
  2  3  2  0
  2  4  2  0
  2  5  1  0
  5  6  1  0
  6  7  1  0
  7  8  1  0
  8  9  2  0
  8 10  1  0
 10 11  1  0
 11 12  1  0
 12 13  1  0
 13 14  2  0
 14 15  1  0
 15 16  2  0
 16 17  1  0
 16 18  1  0
 18 19  2  0
 11 20  1  0
 20 21  2  0
 20 22  1  0
 22 23  1  0
 23 24  1  0
 24 25  3  0
 25 26  1  0
  7 27  1  0
 27 28  2  0
 28 29  1  0
 29 30  2  0
 30 31  1  0
 31 32  2  0
 19 13  1  0
 32 27  1  0
M  END
