CVD-0002084|dock_bobby27042020.36|mol2|4|dock3
     RDKit          3D

 21 22  0  0  0  0  0  0  0  0999 V2000
    9.5418   -1.9017   24.8266 C   0  0  0  0  0  0  0  0  0  0  0  0
   10.4481   -0.7120   24.6447 C   0  0  0  0  0  0  0  0  0  0  0  0
   11.7691   -1.0244   23.9907 C   0  0  0  0  0  0  0  0  0  0  0  0
   12.8318   -0.9396   24.8029 N   0  0  0  0  0  0  0  0  0  0  0  0
   14.0166   -1.2122   24.2584 C   0  0  0  0  0  0  0  0  0  0  0  0
   14.2633   -1.5607   22.9963 N   0  0  0  0  0  0  0  0  0  0  0  0
   13.2027   -1.6532   22.1615 C   0  0  0  0  0  0  0  0  0  0  0  0
   13.4375   -2.0030   20.8925 N   0  0  0  0  0  0  0  0  0  0  0  0
   11.8952   -1.3815   22.6473 C   0  0  0  0  0  0  0  0  0  0  0  0
   10.7436   -1.4676   21.7999 C   0  0  0  0  0  0  0  0  0  0  0  0
    9.7543   -1.5740   21.1426 C   0  0  0  0  0  0  0  0  0  0  0  0
    8.5148   -1.6657   20.3618 C   0  0  0  0  0  0  0  0  0  0  0  0
    7.8375   -0.4053   20.1139 N   0  0  0  0  0  0  0  0  0  0  0  0
    6.7453   -0.5162   19.1450 C   0  0  0  0  0  0  0  0  0  0  0  0
    6.0914    0.8333   18.9078 C   0  0  0  0  0  0  0  0  0  0  0  0
    5.3415    1.3394   20.1162 C   0  0  0  0  0  0  0  0  0  0  0  0
    3.9590    1.2571   20.1793 C   0  0  0  0  0  0  0  0  0  0  0  0
    3.2707    1.7183   21.2890 C   0  0  0  0  0  0  0  0  0  0  0  0
    3.9574    2.2671   22.3506 C   0  0  0  0  0  0  0  0  0  0  0  0
    5.3319    2.3539   22.3020 C   0  0  0  0  0  0  0  0  0  0  0  0
    6.0192    1.8924   21.1918 C   0  0  0  0  0  0  0  0  0  0  0  0
  1  2  1  0
  2  3  1  0
  3  4  2  0
  4  5  1  0
  5  6  2  0
  6  7  1  0
  7  8  1  0
  7  9  2  0
  9 10  1  0
 10 11  3  0
 11 12  1  0
 12 13  1  0
 13 14  1  0
 14 15  1  0
 15 16  1  0
 16 17  2  0
 17 18  1  0
 18 19  2  0
 19 20  1  0
 20 21  2  0
  9  3  1  0
 21 16  1  0
M  END
