CVD-0000546|dock_bobby27042020.41|mol2|12|dock2
     RDKit          3D

 26 28  0  0  0  0  0  0  0  0999 V2000
    9.8189   -5.9438   27.1536 C   0  0  0  0  0  0  0  0  0  0  0  0
    8.5714   -5.2172   26.7205 C   0  0  0  0  0  0  0  0  0  0  0  0
    7.3820   -5.4842   27.3920 C   0  0  0  0  0  0  0  0  0  0  0  0
    6.2267   -4.8338   27.0213 C   0  0  0  0  0  0  0  0  0  0  0  0
    6.1802   -3.9431   26.0351 N   0  0  0  0  0  0  0  0  0  0  0  0
    7.3166   -3.6775   25.3833 C   0  0  0  0  0  0  0  0  0  0  0  0
    8.5436   -4.2756   25.6734 C   0  0  0  0  0  0  0  0  0  0  0  0
    9.7583   -3.9980   24.9851 N   0  0  0  0  0  0  0  0  0  0  0  0
   10.2103   -2.8158   24.4490 C   0  0  0  0  0  0  0  0  0  0  0  0
    9.6191   -1.7405   24.4700 O   0  0  0  0  0  0  0  0  0  0  0  0
   11.4245   -2.9557   23.8693 N   0  0  0  0  0  0  0  0  0  0  0  0
   12.0886   -1.8417   23.2433 C   0  0  0  0  0  0  0  0  0  0  0  0
   13.5601   -2.1203   22.8629 C   0  0  0  0  0  0  0  0  0  0  0  0
   13.2804   -1.6815   21.4373 C   0  0  0  0  0  0  0  0  0  0  0  0
   11.7842   -1.6097   21.7522 C   0  0  0  0  0  0  0  0  0  0  0  0
   11.9597   -0.6754   24.0339 O   0  0  0  0  0  0  0  0  0  0  0  0
   12.0729    0.6162   23.4786 C   0  0  0  0  0  0  0  0  0  0  0  0
   13.3118    1.2032   23.2738 C   0  0  0  0  0  0  0  0  0  0  0  0
   13.3897    2.4715   22.7262 C   0  0  0  0  0  0  0  0  0  0  0  0
   12.2277    3.1444   22.3863 C   0  0  0  0  0  0  0  0  0  0  0  0
   10.9884    2.5615   22.5922 C   0  0  0  0  0  0  0  0  0  0  0  0
   10.9144    1.2933   23.1397 C   0  0  0  0  0  0  0  0  0  0  0  0
   12.3273    4.7668   21.6924 S   0  0  0  0  0  0  0  0  0  0  0  0
   13.7580    5.3868   22.0554 N   0  0  0  0  0  0  0  0  0  0  0  0
   12.2755    4.6267   20.2682 O   0  0  0  0  0  0  0  0  0  0  0  0
   11.3389    5.5722   22.3447 O   0  0  0  0  0  0  0  0  0  0  0  0
  1  2  1  0
  2  3  2  0
  3  4  1  0
  4  5  2  0
  5  6  1  0
  6  7  2  0
  7  8  1  0
  8  9  1  0
  9 10  2  0
  9 11  1  0
 11 12  1  0
 12 13  1  0
 13 14  1  0
 14 15  1  0
 12 16  1  0
 16 17  1  0
 17 18  2  0
 18 19  1  0
 19 20  2  0
 20 21  1  0
 21 22  2  0
 20 23  1  0
 23 24  1  0
 23 25  2  0
 23 26  2  0
  7  2  1  0
 15 12  1  0
 22 17  1  0
M  END
