CVD-0000940|dock_bobby27042020.25|mol2|34|dock2
     RDKit          3D

 23 25  0  0  0  0  0  0  0  0999 V2000
   15.6138   -2.7541   25.4545 F   0  0  0  0  0  0  0  0  0  0  0  0
   14.6055   -2.2088   24.7219 C   0  0  0  0  0  0  0  0  0  0  0  0
   14.2825   -2.7819   23.5222 C   0  0  0  0  0  0  0  0  0  0  0  0
   13.2555   -2.2216   22.7835 C   0  0  0  0  0  0  0  0  0  0  0  0
   12.5662   -1.1078   23.2419 C   0  0  0  0  0  0  0  0  0  0  0  0
   12.9317   -0.5620   24.4644 C   0  0  0  0  0  0  0  0  0  0  0  0
   13.9563   -1.1101   25.2154 C   0  0  0  0  0  0  0  0  0  0  0  0
   11.4448   -0.4988   22.4246 C   0  0  0  0  0  0  0  0  0  0  0  0
   11.4571    0.9548   22.5264 N   0  0  0  0  0  0  0  0  0  0  0  0
   12.5885    1.6693   22.5088 C   0  0  0  0  0  0  0  0  0  0  0  0
   13.7017    1.1557   22.4077 O   0  0  0  0  0  0  0  0  0  0  0  0
   12.4448    3.1330   22.6182 C   0  0  0  0  0  0  0  0  0  0  0  0
   11.3194    3.9180   22.7483 C   0  0  0  0  0  0  0  0  0  0  0  0
   11.6559    5.2913   22.8187 C   0  0  0  0  0  0  0  0  0  0  0  0
   12.9773    5.5237   22.7446 C   0  0  0  0  0  0  0  0  0  0  0  0
   13.8745    4.0805   22.5852 S   0  0  0  0  0  0  0  0  0  0  0  0
   10.0737   -1.0484   22.8760 C   0  0  0  0  0  0  0  0  0  0  0  0
   10.2014   -2.5369   23.1207 C   0  0  0  0  0  0  0  0  0  0  0  0
    8.8589   -3.1002   23.3662 N   0  0  0  0  0  0  0  0  0  0  0  0
    7.7588   -2.6029   22.7454 C   0  0  0  0  0  0  0  0  0  0  0  0
    6.6327   -3.0525   23.0015 O   0  0  0  0  0  0  0  0  0  0  0  0
    7.9418   -1.4997   21.7478 C   0  0  0  0  0  0  0  0  0  0  0  0
    9.0178   -0.7016   21.8682 C   0  0  0  0  0  0  0  0  0  0  0  0
  1  2  1  0
  2  3  2  0
  3  4  1  0
  4  5  2  0
  5  6  1  0
  6  7  2  0
  5  8  1  0
  8  9  1  0
  9 10  1  0
 10 11  2  0
 10 12  1  0
 12 13  2  0
 13 14  1  0
 14 15  2  0
 15 16  1  0
  8 17  1  0
 17 18  1  0
 18 19  1  0
 19 20  1  0
 20 21  2  0
 20 22  1  0
 22 23  2  0
  7  2  1  0
 16 12  1  0
 23 17  1  0
M  END
