CVD-0002172|dock_bobby27042020.50|mol2|2|dock3
     RDKit          3D

 26 28  0  0  0  0  0  0  0  0999 V2000
    9.0947   -0.5108   22.6484 O   0  0  0  0  0  0  0  0  0  0  0  0
    9.6531   -0.9328   21.6413 C   0  0  0  0  0  0  0  0  0  0  0  0
   10.9705   -1.3283   21.5901 N   0  0  0  0  0  0  0  0  0  0  0  0
   11.9702   -1.3588   22.5956 C   0  0  0  0  0  0  0  0  0  0  0  0
   11.9002   -0.4020   23.6019 C   0  0  0  0  0  0  0  0  0  0  0  0
   12.8431   -0.3732   24.6152 C   0  0  0  0  0  0  0  0  0  0  0  0
   13.8652   -1.2956   24.6384 C   0  0  0  0  0  0  0  0  0  0  0  0
   13.9462   -2.2490   23.6474 C   0  0  0  0  0  0  0  0  0  0  0  0
   13.0085   -2.2877   22.6283 C   0  0  0  0  0  0  0  0  0  0  0  0
    9.0420   -1.0720   20.4159 N   0  0  0  0  0  0  0  0  0  0  0  0
    7.7137   -0.7924   20.0059 C   0  0  0  0  0  0  0  0  0  0  0  0
    7.1449   -1.2398   18.8149 C   0  0  0  0  0  0  0  0  0  0  0  0
    5.8890   -0.9627   18.4514 N   0  0  0  0  0  0  0  0  0  0  0  0
    5.1479   -0.2185   19.2759 C   0  0  0  0  0  0  0  0  0  0  0  0
    5.6027    0.2819   20.4801 C   0  0  0  0  0  0  0  0  0  0  0  0
    4.7144    1.1155   21.3716 C   0  0  0  0  0  0  0  0  0  0  0  0
    4.6318    2.5089   20.9799 N   0  0  0  0  0  0  0  0  0  0  0  0
    5.5831    3.4375   21.2749 C   0  0  0  0  0  0  0  0  0  0  0  0
    5.3504    4.7998   21.0873 C   0  0  0  0  0  0  0  0  0  0  0  0
    6.3590    5.6908   21.4068 C   0  0  0  0  0  0  0  0  0  0  0  0
    7.5680    5.2162   21.9021 C   0  0  0  0  0  0  0  0  0  0  0  0
    7.7043    3.8398   22.0542 C   0  0  0  0  0  0  0  0  0  0  0  0
    6.7394    2.9644   21.7503 N   0  0  0  0  0  0  0  0  0  0  0  0
    8.6410    6.1165   22.2453 C   0  0  0  0  0  0  0  0  0  0  0  0
    9.4798    6.8302   22.5486 N   0  0  0  0  0  0  0  0  0  0  0  0
    6.9094   -0.0204   20.8365 C   0  0  0  0  0  0  0  0  0  0  0  0
  1  2  2  0
  2  3  1  0
  3  4  1  0
  4  5  2  0
  5  6  1  0
  6  7  2  0
  7  8  1  0
  8  9  2  0
  2 10  1  0
 10 11  1  0
 11 12  2  0
 12 13  1  0
 13 14  2  0
 14 15  1  0
 15 16  1  0
 16 17  1  0
 17 18  1  0
 18 19  2  0
 19 20  1  0
 20 21  2  0
 21 22  1  0
 22 23  2  0
 21 24  1  0
 24 25  3  0
 15 26  2  0
  9  4  1  0
 26 11  1  0
 23 18  1  0
M  END
