CVD-0002824|dock_bobby27042020.33|mol2|1|dock3
     RDKit          3D

 28 31  0  0  0  0  0  0  0  0999 V2000
   13.0259    5.6594   22.0308 N   0  0  0  0  0  0  0  0  0  0  0  0
   13.3188    4.7500   23.3154 S   0  0  0  0  0  0  0  0  0  0  0  0
   14.6931    4.9453   23.6680 O   0  0  0  0  0  0  0  0  0  0  0  0
   12.3071    5.0474   24.2843 O   0  0  0  0  0  0  0  0  0  0  0  0
   13.1276    3.0542   22.8563 C   0  0  0  0  0  0  0  0  0  0  0  0
   14.2534    2.2907   22.5891 C   0  0  0  0  0  0  0  0  0  0  0  0
   14.1224    0.9838   22.2294 C   0  0  0  0  0  0  0  0  0  0  0  0
   12.8459    0.3826   22.1201 C   0  0  0  0  0  0  0  0  0  0  0  0
   12.6543   -0.9697   21.7506 C   0  0  0  0  0  0  0  0  0  0  0  0
   11.4021   -1.4975   21.6606 C   0  0  0  0  0  0  0  0  0  0  0  0
   10.2697   -0.7385   21.9256 C   0  0  0  0  0  0  0  0  0  0  0  0
   10.4229    0.5730   22.2845 C   0  0  0  0  0  0  0  0  0  0  0  0
   11.6996    1.1707   22.3932 C   0  0  0  0  0  0  0  0  0  0  0  0
   11.8745    2.5240   22.7639 C   0  0  0  0  0  0  0  0  0  0  0  0
    8.8834   -1.3600   21.8124 C   0  0  0  0  0  0  0  0  0  0  0  0
    8.4943   -1.4463   20.3737 C   0  0  0  0  0  0  0  0  0  0  0  0
    7.1301   -2.0097   20.2227 N   0  0  0  0  0  0  0  0  0  0  0  0
    6.8061   -3.2333   20.9819 C   0  0  0  0  0  0  0  0  0  0  0  0
    7.8259   -3.6265   22.0543 C   0  0  0  0  0  0  0  0  0  0  0  0
    7.7394   -4.8733   22.6653 C   0  0  0  0  0  0  0  0  0  0  0  0
    8.6298   -5.2464   23.6552 C   0  0  0  0  0  0  0  0  0  0  0  0
    9.6190   -4.3707   24.0437 C   0  0  0  0  0  0  0  0  0  0  0  0
    9.7099   -3.1293   23.4396 C   0  0  0  0  0  0  0  0  0  0  0  0
    8.8221   -2.7311   22.4382 C   0  0  0  0  0  0  0  0  0  0  0  0
    6.1896   -1.4899   19.4062 C   0  0  0  0  0  0  0  0  0  0  0  0
    5.0680   -1.9732   19.3154 O   0  0  0  0  0  0  0  0  0  0  0  0
    6.5863   -0.2670   18.6025 C   0  0  0  0  0  0  0  0  0  0  0  0
    5.3147    0.1989   17.4651 Cl  0  0  0  0  0  0  0  0  0  0  0  0
  1  2  1  0
  2  3  2  0
  2  4  2  0
  2  5  1  0
  5  6  2  0
  6  7  1  0
  7  8  2  0
  8  9  1  0
  9 10  2  0
 10 11  1  0
 11 12  2  0
 12 13  1  0
 13 14  2  0
 11 15  1  0
 15 16  1  0
 16 17  1  0
 17 18  1  0
 18 19  1  0
 19 20  2  0
 20 21  1  0
 21 22  2  0
 22 23  1  0
 23 24  2  0
 17 25  1  0
 25 26  2  0
 25 27  1  0
 27 28  1  0
 14  5  1  0
 24 15  1  0
 13  8  1  0
 24 19  1  0
M  END
