CVD-0001699|dock_bobby27042020.23|mol2|9|dock3
     RDKit          3D

 26 27  0  0  0  0  0  0  0  0999 V2000
    7.6849    6.2223   25.1201 C   0  0  0  0  0  0  0  0  0  0  0  0
    7.9557    6.3288   23.6399 C   0  0  0  0  0  0  0  0  0  0  0  0
    8.5018    7.6001   23.4084 O   0  0  0  0  0  0  0  0  0  0  0  0
    8.8532    5.2640   23.1838 N   0  0  0  0  0  0  0  0  0  0  0  0
   10.2168    5.3047   23.7083 C   0  0  0  0  0  0  0  0  0  0  0  0
   11.1468    4.5167   22.8184 C   0  0  0  0  0  0  0  0  0  0  0  0
   10.6747    3.1412   22.6483 N   0  0  0  0  0  0  0  0  0  0  0  0
    9.2656    3.0503   22.2582 C   0  0  0  0  0  0  0  0  0  0  0  0
    8.4089    3.8740   23.1825 C   0  0  0  0  0  0  0  0  0  0  0  0
    6.9464    3.7661   22.7831 C   0  0  0  0  0  0  0  0  0  0  0  0
   11.5077    2.0846   22.8565 C   0  0  0  0  0  0  0  0  0  0  0  0
   12.8212    2.1606   22.5954 C   0  0  0  0  0  0  0  0  0  0  0  0
   13.5287    3.2616   22.0207 C   0  0  0  0  0  0  0  0  0  0  0  0
   14.1302    4.1170   21.5560 N   0  0  0  0  0  0  0  0  0  0  0  0
   13.7156    1.0424   22.8914 C   0  0  0  0  0  0  0  0  0  0  0  0
   14.9160    1.0099   22.2874 F   0  0  0  0  0  0  0  0  0  0  0  0
   13.3164    0.1217   23.7491 C   0  0  0  0  0  0  0  0  0  0  0  0
   14.3014   -1.2181   24.2721 Cl  0  0  0  0  0  0  0  0  0  0  0  0
   11.9597    0.1817   24.3524 C   0  0  0  0  0  0  0  0  0  0  0  0
   10.9308    0.7672   23.3811 C   0  0  0  0  0  0  0  0  0  0  0  0
   10.6656   -0.2094   22.2408 C   0  0  0  0  0  0  0  0  0  0  0  0
   11.9026   -0.6213   21.7179 O   0  0  0  0  0  0  0  0  0  0  0  0
    9.7895   -1.6641   22.7064 S   0  0  0  0  0  0  0  0  0  0  0  0
    9.2480   -2.3229   21.3408 N   0  0  0  0  0  0  0  0  0  0  0  0
    8.6580   -1.2368   23.4749 O   0  0  0  0  0  0  0  0  0  0  0  0
   10.7669   -2.5462   23.2720 O   0  0  0  0  0  0  0  0  0  0  0  0
  1  2  1  0
  2  3  1  0
  2  4  1  0
  4  5  1  0
  5  6  1  0
  6  7  1  0
  7  8  1  0
  8  9  1  0
  9 10  1  0
  7 11  1  0
 11 12  2  0
 12 13  1  0
 13 14  3  0
 12 15  1  0
 15 16  1  0
 15 17  2  0
 17 18  1  0
 17 19  1  0
 19 20  1  0
 20 21  1  0
 21 22  1  0
 21 23  1  0
 23 24  1  0
 23 25  2  0
 23 26  2  0
  9  4  1  0
 20 11  1  0
M  END
