CVD-0002975|dock_bobby27042020.18|mol2|8|dock2
     RDKit          3D

 24 26  0  0  0  0  0  0  0  0999 V2000
   13.8548   -2.5147   20.9556 C   0  0  0  0  0  0  0  0  0  0  0  0
   13.5652   -1.7513   22.2251 C   0  0  0  0  0  0  0  0  0  0  0  0
   14.2854   -1.9981   23.3821 C   0  0  0  0  0  0  0  0  0  0  0  0
   14.0182   -1.2920   24.5417 C   0  0  0  0  0  0  0  0  0  0  0  0
   13.0250   -0.3277   24.5596 C   0  0  0  0  0  0  0  0  0  0  0  0
   12.2859   -0.0609   23.4133 C   0  0  0  0  0  0  0  0  0  0  0  0
   12.5745   -0.7815   22.2583 C   0  0  0  0  0  0  0  0  0  0  0  0
   11.2522    0.9347   23.3819 N   0  0  0  0  0  0  0  0  0  0  0  0
    9.9006    0.4641   23.7824 C   0  0  0  0  0  0  0  0  0  0  0  0
    9.0580    0.1242   22.5592 C   0  0  0  0  0  0  0  0  0  0  0  0
    7.6963   -0.3911   22.9771 C   0  0  0  0  0  0  0  0  0  0  0  0
    7.8485   -1.5587   23.8412 N   0  0  0  0  0  0  0  0  0  0  0  0
    8.6046   -1.2674   25.0544 C   0  0  0  0  0  0  0  0  0  0  0  0
    9.9958   -0.7584   24.6923 C   0  0  0  0  0  0  0  0  0  0  0  0
    7.1575   -2.7126   23.7342 C   0  0  0  0  0  0  0  0  0  0  0  0
    7.3520   -3.6590   24.4866 O   0  0  0  0  0  0  0  0  0  0  0  0
    6.1159   -2.7820   22.6342 C   0  0  0  0  0  0  0  0  0  0  0  0
    5.1895   -4.2847   22.7381 Cl  0  0  0  0  0  0  0  0  0  0  0  0
   11.5195    2.2226   23.0079 C   0  0  0  0  0  0  0  0  0  0  0  0
   10.6542    3.2750   22.8913 C   0  0  0  0  0  0  0  0  0  0  0  0
   11.2539    4.4637   22.4857 C   0  0  0  0  0  0  0  0  0  0  0  0
   12.5884    4.3249   22.2802 C   0  0  0  0  0  0  0  0  0  0  0  0
   13.4866    5.2659   21.8832 N   0  0  0  0  0  0  0  0  0  0  0  0
   13.1321    2.7115   22.5855 S   0  0  0  0  0  0  0  0  0  0  0  0
  1  2  1  0
  2  3  2  0
  3  4  1  0
  4  5  2  0
  5  6  1  0
  6  7  2  0
  6  8  1  0
  8  9  1  0
  9 10  1  0
 10 11  1  0
 11 12  1  0
 12 13  1  0
 13 14  1  0
 12 15  1  0
 15 16  2  0
 15 17  1  0
 17 18  1  0
  8 19  1  0
 19 20  2  0
 20 21  1  0
 21 22  2  0
 22 23  1  0
 22 24  1  0
  7  2  1  0
 14  9  1  0
 24 19  1  0
M  END
