CVD-0001970|dock_bobby27042020.93|mol2|24|dock2
     RDKit          3D

 10 10  0  0  0  0  0  0  0  0999 V2000
   14.2172   -1.7399   25.4868 C   0  0  0  0  0  0  0  0  0  0  0  0
   13.3863   -1.4348   24.2685 C   0  0  0  0  0  0  0  0  0  0  0  0
   13.7682   -1.9282   23.0243 C   0  0  0  0  0  0  0  0  0  0  0  0
   13.0120   -1.6594   21.8928 C   0  0  0  0  0  0  0  0  0  0  0  0
   13.4035   -2.1520   20.6823 O   0  0  0  0  0  0  0  0  0  0  0  0
   11.8597   -0.8925   21.9854 C   0  0  0  0  0  0  0  0  0  0  0  0
   11.4432   -0.3802   23.2108 C   0  0  0  0  0  0  0  0  0  0  0  0
   10.1876    0.4471   23.2935 C   0  0  0  0  0  0  0  0  0  0  0  0
   12.2240   -0.6694   24.3276 C   0  0  0  0  0  0  0  0  0  0  0  0
   11.7274   -0.0496   25.8580 Cl  0  0  0  0  0  0  0  0  0  0  0  0
  1  2  1  0
  2  3  2  0
  3  4  1  0
  4  5  1  0
  4  6  2  0
  6  7  1  0
  7  8  1  0
  7  9  2  0
  9 10  1  0
  9  2  1  0
M  END
