CVD-0002190|dock_bobby27042020.49|mol2|36|dock2
     RDKit          3D

 21 23  0  0  0  0  0  0  0  0999 V2000
   13.7271   -1.7764   21.6529 C   0  0  0  0  0  0  0  0  0  0  0  0
   12.3015   -1.9668   21.4960 N   0  0  0  0  0  0  0  0  0  0  0  0
   11.4994   -2.2995   22.5167 C   0  0  0  0  0  0  0  0  0  0  0  0
   11.9378   -3.2725   23.3402 N   0  0  0  0  0  0  0  0  0  0  0  0
   11.1568   -3.6271   24.3667 C   0  0  0  0  0  0  0  0  0  0  0  0
    9.9216   -3.0471   24.6281 C   0  0  0  0  0  0  0  0  0  0  0  0
    9.4798   -2.0440   23.7733 C   0  0  0  0  0  0  0  0  0  0  0  0
   10.2622   -1.6457   22.6957 C   0  0  0  0  0  0  0  0  0  0  0  0
    9.7559   -0.5495   21.7751 C   0  0  0  0  0  0  0  0  0  0  0  0
    8.6705   -0.9950   20.8165 C   0  0  0  0  0  0  0  0  0  0  0  0
    8.3852   -2.3427   20.6405 C   0  0  0  0  0  0  0  0  0  0  0  0
    7.3958   -2.7568   19.7630 C   0  0  0  0  0  0  0  0  0  0  0  0
    6.6715   -1.8130   19.0426 C   0  0  0  0  0  0  0  0  0  0  0  0
    5.5650   -1.9879   18.0437 C   0  0  0  0  0  0  0  0  0  0  0  0
    5.2674   -0.6140   17.7017 N   0  0  0  0  0  0  0  0  0  0  0  0
    6.0321    0.2965   18.3318 C   0  0  0  0  0  0  0  0  0  0  0  0
    5.9425    1.5121   18.1923 O   0  0  0  0  0  0  0  0  0  0  0  0
    6.9459   -0.4675   19.2087 C   0  0  0  0  0  0  0  0  0  0  0  0
    7.9420   -0.0563   20.0925 C   0  0  0  0  0  0  0  0  0  0  0  0
    9.1190   -3.4685   25.7497 C   0  0  0  0  0  0  0  0  0  0  0  0
    8.4616   -3.8162   26.6168 N   0  0  0  0  0  0  0  0  0  0  0  0
  1  2  1  0
  2  3  1  0
  3  4  2  0
  4  5  1  0
  5  6  2  0
  6  7  1  0
  7  8  2  0
  8  9  1  0
  9 10  1  0
 10 11  2  0
 11 12  1  0
 12 13  2  0
 13 14  1  0
 14 15  1  0
 15 16  1  0
 16 17  2  0
 16 18  1  0
 18 19  2  0
  6 20  1  0
 20 21  3  0
  8  3  1  0
 19 10  1  0
 18 13  1  0
M  END
