CVD-0002116|dock_bobby27042020.78|mol2|33|dock3
     RDKit          3D

 27 30  0  0  0  0  0  0  0  0999 V2000
    7.6327   -4.7073   21.7872 C   0  0  0  0  0  0  0  0  0  0  0  0
    8.2960   -3.3384   21.7704 C   0  0  0  0  0  0  0  0  0  0  0  0
    8.8563   -3.0020   23.1916 C   0  0  0  0  0  0  0  0  0  0  0  0
    7.7269   -2.7032   24.1933 C   0  0  0  0  0  0  0  0  0  0  0  0
    6.7627   -1.6761   23.6026 C   0  0  0  0  0  0  0  0  0  0  0  0
    6.2649   -2.1278   22.2383 C   0  0  0  0  0  0  0  0  0  0  0  0
    7.3853   -2.2991   21.3159 N   0  0  0  0  0  0  0  0  0  0  0  0
    7.9352   -0.9933   20.9201 C   0  0  0  0  0  0  0  0  0  0  0  0
    6.9291   -0.0936   20.2428 C   0  0  0  0  0  0  0  0  0  0  0  0
    6.3032    0.9242   20.9458 C   0  0  0  0  0  0  0  0  0  0  0  0
    5.3826    1.7512   20.3241 C   0  0  0  0  0  0  0  0  0  0  0  0
    5.0781    1.5700   18.9920 C   0  0  0  0  0  0  0  0  0  0  0  0
    5.6944    0.5623   18.2816 C   0  0  0  0  0  0  0  0  0  0  0  0
    6.6149   -0.2645   18.9035 C   0  0  0  0  0  0  0  0  0  0  0  0
    9.7666   -1.8911   23.1316 O   0  0  0  0  0  0  0  0  0  0  0  0
   10.6625   -1.6772   24.2222 C   0  0  0  0  0  0  0  0  0  0  0  0
   11.8926   -0.8544   23.8171 C   0  0  0  0  0  0  0  0  0  0  0  0
   12.9152   -0.7758   24.9865 C   0  0  0  0  0  0  0  0  0  0  0  0
   14.0611   -1.6615   24.6189 C   0  0  0  0  0  0  0  0  0  0  0  0
   13.8648   -2.1196   23.2504 C   0  0  0  0  0  0  0  0  0  0  0  0
   12.6305   -1.5698   22.6631 C   0  0  0  0  0  0  0  0  0  0  0  0
   11.3601    0.4828   23.3789 C   0  0  0  0  0  0  0  0  0  0  0  0
   12.2000    1.4839   22.9173 C   0  0  0  0  0  0  0  0  0  0  0  0
   11.6400    2.6905   22.5341 C   0  0  0  0  0  0  0  0  0  0  0  0
   10.2761    2.8660   22.6206 C   0  0  0  0  0  0  0  0  0  0  0  0
    9.5182    1.8184   23.0917 C   0  0  0  0  0  0  0  0  0  0  0  0
   10.0347    0.6413   23.4690 N   0  0  0  0  0  0  0  0  0  0  0  0
  1  2  1  0
  2  3  1  0
  3  4  1  0
  4  5  1  0
  5  6  1  0
  6  7  1  0
  7  8  1  0
  8  9  1  0
  9 10  2  0
 10 11  1  0
 11 12  2  0
 12 13  1  0
 13 14  2  0
  3 15  1  0
 15 16  1  0
 16 17  1  0
 17 18  1  0
 18 19  1  0
 19 20  1  0
 20 21  1  0
 17 22  1  0
 22 23  2  0
 23 24  1  0
 24 25  2  0
 25 26  1  0
 26 27  2  0
  7  2  1  0
 14  9  1  0
 21 17  1  0
 27 22  1  0
M  END
