CVD-0003335|dock_bobby27042020.16|mol2|48|dock3
     RDKit          3D

 25 27  0  0  0  0  0  0  0  0999 V2000
   12.6637    4.1200   21.0699 C   0  0  0  0  0  0  0  0  0  0  0  0
   13.0532    3.7180   22.2688 C   0  0  0  0  0  0  0  0  0  0  0  0
   13.5958    4.6977   23.2763 C   0  0  0  0  0  0  0  0  0  0  0  0
   12.5366    5.4041   24.0482 C   0  0  0  0  0  0  0  0  0  0  0  0
   11.2469    5.6850   23.8201 C   0  0  0  0  0  0  0  0  0  0  0  0
   10.8291    6.3745   24.9536 C   0  0  0  0  0  0  0  0  0  0  0  0
   11.7638    6.5216   25.8266 N   0  0  0  0  0  0  0  0  0  0  0  0
   12.8936    5.8930   25.2547 O   0  0  0  0  0  0  0  0  0  0  0  0
   13.0164    2.2753   22.7090 C   0  0  0  0  0  0  0  0  0  0  0  0
   14.0908    1.7118   22.8833 O   0  0  0  0  0  0  0  0  0  0  0  0
   11.8912    1.5616   22.9237 N   0  0  0  0  0  0  0  0  0  0  0  0
   10.5521    2.0902   22.6552 C   0  0  0  0  0  0  0  0  0  0  0  0
    9.7860    1.1530   21.7402 C   0  0  0  0  0  0  0  0  0  0  0  0
    9.6928   -0.1802   22.3424 N   0  0  0  0  0  0  0  0  0  0  0  0
    8.9172   -1.0817   21.4782 C   0  0  0  0  0  0  0  0  0  0  0  0
    7.5761   -0.5180   21.0737 C   0  0  0  0  0  0  0  0  0  0  0  0
    6.5314   -0.4554   21.9830 C   0  0  0  0  0  0  0  0  0  0  0  0
    5.2993    0.0582   21.6135 C   0  0  0  0  0  0  0  0  0  0  0  0
    5.0962    0.5169   20.3230 C   0  0  0  0  0  0  0  0  0  0  0  0
    6.1348    0.4589   19.4001 C   0  0  0  0  0  0  0  0  0  0  0  0
    7.3714   -0.0589   19.7785 C   0  0  0  0  0  0  0  0  0  0  0  0
    5.9375    0.9325   18.0524 C   0  0  0  0  0  0  0  0  0  0  0  0
    5.8096    1.3250   16.9873 N   0  0  0  0  0  0  0  0  0  0  0  0
   11.0401   -0.7046   22.5502 C   0  0  0  0  0  0  0  0  0  0  0  0
   11.8341    0.2030   23.4721 C   0  0  0  0  0  0  0  0  0  0  0  0
  1  2  2  0
  2  3  1  0
  3  4  1  0
  4  5  2  0
  5  6  1  0
  6  7  2  0
  7  8  1  0
  2  9  1  0
  9 10  2  0
  9 11  1  0
 11 12  1  0
 12 13  1  0
 13 14  1  0
 14 15  1  0
 15 16  1  0
 16 17  2  0
 17 18  1  0
 18 19  2  0
 19 20  1  0
 20 21  2  0
 20 22  1  0
 22 23  3  0
 14 24  1  0
 24 25  1  0
  8  4  1  0
 25 11  1  0
 21 16  1  0
M  END
