CVD-0004054|dock_bobby27042020.43|mol2|17|dock1
     RDKit          3D

 26 30  0  0  0  0  0  0  0  0999 V2000
    5.9051   -1.5353   18.7205 C   0  0  0  0  0  0  0  0  0  0  0  0
    6.9051   -0.7630   19.5216 C   0  0  0  0  0  0  0  0  0  0  0  0
    6.7909    0.6444   19.6408 C   0  0  0  0  0  0  0  0  0  0  0  0
    7.7106    1.3145   20.3681 C   0  0  0  0  0  0  0  0  0  0  0  0
    8.7542    0.5894   20.9816 C   0  0  0  0  0  0  0  0  0  0  0  0
    9.8612    0.8698   21.7931 C   0  0  0  0  0  0  0  0  0  0  0  0
   10.4732   -0.4073   22.0059 C   0  0  0  0  0  0  0  0  0  0  0  0
    9.7656   -1.3779   21.4251 N   0  0  0  0  0  0  0  0  0  0  0  0
    8.7580   -0.7521   20.8044 N   0  0  0  0  0  0  0  0  0  0  0  0
    7.8580   -1.4573   20.0844 N   0  0  0  0  0  0  0  0  0  0  0  0
   11.7038   -0.8348   22.7067 C   0  0  0  0  0  0  0  0  0  0  0  0
   12.1974   -0.1806   23.8315 C   0  0  0  0  0  0  0  0  0  0  0  0
   13.3333   -0.6317   24.4803 C   0  0  0  0  0  0  0  0  0  0  0  0
   13.9837   -1.7226   23.9727 C   0  0  0  0  0  0  0  0  0  0  0  0
   15.1003   -2.1706   24.6076 F   0  0  0  0  0  0  0  0  0  0  0  0
   13.5578   -2.3801   22.8519 C   0  0  0  0  0  0  0  0  0  0  0  0
   12.4132   -1.9278   22.2200 C   0  0  0  0  0  0  0  0  0  0  0  0
   10.2194    2.2385   22.2838 C   0  0  0  0  0  0  0  0  0  0  0  0
    9.2433    3.1561   22.6647 C   0  0  0  0  0  0  0  0  0  0  0  0
    9.5746    4.4252   23.1087 C   0  0  0  0  0  0  0  0  0  0  0  0
   10.9128    4.7989   23.1671 C   0  0  0  0  0  0  0  0  0  0  0  0
   11.5404    5.9451   23.5428 N   0  0  0  0  0  0  0  0  0  0  0  0
   12.8959    5.8388   23.4255 N   0  0  0  0  0  0  0  0  0  0  0  0
   13.1300    4.6214   22.9756 C   0  0  0  0  0  0  0  0  0  0  0  0
   11.9229    3.9015   22.7882 C   0  0  0  0  0  0  0  0  0  0  0  0
   11.5556    2.6209   22.3536 C   0  0  0  0  0  0  0  0  0  0  0  0
  1  2  1  0
  2  3  1  0
  3  4  2  0
  4  5  1  0
  5  6  2  0
  6  7  1  0
  7  8  2  0
  8  9  1  0
  9 10  1  0
  7 11  1  0
 11 12  2  0
 12 13  1  0
 13 14  2  0
 14 15  1  0
 14 16  1  0
 16 17  2  0
  6 18  1  0
 18 19  2  0
 19 20  1  0
 20 21  2  0
 21 22  1  0
 22 23  1  0
 23 24  2  0
 24 25  1  0
 25 26  2  0
 10  2  2  0
 17 11  1  0
 26 18  1  0
  9  5  1  0
 25 21  1  0
M  END
