CVD-0001203|dock_bobby27042020.39|mol2|4|dock3
     RDKit          3D

 28 31  0  0  0  0  0  0  0  0999 V2000
   12.5989   -1.3432   22.2300 C   0  0  0  0  0  0  0  0  0  0  0  0
   11.5642   -0.4219   22.7009 N   0  0  0  0  0  0  0  0  0  0  0  0
   11.7398    0.9879   22.4716 C   0  0  0  0  0  0  0  0  0  0  0  0
   13.0418    1.4906   22.4462 C   0  0  0  0  0  0  0  0  0  0  0  0
   13.2139    2.8556   22.3021 C   0  0  0  0  0  0  0  0  0  0  0  0
   14.3805    3.5763   22.1979 O   0  0  0  0  0  0  0  0  0  0  0  0
   13.9954    4.9463   22.2548 C   0  0  0  0  0  0  0  0  0  0  0  0
   12.5830    5.0017   22.0349 O   0  0  0  0  0  0  0  0  0  0  0  0
   12.1341    3.7098   22.1854 C   0  0  0  0  0  0  0  0  0  0  0  0
   10.8409    3.2275   22.2087 C   0  0  0  0  0  0  0  0  0  0  0  0
   10.6538    1.8634   22.3524 C   0  0  0  0  0  0  0  0  0  0  0  0
    9.0174    1.2911   22.2722 Cl  0  0  0  0  0  0  0  0  0  0  0  0
   10.4938   -0.9230   23.5241 C   0  0  0  0  0  0  0  0  0  0  0  0
   10.3797   -0.4536   24.8319 C   0  0  0  0  0  0  0  0  0  0  0  0
    9.3864   -0.9571   25.6357 C   0  0  0  0  0  0  0  0  0  0  0  0
    9.2966   -0.4850   26.9083 F   0  0  0  0  0  0  0  0  0  0  0  0
    8.4798   -1.9064   25.2375 C   0  0  0  0  0  0  0  0  0  0  0  0
    8.5622   -2.3767   23.9294 C   0  0  0  0  0  0  0  0  0  0  0  0
    7.7974   -3.3360   23.1861 C   0  0  0  0  0  0  0  0  0  0  0  0
    6.6392   -4.1402   23.6993 C   0  0  0  0  0  0  0  0  0  0  0  0
    7.0689   -5.3610   24.4882 C   0  0  0  0  0  0  0  0  0  0  0  0
    7.3039   -5.0465   25.8902 N   0  0  0  0  0  0  0  0  0  0  0  0
    8.2542   -5.6439   26.6119 C   0  0  0  0  0  0  0  0  0  0  0  0
    8.3562   -5.2216   28.0482 C   0  0  0  0  0  0  0  0  0  0  0  0
    8.9914   -6.4999   26.1329 O   0  0  0  0  0  0  0  0  0  0  0  0
    8.3320   -3.3610   21.9346 C   0  0  0  0  0  0  0  0  0  0  0  0
    9.3818   -2.4891   21.8481 N   0  0  0  0  0  0  0  0  0  0  0  0
    9.5623   -1.8754   23.0687 C   0  0  0  0  0  0  0  0  0  0  0  0
  1  2  1  0
  2  3  1  0
  3  4  2  0
  4  5  1  0
  5  6  1  0
  6  7  1  0
  7  8  1  0
  8  9  1  0
  9 10  1  0
 10 11  2  0
 11 12  1  0
  2 13  1  0
 13 14  2  0
 14 15  1  0
 15 16  1  0
 15 17  2  0
 17 18  1  0
 18 19  1  0
 19 20  1  0
 20 21  1  0
 21 22  1  0
 22 23  1  0
 23 24  1  0
 23 25  2  0
 19 26  2  0
 26 27  1  0
 27 28  1  0
 11  3  1  0
 28 13  1  0
  9  5  2  0
 28 18  2  0
M  END
