CVD-0001505|dock_bobby27042020.52|mol2|25|dock3
     RDKit          3D

 19 20  0  0  0  0  0  0  0  0999 V2000
    6.2191   -1.0103   18.5495 C   0  0  0  0  0  0  0  0  0  0  0  0
    6.6296   -0.1640   19.7137 C   0  0  0  0  0  0  0  0  0  0  0  0
    7.8663   -0.6433   20.3081 N   0  0  0  0  0  0  0  0  0  0  0  0
    7.9169   -1.7004   21.1355 C   0  0  0  0  0  0  0  0  0  0  0  0
    6.7861   -2.4235   21.2613 N   0  0  0  0  0  0  0  0  0  0  0  0
    6.8067   -3.4822   22.0781 C   0  0  0  0  0  0  0  0  0  0  0  0
    7.9283   -3.8729   22.7988 C   0  0  0  0  0  0  0  0  0  0  0  0
    9.0877   -3.1186   22.6591 C   0  0  0  0  0  0  0  0  0  0  0  0
    9.1099   -2.0094   21.8213 C   0  0  0  0  0  0  0  0  0  0  0  0
   10.3911   -1.2178   21.6929 C   0  0  0  0  0  0  0  0  0  0  0  0
   11.4256   -1.6251   22.6553 N   0  0  0  0  0  0  0  0  0  0  0  0
   11.2206   -0.9675   23.9514 C   0  0  0  0  0  0  0  0  0  0  0  0
   12.2441   -1.4138   24.9771 C   0  0  0  0  0  0  0  0  0  0  0  0
   13.6782   -1.1869   24.5145 C   0  0  0  0  0  0  0  0  0  0  0  0
   14.6638   -1.7144   25.4064 O   0  0  0  0  0  0  0  0  0  0  0  0
   13.8361   -1.7907   23.1234 C   0  0  0  0  0  0  0  0  0  0  0  0
   12.7668   -1.3069   22.1581 C   0  0  0  0  0  0  0  0  0  0  0  0
    7.8967   -5.0244   23.6665 C   0  0  0  0  0  0  0  0  0  0  0  0
    7.8822   -5.9172   24.3789 N   0  0  0  0  0  0  0  0  0  0  0  0
  1  2  1  0
  2  3  1  0
  3  4  1  0
  4  5  2  0
  5  6  1  0
  6  7  2  0
  7  8  1  0
  8  9  2  0
  9 10  1  0
 10 11  1  0
 11 12  1  0
 12 13  1  0
 13 14  1  0
 14 15  1  0
 14 16  1  0
 16 17  1  0
  7 18  1  0
 18 19  3  0
  9  4  1  0
 17 11  1  0
M  END
