CVD-0003627|dock_bobby27042020.1|mol2|26|dock1
     RDKit          3D

 20 21  0  0  0  0  0  0  0  0999 V2000
   11.9863    0.0228   24.5146 C   0  0  0  0  0  0  0  0  0  0  0  0
   12.6517   -0.9778   23.5955 C   0  0  0  0  0  0  0  0  0  0  0  0
   13.7940   -1.6645   24.0372 C   0  0  0  0  0  0  0  0  0  0  0  0
   14.3685   -1.4211   25.2653 N   0  0  0  0  0  0  0  0  0  0  0  0
   14.3588   -2.6213   23.2023 C   0  0  0  0  0  0  0  0  0  0  0  0
   13.8858   -2.9176   21.9939 N   0  0  0  0  0  0  0  0  0  0  0  0
   12.8278   -2.2318   21.5556 C   0  0  0  0  0  0  0  0  0  0  0  0
   12.1633   -1.2606   22.3047 C   0  0  0  0  0  0  0  0  0  0  0  0
   11.0279   -0.5414   21.8343 N   0  0  0  0  0  0  0  0  0  0  0  0
    9.9782   -0.9807   21.0577 C   0  0  0  0  0  0  0  0  0  0  0  0
    9.8580   -2.1253   20.6336 O   0  0  0  0  0  0  0  0  0  0  0  0
    9.0736    0.0304   20.8215 N   0  0  0  0  0  0  0  0  0  0  0  0
    7.8584    0.0389   20.0899 C   0  0  0  0  0  0  0  0  0  0  0  0
    7.4797   -0.9700   19.2055 C   0  0  0  0  0  0  0  0  0  0  0  0
    6.2744   -0.8889   18.5270 C   0  0  0  0  0  0  0  0  0  0  0  0
    5.4306    0.1911   18.7160 C   0  0  0  0  0  0  0  0  0  0  0  0
    5.7970    1.2029   19.5947 C   0  0  0  0  0  0  0  0  0  0  0  0
    7.0078    1.1238   20.2778 C   0  0  0  0  0  0  0  0  0  0  0  0
    4.9286    2.3354   19.8027 C   0  0  0  0  0  0  0  0  0  0  0  0
    4.2183    3.2180   19.9478 N   0  0  0  0  0  0  0  0  0  0  0  0
  1  2  1  0
  2  3  2  0
  3  4  1  0
  3  5  1  0
  5  6  2  0
  6  7  1  0
  7  8  2  0
  8  9  1  0
  9 10  1  0
 10 11  2  0
 10 12  1  0
 12 13  1  0
 13 14  2  0
 14 15  1  0
 15 16  2  0
 16 17  1  0
 17 18  2  0
 17 19  1  0
 19 20  3  0
  8  2  1  0
 18 13  1  0
M  END
