CVD-0000876|dock_bobby27042020.40|mol2|12|dock3
     RDKit          3D

 28 31  0  0  0  0  0  0  0  0999 V2000
    3.9230    1.7648   18.4507 F   0  0  0  0  0  0  0  0  0  0  0  0
    4.7105    0.9041   19.1505 C   0  0  0  0  0  0  0  0  0  0  0  0
    4.6343    0.9083   20.5166 C   0  0  0  0  0  0  0  0  0  0  0  0
    5.4385    0.0297   21.2205 C   0  0  0  0  0  0  0  0  0  0  0  0
    6.3022   -0.8371   20.5655 C   0  0  0  0  0  0  0  0  0  0  0  0
    6.3436   -0.8024   19.1787 C   0  0  0  0  0  0  0  0  0  0  0  0
    5.5462    0.0700   18.4593 C   0  0  0  0  0  0  0  0  0  0  0  0
    7.1851   -1.7985   21.3486 C   0  0  0  0  0  0  0  0  0  0  0  0
    8.5310   -1.1935   21.5733 C   0  0  0  0  0  0  0  0  0  0  0  0
    9.5398   -2.2860   21.9678 C   0  0  0  0  0  0  0  0  0  0  0  0
   10.8655   -1.7401   22.4407 C   0  0  0  0  0  0  0  0  0  0  0  0
   11.9241   -1.5683   21.5643 C   0  0  0  0  0  0  0  0  0  0  0  0
   13.1268   -1.0624   22.0255 C   0  0  0  0  0  0  0  0  0  0  0  0
   13.2333   -0.7411   23.3595 C   0  0  0  0  0  0  0  0  0  0  0  0
   12.2326   -0.8936   24.2279 N   0  0  0  0  0  0  0  0  0  0  0  0
   11.0811   -1.3836   23.7587 C   0  0  0  0  0  0  0  0  0  0  0  0
    8.4462    0.0047   22.4445 N   0  0  0  0  0  0  0  0  0  0  0  0
    7.6775   -0.1137   23.7005 C   0  0  0  0  0  0  0  0  0  0  0  0
    6.8018   -1.3645   23.8063 C   0  0  0  0  0  0  0  0  0  0  0  0
    6.2249   -1.7001   25.0272 C   0  0  0  0  0  0  0  0  0  0  0  0
    5.4052   -2.8070   25.1489 C   0  0  0  0  0  0  0  0  0  0  0  0
    5.1558   -3.5900   24.0449 C   0  0  0  0  0  0  0  0  0  0  0  0
    5.7270   -3.2612   22.8275 C   0  0  0  0  0  0  0  0  0  0  0  0
    6.5579   -2.1503   22.6757 C   0  0  0  0  0  0  0  0  0  0  0  0
    9.1463    1.1090   22.0636 C   0  0  0  0  0  0  0  0  0  0  0  0
    9.8411    1.1546   21.0568 O   0  0  0  0  0  0  0  0  0  0  0  0
    9.0736    2.3462   22.9386 C   0  0  0  0  0  0  0  0  0  0  0  0
   10.3304    3.5172   22.5190 Cl  0  0  0  0  0  0  0  0  0  0  0  0
  1  2  1  0
  2  3  2  0
  3  4  1  0
  4  5  2  0
  5  6  1  0
  6  7  2  0
  5  8  1  0
  8  9  1  0
  9 10  1  0
 10 11  1  0
 11 12  2  0
 12 13  1  0
 13 14  2  0
 14 15  1  0
 15 16  2  0
  9 17  1  0
 17 18  1  0
 18 19  1  0
 19 20  2  0
 20 21  1  0
 21 22  2  0
 22 23  1  0
 23 24  2  0
 17 25  1  0
 25 26  2  0
 25 27  1  0
 27 28  1  0
  7  2  1  0
 24  8  1  0
 16 11  1  0
 24 19  1  0
M  END
