CVD-0002452|dock_bobby27042020.48|mol2|29|dock3
     RDKit          3D

 23 24  0  0  0  0  0  0  0  0999 V2000
    6.1544   -0.9453   18.3766 C   0  0  0  0  0  0  0  0  0  0  0  0
    7.5044   -0.4158   18.8360 C   0  0  0  0  0  0  0  0  0  0  0  0
    7.6903   -0.4899   20.3313 C   0  0  0  0  0  0  0  0  0  0  0  0
    6.8168   -0.1176   21.1087 O   0  0  0  0  0  0  0  0  0  0  0  0
    8.8625   -0.9851   20.7369 N   0  0  0  0  0  0  0  0  0  0  0  0
    9.1879   -1.1147   22.1526 C   0  0  0  0  0  0  0  0  0  0  0  0
    8.9135   -2.5400   22.5929 C   0  0  0  0  0  0  0  0  0  0  0  0
    7.4732   -2.9712   22.4721 C   0  0  0  0  0  0  0  0  0  0  0  0
    7.3605   -4.3143   22.9639 O   0  0  0  0  0  0  0  0  0  0  0  0
    7.6526   -4.6033   24.2743 C   0  0  0  0  0  0  0  0  0  0  0  0
    8.1422   -5.8617   24.5782 C   0  0  0  0  0  0  0  0  0  0  0  0
    8.4471   -6.1860   25.8879 C   0  0  0  0  0  0  0  0  0  0  0  0
    8.2743   -5.2734   26.9154 C   0  0  0  0  0  0  0  0  0  0  0  0
    8.6060   -5.6359   28.3424 C   0  0  0  0  0  0  0  0  0  0  0  0
    7.7820   -4.0192   26.5928 C   0  0  0  0  0  0  0  0  0  0  0  0
    7.4708   -3.6750   25.2890 C   0  0  0  0  0  0  0  0  0  0  0  0
   10.5685   -0.7326   22.4439 N   0  0  0  0  0  0  0  0  0  0  0  0
   10.7431   -0.2185   23.8047 C   0  0  0  0  0  0  0  0  0  0  0  0
   12.1263    0.3623   23.9958 C   0  0  0  0  0  0  0  0  0  0  0  0
   13.2074   -0.6516   23.6871 C   0  0  0  0  0  0  0  0  0  0  0  0
   14.5293   -0.1182   23.8027 O   0  0  0  0  0  0  0  0  0  0  0  0
   12.9588   -1.2101   22.2914 C   0  0  0  0  0  0  0  0  0  0  0  0
   11.5544   -1.7675   22.1589 C   0  0  0  0  0  0  0  0  0  0  0  0
  1  2  1  0
  2  3  1  0
  3  4  2  0
  3  5  1  0
  5  6  1  0
  6  7  1  0
  7  8  1  0
  8  9  1  0
  9 10  1  0
 10 11  2  0
 11 12  1  0
 12 13  2  0
 13 14  1  0
 13 15  1  0
 15 16  2  0
  6 17  1  0
 17 18  1  0
 18 19  1  0
 19 20  1  0
 20 21  1  0
 20 22  1  0
 22 23  1  0
 16 10  1  0
 23 17  1  0
M  END
