CVD-0003712|dock_bobby27042020.44|mol2|28|dock2
     RDKit          3D

 22 23  0  0  0  0  0  0  0  0999 V2000
   10.1382    1.8311   22.6114 C   0  0  0  0  0  0  0  0  0  0  0  0
   11.5960    1.8195   22.7779 N   0  0  0  0  0  0  0  0  0  0  0  0
   12.3517    0.6876   22.7809 C   0  0  0  0  0  0  0  0  0  0  0  0
   13.5384    0.7311   22.5187 O   0  0  0  0  0  0  0  0  0  0  0  0
   11.7066   -0.6574   23.1205 C   0  0  0  0  0  0  0  0  0  0  0  0
   11.2258   -1.3529   21.8372 C   0  0  0  0  0  0  0  0  0  0  0  0
    9.8976   -2.0510   22.0007 C   0  0  0  0  0  0  0  0  0  0  0  0
    9.7572   -3.1134   22.8799 C   0  0  0  0  0  0  0  0  0  0  0  0
    8.5419   -3.7558   23.0373 C   0  0  0  0  0  0  0  0  0  0  0  0
    7.4405   -3.3368   22.3085 C   0  0  0  0  0  0  0  0  0  0  0  0
    6.2392   -3.9660   22.4584 O   0  0  0  0  0  0  0  0  0  0  0  0
    7.5655   -2.2753   21.4268 C   0  0  0  0  0  0  0  0  0  0  0  0
    8.7867   -1.6420   21.2795 C   0  0  0  0  0  0  0  0  0  0  0  0
   12.6841   -1.4794   23.8147 N   0  0  0  0  0  0  0  0  0  0  0  0
   13.3310   -1.0386   24.8990 C   0  0  0  0  0  0  0  0  0  0  0  0
   14.2985   -1.9997   25.5251 C   0  0  0  0  0  0  0  0  0  0  0  0
   13.1342    0.0797   25.3641 O   0  0  0  0  0  0  0  0  0  0  0  0
   12.2115    3.0593   22.9162 C   0  0  0  0  0  0  0  0  0  0  0  0
   12.4588    3.6034   24.0857 N   0  0  0  0  0  0  0  0  0  0  0  0
   13.0697    4.8217   23.8943 C   0  0  0  0  0  0  0  0  0  0  0  0
   13.2845    5.2017   22.6279 C   0  0  0  0  0  0  0  0  0  0  0  0
   12.7116    4.0085   21.5514 S   0  0  0  0  0  0  0  0  0  0  0  0
  1  2  1  0
  2  3  1  0
  3  4  2  0
  3  5  1  0
  5  6  1  0
  6  7  1  0
  7  8  2  0
  8  9  1  0
  9 10  2  0
 10 11  1  0
 10 12  1  0
 12 13  2  0
  5 14  1  0
 14 15  1  0
 15 16  1  0
 15 17  2  0
  2 18  1  0
 18 19  2  0
 19 20  1  0
 20 21  2  0
 21 22  1  0
 13  7  1  0
 22 18  1  0
M  END
