CVD-0000753|dock_bobby27042020.83|mol2|25|dock3
     RDKit          3D

 19 21  0  0  0  0  0  0  0  0999 V2000
   13.8133    2.4962   22.6916 Cl  0  0  0  0  0  0  0  0  0  0  0  0
   13.2442    0.8861   22.7295 C   0  0  0  0  0  0  0  0  0  0  0  0
   13.7906   -0.2455   23.2442 C   0  0  0  0  0  0  0  0  0  0  0  0
   12.9300   -1.2897   23.0152 N   0  0  0  0  0  0  0  0  0  0  0  0
   11.9379   -0.7519   22.3929 C   0  0  0  0  0  0  0  0  0  0  0  0
   10.8304   -1.4256   21.9603 N   0  0  0  0  0  0  0  0  0  0  0  0
    9.7028   -1.7616   22.6535 C   0  0  0  0  0  0  0  0  0  0  0  0
    9.5323   -1.4796   23.8357 O   0  0  0  0  0  0  0  0  0  0  0  0
    8.6467   -2.5036   21.8619 C   0  0  0  0  0  0  0  0  0  0  0  0
    7.8100   -1.5976   21.0107 C   0  0  0  0  0  0  0  0  0  0  0  0
    6.5520   -1.1173   21.2309 C   0  0  0  0  0  0  0  0  0  0  0  0
    6.2117   -0.2945   20.1118 C   0  0  0  0  0  0  0  0  0  0  0  0
    5.1171    0.4790   19.6986 C   0  0  0  0  0  0  0  0  0  0  0  0
    5.1786    1.1584   18.4922 C   0  0  0  0  0  0  0  0  0  0  0  0
    6.3204    1.0565   17.7241 C   0  0  0  0  0  0  0  0  0  0  0  0
    7.3965    0.3328   18.0677 N   0  0  0  0  0  0  0  0  0  0  0  0
    7.3221   -0.3201   19.2398 C   0  0  0  0  0  0  0  0  0  0  0  0
    8.2774   -1.1172   19.8079 N   0  0  0  0  0  0  0  0  0  0  0  0
   12.0420    0.5862   22.1712 O   0  0  0  0  0  0  0  0  0  0  0  0
  1  2  1  0
  2  3  2  0
  3  4  1  0
  4  5  2  0
  5  6  1  0
  6  7  1  0
  7  8  2  0
  7  9  1  0
  9 10  1  0
 10 11  2  0
 11 12  1  0
 12 13  2  0
 13 14  1  0
 14 15  2  0
 15 16  1  0
 16 17  2  0
 17 18  1  0
  5 19  1  0
 19  2  1  0
 18 10  1  0
 17 12  1  0
M  END
