CVD-0002690|dock_bobby27042020.90|mol2|27|dock3
     RDKit          3D

 18 19  0  0  0  0  0  0  0  0999 V2000
   13.2855    4.6397   22.0661 C   0  0  0  0  0  0  0  0  0  0  0  0
   12.2001    3.8520   22.5519 O   0  0  0  0  0  0  0  0  0  0  0  0
   12.2610    2.4808   22.5139 C   0  0  0  0  0  0  0  0  0  0  0  0
   13.4754    1.8054   22.5565 C   0  0  0  0  0  0  0  0  0  0  0  0
   13.5053    0.4219   22.5165 C   0  0  0  0  0  0  0  0  0  0  0  0
   12.3091   -0.2802   22.4337 C   0  0  0  0  0  0  0  0  0  0  0  0
   12.0512   -1.6279   22.3799 N   0  0  0  0  0  0  0  0  0  0  0  0
   10.6978   -1.8157   22.3043 C   0  0  0  0  0  0  0  0  0  0  0  0
   10.0515   -0.6147   22.3069 C   0  0  0  0  0  0  0  0  0  0  0  0
    8.5719   -0.3748   22.2376 C   0  0  0  0  0  0  0  0  0  0  0  0
    7.8657   -1.3043   21.2709 C   0  0  0  0  0  0  0  0  0  0  0  0
    8.3141   -1.0660   19.8936 N   0  0  0  0  0  0  0  0  0  0  0  0
    7.4981   -0.0510   18.9585 S   0  0  0  0  0  0  0  0  0  0  0  0
    6.0493   -0.8738   18.4194 C   0  0  0  0  0  0  0  0  0  0  0  0
    7.1031    1.0508   19.7806 O   0  0  0  0  0  0  0  0  0  0  0  0
    8.3129    0.2098   17.8122 O   0  0  0  0  0  0  0  0  0  0  0  0
   11.0735    0.3894   22.3898 C   0  0  0  0  0  0  0  0  0  0  0  0
   11.0652    1.7823   22.4311 C   0  0  0  0  0  0  0  0  0  0  0  0
  1  2  1  0
  2  3  1  0
  3  4  2  0
  4  5  1  0
  5  6  2  0
  6  7  1  0
  7  8  1  0
  8  9  2  0
  9 10  1  0
 10 11  1  0
 11 12  1  0
 12 13  1  0
 13 14  1  0
 13 15  2  0
 13 16  2  0
  9 17  1  0
 17 18  2  0
 18  3  1  0
 17  6  1  0
M  END
