CVD-0001744|dock_bobby27042020.80|mol2|13|dock3
     RDKit          3D

 26 28  0  0  0  0  0  0  0  0999 V2000
    9.1885   -0.9444   20.4193 O   0  0  0  0  0  0  0  0  0  0  0  0
    8.2632   -1.5008   20.9962 C   0  0  0  0  0  0  0  0  0  0  0  0
    6.9478   -1.3163   20.6464 N   0  0  0  0  0  0  0  0  0  0  0  0
    6.3713   -0.5147   19.6268 C   0  0  0  0  0  0  0  0  0  0  0  0
    5.1165    0.0348   19.8585 C   0  0  0  0  0  0  0  0  0  0  0  0
    4.5217    0.8275   18.8929 C   0  0  0  0  0  0  0  0  0  0  0  0
    5.1989    1.0519   17.7175 C   0  0  0  0  0  0  0  0  0  0  0  0
    6.4018    0.5388   17.4613 N   0  0  0  0  0  0  0  0  0  0  0  0
    6.9654   -0.2313   18.3975 C   0  0  0  0  0  0  0  0  0  0  0  0
    8.5806   -2.3439   22.0643 N   0  0  0  0  0  0  0  0  0  0  0  0
    9.9926   -2.2955   22.4851 C   0  0  0  0  0  0  0  0  0  0  0  0
   10.3276   -0.9637   23.1375 C   0  0  0  0  0  0  0  0  0  0  0  0
   11.6782   -0.4823   22.8161 N   0  0  0  0  0  0  0  0  0  0  0  0
   11.9160    0.8476   23.3839 C   0  0  0  0  0  0  0  0  0  0  0  0
   13.2942    1.3058   23.0364 C   0  0  0  0  0  0  0  0  0  0  0  0
   14.2846    0.4133   23.5336 O   0  0  0  0  0  0  0  0  0  0  0  0
   14.0677   -0.8827   23.0008 C   0  0  0  0  0  0  0  0  0  0  0  0
   12.6977   -1.3982   23.3253 C   0  0  0  0  0  0  0  0  0  0  0  0
    7.7217   -3.2721   22.7541 C   0  0  0  0  0  0  0  0  0  0  0  0
    7.5262   -3.1897   24.1285 C   0  0  0  0  0  0  0  0  0  0  0  0
    6.6903   -4.0802   24.7818 C   0  0  0  0  0  0  0  0  0  0  0  0
    6.0316   -5.0687   24.0730 C   0  0  0  0  0  0  0  0  0  0  0  0
    6.2138   -5.1625   22.6989 C   0  0  0  0  0  0  0  0  0  0  0  0
    7.0555   -4.2666   22.0437 C   0  0  0  0  0  0  0  0  0  0  0  0
    5.5335   -6.1866   21.9453 C   0  0  0  0  0  0  0  0  0  0  0  0
    5.0082   -6.9857   21.3205 N   0  0  0  0  0  0  0  0  0  0  0  0
  1  2  2  0
  2  3  1  0
  3  4  1  0
  4  5  2  0
  5  6  1  0
  6  7  2  0
  7  8  1  0
  8  9  2  0
  2 10  1  0
 10 11  1  0
 11 12  1  0
 12 13  1  0
 13 14  1  0
 14 15  1  0
 15 16  1  0
 16 17  1  0
 17 18  1  0
 10 19  1  0
 19 20  2  0
 20 21  1  0
 21 22  2  0
 22 23  1  0
 23 24  2  0
 23 25  1  0
 25 26  3  0
  9  4  1  0
 18 13  1  0
 24 19  1  0
M  END
