CVD-0003238|dock_bobby27042020.17|mol2|8|dock2
     RDKit          3D

 29 31  0  0  0  0  0  0  0  0999 V2000
   13.0952    5.5096   23.1450 C   0  0  0  0  0  0  0  0  0  0  0  0
   11.8882    4.7515   22.6340 C   0  0  0  0  0  0  0  0  0  0  0  0
   10.6187    5.5578   22.8098 C   0  0  0  0  0  0  0  0  0  0  0  0
   11.7649    3.4853   23.3619 N   0  0  0  0  0  0  0  0  0  0  0  0
   12.4422    2.3822   23.0309 C   0  0  0  0  0  0  0  0  0  0  0  0
   13.2263    2.3378   22.0867 O   0  0  0  0  0  0  0  0  0  0  0  0
   12.1994    1.1464   23.8925 C   0  0  0  0  0  0  0  0  0  0  0  0
   13.1098    0.0090   23.4258 C   0  0  0  0  0  0  0  0  0  0  0  0
   13.0843   -1.2404   24.2962 C   0  0  0  0  0  0  0  0  0  0  0  0
   13.5893   -1.0326   25.6875 C   0  0  0  0  0  0  0  0  0  0  0  0
   14.6473   -1.8609   25.9283 C   0  0  0  0  0  0  0  0  0  0  0  0
   14.9156   -2.6533   24.8063 N   0  0  0  0  0  0  0  0  0  0  0  0
   14.0481   -2.3402   23.7743 C   0  0  0  0  0  0  0  0  0  0  0  0
   14.0446   -2.8426   22.6537 O   0  0  0  0  0  0  0  0  0  0  0  0
   10.8060    0.7048   23.8305 N   0  0  0  0  0  0  0  0  0  0  0  0
   10.1916    0.7297   22.4995 C   0  0  0  0  0  0  0  0  0  0  0  0
    8.7758    0.1856   22.5339 C   0  0  0  0  0  0  0  0  0  0  0  0
    8.6821   -1.2031   23.1869 C   0  0  0  0  0  0  0  0  0  0  0  0
    8.0798   -2.1227   22.1264 C   0  0  0  0  0  0  0  0  0  0  0  0
    6.9447   -3.0626   22.5927 C   0  0  0  0  0  0  0  0  0  0  0  0
    6.3127   -4.0324   21.6101 C   0  0  0  0  0  0  0  0  0  0  0  0
    7.3182   -5.1538   21.4312 C   0  0  0  0  0  0  0  0  0  0  0  0
    8.0703   -5.4391   23.0584 S   0  0  0  0  0  0  0  0  0  0  0  0
    7.4470   -3.8898   23.7637 C   0  0  0  0  0  0  0  0  0  0  0  0
    7.7619   -1.3679   21.0393 C   0  0  0  0  0  0  0  0  0  0  0  0
    8.1252    0.0319   21.1161 C   0  0  0  0  0  0  0  0  0  0  0  0
    6.3099   -1.2010   20.6254 C   0  0  0  0  0  0  0  0  0  0  0  0
    6.0863   -1.2849   19.3237 N   0  0  0  0  0  0  0  0  0  0  0  0
    5.3963   -0.9971   21.4274 O   0  0  0  0  0  0  0  0  0  0  0  0
  1  2  1  0
  2  3  1  0
  2  4  1  0
  4  5  1  0
  5  6  2  0
  5  7  1  0
  7  8  1  0
  8  9  1  0
  9 10  1  0
 10 11  2  0
 11 12  1  0
 12 13  1  0
 13 14  2  0
  7 15  1  0
 15 16  1  0
 16 17  1  0
 17 18  1  0
 18 19  1  0
 19 20  1  0
 20 21  1  0
 21 22  1  0
 22 23  1  0
 23 24  1  0
 19 25  1  0
 25 26  1  0
 25 27  1  0
 27 28  1  0
 27 29  2  0
 13  9  1  0
 26 17  1  0
 24 20  1  0
M  END
