CVD-0002212|dock_bobby27042020.78|mol2|15|dock2
     RDKit          3D

 21 23  0  0  0  0  0  0  0  0999 V2000
   13.2333   -0.2133   22.7267 C   0  0  0  0  0  0  0  0  0  0  0  0
   13.2343   -1.5176   21.9928 C   0  0  0  0  0  0  0  0  0  0  0  0
   11.8817   -1.9536   21.6864 N   0  0  0  0  0  0  0  0  0  0  0  0
   11.1235   -2.6486   22.5508 C   0  0  0  0  0  0  0  0  0  0  0  0
   11.7795   -3.2922   23.5360 N   0  0  0  0  0  0  0  0  0  0  0  0
   11.0702   -4.0736   24.3570 C   0  0  0  0  0  0  0  0  0  0  0  0
    9.6929   -4.2388   24.2709 C   0  0  0  0  0  0  0  0  0  0  0  0
    8.9982   -3.5387   23.2904 C   0  0  0  0  0  0  0  0  0  0  0  0
    9.6979   -2.7034   22.4199 C   0  0  0  0  0  0  0  0  0  0  0  0
    8.8841   -1.9403   21.4283 C   0  0  0  0  0  0  0  0  0  0  0  0
    8.8986   -0.5468   21.3753 C   0  0  0  0  0  0  0  0  0  0  0  0
    8.1327    0.1478   20.4529 C   0  0  0  0  0  0  0  0  0  0  0  0
    7.3295   -0.5486   19.5571 C   0  0  0  0  0  0  0  0  0  0  0  0
    6.4184   -0.0494   18.4740 C   0  0  0  0  0  0  0  0  0  0  0  0
    5.9112   -1.2909   17.9309 N   0  0  0  0  0  0  0  0  0  0  0  0
    6.3764   -2.3975   18.5389 C   0  0  0  0  0  0  0  0  0  0  0  0
    6.0807   -3.5483   18.2330 O   0  0  0  0  0  0  0  0  0  0  0  0
    7.3020   -1.9310   19.5944 C   0  0  0  0  0  0  0  0  0  0  0  0
    8.0729   -2.6288   20.5228 C   0  0  0  0  0  0  0  0  0  0  0  0
    8.9936   -5.1147   25.1783 C   0  0  0  0  0  0  0  0  0  0  0  0
    8.4499   -5.7896   25.9224 N   0  0  0  0  0  0  0  0  0  0  0  0
  1  2  1  0
  2  3  1  0
  3  4  1  0
  4  5  2  0
  5  6  1  0
  6  7  2  0
  7  8  1  0
  8  9  2  0
  9 10  1  0
 10 11  2  0
 11 12  1  0
 12 13  2  0
 13 14  1  0
 14 15  1  0
 15 16  1  0
 16 17  2  0
 16 18  1  0
 18 19  2  0
  7 20  1  0
 20 21  3  0
  9  4  1  0
 19 10  1  0
 18 13  1  0
M  END
