CVD-0002239|dock_bobby27042020.64|mol2|11|dock2
     RDKit          3D

 43 48  0  0  0  0  0  0  0  0999 V2000
   13.5036    0.3112   25.3764 F   0  0  0  0  0  0  0  0  0  0  0  0
   13.6778   -0.5136   24.3183 C   0  0  0  0  0  0  0  0  0  0  0  0
   14.3237   -1.6987   24.5797 C   0  0  0  0  0  0  0  0  0  0  0  0
   14.5520   -2.5770   23.5377 C   0  0  0  0  0  0  0  0  0  0  0  0
   14.1267   -2.2553   22.2697 C   0  0  0  0  0  0  0  0  0  0  0  0
   13.4660   -1.0621   22.0301 C   0  0  0  0  0  0  0  0  0  0  0  0
   13.2216   -0.1451   23.0562 C   0  0  0  0  0  0  0  0  0  0  0  0
   12.5058    1.1342   22.7961 C   0  0  0  0  0  0  0  0  0  0  0  0
   13.0875    2.3553   22.5002 C   0  0  0  0  0  0  0  0  0  0  0  0
   12.0999    3.3395   22.3241 C   0  0  0  0  0  0  0  0  0  0  0  0
   12.3595    4.7846   21.9885 C   0  0  0  0  0  0  0  0  0  0  0  0
   11.3693    5.6972   22.5268 N   0  0  0  0  0  0  0  0  0  0  0  0
   11.2877    6.0261   23.8668 C   0  0  0  0  0  0  0  0  0  0  0  0
   12.4146    6.4005   24.5909 C   0  0  0  0  0  0  0  0  0  0  0  0
   12.3076    6.7260   25.9314 C   0  0  0  0  0  0  0  0  0  0  0  0
   11.0844    6.6887   26.5847 C   0  0  0  0  0  0  0  0  0  0  0  0
    9.9647    6.3130   25.8573 C   0  0  0  0  0  0  0  0  0  0  0  0
   10.0600    5.9857   24.5166 C   0  0  0  0  0  0  0  0  0  0  0  0
   10.9749    7.0453   28.0595 C   0  0  0  0  0  0  0  0  0  0  0  0
   10.3846    8.4059   28.2153 C   0  0  0  0  0  0  0  0  0  0  0  0
   11.3160    9.4449   27.7106 N   0  0  0  0  0  0  0  0  0  0  0  0
   12.7304    9.3497   28.1178 C   0  0  0  0  0  0  0  0  0  0  0  0
   13.1202    8.0677   28.8575 C   0  0  0  0  0  0  0  0  0  0  0  0
   14.3338    7.9992   29.5339 C   0  0  0  0  0  0  0  0  0  0  0  0
   14.7349    6.8305   30.1548 C   0  0  0  0  0  0  0  0  0  0  0  0
   13.9208    5.7200   30.1020 C   0  0  0  0  0  0  0  0  0  0  0  0
   12.7140    5.7878   29.4296 C   0  0  0  0  0  0  0  0  0  0  0  0
   12.2876    6.9561   28.7953 C   0  0  0  0  0  0  0  0  0  0  0  0
   10.9767   10.4405   26.8619 C   0  0  0  0  0  0  0  0  0  0  0  0
   11.7954   11.2646   26.4743 O   0  0  0  0  0  0  0  0  0  0  0  0
    9.5328   10.5072   26.4030 C   0  0  0  0  0  0  0  0  0  0  0  0
    9.2551   11.9295   25.3895 Cl  0  0  0  0  0  0  0  0  0  0  0  0
   10.8759    2.7165   22.5062 C   0  0  0  0  0  0  0  0  0  0  0  0
   11.1007    1.3755   22.7915 N   0  0  0  0  0  0  0  0  0  0  0  0
    9.7485    0.3823   23.0485 S   0  0  0  0  0  0  0  0  0  0  0  0
   10.2267   -0.8869   23.5021 O   0  0  0  0  0  0  0  0  0  0  0  0
    8.8909    1.1447   23.9019 O   0  0  0  0  0  0  0  0  0  0  0  0
    8.9249    0.2097   21.5028 C   0  0  0  0  0  0  0  0  0  0  0  0
    7.9851    1.1438   21.1021 C   0  0  0  0  0  0  0  0  0  0  0  0
    7.3577    0.9664   19.8811 C   0  0  0  0  0  0  0  0  0  0  0  0
    7.6921   -0.1291   19.1175 C   0  0  0  0  0  0  0  0  0  0  0  0
    8.5939   -1.0378   19.4918 N   0  0  0  0  0  0  0  0  0  0  0  0
    9.1957   -0.8607   20.6716 C   0  0  0  0  0  0  0  0  0  0  0  0
  1  2  1  0
  2  3  2  0
  3  4  1  0
  4  5  2  0
  5  6  1  0
  6  7  2  0
  7  8  1  0
  8  9  2  0
  9 10  1  0
 10 11  1  0
 11 12  1  0
 12 13  1  0
 13 14  2  0
 14 15  1  0
 15 16  2  0
 16 17  1  0
 17 18  2  0
 16 19  1  0
 19 20  1  0
 20 21  1  0
 21 22  1  0
 22 23  1  0
 23 24  2  0
 24 25  1  0
 25 26  2  0
 26 27  1  0
 27 28  2  0
 21 29  1  0
 29 30  2  0
 29 31  1  0
 31 32  1  0
 10 33  2  0
 33 34  1  0
 34 35  1  0
 35 36  2  0
 35 37  2  0
 35 38  1  0
 38 39  2  0
 39 40  1  0
 40 41  2  0
 41 42  1  0
 42 43  2  0
  7  2  1  0
 34  8  1  0
 43 38  1  0
 18 13  1  0
 28 19  1  0
 28 23  1  0
M  END
