CVD-0003970|dock_bobby27042020.58|mol2|8|dock3
     RDKit          3D

 17 18  0  0  0  0  0  0  0  0999 V2000
    9.3095   -2.9411   22.7391 C   0  0  0  0  0  0  0  0  0  0  0  0
   10.6895   -2.6675   22.9483 O   0  0  0  0  0  0  0  0  0  0  0  0
   10.9890   -1.3024   23.2546 C   0  0  0  0  0  0  0  0  0  0  0  0
   10.5799   -0.3861   22.1155 C   0  0  0  0  0  0  0  0  0  0  0  0
   11.0327    1.0233   22.3784 C   0  0  0  0  0  0  0  0  0  0  0  0
   10.1954    2.0620   22.3365 C   0  0  0  0  0  0  0  0  0  0  0  0
   10.5849    3.3361   22.8007 C   0  0  0  0  0  0  0  0  0  0  0  0
   11.9325    3.5568   23.2804 C   0  0  0  0  0  0  0  0  0  0  0  0
   12.8201    2.5487   23.1379 N   0  0  0  0  0  0  0  0  0  0  0  0
   12.4729    1.2016   22.7497 C   0  0  0  0  0  0  0  0  0  0  0  0
   12.8936    0.2117   23.8475 C   0  0  0  0  0  0  0  0  0  0  0  0
   12.4686   -1.2326   23.5612 C   0  0  0  0  0  0  0  0  0  0  0  0
   12.6813   -2.0946   24.7357 O   0  0  0  0  0  0  0  0  0  0  0  0
   14.1415   -2.2550   25.3747 S   0  0  0  0  0  0  0  0  0  0  0  0
   15.0532   -2.3066   24.1684 O   0  0  0  0  0  0  0  0  0  0  0  0
   14.4406   -1.0992   26.1843 O   0  0  0  0  0  0  0  0  0  0  0  0
   14.1911   -3.5091   26.0855 O   0  0  0  0  0  0  0  0  0  0  0  0
  1  2  1  0
  2  3  1  0
  3  4  1  0
  4  5  1  0
  5  6  2  0
  6  7  1  0
  7  8  2  0
  8  9  1  0
  9 10  1  0
 10 11  1  0
 11 12  1  0
 12 13  1  0
 13 14  1  0
 14 15  1  0
 14 16  2  0
 14 17  2  0
 12  3  1  0
 10  5  1  0
M  END
