CVD-0002053|dock_bobby27042020.36|mol2|9|dock2
     RDKit          3D

 34 37  0  0  0  0  0  0  0  0999 V2000
    6.4488   -6.4326   21.8065 C   0  0  0  0  0  0  0  0  0  0  0  0
    6.3921   -5.6671   23.0546 N   0  0  0  0  0  0  0  0  0  0  0  0
    7.6890   -5.1591   23.5147 C   0  0  0  0  0  0  0  0  0  0  0  0
    8.0560   -3.8683   22.8307 C   0  0  0  0  0  0  0  0  0  0  0  0
    7.2239   -3.1467   21.9562 C   0  0  0  0  0  0  0  0  0  0  0  0
    7.8718   -2.0103   21.5053 C   0  0  0  0  0  0  0  0  0  0  0  0
    7.3285   -0.9863   20.5730 C   0  0  0  0  0  0  0  0  0  0  0  0
    8.0627   -0.5425   19.4683 C   0  0  0  0  0  0  0  0  0  0  0  0
    7.5422    0.3922   18.5887 C   0  0  0  0  0  0  0  0  0  0  0  0
    6.2942    0.9322   18.7988 C   0  0  0  0  0  0  0  0  0  0  0  0
    5.5511    0.5377   19.8953 C   0  0  0  0  0  0  0  0  0  0  0  0
    6.0771   -0.4049   20.7466 C   0  0  0  0  0  0  0  0  0  0  0  0
    5.3019   -0.7639   21.7957 F   0  0  0  0  0  0  0  0  0  0  0  0
    9.1563   -2.0408   22.1172 N   0  0  0  0  0  0  0  0  0  0  0  0
    9.2520   -3.1723   22.9170 C   0  0  0  0  0  0  0  0  0  0  0  0
   10.4102   -0.9833   21.9580 S   0  0  0  0  0  0  0  0  0  0  0  0
   11.0793   -1.3319   20.7239 O   0  0  0  0  0  0  0  0  0  0  0  0
   10.1819    0.6366   22.1591 C   0  0  0  0  0  0  0  0  0  0  0  0
    8.8486    1.1912   22.6079 C   0  0  0  0  0  0  0  0  0  0  0  0
    8.9850    2.4471   23.3276 N   0  0  0  0  0  0  0  0  0  0  0  0
    8.5494    3.6429   22.8455 C   0  0  0  0  0  0  0  0  0  0  0  0
    9.3948    4.7510   22.8276 C   0  0  0  0  0  0  0  0  0  0  0  0
    8.9063    5.9446   22.3281 C   0  0  0  0  0  0  0  0  0  0  0  0
    7.5987    6.0123   21.8605 C   0  0  0  0  0  0  0  0  0  0  0  0
    6.8331    4.8517   21.9204 C   0  0  0  0  0  0  0  0  0  0  0  0
    7.2898    3.6894   22.4004 N   0  0  0  0  0  0  0  0  0  0  0  0
    7.0558    7.2398   21.3329 C   0  0  0  0  0  0  0  0  0  0  0  0
    6.6295    8.2261   20.9451 N   0  0  0  0  0  0  0  0  0  0  0  0
   11.5627   -1.4518   23.2216 C   0  0  0  0  0  0  0  0  0  0  0  0
   12.7186   -2.1388   22.8930 C   0  0  0  0  0  0  0  0  0  0  0  0
   13.5779   -2.5075   23.9136 C   0  0  0  0  0  0  0  0  0  0  0  0
   13.2456   -2.1822   25.2093 C   0  0  0  0  0  0  0  0  0  0  0  0
   12.1310   -1.5285   25.5404 N   0  0  0  0  0  0  0  0  0  0  0  0
   11.3053   -1.1758   24.5509 C   0  0  0  0  0  0  0  0  0  0  0  0
  1  2  1  0
  2  3  1  0
  3  4  1  0
  4  5  1  0
  5  6  2  0
  6  7  1  0
  7  8  2  0
  8  9  1  0
  9 10  2  0
 10 11  1  0
 11 12  2  0
 12 13  1  0
  6 14  1  0
 14 15  1  0
 14 16  1  0
 16 17  2  0
 16 18  2  0
 18 19  1  0
 19 20  1  0
 20 21  1  0
 21 22  2  0
 22 23  1  0
 23 24  2  0
 24 25  1  0
 25 26  2  0
 24 27  1  0
 27 28  3  0
 16 29  1  0
 29 30  2  0
 30 31  1  0
 31 32  2  0
 32 33  1  0
 33 34  2  0
 15  4  2  0
 26 21  1  0
 34 29  1  0
 12  7  1  0
M  END
