CVD-0001713|dock_bobby27042020.23|mol2|7|dock2
     RDKit          3D

 19 21  0  0  0  0  0  0  0  0999 V2000
    5.5501    0.8203   18.5671 C   0  0  0  0  0  0  0  0  0  0  0  0
    6.2483   -0.2372   18.2487 C   0  0  0  0  0  0  0  0  0  0  0  0
    7.5338   -0.5396   18.9408 C   0  0  0  0  0  0  0  0  0  0  0  0
    8.5944   -0.4395   18.3262 O   0  0  0  0  0  0  0  0  0  0  0  0
    7.5314   -0.9243   20.2387 N   0  0  0  0  0  0  0  0  0  0  0  0
    6.3272   -1.2169   21.0284 C   0  0  0  0  0  0  0  0  0  0  0  0
    6.5223   -2.4920   21.8230 C   0  0  0  0  0  0  0  0  0  0  0  0
    7.7593   -2.3882   22.7060 C   0  0  0  0  0  0  0  0  0  0  0  0
    8.9691   -2.0465   21.8553 C   0  0  0  0  0  0  0  0  0  0  0  0
    8.7512   -0.7818   21.0391 C   0  0  0  0  0  0  0  0  0  0  0  0
   10.2049   -1.8928   22.6925 C   0  0  0  0  0  0  0  0  0  0  0  0
   11.3221   -2.4877   22.4146 N   0  0  0  0  0  0  0  0  0  0  0  0
   12.3010   -2.1763   23.3549 C   0  0  0  0  0  0  0  0  0  0  0  0
   13.6222   -2.6272   23.3808 C   0  0  0  0  0  0  0  0  0  0  0  0
   14.4710   -2.2160   24.3972 C   0  0  0  0  0  0  0  0  0  0  0  0
   14.0317   -1.3647   25.3894 C   0  0  0  0  0  0  0  0  0  0  0  0
   12.7268   -0.9040   25.3857 C   0  0  0  0  0  0  0  0  0  0  0  0
   11.8697   -1.3128   24.3685 C   0  0  0  0  0  0  0  0  0  0  0  0
   10.2004   -0.8909   24.1258 S   0  0  0  0  0  0  0  0  0  0  0  0
  1  2  2  0
  2  3  1  0
  3  4  2  0
  3  5  1  0
  5  6  1  0
  6  7  1  0
  7  8  1  0
  8  9  1  0
  9 10  1  0
  9 11  1  0
 11 12  2  0
 12 13  1  0
 13 14  2  0
 14 15  1  0
 15 16  2  0
 16 17  1  0
 17 18  2  0
 18 19  1  0
 10  5  1  0
 19 11  1  0
 18 13  1  0
M  END
