CVD-0003820|dock_bobby27042020.44|mol2|12|dock3
     RDKit          3D

 34 38  0  0  0  0  0  0  0  0999 V2000
   13.4392    5.3858   21.2642 N   0  0  0  0  0  0  0  0  0  0  0  0
   13.1071    5.0197   22.7870 S   0  0  0  0  0  0  0  0  0  0  0  0
   14.3406    5.0694   23.5132 O   0  0  0  0  0  0  0  0  0  0  0  0
   12.0270    5.8648   23.1998 O   0  0  0  0  0  0  0  0  0  0  0  0
   12.5254    3.3521   22.8480 C   0  0  0  0  0  0  0  0  0  0  0  0
   11.1753    3.0987   23.0112 C   0  0  0  0  0  0  0  0  0  0  0  0
   10.7243    1.7913   23.0510 C   0  0  0  0  0  0  0  0  0  0  0  0
   11.6066    0.7216   22.9331 C   0  0  0  0  0  0  0  0  0  0  0  0
   12.9600    1.0012   22.7703 C   0  0  0  0  0  0  0  0  0  0  0  0
   13.4210    2.3049   22.7243 C   0  0  0  0  0  0  0  0  0  0  0  0
   11.1489   -0.5885   22.9767 N   0  0  0  0  0  0  0  0  0  0  0  0
   11.1800   -1.4554   21.8092 C   0  0  0  0  0  0  0  0  0  0  0  0
    9.8651   -2.2067   21.6787 C   0  0  0  0  0  0  0  0  0  0  0  0
    9.4767   -2.9283   22.9310 C   0  0  0  0  0  0  0  0  0  0  0  0
    9.4906   -1.9667   24.1088 C   0  0  0  0  0  0  0  0  0  0  0  0
   10.8399   -1.2642   24.2311 C   0  0  0  0  0  0  0  0  0  0  0  0
    8.1567   -3.5827   22.8056 N   0  0  0  0  0  0  0  0  0  0  0  0
    7.0229   -2.6793   23.0265 C   0  0  0  0  0  0  0  0  0  0  0  0
    5.7259   -3.3280   22.5709 C   0  0  0  0  0  0  0  0  0  0  0  0
    5.4683   -4.5944   23.3725 C   0  0  0  0  0  0  0  0  0  0  0  0
    6.6829   -5.5063   23.2545 C   0  0  0  0  0  0  0  0  0  0  0  0
    7.9690   -4.7779   23.6349 C   0  0  0  0  0  0  0  0  0  0  0  0
    4.1484   -5.2597   23.0346 C   0  0  0  0  0  0  0  0  0  0  0  0
    2.9412   -4.6435   23.3270 C   0  0  0  0  0  0  0  0  0  0  0  0
    1.7363   -5.2523   23.0241 C   0  0  0  0  0  0  0  0  0  0  0  0
    1.6902   -6.5024   22.4120 C   0  0  0  0  0  0  0  0  0  0  0  0
    2.9066   -7.1148   22.1205 C   0  0  0  0  0  0  0  0  0  0  0  0
    4.1103   -6.5063   22.4284 C   0  0  0  0  0  0  0  0  0  0  0  0
    0.3947   -7.1569   22.0832 C   0  0  0  0  0  0  0  0  0  0  0  0
   -0.3549   -6.7580   20.9790 C   0  0  0  0  0  0  0  0  0  0  0  0
   -1.5614   -7.3663   20.6754 C   0  0  0  0  0  0  0  0  0  0  0  0
   -2.0420   -8.3879   21.4644 C   0  0  0  0  0  0  0  0  0  0  0  0
   -1.3156   -8.7998   22.5599 C   0  0  0  0  0  0  0  0  0  0  0  0
   -0.1112   -8.1900   22.8686 C   0  0  0  0  0  0  0  0  0  0  0  0
  1  2  1  0
  2  3  2  0
  2  4  2  0
  2  5  1  0
  5  6  2  0
  6  7  1  0
  7  8  2  0
  8  9  1  0
  9 10  2  0
  8 11  1  0
 11 12  1  0
 12 13  1  0
 13 14  1  0
 14 15  1  0
 15 16  1  0
 14 17  1  0
 17 18  1  0
 18 19  1  0
 19 20  1  0
 20 21  1  0
 21 22  1  0
 20 23  1  0
 23 24  2  0
 24 25  1  0
 25 26  2  0
 26 27  1  0
 27 28  2  0
 26 29  1  0
 29 30  2  0
 30 31  1  0
 31 32  2  0
 32 33  1  0
 33 34  2  0
 10  5  1  0
 16 11  1  0
 22 17  1  0
 28 23  1  0
 34 29  1  0
M  END
