CVD-0001102|dock_bobby27042020.10|mol2|42|dock1
     RDKit          3D

 21 22  0  0  0  0  0  0  0  0999 V2000
    5.6291   -1.2713   19.3108 C   0  0  0  0  0  0  0  0  0  0  0  0
    6.9912   -0.2877   18.8167 S   0  0  0  0  0  0  0  0  0  0  0  0
    8.0519   -1.1634   18.4245 O   0  0  0  0  0  0  0  0  0  0  0  0
    6.5212    0.6803   17.8744 O   0  0  0  0  0  0  0  0  0  0  0  0
    7.5007    0.5195   20.1048 N   0  0  0  0  0  0  0  0  0  0  0  0
    8.4559   -0.1095   21.0249 C   0  0  0  0  0  0  0  0  0  0  0  0
    8.3770    0.5458   22.3890 C   0  0  0  0  0  0  0  0  0  0  0  0
    9.3674    1.6030   22.5756 N   0  0  0  0  0  0  0  0  0  0  0  0
    8.9255    2.9795   22.3921 C   0  0  0  0  0  0  0  0  0  0  0  0
    9.8317    3.9235   23.1622 C   0  0  0  0  0  0  0  0  0  0  0  0
   11.2609    3.7751   22.6831 C   0  0  0  0  0  0  0  0  0  0  0  0
   11.6984    2.3308   22.7283 C   0  0  0  0  0  0  0  0  0  0  0  0
   13.0430    1.9914   22.8237 C   0  0  0  0  0  0  0  0  0  0  0  0
   13.4551    0.6736   22.7921 C   0  0  0  0  0  0  0  0  0  0  0  0
   12.5038   -0.3243   22.6627 C   0  0  0  0  0  0  0  0  0  0  0  0
   11.1540   -0.0218   22.5651 C   0  0  0  0  0  0  0  0  0  0  0  0
   10.7361    1.3073   22.5968 C   0  0  0  0  0  0  0  0  0  0  0  0
   13.0090   -2.0178   22.6638 S   0  0  0  0  0  0  0  0  0  0  0  0
   13.3250   -2.4538   21.1561 N   0  0  0  0  0  0  0  0  0  0  0  0
   14.2383   -2.0970   23.3941 O   0  0  0  0  0  0  0  0  0  0  0  0
   11.8911   -2.7972   23.1043 O   0  0  0  0  0  0  0  0  0  0  0  0
  1  2  1  0
  2  3  2  0
  2  4  2  0
  2  5  1  0
  5  6  1  0
  6  7  1  0
  7  8  1  0
  8  9  1  0
  9 10  1  0
 10 11  1  0
 11 12  1  0
 12 13  2  0
 13 14  1  0
 14 15  2  0
 15 16  1  0
 16 17  2  0
 15 18  1  0
 18 19  1  0
 18 20  2  0
 18 21  2  0
 17  8  1  0
 17 12  1  0
M  END
