CVD-0000782|dock_bobby27042020.69|mol2|14|dock2
     RDKit          3D

 30 33  0  0  0  0  0  0  0  0999 V2000
    6.4798   -7.7819   29.5457 C   0  0  0  0  0  0  0  0  0  0  0  0
    7.0072   -6.5980   28.7896 C   0  0  0  0  0  0  0  0  0  0  0  0
    6.7723   -5.4461   29.1408 O   0  0  0  0  0  0  0  0  0  0  0  0
    7.7328   -6.8707   27.7032 N   0  0  0  0  0  0  0  0  0  0  0  0
    8.2984   -5.8307   26.8558 C   0  0  0  0  0  0  0  0  0  0  0  0
    7.2909   -5.3111   25.8497 C   0  0  0  0  0  0  0  0  0  0  0  0
    7.8958   -4.3779   24.8423 C   0  0  0  0  0  0  0  0  0  0  0  0
    8.0599   -4.5957   23.5057 C   0  0  0  0  0  0  0  0  0  0  0  0
    8.6499   -3.5122   22.9135 N   0  0  0  0  0  0  0  0  0  0  0  0
    8.8801   -2.5603   23.8759 C   0  0  0  0  0  0  0  0  0  0  0  0
    9.4601   -1.2869   23.7620 C   0  0  0  0  0  0  0  0  0  0  0  0
    9.5719   -0.5228   24.9214 C   0  0  0  0  0  0  0  0  0  0  0  0
    9.1149   -1.0377   26.1120 C   0  0  0  0  0  0  0  0  0  0  0  0
    9.2369   -0.2676   27.2267 F   0  0  0  0  0  0  0  0  0  0  0  0
    8.5429   -2.2802   26.2483 C   0  0  0  0  0  0  0  0  0  0  0  0
    8.4194   -3.0676   25.1050 C   0  0  0  0  0  0  0  0  0  0  0  0
    9.9507   -0.7738   22.4129 C   0  0  0  0  0  0  0  0  0  0  0  0
   11.2543   -1.4177   22.0774 C   0  0  0  0  0  0  0  0  0  0  0  0
   12.3193   -0.9885   23.0175 N   0  0  0  0  0  0  0  0  0  0  0  0
   12.4545    0.4576   23.2820 C   0  0  0  0  0  0  0  0  0  0  0  0
   11.2901    1.3214   22.7885 C   0  0  0  0  0  0  0  0  0  0  0  0
   11.4161    2.7068   22.7711 C   0  0  0  0  0  0  0  0  0  0  0  0
   10.3704    3.5135   22.3609 C   0  0  0  0  0  0  0  0  0  0  0  0
    9.1845    2.9383   21.9629 C   0  0  0  0  0  0  0  0  0  0  0  0
    9.0529    1.5610   21.9779 C   0  0  0  0  0  0  0  0  0  0  0  0
   10.0949    0.7268   22.3880 C   0  0  0  0  0  0  0  0  0  0  0  0
   13.1237   -1.8672   23.6594 C   0  0  0  0  0  0  0  0  0  0  0  0
   13.0202   -3.0755   23.4886 O   0  0  0  0  0  0  0  0  0  0  0  0
   14.1673   -1.3210   24.6168 C   0  0  0  0  0  0  0  0  0  0  0  0
   15.2570   -2.5897   25.1924 Cl  0  0  0  0  0  0  0  0  0  0  0  0
  1  2  1  0
  2  3  2  0
  2  4  1  0
  4  5  1  0
  5  6  1  0
  6  7  1  0
  7  8  2  0
  8  9  1  0
  9 10  1  0
 10 11  2  0
 11 12  1  0
 12 13  2  0
 13 14  1  0
 13 15  1  0
 15 16  2  0
 17 11  1  0
 17 18  1  0
 18 19  1  0
 19 20  1  0
 20 21  1  0
 21 22  2  0
 22 23  1  0
 23 24  2  0
 24 25  1  0
 25 26  2  0
 19 27  1  0
 27 28  2  0
 27 29  1  0
 29 30  1  0
 16  7  1  0
 26 17  1  0
 16 10  1  0
 26 21  1  0
M  END
