CVD-0001115|dock_bobby27042020.10|mol2|40|dock2
     RDKit          3D

 24 26  0  0  0  0  0  0  0  0999 V2000
   13.6882   -1.6300   20.7901 N   0  0  0  0  0  0  0  0  0  0  0  0
   13.7130   -1.2083   22.0451 C   0  0  0  0  0  0  0  0  0  0  0  0
   14.7018   -0.6646   22.5420 O   0  0  0  0  0  0  0  0  0  0  0  0
   12.4598   -1.4219   22.8989 C   0  0  0  0  0  0  0  0  0  0  0  0
   12.6582   -2.5238   23.9864 C   0  0  0  0  0  0  0  0  0  0  0  0
   13.4467   -1.7797   25.0429 C   0  0  0  0  0  0  0  0  0  0  0  0
   12.7838   -0.3982   25.0444 C   0  0  0  0  0  0  0  0  0  0  0  0
   12.1813   -0.2696   23.7037 N   0  0  0  0  0  0  0  0  0  0  0  0
   11.3761    0.8372   23.3105 C   0  0  0  0  0  0  0  0  0  0  0  0
   11.9679    2.1025   23.2751 C   0  0  0  0  0  0  0  0  0  0  0  0
   11.1885    3.2386   23.1584 C   0  0  0  0  0  0  0  0  0  0  0  0
    9.8229    3.1402   23.0556 C   0  0  0  0  0  0  0  0  0  0  0  0
    9.2227    1.9001   22.9563 C   0  0  0  0  0  0  0  0  0  0  0  0
   10.0009    0.7436   22.9708 C   0  0  0  0  0  0  0  0  0  0  0  0
    9.3510   -0.4646   22.6213 N   0  0  0  0  0  0  0  0  0  0  0  0
    8.9491   -1.4018   23.6806 C   0  0  0  0  0  0  0  0  0  0  0  0
    8.7533   -2.8026   23.1118 C   0  0  0  0  0  0  0  0  0  0  0  0
    7.8635   -2.8055   21.9608 N   0  0  0  0  0  0  0  0  0  0  0  0
    8.2463   -1.8238   20.9350 C   0  0  0  0  0  0  0  0  0  0  0  0
    8.3314   -0.4484   21.5416 C   0  0  0  0  0  0  0  0  0  0  0  0
    6.8061   -3.6066   21.7204 C   0  0  0  0  0  0  0  0  0  0  0  0
    6.1288   -3.5023   20.7055 O   0  0  0  0  0  0  0  0  0  0  0  0
    6.4942   -4.6448   22.7802 C   0  0  0  0  0  0  0  0  0  0  0  0
    7.8259   -5.7928   22.9686 Cl  0  0  0  0  0  0  0  0  0  0  0  0
  1  2  1  0
  2  3  2  0
  2  4  1  0
  4  5  1  0
  5  6  1  0
  6  7  1  0
  7  8  1  0
  8  9  1  0
  9 10  2  0
 10 11  1  0
 11 12  2  0
 12 13  1  0
 13 14  2  0
 14 15  1  0
 15 16  1  0
 16 17  1  0
 17 18  1  0
 18 19  1  0
 19 20  1  0
 18 21  1  0
 21 22  2  0
 21 23  1  0
 23 24  1  0
  8  4  1  0
 14  9  1  0
 20 15  1  0
M  END
