CVD-0002206|dock_bobby27042020.7|mol2|3|dock1
     RDKit          3D

 22 24  0  0  0  0  0  0  0  0999 V2000
    5.6982    0.7535   18.7026 C   0  0  0  0  0  0  0  0  0  0  0  0
    5.6879   -0.4961   19.5262 C   0  0  0  0  0  0  0  0  0  0  0  0
    6.9762   -0.7273   20.1579 N   0  0  0  0  0  0  0  0  0  0  0  0
    7.2772   -1.8678   20.8010 C   0  0  0  0  0  0  0  0  0  0  0  0
    6.3843   -2.8723   20.6960 N   0  0  0  0  0  0  0  0  0  0  0  0
    6.6563   -4.0218   21.3234 C   0  0  0  0  0  0  0  0  0  0  0  0
    7.8059   -4.2338   22.0748 C   0  0  0  0  0  0  0  0  0  0  0  0
    8.7187   -3.1905   22.1768 C   0  0  0  0  0  0  0  0  0  0  0  0
    8.4729   -1.9791   21.5409 C   0  0  0  0  0  0  0  0  0  0  0  0
    9.4856   -0.8545   21.6643 C   0  0  0  0  0  0  0  0  0  0  0  0
   10.5079   -1.0567   22.7641 C   0  0  0  0  0  0  0  0  0  0  0  0
   10.3066   -0.5240   24.0308 C   0  0  0  0  0  0  0  0  0  0  0  0
   11.2276   -0.7248   25.0459 C   0  0  0  0  0  0  0  0  0  0  0  0
   12.3792   -1.4694   24.8123 C   0  0  0  0  0  0  0  0  0  0  0  0
   13.4402   -1.9427   25.7764 C   0  0  0  0  0  0  0  0  0  0  0  0
   14.5089   -2.5769   24.8812 C   0  0  0  0  0  0  0  0  0  0  0  0
   13.8802   -2.6972   23.5127 C   0  0  0  0  0  0  0  0  0  0  0  0
   14.3833   -3.2322   22.5417 O   0  0  0  0  0  0  0  0  0  0  0  0
   12.5863   -2.0042   23.5493 C   0  0  0  0  0  0  0  0  0  0  0  0
   11.6587   -1.8011   22.5295 C   0  0  0  0  0  0  0  0  0  0  0  0
    8.0495   -5.4950   22.7305 C   0  0  0  0  0  0  0  0  0  0  0  0
    8.2456   -6.4777   23.2788 N   0  0  0  0  0  0  0  0  0  0  0  0
  1  2  1  0
  2  3  1  0
  3  4  1  0
  4  5  2  0
  5  6  1  0
  6  7  2  0
  7  8  1  0
  8  9  2  0
  9 10  1  0
 10 11  1  0
 11 12  2  0
 12 13  1  0
 13 14  2  0
 14 15  1  0
 15 16  1  0
 16 17  1  0
 17 18  2  0
 17 19  1  0
 19 20  2  0
  7 21  1  0
 21 22  3  0
  9  4  1  0
 20 11  1  0
 19 14  1  0
M  END
