CVD-0002168|dock_bobby27042020.7|mol2|9|dock1
     RDKit          3D

 25 27  0  0  0  0  0  0  0  0999 V2000
    8.5925    0.0991   22.2770 O   0  0  0  0  0  0  0  0  0  0  0  0
    9.1389   -0.4607   21.3319 C   0  0  0  0  0  0  0  0  0  0  0  0
   10.3544   -1.1025   21.4060 N   0  0  0  0  0  0  0  0  0  0  0  0
   11.2431   -1.2844   22.4961 C   0  0  0  0  0  0  0  0  0  0  0  0
   12.4931   -1.8288   22.2231 C   0  0  0  0  0  0  0  0  0  0  0  0
   13.4107   -2.0339   23.2394 C   0  0  0  0  0  0  0  0  0  0  0  0
   13.0948   -1.6999   24.5374 C   0  0  0  0  0  0  0  0  0  0  0  0
   11.8599   -1.1598   24.8214 C   0  0  0  0  0  0  0  0  0  0  0  0
   10.9335   -0.9500   23.8131 C   0  0  0  0  0  0  0  0  0  0  0  0
    8.6181   -0.5226   20.0590 N   0  0  0  0  0  0  0  0  0  0  0  0
    7.3941    0.0097   19.5685 C   0  0  0  0  0  0  0  0  0  0  0  0
    7.2527    0.5994   18.3133 C   0  0  0  0  0  0  0  0  0  0  0  0
    6.1108    1.1245   17.8615 N   0  0  0  0  0  0  0  0  0  0  0  0
    5.0590    1.1039   18.6750 C   0  0  0  0  0  0  0  0  0  0  0  0
    5.0769    0.5338   19.9291 C   0  0  0  0  0  0  0  0  0  0  0  0
    6.2556   -0.0464   20.3933 C   0  0  0  0  0  0  0  0  0  0  0  0
    6.3284   -0.6917   21.6370 N   0  0  0  0  0  0  0  0  0  0  0  0
    6.7515   -1.9694   21.9765 C   0  0  0  0  0  0  0  0  0  0  0  0
    7.2463   -2.3086   23.2379 C   0  0  0  0  0  0  0  0  0  0  0  0
    7.6248   -3.6183   23.4733 C   0  0  0  0  0  0  0  0  0  0  0  0
    7.5198   -4.5621   22.4590 C   0  0  0  0  0  0  0  0  0  0  0  0
    7.0316   -4.1286   21.2311 C   0  0  0  0  0  0  0  0  0  0  0  0
    6.6602   -2.8666   20.9890 N   0  0  0  0  0  0  0  0  0  0  0  0
    7.9025   -5.9362   22.6709 C   0  0  0  0  0  0  0  0  0  0  0  0
    8.2367   -7.0146   22.8448 N   0  0  0  0  0  0  0  0  0  0  0  0
  1  2  2  0
  2  3  1  0
  3  4  1  0
  4  5  2  0
  5  6  1  0
  6  7  2  0
  7  8  1  0
  8  9  2  0
  2 10  1  0
 10 11  1  0
 11 12  2  0
 12 13  1  0
 13 14  2  0
 14 15  1  0
 15 16  2  0
 16 17  1  0
 17 18  1  0
 18 19  2  0
 19 20  1  0
 20 21  2  0
 21 22  1  0
 22 23  2  0
 21 24  1  0
 24 25  3  0
  9  4  1  0
 16 11  1  0
 23 18  1  0
M  END
