CVD-0000701|dock_bobby27042020.55|mol2|12|dock2
     RDKit          3D

 21 23  0  0  0  0  0  0  0  0999 V2000
    8.3957    0.7115   22.4739 O   0  0  0  0  0  0  0  0  0  0  0  0
    9.0367   -0.0319   21.7366 C   0  0  0  0  0  0  0  0  0  0  0  0
   10.1896   -0.6801   22.1865 N   0  0  0  0  0  0  0  0  0  0  0  0
   10.7494   -0.5812   23.4716 C   0  0  0  0  0  0  0  0  0  0  0  0
   10.2891   -0.0020   24.6078 C   0  0  0  0  0  0  0  0  0  0  0  0
   11.2218   -0.1829   25.6007 N   0  0  0  0  0  0  0  0  0  0  0  0
   12.2946   -0.8787   25.1230 C   0  0  0  0  0  0  0  0  0  0  0  0
   13.4021   -1.2482   25.7882 N   0  0  0  0  0  0  0  0  0  0  0  0
   14.3156   -1.9309   25.0820 C   0  0  0  0  0  0  0  0  0  0  0  0
   14.1766   -2.2608   23.7494 C   0  0  0  0  0  0  0  0  0  0  0  0
   13.0290   -1.8734   23.0752 C   0  0  0  0  0  0  0  0  0  0  0  0
   12.0566   -1.1628   23.7732 C   0  0  0  0  0  0  0  0  0  0  0  0
    8.7325   -0.3221   20.4291 N   0  0  0  0  0  0  0  0  0  0  0  0
    7.6633    0.1244   19.6135 C   0  0  0  0  0  0  0  0  0  0  0  0
    7.8331    0.1242   18.2328 C   0  0  0  0  0  0  0  0  0  0  0  0
    6.8999    0.5214   17.3625 N   0  0  0  0  0  0  0  0  0  0  0  0
    5.7341    0.9437   17.8567 C   0  0  0  0  0  0  0  0  0  0  0  0
    5.4556    0.9862   19.2184 C   0  0  0  0  0  0  0  0  0  0  0  0
    6.4399    0.5685   20.1101 C   0  0  0  0  0  0  0  0  0  0  0  0
    4.1788    1.4513   19.7014 C   0  0  0  0  0  0  0  0  0  0  0  0
    3.1692    1.7973   20.1085 N   0  0  0  0  0  0  0  0  0  0  0  0
  1  2  2  0
  2  3  1  0
  3  4  1  0
  4  5  2  0
  5  6  1  0
  6  7  1  0
  7  8  2  0
  8  9  1  0
  9 10  2  0
 10 11  1  0
 11 12  2  0
  2 13  1  0
 13 14  1  0
 14 15  2  0
 15 16  1  0
 16 17  2  0
 17 18  1  0
 18 19  2  0
 18 20  1  0
 20 21  3  0
 12  4  1  0
 19 14  1  0
 12  7  1  0
M  END
