CVD-0000256|dock_bobby27042020.71|mol2|2|dock3
     RDKit          3D

 25 27  0  0  0  0  0  0  0  0999 V2000
    5.6503   -0.6933   21.9788 Br  0  0  0  0  0  0  0  0  0  0  0  0
    5.6223    0.2595   20.3386 C   0  0  0  0  0  0  0  0  0  0  0  0
    4.5352    0.9678   20.0990 N   0  0  0  0  0  0  0  0  0  0  0  0
    4.4913    1.6487   18.9464 C   0  0  0  0  0  0  0  0  0  0  0  0
    5.5139    1.6363   18.0257 C   0  0  0  0  0  0  0  0  0  0  0  0
    6.6383    0.8817   18.3125 C   0  0  0  0  0  0  0  0  0  0  0  0
    6.7137    0.1643   19.5023 C   0  0  0  0  0  0  0  0  0  0  0  0
    7.9251   -0.6723   19.8451 C   0  0  0  0  0  0  0  0  0  0  0  0
    8.8146   -0.0367   20.8952 C   0  0  0  0  0  0  0  0  0  0  0  0
    8.4267    0.9262   21.5483 O   0  0  0  0  0  0  0  0  0  0  0  0
   10.0216   -0.6409   21.0180 N   0  0  0  0  0  0  0  0  0  0  0  0
   11.1230   -0.3766   21.8702 C   0  0  0  0  0  0  0  0  0  0  0  0
   11.8995   -1.3810   22.4417 C   0  0  0  0  0  0  0  0  0  0  0  0
   12.9628   -1.0515   23.2646 C   0  0  0  0  0  0  0  0  0  0  0  0
   13.2642    0.2726   23.5303 C   0  0  0  0  0  0  0  0  0  0  0  0
   12.4933    1.2737   22.9677 C   0  0  0  0  0  0  0  0  0  0  0  0
   12.8200    2.5766   23.2525 O   0  0  0  0  0  0  0  0  0  0  0  0
   12.5579    3.6244   22.3064 C   0  0  0  0  0  0  0  0  0  0  0  0
   13.3005    4.8610   22.7456 C   0  0  0  0  0  0  0  0  0  0  0  0
   12.6669    5.4753   23.9145 N   0  0  0  0  0  0  0  0  0  0  0  0
   11.5006    6.0998   24.0181 C   0  0  0  0  0  0  0  0  0  0  0  0
   11.3064    6.5368   25.2429 N   0  0  0  0  0  0  0  0  0  0  0  0
   12.4355    6.1465   25.8661 C   0  0  0  0  0  0  0  0  0  0  0  0
   13.3018    5.5046   25.1144 N   0  0  0  0  0  0  0  0  0  0  0  0
   11.4285    0.9544   22.1372 C   0  0  0  0  0  0  0  0  0  0  0  0
  1  2  1  0
  2  3  2  0
  3  4  1  0
  4  5  2  0
  5  6  1  0
  6  7  2  0
  7  8  1  0
  8  9  1  0
  9 10  2  0
  9 11  1  0
 11 12  1  0
 12 13  2  0
 13 14  1  0
 14 15  2  0
 15 16  1  0
 16 17  1  0
 17 18  1  0
 18 19  1  0
 19 20  1  0
 20 21  1  0
 21 22  2  0
 22 23  1  0
 23 24  2  0
 16 25  2  0
  7  2  1  0
 25 12  1  0
 24 20  1  0
M  END
