CVD-0001863|dock_bobby27042020.65|mol2|38|dock2
     RDKit          3D

 33 35  0  0  0  0  0  0  0  0999 V2000
    5.4777   -6.4899   21.7208 C   0  0  0  0  0  0  0  0  0  0  0  0
    5.7323   -5.2482   21.0666 O   0  0  0  0  0  0  0  0  0  0  0  0
    6.6536   -4.3707   21.5817 C   0  0  0  0  0  0  0  0  0  0  0  0
    7.5295   -4.7315   22.5943 C   0  0  0  0  0  0  0  0  0  0  0  0
    8.4421   -3.8123   23.0828 C   0  0  0  0  0  0  0  0  0  0  0  0
    8.4948   -2.5172   22.5723 C   0  0  0  0  0  0  0  0  0  0  0  0
    9.3972   -1.5192   23.0222 N   0  0  0  0  0  0  0  0  0  0  0  0
   10.0248   -0.5134   22.3513 C   0  0  0  0  0  0  0  0  0  0  0  0
    9.8888   -0.3044   21.1491 O   0  0  0  0  0  0  0  0  0  0  0  0
   10.9841    0.4003   23.1586 C   0  0  0  0  0  0  0  0  0  0  0  0
   11.2874    1.7198   22.5344 N   0  0  0  0  0  0  0  0  0  0  0  0
   12.5467    1.9359   21.9821 C   0  0  0  0  0  0  0  0  0  0  0  0
   13.4147    1.0643   21.9966 O   0  0  0  0  0  0  0  0  0  0  0  0
   12.9136    3.2302   21.3369 C   0  0  0  0  0  0  0  0  0  0  0  0
   14.0128    3.8568   21.6658 C   0  0  0  0  0  0  0  0  0  0  0  0
   10.2771    2.7451   22.5548 C   0  0  0  0  0  0  0  0  0  0  0  0
    8.9804    2.4797   22.1430 C   0  0  0  0  0  0  0  0  0  0  0  0
    8.0009    3.4554   22.1624 C   0  0  0  0  0  0  0  0  0  0  0  0
    8.2883    4.7528   22.5950 C   0  0  0  0  0  0  0  0  0  0  0  0
    7.2466    5.7461   22.5746 N   0  0  0  0  0  0  0  0  0  0  0  0
    6.4518    6.0759   23.7461 C   0  0  0  0  0  0  0  0  0  0  0  0
    7.0659    6.5682   21.3896 C   0  0  0  0  0  0  0  0  0  0  0  0
    9.5873    5.0454   23.0396 C   0  0  0  0  0  0  0  0  0  0  0  0
   10.0571    6.3622   23.6034 C   0  0  0  0  0  0  0  0  0  0  0  0
   10.5501    4.0409   22.9772 C   0  0  0  0  0  0  0  0  0  0  0  0
   12.2530   -0.2848   23.6678 C   0  0  0  0  0  0  0  0  0  0  0  0
   12.6228   -1.5245   23.1657 C   0  0  0  0  0  0  0  0  0  0  0  0
   13.7789   -2.1424   23.6092 C   0  0  0  0  0  0  0  0  0  0  0  0
   14.5449   -1.5006   24.5545 C   0  0  0  0  0  0  0  0  0  0  0  0
   14.2212   -0.3133   25.0663 N   0  0  0  0  0  0  0  0  0  0  0  0
   13.0960    0.2590   24.6276 C   0  0  0  0  0  0  0  0  0  0  0  0
    7.6113   -2.1732   21.5568 C   0  0  0  0  0  0  0  0  0  0  0  0
    6.6991   -3.0887   21.0650 C   0  0  0  0  0  0  0  0  0  0  0  0
  1  2  1  0
  2  3  1  0
  3  4  2  0
  4  5  1  0
  5  6  2  0
  6  7  1  0
  7  8  1  0
  8  9  2  0
  8 10  1  0
 10 11  1  0
 11 12  1  0
 12 13  2  0
 12 14  1  0
 14 15  2  0
 11 16  1  0
 16 17  2  0
 17 18  1  0
 18 19  2  0
 19 20  1  0
 20 21  1  0
 20 22  1  0
 19 23  1  0
 23 24  1  0
 23 25  2  0
 10 26  1  0
 26 27  2  0
 27 28  1  0
 28 29  2  0
 29 30  1  0
 30 31  2  0
  6 32  1  0
 32 33  2  0
 33  3  1  0
 25 16  1  0
 31 26  1  0
M  END
