CVD-0000178|dock_bobby27042020.99|mol2|26|dock2
     RDKit          3D

 18 20  0  0  0  0  0  0  0  0999 V2000
   14.3053    6.1857   21.7655 C   0  0  0  0  0  0  0  0  0  0  0  0
   13.0094    5.4334   21.6840 C   0  0  0  0  0  0  0  0  0  0  0  0
   12.6349    4.8960   20.6464 O   0  0  0  0  0  0  0  0  0  0  0  0
   12.2960    5.3687   22.8098 N   0  0  0  0  0  0  0  0  0  0  0  0
   11.0267    4.6607   22.8951 C   0  0  0  0  0  0  0  0  0  0  0  0
   11.1639    3.1993   22.5012 C   0  0  0  0  0  0  0  0  0  0  0  0
   10.0048    2.2790   22.9211 C   0  0  0  0  0  0  0  0  0  0  0  0
    8.6589    2.6666   22.2781 C   0  0  0  0  0  0  0  0  0  0  0  0
    8.1157    1.4437   21.5393 C   0  0  0  0  0  0  0  0  0  0  0  0
    9.1946    0.4014   21.6710 C   0  0  0  0  0  0  0  0  0  0  0  0
    9.2025   -0.8821   21.1279 C   0  0  0  0  0  0  0  0  0  0  0  0
   10.2983   -1.7133   21.3260 C   0  0  0  0  0  0  0  0  0  0  0  0
   11.3697   -1.2306   22.0719 C   0  0  0  0  0  0  0  0  0  0  0  0
   12.6579   -1.9383   22.3721 C   0  0  0  0  0  0  0  0  0  0  0  0
   13.3684   -1.0306   23.3765 C   0  0  0  0  0  0  0  0  0  0  0  0
   12.6605    0.3276   23.3289 C   0  0  0  0  0  0  0  0  0  0  0  0
   11.3671    0.0521   22.6174 C   0  0  0  0  0  0  0  0  0  0  0  0
   10.2613    0.8838   22.4145 C   0  0  0  0  0  0  0  0  0  0  0  0
  1  2  1  0
  2  3  2  0
  2  4  1  0
  4  5  1  0
  5  6  1  0
  6  7  1  0
  7  8  1  0
  8  9  1  0
  9 10  1  0
 10 11  2  0
 11 12  1  0
 12 13  2  0
 13 14  1  0
 14 15  1  0
 15 16  1  0
 16 17  1  0
 17 18  2  0
 18  7  1  0
 18 10  1  0
 17 13  1  0
M  END
