CVD-0000455|dock_bobby27042020.98|mol2|28|dock2
     RDKit          3D

 36 40  0  0  0  0  0  0  0  0999 V2000
    5.7903   -5.2042   23.2407 C   0  0  0  0  0  0  0  0  0  0  0  0
    6.3096   -3.8747   22.9132 N   0  0  0  0  0  0  0  0  0  0  0  0
    5.8652   -3.4888   21.5604 C   0  0  0  0  0  0  0  0  0  0  0  0
    6.8179   -2.5829   20.8079 C   0  0  0  0  0  0  0  0  0  0  0  0
    6.5294   -2.2564   19.4863 C   0  0  0  0  0  0  0  0  0  0  0  0
    7.3164   -1.3661   18.7809 C   0  0  0  0  0  0  0  0  0  0  0  0
    8.3971   -0.8067   19.4171 C   0  0  0  0  0  0  0  0  0  0  0  0
    9.1973    0.0097   18.6933 F   0  0  0  0  0  0  0  0  0  0  0  0
    8.7344   -1.0955   20.7370 C   0  0  0  0  0  0  0  0  0  0  0  0
    7.9222   -2.0044   21.4412 C   0  0  0  0  0  0  0  0  0  0  0  0
    8.2743   -2.4286   22.8407 C   0  0  0  0  0  0  0  0  0  0  0  0
    7.7595   -3.8283   23.0988 C   0  0  0  0  0  0  0  0  0  0  0  0
    8.1373   -4.3129   24.5124 C   0  0  0  0  0  0  0  0  0  0  0  0
    7.5061   -3.9384   25.4750 O   0  0  0  0  0  0  0  0  0  0  0  0
    9.3161   -5.2616   24.6762 C   0  0  0  0  0  0  0  0  0  0  0  0
   10.6334   -4.7008   25.1088 C   0  0  0  0  0  0  0  0  0  0  0  0
    9.8154   -5.5236   26.0680 C   0  0  0  0  0  0  0  0  0  0  0  0
   10.0357   -6.9205   26.2684 O   0  0  0  0  0  0  0  0  0  0  0  0
    9.9732   -0.5309   21.3686 C   0  0  0  0  0  0  0  0  0  0  0  0
   11.1050   -1.3427   21.4372 C   0  0  0  0  0  0  0  0  0  0  0  0
   12.2612   -0.8426   21.9717 C   0  0  0  0  0  0  0  0  0  0  0  0
   13.3474   -1.6464   22.0359 F   0  0  0  0  0  0  0  0  0  0  0  0
   12.3810    0.4384   22.4475 C   0  0  0  0  0  0  0  0  0  0  0  0
   13.6679    0.9731   23.0184 C   0  0  0  0  0  0  0  0  0  0  0  0
   11.2462    1.2427   22.3888 C   0  0  0  0  0  0  0  0  0  0  0  0
   10.0292    0.7788   21.8825 C   0  0  0  0  0  0  0  0  0  0  0  0
    8.7906    1.6572   21.8816 C   0  0  0  0  0  0  0  0  0  0  0  0
    8.9670    3.0026   22.5307 C   0  0  0  0  0  0  0  0  0  0  0  0
    7.7046    3.7384   22.4813 N   0  0  0  0  0  0  0  0  0  0  0  0
    6.5722    2.9776   23.0050 C   0  0  0  0  0  0  0  0  0  0  0  0
    6.5092    1.6328   22.3439 C   0  0  0  0  0  0  0  0  0  0  0  0
    7.7297    0.9236   22.4760 O   0  0  0  0  0  0  0  0  0  0  0  0
    7.6165    4.9685   21.9196 C   0  0  0  0  0  0  0  0  0  0  0  0
    8.5935    5.5220   21.4306 O   0  0  0  0  0  0  0  0  0  0  0  0
    6.2690    5.6649   21.9106 C   0  0  0  0  0  0  0  0  0  0  0  0
    6.4183    7.3078   21.2733 Cl  0  0  0  0  0  0  0  0  0  0  0  0
  1  2  1  0
  2  3  1  0
  3  4  1  0
  4  5  2  0
  5  6  1  0
  6  7  2  0
  7  8  1  0
  7  9  1  0
  9 10  2  0
 10 11  1  0
 11 12  1  0
 12 13  1  0
 13 14  2  0
 15 13  1  0
 15 16  1  0
 16 17  1  0
 17 18  1  0
  9 19  1  0
 19 20  2  0
 20 21  1  0
 21 22  1  0
 21 23  2  0
 23 24  1  0
 23 25  1  0
 25 26  2  0
 27 26  1  0
 27 28  1  0
 28 29  1  0
 29 30  1  0
 30 31  1  0
 31 32  1  0
 29 33  1  0
 33 34  2  0
 33 35  1  0
 35 36  1  0
 12  2  1  0
 17 15  1  0
 26 19  1  0
 32 27  1  0
 10  4  1  0
M  END
