CVD-0000164|dock_bobby27042020.28|mol2|16|dock2
     RDKit          3D

 15 15  0  0  0  0  0  0  0  0999 V2000
   13.2123    1.8184   22.7225 C   0  0  0  0  0  0  0  0  0  0  0  0
   12.2317    1.0013   23.5461 C   0  0  0  0  0  0  0  0  0  0  0  0
   11.5812   -0.4507   22.6790 P   0  0  0  0  0  0  0  0  0  0  0  0
   12.8897   -1.4856   21.9719 C   0  0  0  0  0  0  0  0  0  0  0  0
   13.7170   -2.2192   23.0136 C   0  0  0  0  0  0  0  0  0  0  0  0
   10.6125   -1.4444   23.8398 C   0  0  0  0  0  0  0  0  0  0  0  0
    9.8475   -2.5412   23.1199 C   0  0  0  0  0  0  0  0  0  0  0  0
   10.4088    0.2354   21.1597 Au  0  0  0  0  0  3  0  0  0  0  0  0
    8.9306    1.2683   20.9263 S   0  0  0  0  0  0  0  0  0  0  0  0
    7.4342    0.5057   20.4039 C   0  0  0  0  0  0  0  0  0  0  0  0
    7.5844   -0.1114   18.9983 C   0  0  0  0  0  0  0  0  0  0  0  0
    6.2799   -0.7186   18.4858 C   0  0  0  0  0  0  0  0  0  0  0  0
    5.1426    0.2940   18.5281 C   0  0  0  0  0  0  0  0  0  0  0  0
    4.9777    0.8765   19.9244 C   0  0  0  0  0  0  0  0  0  0  0  0
    6.2738    1.5155   20.4124 C   0  0  0  0  0  0  0  0  0  0  0  0
  1  2  1  0
  2  3  1  0
  3  4  1  0
  4  5  1  0
  3  6  1  0
  6  7  1  0
  3  8  2  3
  8  9  1  0
  9 10  1  0
 10 11  1  0
 11 12  1  0
 12 13  1  0
 13 14  1  0
 14 15  1  0
 15 10  1  0
M  END
