CVD-0003106|dock_bobby27042020.17|mol2|28|dock1
     RDKit          3D

 34 37  0  0  0  0  0  0  0  0999 V2000
   10.2249   -4.9452   25.4620 N   0  0  0  0  0  0  0  0  0  0  0  0
    9.2672   -4.8666   26.7425 S   0  0  0  0  0  0  0  0  0  0  0  0
    9.0561   -3.4794   27.0288 O   0  0  0  0  0  0  0  0  0  0  0  0
    9.8427   -5.7019   27.7536 O   0  0  0  0  0  0  0  0  0  0  0  0
    7.6998   -5.5614   26.3131 C   0  0  0  0  0  0  0  0  0  0  0  0
    7.0161   -6.3276   27.2412 C   0  0  0  0  0  0  0  0  0  0  0  0
    5.8236   -6.9159   26.8710 C   0  0  0  0  0  0  0  0  0  0  0  0
    5.3017   -6.7535   25.5928 C   0  0  0  0  0  0  0  0  0  0  0  0
    3.9492   -7.3179   25.2315 C   0  0  0  0  0  0  0  0  0  0  0  0
    3.8281   -7.5223   23.7357 C   0  0  0  0  0  0  0  0  0  0  0  0
    4.1778   -6.2378   23.0056 C   0  0  0  0  0  0  0  0  0  0  0  0
    5.5373   -5.8311   23.3372 N   0  0  0  0  0  0  0  0  0  0  0  0
    6.2375   -4.9628   22.3844 C   0  0  0  0  0  0  0  0  0  0  0  0
    6.0194   -3.4743   22.6179 C   0  0  0  0  0  0  0  0  0  0  0  0
    6.7834   -2.5372   21.6837 C   0  0  0  0  0  0  0  0  0  0  0  0
    6.5487   -2.9324   20.2208 C   0  0  0  0  0  0  0  0  0  0  0  0
    6.6606   -1.7817   19.2505 C   0  0  0  0  0  0  0  0  0  0  0  0
    7.8845   -1.1981   18.9670 C   0  0  0  0  0  0  0  0  0  0  0  0
    7.9376   -0.1454   18.0749 C   0  0  0  0  0  0  0  0  0  0  0  0
    6.8673    0.3559   17.4574 N   0  0  0  0  0  0  0  0  0  0  0  0
    5.6935   -0.2112   17.7378 C   0  0  0  0  0  0  0  0  0  0  0  0
    5.5426   -1.2668   18.6152 C   0  0  0  0  0  0  0  0  0  0  0  0
    8.2135   -2.5890   21.9881 N   0  0  0  0  0  0  0  0  0  0  0  0
    8.9815   -1.4821   22.0886 C   0  0  0  0  0  0  0  0  0  0  0  0
    8.5479   -0.3558   21.8607 O   0  0  0  0  0  0  0  0  0  0  0  0
   10.2616   -1.7055   22.4583 N   0  0  0  0  0  0  0  0  0  0  0  0
   11.2617   -0.6405   22.5367 C   0  0  0  0  0  0  0  0  0  0  0  0
   12.6732   -1.1773   22.2226 C   0  0  0  0  0  0  0  0  0  0  0  0
   13.7506   -0.1040   22.3671 C   0  0  0  0  0  0  0  0  0  0  0  0
   13.6997    0.5514   23.7412 C   0  0  0  0  0  0  0  0  0  0  0  0
   12.3134    1.1076   24.0333 C   0  0  0  0  0  0  0  0  0  0  0  0
   11.2487    0.0208   23.9254 C   0  0  0  0  0  0  0  0  0  0  0  0
    6.0039   -5.9711   24.6512 C   0  0  0  0  0  0  0  0  0  0  0  0
    7.2086   -5.3782   25.0289 C   0  0  0  0  0  0  0  0  0  0  0  0
  1  2  1  0
  2  3  2  0
  2  4  2  0
  2  5  1  0
  5  6  2  0
  6  7  1  0
  7  8  2  0
  8  9  1  0
  9 10  1  0
 10 11  1  0
 11 12  1  0
 12 13  1  0
 13 14  1  0
 14 15  1  0
 15 16  1  0
 16 17  1  0
 17 18  2  0
 18 19  1  0
 19 20  2  0
 20 21  1  0
 21 22  2  0
 15 23  1  0
 23 24  1  0
 24 25  2  0
 24 26  1  0
 26 27  1  0
 27 28  1  0
 28 29  1  0
 29 30  1  0
 30 31  1  0
 31 32  1  0
 12 33  1  0
 33 34  2  0
 34  5  1  0
 33  8  1  0
 22 17  1  0
 32 27  1  0
M  END
