CVD-0000255|dock_bobby27042020.85|mol2|6|dock1
     RDKit          3D

 23 25  0  0  0  0  0  0  0  0999 V2000
    8.1825    0.5406   18.8077 O   0  0  0  0  0  0  0  0  0  0  0  0
    7.6308   -0.2526   19.8621 C   0  0  0  0  0  0  0  0  0  0  0  0
    7.6280    0.5571   21.1463 C   0  0  0  0  0  0  0  0  0  0  0  0
    8.9375    1.1308   21.4288 N   0  0  0  0  0  0  0  0  0  0  0  0
    9.1055    2.1232   22.3049 C   0  0  0  0  0  0  0  0  0  0  0  0
    8.1432    2.5888   22.9082 O   0  0  0  0  0  0  0  0  0  0  0  0
   10.4886    2.6676   22.5471 C   0  0  0  0  0  0  0  0  0  0  0  0
   10.5562    4.0490   22.7569 C   0  0  0  0  0  0  0  0  0  0  0  0
   11.7633    4.6835   22.9916 C   0  0  0  0  0  0  0  0  0  0  0  0
   12.9328    3.9613   23.0236 C   0  0  0  0  0  0  0  0  0  0  0  0
   12.9054    2.5942   22.8207 C   0  0  0  0  0  0  0  0  0  0  0  0
   11.6989    1.9428   22.5836 C   0  0  0  0  0  0  0  0  0  0  0  0
   11.6225    0.5883   22.3766 O   0  0  0  0  0  0  0  0  0  0  0  0
   12.2531   -0.3550   23.2784 C   0  0  0  0  0  0  0  0  0  0  0  0
   13.7919   -0.6784   23.0367 C   0  0  0  0  0  0  0  0  0  0  0  0
   13.4308   -2.1182   22.7461 C   0  0  0  0  0  0  0  0  0  0  0  0
   11.9202   -1.8576   22.8521 C   0  0  0  0  0  0  0  0  0  0  0  0
    6.2253   -0.6912   19.4811 C   0  0  0  0  0  0  0  0  0  0  0  0
    5.4844    0.3881   18.8361 N   0  0  0  0  0  0  0  0  0  0  0  0
    4.4805    1.1259   19.3409 C   0  0  0  0  0  0  0  0  0  0  0  0
    4.1703    1.9993   18.3582 C   0  0  0  0  0  0  0  0  0  0  0  0
    4.9826    1.7815   17.3040 N   0  0  0  0  0  0  0  0  0  0  0  0
    5.8026    0.7976   17.5971 N   0  0  0  0  0  0  0  0  0  0  0  0
  1  2  1  0
  2  3  1  0
  3  4  1  0
  4  5  1  0
  5  6  2  0
  5  7  1  0
  7  8  2  0
  8  9  1  0
  9 10  2  0
 10 11  1  0
 11 12  2  0
 12 13  1  0
 13 14  1  0
 14 15  1  0
 15 16  1  0
 16 17  1  0
  2 18  1  0
 18 19  1  0
 19 20  1  0
 20 21  2  0
 21 22  1  0
 22 23  2  0
 12  7  1  0
 17 14  1  0
 23 19  1  0
M  END
