CVD-0001186|dock_bobby27042020.81|mol2|47|dock3
     RDKit          3D

 18 20  0  0  0  0  0  0  0  0999 V2000
    5.5649    1.7721   17.0178 N   0  0  0  0  0  0  0  0  0  0  0  0
    5.7505    1.2729   18.2857 C   0  0  0  0  0  0  0  0  0  0  0  0
    4.7146    1.2647   19.2129 C   0  0  0  0  0  0  0  0  0  0  0  0
    4.8597    0.7881   20.4520 N   0  0  0  0  0  0  0  0  0  0  0  0
    6.0511    0.2999   20.8109 C   0  0  0  0  0  0  0  0  0  0  0  0
    7.1552    0.2600   19.9618 C   0  0  0  0  0  0  0  0  0  0  0  0
    8.4221   -0.2555   20.3329 N   0  0  0  0  0  0  0  0  0  0  0  0
    9.1099   -0.1735   21.5190 C   0  0  0  0  0  0  0  0  0  0  0  0
    8.7262    0.3974   22.5355 O   0  0  0  0  0  0  0  0  0  0  0  0
   10.3036   -0.8047   21.4725 N   0  0  0  0  0  0  0  0  0  0  0  0
   11.2551   -0.7844   22.5836 C   0  0  0  0  0  0  0  0  0  0  0  0
   11.8643    0.6160   22.7384 C   0  0  0  0  0  0  0  0  0  0  0  0
   12.8672    0.6036   23.9092 C   0  0  0  0  0  0  0  0  0  0  0  0
   13.7437   -0.6181   23.9612 C   0  0  0  0  0  0  0  0  0  0  0  0
   14.5204   -0.9584   22.7917 O   0  0  0  0  0  0  0  0  0  0  0  0
   13.4490   -1.8477   23.2185 C   0  0  0  0  0  0  0  0  0  0  0  0
   12.2276   -1.9519   22.3283 C   0  0  0  0  0  0  0  0  0  0  0  0
    6.9861    0.7603   18.6760 C   0  0  0  0  0  0  0  0  0  0  0  0
  1  2  1  0
  2  3  2  0
  3  4  1  0
  4  5  2  0
  5  6  1  0
  6  7  1  0
  7  8  1  0
  8  9  2  0
  8 10  1  0
 11 10  1  0
 11 12  1  0
 12 13  1  0
 14 13  1  0
 14 15  1  0
 15 16  1  0
 16 17  1  0
  6 18  2  0
 18  2  1  0
 17 11  1  0
 16 14  1  0
M  END
