CVD-0003920|dock_bobby27042020.0|mol2|25|dock1
     RDKit          3D

 26 28  0  0  0  0  0  0  0  0999 V2000
   13.5312   -1.0000   23.7819 O   0  0  0  0  0  0  0  0  0  0  0  0
   12.3285   -0.6837   23.0757 C   0  0  0  0  0  0  0  0  0  0  0  0
   11.3154    0.0076   23.9676 C   0  0  0  0  0  0  0  0  0  0  0  0
   10.0052    0.3200   23.2400 C   0  0  0  0  0  0  0  0  0  0  0  0
    9.4269   -0.9647   22.6553 C   0  0  0  0  0  0  0  0  0  0  0  0
   10.4123   -1.6296   21.7070 C   0  0  0  0  0  0  0  0  0  0  0  0
   11.7147   -1.9301   22.4575 C   0  0  0  0  0  0  0  0  0  0  0  0
    8.1067   -0.7131   21.9732 N   0  0  0  0  0  0  0  0  0  0  0  0
    8.0915    0.2328   20.9374 C   0  0  0  0  0  0  0  0  0  0  0  0
    9.1474    0.6916   20.5358 O   0  0  0  0  0  0  0  0  0  0  0  0
    6.8692    0.7705   20.2462 C   0  0  0  0  0  0  0  0  0  0  0  0
    6.8508    0.7946   18.8555 C   0  0  0  0  0  0  0  0  0  0  0  0
    5.7546    1.2864   18.1668 C   0  0  0  0  0  0  0  0  0  0  0  0
    4.6612    1.7664   18.8540 C   0  0  0  0  0  0  0  0  0  0  0  0
    4.6655    1.7608   20.2317 C   0  0  0  0  0  0  0  0  0  0  0  0
    5.7609    1.2732   20.9248 C   0  0  0  0  0  0  0  0  0  0  0  0
    6.7177   -1.5124   22.4866 S   0  0  0  0  0  0  0  0  0  0  0  0
    5.6715   -1.2574   21.5457 O   0  0  0  0  0  0  0  0  0  0  0  0
    6.5444   -1.1866   23.8681 O   0  0  0  0  0  0  0  0  0  0  0  0
    6.8923   -3.2803   22.3644 C   0  0  0  0  0  0  0  0  0  0  0  0
    6.4392   -3.9129   21.2149 C   0  0  0  0  0  0  0  0  0  0  0  0
    6.5801   -5.2863   21.0954 C   0  0  0  0  0  0  0  0  0  0  0  0
    7.1657   -6.0271   22.1001 C   0  0  0  0  0  0  0  0  0  0  0  0
    7.6249   -5.4080   23.2497 C   0  0  0  0  0  0  0  0  0  0  0  0
    7.4800   -4.0463   23.3602 C   0  0  0  0  0  0  0  0  0  0  0  0
    7.9279   -3.4385   24.4828 F   0  0  0  0  0  0  0  0  0  0  0  0
  1  2  1  0
  2  3  1  0
  3  4  1  0
  4  5  1  0
  5  6  1  0
  6  7  1  0
  5  8  1  0
  8  9  1  0
  9 10  2  0
  9 11  1  0
 11 12  2  0
 12 13  1  0
 13 14  2  0
 14 15  1  0
 15 16  2  0
  8 17  1  0
 17 18  2  0
 17 19  2  0
 17 20  1  0
 20 21  2  0
 21 22  1  0
 22 23  2  0
 23 24  1  0
 24 25  2  0
 25 26  1  0
  7  2  1  0
 16 11  1  0
 25 20  1  0
M  END
