CVD-0002466|dock_bobby27042020.48|mol2|27|dock1
     RDKit          3D

 42 46  0  0  0  0  0  0  0  0999 V2000
    2.5061   -8.1032   30.2106 C   0  0  0  0  0  0  0  0  0  0  0  0
    3.7696   -7.8122   29.4381 C   0  0  0  0  0  0  0  0  0  0  0  0
    3.7605   -7.7396   28.0547 C   0  0  0  0  0  0  0  0  0  0  0  0
    4.9140   -7.4718   27.3398 C   0  0  0  0  0  0  0  0  0  0  0  0
    6.1092   -7.2701   28.0080 C   0  0  0  0  0  0  0  0  0  0  0  0
    7.2374   -7.0071   27.2693 O   0  0  0  0  0  0  0  0  0  0  0  0
    8.3066   -6.2396   27.8156 C   0  0  0  0  0  0  0  0  0  0  0  0
    9.3631   -5.9706   26.7560 C   0  0  0  0  0  0  0  0  0  0  0  0
   10.5277   -6.3057   26.9320 O   0  0  0  0  0  0  0  0  0  0  0  0
    8.9586   -5.3600   25.6237 N   0  0  0  0  0  0  0  0  0  0  0  0
    7.5964   -4.9101   25.3206 C   0  0  0  0  0  0  0  0  0  0  0  0
    7.6103   -3.5107   24.7626 C   0  0  0  0  0  0  0  0  0  0  0  0
    8.4650   -3.4323   23.5667 N   0  0  0  0  0  0  0  0  0  0  0  0
    9.8219   -3.8136   23.9614 C   0  0  0  0  0  0  0  0  0  0  0  0
    9.8581   -5.2318   24.4788 C   0  0  0  0  0  0  0  0  0  0  0  0
    8.4467   -2.0717   22.9838 C   0  0  0  0  0  0  0  0  0  0  0  0
    9.5680   -1.2128   23.5397 C   0  0  0  0  0  0  0  0  0  0  0  0
    9.5378    0.1610   22.8823 C   0  0  0  0  0  0  0  0  0  0  0  0
    9.6040    0.0309   21.3742 C   0  0  0  0  0  0  0  0  0  0  0  0
    8.5094   -0.8226   20.8921 N   0  0  0  0  0  0  0  0  0  0  0  0
    8.5049   -2.1710   21.4673 C   0  0  0  0  0  0  0  0  0  0  0  0
    7.7265   -0.5488   19.8292 C   0  0  0  0  0  0  0  0  0  0  0  0
    7.8906    0.4610   19.1561 O   0  0  0  0  0  0  0  0  0  0  0  0
    6.6321   -1.5374   19.4990 C   0  0  0  0  0  0  0  0  0  0  0  0
    5.7015   -1.0115   18.4239 C   0  0  0  0  0  0  0  0  0  0  0  0
    5.2090    0.3240   18.7307 N   0  0  0  0  0  0  0  0  0  0  0  0
    4.5678    0.6097   19.8637 C   0  0  0  0  0  0  0  0  0  0  0  0
    4.3508   -0.2389   20.7246 O   0  0  0  0  0  0  0  0  0  0  0  0
    4.1273    2.0524   20.0104 C   0  0  0  0  0  0  0  0  0  0  0  0
    4.0692    2.5035   21.4679 C   0  0  0  0  0  0  0  0  0  0  0  0
    3.6771    3.9696   21.5282 C   0  0  0  0  0  0  0  0  0  0  0  0
    2.3735    4.1852   20.9088 N   0  0  0  0  0  0  0  0  0  0  0  0
    1.9576    5.5819   21.0524 C   0  0  0  0  0  0  0  0  0  0  0  0
    2.8720    6.5587   20.3575 C   0  0  0  0  0  0  0  0  0  0  0  0
    2.7378    6.9754   19.0102 C   0  0  0  0  0  0  0  0  0  0  0  0
    3.6860    7.8603   18.5942 C   0  0  0  0  0  0  0  0  0  0  0  0
    4.7597    8.1894   19.8680 S   0  0  0  0  0  0  0  0  0  0  0  0
    3.9494    7.1510   20.9432 C   0  0  0  0  0  0  0  0  0  0  0  0
    2.4566    3.8112   19.4927 C   0  0  0  0  0  0  0  0  0  0  0  0
    2.7957    2.3374   19.3317 C   0  0  0  0  0  0  0  0  0  0  0  0
    6.1381   -7.3331   29.3930 C   0  0  0  0  0  0  0  0  0  0  0  0
    4.9739   -7.6035   30.0904 C   0  0  0  0  0  0  0  0  0  0  0  0
  1  2  1  0
  2  3  2  0
  3  4  1  0
  4  5  2  0
  5  6  1  0
  6  7  1  0
  7  8  1  0
  8  9  2  0
  8 10  1  0
 10 11  1  0
 11 12  1  0
 12 13  1  0
 13 14  1  0
 14 15  1  0
 13 16  1  0
 16 17  1  0
 17 18  1  0
 18 19  1  0
 19 20  1  0
 20 21  1  0
 20 22  1  0
 22 23  2  0
 22 24  1  0
 24 25  1  0
 25 26  1  0
 26 27  1  0
 27 28  2  0
 27 29  1  0
 29 30  1  0
 30 31  1  0
 31 32  1  0
 32 33  1  0
 33 34  1  0
 34 35  1  0
 35 36  2  0
 36 37  1  0
 37 38  1  0
 32 39  1  0
 39 40  1  0
  5 41  1  0
 41 42  2  0
 42  2  1  0
 15 10  1  0
 21 16  1  0
 40 29  1  0
 38 34  2  0
M  END
