CVD-0003077|dock_bobby27042020.46|mol2|25|dock2
     RDKit          3D

 16 17  0  0  0  0  0  0  0  0999 V2000
    9.0025    6.4248   24.1153 C   0  0  0  0  0  0  0  0  0  0  0  0
    8.8770    5.7418   22.7895 C   0  0  0  0  0  0  0  0  0  0  0  0
    9.5664    4.4565   22.7802 N   0  0  0  0  0  0  0  0  0  0  0  0
   10.9051    4.3403   22.6768 C   0  0  0  0  0  0  0  0  0  0  0  0
   11.6717    5.4119   22.5768 N   0  0  0  0  0  0  0  0  0  0  0  0
   13.2415    4.8961   22.4698 S   0  0  0  0  0  0  0  0  0  0  0  0
   12.9136    3.2447   22.5595 C   0  0  0  0  0  0  0  0  0  0  0  0
   11.5739    3.0497   22.6694 C   0  0  0  0  0  0  0  0  0  0  0  0
   10.9323    1.6900   22.7779 C   0  0  0  0  0  0  0  0  0  0  0  0
   11.8704    0.5717   22.6570 N   0  0  0  0  0  0  0  0  0  0  0  0
   12.4362    0.2212   23.9653 C   0  0  0  0  0  0  0  0  0  0  0  0
   13.4517   -0.8993   23.8575 C   0  0  0  0  0  0  0  0  0  0  0  0
   12.8805   -2.1500   23.2005 C   0  0  0  0  0  0  0  0  0  0  0  0
   13.8493   -3.1765   22.9706 O   0  0  0  0  0  0  0  0  0  0  0  0
   12.2102   -1.7431   21.8929 C   0  0  0  0  0  0  0  0  0  0  0  0
   11.2183   -0.6072   22.0804 C   0  0  0  0  0  0  0  0  0  0  0  0
  1  2  1  0
  2  3  1  0
  3  4  1  0
  4  5  2  0
  5  6  1  0
  6  7  1  0
  7  8  2  0
  8  9  1  0
  9 10  1  0
 10 11  1  0
 11 12  1  0
 12 13  1  0
 13 14  1  0
 13 15  1  0
 15 16  1  0
  8  4  1  0
 16 10  1  0
M  END
