CVD-0003782|dock_bobby27042020.86|mol2|41|dock1
     RDKit          3D

 25 27  0  0  0  0  0  0  0  0999 V2000
   13.6286    5.7715   21.5642 N   0  0  0  0  0  0  0  0  0  0  0  0
   13.5375    5.1147   23.0213 S   0  0  0  0  0  0  0  0  0  0  0  0
   14.8792    4.9251   23.4850 O   0  0  0  0  0  0  0  0  0  0  0  0
   12.6460    5.9247   23.7959 O   0  0  0  0  0  0  0  0  0  0  0  0
   12.8006    3.5156   22.8697 C   0  0  0  0  0  0  0  0  0  0  0  0
   13.5946    2.4102   22.6241 C   0  0  0  0  0  0  0  0  0  0  0  0
   13.0114    1.1612   22.5044 C   0  0  0  0  0  0  0  0  0  0  0  0
   11.6372    0.9864   22.6415 C   0  0  0  0  0  0  0  0  0  0  0  0
   10.8628    2.1144   22.8968 C   0  0  0  0  0  0  0  0  0  0  0  0
   11.4318    3.3709   23.0047 C   0  0  0  0  0  0  0  0  0  0  0  0
   11.0546   -0.2718   22.5281 N   0  0  0  0  0  0  0  0  0  0  0  0
    9.8768   -0.5309   21.6946 C   0  0  0  0  0  0  0  0  0  0  0  0
    8.8521   -1.3662   22.4088 C   0  0  0  0  0  0  0  0  0  0  0  0
    9.4606   -2.6860   22.8954 C   0  0  0  0  0  0  0  0  0  0  0  0
    8.4404   -3.5393   23.6142 C   0  0  0  0  0  0  0  0  0  0  0  0
    9.1401   -4.5455   24.3591 O   0  0  0  0  0  0  0  0  0  0  0  0
    8.5362   -5.1643   25.4258 C   0  0  0  0  0  0  0  0  0  0  0  0
    9.3475   -5.6151   26.4531 C   0  0  0  0  0  0  0  0  0  0  0  0
    8.7850   -6.2453   27.5500 C   0  0  0  0  0  0  0  0  0  0  0  0
    7.4154   -6.4277   27.6261 C   0  0  0  0  0  0  0  0  0  0  0  0
    6.6260   -5.9721   26.5939 C   0  0  0  0  0  0  0  0  0  0  0  0
    4.9016   -6.1986   26.6838 Cl  0  0  0  0  0  0  0  0  0  0  0  0
    7.1599   -5.3406   25.4888 C   0  0  0  0  0  0  0  0  0  0  0  0
   10.6641   -2.3777   23.7501 C   0  0  0  0  0  0  0  0  0  0  0  0
   11.6838   -1.5095   23.0442 C   0  0  0  0  0  0  0  0  0  0  0  0
  1  2  1  0
  2  3  2  0
  2  4  2  0
  2  5  1  0
  5  6  2  0
  6  7  1  0
  7  8  2  0
  8  9  1  0
  9 10  2  0
  8 11  1  0
 11 12  1  0
 12 13  1  0
 13 14  1  0
 14 15  1  0
 15 16  1  0
 16 17  1  0
 17 18  2  0
 18 19  1  0
 19 20  2  0
 20 21  1  0
 21 22  1  0
 21 23  2  0
 14 24  1  0
 24 25  1  0
 10  5  1  0
 25 11  1  0
 23 17  1  0
M  END
