CVD-0002193|dock_bobby27042020.7|mol2|5|dock2
     RDKit          3D

 22 24  0  0  0  0  0  0  0  0999 V2000
    5.4182    0.2711   18.4030 C   0  0  0  0  0  0  0  0  0  0  0  0
    6.1936   -0.9692   18.7195 C   0  0  0  0  0  0  0  0  0  0  0  0
    6.7681   -0.9097   20.0533 N   0  0  0  0  0  0  0  0  0  0  0  0
    7.1314   -2.0059   20.7403 C   0  0  0  0  0  0  0  0  0  0  0  0
    6.2189   -2.9945   20.8245 N   0  0  0  0  0  0  0  0  0  0  0  0
    6.5501   -4.0982   21.5037 C   0  0  0  0  0  0  0  0  0  0  0  0
    7.7803   -4.2784   22.1242 C   0  0  0  0  0  0  0  0  0  0  0  0
    8.7136   -3.2526   22.0295 C   0  0  0  0  0  0  0  0  0  0  0  0
    8.4091   -2.0897   21.3317 C   0  0  0  0  0  0  0  0  0  0  0  0
    9.4437   -0.9818   21.2443 C   0  0  0  0  0  0  0  0  0  0  0  0
   10.6770   -1.2149   22.0928 C   0  0  0  0  0  0  0  0  0  0  0  0
   11.8857   -1.5789   21.5090 C   0  0  0  0  0  0  0  0  0  0  0  0
   13.0317   -1.6972   22.2752 C   0  0  0  0  0  0  0  0  0  0  0  0
   12.9753   -1.4508   23.6403 C   0  0  0  0  0  0  0  0  0  0  0  0
   14.0362   -1.7736   24.6606 C   0  0  0  0  0  0  0  0  0  0  0  0
   13.3580   -1.4800   26.0108 N   0  0  0  0  0  0  0  0  0  0  0  0
   12.0387   -0.7540   25.6509 C   0  0  0  0  0  0  0  0  0  0  0  0
   11.2943   -0.2692   26.5523 O   0  0  0  0  0  0  0  0  0  0  0  0
   11.7907   -1.0872   24.2493 C   0  0  0  0  0  0  0  0  0  0  0  0
   10.6476   -0.9738   23.4605 C   0  0  0  0  0  0  0  0  0  0  0  0
    8.0847   -5.4898   22.8449 C   0  0  0  0  0  0  0  0  0  0  0  0
    8.3298   -6.4652   23.3867 N   0  0  0  0  0  0  0  0  0  0  0  0
  1  2  1  0
  2  3  1  0
  3  4  1  0
  4  5  2  0
  5  6  1  0
  6  7  2  0
  7  8  1  0
  8  9  2  0
  9 10  1  0
 10 11  1  0
 11 12  2  0
 12 13  1  0
 13 14  2  0
 14 15  1  0
 15 16  1  0
 16 17  1  0
 17 18  2  0
 17 19  1  0
 19 20  2  0
  7 21  1  0
 21 22  3  0
  9  4  1  0
 20 11  1  0
 19 14  1  0
M  CHG  1  16   1
M  END
