CVD-0003657|dock_bobby27042020.73|mol2|10|dock1
     RDKit          3D

 32 35  0  0  0  0  0  0  0  0999 V2000
    5.0431   -3.6223   26.5567 C   0  0  0  0  0  0  0  0  0  0  0  0
    5.5468   -4.5321   25.5809 O   0  0  0  0  0  0  0  0  0  0  0  0
    6.7869   -5.0856   25.7552 C   0  0  0  0  0  0  0  0  0  0  0  0
    7.3520   -5.3326   27.0023 C   0  0  0  0  0  0  0  0  0  0  0  0
    8.6162   -5.8854   27.0835 C   0  0  0  0  0  0  0  0  0  0  0  0
    9.3069   -6.1833   25.9318 C   0  0  0  0  0  0  0  0  0  0  0  0
    8.7416   -5.9374   24.6921 C   0  0  0  0  0  0  0  0  0  0  0  0
    7.4677   -5.3931   24.5748 C   0  0  0  0  0  0  0  0  0  0  0  0
    6.8436   -5.1447   23.1864 C   0  0  0  0  0  0  0  0  0  0  0  0
    7.0909   -3.6852   22.7541 C   0  0  0  0  0  0  0  0  0  0  0  0
    8.4276   -3.1922   23.0414 N   0  0  0  0  0  0  0  0  0  0  0  0
    9.3076   -2.9014   22.0846 C   0  0  0  0  0  0  0  0  0  0  0  0
    9.0797   -3.0191   20.8815 O   0  0  0  0  0  0  0  0  0  0  0  0
   10.6581   -2.3966   22.6089 C   0  0  0  0  0  0  0  0  0  0  0  0
   10.9344   -2.4037   23.8075 O   0  0  0  0  0  0  0  0  0  0  0  0
   11.4817   -1.9601   21.6572 N   0  0  0  0  0  0  0  0  0  0  0  0
   12.8082   -1.4427   21.9589 C   0  0  0  0  0  0  0  0  0  0  0  0
   12.8215    0.0414   22.2347 C   0  0  0  0  0  0  0  0  0  0  0  0
   11.6397    0.7398   22.4276 C   0  0  0  0  0  0  0  0  0  0  0  0
   11.6479    2.0994   22.6839 C   0  0  0  0  0  0  0  0  0  0  0  0
   12.8466    2.7994   22.7550 C   0  0  0  0  0  0  0  0  0  0  0  0
   14.0325    2.1004   22.5631 C   0  0  0  0  0  0  0  0  0  0  0  0
   14.0160    0.7408   22.3073 C   0  0  0  0  0  0  0  0  0  0  0  0
   12.8596    4.2442   23.0266 C   0  0  0  0  0  0  0  0  0  0  0  0
   11.9714    4.8171   23.7877 N   0  0  0  0  0  0  0  0  0  0  0  0
   12.3624    6.1786   23.7696 O   0  0  0  0  0  0  0  0  0  0  0  0
   13.4460    6.2389   22.9827 C   0  0  0  0  0  0  0  0  0  0  0  0
   14.0798    7.5659   22.7887 C   0  0  0  0  0  0  0  0  0  0  0  0
   13.7955    5.0927   22.5076 N   0  0  0  0  0  0  0  0  0  0  0  0
    7.2308   -6.1850   22.1054 C   0  0  0  0  0  0  0  0  0  0  0  0
    5.8284   -6.8052   22.2080 C   0  0  0  0  0  0  0  0  0  0  0  0
    5.3958   -5.6791   23.1443 C   0  0  0  0  0  0  0  0  0  0  0  0
  1  2  1  0
  2  3  1  0
  3  4  2  0
  4  5  1  0
  5  6  2  0
  6  7  1  0
  7  8  2  0
  8  9  1  0
  9 10  1  0
 10 11  1  0
 11 12  1  0
 12 13  2  0
 12 14  1  0
 14 15  2  0
 14 16  1  0
 16 17  1  0
 17 18  1  0
 18 19  2  0
 19 20  1  0
 20 21  2  0
 21 22  1  0
 22 23  2  0
 21 24  1  0
 24 25  2  0
 25 26  1  0
 26 27  1  0
 27 28  1  0
 27 29  2  0
  9 30  1  0
 30 31  1  0
 31 32  1  0
  8  3  1  0
 32  9  1  0
 23 18  1  0
 29 24  1  0
M  END
