CVD-0001584|dock_bobby27042020.80|mol2|36|dock3
     RDKit          3D

 27 29  0  0  0  0  0  0  0  0999 V2000
   14.4155    5.7258   22.2224 C   0  0  0  0  0  0  0  0  0  0  0  0
   13.3138    4.7073   22.2449 C   0  0  0  0  0  0  0  0  0  0  0  0
   12.2413    4.8986   21.6804 O   0  0  0  0  0  0  0  0  0  0  0  0
   13.5623    3.5885   22.9283 N   0  0  0  0  0  0  0  0  0  0  0  0
   12.5880    2.5142   23.0574 C   0  0  0  0  0  0  0  0  0  0  0  0
   13.1903    1.2779   23.6948 C   0  0  0  0  0  0  0  0  0  0  0  0
   12.2996    0.0741   23.5978 C   0  0  0  0  0  0  0  0  0  0  0  0
   12.2994   -0.8805   22.6229 C   0  0  0  0  0  0  0  0  0  0  0  0
   11.3414   -1.8244   22.8768 N   0  0  0  0  0  0  0  0  0  0  0  0
   10.6962   -1.4879   24.0411 C   0  0  0  0  0  0  0  0  0  0  0  0
    9.6523   -2.1395   24.7040 C   0  0  0  0  0  0  0  0  0  0  0  0
    9.0493   -3.4142   24.1619 C   0  0  0  0  0  0  0  0  0  0  0  0
    7.8210   -3.1927   23.3842 N   0  0  0  0  0  0  0  0  0  0  0  0
    7.3731   -4.4440   22.7659 C   0  0  0  0  0  0  0  0  0  0  0  0
    6.0835   -4.2186   21.9988 C   0  0  0  0  0  0  0  0  0  0  0  0
    6.2702   -3.1872   20.9760 N   0  0  0  0  0  0  0  0  0  0  0  0
    6.7758   -1.9389   21.5556 C   0  0  0  0  0  0  0  0  0  0  0  0
    8.0501   -2.1994   22.3381 C   0  0  0  0  0  0  0  0  0  0  0  0
    5.9739   -3.3866   19.6685 C   0  0  0  0  0  0  0  0  0  0  0  0
    6.2203   -2.2573   18.7118 C   0  0  0  0  0  0  0  0  0  0  0  0
    5.5285   -4.4622   19.2845 O   0  0  0  0  0  0  0  0  0  0  0  0
    9.1778   -1.5731   25.8824 C   0  0  0  0  0  0  0  0  0  0  0  0
    9.7309   -0.3938   26.3835 C   0  0  0  0  0  0  0  0  0  0  0  0
   10.7735    0.2431   25.7098 C   0  0  0  0  0  0  0  0  0  0  0  0
   11.2701   -0.2989   24.5255 C   0  0  0  0  0  0  0  0  0  0  0  0
    9.2204    0.1714   27.6081 C   0  0  0  0  0  0  0  0  0  0  0  0
    8.8011    0.5900   28.5847 N   0  0  0  0  0  0  0  0  0  0  0  0
  1  2  1  0
  2  3  2  0
  2  4  1  0
  4  5  1  0
  5  6  1  0
  6  7  1  0
  7  8  2  0
  8  9  1  0
  9 10  1  0
 10 11  2  0
 11 12  1  0
 12 13  1  0
 13 14  1  0
 14 15  1  0
 15 16  1  0
 16 17  1  0
 17 18  1  0
 16 19  1  0
 19 20  1  0
 19 21  2  0
 11 22  1  0
 22 23  2  0
 23 24  1  0
 24 25  2  0
 23 26  1  0
 26 27  3  0
 25  7  1  0
 25 10  1  0
 18 13  1  0
M  END
