CVD-0000526|dock_bobby27042020.26|mol2|53|dock3
     RDKit          3D

 21 22  0  0  0  0  0  0  0  0999 V2000
   13.5932   -0.8150   25.9007 N   0  0  0  0  0  0  0  0  0  0  0  0
   13.9570   -2.1527   25.0993 S   0  0  0  0  0  0  0  0  0  0  0  0
   12.9471   -3.1246   25.4075 O   0  0  0  0  0  0  0  0  0  0  0  0
   15.3234   -2.4731   25.3988 O   0  0  0  0  0  0  0  0  0  0  0  0
   13.8535   -1.7988   23.3578 C   0  0  0  0  0  0  0  0  0  0  0  0
   12.5484   -1.1515   22.9820 C   0  0  0  0  0  0  0  0  0  0  0  0
   12.4344    0.2282   22.9187 C   0  0  0  0  0  0  0  0  0  0  0  0
   11.2311    0.8173   22.5694 C   0  0  0  0  0  0  0  0  0  0  0  0
   10.1315    0.0273   22.2792 C   0  0  0  0  0  0  0  0  0  0  0  0
   10.2234   -1.3545   22.3335 C   0  0  0  0  0  0  0  0  0  0  0  0
    9.0263   -2.2237   22.0209 C   0  0  0  0  0  0  0  0  0  0  0  0
    7.8642   -1.4262   21.4630 C   0  0  0  0  0  0  0  0  0  0  0  0
    6.8654   -1.2084   22.1407 O   0  0  0  0  0  0  0  0  0  0  0  0
    8.0599   -0.9991   20.1921 N   0  0  0  0  0  0  0  0  0  0  0  0
    7.2370   -0.2332   19.3298 C   0  0  0  0  0  0  0  0  0  0  0  0
    5.9418    0.1653   19.6445 C   0  0  0  0  0  0  0  0  0  0  0  0
    5.2228    0.9133   18.7282 C   0  0  0  0  0  0  0  0  0  0  0  0
    5.8130    1.2412   17.5294 C   0  0  0  0  0  0  0  0  0  0  0  0
    7.0513    0.8737   17.2002 N   0  0  0  0  0  0  0  0  0  0  0  0
    7.7371    0.1521   18.0913 C   0  0  0  0  0  0  0  0  0  0  0  0
   11.4370   -1.9305   22.6868 C   0  0  0  0  0  0  0  0  0  0  0  0
  1  2  1  0
  2  3  2  0
  2  4  2  0
  2  5  1  0
  5  6  1  0
  6  7  2  0
  7  8  1  0
  8  9  2  0
  9 10  1  0
 10 11  1  0
 11 12  1  0
 12 13  2  0
 12 14  1  0
 14 15  1  0
 15 16  2  0
 16 17  1  0
 17 18  2  0
 18 19  1  0
 19 20  2  0
 10 21  2  0
 21  6  1  0
 20 15  1  0
M  END
