CVD-0002722|dock_bobby27042020.18|mol2|45|dock2
     RDKit          3D

 25 27  0  0  0  0  0  0  0  0999 V2000
    5.9476    0.6749   18.8553 Cl  0  0  0  0  0  0  0  0  0  0  0  0
    6.5287   -0.8666   18.2123 C   0  0  0  0  0  0  0  0  0  0  0  0
    6.2965   -1.9974   19.1956 C   0  0  0  0  0  0  0  0  0  0  0  0
    5.5873   -2.9543   18.9112 O   0  0  0  0  0  0  0  0  0  0  0  0
    6.9027   -1.8949   20.3963 N   0  0  0  0  0  0  0  0  0  0  0  0
    7.7786   -0.8040   20.8347 C   0  0  0  0  0  0  0  0  0  0  0  0
    9.0223   -1.3496   21.4868 C   0  0  0  0  0  0  0  0  0  0  0  0
    8.6786   -2.2299   22.6156 N   0  0  0  0  0  0  0  0  0  0  0  0
    7.8769   -3.3366   22.0913 C   0  0  0  0  0  0  0  0  0  0  0  0
    6.5940   -2.8325   21.4743 C   0  0  0  0  0  0  0  0  0  0  0  0
    9.8954   -2.7327   23.2922 C   0  0  0  0  0  0  0  0  0  0  0  0
    9.5403   -3.5466   24.5304 C   0  0  0  0  0  0  0  0  0  0  0  0
    8.4070   -3.2498   25.2742 C   0  0  0  0  0  0  0  0  0  0  0  0
    8.0765   -3.9864   26.3977 C   0  0  0  0  0  0  0  0  0  0  0  0
    8.8909   -5.0308   26.7772 C   0  0  0  0  0  0  0  0  0  0  0  0
    8.4831   -5.9633   28.1903 Cl  0  0  0  0  0  0  0  0  0  0  0  0
   10.0219   -5.3508   26.0587 C   0  0  0  0  0  0  0  0  0  0  0  0
   10.3398   -4.6054   24.9374 C   0  0  0  0  0  0  0  0  0  0  0  0
   10.8078   -1.5696   23.6600 C   0  0  0  0  0  0  0  0  0  0  0  0
   10.5494   -0.7964   24.7830 C   0  0  0  0  0  0  0  0  0  0  0  0
   11.3766    0.2625   25.1177 C   0  0  0  0  0  0  0  0  0  0  0  0
   12.4756    0.5632   24.3310 C   0  0  0  0  0  0  0  0  0  0  0  0
   12.7253   -0.2082   23.2171 C   0  0  0  0  0  0  0  0  0  0  0  0
   14.1039    0.1588   22.2185 Cl  0  0  0  0  0  0  0  0  0  0  0  0
   11.9087   -1.2660   22.8730 C   0  0  0  0  0  0  0  0  0  0  0  0
  1  2  1  0
  2  3  1  0
  3  4  2  0
  3  5  1  0
  5  6  1  0
  6  7  1  0
  7  8  1  0
  8  9  1  0
  9 10  1  0
  8 11  1  0
 11 12  1  0
 12 13  2  0
 13 14  1  0
 14 15  2  0
 15 16  1  0
 15 17  1  0
 17 18  2  0
 11 19  1  0
 19 20  2  0
 20 21  1  0
 21 22  2  0
 22 23  1  0
 23 24  1  0
 23 25  2  0
 10  5  1  0
 18 12  1  0
 25 19  1  0
M  END
