CVD-0000341|dock_bobby27042020.13|mol2|19|dock2
     RDKit          3D

 27 30  0  0  0  0  0  0  0  0999 V2000
    4.4948    0.8788   21.0123 C   0  0  0  0  0  0  0  0  0  0  0  0
    5.2446    0.7382   19.7130 C   0  0  0  0  0  0  0  0  0  0  0  0
    4.6521    1.2726   18.5709 C   0  0  0  0  0  0  0  0  0  0  0  0
    5.3126    1.2386   17.3615 C   0  0  0  0  0  0  0  0  0  0  0  0
    6.5258    0.7157   17.2063 N   0  0  0  0  0  0  0  0  0  0  0  0
    7.0860    0.1686   18.2877 C   0  0  0  0  0  0  0  0  0  0  0  0
    6.5051    0.1272   19.5613 C   0  0  0  0  0  0  0  0  0  0  0  0
    7.2677   -0.5551   20.6447 C   0  0  0  0  0  0  0  0  0  0  0  0
    6.7492   -1.6597   21.3849 C   0  0  0  0  0  0  0  0  0  0  0  0
    7.4649   -2.2560   22.3614 C   0  0  0  0  0  0  0  0  0  0  0  0
    8.7862   -1.8302   22.7120 C   0  0  0  0  0  0  0  0  0  0  0  0
    9.4452   -2.3939   23.5844 O   0  0  0  0  0  0  0  0  0  0  0  0
    9.2828   -0.7316   21.9717 N   0  0  0  0  0  0  0  0  0  0  0  0
    8.5289   -0.1417   20.9766 C   0  0  0  0  0  0  0  0  0  0  0  0
   10.5997   -0.1770   22.2144 C   0  0  0  0  0  0  0  0  0  0  0  0
   11.6991   -0.9981   22.4430 C   0  0  0  0  0  0  0  0  0  0  0  0
   12.9336   -0.4248   22.6515 C   0  0  0  0  0  0  0  0  0  0  0  0
   14.3127   -1.4560   22.9100 Cl  0  0  0  0  0  0  0  0  0  0  0  0
   13.1080    0.9419   22.6635 C   0  0  0  0  0  0  0  0  0  0  0  0
   12.0101    1.7738   22.4557 C   0  0  0  0  0  0  0  0  0  0  0  0
   10.7567    1.2074   22.2239 C   0  0  0  0  0  0  0  0  0  0  0  0
   12.1986    3.2024   22.4835 N   0  0  0  0  0  0  0  0  0  0  0  0
   13.5072    3.8058   22.2198 C   0  0  0  0  0  0  0  0  0  0  0  0
   13.2605    5.2919   22.3074 C   0  0  0  0  0  0  0  0  0  0  0  0
   11.8543    5.4803   22.8179 C   0  0  0  0  0  0  0  0  0  0  0  0
   11.2375    4.1141   22.8489 C   0  0  0  0  0  0  0  0  0  0  0  0
   10.0915    3.8024   23.1444 O   0  0  0  0  0  0  0  0  0  0  0  0
  1  2  1  0
  2  3  2  0
  3  4  1  0
  4  5  2  0
  5  6  1  0
  6  7  2  0
  7  8  1  0
  8  9  1  0
  9 10  2  0
 10 11  1  0
 11 12  2  0
 11 13  1  0
 13 14  1  0
 13 15  1  0
 15 16  2  0
 16 17  1  0
 17 18  1  0
 17 19  2  0
 19 20  1  0
 20 21  2  0
 20 22  1  0
 22 23  1  0
 23 24  1  0
 24 25  1  0
 25 26  1  0
 26 27  2  0
  7  2  1  0
 14  8  2  0
 21 15  1  0
 26 22  1  0
M  END
