CVD-0001627|dock_bobby27042020.66|mol2|31|dock2
     RDKit          3D

 21 23  0  0  0  0  0  0  0  0999 V2000
   13.0890    4.8141   22.8159 C   0  0  0  0  0  0  0  0  0  0  0  0
   12.4526    3.6904   23.4063 O   0  0  0  0  0  0  0  0  0  0  0  0
   12.7300    2.4679   22.7556 C   0  0  0  0  0  0  0  0  0  0  0  0
   12.0925    1.3226   23.5036 C   0  0  0  0  0  0  0  0  0  0  0  0
   12.1835    0.0327   22.7324 C   0  0  0  0  0  0  0  0  0  0  0  0
   13.3248   -0.3714   22.0077 C   0  0  0  0  0  0  0  0  0  0  0  0
   13.1579   -1.5714   21.4081 C   0  0  0  0  0  0  0  0  0  0  0  0
   14.4000   -2.4894   20.3511 Br  0  0  0  0  0  0  0  0  0  0  0  0
   11.6130   -2.2575   21.6986 S   0  0  0  0  0  0  0  0  0  0  0  0
   11.1723   -0.8857   22.6652 C   0  0  0  0  0  0  0  0  0  0  0  0
    9.7992   -0.8156   23.3113 C   0  0  0  0  0  0  0  0  0  0  0  0
    9.7045   -0.5408   24.7964 C   0  0  0  0  0  0  0  0  0  0  0  0
    9.4970   -1.9355   24.2951 C   0  0  0  0  0  0  0  0  0  0  0  0
    8.7394   -0.4571   22.3347 N   0  0  0  0  0  0  0  0  0  0  0  0
    8.8171    0.9491   21.9440 C   0  0  0  0  0  0  0  0  0  0  0  0
    7.6481    1.3159   21.0628 C   0  0  0  0  0  0  0  0  0  0  0  0
    7.5701    0.4350   19.8959 N   0  0  0  0  0  0  0  0  0  0  0  0
    7.6317   -0.9894   20.2331 C   0  0  0  0  0  0  0  0  0  0  0  0
    8.8125   -1.2690   21.1243 C   0  0  0  0  0  0  0  0  0  0  0  0
    7.1937    0.8347   18.6919 C   0  0  0  0  0  0  0  0  0  0  0  0
    6.8270    1.1790   17.6616 N   0  0  0  0  0  0  0  0  0  0  0  0
  1  2  1  0
  2  3  1  0
  3  4  1  0
  4  5  1  0
  5  6  1  0
  6  7  2  0
  7  8  1  0
  7  9  1  0
  9 10  1  0
 10 11  1  0
 11 12  1  0
 12 13  1  0
 11 14  1  0
 14 15  1  0
 15 16  1  0
 16 17  1  0
 17 18  1  0
 18 19  1  0
 17 20  1  0
 20 21  3  0
 10  5  2  0
 13 11  1  0
 19 14  1  0
M  END
