CVD-0001670|dock_bobby27042020.37|mol2|28|dock2
     RDKit          3D

 19 20  0  0  0  0  0  0  0  0999 V2000
   14.4728   -1.5807   25.2542 C   0  0  0  0  0  0  0  0  0  0  0  0
   13.2409   -2.3588   24.8944 C   0  0  0  0  0  0  0  0  0  0  0  0
   12.9854   -3.4239   25.4449 O   0  0  0  0  0  0  0  0  0  0  0  0
   12.4158   -1.8694   23.9347 N   0  0  0  0  0  0  0  0  0  0  0  0
   12.6070   -0.6158   23.2074 C   0  0  0  0  0  0  0  0  0  0  0  0
   11.3623    0.2404   23.3019 C   0  0  0  0  0  0  0  0  0  0  0  0
   10.1968   -0.5153   22.8483 N   0  0  0  0  0  0  0  0  0  0  0  0
   10.0056   -1.7688   23.5755 C   0  0  0  0  0  0  0  0  0  0  0  0
   11.2503   -2.6250   23.4811 C   0  0  0  0  0  0  0  0  0  0  0  0
    9.3775   -0.0292   21.8953 C   0  0  0  0  0  0  0  0  0  0  0  0
    9.5371    1.0930   21.4544 O   0  0  0  0  0  0  0  0  0  0  0  0
    8.2429   -0.9015   21.3734 C   0  0  0  0  0  0  0  0  0  0  0  0
    8.8171   -2.0879   20.9216 F   0  0  0  0  0  0  0  0  0  0  0  0
    7.4804   -0.2466   20.2323 C   0  0  0  0  0  0  0  0  0  0  0  0
    6.1059   -0.0865   20.2715 C   0  0  0  0  0  0  0  0  0  0  0  0
    5.4824    0.5161   19.1927 C   0  0  0  0  0  0  0  0  0  0  0  0
    6.2376    0.9355   18.1191 C   0  0  0  0  0  0  0  0  0  0  0  0
    7.5985    0.7341   18.1661 C   0  0  0  0  0  0  0  0  0  0  0  0
    8.2283    0.1539   19.1966 N   0  0  0  0  0  0  0  0  0  0  0  0
  1  2  1  0
  2  3  2  0
  2  4  1  0
  4  5  1  0
  5  6  1  0
  6  7  1  0
  7  8  1  0
  8  9  1  0
  7 10  1  0
 10 11  2  0
 10 12  1  0
 12 13  1  0
 12 14  1  0
 14 15  2  0
 15 16  1  0
 16 17  2  0
 17 18  1  0
 18 19  2  0
  9  4  1  0
 19 14  1  0
M  END
