CVD-0001510|dock_bobby27042020.66|mol2|48|dock2
     RDKit          3D

 33 37  0  0  0  0  0  0  0  0999 V2000
    5.7680   -0.9127   17.9649 N   0  0  0  0  0  0  0  0  0  0  0  0
    6.2845    0.6012   18.0328 S   0  0  0  0  0  0  0  0  0  0  0  0
    6.0356    1.1913   16.7518 O   0  0  0  0  0  0  0  0  0  0  0  0
    7.6271    0.5686   18.5303 O   0  0  0  0  0  0  0  0  0  0  0  0
    5.3043    1.4747   19.2159 C   0  0  0  0  0  0  0  0  0  0  0  0
    3.9249    1.4722   19.0956 C   0  0  0  0  0  0  0  0  0  0  0  0
    3.1728    2.1901   20.0042 C   0  0  0  0  0  0  0  0  0  0  0  0
    3.7727    2.9104   21.0308 C   0  0  0  0  0  0  0  0  0  0  0  0
    2.9408    3.6174   22.0736 C   0  0  0  0  0  0  0  0  0  0  0  0
    3.7158    4.7552   22.7052 C   0  0  0  0  0  0  0  0  0  0  0  0
    5.0528    4.2508   23.2183 C   0  0  0  0  0  0  0  0  0  0  0  0
    5.8233    3.6789   22.1214 N   0  0  0  0  0  0  0  0  0  0  0  0
    7.2632    3.6300   22.2709 C   0  0  0  0  0  0  0  0  0  0  0  0
    7.7257    2.1918   22.4975 C   0  0  0  0  0  0  0  0  0  0  0  0
    6.9092    1.3129   22.7440 O   0  0  0  0  0  0  0  0  0  0  0  0
    9.0493    1.9434   22.4135 N   0  0  0  0  0  0  0  0  0  0  0  0
   10.0666    2.9862   22.1317 C   0  0  0  0  0  0  0  0  0  0  0  0
   11.2344    2.8597   23.0529 C   0  0  0  0  0  0  0  0  0  0  0  0
   12.2344    3.9703   22.7567 C   0  0  0  0  0  0  0  0  0  0  0  0
   12.3551    5.0614   23.6059 C   0  0  0  0  0  0  0  0  0  0  0  0
   13.2623    6.0721   23.3350 C   0  0  0  0  0  0  0  0  0  0  0  0
   14.0590    6.0047   22.2120 C   0  0  0  0  0  0  0  0  0  0  0  0
   13.9490    4.9273   21.3594 C   0  0  0  0  0  0  0  0  0  0  0  0
   13.0420    3.9160   21.6294 C   0  0  0  0  0  0  0  0  0  0  0  0
   11.8487    1.4896   22.9094 C   0  0  0  0  0  0  0  0  0  0  0  0
   13.2226    1.2771   23.0392 C   0  0  0  0  0  0  0  0  0  0  0  0
   13.7762    0.0119   22.9532 C   0  0  0  0  0  0  0  0  0  0  0  0
   12.9600   -1.0753   22.7340 C   0  0  0  0  0  0  0  0  0  0  0  0
   11.5962   -0.8883   22.6024 C   0  0  0  0  0  0  0  0  0  0  0  0
   11.0336    0.3811   22.6878 C   0  0  0  0  0  0  0  0  0  0  0  0
    9.5179    0.5508   22.5527 C   0  0  0  0  0  0  0  0  0  0  0  0
    5.1790    2.9076   21.1458 C   0  0  0  0  0  0  0  0  0  0  0  0
    5.9364    2.1821   20.2275 C   0  0  0  0  0  0  0  0  0  0  0  0
  1  2  1  0
  2  3  2  0
  2  4  2  0
  2  5  1  0
  5  6  2  0
  6  7  1  0
  7  8  2  0
  8  9  1  0
  9 10  1  0
 10 11  1  0
 11 12  1  0
 12 13  1  0
 13 14  1  0
 14 15  2  0
 14 16  1  0
 16 17  1  0
 17 18  1  0
 18 19  1  0
 19 20  2  0
 20 21  1  0
 21 22  2  0
 22 23  1  0
 23 24  2  0
 18 25  1  0
 25 26  2  0
 26 27  1  0
 27 28  2  0
 28 29  1  0
 29 30  2  0
 30 31  1  0
 12 32  1  0
 32 33  2  0
 33  5  1  0
 32  8  1  0
 31 16  1  0
 24 19  1  0
 30 25  1  0
M  END
