CVD-0002162|dock_bobby27042020.64|mol2|24|dock2
     RDKit          3D

 26 28  0  0  0  0  0  0  0  0999 V2000
    9.1659    2.5634   20.8958 O   0  0  0  0  0  0  0  0  0  0  0  0
    9.6179    1.7117   21.6539 C   0  0  0  0  0  0  0  0  0  0  0  0
   10.6983    1.9185   22.4818 N   0  0  0  0  0  0  0  0  0  0  0  0
   11.5105    3.0656   22.6690 C   0  0  0  0  0  0  0  0  0  0  0  0
   12.8912    3.0352   22.8432 C   0  0  0  0  0  0  0  0  0  0  0  0
   13.5786    4.2241   23.0173 C   0  0  0  0  0  0  0  0  0  0  0  0
   12.8744    5.4058   23.0131 C   0  0  0  0  0  0  0  0  0  0  0  0
   11.5532    5.4672   22.8489 N   0  0  0  0  0  0  0  0  0  0  0  0
   10.8992    4.3143   22.6816 C   0  0  0  0  0  0  0  0  0  0  0  0
    9.1163    0.4359   21.7949 N   0  0  0  0  0  0  0  0  0  0  0  0
    8.0145   -0.1847   21.1386 C   0  0  0  0  0  0  0  0  0  0  0  0
    7.0396    0.5437   20.4485 C   0  0  0  0  0  0  0  0  0  0  0  0
    5.9833   -0.1034   19.8292 C   0  0  0  0  0  0  0  0  0  0  0  0
    5.8813   -1.4738   19.8687 C   0  0  0  0  0  0  0  0  0  0  0  0
    6.8400   -2.2075   20.5389 C   0  0  0  0  0  0  0  0  0  0  0  0
    7.9071   -1.5891   21.1843 C   0  0  0  0  0  0  0  0  0  0  0  0
    8.9060   -2.4542   21.9172 C   0  0  0  0  0  0  0  0  0  0  0  0
   10.2752   -2.2704   21.4756 N   0  0  0  0  0  0  0  0  0  0  0  0
   11.3343   -2.1700   22.3250 C   0  0  0  0  0  0  0  0  0  0  0  0
   12.6025   -1.8564   21.8391 C   0  0  0  0  0  0  0  0  0  0  0  0
   13.6496   -1.7654   22.7382 C   0  0  0  0  0  0  0  0  0  0  0  0
   13.4175   -1.9860   24.0910 C   0  0  0  0  0  0  0  0  0  0  0  0
   12.1168   -2.2935   24.4786 C   0  0  0  0  0  0  0  0  0  0  0  0
   11.0932   -2.3855   23.6222 N   0  0  0  0  0  0  0  0  0  0  0  0
   14.4850   -1.8994   25.0569 C   0  0  0  0  0  0  0  0  0  0  0  0
   15.3091   -1.8178   25.8437 N   0  0  0  0  0  0  0  0  0  0  0  0
  1  2  2  0
  2  3  1  0
  3  4  1  0
  4  5  2  0
  5  6  1  0
  6  7  2  0
  7  8  1  0
  8  9  2  0
  2 10  1  0
 10 11  1  0
 11 12  2  0
 12 13  1  0
 13 14  2  0
 14 15  1  0
 15 16  2  0
 16 17  1  0
 17 18  1  0
 18 19  1  0
 19 20  2  0
 20 21  1  0
 21 22  2  0
 22 23  1  0
 23 24  2  0
 22 25  1  0
 25 26  3  0
  9  4  1  0
 16 11  1  0
 24 19  1  0
M  END
