CVD-0002500|dock_bobby27042020.5|mol2|26|dock3
     RDKit          3D

 29 31  0  0  0  0  0  0  0  0999 V2000
   14.1462    6.0515   22.6520 C   0  0  0  0  0  0  0  0  0  0  0  0
   13.4536    4.8865   23.2869 C   0  0  0  0  0  0  0  0  0  0  0  0
   14.0464    3.6260   22.8720 N   0  0  0  0  0  0  0  0  0  0  0  0
   13.4741    2.4096   23.0877 C   0  0  0  0  0  0  0  0  0  0  0  0
   14.0826    1.2334   22.6520 C   0  0  0  0  0  0  0  0  0  0  0  0
   13.4487    0.0301   22.9037 C   0  0  0  0  0  0  0  0  0  0  0  0
   12.2339    0.0104   23.5765 C   0  0  0  0  0  0  0  0  0  0  0  0
   11.5956   -1.1888   23.8325 N   0  0  0  0  0  0  0  0  0  0  0  0
   11.6316   -2.3222   22.9291 C   0  0  0  0  0  0  0  0  0  0  0  0
   10.3419   -3.1054   22.8723 C   0  0  0  0  0  0  0  0  0  0  0  0
   10.0739   -4.1348   23.7536 C   0  0  0  0  0  0  0  0  0  0  0  0
    8.9462   -4.8537   23.7363 N   0  0  0  0  0  0  0  0  0  0  0  0
    8.0161   -4.5764   22.8218 C   0  0  0  0  0  0  0  0  0  0  0  0
    6.7685   -5.4082   22.8474 C   0  0  0  0  0  0  0  0  0  0  0  0
    8.1807   -3.5567   21.8788 C   0  0  0  0  0  0  0  0  0  0  0  0
    7.1221   -3.2429   20.8476 C   0  0  0  0  0  0  0  0  0  0  0  0
    7.1801   -1.8582   20.3563 N   0  0  0  0  0  0  0  0  0  0  0  0
    6.8609   -0.9179   21.4346 C   0  0  0  0  0  0  0  0  0  0  0  0
    6.9623    0.5106   20.9330 C   0  0  0  0  0  0  0  0  0  0  0  0
    6.0620    0.7190   19.7968 N   0  0  0  0  0  0  0  0  0  0  0  0
    6.3166   -0.2468   18.7235 C   0  0  0  0  0  0  0  0  0  0  0  0
    6.2350   -1.6644   19.2597 C   0  0  0  0  0  0  0  0  0  0  0  0
    5.1435    1.7056   19.7631 C   0  0  0  0  0  0  0  0  0  0  0  0
    5.0113    2.4994   20.6861 O   0  0  0  0  0  0  0  0  0  0  0  0
    4.2749    1.7795   18.5226 C   0  0  0  0  0  0  0  0  0  0  0  0
    3.1248    3.1188   18.6254 Cl  0  0  0  0  0  0  0  0  0  0  0  0
    9.3643   -2.8291   21.9270 C   0  0  0  0  0  0  0  0  0  0  0  0
   11.7101    1.2377   23.9676 C   0  0  0  0  0  0  0  0  0  0  0  0
   12.3059    2.4128   23.7363 N   0  0  0  0  0  0  0  0  0  0  0  0
  1  2  1  0
  2  3  1  0
  3  4  1  0
  4  5  2  0
  5  6  1  0
  6  7  2  0
  7  8  1  0
  8  9  1  0
  9 10  1  0
 10 11  2  0
 11 12  1  0
 12 13  2  0
 13 14  1  0
 13 15  1  0
 15 16  1  0
 16 17  1  0
 17 18  1  0
 18 19  1  0
 19 20  1  0
 20 21  1  0
 21 22  1  0
 20 23  1  0
 23 24  2  0
 23 25  1  0
 25 26  1  0
 15 27  2  0
  7 28  1  0
 28 29  2  0
 29  4  1  0
 27 10  1  0
 22 17  1  0
M  END
