CVD-0001501|dock_bobby27042020.38|mol2|1|dock2
     RDKit          3D

 24 26  0  0  0  0  0  0  0  0999 V2000
    6.4683    2.6778   22.8766 O   0  0  0  0  0  0  0  0  0  0  0  0
    6.4727    1.6320   23.6675 C   0  0  0  0  0  0  0  0  0  0  0  0
    7.2680    1.4810   24.5687 O   0  0  0  0  0  0  0  0  0  0  0  0
    5.3866    0.6309   23.3719 C   0  0  0  0  0  0  0  0  0  0  0  0
    5.2529    0.2701   21.9178 C   0  0  0  0  0  0  0  0  0  0  0  0
    6.0389   -0.6397   21.4070 C   0  0  0  0  0  0  0  0  0  0  0  0
    6.1183   -0.8319   19.9258 C   0  0  0  0  0  0  0  0  0  0  0  0
    5.0143   -0.0553   19.1564 C   0  0  0  0  0  0  0  0  0  0  0  0
    5.7889    0.9264   18.3312 N   0  0  0  0  0  0  0  0  0  0  0  0
    7.1707    0.6248   18.3819 C   0  0  0  0  0  0  0  0  0  0  0  0
    7.3951   -0.3373   19.2796 C   0  0  0  0  0  0  0  0  0  0  0  0
    8.6738   -0.6535   19.7953 N   0  0  0  0  0  0  0  0  0  0  0  0
    9.2674   -0.2179   20.9852 C   0  0  0  0  0  0  0  0  0  0  0  0
    8.6970    0.5345   21.7685 O   0  0  0  0  0  0  0  0  0  0  0  0
   10.5288   -0.7351   21.1559 N   0  0  0  0  0  0  0  0  0  0  0  0
   11.4685   -0.5656   22.2038 C   0  0  0  0  0  0  0  0  0  0  0  0
   11.3683    0.4334   23.1696 C   0  0  0  0  0  0  0  0  0  0  0  0
   12.3258    0.5376   24.1652 C   0  0  0  0  0  0  0  0  0  0  0  0
   13.3914   -0.3440   24.2158 C   0  0  0  0  0  0  0  0  0  0  0  0
   13.4960   -1.3385   23.2583 C   0  0  0  0  0  0  0  0  0  0  0  0
   14.5417   -2.2139   23.2971 O   0  0  0  0  0  0  0  0  0  0  0  0
   12.5413   -1.4495   22.2584 C   0  0  0  0  0  0  0  0  0  0  0  0
    4.0291    0.7163   19.8862 N   0  0  0  0  0  0  0  0  0  0  0  0
    4.2337    0.9104   21.1213 C   0  0  0  0  0  0  0  0  0  0  0  0
  1  2  1  0
  2  3  2  0
  2  4  1  0
  4  5  1  0
  5  6  2  0
  6  7  1  0
  7  8  1  0
  8  9  1  0
  9 10  1  0
 10 11  2  0
 11 12  1  0
 12 13  1  0
 13 14  2  0
 13 15  1  0
 15 16  1  0
 16 17  2  0
 17 18  1  0
 18 19  2  0
 19 20  1  0
 20 21  1  0
 20 22  2  0
  8 23  1  0
 23 24  2  0
 24  5  1  0
 11  7  1  0
 22 16  1  0
M  END
