CVD-0001030|dock_bobby27042020.11|mol2|6|dock2
     RDKit          3D

 36 40  0  0  0  0  0  0  0  0999 V2000
   13.3218    8.9921   25.4347 C   0  0  0  0  0  0  0  0  0  0  0  0
   13.5085    8.3257   24.1877 O   0  0  0  0  0  0  0  0  0  0  0  0
   12.9858    7.0723   23.9879 C   0  0  0  0  0  0  0  0  0  0  0  0
   13.4793    6.3165   22.9381 C   0  0  0  0  0  0  0  0  0  0  0  0
   12.9810    5.0483   22.7007 C   0  0  0  0  0  0  0  0  0  0  0  0
   11.9832    4.5153   23.5070 C   0  0  0  0  0  0  0  0  0  0  0  0
   11.4957    5.2829   24.5576 C   0  0  0  0  0  0  0  0  0  0  0  0
   11.9889    6.5527   24.8018 C   0  0  0  0  0  0  0  0  0  0  0  0
   11.4537    3.1661   23.2539 C   0  0  0  0  0  0  0  0  0  0  0  0
   11.0910    2.6697   22.1071 N   0  0  0  0  0  0  0  0  0  0  0  0
   10.6723    1.3794   22.4149 C   0  0  0  0  0  0  0  0  0  0  0  0
   10.1719    0.3457   21.6270 C   0  0  0  0  0  0  0  0  0  0  0  0
    9.8301   -0.8591   22.2231 C   0  0  0  0  0  0  0  0  0  0  0  0
    9.9784   -1.0544   23.5989 C   0  0  0  0  0  0  0  0  0  0  0  0
    9.6424   -2.2674   24.2509 N   0  0  0  0  0  0  0  0  0  0  0  0
    9.2236   -2.5189   25.5160 C   0  0  0  0  0  0  0  0  0  0  0  0
    9.0450   -1.6809   26.3948 O   0  0  0  0  0  0  0  0  0  0  0  0
    8.9766   -3.9873   25.7882 C   0  0  0  0  0  0  0  0  0  0  0  0
    7.6138   -4.4172   25.2600 C   0  0  0  0  0  0  0  0  0  0  0  0
    7.3585   -5.8777   25.5710 C   0  0  0  0  0  0  0  0  0  0  0  0
    7.4503   -6.1044   27.0108 N   0  0  0  0  0  0  0  0  0  0  0  0
    8.7590   -5.7568   27.5540 C   0  0  0  0  0  0  0  0  0  0  0  0
    9.0623   -4.2869   27.2832 C   0  0  0  0  0  0  0  0  0  0  0  0
    6.5737   -6.8159   27.7547 C   0  0  0  0  0  0  0  0  0  0  0  0
    5.6319   -7.3447   27.1900 O   0  0  0  0  0  0  0  0  0  0  0  0
    6.6560   -7.0222   29.2419 C   0  0  0  0  0  0  0  0  0  0  0  0
    6.3067   -6.0658   30.1933 C   0  0  0  0  0  0  0  0  0  0  0  0
    6.4310   -6.3228   31.5473 C   0  0  0  0  0  0  0  0  0  0  0  0
    6.8868   -7.5591   31.9898 C   0  0  0  0  0  0  0  0  0  0  0  0
    7.2120   -8.5310   31.0510 C   0  0  0  0  0  0  0  0  0  0  0  0
    7.0943   -8.2610   29.6993 C   0  0  0  0  0  0  0  0  0  0  0  0
    7.0191   -7.8294   33.4002 C   0  0  0  0  0  0  0  0  0  0  0  0
    7.1532   -8.0579   34.5112 N   0  0  0  0  0  0  0  0  0  0  0  0
   10.4792   -0.0175   24.3823 C   0  0  0  0  0  0  0  0  0  0  0  0
   10.8118    1.1715   23.7641 C   0  0  0  0  0  0  0  0  0  0  0  0
   11.3195    2.3229   24.3307 O   0  0  0  0  0  0  0  0  0  0  0  0
  1  2  1  0
  2  3  1  0
  3  4  2  0
  4  5  1  0
  5  6  2  0
  6  7  1  0
  7  8  2  0
  6  9  1  0
  9 10  2  0
 10 11  1  0
 11 12  2  0
 12 13  1  0
 13 14  2  0
 14 15  1  0
 15 16  1  0
 16 17  2  0
 16 18  1  0
 18 19  1  0
 19 20  1  0
 20 21  1  0
 21 22  1  0
 22 23  1  0
 21 24  1  0
 24 25  2  0
 24 26  1  0
 26 27  2  0
 27 28  1  0
 28 29  2  0
 29 30  1  0
 30 31  2  0
 29 32  1  0
 32 33  3  0
 14 34  1  0
 34 35  2  0
 35 36  1  0
  8  3  1  0
 36  9  1  0
 35 11  1  0
 23 18  1  0
 31 26  1  0
M  END
