CVD-0002197|dock_bobby27042020.35|mol2|18|dock3
     RDKit          3D

 22 24  0  0  0  0  0  0  0  0999 V2000
    5.6097    0.2654   18.4006 C   0  0  0  0  0  0  0  0  0  0  0  0
    6.1604   -1.0759   18.7719 C   0  0  0  0  0  0  0  0  0  0  0  0
    6.2578   -1.2286   20.2140 N   0  0  0  0  0  0  0  0  0  0  0  0
    6.7677   -2.3259   20.7981 C   0  0  0  0  0  0  0  0  0  0  0  0
    6.0783   -3.4725   20.6327 N   0  0  0  0  0  0  0  0  0  0  0  0
    6.5615   -4.5830   21.2007 C   0  0  0  0  0  0  0  0  0  0  0  0
    7.7317   -4.6164   21.9493 C   0  0  0  0  0  0  0  0  0  0  0  0
    8.4335   -3.4278   22.1139 C   0  0  0  0  0  0  0  0  0  0  0  0
    7.9645   -2.2515   21.5409 C   0  0  0  0  0  0  0  0  0  0  0  0
    8.7494   -0.9660   21.7321 C   0  0  0  0  0  0  0  0  0  0  0  0
   10.1206   -1.1625   22.3352 C   0  0  0  0  0  0  0  0  0  0  0  0
   11.1409   -1.7594   21.6057 C   0  0  0  0  0  0  0  0  0  0  0  0
   12.3818   -1.9213   22.2016 C   0  0  0  0  0  0  0  0  0  0  0  0
   12.5604   -1.4808   23.5069 C   0  0  0  0  0  0  0  0  0  0  0  0
   13.7604   -1.5143   24.4073 C   0  0  0  0  0  0  0  0  0  0  0  0
   13.2406   -0.8843   25.6005 N   0  0  0  0  0  0  0  0  0  0  0  0
   11.9488   -0.5183   25.5234 C   0  0  0  0  0  0  0  0  0  0  0  0
   11.3232    0.0349   26.4231 O   0  0  0  0  0  0  0  0  0  0  0  0
   11.4865   -0.8940   24.1655 C   0  0  0  0  0  0  0  0  0  0  0  0
   10.2812   -0.7326   23.5978 N   0  0  0  0  0  0  0  0  0  0  0  0
    8.2081   -5.8430   22.5394 C   0  0  0  0  0  0  0  0  0  0  0  0
    8.5818   -6.8297   22.9773 N   0  0  0  0  0  0  0  0  0  0  0  0
  1  2  1  0
  2  3  1  0
  3  4  1  0
  4  5  2  0
  5  6  1  0
  6  7  2  0
  7  8  1  0
  8  9  2  0
  9 10  1  0
 10 11  1  0
 11 12  2  0
 12 13  1  0
 13 14  2  0
 14 15  1  0
 15 16  1  0
 16 17  1  0
 17 18  2  0
 17 19  1  0
 19 20  2  0
  7 21  1  0
 21 22  3  0
  9  4  1  0
 20 11  1  0
 19 14  1  0
M  END
