CVD-0003039|dock_bobby27042020.17|mol2|38|dock1
     RDKit          3D

 30 33  0  0  0  0  0  0  0  0999 V2000
   13.9921    5.0826   22.6505 Cl  0  0  0  0  0  0  0  0  0  0  0  0
   12.5936    4.9823   23.7284 C   0  0  0  0  0  0  0  0  0  0  0  0
   11.4492    4.2257   23.0819 C   0  0  0  0  0  0  0  0  0  0  0  0
   10.3592    4.7556   22.9070 O   0  0  0  0  0  0  0  0  0  0  0  0
   11.6909    2.9483   22.7181 N   0  0  0  0  0  0  0  0  0  0  0  0
   12.9648    2.2429   22.9146 C   0  0  0  0  0  0  0  0  0  0  0  0
   12.7117    0.8520   23.4593 C   0  0  0  0  0  0  0  0  0  0  0  0
   11.7796    0.0775   22.5365 C   0  0  0  0  0  0  0  0  0  0  0  0
   10.4954    0.8601   22.3305 C   0  0  0  0  0  0  0  0  0  0  0  0
   10.7627    2.2648   21.8123 C   0  0  0  0  0  0  0  0  0  0  0  0
    9.5691    0.1556   21.3974 C   0  0  0  0  0  0  0  0  0  0  0  0
    9.2950    0.5916   20.1846 N   0  0  0  0  0  0  0  0  0  0  0  0
    8.3858   -0.3281   19.6720 C   0  0  0  0  0  0  0  0  0  0  0  0
    7.7505   -0.3750   18.4321 C   0  0  0  0  0  0  0  0  0  0  0  0
    6.8658   -1.4119   18.1764 C   0  0  0  0  0  0  0  0  0  0  0  0
    6.6110   -2.3844   19.1240 C   0  0  0  0  0  0  0  0  0  0  0  0
    7.2363   -2.3573   20.3608 C   0  0  0  0  0  0  0  0  0  0  0  0
    8.1257   -1.3203   20.6133 C   0  0  0  0  0  0  0  0  0  0  0  0
    8.9124   -1.0057   21.7180 N   0  0  0  0  0  0  0  0  0  0  0  0
    8.9356   -1.7704   22.9718 C   0  0  0  0  0  0  0  0  0  0  0  0
    9.6815   -3.0920   22.8695 C   0  0  0  0  0  0  0  0  0  0  0  0
    9.8885   -3.7697   24.2028 C   0  0  0  0  0  0  0  0  0  0  0  0
   10.9977   -3.7990   24.7247 O   0  0  0  0  0  0  0  0  0  0  0  0
    8.7607   -4.3139   24.7211 N   0  0  0  0  0  0  0  0  0  0  0  0
    8.5304   -5.0255   25.9249 C   0  0  0  0  0  0  0  0  0  0  0  0
    7.2887   -5.6127   26.1309 C   0  0  0  0  0  0  0  0  0  0  0  0
    7.0466   -6.3113   27.3003 C   0  0  0  0  0  0  0  0  0  0  0  0
    8.0538   -6.4035   28.2324 C   0  0  0  0  0  0  0  0  0  0  0  0
    9.2557   -5.8518   28.0649 N   0  0  0  0  0  0  0  0  0  0  0  0
    9.4805   -5.1788   26.9321 C   0  0  0  0  0  0  0  0  0  0  0  0
  1  2  1  0
  2  3  1  0
  3  4  2  0
  3  5  1  0
  5  6  1  0
  6  7  1  0
  7  8  1  0
  8  9  1  0
  9 10  1  0
  9 11  1  0
 11 12  2  0
 12 13  1  0
 13 14  2  0
 14 15  1  0
 15 16  2  0
 16 17  1  0
 17 18  2  0
 18 19  1  0
 19 20  1  0
 20 21  1  0
 21 22  1  0
 22 23  2  0
 22 24  1  0
 24 25  1  0
 25 26  2  0
 26 27  1  0
 27 28  2  0
 28 29  1  0
 29 30  2  0
 10  5  1  0
 19 11  1  0
 30 25  1  0
 18 13  1  0
M  END
