CVD-0003844|dock_bobby27042020.0|mol2|36|dock2
     RDKit          3D

 22 24  0  0  0  0  0  0  0  0999 V2000
    9.6771   -6.0852   25.1778 N   0  0  0  0  0  0  0  0  0  0  0  0
    9.6789   -4.8186   26.1570 S   0  0  0  0  0  0  0  0  0  0  0  0
   10.6831   -5.0531   27.1507 O   0  0  0  0  0  0  0  0  0  0  0  0
    8.3263   -4.6061   26.5770 O   0  0  0  0  0  0  0  0  0  0  0  0
   10.1737   -3.3965   25.2321 C   0  0  0  0  0  0  0  0  0  0  0  0
   11.0165   -3.5391   24.1449 C   0  0  0  0  0  0  0  0  0  0  0  0
   11.4098   -2.4205   23.4319 C   0  0  0  0  0  0  0  0  0  0  0  0
   10.9647   -1.1473   23.7766 C   0  0  0  0  0  0  0  0  0  0  0  0
   10.1135   -1.0328   24.8719 C   0  0  0  0  0  0  0  0  0  0  0  0
    9.7241   -2.1419   25.6017 C   0  0  0  0  0  0  0  0  0  0  0  0
   11.3566   -0.0267   23.0514 N   0  0  0  0  0  0  0  0  0  0  0  0
   10.3929    0.9284   22.5274 C   0  0  0  0  0  0  0  0  0  0  0  0
   10.8642    2.3488   22.7935 C   0  0  0  0  0  0  0  0  0  0  0  0
   12.2583    2.6025   22.3118 C   0  0  0  0  0  0  0  0  0  0  0  0
   13.2016    1.5534   22.8789 C   0  0  0  0  0  0  0  0  0  0  0  0
   12.7167    0.1432   22.5550 C   0  0  0  0  0  0  0  0  0  0  0  0
   12.7345    3.9985   22.6634 C   0  0  0  0  0  0  0  0  0  0  0  0
   12.7344    4.4493   23.9749 C   0  0  0  0  0  0  0  0  0  0  0  0
   13.1746    5.7298   24.2457 C   0  0  0  0  0  0  0  0  0  0  0  0
   13.6071    6.5770   23.3111 N   0  0  0  0  0  0  0  0  0  0  0  0
   13.6024    6.1359   22.0527 C   0  0  0  0  0  0  0  0  0  0  0  0
   13.1813    4.8735   21.6845 C   0  0  0  0  0  0  0  0  0  0  0  0
  1  2  1  0
  2  3  2  0
  2  4  2  0
  2  5  1  0
  5  6  2  0
  6  7  1  0
  7  8  2  0
  8  9  1  0
  9 10  2  0
  8 11  1  0
 11 12  1  0
 12 13  1  0
 13 14  1  0
 14 15  1  0
 15 16  1  0
 14 17  1  0
 17 18  2  0
 18 19  1  0
 19 20  2  0
 20 21  1  0
 21 22  2  0
 10  5  1  0
 16 11  1  0
 22 17  1  0
M  END
