CVD-0002474|dock_bobby27042020.34|mol2|16|dock1
     RDKit          3D

 19 20  0  0  0  0  0  0  0  0999 V2000
   13.5217    4.0334   22.3913 C   0  0  0  0  0  0  0  0  0  0  0  0
   13.1448    2.5749   22.4864 C   0  0  0  0  0  0  0  0  0  0  0  0
   11.8190    2.1821   22.5757 C   0  0  0  0  0  0  0  0  0  0  0  0
   11.4717    0.8459   22.6666 C   0  0  0  0  0  0  0  0  0  0  0  0
   12.4431   -0.1425   22.6730 C   0  0  0  0  0  0  0  0  0  0  0  0
   12.0656   -1.6034   22.7684 C   0  0  0  0  0  0  0  0  0  0  0  0
   10.5663   -1.8074   22.8568 C   0  0  0  0  0  0  0  0  0  0  0  0
    9.9712   -1.7462   23.9282 O   0  0  0  0  0  0  0  0  0  0  0  0
    9.9493   -2.0631   21.7064 N   0  0  0  0  0  0  0  0  0  0  0  0
    8.5146   -2.2927   21.6150 C   0  0  0  0  0  0  0  0  0  0  0  0
    7.8169   -1.2290   20.7906 C   0  0  0  0  0  0  0  0  0  0  0  0
    6.3247   -1.4881   20.6407 C   0  0  0  0  0  0  0  0  0  0  0  0
    5.6309   -0.5580   19.6824 C   0  0  0  0  0  0  0  0  0  0  0  0
    4.8778    0.5851   20.0490 C   0  0  0  0  0  0  0  0  0  0  0  0
    4.3349    1.2708   19.0049 C   0  0  0  0  0  0  0  0  0  0  0  0
    4.7482    0.5093   17.5451 S   0  0  0  0  0  0  0  0  0  0  0  0
    5.6334   -0.7125   18.3287 C   0  0  0  0  0  0  0  0  0  0  0  0
   13.7702    0.2467   22.5839 C   0  0  0  0  0  0  0  0  0  0  0  0
   14.1134    1.5839   22.4932 C   0  0  0  0  0  0  0  0  0  0  0  0
  1  2  1  0
  2  3  2  0
  3  4  1  0
  4  5  2  0
  5  6  1  0
  6  7  1  0
  7  8  2  0
  7  9  1  0
  9 10  1  0
 10 11  1  0
 11 12  1  0
 12 13  1  0
 13 14  1  0
 14 15  2  0
 15 16  1  0
 16 17  1  0
  5 18  1  0
 18 19  2  0
 19  2  1  0
 17 13  2  0
M  END
