CVD-0000676|dock_bobby27042020.26|mol2|31|dock1
     RDKit          3D

 24 26  0  0  0  0  0  0  0  0999 V2000
   13.6949    0.1073   22.6037 C   0  0  0  0  0  0  0  0  0  0  0  0
   13.6113   -1.4221   21.7548 S   0  0  0  0  0  0  0  0  0  0  0  0
   14.0758   -2.4463   22.6385 O   0  0  0  0  0  0  0  0  0  0  0  0
   14.2615   -1.2642   20.4906 O   0  0  0  0  0  0  0  0  0  0  0  0
   12.0664   -1.7270   21.4534 N   0  0  0  0  0  0  0  0  0  0  0  0
   11.1509   -2.0252   22.5593 C   0  0  0  0  0  0  0  0  0  0  0  0
   10.0477   -0.9741   22.7612 C   0  0  0  0  0  0  0  0  0  0  0  0
    9.2235   -0.8428   21.4806 C   0  0  0  0  0  0  0  0  0  0  0  0
    9.3409   -1.6550   20.5831 O   0  0  0  0  0  0  0  0  0  0  0  0
    8.3451    0.1898   21.3457 N   0  0  0  0  0  0  0  0  0  0  0  0
    8.1359    1.2487   22.3610 C   0  0  0  0  0  0  0  0  0  0  0  0
    6.9906    2.1159   21.7917 C   0  0  0  0  0  0  0  0  0  0  0  0
    6.7618    1.5597   20.4138 C   0  0  0  0  0  0  0  0  0  0  0  0
    5.9111    1.9791   19.3978 C   0  0  0  0  0  0  0  0  0  0  0  0
    5.8544    1.2171   18.2475 C   0  0  0  0  0  0  0  0  0  0  0  0
    6.5668    0.1050   18.0554 N   0  0  0  0  0  0  0  0  0  0  0  0
    7.3866   -0.2990   19.0348 C   0  0  0  0  0  0  0  0  0  0  0  0
    7.5104    0.4008   20.2254 C   0  0  0  0  0  0  0  0  0  0  0  0
    9.1607   -1.2826   23.9616 C   0  0  0  0  0  0  0  0  0  0  0  0
    9.4721   -0.7349   25.1989 C   0  0  0  0  0  0  0  0  0  0  0  0
    8.6969   -1.0032   26.3145 C   0  0  0  0  0  0  0  0  0  0  0  0
    7.5960   -1.8251   26.2109 C   0  0  0  0  0  0  0  0  0  0  0  0
    7.2687   -2.3742   24.9902 C   0  0  0  0  0  0  0  0  0  0  0  0
    8.0412   -2.1023   23.8733 C   0  0  0  0  0  0  0  0  0  0  0  0
  1  2  1  0
  2  3  2  0
  2  4  2  0
  2  5  1  0
  5  6  1  0
  7  6  1  0
  7  8  1  0
  8  9  2  0
  8 10  1  0
 10 11  1  0
 11 12  1  0
 12 13  1  0
 13 14  2  0
 14 15  1  0
 15 16  2  0
 16 17  1  0
 17 18  2  0
  7 19  1  0
 19 20  2  0
 20 21  1  0
 21 22  2  0
 22 23  1  0
 23 24  2  0
 18 10  1  0
 24 19  1  0
 18 13  1  0
M  END
