CVD-0002681|dock_bobby27042020.47|mol2|38|dock1
     RDKit          3D

 38 41  0  0  0  0  0  0  0  0999 V2000
    9.9550    1.7168   21.0733 O   0  0  0  0  0  0  0  0  0  0  0  0
   10.1145    1.1762   22.1645 C   0  0  0  0  0  0  0  0  0  0  0  0
    9.2422    0.3026   22.6751 N   0  0  0  0  0  0  0  0  0  0  0  0
    7.9948   -0.0138   21.9991 C   0  0  0  0  0  0  0  0  0  0  0  0
    8.2533   -0.7773   20.6913 C   0  0  0  0  0  0  0  0  0  0  0  0
    7.1406   -0.6282   19.6824 C   0  0  0  0  0  0  0  0  0  0  0  0
    6.9983    0.5414   18.9518 C   0  0  0  0  0  0  0  0  0  0  0  0
    5.9756    0.6796   18.0282 C   0  0  0  0  0  0  0  0  0  0  0  0
    5.0829   -0.3506   17.8247 C   0  0  0  0  0  0  0  0  0  0  0  0
    5.2126   -1.5185   18.5450 C   0  0  0  0  0  0  0  0  0  0  0  0
    6.2354   -1.6561   19.4685 C   0  0  0  0  0  0  0  0  0  0  0  0
    7.1255   -0.8695   22.9150 C   0  0  0  0  0  0  0  0  0  0  0  0
    6.0372   -0.4897   23.3114 O   0  0  0  0  0  0  0  0  0  0  0  0
    7.6693   -2.2542   23.3174 C   0  0  0  0  0  0  0  0  0  0  0  0
    8.8737   -2.4425   23.4826 O   0  0  0  0  0  0  0  0  0  0  0  0
    6.7401   -3.1973   23.4639 N   0  0  0  0  0  0  0  0  0  0  0  0
    7.0752   -4.5627   23.8406 C   0  0  0  0  0  0  0  0  0  0  0  0
    5.8826   -5.4878   23.8574 C   0  0  0  0  0  0  0  0  0  0  0  0
    5.3394   -5.9231   25.0564 C   0  0  0  0  0  0  0  0  0  0  0  0
    4.2436   -6.7700   25.0718 C   0  0  0  0  0  0  0  0  0  0  0  0
    3.6776   -7.1912   23.8878 C   0  0  0  0  0  0  0  0  0  0  0  0
    4.2071   -6.7653   22.6887 C   0  0  0  0  0  0  0  0  0  0  0  0
    5.3029   -5.9185   22.6740 C   0  0  0  0  0  0  0  0  0  0  0  0
   11.3464    1.4831   23.0101 C   0  0  0  0  0  0  0  0  0  0  0  0
   12.0512    2.7483   22.4817 C   0  0  0  0  0  0  0  0  0  0  0  0
   11.5204    4.0260   23.0851 C   0  0  0  0  0  0  0  0  0  0  0  0
   10.1901    4.3841   22.9298 C   0  0  0  0  0  0  0  0  0  0  0  0
    9.7034    5.5574   23.4816 C   0  0  0  0  0  0  0  0  0  0  0  0
   10.5419    6.3868   24.1949 C   0  0  0  0  0  0  0  0  0  0  0  0
   11.8669    6.0430   24.3560 C   0  0  0  0  0  0  0  0  0  0  0  0
   12.3530    4.8696   23.8040 C   0  0  0  0  0  0  0  0  0  0  0  0
   12.2328    0.3086   23.0325 N   0  0  0  0  0  0  0  0  0  0  0  0
   12.1584   -0.6204   22.0187 C   0  0  0  0  0  0  0  0  0  0  0  0
   12.9474   -1.7126   22.0140 C   0  0  0  0  0  0  0  0  0  0  0  0
   13.8623   -1.9137   23.0598 C   0  0  0  0  0  0  0  0  0  0  0  0
   13.9442   -1.0094   24.0794 C   0  0  0  0  0  0  0  0  0  0  0  0
   13.1126    0.1574   24.1132 C   0  0  0  0  0  0  0  0  0  0  0  0
   13.1449    0.9895   25.0187 O   0  0  0  0  0  0  0  0  0  0  0  0
  1  2  2  0
  2  3  1  0
  3  4  1  0
  4  5  1  0
  5  6  1  0
  6  7  2  0
  7  8  1  0
  8  9  2  0
  9 10  1  0
 10 11  2  0
  4 12  1  0
 12 13  2  0
 12 14  1  0
 14 15  2  0
 14 16  1  0
 16 17  1  0
 17 18  1  0
 18 19  2  0
 19 20  1  0
 20 21  2  0
 21 22  1  0
 22 23  2  0
  2 24  1  0
 24 25  1  0
 25 26  1  0
 26 27  2  0
 27 28  1  0
 28 29  2  0
 29 30  1  0
 30 31  2  0
 24 32  1  0
 32 33  1  0
 33 34  2  0
 34 35  1  0
 35 36  2  0
 36 37  1  0
 37 38  2  0
 11  6  1  0
 23 18  1  0
 31 26  1  0
 37 32  1  0
M  END
