CVD-0001389|dock_bobby27042020.38|mol2|20|dock3
     RDKit          3D

 14 14  0  0  0  0  0  0  0  0999 V2000
   13.5512    0.2454   22.9649 C   0  0  0  0  0  0  0  0  0  0  0  0
   12.3336    1.1019   22.7334 C   0  0  0  0  0  0  0  0  0  0  0  0
   11.1068    0.4879   22.4953 C   0  0  0  0  0  0  0  0  0  0  0  0
    9.9573    1.2208   22.2795 C   0  0  0  0  0  0  0  0  0  0  0  0
   10.0180    2.6077   22.2998 C   0  0  0  0  0  0  0  0  0  0  0  0
   11.2298    3.2543   22.5366 C   0  0  0  0  0  0  0  0  0  0  0  0
   12.3879    2.5066   22.7539 C   0  0  0  0  0  0  0  0  0  0  0  0
   13.6280    3.1723   22.9970 N   0  0  0  0  0  0  0  0  0  0  0  0
   13.8412    4.7868   23.0494 S   0  0  0  0  0  0  0  0  0  0  0  0
   13.6321    5.3834   21.4159 C   0  0  0  0  0  0  0  0  0  0  0  0
   12.7829    5.3185   23.8514 O   0  0  0  0  0  0  0  0  0  0  0  0
   15.1908    5.0300   23.4564 O   0  0  0  0  0  0  0  0  0  0  0  0
    8.8257    3.3873   22.0758 C   0  0  0  0  0  0  0  0  0  0  0  0
    7.8645    3.9839   21.9181 N   0  0  0  0  0  0  0  0  0  0  0  0
  1  2  1  0
  2  3  2  0
  3  4  1  0
  4  5  2  0
  5  6  1  0
  6  7  2  0
  7  8  1  0
  8  9  1  0
  9 10  1  0
  9 11  2  0
  9 12  2  0
  5 13  1  0
 13 14  3  0
  7  2  1  0
M  END
