CVD-0002198|dock_bobby27042020.21|mol2|13|dock1
     RDKit          3D

 20 22  0  0  0  0  0  0  0  0999 V2000
    8.8364   -0.2703   17.8534 N   0  0  0  0  0  0  0  0  0  0  0  0
    7.6693   -0.0276   18.4578 C   0  0  0  0  0  0  0  0  0  0  0  0
    6.7677    0.7123   17.7699 N   0  0  0  0  0  0  0  0  0  0  0  0
    5.5854    0.9838   18.3314 C   0  0  0  0  0  0  0  0  0  0  0  0
    5.2283    0.5414   19.6001 C   0  0  0  0  0  0  0  0  0  0  0  0
    6.1489   -0.2200   20.3140 C   0  0  0  0  0  0  0  0  0  0  0  0
    7.3900   -0.5264   19.7661 C   0  0  0  0  0  0  0  0  0  0  0  0
    8.3868   -1.3546   20.5561 C   0  0  0  0  0  0  0  0  0  0  0  0
    9.5505   -0.5607   21.1139 C   0  0  0  0  0  0  0  0  0  0  0  0
    9.4158    0.7904   21.4061 C   0  0  0  0  0  0  0  0  0  0  0  0
   10.4756    1.5214   21.9192 C   0  0  0  0  0  0  0  0  0  0  0  0
   11.6980    0.8990   22.1481 C   0  0  0  0  0  0  0  0  0  0  0  0
   12.9864    1.4491   22.6869 C   0  0  0  0  0  0  0  0  0  0  0  0
   13.8288    0.2729   22.6726 N   0  0  0  0  0  0  0  0  0  0  0  0
   13.2304   -0.8368   22.2026 C   0  0  0  0  0  0  0  0  0  0  0  0
   13.7599   -1.9397   22.1104 O   0  0  0  0  0  0  0  0  0  0  0  0
   11.8453   -0.4461   21.8613 C   0  0  0  0  0  0  0  0  0  0  0  0
   10.7763   -1.1767   21.3454 C   0  0  0  0  0  0  0  0  0  0  0  0
    3.9405    0.8597   20.1658 C   0  0  0  0  0  0  0  0  0  0  0  0
    2.9240    1.1431   20.6031 N   0  0  0  0  0  0  0  0  0  0  0  0
  1  2  1  0
  2  3  2  0
  3  4  1  0
  4  5  2  0
  5  6  1  0
  6  7  2  0
  7  8  1  0
  8  9  1  0
  9 10  2  0
 10 11  1  0
 11 12  2  0
 12 13  1  0
 13 14  1  0
 14 15  1  0
 15 16  2  0
 15 17  1  0
 17 18  2  0
  5 19  1  0
 19 20  3  0
  7  2  1  0
 18  9  1  0
 17 12  1  0
M  END
