CVD-0000360|dock_bobby27042020.27|mol2|25|dock3
     RDKit          3D

 24 26  0  0  0  0  0  0  0  0999 V2000
   11.7840    9.6226   26.6135 C   0  0  0  0  0  0  0  0  0  0  0  0
   10.4471    9.2085   26.0705 C   0  0  0  0  0  0  0  0  0  0  0  0
    9.5482   10.0353   25.9632 O   0  0  0  0  0  0  0  0  0  0  0  0
   10.2458    7.9186   25.6866 N   0  0  0  0  0  0  0  0  0  0  0  0
    8.9757    7.4436   25.1335 C   0  0  0  0  0  0  0  0  0  0  0  0
    9.2014    6.7635   23.7959 C   0  0  0  0  0  0  0  0  0  0  0  0
   10.1376    5.6457   23.9468 N   0  0  0  0  0  0  0  0  0  0  0  0
   10.3291    4.9584   22.6616 C   0  0  0  0  0  0  0  0  0  0  0  0
   11.0436    3.6347   22.7925 C   0  0  0  0  0  0  0  0  0  0  0  0
   12.4072    3.5360   22.5794 C   0  0  0  0  0  0  0  0  0  0  0  0
   13.0633    2.3225   22.6838 C   0  0  0  0  0  0  0  0  0  0  0  0
   12.3729    1.1516   23.0078 C   0  0  0  0  0  0  0  0  0  0  0  0
   11.0003    1.2731   23.2426 C   0  0  0  0  0  0  0  0  0  0  0  0
    9.9178   -0.2006   23.7483 Br  0  0  0  0  0  0  0  0  0  0  0  0
   10.3443    2.4846   23.1260 C   0  0  0  0  0  0  0  0  0  0  0  0
   13.1750   -0.1030   23.0708 C   0  0  0  0  0  0  0  0  0  0  0  0
   13.7594   -0.5241   24.2613 C   0  0  0  0  0  0  0  0  0  0  0  0
   14.4976   -1.6957   24.2530 C   0  0  0  0  0  0  0  0  0  0  0  0
   15.1534   -2.2169   25.4960 C   0  0  0  0  0  0  0  0  0  0  0  0
   14.6485   -2.4112   23.1329 N   0  0  0  0  0  0  0  0  0  0  0  0
   14.0518   -1.9214   22.0466 C   0  0  0  0  0  0  0  0  0  0  0  0
   13.3231   -0.8105   21.9379 N   0  0  0  0  0  0  0  0  0  0  0  0
   11.4111    6.1550   24.4490 C   0  0  0  0  0  0  0  0  0  0  0  0
   11.2259    6.8334   25.7942 C   0  0  0  0  0  0  0  0  0  0  0  0
  1  2  1  0
  2  3  2  0
  2  4  1  0
  4  5  1  0
  5  6  1  0
  6  7  1  0
  7  8  1  0
  8  9  1  0
  9 10  2  0
 10 11  1  0
 11 12  2  0
 12 13  1  0
 13 14  1  0
 13 15  2  0
 12 16  1  0
 16 17  2  0
 17 18  1  0
 18 19  1  0
 18 20  2  0
 20 21  1  0
 21 22  2  0
  7 23  1  0
 23 24  1  0
 24  4  1  0
 15  9  1  0
 22 16  1  0
M  END
