CVD-0002624|dock_bobby27042020.5|mol2|7|dock3
     RDKit          3D

 31 34  0  0  0  0  0  0  0  0999 V2000
    4.5958    0.5837   17.4783 Cl  0  0  0  0  0  0  0  0  0  0  0  0
    5.9595    0.7454   18.5925 C   0  0  0  0  0  0  0  0  0  0  0  0
    5.6167    0.1979   19.9641 C   0  0  0  0  0  0  0  0  0  0  0  0
    4.5266   -0.3086   20.1975 O   0  0  0  0  0  0  0  0  0  0  0  0
    6.5715    0.3030   20.9106 N   0  0  0  0  0  0  0  0  0  0  0  0
    6.3890   -0.1826   22.2801 C   0  0  0  0  0  0  0  0  0  0  0  0
    7.5121   -1.1293   22.6609 C   0  0  0  0  0  0  0  0  0  0  0  0
    8.8082   -0.4572   22.5304 N   0  0  0  0  0  0  0  0  0  0  0  0
    9.8969   -1.3570   22.9360 C   0  0  0  0  0  0  0  0  0  0  0  0
   11.2612   -0.7206   22.8217 C   0  0  0  0  0  0  0  0  0  0  0  0
   12.3655   -1.4709   22.4547 C   0  0  0  0  0  0  0  0  0  0  0  0
   13.6132   -0.8801   22.3554 C   0  0  0  0  0  0  0  0  0  0  0  0
   13.7751    0.4693   22.6223 C   0  0  0  0  0  0  0  0  0  0  0  0
   12.6770    1.2413   22.9943 C   0  0  0  0  0  0  0  0  0  0  0  0
   12.7594    2.6265   23.2842 N   0  0  0  0  0  0  0  0  0  0  0  0
   13.6613    3.5687   22.9058 C   0  0  0  0  0  0  0  0  0  0  0  0
   14.6409    3.3709   22.1898 O   0  0  0  0  0  0  0  0  0  0  0  0
   13.4136    4.9322   23.4150 C   0  0  0  0  0  0  0  0  0  0  0  0
   13.6040    6.1688   22.8802 C   0  0  0  0  0  0  0  0  0  0  0  0
   13.2480    7.2347   23.6672 N   0  0  0  0  0  0  0  0  0  0  0  0
   12.7786    6.8203   24.8128 C   0  0  0  0  0  0  0  0  0  0  0  0
   12.3091    7.7421   25.8994 C   0  0  0  0  0  0  0  0  0  0  0  0
   12.1511    7.0367   27.2183 C   0  0  0  0  0  0  0  0  0  0  0  0
   11.0033    6.3047   27.6090 C   0  0  0  0  0  0  0  0  0  0  0  0
   11.0823    5.7570   28.8538 C   0  0  0  0  0  0  0  0  0  0  0  0
   12.5802    6.1431   29.5557 S   0  0  0  0  0  0  0  0  0  0  0  0
   13.0946    7.0309   28.1999 C   0  0  0  0  0  0  0  0  0  0  0  0
   12.7478    5.0919   25.0047 S   0  0  0  0  0  0  0  0  0  0  0  0
   11.4305    0.6314   23.0892 C   0  0  0  0  0  0  0  0  0  0  0  0
    8.9866   -0.0308   21.1448 C   0  0  0  0  0  0  0  0  0  0  0  0
    7.8854    0.9285   20.7314 C   0  0  0  0  0  0  0  0  0  0  0  0
  1  2  1  0
  2  3  1  0
  3  4  2  0
  3  5  1  0
  5  6  1  0
  6  7  1  0
  7  8  1  0
  8  9  1  0
  9 10  1  0
 10 11  2  0
 11 12  1  0
 12 13  2  0
 13 14  1  0
 14 15  1  0
 15 16  1  0
 16 17  2  0
 16 18  1  0
 18 19  2  0
 19 20  1  0
 20 21  2  0
 21 22  1  0
 22 23  1  0
 23 24  1  0
 24 25  2  0
 25 26  1  0
 26 27  1  0
 21 28  1  0
 14 29  2  0
  8 30  1  0
 30 31  1  0
 31  5  1  0
 29 10  1  0
 28 18  1  0
 27 23  2  0
M  END
