CVD-0003098|dock_bobby27042020.46|mol2|22|dock1
     RDKit          3D

 22 24  0  0  0  0  0  0  0  0999 V2000
    5.7164   -1.0258   18.2484 C   0  0  0  0  0  0  0  0  0  0  0  0
    6.7137   -0.4365   19.1895 C   0  0  0  0  0  0  0  0  0  0  0  0
    7.8603   -0.9701   19.4480 N   0  0  0  0  0  0  0  0  0  0  0  0
    8.6142   -0.2239   20.3526 N   0  0  0  0  0  0  0  0  0  0  0  0
    8.0111    0.8499   20.7364 C   0  0  0  0  0  0  0  0  0  0  0  0
    8.5830    1.8357   21.7095 C   0  0  0  0  0  0  0  0  0  0  0  0
    8.9891    1.1671   23.0114 C   0  0  0  0  0  0  0  0  0  0  0  0
   10.0845    0.2116   22.8434 N   0  0  0  0  0  0  0  0  0  0  0  0
    9.7966   -1.1935   23.1016 C   0  0  0  0  0  0  0  0  0  0  0  0
   10.7852   -2.0719   22.3560 C   0  0  0  0  0  0  0  0  0  0  0  0
   12.1987   -1.7486   22.7937 C   0  0  0  0  0  0  0  0  0  0  0  0
   12.4775   -0.2701   22.6712 C   0  0  0  0  0  0  0  0  0  0  0  0
   13.7759    0.2056   22.5274 C   0  0  0  0  0  0  0  0  0  0  0  0
   14.0444    1.5597   22.4895 C   0  0  0  0  0  0  0  0  0  0  0  0
   12.9940    2.4554   22.5972 C   0  0  0  0  0  0  0  0  0  0  0  0
   11.6867    2.0158   22.7416 C   0  0  0  0  0  0  0  0  0  0  0  0
   11.4133    0.6497   22.7803 C   0  0  0  0  0  0  0  0  0  0  0  0
   13.3127    4.1909   22.4979 S   0  0  0  0  0  0  0  0  0  0  0  0
   11.9125    4.9665   22.5321 N   0  0  0  0  0  0  0  0  0  0  0  0
   14.0314    4.5620   23.6798 O   0  0  0  0  0  0  0  0  0  0  0  0
   13.9059    4.4442   21.2192 O   0  0  0  0  0  0  0  0  0  0  0  0
    6.4373    1.0556   20.0271 S   0  0  0  0  0  0  0  0  0  0  0  0
  1  2  1  0
  2  3  2  0
  3  4  1  0
  4  5  2  0
  5  6  1  0
  6  7  1  0
  7  8  1  0
  8  9  1  0
  9 10  1  0
 10 11  1  0
 11 12  1  0
 12 13  2  0
 13 14  1  0
 14 15  2  0
 15 16  1  0
 16 17  2  0
 15 18  1  0
 18 19  1  0
 18 20  2  0
 18 21  2  0
  5 22  1  0
 22  2  1  0
 17  8  1  0
 17 12  1  0
M  END
