CVD-0003944|dock_bobby27042020.58|mol2|12|dock3
     RDKit          3D

 23 25  0  0  0  0  0  0  0  0999 V2000
    7.8692   -1.3076   18.3522 C   0  0  0  0  0  0  0  0  0  0  0  0
    7.3173   -0.1243   19.1051 C   0  0  0  0  0  0  0  0  0  0  0  0
    6.2047    0.5300   18.5848 C   0  0  0  0  0  0  0  0  0  0  0  0
    5.6784    1.6161   19.2470 C   0  0  0  0  0  0  0  0  0  0  0  0
    6.1845    2.0881   20.3823 N   0  0  0  0  0  0  0  0  0  0  0  0
    7.2539    1.4685   20.8914 C   0  0  0  0  0  0  0  0  0  0  0  0
    7.8697    0.3609   20.3067 C   0  0  0  0  0  0  0  0  0  0  0  0
    9.0095   -0.3054   20.8404 N   0  0  0  0  0  0  0  0  0  0  0  0
    9.4832   -0.3357   22.1314 C   0  0  0  0  0  0  0  0  0  0  0  0
    8.9762    0.2367   23.0914 O   0  0  0  0  0  0  0  0  0  0  0  0
   10.6051   -1.0865   22.2447 N   0  0  0  0  0  0  0  0  0  0  0  0
   11.3637   -1.3183   23.4772 C   0  0  0  0  0  0  0  0  0  0  0  0
   12.5324   -2.2532   23.1683 C   0  0  0  0  0  0  0  0  0  0  0  0
   13.5450   -1.5856   22.2547 C   0  0  0  0  0  0  0  0  0  0  0  0
   14.0363   -0.2734   22.8306 C   0  0  0  0  0  0  0  0  0  0  0  0
   12.8765    0.6623   23.1286 C   0  0  0  0  0  0  0  0  0  0  0  0
   11.8589    0.0061   24.0490 C   0  0  0  0  0  0  0  0  0  0  0  0
   10.2652   -1.9334   24.3625 C   0  0  0  0  0  0  0  0  0  0  0  0
    9.5841   -3.0713   23.9415 C   0  0  0  0  0  0  0  0  0  0  0  0
    8.5784   -3.6164   24.7198 C   0  0  0  0  0  0  0  0  0  0  0  0
    8.2756   -3.0096   25.9156 C   0  0  0  0  0  0  0  0  0  0  0  0
    8.9134   -1.9269   26.3588 N   0  0  0  0  0  0  0  0  0  0  0  0
    9.8877   -1.4243   25.5940 C   0  0  0  0  0  0  0  0  0  0  0  0
  1  2  1  0
  2  3  2  0
  3  4  1  0
  4  5  2  0
  5  6  1  0
  6  7  2  0
  7  8  1  0
  8  9  1  0
  9 10  2  0
  9 11  1  0
 11 12  1  0
 12 13  1  0
 13 14  1  0
 14 15  1  0
 15 16  1  0
 16 17  1  0
 12 18  1  0
 18 19  2  0
 19 20  1  0
 20 21  2  0
 21 22  1  0
 22 23  2  0
  7  2  1  0
 17 12  1  0
 23 18  1  0
M  END
