CVD-0004031|dock_bobby27042020.72|mol2|3|dock1
     RDKit          3D

 23 26  0  0  0  0  0  0  0  0999 V2000
    5.6026   -1.3911   21.3383 C   0  0  0  0  0  0  0  0  0  0  0  0
    7.0222   -1.0958   21.7367 C   0  0  0  0  0  0  0  0  0  0  0  0
    7.9030   -2.1531   22.0770 C   0  0  0  0  0  0  0  0  0  0  0  0
    9.1847   -1.9105   22.4281 C   0  0  0  0  0  0  0  0  0  0  0  0
    9.6636   -0.5811   22.4524 C   0  0  0  0  0  0  0  0  0  0  0  0
   10.8723    0.0604   22.7543 C   0  0  0  0  0  0  0  0  0  0  0  0
   10.6101    1.4521   22.5375 C   0  0  0  0  0  0  0  0  0  0  0  0
    9.3384    1.6574   22.1898 N   0  0  0  0  0  0  0  0  0  0  0  0
    8.7752    0.4142   22.1208 N   0  0  0  0  0  0  0  0  0  0  0  0
    7.4891    0.1747   21.7686 C   0  0  0  0  0  0  0  0  0  0  0  0
   11.4594    2.6612   22.6077 C   0  0  0  0  0  0  0  0  0  0  0  0
   12.8382    2.5259   22.4818 C   0  0  0  0  0  0  0  0  0  0  0  0
   13.6740    3.6277   22.5181 C   0  0  0  0  0  0  0  0  0  0  0  0
   13.1128    4.8633   22.6855 C   0  0  0  0  0  0  0  0  0  0  0  0
   13.9272    5.9527   22.7073 F   0  0  0  0  0  0  0  0  0  0  0  0
   11.7658    5.0480   22.8335 C   0  0  0  0  0  0  0  0  0  0  0  0
   10.9414    3.9370   22.8097 C   0  0  0  0  0  0  0  0  0  0  0  0
   12.1048   -0.6560   23.2116 C   0  0  0  0  0  0  0  0  0  0  0  0
   12.6358   -1.7006   22.4628 C   0  0  0  0  0  0  0  0  0  0  0  0
   13.7597   -2.3549   22.9271 C   0  0  0  0  0  0  0  0  0  0  0  0
   14.3891   -2.0403   24.0590 N   0  0  0  0  0  0  0  0  0  0  0  0
   13.8799   -1.0319   24.7659 C   0  0  0  0  0  0  0  0  0  0  0  0
   12.7554   -0.3221   24.3944 C   0  0  0  0  0  0  0  0  0  0  0  0
  1  2  1  0
  2  3  1  0
  3  4  2  0
  4  5  1  0
  5  6  2  0
  6  7  1  0
  7  8  2  0
  8  9  1  0
  9 10  1  0
  7 11  1  0
 11 12  2  0
 12 13  1  0
 13 14  2  0
 14 15  1  0
 14 16  1  0
 16 17  2  0
  6 18  1  0
 18 19  2  0
 19 20  1  0
 20 21  2  0
 21 22  1  0
 22 23  2  0
 10  2  2  0
 17 11  1  0
 23 18  1  0
  9  5  1  0
M  END
