CVD-0004042|dock_bobby27042020.14|mol2|34|dock3
     RDKit          3D

 23 26  0  0  0  0  0  0  0  0999 V2000
    5.6229   -1.1441   21.1144 C   0  0  0  0  0  0  0  0  0  0  0  0
    7.0421   -0.9621   21.5518 C   0  0  0  0  0  0  0  0  0  0  0  0
    7.8325   -2.0864   21.8970 C   0  0  0  0  0  0  0  0  0  0  0  0
    9.1113   -1.8912   22.2851 C   0  0  0  0  0  0  0  0  0  0  0  0
    9.6154   -0.5739   22.3299 C   0  0  0  0  0  0  0  0  0  0  0  0
   10.8221    0.0531   22.6657 C   0  0  0  0  0  0  0  0  0  0  0  0
   10.5690    1.4450   22.4436 C   0  0  0  0  0  0  0  0  0  0  0  0
    9.3054    1.6451   22.0650 N   0  0  0  0  0  0  0  0  0  0  0  0
    8.7667    0.4221   21.9852 N   0  0  0  0  0  0  0  0  0  0  0  0
    7.4835    0.2668   21.5917 N   0  0  0  0  0  0  0  0  0  0  0  0
   11.4157    2.6547   22.5347 C   0  0  0  0  0  0  0  0  0  0  0  0
   12.7974    2.5201   22.4460 C   0  0  0  0  0  0  0  0  0  0  0  0
   13.6313    3.6225   22.5033 C   0  0  0  0  0  0  0  0  0  0  0  0
   13.0649    4.8579   22.6542 C   0  0  0  0  0  0  0  0  0  0  0  0
   13.8778    5.9479   22.6966 F   0  0  0  0  0  0  0  0  0  0  0  0
   11.7144    5.0420   22.7656 C   0  0  0  0  0  0  0  0  0  0  0  0
   10.8915    3.9304   22.7209 C   0  0  0  0  0  0  0  0  0  0  0  0
   12.0367   -0.6737   23.1534 C   0  0  0  0  0  0  0  0  0  0  0  0
   12.6596   -0.2941   24.3373 C   0  0  0  0  0  0  0  0  0  0  0  0
   13.7897   -0.9732   24.7483 C   0  0  0  0  0  0  0  0  0  0  0  0
   14.3280   -1.9934   24.0810 N   0  0  0  0  0  0  0  0  0  0  0  0
   13.7217   -2.3554   22.9508 C   0  0  0  0  0  0  0  0  0  0  0  0
   12.5951   -1.7345   22.4488 C   0  0  0  0  0  0  0  0  0  0  0  0
  1  2  1  0
  2  3  1  0
  3  4  2  0
  4  5  1  0
  5  6  2  0
  6  7  1  0
  7  8  2  0
  8  9  1  0
  9 10  1  0
  7 11  1  0
 11 12  2  0
 12 13  1  0
 13 14  2  0
 14 15  1  0
 14 16  1  0
 16 17  2  0
  6 18  1  0
 18 19  2  0
 19 20  1  0
 20 21  2  0
 21 22  1  0
 22 23  2  0
 10  2  2  0
 17 11  1  0
 23 18  1  0
  9  5  1  0
M  END
