CVD-0002841|dock_bobby27042020.75|mol2|40|dock1
     RDKit          3D

 19 21  0  0  0  0  0  0  0  0999 V2000
   10.2007   -0.8065   21.2275 O   0  0  0  0  0  0  0  0  0  0  0  0
   10.6115   -1.5309   22.3744 C   0  0  0  0  0  0  0  0  0  0  0  0
   11.9082   -1.0312   22.9695 C   0  0  0  0  0  0  0  0  0  0  0  0
   12.8742   -1.9618   23.3490 C   0  0  0  0  0  0  0  0  0  0  0  0
   14.0786   -1.5312   23.8654 C   0  0  0  0  0  0  0  0  0  0  0  0
   14.3892   -0.2495   24.0411 N   0  0  0  0  0  0  0  0  0  0  0  0
   13.4539    0.6450   23.7146 C   0  0  0  0  0  0  0  0  0  0  0  0
   12.2097    0.3330   23.1576 C   0  0  0  0  0  0  0  0  0  0  0  0
   11.2791    1.4349   22.8014 C   0  0  0  0  0  0  0  0  0  0  0  0
    9.9128    1.3109   23.0296 N   0  0  0  0  0  0  0  0  0  0  0  0
    9.3831    2.4511   22.6222 C   0  0  0  0  0  0  0  0  0  0  0  0
   10.3085    3.2974   22.1458 N   0  0  0  0  0  0  0  0  0  0  0  0
   11.5253    2.6692   22.2447 C   0  0  0  0  0  0  0  0  0  0  0  0
   12.7797    3.3473   21.7780 C   0  0  0  0  0  0  0  0  0  0  0  0
   13.0682    4.6555   22.4492 C   0  0  0  0  0  0  0  0  0  0  0  0
   13.7131    5.7849   22.0596 C   0  0  0  0  0  0  0  0  0  0  0  0
   13.7005    6.7150   23.0696 N   0  0  0  0  0  0  0  0  0  0  0  0
   13.0485    6.1436   24.0637 C   0  0  0  0  0  0  0  0  0  0  0  0
   12.6490    4.9029   23.7353 N   0  0  0  0  0  0  0  0  0  0  0  0
  1  2  1  0
  2  3  1  0
  3  4  2  0
  4  5  1  0
  5  6  2  0
  6  7  1  0
  7  8  2  0
  8  9  1  0
  9 10  1  0
 10 11  2  0
 11 12  1  0
 12 13  1  0
 13 14  1  0
 14 15  1  0
 15 16  2  0
 16 17  1  0
 17 18  2  0
 18 19  1  0
  8  3  1  0
 13  9  2  0
 19 15  1  0
M  END
