CVD-0000957|dock_bobby27042020.82|mol2|35|dock3
     RDKit          3D

 23 24  0  0  0  0  0  0  0  0999 V2000
   14.1583    5.0152   21.5671 C   0  0  0  0  0  0  0  0  0  0  0  0
   12.8528    4.2781   21.6313 C   0  0  0  0  0  0  0  0  0  0  0  0
   11.9256    4.5785   20.8872 O   0  0  0  0  0  0  0  0  0  0  0  0
   12.8330    3.2824   22.5559 N   0  0  0  0  0  0  0  0  0  0  0  0
   11.8118    2.3579   22.9137 C   0  0  0  0  0  0  0  0  0  0  0  0
   10.4590    2.6936   22.9691 C   0  0  0  0  0  0  0  0  0  0  0  0
    9.4908    1.8337   23.2965 N   0  0  0  0  0  0  0  0  0  0  0  0
    9.8413    0.5772   23.5646 C   0  0  0  0  0  0  0  0  0  0  0  0
   11.1348    0.1313   23.5438 C   0  0  0  0  0  0  0  0  0  0  0  0
   11.4162   -1.3221   23.8560 C   0  0  0  0  0  0  0  0  0  0  0  0
   11.3730   -2.2024   22.6199 C   0  0  0  0  0  0  0  0  0  0  0  0
   10.0366   -2.2659   22.0454 N   0  0  0  0  0  0  0  0  0  0  0  0
    9.6126   -1.3417   21.1774 C   0  0  0  0  0  0  0  0  0  0  0  0
   10.3666   -0.4287   20.8539 O   0  0  0  0  0  0  0  0  0  0  0  0
    8.2300   -1.3971   20.5797 C   0  0  0  0  0  0  0  0  0  0  0  0
    7.1979   -1.6960   21.4756 C   0  0  0  0  0  0  0  0  0  0  0  0
    5.8775   -1.7550   21.0633 C   0  0  0  0  0  0  0  0  0  0  0  0
    5.5462   -1.5189   19.7495 C   0  0  0  0  0  0  0  0  0  0  0  0
    6.5398   -1.2347   18.8320 C   0  0  0  0  0  0  0  0  0  0  0  0
    7.8473   -1.1928   19.2559 C   0  0  0  0  0  0  0  0  0  0  0  0
    8.7609   -0.9444   18.2913 F   0  0  0  0  0  0  0  0  0  0  0  0
   12.1643    1.0311   23.2283 C   0  0  0  0  0  0  0  0  0  0  0  0
   13.5991    0.5495   23.2444 C   0  0  0  0  0  0  0  0  0  0  0  0
  1  2  1  0
  2  3  2  0
  2  4  1  0
  4  5  1  0
  5  6  2  0
  6  7  1  0
  7  8  2  0
  8  9  1  0
  9 10  1  0
 10 11  1  0
 11 12  1  0
 12 13  1  0
 13 14  2  0
 13 15  1  0
 15 16  2  0
 16 17  1  0
 17 18  2  0
 18 19  1  0
 19 20  2  0
 20 21  1  0
  9 22  2  0
 22 23  1  0
 22  5  1  0
 20 15  1  0
M  END
