CVD-0002165|dock_bobby27042020.64|mol2|23|dock1
     RDKit          3D

 25 27  0  0  0  0  0  0  0  0999 V2000
    8.9331   -0.3768   22.6936 O   0  0  0  0  0  0  0  0  0  0  0  0
    9.4178   -0.8201   21.6579 C   0  0  0  0  0  0  0  0  0  0  0  0
    8.8614   -0.6611   20.4090 N   0  0  0  0  0  0  0  0  0  0  0  0
    7.6759    0.0008   19.9993 C   0  0  0  0  0  0  0  0  0  0  0  0
    7.0477    0.9993   20.7389 C   0  0  0  0  0  0  0  0  0  0  0  0
    5.8833    1.5881   20.2781 C   0  0  0  0  0  0  0  0  0  0  0  0
    5.3113    1.2012   19.0731 C   0  0  0  0  0  0  0  0  0  0  0  0
    4.1126    1.8249   18.6703 N   0  0  0  0  0  0  0  0  0  0  0  0
    3.0308    2.3425   19.3670 C   0  0  0  0  0  0  0  0  0  0  0  0
    2.6795    1.9229   20.6515 C   0  0  0  0  0  0  0  0  0  0  0  0
    1.5583    2.4742   21.2453 C   0  0  0  0  0  0  0  0  0  0  0  0
    0.8224    3.4411   20.5710 C   0  0  0  0  0  0  0  0  0  0  0  0
    1.2662    3.8166   19.3075 C   0  0  0  0  0  0  0  0  0  0  0  0
    2.3457    3.2905   18.7187 N   0  0  0  0  0  0  0  0  0  0  0  0
   -0.3542    4.0327   21.1586 C   0  0  0  0  0  0  0  0  0  0  0  0
   -1.2881    4.4755   21.6451 N   0  0  0  0  0  0  0  0  0  0  0  0
    5.9549    0.2256   18.3197 C   0  0  0  0  0  0  0  0  0  0  0  0
    7.1122   -0.3723   18.7855 C   0  0  0  0  0  0  0  0  0  0  0  0
   10.5886   -1.5409   21.5948 N   0  0  0  0  0  0  0  0  0  0  0  0
   11.4872   -1.9408   22.6163 C   0  0  0  0  0  0  0  0  0  0  0  0
   12.8436   -1.9966   22.3222 C   0  0  0  0  0  0  0  0  0  0  0  0
   13.7435   -2.3834   23.2995 C   0  0  0  0  0  0  0  0  0  0  0  0
   13.2621   -2.7045   24.5470 C   0  0  0  0  0  0  0  0  0  0  0  0
   11.9676   -2.6614   24.8619 N   0  0  0  0  0  0  0  0  0  0  0  0
   11.1058   -2.2867   23.9114 C   0  0  0  0  0  0  0  0  0  0  0  0
  1  2  2  0
  2  3  1  0
  3  4  1  0
  4  5  2  0
  5  6  1  0
  6  7  2  0
  7  8  1  0
  8  9  1  0
  9 10  2  0
 10 11  1  0
 11 12  2  0
 12 13  1  0
 13 14  2  0
 12 15  1  0
 15 16  3  0
  7 17  1  0
 17 18  2  0
  2 19  1  0
 19 20  1  0
 20 21  2  0
 21 22  1  0
 22 23  2  0
 23 24  1  0
 24 25  2  0
 18  4  1  0
 25 20  1  0
 14  9  1  0
M  END
