CVD-0003429|dock_bobby27042020.74|mol2|1|dock1
     RDKit          3D

 20 22  0  0  0  0  0  0  0  0999 V2000
    8.8773   -0.8809   17.3973 Cl  0  0  0  0  0  0  0  0  0  0  0  0
    7.4653   -0.3266   18.2399 C   0  0  0  0  0  0  0  0  0  0  0  0
    6.5323    0.1937   17.4643 N   0  0  0  0  0  0  0  0  0  0  0  0
    5.4095    0.6337   18.0381 C   0  0  0  0  0  0  0  0  0  0  0  0
    5.2274    0.5875   19.4119 C   0  0  0  0  0  0  0  0  0  0  0  0
    4.2185    0.9744   20.2599 N   0  0  0  0  0  0  0  0  0  0  0  0
    4.6362    0.6993   21.5099 C   0  0  0  0  0  0  0  0  0  0  0  0
    5.8325    0.1547   21.5592 N   0  0  0  0  0  0  0  0  0  0  0  0
    6.2271    0.0515   20.2323 C   0  0  0  0  0  0  0  0  0  0  0  0
    7.3973   -0.4595   19.6167 C   0  0  0  0  0  0  0  0  0  0  0  0
    8.4637   -1.0716   20.3636 N   0  0  0  0  0  0  0  0  0  0  0  0
    8.4884   -1.3871   21.6822 C   0  0  0  0  0  0  0  0  0  0  0  0
    7.5782   -1.1978   22.4803 O   0  0  0  0  0  0  0  0  0  0  0  0
    9.7916   -2.0365   22.0996 C   0  0  0  0  0  0  0  0  0  0  0  0
   10.9959   -1.0957   22.2357 C   0  0  0  0  0  0  0  0  0  0  0  0
   12.3241   -1.8765   22.1626 C   0  0  0  0  0  0  0  0  0  0  0  0
   13.5413   -0.9766   22.3675 C   0  0  0  0  0  0  0  0  0  0  0  0
   13.4340   -0.1854   23.6646 C   0  0  0  0  0  0  0  0  0  0  0  0
   12.1364    0.6084   23.7180 C   0  0  0  0  0  0  0  0  0  0  0  0
   10.9248   -0.3032   23.5520 C   0  0  0  0  0  0  0  0  0  0  0  0
  1  2  1  0
  2  3  2  0
  3  4  1  0
  4  5  2  0
  5  6  1  0
  6  7  1  0
  7  8  2  0
  8  9  1  0
  9 10  2  0
 10 11  1  0
 11 12  1  0
 12 13  2  0
 12 14  1  0
 14 15  1  0
 15 16  1  0
 16 17  1  0
 17 18  1  0
 18 19  1  0
 19 20  1  0
 10  2  1  0
 20 15  1  0
  9  5  1  0
M  END
