CVD-0002132|dock_bobby27042020.64|mol2|30|dock2
     RDKit          3D

 20 20  0  0  0  0  0  0  0  0999 V2000
    3.0908    3.2702   18.0724 N   0  0  0  0  0  0  0  0  0  0  0  0
    3.7046    2.3160   19.1765 S   0  0  0  0  0  0  0  0  0  0  0  0
    2.6613    1.4610   19.6401 O   0  0  0  0  0  0  0  0  0  0  0  0
    4.4201    3.1294   20.1044 O   0  0  0  0  0  0  0  0  0  0  0  0
    4.8840    1.3008   18.3569 C   0  0  0  0  0  0  0  0  0  0  0  0
    5.3274    1.6216   17.2735 O   0  0  0  0  0  0  0  0  0  0  0  0
    5.2170    0.1827   19.0194 N   0  0  0  0  0  0  0  0  0  0  0  0
    6.1479   -0.8172   18.5154 C   0  0  0  0  0  0  0  0  0  0  0  0
    7.5818   -0.4998   18.8912 C   0  0  0  0  0  0  0  0  0  0  0  0
    7.8508   -0.6958   20.3635 C   0  0  0  0  0  0  0  0  0  0  0  0
    7.0207   -0.3942   21.2154 O   0  0  0  0  0  0  0  0  0  0  0  0
    9.0377   -1.2117   20.6713 N   0  0  0  0  0  0  0  0  0  0  0  0
    9.4332   -1.4535   22.0361 C   0  0  0  0  0  0  0  0  0  0  0  0
   10.7686   -0.9134   22.3206 N   0  0  0  0  0  0  0  0  0  0  0  0
   10.8730   -0.4909   23.7224 C   0  0  0  0  0  0  0  0  0  0  0  0
   12.2265    0.1207   24.0267 C   0  0  0  0  0  0  0  0  0  0  0  0
   13.3829   -0.8131   23.6909 C   0  0  0  0  0  0  0  0  0  0  0  0
   14.6729   -0.2158   23.8479 O   0  0  0  0  0  0  0  0  0  0  0  0
   13.1957   -1.3171   22.2641 C   0  0  0  0  0  0  0  0  0  0  0  0
   11.8121   -1.9016   22.0341 C   0  0  0  0  0  0  0  0  0  0  0  0
  1  2  1  0
  2  3  2  0
  2  4  2  0
  2  5  1  0
  5  6  2  0
  5  7  1  0
  7  8  1  0
  8  9  1  0
  9 10  1  0
 10 11  2  0
 10 12  1  0
 12 13  1  0
 13 14  1  0
 14 15  1  0
 15 16  1  0
 16 17  1  0
 17 18  1  0
 17 19  1  0
 19 20  1  0
 20 14  1  0
M  END
