CVD-0004032|dock_bobby27042020.57|mol2|40|dock3
     RDKit          3D

 23 26  0  0  0  0  0  0  0  0999 V2000
    6.0121   -0.6545   19.5608 C   0  0  0  0  0  0  0  0  0  0  0  0
    7.2603   -0.1760   20.2495 C   0  0  0  0  0  0  0  0  0  0  0  0
    7.5118    1.2412   20.4268 C   0  0  0  0  0  0  0  0  0  0  0  0
    8.5679    1.7483   21.0209 N   0  0  0  0  0  0  0  0  0  0  0  0
    9.4750    0.8622   21.5009 C   0  0  0  0  0  0  0  0  0  0  0  0
   10.7314    1.0132   22.1873 C   0  0  0  0  0  0  0  0  0  0  0  0
   11.1585   -0.3312   22.4285 C   0  0  0  0  0  0  0  0  0  0  0  0
   10.3070   -1.2120   21.8973 N   0  0  0  0  0  0  0  0  0  0  0  0
    9.2771   -0.4920   21.3537 N   0  0  0  0  0  0  0  0  0  0  0  0
    8.1921   -1.0209   20.7424 C   0  0  0  0  0  0  0  0  0  0  0  0
   12.3148   -0.9114   23.1462 C   0  0  0  0  0  0  0  0  0  0  0  0
   13.0085   -2.0252   22.6831 C   0  0  0  0  0  0  0  0  0  0  0  0
   14.0659   -2.5579   23.3993 C   0  0  0  0  0  0  0  0  0  0  0  0
   14.4376   -1.9461   24.5646 C   0  0  0  0  0  0  0  0  0  0  0  0
   15.4759   -2.4666   25.2728 F   0  0  0  0  0  0  0  0  0  0  0  0
   13.8085   -0.8314   25.0459 C   0  0  0  0  0  0  0  0  0  0  0  0
   12.7444   -0.3159   24.3276 C   0  0  0  0  0  0  0  0  0  0  0  0
   11.3417    2.3448   22.4987 C   0  0  0  0  0  0  0  0  0  0  0  0
   10.5730    3.4840   22.7124 C   0  0  0  0  0  0  0  0  0  0  0  0
   11.2064    4.6802   22.9856 C   0  0  0  0  0  0  0  0  0  0  0  0
   12.5287    4.8175   23.0759 N   0  0  0  0  0  0  0  0  0  0  0  0
   13.2578    3.7178   22.8893 C   0  0  0  0  0  0  0  0  0  0  0  0
   12.7225    2.4782   22.6002 C   0  0  0  0  0  0  0  0  0  0  0  0
  1  2  1  0
  2  3  1  0
  3  4  2  0
  4  5  1  0
  5  6  2  0
  6  7  1  0
  7  8  2  0
  8  9  1  0
  9 10  1  0
  7 11  1  0
 11 12  2  0
 12 13  1  0
 13 14  2  0
 14 15  1  0
 14 16  1  0
 16 17  2  0
  6 18  1  0
 18 19  2  0
 19 20  1  0
 20 21  2  0
 21 22  1  0
 22 23  2  0
 10  2  2  0
 17 11  1  0
 23 18  1  0
  9  5  1  0
M  END
