CVD-0001931|dock_bobby27042020.93|mol2|30|dock1
     RDKit          3D

 24 26  0  0  0  0  0  0  0  0999 V2000
    5.6836    2.0898   24.1071 N   0  0  0  0  0  0  0  0  0  0  0  0
    5.7682    1.4557   22.7727 C   0  0  0  0  0  0  0  0  0  0  0  0
    6.7659    0.3089   22.6406 C   0  0  0  0  0  0  0  0  0  0  0  0
    6.9131   -0.3632   23.8860 O   0  0  0  0  0  0  0  0  0  0  0  0
    7.7008   -1.5688   23.7978 C   0  0  0  0  0  0  0  0  0  0  0  0
    6.8366   -2.5971   23.0196 C   0  0  0  0  0  0  0  0  0  0  0  0
    6.5382   -2.0109   21.6521 C   0  0  0  0  0  0  0  0  0  0  0  0
    6.2900   -2.8264   20.5377 C   0  0  0  0  0  0  0  0  0  0  0  0
    6.3479   -4.1912   20.6135 O   0  0  0  0  0  0  0  0  0  0  0  0
    5.8887   -2.2662   19.3263 C   0  0  0  0  0  0  0  0  0  0  0  0
    5.5999   -3.0872   18.2829 O   0  0  0  0  0  0  0  0  0  0  0  0
    5.7291   -0.8941   19.2042 C   0  0  0  0  0  0  0  0  0  0  0  0
    5.9721   -0.0852   20.2975 C   0  0  0  0  0  0  0  0  0  0  0  0
    6.3746   -0.6234   21.5196 C   0  0  0  0  0  0  0  0  0  0  0  0
    9.0256   -1.1746   23.1437 C   0  0  0  0  0  0  0  0  0  0  0  0
    9.7309   -0.0022   23.8394 C   0  0  0  0  0  0  0  0  0  0  0  0
   10.9840    0.4434   23.0941 C   0  0  0  0  0  0  0  0  0  0  0  0
   11.9663   -0.6932   22.8945 C   0  0  0  0  0  0  0  0  0  0  0  0
   12.5220   -1.0690   24.2672 C   0  0  0  0  0  0  0  0  0  0  0  0
   13.7467   -1.9875   24.2545 C   0  0  0  0  0  0  0  0  0  0  0  0
   14.2629   -2.3348   25.5856 C   0  0  0  0  0  0  0  0  0  0  0  0
   15.1294   -1.7461   26.1600 O   0  0  0  0  0  0  0  0  0  0  0  0
   11.2823   -1.8884   22.2464 C   0  0  0  0  0  0  0  0  0  0  0  0
   10.0323   -2.3216   22.9972 C   0  0  0  0  0  0  0  0  0  0  0  0
  1  2  1  0
  2  3  1  0
  3  4  1  0
  4  5  1  0
  5  6  1  0
  6  7  1  0
  7  8  2  0
  8  9  1  0
  8 10  1  0
 10 11  1  0
 10 12  2  0
 12 13  1  0
 13 14  2  0
  5 15  1  0
 15 16  1  0
 16 17  1  0
 17 18  1  0
 18 19  1  0
 19 20  1  0
 20 21  1  0
 21 22  2  0
 18 23  1  0
 23 24  1  0
 14  3  1  0
 24 15  1  0
 14  7  1  0
M  END
