CVD-0000222|dock_bobby27042020.71|mol2|7|dock3
     RDKit          3D

 23 25  0  0  0  0  0  0  0  0999 V2000
    0.5009    1.0802   20.5700 O   0  0  0  0  0  0  0  0  0  0  0  0
    1.2311    2.1825   21.0898 C   0  0  0  0  0  0  0  0  0  0  0  0
    2.3959    2.5864   20.1800 C   0  0  0  0  0  0  0  0  0  0  0  0
    3.5810    1.6013   20.1781 C   0  0  0  0  0  0  0  0  0  0  0  0
    4.9260    2.1264   19.6673 C   0  0  0  0  0  0  0  0  0  0  0  0
    5.9670    1.0385   19.5591 C   0  0  0  0  0  0  0  0  0  0  0  0
    5.8259    0.0052   18.6484 C   0  0  0  0  0  0  0  0  0  0  0  0
    6.7879   -0.9851   18.5553 C   0  0  0  0  0  0  0  0  0  0  0  0
    7.9071   -0.9574   19.3710 C   0  0  0  0  0  0  0  0  0  0  0  0
    8.0699    0.0739   20.2934 C   0  0  0  0  0  0  0  0  0  0  0  0
    9.1827    0.1813   21.1660 N   0  0  0  0  0  0  0  0  0  0  0  0
   10.0928   -0.7621   21.5854 C   0  0  0  0  0  0  0  0  0  0  0  0
   10.0817   -1.9394   21.2412 O   0  0  0  0  0  0  0  0  0  0  0  0
   11.0197   -0.2152   22.4429 N   0  0  0  0  0  0  0  0  0  0  0  0
   12.1223   -0.8086   23.1079 C   0  0  0  0  0  0  0  0  0  0  0  0
   12.7615   -1.9715   22.6884 C   0  0  0  0  0  0  0  0  0  0  0  0
   13.8308   -2.4585   23.4203 C   0  0  0  0  0  0  0  0  0  0  0  0
   14.2320   -1.7760   24.5453 C   0  0  0  0  0  0  0  0  0  0  0  0
   13.6403   -0.6605   24.9719 N   0  0  0  0  0  0  0  0  0  0  0  0
   12.6094   -0.1989   24.2585 C   0  0  0  0  0  0  0  0  0  0  0  0
    7.0923    1.0604   20.3724 C   0  0  0  0  0  0  0  0  0  0  0  0
    2.0686    3.3141   18.8793 C   0  0  0  0  0  0  0  0  0  0  0  0
    2.6978    4.0716   20.0082 C   0  0  0  0  0  0  0  0  0  0  0  0
  1  2  1  0
  2  3  1  0
  3  4  1  0
  4  5  1  0
  5  6  1  0
  6  7  2  0
  7  8  1  0
  8  9  2  0
  9 10  1  0
 10 11  1  0
 11 12  1  0
 12 13  2  0
 12 14  1  0
 14 15  1  0
 15 16  2  0
 16 17  1  0
 17 18  2  0
 18 19  1  0
 19 20  2  0
 10 21  2  0
  3 22  1  0
 22 23  1  0
 23  3  1  0
 21  6  1  0
 20 15  1  0
M  END
