CVD-0000714|dock_bobby27042020.40|mol2|36|dock2
     RDKit          3D

 18 19  0  0  0  0  0  0  0  0999 V2000
   10.0494   -0.5280   23.2517 O   0  0  0  0  0  0  0  0  0  0  0  0
   10.2996   -0.9978   22.1469 C   0  0  0  0  0  0  0  0  0  0  0  0
   11.5895   -1.7539   21.8977 C   0  0  0  0  0  0  0  0  0  0  0  0
   12.5185   -1.7156   23.0900 C   0  0  0  0  0  0  0  0  0  0  0  0
   12.4812   -2.6977   24.0656 C   0  0  0  0  0  0  0  0  0  0  0  0
   13.3489   -2.6327   25.1417 C   0  0  0  0  0  0  0  0  0  0  0  0
   14.2330   -1.5798   25.2071 C   0  0  0  0  0  0  0  0  0  0  0  0
   14.2938   -0.6199   24.2830 N   0  0  0  0  0  0  0  0  0  0  0  0
   13.4462   -0.7040   23.2531 C   0  0  0  0  0  0  0  0  0  0  0  0
    9.5072   -0.9058   21.0510 N   0  0  0  0  0  0  0  0  0  0  0  0
    8.2463   -0.2898   20.8523 C   0  0  0  0  0  0  0  0  0  0  0  0
    7.4045    0.0778   21.9000 C   0  0  0  0  0  0  0  0  0  0  0  0
    6.1833    0.6773   21.6370 C   0  0  0  0  0  0  0  0  0  0  0  0
    5.7835    0.9183   20.3344 C   0  0  0  0  0  0  0  0  0  0  0  0
    6.6148    0.5557   19.2818 C   0  0  0  0  0  0  0  0  0  0  0  0
    7.8427   -0.0468   19.5432 C   0  0  0  0  0  0  0  0  0  0  0  0
    6.2118    0.8006   17.9190 C   0  0  0  0  0  0  0  0  0  0  0  0
    5.8828    1.0252   16.8484 N   0  0  0  0  0  0  0  0  0  0  0  0
  1  2  2  0
  2  3  1  0
  3  4  1  0
  4  5  2  0
  5  6  1  0
  6  7  2  0
  7  8  1  0
  8  9  2  0
  2 10  1  0
 10 11  1  0
 11 12  2  0
 12 13  1  0
 13 14  2  0
 14 15  1  0
 15 16  2  0
 15 17  1  0
 17 18  3  0
  9  4  1  0
 16 11  1  0
M  END
