CVD-0000359|dock_bobby27042020.56|mol2|19|dock2
     RDKit          3D

 29 31  0  0  0  0  0  0  0  0999 V2000
   11.7688    7.7266   26.4135 C   0  0  0  0  0  0  0  0  0  0  0  0
   11.5650    6.5494   25.5121 C   0  0  0  0  0  0  0  0  0  0  0  0
   12.7769    6.2277   24.7770 N   0  0  0  0  0  0  0  0  0  0  0  0
   12.7908    5.5624   23.5891 C   0  0  0  0  0  0  0  0  0  0  0  0
   13.7411    5.8488   22.6101 C   0  0  0  0  0  0  0  0  0  0  0  0
   13.6929    5.1318   21.4292 C   0  0  0  0  0  0  0  0  0  0  0  0
   12.7120    4.1808   21.2903 C   0  0  0  0  0  0  0  0  0  0  0  0
   12.6473    3.4671   20.1430 F   0  0  0  0  0  0  0  0  0  0  0  0
   11.7905    3.9334   22.2888 C   0  0  0  0  0  0  0  0  0  0  0  0
   10.7048    2.8918   22.1636 C   0  0  0  0  0  0  0  0  0  0  0  0
   11.2228    1.4821   22.3639 C   0  0  0  0  0  0  0  0  0  0  0  0
   12.3990    1.2564   23.0654 C   0  0  0  0  0  0  0  0  0  0  0  0
   12.8523   -0.0345   23.2401 C   0  0  0  0  0  0  0  0  0  0  0  0
   14.3302   -0.3013   24.1216 Cl  0  0  0  0  0  0  0  0  0  0  0  0
   12.1664   -1.1205   22.7353 C   0  0  0  0  0  0  0  0  0  0  0  0
   10.9853   -0.9050   22.0310 C   0  0  0  0  0  0  0  0  0  0  0  0
   10.2644   -1.9616   21.5075 N   0  0  0  0  0  0  0  0  0  0  0  0
    8.9395   -2.3291   21.9691 C   0  0  0  0  0  0  0  0  0  0  0  0
    7.8786   -1.3538   21.4973 C   0  0  0  0  0  0  0  0  0  0  0  0
    7.0036   -0.9735   22.2683 O   0  0  0  0  0  0  0  0  0  0  0  0
    8.0070   -0.9831   20.2005 N   0  0  0  0  0  0  0  0  0  0  0  0
    7.1420   -0.2467   19.3541 C   0  0  0  0  0  0  0  0  0  0  0  0
    5.8458    0.1201   19.7009 C   0  0  0  0  0  0  0  0  0  0  0  0
    5.0824    0.8407   18.7985 C   0  0  0  0  0  0  0  0  0  0  0  0
    5.6312    1.1736   17.5815 C   0  0  0  0  0  0  0  0  0  0  0  0
    6.8695    0.8362   17.2216 N   0  0  0  0  0  0  0  0  0  0  0  0
    7.5982    0.1407   18.0993 C   0  0  0  0  0  0  0  0  0  0  0  0
   10.5255    0.3953   21.8535 C   0  0  0  0  0  0  0  0  0  0  0  0
   11.8421    4.6301   23.4327 N   0  0  0  0  0  0  0  0  0  0  0  0
  1  2  1  0
  2  3  1  0
  3  4  1  0
  4  5  2  0
  5  6  1  0
  6  7  2  0
  7  8  1  0
  7  9  1  0
  9 10  1  0
 10 11  1  0
 11 12  2  0
 12 13  1  0
 13 14  1  0
 13 15  2  0
 15 16  1  0
 16 17  1  0
 17 18  1  0
 18 19  1  0
 19 20  2  0
 19 21  1  0
 21 22  1  0
 22 23  2  0
 23 24  1  0
 24 25  2  0
 25 26  1  0
 26 27  2  0
 16 28  2  0
  9 29  2  0
 29  4  1  0
 28 11  1  0
 27 22  1  0
M  END
