CVD-0002187|dock_bobby27042020.7|mol2|6|dock1
     RDKit          3D

 31 34  0  0  0  0  0  0  0  0999 V2000
   13.1840    3.0325   22.2258 F   0  0  0  0  0  0  0  0  0  0  0  0
   12.4654    4.0682   22.7374 C   0  0  0  0  0  0  0  0  0  0  0  0
   13.1313    5.0249   23.4576 C   0  0  0  0  0  0  0  0  0  0  0  0
   12.4126    6.0840   23.9838 C   0  0  0  0  0  0  0  0  0  0  0  0
   11.0409    6.1425   23.7647 C   0  0  0  0  0  0  0  0  0  0  0  0
   10.1014    7.0618   24.1627 N   0  0  0  0  0  0  0  0  0  0  0  0
    8.8762    6.6742   23.6929 C   0  0  0  0  0  0  0  0  0  0  0  0
    8.9844    5.5115   22.9884 C   0  0  0  0  0  0  0  0  0  0  0  0
    7.8837    4.7506   22.3092 C   0  0  0  0  0  0  0  0  0  0  0  0
    7.6390    3.3872   22.9245 C   0  0  0  0  0  0  0  0  0  0  0  0
    6.9507    2.4925   22.0048 N   0  0  0  0  0  0  0  0  0  0  0  0
    7.6139    1.8575   21.0316 C   0  0  0  0  0  0  0  0  0  0  0  0
    8.8383    1.9388   21.0016 O   0  0  0  0  0  0  0  0  0  0  0  0
    6.8637    1.0553   19.9934 C   0  0  0  0  0  0  0  0  0  0  0  0
    5.6459    1.5512   19.5182 C   0  0  0  0  0  0  0  0  0  0  0  0
    4.9362    0.8286   18.5858 C   0  0  0  0  0  0  0  0  0  0  0  0
    5.3514   -0.3277   18.0818 N   0  0  0  0  0  0  0  0  0  0  0  0
    6.5240   -0.8026   18.5072 C   0  0  0  0  0  0  0  0  0  0  0  0
    7.3268   -0.1796   19.4640 C   0  0  0  0  0  0  0  0  0  0  0  0
    8.5633   -0.7135   19.9284 N   0  0  0  0  0  0  0  0  0  0  0  0
    9.1021   -0.7364   21.1967 C   0  0  0  0  0  0  0  0  0  0  0  0
    8.5652   -0.2684   22.1948 O   0  0  0  0  0  0  0  0  0  0  0  0
   10.3325   -1.3550   21.2044 N   0  0  0  0  0  0  0  0  0  0  0  0
   11.2414   -1.6033   22.2647 C   0  0  0  0  0  0  0  0  0  0  0  0
   10.9226   -1.4543   23.6132 C   0  0  0  0  0  0  0  0  0  0  0  0
   11.8718   -1.7185   24.5871 C   0  0  0  0  0  0  0  0  0  0  0  0
   13.1390   -2.1304   24.2376 C   0  0  0  0  0  0  0  0  0  0  0  0
   13.4643   -2.2808   22.9081 C   0  0  0  0  0  0  0  0  0  0  0  0
   12.5241   -2.0198   21.9258 C   0  0  0  0  0  0  0  0  0  0  0  0
   10.3730    5.1505   23.0221 C   0  0  0  0  0  0  0  0  0  0  0  0
   11.1117    4.0904   22.4990 C   0  0  0  0  0  0  0  0  0  0  0  0
  1  2  1  0
  2  3  2  0
  3  4  1  0
  4  5  2  0
  5  6  1  0
  6  7  1  0
  7  8  2  0
  8  9  1  0
  9 10  1  0
 10 11  1  0
 11 12  1  0
 12 13  2  0
 12 14  1  0
 14 15  2  0
 15 16  1  0
 16 17  2  0
 17 18  1  0
 18 19  2  0
 19 20  1  0
 20 21  1  0
 21 22  2  0
 21 23  1  0
 23 24  1  0
 24 25  2  0
 25 26  1  0
 26 27  2  0
 27 28  1  0
 28 29  2  0
  8 30  1  0
 30 31  2  0
 31  2  1  0
 30  5  1  0
 19 14  1  0
 29 24  1  0
M  END
