CVD-0002959|dock_bobby27042020.46|mol2|43|dock2
     RDKit          3D

 24 26  0  0  0  0  0  0  0  0999 V2000
   14.0763    5.6648   21.9942 Cl  0  0  0  0  0  0  0  0  0  0  0  0
   13.1310    4.5004   22.9312 C   0  0  0  0  0  0  0  0  0  0  0  0
   12.2527    3.6281   22.0616 C   0  0  0  0  0  0  0  0  0  0  0  0
   12.3923    3.6190   20.8417 O   0  0  0  0  0  0  0  0  0  0  0  0
   11.3428    2.8871   22.7683 N   0  0  0  0  0  0  0  0  0  0  0  0
   10.4061    1.9885   22.2662 C   0  0  0  0  0  0  0  0  0  0  0  0
    9.2943    2.4977   21.7598 N   0  0  0  0  0  0  0  0  0  0  0  0
    8.2771    1.7230   21.3022 C   0  0  0  0  0  0  0  0  0  0  0  0
    7.2422    2.2035   20.8366 O   0  0  0  0  0  0  0  0  0  0  0  0
    8.4109    0.3391   21.3692 N   0  0  0  0  0  0  0  0  0  0  0  0
    7.3312   -0.5310   20.9167 C   0  0  0  0  0  0  0  0  0  0  0  0
    6.4625    0.0974   19.8565 C   0  0  0  0  0  0  0  0  0  0  0  0
    5.1093    0.4750   20.0381 C   0  0  0  0  0  0  0  0  0  0  0  0
    4.5251    1.0324   18.9411 C   0  0  0  0  0  0  0  0  0  0  0  0
    5.6457    1.0975   17.6667 S   0  0  0  0  0  0  0  0  0  0  0  0
    6.8824    0.3896   18.5944 C   0  0  0  0  0  0  0  0  0  0  0  0
    9.5659   -0.1996   21.8655 C   0  0  0  0  0  0  0  0  0  0  0  0
   10.6117    0.5529   22.3116 C   0  0  0  0  0  0  0  0  0  0  0  0
   11.8282   -0.1665   22.7806 C   0  0  0  0  0  0  0  0  0  0  0  0
   12.3809   -1.1760   22.0000 C   0  0  0  0  0  0  0  0  0  0  0  0
   13.5053   -1.8566   22.4326 C   0  0  0  0  0  0  0  0  0  0  0  0
   14.0554   -1.5105   23.6445 C   0  0  0  0  0  0  0  0  0  0  0  0
   13.5608   -0.5429   24.4163 N   0  0  0  0  0  0  0  0  0  0  0  0
   12.4853    0.1151   23.9723 C   0  0  0  0  0  0  0  0  0  0  0  0
  1  2  1  0
  2  3  1  0
  3  4  2  0
  3  5  1  0
  5  6  1  0
  6  7  2  0
  7  8  1  0
  8  9  2  0
  8 10  1  0
 10 11  1  0
 11 12  1  0
 12 13  1  0
 13 14  2  0
 14 15  1  0
 15 16  1  0
 10 17  1  0
 17 18  2  0
 18 19  1  0
 19 20  2  0
 20 21  1  0
 21 22  2  0
 22 23  1  0
 23 24  2  0
 18  6  1  0
 24 19  1  0
 16 12  2  0
M  END
