CVD-0003010|dock_bobby27042020.89|mol2|21|dock3
     RDKit          3D

 28 29  0  0  0  0  0  0  0  0999 V2000
   13.1381    0.8704   23.2963 C   0  0  0  0  0  0  0  0  0  0  0  0
   11.7777    0.6840   22.6781 C   0  0  0  0  0  0  0  0  0  0  0  0
   10.9274    1.7776   22.5380 C   0  0  0  0  0  0  0  0  0  0  0  0
    9.6762    1.6198   21.9701 C   0  0  0  0  0  0  0  0  0  0  0  0
    8.6776    3.0283   21.8159 Cl  0  0  0  0  0  0  0  0  0  0  0  0
    9.2343    0.3654   21.5337 C   0  0  0  0  0  0  0  0  0  0  0  0
   10.0934   -0.7155   21.6718 C   0  0  0  0  0  0  0  0  0  0  0  0
   11.3580   -0.5803   22.2351 C   0  0  0  0  0  0  0  0  0  0  0  0
   12.2536   -1.7836   22.3681 C   0  0  0  0  0  0  0  0  0  0  0  0
    7.6464    0.0431   20.7989 S   0  0  0  0  0  0  0  0  0  0  0  0
    6.8141    1.0795   21.3485 O   0  0  0  0  0  0  0  0  0  0  0  0
    7.8148   -0.0324   19.3733 O   0  0  0  0  0  0  0  0  0  0  0  0
    7.0638   -1.5395   21.4038 C   0  0  0  0  0  0  0  0  0  0  0  0
    7.2836   -1.9245   22.7401 C   0  0  0  0  0  0  0  0  0  0  0  0
    7.2107   -3.2658   23.0967 C   0  0  0  0  0  0  0  0  0  0  0  0
    6.7760   -4.2157   22.1871 C   0  0  0  0  0  0  0  0  0  0  0  0
    6.3245   -3.7988   20.9455 C   0  0  0  0  0  0  0  0  0  0  0  0
    6.3839   -2.4588   20.5805 C   0  0  0  0  0  0  0  0  0  0  0  0
    5.7147   -2.0860   19.3445 N   0  0  0  0  0  0  0  0  0  0  0  0
    5.4315   -0.9047   19.1622 O   0  0  0  0  0  0  0  0  0  0  0  0
    5.3780   -2.9701   18.5749 O   0  0  0  0  0  0  0  0  0  0  0  0
    6.7755   -5.6670   22.5470 C   0  0  0  0  0  0  0  0  0  0  0  0
    7.7090   -5.9762   23.4398 F   0  0  0  0  0  0  0  0  0  0  0  0
    6.9946   -6.4566   21.5017 F   0  0  0  0  0  0  0  0  0  0  0  0
    5.6225   -6.0669   23.0712 F   0  0  0  0  0  0  0  0  0  0  0  0
    7.5850   -0.9710   23.7962 N   0  0  0  0  0  0  0  0  0  0  0  0
    7.1593    0.1772   23.6913 O   0  0  0  0  0  0  0  0  0  0  0  0
    8.1834   -1.3644   24.7830 O   0  0  0  0  0  0  0  0  0  0  0  0
  1  2  1  0
  2  3  2  0
  3  4  1  0
  4  5  1  0
  4  6  2  0
  6  7  1  0
  7  8  2  0
  8  9  1  0
  6 10  1  0
 10 11  2  0
 10 12  2  0
 10 13  1  0
 13 14  2  0
 14 15  1  0
 15 16  2  0
 16 17  1  0
 17 18  2  0
 18 19  1  0
 19 20  1  0
 19 21  2  0
 16 22  1  0
 22 23  1  0
 22 24  1  0
 22 25  1  0
 14 26  1  0
 26 27  1  0
 26 28  2  0
  8  2  1  0
 18 13  1  0
M  CHG  4  19   1  20  -1  26   1  27  -1
M  END
