CVD-0003231|dock_bobby27042020.17|mol2|9|dock1
     RDKit          3D

 32 35  0  0  0  0  0  0  0  0999 V2000
    6.4696   -1.9295   25.4238 C   0  0  0  0  0  0  0  0  0  0  0  0
    6.8458   -3.3723   25.6345 C   0  0  0  0  0  0  0  0  0  0  0  0
    6.3323   -4.0814   26.7165 C   0  0  0  0  0  0  0  0  0  0  0  0
    6.6922   -5.4019   26.8920 C   0  0  0  0  0  0  0  0  0  0  0  0
    7.5179   -6.0501   26.0712 N   0  0  0  0  0  0  0  0  0  0  0  0
    8.0049   -5.3574   25.0373 C   0  0  0  0  0  0  0  0  0  0  0  0
    7.7155   -4.0418   24.7687 C   0  0  0  0  0  0  0  0  0  0  0  0
    8.3139   -3.3408   23.5704 C   0  0  0  0  0  0  0  0  0  0  0  0
    7.3130   -3.1633   22.4435 C   0  0  0  0  0  0  0  0  0  0  0  0
    6.5006   -4.0543   22.2281 O   0  0  0  0  0  0  0  0  0  0  0  0
    7.3050   -2.0276   21.6829 N   0  0  0  0  0  0  0  0  0  0  0  0
    6.2905   -2.0118   20.6290 C   0  0  0  0  0  0  0  0  0  0  0  0
    6.4092   -0.8296   19.7001 C   0  0  0  0  0  0  0  0  0  0  0  0
    5.3620    0.0788   19.4084 C   0  0  0  0  0  0  0  0  0  0  0  0
    5.6979    1.0686   18.5351 C   0  0  0  0  0  0  0  0  0  0  0  0
    7.3187    0.8880   18.0613 S   0  0  0  0  0  0  0  0  0  0  0  0
    7.5418   -0.4984   19.0201 C   0  0  0  0  0  0  0  0  0  0  0  0
    8.1848   -0.8932   21.8150 C   0  0  0  0  0  0  0  0  0  0  0  0
    9.5594   -1.0630   21.7132 C   0  0  0  0  0  0  0  0  0  0  0  0
   10.4227    0.0113   21.8278 C   0  0  0  0  0  0  0  0  0  0  0  0
    9.9443    1.2968   22.0455 C   0  0  0  0  0  0  0  0  0  0  0  0
   10.8969    2.3442   22.1397 N   0  0  0  0  0  0  0  0  0  0  0  0
   10.7320    3.6805   22.3500 C   0  0  0  0  0  0  0  0  0  0  0  0
    9.6383    4.2144   22.5010 O   0  0  0  0  0  0  0  0  0  0  0  0
   11.9460    4.5702   22.4036 C   0  0  0  0  0  0  0  0  0  0  0  0
   12.1508    5.5593   23.3665 C   0  0  0  0  0  0  0  0  0  0  0  0
   13.2954    6.3393   23.3502 C   0  0  0  0  0  0  0  0  0  0  0  0
   14.2550    6.1521   22.3803 C   0  0  0  0  0  0  0  0  0  0  0  0
   14.0710    5.1812   21.4217 C   0  0  0  0  0  0  0  0  0  0  0  0
   12.9291    4.3981   21.4324 C   0  0  0  0  0  0  0  0  0  0  0  0
    8.5673    1.4706   22.1571 C   0  0  0  0  0  0  0  0  0  0  0  0
    7.7076    0.3908   22.0536 C   0  0  0  0  0  0  0  0  0  0  0  0
  1  2  1  0
  2  3  2  0
  3  4  1  0
  4  5  2  0
  5  6  1  0
  6  7  2  0
  7  8  1  0
  8  9  1  0
  9 10  2  0
  9 11  1  0
 11 12  1  0
 12 13  1  0
 13 14  1  0
 14 15  2  0
 15 16  1  0
 16 17  1  0
 11 18  1  0
 18 19  2  0
 19 20  1  0
 20 21  2  0
 21 22  1  0
 22 23  1  0
 23 24  2  0
 23 25  1  0
 25 26  2  0
 26 27  1  0
 27 28  2  0
 28 29  1  0
 29 30  2  0
 21 31  1  0
 31 32  2  0
  7  2  1  0
 17 13  2  0
 32 18  1  0
 30 25  1  0
M  END
