CVD-0001671|dock_bobby27042020.23|mol2|13|dock3
     RDKit          3D

 23 24  0  0  0  0  0  0  0  0999 V2000
    5.5567    0.2080   18.2084 C   0  0  0  0  0  0  0  0  0  0  0  0
    6.1835   -1.1762   18.2785 C   0  0  0  0  0  0  0  0  0  0  0  0
    6.1116   -1.7757   19.6608 C   0  0  0  0  0  0  0  0  0  0  0  0
    5.3700   -2.7202   19.9002 O   0  0  0  0  0  0  0  0  0  0  0  0
    6.8917   -1.2335   20.6176 N   0  0  0  0  0  0  0  0  0  0  0  0
    6.9191   -1.7291   21.9955 C   0  0  0  0  0  0  0  0  0  0  0  0
    8.3410   -2.0542   22.4136 C   0  0  0  0  0  0  0  0  0  0  0  0
    9.1915   -0.8673   22.2855 N   0  0  0  0  0  0  0  0  0  0  0  0
   10.5609   -1.1661   22.7271 C   0  0  0  0  0  0  0  0  0  0  0  0
   11.4466    0.0603   22.7290 C   0  0  0  0  0  0  0  0  0  0  0  0
   10.7883    1.2849   22.8090 C   0  0  0  0  0  0  0  0  0  0  0  0
   11.4828    2.4901   22.8228 C   0  0  0  0  0  0  0  0  0  0  0  0
   12.8679    2.4713   22.7562 C   0  0  0  0  0  0  0  0  0  0  0  0
   13.5255    1.2592   22.6758 C   0  0  0  0  0  0  0  0  0  0  0  0
   12.8524    0.0404   22.6562 C   0  0  0  0  0  0  0  0  0  0  0  0
   13.6214   -1.2508   22.5569 C   0  0  0  0  0  0  0  0  0  0  0  0
   13.7746   -1.6777   21.1237 C   0  0  0  0  0  0  0  0  0  0  0  0
   12.9608   -2.2590   23.1836 O   0  0  0  0  0  0  0  0  0  0  0  0
   14.8556   -1.0945   23.1546 F   0  0  0  0  0  0  0  0  0  0  0  0
   10.7670    3.7392   22.9056 C   0  0  0  0  0  0  0  0  0  0  0  0
   10.1995    4.7301   22.9380 N   0  0  0  0  0  0  0  0  0  0  0  0
    9.1879   -0.4264   20.8931 C   0  0  0  0  0  0  0  0  0  0  0  0
    7.7804   -0.0805   20.4422 C   0  0  0  0  0  0  0  0  0  0  0  0
  1  2  1  0
  2  3  1  0
  3  4  2  0
  3  5  1  0
  5  6  1  0
  6  7  1  0
  7  8  1  0
  8  9  1  0
  9 10  1  0
 10 11  2  0
 11 12  1  0
 12 13  2  0
 13 14  1  0
 14 15  2  0
 15 16  1  0
 16 17  1  0
 16 18  1  0
 16 19  1  0
 12 20  1  0
 20 21  3  0
  8 22  1  0
 22 23  1  0
 23  5  1  0
 15 10  1  0
M  END
