CVD-0001336|dock_bobby27042020.24|mol2|16|dock2
     RDKit          3D

 31 33  0  0  0  0  0  0  0  0999 V2000
    9.3354   -6.2975   25.6723 C   0  0  0  0  0  0  0  0  0  0  0  0
    9.4354   -4.8657   25.2304 C   0  0  0  0  0  0  0  0  0  0  0  0
   10.2568   -4.1152   25.7451 O   0  0  0  0  0  0  0  0  0  0  0  0
    8.6061   -4.3920   24.2534 N   0  0  0  0  0  0  0  0  0  0  0  0
    8.7352   -2.9797   23.8703 C   0  0  0  0  0  0  0  0  0  0  0  0
   10.0116   -2.7038   23.0942 C   0  0  0  0  0  0  0  0  0  0  0  0
   10.0575   -1.2886   22.5345 C   0  0  0  0  0  0  0  0  0  0  0  0
    9.1086   -1.0851   21.3742 C   0  0  0  0  0  0  0  0  0  0  0  0
    8.6789   -2.0809   20.8049 O   0  0  0  0  0  0  0  0  0  0  0  0
    8.7325    0.1817   20.9855 N   0  0  0  0  0  0  0  0  0  0  0  0
    7.7691    0.3324   19.8460 C   0  0  0  0  0  0  0  0  0  0  0  0
    6.3522   -0.0600   20.2693 C   0  0  0  0  0  0  0  0  0  0  0  0
    5.7355   -1.1760   18.9717 S   0  0  0  0  0  0  0  0  0  0  0  0
    4.7305   -0.5336   18.1701 O   0  0  0  0  0  0  0  0  0  0  0  0
    5.4172   -2.4732   19.5023 O   0  0  0  0  0  0  0  0  0  0  0  0
    7.2417   -1.2298   18.0722 C   0  0  0  0  0  0  0  0  0  0  0  0
    8.1547   -0.4154   18.6150 C   0  0  0  0  0  0  0  0  0  0  0  0
    9.1706    1.3887   21.6280 C   0  0  0  0  0  0  0  0  0  0  0  0
   10.5115    1.7387   21.7496 C   0  0  0  0  0  0  0  0  0  0  0  0
   10.8823    2.9031   22.3987 C   0  0  0  0  0  0  0  0  0  0  0  0
    9.9392    3.7679   22.9280 C   0  0  0  0  0  0  0  0  0  0  0  0
   10.3516    5.0337   23.6389 C   0  0  0  0  0  0  0  0  0  0  0  0
    8.6045    3.4280   22.7859 C   0  0  0  0  0  0  0  0  0  0  0  0
    8.2224    2.2620   22.1469 C   0  0  0  0  0  0  0  0  0  0  0  0
    7.5920   -5.1500   23.5673 C   0  0  0  0  0  0  0  0  0  0  0  0
    7.9783   -6.2339   22.7921 C   0  0  0  0  0  0  0  0  0  0  0  0
    7.1203   -6.9725   22.0820 N   0  0  0  0  0  0  0  0  0  0  0  0
    5.8347   -6.6278   22.1296 C   0  0  0  0  0  0  0  0  0  0  0  0
    5.3543   -5.5882   22.8980 C   0  0  0  0  0  0  0  0  0  0  0  0
    6.2364   -4.8336   23.6662 C   0  0  0  0  0  0  0  0  0  0  0  0
    5.6976   -3.7502   24.5639 C   0  0  0  0  0  0  0  0  0  0  0  0
  1  2  1  0
  2  3  2  0
  2  4  1  0
  4  5  1  0
  5  6  1  0
  6  7  1  0
  7  8  1  0
  8  9  2  0
  8 10  1  0
 10 11  1  0
 11 12  1  0
 12 13  1  0
 13 14  2  0
 13 15  2  0
 13 16  1  0
 16 17  2  0
 10 18  1  0
 18 19  2  0
 19 20  1  0
 20 21  2  0
 21 22  1  0
 21 23  1  0
 23 24  2  0
  4 25  1  0
 25 26  2  0
 26 27  1  0
 27 28  2  0
 28 29  1  0
 29 30  2  0
 30 31  1  0
 17 11  1  0
 24 18  1  0
 30 25  1  0
M  END
