CVD-0001676|dock_bobby27042020.51|mol2|38|dock1
     RDKit          3D

 34 36  0  0  0  0  0  0  0  0999 V2000
   13.1095    6.9648   27.7458 C   0  0  0  0  0  0  0  0  0  0  0  0
   12.0012    7.6783   26.9974 C   0  0  0  0  0  0  0  0  0  0  0  0
   11.2008    6.7902   26.0715 C   0  0  0  0  0  0  0  0  0  0  0  0
   10.0234    7.4485   25.6904 F   0  0  0  0  0  0  0  0  0  0  0  0
   11.9535    6.3580   24.8166 C   0  0  0  0  0  0  0  0  0  0  0  0
   13.0949    6.7609   24.6983 O   0  0  0  0  0  0  0  0  0  0  0  0
   11.3949    5.5623   23.8769 N   0  0  0  0  0  0  0  0  0  0  0  0
   12.0876    5.1833   22.6434 C   0  0  0  0  0  0  0  0  0  0  0  0
   12.1057    3.6741   22.4880 C   0  0  0  0  0  0  0  0  0  0  0  0
   10.7375    3.1480   22.4826 N   0  0  0  0  0  0  0  0  0  0  0  0
   10.7477    1.6964   22.2931 C   0  0  0  0  0  0  0  0  0  0  0  0
    9.3908    1.1356   21.8685 C   0  0  0  0  0  0  0  0  0  0  0  0
    8.4532    1.8950   21.6595 O   0  0  0  0  0  0  0  0  0  0  0  0
    9.2568   -0.2023   21.7395 N   0  0  0  0  0  0  0  0  0  0  0  0
   10.3556   -1.1382   21.9876 C   0  0  0  0  0  0  0  0  0  0  0  0
    9.9371   -2.1917   22.9963 C   0  0  0  0  0  0  0  0  0  0  0  0
    8.7558   -2.9138   22.5151 N   0  0  0  0  0  0  0  0  0  0  0  0
    8.3691   -3.9643   23.4718 C   0  0  0  0  0  0  0  0  0  0  0  0
    7.2536   -4.8696   22.9970 C   0  0  0  0  0  0  0  0  0  0  0  0
    7.0632   -5.0404   21.6273 C   0  0  0  0  0  0  0  0  0  0  0  0
    6.0536   -5.8490   21.1355 C   0  0  0  0  0  0  0  0  0  0  0  0
    5.2172   -6.5038   22.0111 C   0  0  0  0  0  0  0  0  0  0  0  0
    5.3984   -6.3544   23.3749 C   0  0  0  0  0  0  0  0  0  0  0  0
    6.4128   -5.5506   23.8900 C   0  0  0  0  0  0  0  0  0  0  0  0
    6.5721   -5.4425   25.3873 C   0  0  0  0  0  0  0  0  0  0  0  0
    5.8528   -6.4739   26.1204 N   0  0  0  0  0  0  0  0  0  0  0  0
    4.6396   -6.2712   26.6268 C   0  0  0  0  0  0  0  0  0  0  0  0
    4.0451   -5.2039   26.5112 O   0  0  0  0  0  0  0  0  0  0  0  0
    4.0317   -7.4419   27.3588 C   0  0  0  0  0  0  0  0  0  0  0  0
    4.8010   -7.8241   28.6142 C   0  0  0  0  0  0  0  0  0  0  0  0
    7.6611   -1.9652   22.3270 C   0  0  0  0  0  0  0  0  0  0  0  0
    8.0400   -0.9008   21.3134 C   0  0  0  0  0  0  0  0  0  0  0  0
   10.0886    3.4945   23.7444 C   0  0  0  0  0  0  0  0  0  0  0  0
   10.0417    5.0004   23.9293 C   0  0  0  0  0  0  0  0  0  0  0  0
  1  2  1  0
  2  3  1  0
  3  4  1  0
  3  5  1  0
  5  6  2  0
  5  7  1  0
  7  8  1  0
  8  9  1  0
  9 10  1  0
 10 11  1  0
 11 12  1  0
 12 13  2  0
 12 14  1  0
 14 15  1  0
 15 16  1  0
 16 17  1  0
 17 18  1  0
 18 19  1  0
 19 20  2  0
 20 21  1  0
 21 22  2  0
 22 23  1  0
 23 24  2  0
 24 25  1  0
 25 26  1  0
 26 27  1  0
 27 28  2  0
 27 29  1  0
 29 30  1  0
 17 31  1  0
 31 32  1  0
 10 33  1  0
 33 34  1  0
 34  7  1  0
 32 14  1  0
 24 19  1  0
M  END
