CVD-0000334|dock_bobby27042020.13|mol2|20|dock3
     RDKit          3D

 32 35  0  0  0  0  0  0  0  0999 V2000
    7.3362   -1.2866   25.6389 C   0  0  0  0  0  0  0  0  0  0  0  0
    7.9215   -2.5598   25.1433 C   0  0  0  0  0  0  0  0  0  0  0  0
    8.7310   -2.2723   23.9968 O   0  0  0  0  0  0  0  0  0  0  0  0
    8.1801   -1.6771   22.8876 C   0  0  0  0  0  0  0  0  0  0  0  0
    6.8630   -1.8332   22.4922 C   0  0  0  0  0  0  0  0  0  0  0  0
    6.3312   -1.2248   21.4262 N   0  0  0  0  0  0  0  0  0  0  0  0
    7.1141   -0.4115   20.6987 C   0  0  0  0  0  0  0  0  0  0  0  0
    8.4526   -0.2158   21.0180 C   0  0  0  0  0  0  0  0  0  0  0  0
    9.0196   -0.8600   22.1167 C   0  0  0  0  0  0  0  0  0  0  0  0
   10.4711   -0.6147   22.3722 C   0  0  0  0  0  0  0  0  0  0  0  0
   11.3273   -1.7051   22.5165 C   0  0  0  0  0  0  0  0  0  0  0  0
   12.6692   -1.4926   22.7495 C   0  0  0  0  0  0  0  0  0  0  0  0
   13.7262   -2.8653   22.9257 Cl  0  0  0  0  0  0  0  0  0  0  0  0
   13.1971   -0.2227   22.8465 C   0  0  0  0  0  0  0  0  0  0  0  0
   12.3640    0.8827   22.7123 C   0  0  0  0  0  0  0  0  0  0  0  0
   11.0048    0.6714   22.4816 C   0  0  0  0  0  0  0  0  0  0  0  0
   12.9871    2.2474   22.8265 C   0  0  0  0  0  0  0  0  0  0  0  0
   14.1141    2.4048   22.3657 O   0  0  0  0  0  0  0  0  0  0  0  0
   12.2825    3.2683   23.4374 N   0  0  0  0  0  0  0  0  0  0  0  0
   12.6654    4.5747   23.6360 C   0  0  0  0  0  0  0  0  0  0  0  0
   13.1534    5.5342   22.7703 C   0  0  0  0  0  0  0  0  0  0  0  0
   13.3647    6.6861   23.5638 C   0  0  0  0  0  0  0  0  0  0  0  0
   13.0113    6.3776   24.8034 C   0  0  0  0  0  0  0  0  0  0  0  0
   12.5734    5.0830   24.8927 O   0  0  0  0  0  0  0  0  0  0  0  0
    6.4657    0.2631   19.5263 C   0  0  0  0  0  0  0  0  0  0  0  0
    5.2651    0.9896   19.6304 C   0  0  0  0  0  0  0  0  0  0  0  0
    4.5055    1.1321   20.9237 C   0  0  0  0  0  0  0  0  0  0  0  0
    4.7603    1.5901   18.4803 C   0  0  0  0  0  0  0  0  0  0  0  0
    5.4314    1.4439   17.2846 C   0  0  0  0  0  0  0  0  0  0  0  0
    6.5639    0.7436   17.1577 N   0  0  0  0  0  0  0  0  0  0  0  0
    7.0266    0.2025   18.2547 C   0  0  0  0  0  0  0  0  0  0  0  0
    8.1734   -0.4688   18.0686 F   0  0  0  0  0  0  0  0  0  0  0  0
  1  2  1  0
  2  3  1  0
  3  4  1  0
  4  5  2  0
  5  6  1  0
  6  7  2  0
  7  8  1  0
  8  9  2  0
  9 10  1  0
 10 11  2  0
 11 12  1  0
 12 13  1  0
 12 14  2  0
 14 15  1  0
 15 16  2  0
 15 17  1  0
 17 18  2  0
 17 19  1  0
 19 20  1  0
 20 21  2  0
 21 22  1  0
 22 23  2  0
 23 24  1  0
  7 25  1  0
 25 26  2  0
 26 27  1  0
 26 28  1  0
 28 29  2  0
 29 30  1  0
 30 31  2  0
 31 32  1  0
  9  4  1  0
 16 10  1  0
 24 20  1  0
 31 25  1  0
M  END
