CVD-0003058|dock_bobby27042020.46|mol2|28|dock3
     RDKit          3D

 23 24  0  0  0  0  0  0  0  0999 V2000
   12.5462   -1.6414   21.6795 C   0  0  0  0  0  0  0  0  0  0  0  0
   12.4073   -0.2022   22.1052 C   0  0  0  0  0  0  0  0  0  0  0  0
   13.4104    0.3562   22.8919 C   0  0  0  0  0  0  0  0  0  0  0  0
   13.3099    1.6674   23.2993 C   0  0  0  0  0  0  0  0  0  0  0  0
   12.2849    2.4510   22.9773 N   0  0  0  0  0  0  0  0  0  0  0  0
   11.3149    1.9260   22.2223 C   0  0  0  0  0  0  0  0  0  0  0  0
   11.3125    0.6115   21.7547 C   0  0  0  0  0  0  0  0  0  0  0  0
   10.2794    0.0509   20.9524 N   0  0  0  0  0  0  0  0  0  0  0  0
    8.9659    0.3762   20.8505 C   0  0  0  0  0  0  0  0  0  0  0  0
    8.3974    1.2693   21.4714 O   0  0  0  0  0  0  0  0  0  0  0  0
    8.2054   -0.5021   19.8538 C   0  0  0  0  0  0  0  0  0  0  0  0
    7.9192   -1.8676   20.4942 C   0  0  0  0  0  0  0  0  0  0  0  0
    6.8894   -2.6383   19.7891 N   0  0  0  0  0  0  0  0  0  0  0  0
    6.5345   -4.1259   20.2706 S   0  0  0  0  0  0  0  0  0  0  0  0
    5.7959   -4.0094   21.8542 C   0  0  0  0  0  0  0  0  0  0  0  0
    5.5563   -4.6384   19.3614 O   0  0  0  0  0  0  0  0  0  0  0  0
    7.7728   -4.8282   20.4088 O   0  0  0  0  0  0  0  0  0  0  0  0
    6.9177    0.1907   19.4364 C   0  0  0  0  0  0  0  0  0  0  0  0
    5.8165    0.2107   20.2810 C   0  0  0  0  0  0  0  0  0  0  0  0
    4.6450    0.8444   19.9014 C   0  0  0  0  0  0  0  0  0  0  0  0
    4.5603    1.4661   18.6740 C   0  0  0  0  0  0  0  0  0  0  0  0
    5.6465    1.4550   17.8257 C   0  0  0  0  0  0  0  0  0  0  0  0
    6.8185    0.8216   18.2042 C   0  0  0  0  0  0  0  0  0  0  0  0
  1  2  1  0
  2  3  2  0
  3  4  1  0
  4  5  2  0
  5  6  1  0
  6  7  2  0
  7  8  1  0
  8  9  1  0
  9 10  2  0
  9 11  1  0
 11 12  1  0
 12 13  1  0
 13 14  1  0
 14 15  1  0
 14 16  2  0
 14 17  2  0
 11 18  1  0
 18 19  2  0
 19 20  1  0
 20 21  2  0
 21 22  1  0
 22 23  2  0
  7  2  1  0
 23 18  1  0
M  END
