CVD-0003318|dock_bobby27042020.60|mol2|13|dock2
     RDKit          3D

 24 26  0  0  0  0  0  0  0  0999 V2000
    4.9410    1.9318   17.8526 Cl  0  0  0  0  0  0  0  0  0  0  0  0
    5.3267    0.4695   18.7160 C   0  0  0  0  0  0  0  0  0  0  0  0
    5.2957   -0.7355   18.0495 C   0  0  0  0  0  0  0  0  0  0  0  0
    5.6052   -1.8905   18.7475 C   0  0  0  0  0  0  0  0  0  0  0  0
    5.9381   -1.8266   20.0903 C   0  0  0  0  0  0  0  0  0  0  0  0
    5.9659   -0.6117   20.7575 C   0  0  0  0  0  0  0  0  0  0  0  0
    6.3346   -0.5454   22.2212 C   0  0  0  0  0  0  0  0  0  0  0  0
    7.7436   -0.8601   22.5056 N   0  0  0  0  0  0  0  0  0  0  0  0
    8.0289   -0.6902   23.9333 C   0  0  0  0  0  0  0  0  0  0  0  0
    9.4719   -1.0555   24.2277 C   0  0  0  0  0  0  0  0  0  0  0  0
   10.3814   -0.2316   23.4285 N   0  0  0  0  0  0  0  0  0  0  0  0
   10.0827   -0.3334   21.9966 C   0  0  0  0  0  0  0  0  0  0  0  0
    8.6277    0.0113   21.7359 C   0  0  0  0  0  0  0  0  0  0  0  0
   11.3817    0.4978   23.9743 C   0  0  0  0  0  0  0  0  0  0  0  0
   11.6018    0.3922   25.1755 O   0  0  0  0  0  0  0  0  0  0  0  0
   12.2774    1.4518   23.2188 C   0  0  0  0  0  0  0  0  0  0  0  0
   13.5625    1.1500   23.1072 C   0  0  0  0  0  0  0  0  0  0  0  0
   11.7055    2.7210   22.6385 C   0  0  0  0  0  0  0  0  0  0  0  0
   12.5694    3.9457   22.6852 C   0  0  0  0  0  0  0  0  0  0  0  0
   13.1844    4.6259   21.6232 C   0  0  0  0  0  0  0  0  0  0  0  0
   13.8368    5.6363   22.2032 C   0  0  0  0  0  0  0  0  0  0  0  0
   13.6617    5.6160   23.5349 O   0  0  0  0  0  0  0  0  0  0  0  0
   12.8380    4.5097   23.8246 N   0  0  0  0  0  0  0  0  0  0  0  0
    5.6569    0.5452   20.0537 C   0  0  0  0  0  0  0  0  0  0  0  0
  1  2  1  0
  2  3  2  0
  3  4  1  0
  4  5  2  0
  5  6  1  0
  6  7  1  0
  7  8  1  0
  8  9  1  0
  9 10  1  0
 10 11  1  0
 11 12  1  0
 12 13  1  0
 11 14  1  0
 14 15  2  0
 14 16  1  0
 16 17  2  0
 16 18  1  0
 18 19  1  0
 19 20  1  0
 20 21  2  0
 21 22  1  0
 22 23  1  0
  6 24  2  0
 24  2  1  0
 13  8  1  0
 23 19  2  0
M  END
