CVD-0001347|dock_bobby27042020.67|mol2|25|dock3
     RDKit          3D

 24 26  0  0  0  0  0  0  0  0999 V2000
    8.1027    1.0571   23.7737 C   0  0  0  0  0  0  0  0  0  0  0  0
    9.0523    0.5028   22.8123 N   0  0  0  0  0  0  0  0  0  0  0  0
    8.8708   -0.9228   22.4181 C   0  0  0  0  0  0  0  0  0  0  0  0
   10.1353   -1.7595   22.6616 C   0  0  0  0  0  0  0  0  0  0  0  0
   11.0374   -1.1819   23.7407 C   0  0  0  0  0  0  0  0  0  0  0  0
   11.3938    0.2271   23.3535 C   0  0  0  0  0  0  0  0  0  0  0  0
   12.6915    0.7244   23.3826 C   0  0  0  0  0  0  0  0  0  0  0  0
   12.9784    1.9952   22.9243 C   0  0  0  0  0  0  0  0  0  0  0  0
   11.9499    2.7787   22.4297 C   0  0  0  0  0  0  0  0  0  0  0  0
   10.6422    2.3145   22.3856 C   0  0  0  0  0  0  0  0  0  0  0  0
   10.3691    1.0303   22.8518 C   0  0  0  0  0  0  0  0  0  0  0  0
   12.2881    4.4324   21.9064 S   0  0  0  0  0  0  0  0  0  0  0  0
   13.8401    4.7361   22.1558 N   0  0  0  0  0  0  0  0  0  0  0  0
   12.0680    4.4869   20.4922 O   0  0  0  0  0  0  0  0  0  0  0  0
   11.5427    5.3111   22.7569 O   0  0  0  0  0  0  0  0  0  0  0  0
    8.4730   -1.0112   20.9380 C   0  0  0  0  0  0  0  0  0  0  0  0
    9.3022   -1.3276   20.1051 O   0  0  0  0  0  0  0  0  0  0  0  0
    7.1988   -0.7487   20.5674 N   0  0  0  0  0  0  0  0  0  0  0  0
    6.0892   -0.4458   21.4768 C   0  0  0  0  0  0  0  0  0  0  0  0
    5.4073    0.8480   21.0798 C   0  0  0  0  0  0  0  0  0  0  0  0
    4.9814    0.8535   19.6133 C   0  0  0  0  0  0  0  0  0  0  0  0
    4.4272    2.1063   19.2025 O   0  0  0  0  0  0  0  0  0  0  0  0
    6.1536    0.4403   18.7326 C   0  0  0  0  0  0  0  0  0  0  0  0
    6.7801   -0.8636   19.1751 C   0  0  0  0  0  0  0  0  0  0  0  0
  1  2  1  0
  2  3  1  0
  3  4  1  0
  4  5  1  0
  5  6  1  0
  6  7  2  0
  7  8  1  0
  8  9  2  0
  9 10  1  0
 10 11  2  0
  9 12  1  0
 12 13  1  0
 12 14  2  0
 12 15  2  0
  3 16  1  0
 16 17  2  0
 16 18  1  0
 18 19  1  0
 19 20  1  0
 20 21  1  0
 21 22  1  0
 21 23  1  0
 23 24  1  0
 11  2  1  0
 24 18  1  0
 11  6  1  0
M  END
