CVD-0001814|dock_bobby27042020.80|mol2|3|dock1
     RDKit          3D

 21 23  0  0  0  0  0  0  0  0999 V2000
   11.5936   -1.6540   21.1468 O   0  0  0  0  0  0  0  0  0  0  0  0
   12.9682   -1.8812   21.4087 C   0  0  0  0  0  0  0  0  0  0  0  0
   13.3406   -1.5504   22.8348 C   0  0  0  0  0  0  0  0  0  0  0  0
   14.2379   -2.3859   23.4933 C   0  0  0  0  0  0  0  0  0  0  0  0
   14.6217   -2.0897   24.7849 C   0  0  0  0  0  0  0  0  0  0  0  0
   14.1814   -1.0281   25.4577 N   0  0  0  0  0  0  0  0  0  0  0  0
   13.3084   -0.2357   24.8302 C   0  0  0  0  0  0  0  0  0  0  0  0
   12.8391   -0.4363   23.5331 C   0  0  0  0  0  0  0  0  0  0  0  0
   11.8536    0.5638   23.0331 C   0  0  0  0  0  0  0  0  0  0  0  0
   10.4981    0.2950   22.8633 C   0  0  0  0  0  0  0  0  0  0  0  0
    9.6438    1.2844   22.3955 C   0  0  0  0  0  0  0  0  0  0  0  0
    8.1717    1.0072   22.2084 C   0  0  0  0  0  0  0  0  0  0  0  0
    7.8969    0.0400   21.0596 C   0  0  0  0  0  0  0  0  0  0  0  0
    6.5476    0.2590   20.4299 C   0  0  0  0  0  0  0  0  0  0  0  0
    5.2765    0.2320   21.0498 C   0  0  0  0  0  0  0  0  0  0  0  0
    4.3100    0.4785   20.1747 N   0  0  0  0  0  0  0  0  0  0  0  0
    4.9463    0.6666   18.9995 N   0  0  0  0  0  0  0  0  0  0  0  0
    6.2734    0.5455   19.1151 C   0  0  0  0  0  0  0  0  0  0  0  0
   10.1838    2.5275   22.1140 C   0  0  0  0  0  0  0  0  0  0  0  0
   11.5356    2.7242   22.3080 C   0  0  0  0  0  0  0  0  0  0  0  0
   12.3677    1.7759   22.7573 N   0  0  0  0  0  0  0  0  0  0  0  0
  1  2  1  0
  2  3  1  0
  3  4  2  0
  4  5  1  0
  5  6  2  0
  6  7  1  0
  7  8  2  0
  8  9  1  0
  9 10  2  0
 10 11  1  0
 11 12  1  0
 12 13  1  0
 13 14  1  0
 14 15  1  0
 15 16  2  0
 16 17  1  0
 17 18  1  0
 11 19  2  0
 19 20  1  0
 20 21  2  0
  8  3  1  0
 21  9  1  0
 18 14  2  0
M  END
