CVD-0001476|dock_bobby27042020.81|mol2|2|dock3
     RDKit          3D

 22 24  0  0  0  0  0  0  0  0999 V2000
   13.9581   -1.3822   25.2996 C   0  0  0  0  0  0  0  0  0  0  0  0
   13.5419   -2.4459   24.6649 C   0  0  0  0  0  0  0  0  0  0  0  0
   13.0028   -2.3374   23.2785 C   0  0  0  0  0  0  0  0  0  0  0  0
   13.6434   -2.8451   22.3593 O   0  0  0  0  0  0  0  0  0  0  0  0
   11.8339   -1.6948   23.0269 N   0  0  0  0  0  0  0  0  0  0  0  0
   11.2825   -1.5486   21.6779 C   0  0  0  0  0  0  0  0  0  0  0  0
    9.8584   -2.0702   21.6282 C   0  0  0  0  0  0  0  0  0  0  0  0
    9.0222   -1.3559   22.5973 N   0  0  0  0  0  0  0  0  0  0  0  0
    7.6379   -1.8279   22.5254 C   0  0  0  0  0  0  0  0  0  0  0  0
    6.9698   -1.5704   21.1910 C   0  0  0  0  0  0  0  0  0  0  0  0
    6.4765   -2.5032   20.3785 C   0  0  0  0  0  0  0  0  0  0  0  0
    6.1067   -1.8716   19.1658 N   0  0  0  0  0  0  0  0  0  0  0  0
    6.4868   -0.4193   19.1908 C   0  0  0  0  0  0  0  0  0  0  0  0
    5.4960    0.4715   18.7083 C   0  0  0  0  0  0  0  0  0  0  0  0
    4.7810    1.1486   19.6386 C   0  0  0  0  0  0  0  0  0  0  0  0
    5.2491    1.3319   20.9052 C   0  0  0  0  0  0  0  0  0  0  0  0
    6.4166    0.8159   21.3188 C   0  0  0  0  0  0  0  0  0  0  0  0
    7.0117   -0.1997   20.5429 C   0  0  0  0  0  0  0  0  0  0  0  0
    4.6280    2.3343   21.7267 C   0  0  0  0  0  0  0  0  0  0  0  0
    4.1249    3.1077   22.4037 N   0  0  0  0  0  0  0  0  0  0  0  0
    9.5640   -1.5623   23.9378 C   0  0  0  0  0  0  0  0  0  0  0  0
   10.9867   -1.0408   24.0290 C   0  0  0  0  0  0  0  0  0  0  0  0
  1  2  2  0
  2  3  1  0
  3  4  2  0
  3  5  1  0
  5  6  1  0
  6  7  1  0
  7  8  1  0
  8  9  1  0
  9 10  1  0
 10 11  2  0
 11 12  1  0
 12 13  1  0
 13 14  1  0
 14 15  2  0
 15 16  1  0
 16 17  2  0
 17 18  1  0
 16 19  1  0
 19 20  3  0
  8 21  1  0
 21 22  1  0
 22  5  1  0
 18 10  1  0
 18 13  1  0
M  END
