CVD-0003989|dock_bobby27042020.86|mol2|11|dock3
     RDKit          3D

 20 20  0  0  0  0  0  0  0  0999 V2000
   12.3040   -2.6496   24.9224 O   0  0  0  0  0  0  0  0  0  0  0  0
   13.4270   -2.7052   25.3262 C   0  0  0  0  0  0  0  0  0  0  0  0
   14.0228   -1.3785   25.0834 C   0  0  0  0  0  0  0  0  0  0  0  0
   14.2309   -1.0246   23.3160 S   0  0  0  0  0  0  0  0  0  0  0  0
   12.5915   -0.8918   22.7123 C   0  0  0  0  0  0  0  0  0  0  0  0
   11.9220   -1.8660   22.1229 C   0  0  0  0  0  0  0  0  0  0  0  0
   10.6075   -1.7723   21.6364 N   0  0  0  0  0  0  0  0  0  0  0  0
    9.4322   -1.6241   22.3061 C   0  0  0  0  0  0  0  0  0  0  0  0
    9.3137   -1.5417   23.5268 O   0  0  0  0  0  0  0  0  0  0  0  0
    8.2164   -1.5661   21.3673 C   0  0  0  0  0  0  0  0  0  0  0  0
    7.7076   -2.5626   20.9078 O   0  0  0  0  0  0  0  0  0  0  0  0
    7.8341   -0.2604   21.1487 O   0  0  0  0  0  0  0  0  0  0  0  0
    6.7555    0.1732   20.3316 C   0  0  0  0  0  0  0  0  0  0  0  0
    7.0467    0.8112   19.1731 C   0  0  0  0  0  0  0  0  0  0  0  0
    5.9096    1.3740   18.4296 C   0  0  0  0  0  0  0  0  0  0  0  0
    6.0434    1.6213   17.0082 C   0  0  0  0  0  0  0  0  0  0  0  0
    7.0503    1.4398   16.3525 O   0  0  0  0  0  0  0  0  0  0  0  0
    4.7484    1.6767   19.0772 C   0  0  0  0  0  0  0  0  0  0  0  0
    4.5553    1.1927   20.3191 O   0  0  0  0  0  0  0  0  0  0  0  0
    5.2873   -0.0214   20.6106 C   0  0  0  0  0  0  0  0  0  0  0  0
  1  2  2  0
  2  3  1  0
  3  4  1  0
  4  5  1  0
  5  6  2  0
  6  7  1  0
  7  8  1  0
  8  9  2  0
  8 10  1  0
 10 11  2  0
 10 12  1  0
 12 13  1  0
 13 14  2  0
 14 15  1  0
 15 16  1  0
 16 17  2  0
 15 18  2  0
 18 19  1  0
 19 20  1  0
 20 13  1  0
M  END
