CVD-0000452|dock_bobby27042020.41|mol2|26|dock1
     RDKit          3D

 32 35  0  0  0  0  0  0  0  0999 V2000
   13.2894    5.1749   22.3587 C   0  0  0  0  0  0  0  0  0  0  0  0
   12.2418    4.1967   22.1301 N   0  0  0  0  0  0  0  0  0  0  0  0
   11.9946    3.2220   23.0010 C   0  0  0  0  0  0  0  0  0  0  0  0
   12.6268    3.1333   24.0494 O   0  0  0  0  0  0  0  0  0  0  0  0
   10.9013    2.2381   22.6917 C   0  0  0  0  0  0  0  0  0  0  0  0
    9.6908    2.8129   22.3907 C   0  0  0  0  0  0  0  0  0  0  0  0
    8.6070    2.0361   21.9304 C   0  0  0  0  0  0  0  0  0  0  0  0
    7.3382    2.5756   21.6114 C   0  0  0  0  0  0  0  0  0  0  0  0
    6.3474    1.7656   21.1431 C   0  0  0  0  0  0  0  0  0  0  0  0
    6.5629    0.4076   20.9760 C   0  0  0  0  0  0  0  0  0  0  0  0
    7.7656   -0.1730   21.2851 C   0  0  0  0  0  0  0  0  0  0  0  0
    7.9854   -1.6618   21.1003 C   0  0  0  0  0  0  0  0  0  0  0  0
    7.7620   -2.5075   22.2853 N   0  0  0  0  0  0  0  0  0  0  0  0
    7.8053   -3.9260   21.9184 C   0  0  0  0  0  0  0  0  0  0  0  0
    7.6158   -4.7929   23.1493 C   0  0  0  0  0  0  0  0  0  0  0  0
    6.3448   -4.4786   23.8056 N   0  0  0  0  0  0  0  0  0  0  0  0
    6.2453   -3.0526   24.1320 C   0  0  0  0  0  0  0  0  0  0  0  0
    6.4653   -2.2106   22.8885 C   0  0  0  0  0  0  0  0  0  0  0  0
    5.4151   -5.4153   24.0866 C   0  0  0  0  0  0  0  0  0  0  0  0
    5.5877   -6.5958   23.8108 O   0  0  0  0  0  0  0  0  0  0  0  0
    4.1446   -4.9425   24.7660 C   0  0  0  0  0  0  0  0  0  0  0  0
    3.0506   -6.2957   25.0810 Cl  0  0  0  0  0  0  0  0  0  0  0  0
    8.8262    0.6486   21.7798 C   0  0  0  0  0  0  0  0  0  0  0  0
   10.0264    0.0801   22.0979 N   0  0  0  0  0  0  0  0  0  0  0  0
   10.9512    0.8262   22.6546 C   0  0  0  0  0  0  0  0  0  0  0  0
   11.9598    0.0710   23.2122 N   0  0  0  0  0  0  0  0  0  0  0  0
   12.2128   -1.2288   22.6003 C   0  0  0  0  0  0  0  0  0  0  0  0
   13.3439   -1.9704   23.2537 C   0  0  0  0  0  0  0  0  0  0  0  0
   13.1605   -2.1008   24.6808 N   0  0  0  0  0  0  0  0  0  0  0  0
   14.2390   -2.8992   25.2609 C   0  0  0  0  0  0  0  0  0  0  0  0
   13.1306   -0.7582   25.2272 C   0  0  0  0  0  0  0  0  0  0  0  0
   11.9725    0.0149   24.6676 C   0  0  0  0  0  0  0  0  0  0  0  0
  1  2  1  0
  2  3  1  0
  3  4  2  0
  3  5  1  0
  5  6  2  0
  6  7  1  0
  7  8  2  0
  8  9  1  0
  9 10  2  0
 10 11  1  0
 11 12  1  0
 12 13  1  0
 13 14  1  0
 14 15  1  0
 15 16  1  0
 16 17  1  0
 17 18  1  0
 16 19  1  0
 19 20  2  0
 19 21  1  0
 21 22  1  0
 11 23  2  0
 23 24  1  0
 24 25  2  0
 25 26  1  0
 26 27  1  0
 27 28  1  0
 28 29  1  0
 29 30  1  0
 29 31  1  0
 31 32  1  0
 25  5  1  0
 32 26  1  0
 23  7  1  0
 18 13  1  0
M  END
