CVD-0000689|dock_bobby27042020.26|mol2|29|dock3
     RDKit          3D

 29 32  0  0  0  0  0  0  0  0999 V2000
    5.9196    2.4428   23.2847 O   0  0  0  0  0  0  0  0  0  0  0  0
    6.7089    1.9988   22.4569 C   0  0  0  0  0  0  0  0  0  0  0  0
    6.6516    0.5522   22.0079 C   0  0  0  0  0  0  0  0  0  0  0  0
    6.1396    0.4087   20.5925 C   0  0  0  0  0  0  0  0  0  0  0  0
    5.4350    1.4373   19.9863 C   0  0  0  0  0  0  0  0  0  0  0  0
    4.9632    1.3047   18.6911 C   0  0  0  0  0  0  0  0  0  0  0  0
    5.1898    0.1415   17.9874 C   0  0  0  0  0  0  0  0  0  0  0  0
    5.8877   -0.8894   18.5790 C   0  0  0  0  0  0  0  0  0  0  0  0
    6.3594   -0.7565   19.8743 C   0  0  0  0  0  0  0  0  0  0  0  0
    7.7072    2.7213   21.8628 N   0  0  0  0  0  0  0  0  0  0  0  0
    8.0342    4.0767   22.0641 C   0  0  0  0  0  0  0  0  0  0  0  0
    7.2417    5.1487   21.8112 C   0  0  0  0  0  0  0  0  0  0  0  0
    7.9031    6.2916   22.1688 N   0  0  0  0  0  0  0  0  0  0  0  0
    9.1294    5.9874   22.6746 C   0  0  0  0  0  0  0  0  0  0  0  0
   10.0074    6.8769   23.1643 N   0  0  0  0  0  0  0  0  0  0  0  0
   11.1611    6.3769   23.6145 C   0  0  0  0  0  0  0  0  0  0  0  0
   11.4920    5.0386   23.5556 C   0  0  0  0  0  0  0  0  0  0  0  0
   10.5832    4.1227   23.0210 C   0  0  0  0  0  0  0  0  0  0  0  0
   10.8864    2.7437   22.8788 N   0  0  0  0  0  0  0  0  0  0  0  0
   11.8812    2.0067   23.4751 C   0  0  0  0  0  0  0  0  0  0  0  0
   12.7158    2.4290   24.2706 O   0  0  0  0  0  0  0  0  0  0  0  0
   11.8616    0.7094   23.0983 N   0  0  0  0  0  0  0  0  0  0  0  0
   12.8686   -0.2582   23.5343 C   0  0  0  0  0  0  0  0  0  0  0  0
   12.6153   -0.7096   24.9874 C   0  0  0  0  0  0  0  0  0  0  0  0
   13.6081   -1.7752   25.4482 C   0  0  0  0  0  0  0  0  0  0  0  0
   13.6296   -2.9626   24.4945 C   0  0  0  0  0  0  0  0  0  0  0  0
   13.9113   -2.5157   23.0672 C   0  0  0  0  0  0  0  0  0  0  0  0
   12.8921   -1.4811   22.6016 C   0  0  0  0  0  0  0  0  0  0  0  0
    9.3136    4.5991   22.5967 C   0  0  0  0  0  0  0  0  0  0  0  0
  1  2  2  0
  2  3  1  0
  3  4  1  0
  4  5  2  0
  5  6  1  0
  6  7  2  0
  7  8  1  0
  8  9  2  0
  2 10  1  0
 10 11  1  0
 11 12  2  0
 12 13  1  0
 13 14  1  0
 14 15  2  0
 15 16  1  0
 16 17  2  0
 17 18  1  0
 18 19  1  0
 19 20  1  0
 20 21  2  0
 20 22  1  0
 22 23  1  0
 23 24  1  0
 24 25  1  0
 25 26  1  0
 26 27  1  0
 27 28  1  0
 18 29  2  0
  9  4  1  0
 29 11  1  0
 29 14  1  0
 28 23  1  0
M  END
