CVD-0003772|dock_bobby27042020.29|mol2|42|dock2
     RDKit          3D

 23 25  0  0  0  0  0  0  0  0999 V2000
    9.4659    2.6051   22.3821 N   0  0  0  0  0  0  0  0  0  0  0  0
   10.2241    1.7509   22.3948 C   0  0  0  0  0  0  0  0  0  0  0  0
   11.1941    0.6874   22.3717 C   0  0  0  0  0  0  0  0  0  0  0  0
   12.5412    0.9781   22.5932 C   0  0  0  0  0  0  0  0  0  0  0  0
   13.4833   -0.0362   22.5727 C   0  0  0  0  0  0  0  0  0  0  0  0
   13.0912   -1.3358   22.3328 C   0  0  0  0  0  0  0  0  0  0  0  0
   11.7560   -1.6314   22.1122 C   0  0  0  0  0  0  0  0  0  0  0  0
   10.7843   -0.6342   22.1274 C   0  0  0  0  0  0  0  0  0  0  0  0
    9.3286   -0.9479   21.8849 C   0  0  0  0  0  0  0  0  0  0  0  0
    8.8925   -0.4414   20.5854 N   0  0  0  0  0  0  0  0  0  0  0  0
    7.4782   -0.6057   20.2952 C   0  0  0  0  0  0  0  0  0  0  0  0
    6.7631    0.5238   21.0321 C   0  0  0  0  0  0  0  0  0  0  0  0
    5.2921    0.5654   20.6694 C   0  0  0  0  0  0  0  0  0  0  0  0
    5.0946    0.7002   19.1672 C   0  0  0  0  0  0  0  0  0  0  0  0
    5.8127   -0.4142   18.4234 C   0  0  0  0  0  0  0  0  0  0  0  0
    7.2900   -0.4709   18.7908 C   0  0  0  0  0  0  0  0  0  0  0  0
    6.9308   -1.8482   20.8771 C   0  0  0  0  0  0  0  0  0  0  0  0
    6.5094   -2.8075   21.4404 C   0  0  0  0  0  0  0  0  0  0  0  0
    6.0548   -3.9761   22.1667 C   0  0  0  0  0  0  0  0  0  0  0  0
    6.8102   -4.0733   23.4360 C   0  0  0  0  0  0  0  0  0  0  0  0
    7.6400   -5.2288   23.3690 C   0  0  0  0  0  0  0  0  0  0  0  0
    7.4175   -5.8921   22.1625 C   0  0  0  0  0  0  0  0  0  0  0  0
    6.4362   -5.1884   21.4074 C   0  0  0  0  0  0  0  0  0  0  0  0
  1  2  3  0
  2  3  1  0
  3  4  2  0
  4  5  1  0
  5  6  2  0
  6  7  1  0
  7  8  2  0
  8  9  1  0
  9 10  1  0
 10 11  1  0
 11 12  1  0
 12 13  1  0
 13 14  1  0
 14 15  1  0
 15 16  1  0
 11 17  1  0
 17 18  3  0
 18 19  1  0
 19 20  1  0
 20 21  1  0
 21 22  1  0
 22 23  1  0
  8  3  1  0
 16 11  1  0
 23 19  1  0
M  END
