CVD-0003399|dock_bobby27042020.2|mol2|14|dock1
     RDKit          3D

 20 22  0  0  0  0  0  0  0  0999 V2000
   10.2671    0.5184   23.4167 O   0  0  0  0  0  0  0  0  0  0  0  0
   10.4432   -0.1051   22.3758 C   0  0  0  0  0  0  0  0  0  0  0  0
   11.4857   -0.9823   22.1739 N   0  0  0  0  0  0  0  0  0  0  0  0
   12.5480   -1.3757   23.0277 C   0  0  0  0  0  0  0  0  0  0  0  0
   12.8261   -0.5633   24.1213 C   0  0  0  0  0  0  0  0  0  0  0  0
   13.8487   -0.8844   24.9978 C   0  0  0  0  0  0  0  0  0  0  0  0
   14.6055   -2.0169   24.7959 C   0  0  0  0  0  0  0  0  0  0  0  0
   14.3406   -2.8306   23.7165 C   0  0  0  0  0  0  0  0  0  0  0  0
   13.3201   -2.5196   22.8328 C   0  0  0  0  0  0  0  0  0  0  0  0
    9.6347   -0.0247   21.2621 N   0  0  0  0  0  0  0  0  0  0  0  0
    8.4648    0.7420   21.0276 C   0  0  0  0  0  0  0  0  0  0  0  0
    8.1797    1.9365   21.6853 C   0  0  0  0  0  0  0  0  0  0  0  0
    7.0803    2.6664   21.4717 N   0  0  0  0  0  0  0  0  0  0  0  0
    6.1965    2.2483   20.5875 C   0  0  0  0  0  0  0  0  0  0  0  0
    6.3460    1.0608   19.8446 C   0  0  0  0  0  0  0  0  0  0  0  0
    5.3701    0.7126   18.9486 N   0  0  0  0  0  0  0  0  0  0  0  0
    5.5409   -0.4061   18.2689 C   0  0  0  0  0  0  0  0  0  0  0  0
    6.6284   -1.2397   18.4010 C   0  0  0  0  0  0  0  0  0  0  0  0
    7.6099   -0.9103   19.2873 C   0  0  0  0  0  0  0  0  0  0  0  0
    7.5084    0.2768   20.0617 C   0  0  0  0  0  0  0  0  0  0  0  0
  1  2  2  0
  2  3  1  0
  3  4  1  0
  4  5  2  0
  5  6  1  0
  6  7  2  0
  7  8  1  0
  8  9  2  0
  2 10  1  0
 10 11  1  0
 11 12  2  0
 12 13  1  0
 13 14  2  0
 14 15  1  0
 15 16  2  0
 16 17  1  0
 17 18  2  0
 18 19  1  0
 19 20  2  0
  9  4  1  0
 20 11  1  0
 20 15  1  0
M  END
