CVD-0003156|dock_bobby27042020.88|mol2|45|dock1
     RDKit          3D

 27 30  0  0  0  0  0  0  0  0999 V2000
    9.3320    1.3546   20.8597 O   0  0  0  0  0  0  0  0  0  0  0  0
    8.9784    1.3580   22.0359 C   0  0  0  0  0  0  0  0  0  0  0  0
    8.7946    2.6367   22.7653 C   0  0  0  0  0  0  0  0  0  0  0  0
    9.6967    3.5967   23.0896 C   0  0  0  0  0  0  0  0  0  0  0  0
    9.2318    4.7138   23.8525 C   0  0  0  0  0  0  0  0  0  0  0  0
    8.8928    5.6287   24.4506 N   0  0  0  0  0  0  0  0  0  0  0  0
   11.1264    3.7764   22.8281 C   0  0  0  0  0  0  0  0  0  0  0  0
   11.8317    4.9170   22.6055 C   0  0  0  0  0  0  0  0  0  0  0  0
   13.4781    4.5692   22.3501 S   0  0  0  0  0  0  0  0  0  0  0  0
   13.1433    2.9129   22.5738 C   0  0  0  0  0  0  0  0  0  0  0  0
   11.8997    2.6224   22.8127 N   0  0  0  0  0  0  0  0  0  0  0  0
    8.7596    0.1844   22.6879 N   0  0  0  0  0  0  0  0  0  0  0  0
    8.9722   -1.0899   21.9575 C   0  0  0  0  0  0  0  0  0  0  0  0
    9.7296   -2.0675   22.7924 C   0  0  0  0  0  0  0  0  0  0  0  0
   11.1562   -1.5832   23.0186 C   0  0  0  0  0  0  0  0  0  0  0  0
   11.5126   -0.9051   24.1767 C   0  0  0  0  0  0  0  0  0  0  0  0
   12.8137   -0.4724   24.3721 C   0  0  0  0  0  0  0  0  0  0  0  0
   13.7753   -0.7122   23.4143 C   0  0  0  0  0  0  0  0  0  0  0  0
   13.4367   -1.3852   22.2602 C   0  0  0  0  0  0  0  0  0  0  0  0
   12.1360   -1.8181   22.0639 C   0  0  0  0  0  0  0  0  0  0  0  0
    8.9955   -2.3210   24.0835 C   0  0  0  0  0  0  0  0  0  0  0  0
    9.0041   -3.5764   24.6909 C   0  0  0  0  0  0  0  0  0  0  0  0
    8.3238   -3.8164   25.8715 C   0  0  0  0  0  0  0  0  0  0  0  0
    7.6179   -2.7959   26.4692 C   0  0  0  0  0  0  0  0  0  0  0  0
    7.5968   -1.5431   25.8827 C   0  0  0  0  0  0  0  0  0  0  0  0
    8.2786   -1.2948   24.6955 C   0  0  0  0  0  0  0  0  0  0  0  0
    8.2422    0.1018   24.0681 C   0  0  0  0  0  0  0  0  0  0  0  0
  1  2  2  0
  2  3  1  0
  3  4  2  0
  4  5  1  0
  5  6  3  0
  4  7  1  0
  7  8  2  0
  8  9  1  0
  9 10  1  0
 10 11  2  0
  2 12  1  0
 12 13  1  0
 13 14  1  0
 14 15  1  0
 15 16  2  0
 16 17  1  0
 17 18  2  0
 18 19  1  0
 19 20  2  0
 14 21  1  0
 21 22  2  0
 22 23  1  0
 23 24  2  0
 24 25  1  0
 25 26  2  0
 26 27  1  0
 11  7  1  0
 27 12  1  0
 20 15  1  0
 26 21  1  0
M  END
