CVD-0001371|dock_bobby27042020.24|mol2|11|dock1
     RDKit          3D

 34 36  0  0  0  0  0  0  0  0999 V2000
   10.3276    5.5363   23.4738 C   0  0  0  0  0  0  0  0  0  0  0  0
   11.6855    4.9788   23.8508 C   0  0  0  0  0  0  0  0  0  0  0  0
   12.2189    5.6427   25.1042 C   0  0  0  0  0  0  0  0  0  0  0  0
   12.6613    5.1618   22.7068 C   0  0  0  0  0  0  0  0  0  0  0  0
   11.5571    3.5226   24.0946 O   0  0  0  0  0  0  0  0  0  0  0  0
   11.0625    2.6656   23.1832 C   0  0  0  0  0  0  0  0  0  0  0  0
   10.9647    2.8708   21.9927 O   0  0  0  0  0  0  0  0  0  0  0  0
   10.6909    1.5206   23.8495 N   0  0  0  0  0  0  0  0  0  0  0  0
   10.1223    0.3588   23.2787 C   0  0  0  0  0  0  0  0  0  0  0  0
   10.5973   -0.4219   22.2603 C   0  0  0  0  0  0  0  0  0  0  0  0
    9.8836   -1.5568   21.8171 C   0  0  0  0  0  0  0  0  0  0  0  0
    8.6907   -1.9251   22.3786 C   0  0  0  0  0  0  0  0  0  0  0  0
    8.2107   -1.1444   23.4086 N   0  0  0  0  0  0  0  0  0  0  0  0
    8.8356   -0.0173   23.9124 C   0  0  0  0  0  0  0  0  0  0  0  0
    8.3387    0.6245   24.8367 O   0  0  0  0  0  0  0  0  0  0  0  0
    7.9254   -3.1201   21.9184 C   0  0  0  0  0  0  0  0  0  0  0  0
    7.0343   -3.0377   20.8514 C   0  0  0  0  0  0  0  0  0  0  0  0
    6.8652   -1.8529   20.2202 F   0  0  0  0  0  0  0  0  0  0  0  0
    6.3024   -4.0968   20.3735 C   0  0  0  0  0  0  0  0  0  0  0  0
    6.4674   -5.3288   20.9745 C   0  0  0  0  0  0  0  0  0  0  0  0
    7.3372   -5.4612   22.0408 C   0  0  0  0  0  0  0  0  0  0  0  0
    8.0632   -4.3836   22.5453 C   0  0  0  0  0  0  0  0  0  0  0  0
    8.9298   -4.6665   23.7563 C   0  0  0  0  0  0  0  0  0  0  0  0
    8.1907   -4.5479   25.0795 C   0  0  0  0  0  0  0  0  0  0  0  0
    9.1248   -4.4243   26.2052 N   0  0  0  0  0  0  0  0  0  0  0  0
    9.3641   -5.6728   27.1941 S   0  0  0  0  0  0  0  0  0  0  0  0
    9.4560   -6.8402   26.3717 O   0  0  0  0  0  0  0  0  0  0  0  0
   10.4606   -5.3229   28.0444 O   0  0  0  0  0  0  0  0  0  0  0  0
    7.9291   -5.8329   28.2013 C   0  0  0  0  0  0  0  0  0  0  0  0
    7.1061   -4.7362   28.3992 C   0  0  0  0  0  0  0  0  0  0  0  0
    5.9822   -4.8709   29.1971 C   0  0  0  0  0  0  0  0  0  0  0  0
    5.6869   -6.0810   29.7881 C   0  0  0  0  0  0  0  0  0  0  0  0
    6.5124   -7.1667   29.5876 C   0  0  0  0  0  0  0  0  0  0  0  0
    7.6410   -7.0521   28.7930 C   0  0  0  0  0  0  0  0  0  0  0  0
  1  2  1  0
  2  3  1  0
  2  4  1  0
  2  5  1  0
  5  6  1  0
  6  7  2  0
  6  8  1  0
  8  9  1  0
  9 10  2  0
 10 11  1  0
 11 12  2  0
 12 13  1  0
 13 14  1  0
 14 15  2  0
 12 16  1  0
 16 17  2  0
 17 18  1  0
 17 19  1  0
 19 20  2  0
 20 21  1  0
 21 22  2  0
 22 23  1  0
 23 24  1  0
 24 25  1  0
 25 26  1  0
 26 27  2  0
 26 28  2  0
 26 29  1  0
 29 30  2  0
 30 31  1  0
 31 32  2  0
 32 33  1  0
 33 34  2  0
 14  9  1  0
 22 16  1  0
 34 29  1  0
M  END
