CVD-0003852|dock_bobby27042020.86|mol2|31|dock2
     RDKit          3D

 33 37  0  0  0  0  0  0  0  0999 V2000
   12.9557    6.3804   23.4762 N   0  0  0  0  0  0  0  0  0  0  0  0
   13.5106    5.3470   22.3865 S   0  0  0  0  0  0  0  0  0  0  0  0
   14.8781    5.0780   22.7158 O   0  0  0  0  0  0  0  0  0  0  0  0
   13.2030    5.8867   21.0960 O   0  0  0  0  0  0  0  0  0  0  0  0
   12.6201    3.8293   22.5497 C   0  0  0  0  0  0  0  0  0  0  0  0
   11.2371    3.8348   22.5180 C   0  0  0  0  0  0  0  0  0  0  0  0
   10.5447    2.6441   22.6487 C   0  0  0  0  0  0  0  0  0  0  0  0
   11.2153    1.4364   22.8179 C   0  0  0  0  0  0  0  0  0  0  0  0
   12.6063    1.4565   22.8515 C   0  0  0  0  0  0  0  0  0  0  0  0
   13.3084    2.6410   22.7172 C   0  0  0  0  0  0  0  0  0  0  0  0
   10.5153    0.2447   22.9497 N   0  0  0  0  0  0  0  0  0  0  0  0
   10.8684   -0.9713   22.2109 C   0  0  0  0  0  0  0  0  0  0  0  0
   10.8711   -2.1875   23.0933 C   0  0  0  0  0  0  0  0  0  0  0  0
    9.5184   -2.3631   23.7921 C   0  0  0  0  0  0  0  0  0  0  0  0
    9.5045   -3.5940   24.6885 C   0  0  0  0  0  0  0  0  0  0  0  0
    8.1626   -4.1091   24.9806 N   0  0  0  0  0  0  0  0  0  0  0  0
    8.0530   -4.6144   26.3555 C   0  0  0  0  0  0  0  0  0  0  0  0
    6.5943   -4.8802   26.7164 C   0  0  0  0  0  0  0  0  0  0  0  0
    6.5399   -5.6298   28.0410 C   0  0  0  0  0  0  0  0  0  0  0  0
    5.9039   -5.0767   29.1438 C   0  0  0  0  0  0  0  0  0  0  0  0
    5.8566   -5.7576   30.3488 C   0  0  0  0  0  0  0  0  0  0  0  0
    6.4449   -6.9987   30.4664 C   0  0  0  0  0  0  0  0  0  0  0  0
    7.0808   -7.5597   29.3796 C   0  0  0  0  0  0  0  0  0  0  0  0
    7.1285   -6.8796   28.1741 C   0  0  0  0  0  0  0  0  0  0  0  0
    5.8585   -5.5947   25.5988 C   0  0  0  0  0  0  0  0  0  0  0  0
    4.5949   -6.1411   25.8214 C   0  0  0  0  0  0  0  0  0  0  0  0
    3.9277   -6.8348   24.8256 C   0  0  0  0  0  0  0  0  0  0  0  0
    4.5164   -6.9921   23.5907 C   0  0  0  0  0  0  0  0  0  0  0  0
    5.7696   -6.4550   23.3568 C   0  0  0  0  0  0  0  0  0  0  0  0
    6.4551   -5.7545   24.3462 C   0  0  0  0  0  0  0  0  0  0  0  0
    7.8329   -5.2073   24.0606 C   0  0  0  0  0  0  0  0  0  0  0  0
    9.1934   -1.0960   24.5422 C   0  0  0  0  0  0  0  0  0  0  0  0
    9.2211    0.1355   23.6621 C   0  0  0  0  0  0  0  0  0  0  0  0
  1  2  1  0
  2  3  2  0
  2  4  2  0
  2  5  1  0
  5  6  2  0
  6  7  1  0
  7  8  2  0
  8  9  1  0
  9 10  2  0
  8 11  1  0
 11 12  1  0
 12 13  1  0
 13 14  1  0
 14 15  1  0
 15 16  1  0
 16 17  1  0
 17 18  1  0
 18 19  1  0
 19 20  2  0
 20 21  1  0
 21 22  2  0
 22 23  1  0
 23 24  2  0
 18 25  1  0
 25 26  2  0
 26 27  1  0
 27 28  2  0
 28 29  1  0
 29 30  2  0
 30 31  1  0
 14 32  1  0
 32 33  1  0
 10  5  1  0
 33 11  1  0
 31 16  1  0
 24 19  1  0
 30 25  1  0
M  END
