CVD-0003792|dock_bobby27042020.44|mol2|16|dock1
     RDKit          3D

 24 26  0  0  0  0  0  0  0  0999 V2000
   13.1224    6.0141   23.3478 N   0  0  0  0  0  0  0  0  0  0  0  0
   13.5789    4.8643   22.3315 S   0  0  0  0  0  0  0  0  0  0  0  0
   14.8951    4.4543   22.7194 O   0  0  0  0  0  0  0  0  0  0  0  0
   13.3729    5.3650   21.0056 O   0  0  0  0  0  0  0  0  0  0  0  0
   12.5092    3.4735   22.5426 C   0  0  0  0  0  0  0  0  0  0  0  0
   13.0464    2.2196   22.7728 C   0  0  0  0  0  0  0  0  0  0  0  0
   12.2042    1.1354   22.9446 C   0  0  0  0  0  0  0  0  0  0  0  0
   10.8215    1.2814   22.8869 C   0  0  0  0  0  0  0  0  0  0  0  0
   10.3045    2.5523   22.6537 C   0  0  0  0  0  0  0  0  0  0  0  0
   11.1376    3.6440   22.4852 C   0  0  0  0  0  0  0  0  0  0  0  0
    9.9812    0.1893   23.0574 N   0  0  0  0  0  0  0  0  0  0  0  0
    8.8154   -0.0584   22.2037 C   0  0  0  0  0  0  0  0  0  0  0  0
    8.7304   -1.4934   21.7664 C   0  0  0  0  0  0  0  0  0  0  0  0
    8.7158   -2.4366   22.9744 C   0  0  0  0  0  0  0  0  0  0  0  0
    9.9294   -2.1540   23.8235 C   0  0  0  0  0  0  0  0  0  0  0  0
   10.0349   -0.7022   24.2392 C   0  0  0  0  0  0  0  0  0  0  0  0
    8.6306   -3.8348   22.5649 N   0  0  0  0  0  0  0  0  0  0  0  0
    7.4589   -4.5841   22.6242 C   0  0  0  0  0  0  0  0  0  0  0  0
    6.2111   -3.9743   22.5506 C   0  0  0  0  0  0  0  0  0  0  0  0
    5.0541   -4.7310   22.6094 C   0  0  0  0  0  0  0  0  0  0  0  0
    5.1671   -6.0877   22.7425 C   0  0  0  0  0  0  0  0  0  0  0  0
    4.0306   -6.8331   22.8004 F   0  0  0  0  0  0  0  0  0  0  0  0
    6.3739   -6.7269   22.8197 C   0  0  0  0  0  0  0  0  0  0  0  0
    7.5275   -5.9655   22.7598 C   0  0  0  0  0  0  0  0  0  0  0  0
  1  2  1  0
  2  3  2  0
  2  4  2  0
  2  5  1  0
  5  6  2  0
  6  7  1  0
  7  8  2  0
  8  9  1  0
  9 10  2  0
  8 11  1  0
 11 12  1  0
 12 13  1  0
 13 14  1  0
 14 15  1  0
 15 16  1  0
 14 17  1  0
 17 18  1  0
 18 19  2  0
 19 20  1  0
 20 21  2  0
 21 22  1  0
 21 23  1  0
 23 24  2  0
 10  5  1  0
 16 11  1  0
 24 18  1  0
M  END
