CVD-0002202|dock_bobby27042020.64|mol2|17|dock1
     RDKit          3D

 22 24  0  0  0  0  0  0  0  0999 V2000
   13.8213   -1.9350   22.5265 C   0  0  0  0  0  0  0  0  0  0  0  0
   12.3571   -1.9212   22.8366 C   0  0  0  0  0  0  0  0  0  0  0  0
   11.6089   -1.1758   21.8383 N   0  0  0  0  0  0  0  0  0  0  0  0
   11.1738    0.0782   22.0362 C   0  0  0  0  0  0  0  0  0  0  0  0
   12.0711    0.9891   22.4621 N   0  0  0  0  0  0  0  0  0  0  0  0
   11.6343    2.2375   22.6593 C   0  0  0  0  0  0  0  0  0  0  0  0
   10.3123    2.6023   22.4402 C   0  0  0  0  0  0  0  0  0  0  0  0
    9.4053    1.7062   22.0157 N   0  0  0  0  0  0  0  0  0  0  0  0
    9.8297    0.4524   21.8132 C   0  0  0  0  0  0  0  0  0  0  0  0
    8.7719   -0.5160   21.3408 C   0  0  0  0  0  0  0  0  0  0  0  0
    7.5091    0.1806   20.8756 C   0  0  0  0  0  0  0  0  0  0  0  0
    6.5857    0.6673   21.7916 C   0  0  0  0  0  0  0  0  0  0  0  0
    5.4275    1.3026   21.3727 C   0  0  0  0  0  0  0  0  0  0  0  0
    5.1781    1.4594   20.0134 C   0  0  0  0  0  0  0  0  0  0  0  0
    4.0216    2.0988   19.3018 C   0  0  0  0  0  0  0  0  0  0  0  0
    4.4054    1.9258   17.9176 N   0  0  0  0  0  0  0  0  0  0  0  0
    5.5748    1.2846   17.7382 C   0  0  0  0  0  0  0  0  0  0  0  0
    6.0864    1.0397   16.6504 O   0  0  0  0  0  0  0  0  0  0  0  0
    6.0899    0.9792   19.0908 C   0  0  0  0  0  0  0  0  0  0  0  0
    7.2531    0.3410   19.5174 C   0  0  0  0  0  0  0  0  0  0  0  0
    9.8434    3.9572   22.6556 C   0  0  0  0  0  0  0  0  0  0  0  0
    9.4949    5.0360   22.7957 N   0  0  0  0  0  0  0  0  0  0  0  0
  1  2  1  0
  2  3  1  0
  3  4  1  0
  4  5  2  0
  5  6  1  0
  6  7  2  0
  7  8  1  0
  8  9  2  0
  9 10  1  0
 10 11  1  0
 11 12  2  0
 12 13  1  0
 13 14  2  0
 14 15  1  0
 15 16  1  0
 16 17  1  0
 17 18  2  0
 17 19  1  0
 19 20  2  0
  7 21  1  0
 21 22  3  0
  9  4  1  0
 20 11  1  0
 19 14  1  0
M  END
