CVD-0001747|dock_bobby27042020.37|mol2|17|dock3
     RDKit          3D

 29 31  0  0  0  0  0  0  0  0999 V2000
    6.8983   -6.8094   22.2880 C   0  0  0  0  0  0  0  0  0  0  0  0
    6.3883   -5.7274   21.3884 C   0  0  0  0  0  0  0  0  0  0  0  0
    7.0445   -4.4588   21.6573 N   0  0  0  0  0  0  0  0  0  0  0  0
    6.7085   -3.6686   22.6898 C   0  0  0  0  0  0  0  0  0  0  0  0
    5.7663   -4.1581   23.5214 N   0  0  0  0  0  0  0  0  0  0  0  0
    5.3002   -3.3779   24.5018 C   0  0  0  0  0  0  0  0  0  0  0  0
    5.7557   -2.0887   24.7408 C   0  0  0  0  0  0  0  0  0  0  0  0
    6.7689   -1.5944   23.9289 C   0  0  0  0  0  0  0  0  0  0  0  0
    7.2817   -2.3899   22.9087 C   0  0  0  0  0  0  0  0  0  0  0  0
    8.3744   -1.8578   22.1296 N   0  0  0  0  0  0  0  0  0  0  0  0
    9.7364   -2.1945   22.5788 C   0  0  0  0  0  0  0  0  0  0  0  0
   10.2463   -1.2027   23.6131 C   0  0  0  0  0  0  0  0  0  0  0  0
   11.7613   -1.2086   23.8103 C   0  0  0  0  0  0  0  0  0  0  0  0
   12.3019   -2.6481   23.9321 C   0  0  0  0  0  0  0  0  0  0  0  0
   13.8047   -2.6855   24.2026 C   0  0  0  0  0  0  0  0  0  0  0  0
   14.1694   -1.8511   25.4236 C   0  0  0  0  0  0  0  0  0  0  0  0
   13.6616   -0.4231   25.2847 C   0  0  0  0  0  0  0  0  0  0  0  0
   12.1542   -0.3935   25.0542 C   0  0  0  0  0  0  0  0  0  0  0  0
    8.1987   -1.0641   20.9907 C   0  0  0  0  0  0  0  0  0  0  0  0
    9.2043   -0.6920   20.4013 O   0  0  0  0  0  0  0  0  0  0  0  0
    6.9285   -0.7245   20.5812 N   0  0  0  0  0  0  0  0  0  0  0  0
    6.4993    0.0647   19.4817 C   0  0  0  0  0  0  0  0  0  0  0  0
    5.2986    0.7526   19.6062 C   0  0  0  0  0  0  0  0  0  0  0  0
    4.8392    1.5351   18.5618 C   0  0  0  0  0  0  0  0  0  0  0  0
    5.5940    1.6107   17.4152 C   0  0  0  0  0  0  0  0  0  0  0  0
    6.7493    0.9647   17.2613 N   0  0  0  0  0  0  0  0  0  0  0  0
    7.1848    0.2108   18.2757 C   0  0  0  0  0  0  0  0  0  0  0  0
    5.1993   -1.2834   25.7999 C   0  0  0  0  0  0  0  0  0  0  0  0
    4.7530   -0.6733   26.6563 N   0  0  0  0  0  0  0  0  0  0  0  0
  1  2  1  0
  2  3  1  0
  3  4  1  0
  4  5  2  0
  5  6  1  0
  6  7  2  0
  7  8  1  0
  8  9  2  0
  9 10  1  0
 10 11  1  0
 11 12  1  0
 12 13  1  0
 13 14  1  0
 14 15  1  0
 15 16  1  0
 16 17  1  0
 17 18  1  0
 10 19  1  0
 19 20  2  0
 19 21  1  0
 21 22  1  0
 22 23  2  0
 23 24  1  0
 24 25  2  0
 25 26  1  0
 26 27  2  0
  7 28  1  0
 28 29  3  0
  9  4  1  0
 18 13  1  0
 27 22  1  0
M  END
