CVD-0000678|dock_bobby27042020.97|mol2|43|dock3
     RDKit          3D

 25 27  0  0  0  0  0  0  0  0999 V2000
    6.8373    0.5807   18.6467 C   0  0  0  0  0  0  0  0  0  0  0  0
    6.8860   -1.1348   18.9950 S   0  0  0  0  0  0  0  0  0  0  0  0
    5.6805   -1.4826   19.6817 O   0  0  0  0  0  0  0  0  0  0  0  0
    7.2051   -1.8247   17.7834 O   0  0  0  0  0  0  0  0  0  0  0  0
    8.0973   -1.3906   20.0138 N   0  0  0  0  0  0  0  0  0  0  0  0
    7.8749   -1.2733   21.4588 C   0  0  0  0  0  0  0  0  0  0  0  0
    9.1764   -1.1548   22.2634 C   0  0  0  0  0  0  0  0  0  0  0  0
    9.7737    0.2272   21.9988 C   0  0  0  0  0  0  0  0  0  0  0  0
    9.2604    0.8803   21.1117 O   0  0  0  0  0  0  0  0  0  0  0  0
   10.8475    0.6712   22.7319 N   0  0  0  0  0  0  0  0  0  0  0  0
   11.5632   -0.3340   23.5525 C   0  0  0  0  0  0  0  0  0  0  0  0
   13.0011    0.0792   23.8582 C   0  0  0  0  0  0  0  0  0  0  0  0
   13.5991    0.9462   22.7476 C   0  0  0  0  0  0  0  0  0  0  0  0
   12.7448    2.1722   22.6149 C   0  0  0  0  0  0  0  0  0  0  0  0
   13.2610    3.4618   22.5755 C   0  0  0  0  0  0  0  0  0  0  0  0
   12.3884    4.5261   22.6074 C   0  0  0  0  0  0  0  0  0  0  0  0
   11.0674    4.3849   22.6744 N   0  0  0  0  0  0  0  0  0  0  0  0
   10.5619    3.1447   22.7125 C   0  0  0  0  0  0  0  0  0  0  0  0
   11.3527    1.9984   22.6855 C   0  0  0  0  0  0  0  0  0  0  0  0
    8.8914   -1.3248   23.7479 C   0  0  0  0  0  0  0  0  0  0  0  0
    8.3175   -0.2968   24.4827 C   0  0  0  0  0  0  0  0  0  0  0  0
    8.0556   -0.4531   25.8336 C   0  0  0  0  0  0  0  0  0  0  0  0
    8.3635   -1.6385   26.4660 C   0  0  0  0  0  0  0  0  0  0  0  0
    8.9328   -2.6685   25.7483 C   0  0  0  0  0  0  0  0  0  0  0  0
    9.1951   -2.5133   24.3973 C   0  0  0  0  0  0  0  0  0  0  0  0
  1  2  1  0
  2  3  2  0
  2  4  2  0
  2  5  1  0
  5  6  1  0
  7  6  1  0
  7  8  1  0
  8  9  2  0
  8 10  1  0
 10 11  1  0
 11 12  1  0
 12 13  1  0
 13 14  1  0
 14 15  2  0
 15 16  1  0
 16 17  2  0
 17 18  1  0
 18 19  2  0
  7 20  1  0
 20 21  2  0
 21 22  1  0
 22 23  2  0
 23 24  1  0
 24 25  2  0
 19 10  1  0
 25 20  1  0
 19 14  1  0
M  END
