CVD-0001005|dock_bobby27042020.82|mol2|26|dock2
     RDKit          3D

 37 41  0  0  0  0  0  0  0  0999 V2000
    6.8463  -13.2433   33.7975 C   0  0  0  0  0  0  0  0  0  0  0  0
    7.9230  -12.8360   32.9555 O   0  0  0  0  0  0  0  0  0  0  0  0
    7.8235  -11.6880   32.2094 C   0  0  0  0  0  0  0  0  0  0  0  0
    7.0638  -10.6071   32.6260 C   0  0  0  0  0  0  0  0  0  0  0  0
    6.9961   -9.4728   31.8375 C   0  0  0  0  0  0  0  0  0  0  0  0
    7.6744   -9.3745   30.6195 C   0  0  0  0  0  0  0  0  0  0  0  0
    7.5298   -8.1138   29.8593 C   0  0  0  0  0  0  0  0  0  0  0  0
    6.7767   -7.0905   30.1453 N   0  0  0  0  0  0  0  0  0  0  0  0
    7.0100   -6.1824   29.1184 C   0  0  0  0  0  0  0  0  0  0  0  0
    6.5064   -4.9102   28.8593 C   0  0  0  0  0  0  0  0  0  0  0  0
    6.9333   -4.2276   27.7299 C   0  0  0  0  0  0  0  0  0  0  0  0
    7.8589   -4.7928   26.8483 C   0  0  0  0  0  0  0  0  0  0  0  0
    8.3245   -4.1342   25.6826 N   0  0  0  0  0  0  0  0  0  0  0  0
    8.5172   -2.8191   25.4120 C   0  0  0  0  0  0  0  0  0  0  0  0
    8.3069   -1.8907   26.1869 O   0  0  0  0  0  0  0  0  0  0  0  0
    9.0382   -2.5473   24.0161 C   0  0  0  0  0  0  0  0  0  0  0  0
    9.7475   -1.2324   23.9295 C   0  0  0  0  0  0  0  0  0  0  0  0
   10.2076   -0.8970   22.5201 C   0  0  0  0  0  0  0  0  0  0  0  0
    9.0944   -1.0031   21.5901 N   0  0  0  0  0  0  0  0  0  0  0  0
    8.4163   -2.2938   21.5940 C   0  0  0  0  0  0  0  0  0  0  0  0
    7.9071   -2.5940   23.0010 C   0  0  0  0  0  0  0  0  0  0  0  0
    8.8103    0.1264   20.4495 S   0  0  0  0  0  0  0  0  0  0  0  0
    9.5531    1.2864   20.8338 O   0  0  0  0  0  0  0  0  0  0  0  0
    9.0655   -0.4976   19.1885 O   0  0  0  0  0  0  0  0  0  0  0  0
    7.0982    0.5247   20.5251 C   0  0  0  0  0  0  0  0  0  0  0  0
    6.2767    0.2409   19.4468 C   0  0  0  0  0  0  0  0  0  0  0  0
    4.9312    0.5547   19.5198 C   0  0  0  0  0  0  0  0  0  0  0  0
    4.3863    1.1465   20.6484 C   0  0  0  0  0  0  0  0  0  0  0  0
    2.9161    1.4810   20.7163 C   0  0  0  0  0  0  0  0  0  0  0  0
    5.2288    1.4171   21.7152 C   0  0  0  0  0  0  0  0  0  0  0  0
    6.5776    1.1127   21.6659 C   0  0  0  0  0  0  0  0  0  0  0  0
    8.3588   -6.0655   27.1128 C   0  0  0  0  0  0  0  0  0  0  0  0
    7.9169   -6.7226   28.2438 C   0  0  0  0  0  0  0  0  0  0  0  0
    8.2665   -7.9746   28.7061 O   0  0  0  0  0  0  0  0  0  0  0  0
    8.4312  -10.4806   30.2278 C   0  0  0  0  0  0  0  0  0  0  0  0
    9.4191  -10.5331   28.6095 Br  0  0  0  0  0  0  0  0  0  0  0  0
    8.5066  -11.6204   31.0077 C   0  0  0  0  0  0  0  0  0  0  0  0
  1  2  1  0
  2  3  1  0
  3  4  2  0
  4  5  1  0
  5  6  2  0
  6  7  1  0
  7  8  2  0
  8  9  1  0
  9 10  2  0
 10 11  1  0
 11 12  2  0
 12 13  1  0
 13 14  1  0
 14 15  2  0
 14 16  1  0
 16 17  1  0
 17 18  1  0
 18 19  1  0
 19 20  1  0
 20 21  1  0
 19 22  1  0
 22 23  2  0
 22 24  2  0
 22 25  1  0
 25 26  2  0
 26 27  1  0
 27 28  2  0
 28 29  1  0
 28 30  1  0
 30 31  2  0
 12 32  1  0
 32 33  2  0
 33 34  1  0
  6 35  1  0
 35 36  1  0
 35 37  2  0
 37  3  1  0
 34  7  1  0
 33  9  1  0
 21 16  1  0
 31 25  1  0
M  END
