CVD-0000212|dock_bobby27042020.13|mol2|38|dock3
     RDKit          3D

 21 23  0  0  0  0  0  0  0  0999 V2000
    6.2393    0.7416   18.4039 Cl  0  0  0  0  0  0  0  0  0  0  0  0
    7.6750   -0.2284   18.7575 C   0  0  0  0  0  0  0  0  0  0  0  0
    8.0475   -0.1525   20.2217 C   0  0  0  0  0  0  0  0  0  0  0  0
    7.3269    0.4454   21.0129 O   0  0  0  0  0  0  0  0  0  0  0  0
    9.2061   -0.8192   20.5218 N   0  0  0  0  0  0  0  0  0  0  0  0
    9.8876   -1.0189   21.7240 C   0  0  0  0  0  0  0  0  0  0  0  0
   11.1437   -0.7415   21.7885 N   0  0  0  0  0  0  0  0  0  0  0  0
   11.9324   -1.0002   22.9236 C   0  0  0  0  0  0  0  0  0  0  0  0
   13.1586   -1.6279   22.6991 C   0  0  0  0  0  0  0  0  0  0  0  0
   14.0525   -1.7873   23.7446 C   0  0  0  0  0  0  0  0  0  0  0  0
   13.7448   -1.3319   25.0093 C   0  0  0  0  0  0  0  0  0  0  0  0
   12.5344   -0.7068   25.2534 C   0  0  0  0  0  0  0  0  0  0  0  0
   11.6235   -0.5381   24.2136 C   0  0  0  0  0  0  0  0  0  0  0  0
   10.0674    0.2496   24.5422 S   0  0  0  0  0  0  0  0  0  0  0  0
    9.0478   -1.1370   24.1087 C   0  0  0  0  0  0  0  0  0  0  0  0
    8.2592   -1.7448   25.0841 C   0  0  0  0  0  0  0  0  0  0  0  0
    7.4891   -2.8504   24.7727 C   0  0  0  0  0  0  0  0  0  0  0  0
    7.5105   -3.3432   23.4878 C   0  0  0  0  0  0  0  0  0  0  0  0
    6.5438   -4.7363   23.0914 Cl  0  0  0  0  0  0  0  0  0  0  0  0
    8.2829   -2.7583   22.5053 C   0  0  0  0  0  0  0  0  0  0  0  0
    9.0660   -1.6422   22.8018 C   0  0  0  0  0  0  0  0  0  0  0  0
  1  2  1  0
  2  3  1  0
  3  4  2  0
  3  5  1  0
  5  6  1  0
  6  7  2  0
  7  8  1  0
  8  9  2  0
  9 10  1  0
 10 11  2  0
 11 12  1  0
 12 13  2  0
 13 14  1  0
 14 15  1  0
 15 16  2  0
 16 17  1  0
 17 18  2  0
 18 19  1  0
 18 20  1  0
 20 21  2  0
 21  6  1  0
 13  8  1  0
 21 15  1  0
M  END
