CVD-0001065|dock_bobby27042020.96|mol2|30|dock1
     RDKit          3D

 21 23  0  0  0  0  0  0  0  0999 V2000
    1.6982    3.0192   19.8809 O   0  0  0  0  0  0  0  0  0  0  0  0
    2.8718    2.3826   19.6001 C   0  0  0  0  0  0  0  0  0  0  0  0
    3.5407    2.6437   18.4165 C   0  0  0  0  0  0  0  0  0  0  0  0
    4.7260    1.9887   18.1339 C   0  0  0  0  0  0  0  0  0  0  0  0
    5.2714    1.0604   19.0152 C   0  0  0  0  0  0  0  0  0  0  0  0
    4.5927    0.8264   20.2092 C   0  0  0  0  0  0  0  0  0  0  0  0
    3.4028    1.4713   20.4973 C   0  0  0  0  0  0  0  0  0  0  0  0
    6.5541    0.3867   18.6310 C   0  0  0  0  0  0  0  0  0  0  0  0
    6.6281   -0.0536   17.4785 O   0  0  0  0  0  0  0  0  0  0  0  0
    7.7234    0.2158   19.5185 C   0  0  0  0  0  0  0  0  0  0  0  0
    7.9830    0.9501   20.5989 C   0  0  0  0  0  0  0  0  0  0  0  0
    9.1361    0.7978   21.4908 C   0  0  0  0  0  0  0  0  0  0  0  0
    9.3947    1.7020   22.5181 C   0  0  0  0  0  0  0  0  0  0  0  0
   10.4157    1.6009   23.3369 N   0  0  0  0  0  0  0  0  0  0  0  0
   11.2499    0.5340   23.1388 C   0  0  0  0  0  0  0  0  0  0  0  0
   12.3746    0.3474   23.9748 C   0  0  0  0  0  0  0  0  0  0  0  0
   13.2032   -0.7174   23.7734 C   0  0  0  0  0  0  0  0  0  0  0  0
   12.9630   -1.6245   22.7605 C   0  0  0  0  0  0  0  0  0  0  0  0
   11.8899   -1.4836   21.9301 C   0  0  0  0  0  0  0  0  0  0  0  0
   11.0035   -0.3955   22.1005 C   0  0  0  0  0  0  0  0  0  0  0  0
    9.9244   -0.2470   21.2714 N   0  0  0  0  0  0  0  0  0  0  0  0
  1  2  1  0
  2  3  2  0
  3  4  1  0
  4  5  2  0
  5  6  1  0
  6  7  2  0
  5  8  1  0
  8  9  2  0
  8 10  1  0
 10 11  2  0
 11 12  1  0
 12 13  2  0
 13 14  1  0
 14 15  2  0
 15 16  1  0
 16 17  2  0
 17 18  1  0
 18 19  2  0
 19 20  1  0
 20 21  2  0
  7  2  1  0
 21 12  1  0
 20 15  1  0
M  END
