CVD-0001141|dock_bobby27042020.68|mol2|5|dock1
     RDKit          3D

 20 21  0  0  0  0  0  0  0  0999 V2000
   12.5284    0.2898   23.3042 C   0  0  0  0  0  0  0  0  0  0  0  0
   12.5754   -1.2227   23.1745 C   0  0  0  0  0  0  0  0  0  0  0  0
   13.8457   -1.6429   22.4560 C   0  0  0  0  0  0  0  0  0  0  0  0
   11.3526   -1.7294   22.4300 C   0  0  0  0  0  0  0  0  0  0  0  0
   10.0107   -1.3994   23.0821 C   0  0  0  0  0  0  0  0  0  0  0  0
    8.8590   -2.2083   22.5196 C   0  0  0  0  0  0  0  0  0  0  0  0
    8.6208   -3.4825   23.0342 C   0  0  0  0  0  0  0  0  0  0  0  0
    7.5632   -4.2549   22.5867 C   0  0  0  0  0  0  0  0  0  0  0  0
    6.7260   -3.7676   21.6092 C   0  0  0  0  0  0  0  0  0  0  0  0
    6.9560   -2.5128   21.0741 C   0  0  0  0  0  0  0  0  0  0  0  0
    8.0194   -1.7219   21.5046 C   0  0  0  0  0  0  0  0  0  0  0  0
    8.2219   -0.3689   20.8541 C   0  0  0  0  0  0  0  0  0  0  0  0
    7.4659   -0.1736   19.5548 C   0  0  0  0  0  0  0  0  0  0  0  0
    7.9313   -0.5563   18.4968 O   0  0  0  0  0  0  0  0  0  0  0  0
    6.1405    0.5118   19.5809 C   0  0  0  0  0  0  0  0  0  0  0  0
    5.3175    0.4683   20.7024 C   0  0  0  0  0  0  0  0  0  0  0  0
    4.0885    1.1069   20.6972 C   0  0  0  0  0  0  0  0  0  0  0  0
    3.6683    1.7987   19.5817 C   0  0  0  0  0  0  0  0  0  0  0  0
    4.4762    1.8549   18.4668 C   0  0  0  0  0  0  0  0  0  0  0  0
    5.7051    1.2166   18.4639 C   0  0  0  0  0  0  0  0  0  0  0  0
  1  2  1  0
  2  3  1  0
  2  4  1  0
  4  5  1  0
  5  6  1  0
  6  7  2  0
  7  8  1  0
  8  9  2  0
  9 10  1  0
 10 11  2  0
 11 12  1  0
 12 13  1  0
 13 14  2  0
 13 15  1  0
 15 16  2  0
 16 17  1  0
 17 18  2  0
 18 19  1  0
 19 20  2  0
 11  6  1  0
 20 15  1  0
M  END
