CVD-0000806|dock_bobby27042020.26|mol2|12|dock3
     RDKit          3D

 22 24  0  0  0  0  0  0  0  0999 V2000
    4.3859   -6.2214   22.3473 C   0  0  0  0  0  0  0  0  0  0  0  0
    5.6584   -6.3212   21.5470 C   0  0  0  0  0  0  0  0  0  0  0  0
    6.6666   -5.2370   21.8752 C   0  0  0  0  0  0  0  0  0  0  0  0
    7.6462   -5.4523   22.8329 C   0  0  0  0  0  0  0  0  0  0  0  0
    8.5839   -4.4719   23.1555 C   0  0  0  0  0  0  0  0  0  0  0  0
    9.5428   -4.7262   24.1736 N   0  0  0  0  0  0  0  0  0  0  0  0
    9.9260   -3.6458   25.0838 C   0  0  0  0  0  0  0  0  0  0  0  0
    8.8294   -3.2913   26.0942 C   0  0  0  0  0  0  0  0  0  0  0  0
    7.9377   -4.4720   26.4741 C   0  0  0  0  0  0  0  0  0  0  0  0
    8.6710   -5.7669   26.8398 C   0  0  0  0  0  0  0  0  0  0  0  0
    8.9581   -6.6574   25.6445 C   0  0  0  0  0  0  0  0  0  0  0  0
    9.9035   -6.0823   24.5944 C   0  0  0  0  0  0  0  0  0  0  0  0
    8.5438   -3.2544   22.4524 C   0  0  0  0  0  0  0  0  0  0  0  0
    9.6175   -1.8963   22.5611 S   0  0  0  0  0  0  0  0  0  0  0  0
    8.6980   -1.0153   21.4094 C   0  0  0  0  0  0  0  0  0  0  0  0
    7.6350   -1.6937   20.9154 C   0  0  0  0  0  0  0  0  0  0  0  0
    6.6432   -1.1946   19.8910 C   0  0  0  0  0  0  0  0  0  0  0  0
    7.0449   -0.0673   19.0374 N   0  0  0  0  0  0  0  0  0  0  0  0
    5.9472    0.5146   18.2703 C   0  0  0  0  0  0  0  0  0  0  0  0
    8.2312   -0.3311   18.2283 C   0  0  0  0  0  0  0  0  0  0  0  0
    7.5434   -3.0066   21.4961 C   0  0  0  0  0  0  0  0  0  0  0  0
    6.6194   -4.0133   21.2287 C   0  0  0  0  0  0  0  0  0  0  0  0
  1  2  1  0
  2  3  1  0
  3  4  2  0
  4  5  1  0
  5  6  1  0
  6  7  1  0
  7  8  1  0
  8  9  1  0
  9 10  1  0
 10 11  1  0
 11 12  1  0
  5 13  2  0
 13 14  1  0
 14 15  1  0
 15 16  2  0
 16 17  1  0
 17 18  1  0
 18 19  1  0
 18 20  1  0
 16 21  1  0
 21 22  2  0
 22  3  1  0
 12  6  1  0
 21 13  1  0
M  END
