CVD-0003322|dock_bobby27042020.2|mol2|25|dock3
     RDKit          3D

 23 24  0  0  0  0  0  0  0  0999 V2000
    5.4392    1.0529   17.5146 Cl  0  0  0  0  0  0  0  0  0  0  0  0
    6.1454    0.0698   18.7665 C   0  0  0  0  0  0  0  0  0  0  0  0
    5.6491   -1.1942   18.9884 C   0  0  0  0  0  0  0  0  0  0  0  0
    6.2217   -1.9663   19.9831 C   0  0  0  0  0  0  0  0  0  0  0  0
    7.2728   -1.4772   20.7412 C   0  0  0  0  0  0  0  0  0  0  0  0
    7.7645   -0.1918   20.5160 C   0  0  0  0  0  0  0  0  0  0  0  0
    8.8289    0.3994   21.2464 N   0  0  0  0  0  0  0  0  0  0  0  0
    9.7072   -0.1527   22.1486 C   0  0  0  0  0  0  0  0  0  0  0  0
    9.6718   -1.3355   22.4613 O   0  0  0  0  0  0  0  0  0  0  0  0
   10.6797    0.6441   22.7628 N   0  0  0  0  0  0  0  0  0  0  0  0
   11.7258   -0.0485   23.4967 C   0  0  0  0  0  0  0  0  0  0  0  0
   12.8416   -0.9734   22.4257 S   0  0  0  0  0  0  0  0  0  0  0  0
   12.0384   -1.7589   21.5297 O   0  0  0  0  0  0  0  0  0  0  0  0
   13.7667   -0.0293   21.8613 O   0  0  0  0  0  0  0  0  0  0  0  0
   13.7148   -2.0506   23.4894 C   0  0  0  0  0  0  0  0  0  0  0  0
   14.4717   -1.5878   24.4443 C   0  0  0  0  0  0  0  0  0  0  0  0
   10.7697    2.0799   22.6865 C   0  0  0  0  0  0  0  0  0  0  0  0
   11.9284    2.7367   22.3067 C   0  0  0  0  0  0  0  0  0  0  0  0
   12.0194    4.0678   22.2479 N   0  0  0  0  0  0  0  0  0  0  0  0
   10.9212    4.7354   22.5841 C   0  0  0  0  0  0  0  0  0  0  0  0
    9.7564    4.2237   22.9664 N   0  0  0  0  0  0  0  0  0  0  0  0
    9.6951    2.8905   23.0116 C   0  0  0  0  0  0  0  0  0  0  0  0
    7.1890    0.5796   19.5108 C   0  0  0  0  0  0  0  0  0  0  0  0
  1  2  1  0
  2  3  2  0
  3  4  1  0
  4  5  2  0
  5  6  1  0
  6  7  1  0
  7  8  1  0
  8  9  2  0
  8 10  1  0
 10 11  1  0
 11 12  1  0
 12 13  2  0
 12 14  2  0
 12 15  1  0
 15 16  2  0
 10 17  1  0
 17 18  2  0
 18 19  1  0
 19 20  2  0
 20 21  1  0
 21 22  2  0
  6 23  2  0
 23  2  1  0
 22 17  1  0
M  END
