CVD-0003707|dock_bobby27042020.15|mol2|41|dock3
     RDKit          3D

 38 43  0  0  0  0  0  0  0  0999 V2000
    3.8728    1.9979   20.8975 C   0  0  0  0  0  0  0  0  0  0  0  0
    4.8230    1.7452   21.9651 N   0  0  0  0  0  0  0  0  0  0  0  0
    5.9166    2.5079   22.1276 C   0  0  0  0  0  0  0  0  0  0  0  0
    6.1706    3.4541   21.3869 O   0  0  0  0  0  0  0  0  0  0  0  0
    6.7710    2.1877   23.1818 N   0  0  0  0  0  0  0  0  0  0  0  0
    7.9302    2.8907   23.4608 C   0  0  0  0  0  0  0  0  0  0  0  0
    7.9745    4.1652   24.6383 S   0  0  0  0  0  0  0  0  0  0  0  0
    9.6634    4.4162   24.3205 C   0  0  0  0  0  0  0  0  0  0  0  0
   10.4824    5.3548   24.9436 C   0  0  0  0  0  0  0  0  0  0  0  0
   11.8095    5.4610   24.5695 C   0  0  0  0  0  0  0  0  0  0  0  0
   12.3136    4.6421   23.5839 C   0  0  0  0  0  0  0  0  0  0  0  0
   11.5056    3.7008   22.9675 C   0  0  0  0  0  0  0  0  0  0  0  0
   10.1632    3.5503   23.3246 C   0  0  0  0  0  0  0  0  0  0  0  0
    9.1374    2.6288   22.8279 C   0  0  0  0  0  0  0  0  0  0  0  0
    9.2753    1.5564   21.7829 C   0  0  0  0  0  0  0  0  0  0  0  0
    8.9271    1.8464   20.6440 O   0  0  0  0  0  0  0  0  0  0  0  0
    9.7532    0.3278   22.0709 N   0  0  0  0  0  0  0  0  0  0  0  0
    9.9031   -0.7721   21.1217 C   0  0  0  0  0  0  0  0  0  0  0  0
    9.3656   -2.0533   21.7254 C   0  0  0  0  0  0  0  0  0  0  0  0
   10.0789   -2.3689   23.0342 C   0  0  0  0  0  0  0  0  0  0  0  0
    9.9515   -1.1804   23.9844 C   0  0  0  0  0  0  0  0  0  0  0  0
   10.4657    0.0935   23.3222 C   0  0  0  0  0  0  0  0  0  0  0  0
    9.5340   -3.5983   23.6497 N   0  0  0  0  0  0  0  0  0  0  0  0
   10.5077   -4.2679   24.4980 C   0  0  0  0  0  0  0  0  0  0  0  0
    9.9764   -5.6646   24.9597 C   0  0  0  0  0  0  0  0  0  0  0  0
    8.5803   -5.5591   25.5981 C   0  0  0  0  0  0  0  0  0  0  0  0
    7.6431   -4.7746   24.6743 C   0  0  0  0  0  0  0  0  0  0  0  0
    8.2596   -3.4178   24.3407 C   0  0  0  0  0  0  0  0  0  0  0  0
    6.2689   -4.5857   25.2925 C   0  0  0  0  0  0  0  0  0  0  0  0
    6.0306   -4.0189   26.3459 O   0  0  0  0  0  0  0  0  0  0  0  0
    5.3677   -5.1499   24.4730 N   0  0  0  0  0  0  0  0  0  0  0  0
    3.9825   -5.4737   24.8478 C   0  0  0  0  0  0  0  0  0  0  0  0
    3.1869   -5.8793   23.6357 C   0  0  0  0  0  0  0  0  0  0  0  0
    3.9278   -6.9252   22.8219 C   0  0  0  0  0  0  0  0  0  0  0  0
    5.2247   -6.3498   22.3050 C   0  0  0  0  0  0  0  0  0  0  0  0
    5.9978   -5.7994   23.4128 N   0  0  0  0  0  0  0  0  0  0  0  0
    7.3208   -5.5600   23.4156 C   0  0  0  0  0  0  0  0  0  0  0  0
    8.1233   -5.9450   22.5836 O   0  0  0  0  0  0  0  0  0  0  0  0
  1  2  1  0
  2  3  1  0
  3  4  2  0
  3  5  1  0
  5  6  1  0
  6  7  1  0
  7  8  1  0
  8  9  2  0
  9 10  1  0
 10 11  2  0
 11 12  1  0
 12 13  2  0
 13 14  1  0
 14 15  1  0
 15 16  2  0
 15 17  1  0
 17 18  1  0
 18 19  1  0
 19 20  1  0
 20 21  1  0
 21 22  1  0
 20 23  1  0
 23 24  1  0
 24 25  1  0
 25 26  1  0
 26 27  1  0
 27 28  1  0
 27 29  1  0
 29 30  2  0
 29 31  1  0
 31 32  1  0
 32 33  1  0
 33 34  1  0
 34 35  1  0
 35 36  1  0
 36 37  1  0
 37 38  2  0
 14  6  2  0
 22 17  1  0
 28 23  1  0
 36 31  1  0
 13  8  1  0
 37 27  1  0
M  END
