CVD-0003060|dock_bobby27042020.3|mol2|22|dock3
     RDKit          3D

 37 40  0  0  0  0  0  0  0  0999 V2000
    5.4995   -6.2688   26.2423 C   0  0  0  0  0  0  0  0  0  0  0  0
    6.5648   -5.3364   25.7452 C   0  0  0  0  0  0  0  0  0  0  0  0
    7.6025   -5.1634   26.3746 O   0  0  0  0  0  0  0  0  0  0  0  0
    6.3371   -4.6788   24.5816 N   0  0  0  0  0  0  0  0  0  0  0  0
    7.3269   -3.7520   24.0574 C   0  0  0  0  0  0  0  0  0  0  0  0
    7.6558   -4.0804   22.6351 C   0  0  0  0  0  0  0  0  0  0  0  0
    6.4155   -4.0903   21.8465 N   0  0  0  0  0  0  0  0  0  0  0  0
    5.4604   -5.0914   22.3442 C   0  0  0  0  0  0  0  0  0  0  0  0
    5.1195   -4.7756   23.7704 C   0  0  0  0  0  0  0  0  0  0  0  0
    6.5554   -3.8915   20.2448 S   0  0  0  0  0  0  0  0  0  0  0  0
    5.6661   -4.8218   19.6233 O   0  0  0  0  0  0  0  0  0  0  0  0
    7.9496   -3.9342   19.9330 O   0  0  0  0  0  0  0  0  0  0  0  0
    5.9790   -2.2742   19.8598 C   0  0  0  0  0  0  0  0  0  0  0  0
    5.5776   -1.4851   20.8836 C   0  0  0  0  0  0  0  0  0  0  0  0
    5.1457   -0.1798   20.6332 C   0  0  0  0  0  0  0  0  0  0  0  0
    5.8764    0.8446   21.5221 C   0  0  0  0  0  0  0  0  0  0  0  0
    7.2246    1.2338   20.9804 C   0  0  0  0  0  0  0  0  0  0  0  0
    7.8013    2.2868   21.8148 N   0  0  0  0  0  0  0  0  0  0  0  0
    6.9007    3.4197   22.0187 C   0  0  0  0  0  0  0  0  0  0  0  0
    5.5672    2.9332   22.5027 C   0  0  0  0  0  0  0  0  0  0  0  0
    5.0108    1.9657   21.6284 O   0  0  0  0  0  0  0  0  0  0  0  0
    9.0492    2.2895   22.3746 C   0  0  0  0  0  0  0  0  0  0  0  0
    9.2895    3.0350   23.3166 O   0  0  0  0  0  0  0  0  0  0  0  0
   10.0191    1.4838   21.9047 N   0  0  0  0  0  0  0  0  0  0  0  0
   11.3341    1.4886   22.5287 C   0  0  0  0  0  0  0  0  0  0  0  0
   11.9312    2.8696   22.6519 C   0  0  0  0  0  0  0  0  0  0  0  0
   12.2781    3.5963   21.5235 C   0  0  0  0  0  0  0  0  0  0  0  0
   12.8288    4.8613   21.6287 C   0  0  0  0  0  0  0  0  0  0  0  0
   13.0452    5.4273   22.8804 C   0  0  0  0  0  0  0  0  0  0  0  0
   12.7008    4.7035   24.0171 C   0  0  0  0  0  0  0  0  0  0  0  0
   12.1510    3.4397   23.8963 C   0  0  0  0  0  0  0  0  0  0  0  0
   13.6184    6.7453   22.9982 C   0  0  0  0  0  0  0  0  0  0  0  0
   14.0594    7.7972   23.0616 N   0  0  0  0  0  0  0  0  0  0  0  0
    5.2217    0.3559   19.3525 C   0  0  0  0  0  0  0  0  0  0  0  0
    4.7420    2.0222   19.2196 Cl  0  0  0  0  0  0  0  0  0  0  0  0
    5.6481   -0.4132   18.3147 C   0  0  0  0  0  0  0  0  0  0  0  0
    5.9834   -1.8826   18.4045 C   0  0  0  0  0  0  0  0  0  0  0  0
  1  2  1  0
  2  3  2  0
  2  4  1  0
  4  5  1  0
  5  6  1  0
  6  7  1  0
  7  8  1  0
  8  9  1  0
  7 10  1  0
 10 11  2  0
 10 12  2  0
 10 13  1  0
 13 14  2  0
 14 15  1  0
 16 15  1  0
 16 17  1  0
 17 18  1  0
 18 19  1  0
 19 20  1  0
 20 21  1  0
 18 22  1  0
 22 23  2  0
 22 24  1  0
 24 25  1  0
 25 26  1  0
 26 27  2  0
 27 28  1  0
 28 29  2  0
 29 30  1  0
 30 31  2  0
 29 32  1  0
 32 33  3  0
 15 34  1  0
 34 35  1  0
 34 36  2  0
 36 37  1  0
  9  4  1  0
 37 13  1  0
 21 16  1  0
 31 26  1  0
M  END
