CVD-0001054|dock_bobby27042020.53|mol2|49|dock2
     RDKit          3D

 27 30  0  0  0  0  0  0  0  0999 V2000
   10.3741   -5.5452   25.3589 O   0  0  0  0  0  0  0  0  0  0  0  0
    9.7173   -5.8215   24.3572 N   0  0  0  0  0  0  0  0  0  0  0  0
    9.4400   -6.9614   24.0243 O   0  0  0  0  0  0  0  0  0  0  0  0
    9.2391   -4.7163   23.5128 C   0  0  0  0  0  0  0  0  0  0  0  0
    8.1974   -4.9576   22.6309 C   0  0  0  0  0  0  0  0  0  0  0  0
    7.7297   -3.9286   21.8239 C   0  0  0  0  0  0  0  0  0  0  0  0
    6.6315   -4.2401   20.9147 N   0  0  0  0  0  0  0  0  0  0  0  0
    5.9952   -3.3353   20.3786 O   0  0  0  0  0  0  0  0  0  0  0  0
    6.3709   -5.4133   20.7086 O   0  0  0  0  0  0  0  0  0  0  0  0
    8.3271   -2.6253   21.9086 C   0  0  0  0  0  0  0  0  0  0  0  0
    7.8986   -1.5835   21.1334 N   0  0  0  0  0  0  0  0  0  0  0  0
    8.4679   -0.4212   21.2428 C   0  0  0  0  0  0  0  0  0  0  0  0
    7.7776    0.7596   20.1739 Cl  0  0  0  0  0  0  0  0  0  0  0  0
    9.5215   -0.1071   22.1095 C   0  0  0  0  0  0  0  0  0  0  0  0
    9.9659   -1.1391   22.8960 C   0  0  0  0  0  0  0  0  0  0  0  0
    9.3890   -2.4259   22.8244 C   0  0  0  0  0  0  0  0  0  0  0  0
    9.8344   -3.4986   23.6265 C   0  0  0  0  0  0  0  0  0  0  0  0
   10.2138    1.1866   22.2859 C   0  0  0  0  0  0  0  0  0  0  0  0
   11.1247    1.6645   21.4891 N   0  0  0  0  0  0  0  0  0  0  0  0
   11.4822    2.8879   22.0469 C   0  0  0  0  0  0  0  0  0  0  0  0
   12.4029    3.8568   21.6498 C   0  0  0  0  0  0  0  0  0  0  0  0
   12.5271    4.9868   22.4363 C   0  0  0  0  0  0  0  0  0  0  0  0
   13.7741    6.3226   21.9181 Br  0  0  0  0  0  0  0  0  0  0  0  0
   11.7815    5.1842   23.5833 C   0  0  0  0  0  0  0  0  0  0  0  0
   10.8699    4.2187   23.9713 C   0  0  0  0  0  0  0  0  0  0  0  0
   10.7405    3.0840   23.1877 C   0  0  0  0  0  0  0  0  0  0  0  0
    9.9138    1.9921   23.3577 O   0  0  0  0  0  0  0  0  0  0  0  0
  1  2  1  0
  2  3  2  0
  2  4  1  0
  4  5  2  0
  5  6  1  0
  6  7  1  0
  7  8  1  0
  7  9  2  0
  6 10  2  0
 10 11  1  0
 11 12  2  0
 12 13  1  0
 12 14  1  0
 14 15  2  0
 15 16  1  0
 16 17  2  0
 14 18  1  0
 18 19  2  0
 19 20  1  0
 20 21  2  0
 21 22  1  0
 22 23  1  0
 22 24  2  0
 24 25  1  0
 25 26  2  0
 26 27  1  0
 17  4  1  0
 27 18  1  0
 16 10  1  0
 26 20  1  0
M  CHG  4   1  -1   2   1   7   1   8  -1
M  END
