CVD-0000158|dock_bobby27042020.28|mol2|17|dock3
     RDKit          3D

 16 17  0  0  0  0  0  0  0  0999 V2000
   13.6317   -0.1487   22.6211 C   0  0  0  0  0  0  0  0  0  0  0  0
   13.5150   -1.6481   21.7240 S   0  0  0  0  0  0  0  0  0  0  0  0
   14.0383   -2.6975   22.5432 O   0  0  0  0  0  0  0  0  0  0  0  0
   14.0917   -1.4384   20.4319 O   0  0  0  0  0  0  0  0  0  0  0  0
   11.9586   -1.9599   21.4986 N   0  0  0  0  0  0  0  0  0  0  0  0
   11.0902   -2.1960   22.6582 C   0  0  0  0  0  0  0  0  0  0  0  0
   10.0792   -1.0734   22.8077 C   0  0  0  0  0  0  0  0  0  0  0  0
    8.9103   -1.2105   21.8624 C   0  0  0  0  0  0  0  0  0  0  0  0
    7.9789   -2.2257   22.0221 C   0  0  0  0  0  0  0  0  0  0  0  0
    6.9012   -2.3651   21.1635 C   0  0  0  0  0  0  0  0  0  0  0  0
    6.7243   -1.4757   20.1030 C   0  0  0  0  0  0  0  0  0  0  0  0
    5.7101   -1.4613   19.1484 N   0  0  0  0  0  0  0  0  0  0  0  0
    5.8833   -0.4837   18.3237 C   0  0  0  0  0  0  0  0  0  0  0  0
    7.2656    0.5315   18.5818 S   0  0  0  0  0  0  0  0  0  0  0  0
    7.6689   -0.4549   19.9499 C   0  0  0  0  0  0  0  0  0  0  0  0
    8.7489   -0.3170   20.8120 C   0  0  0  0  0  0  0  0  0  0  0  0
  1  2  1  0
  2  3  2  0
  2  4  2  0
  2  5  1  0
  5  6  1  0
  6  7  1  0
  7  8  1  0
  8  9  2  0
  9 10  1  0
 10 11  2  0
 11 12  1  0
 12 13  2  0
 13 14  1  0
 14 15  1  0
 15 16  2  0
 16  8  1  0
 15 11  1  0
M  END
