CVD-0001707|dock_bobby27042020.8|mol2|37|dock3
     RDKit          3D

 21 23  0  0  0  0  0  0  0  0999 V2000
    5.4932   -2.0883   18.4296 C   0  0  0  0  0  0  0  0  0  0  0  0
    5.2482   -0.8082   18.5422 C   0  0  0  0  0  0  0  0  0  0  0  0
    5.2911   -0.0299   19.8192 C   0  0  0  0  0  0  0  0  0  0  0  0
    4.2071    0.3544   20.2554 O   0  0  0  0  0  0  0  0  0  0  0  0
    6.4293    0.2676   20.5086 N   0  0  0  0  0  0  0  0  0  0  0  0
    7.7600   -0.1525   20.0638 C   0  0  0  0  0  0  0  0  0  0  0  0
    8.4734   -0.9099   21.1682 C   0  0  0  0  0  0  0  0  0  0  0  0
    8.5808   -0.0750   22.3684 N   0  0  0  0  0  0  0  0  0  0  0  0
    9.3063   -0.7894   23.4282 C   0  0  0  0  0  0  0  0  0  0  0  0
   10.8020   -0.8775   23.2087 C   0  0  0  0  0  0  0  0  0  0  0  0
   11.4298   -2.0955   23.2203 C   0  0  0  0  0  0  0  0  0  0  0  0
   12.7945   -2.2093   23.0158 C   0  0  0  0  0  0  0  0  0  0  0  0
   13.5601   -1.1039   22.7947 C   0  0  0  0  0  0  0  0  0  0  0  0
   12.9725    0.1837   22.7719 C   0  0  0  0  0  0  0  0  0  0  0  0
   13.7280    1.3592   22.5460 C   0  0  0  0  0  0  0  0  0  0  0  0
   13.1272    2.5827   22.5327 C   0  0  0  0  0  0  0  0  0  0  0  0
   11.7693    2.7030   22.7402 C   0  0  0  0  0  0  0  0  0  0  0  0
   10.9987    1.6008   22.9622 C   0  0  0  0  0  0  0  0  0  0  0  0
   11.5671    0.3006   22.9846 C   0  0  0  0  0  0  0  0  0  0  0  0
    7.2393    0.2850   22.8201 C   0  0  0  0  0  0  0  0  0  0  0  0
    6.4979    1.0559   21.7429 C   0  0  0  0  0  0  0  0  0  0  0  0
  1  2  2  0
  2  3  1  0
  3  4  2  0
  3  5  1  0
  5  6  1  0
  6  7  1  0
  7  8  1  0
  8  9  1  0
  9 10  1  0
 10 11  2  0
 11 12  1  0
 12 13  2  0
 13 14  1  0
 14 15  2  0
 15 16  1  0
 16 17  2  0
 17 18  1  0
 18 19  2  0
  8 20  1  0
 20 21  1  0
 21  5  1  0
 19 10  1  0
 19 14  1  0
M  END
