CVD-0000473|dock_bobby27042020.84|mol2|13|dock2
     RDKit          3D

 29 32  0  0  0  0  0  0  0  0999 V2000
    3.9761    1.4324   22.1659 C   0  0  0  0  0  0  0  0  0  0  0  0
    4.8408    0.6137   21.3812 O   0  0  0  0  0  0  0  0  0  0  0  0
    5.1209    0.9737   20.0916 C   0  0  0  0  0  0  0  0  0  0  0  0
    4.2706    1.6918   19.2670 C   0  0  0  0  0  0  0  0  0  0  0  0
    4.5701    2.0472   18.0164 N   0  0  0  0  0  0  0  0  0  0  0  0
    5.7630    1.6963   17.5368 C   0  0  0  0  0  0  0  0  0  0  0  0
    6.6853    0.9714   18.2764 C   0  0  0  0  0  0  0  0  0  0  0  0
    7.9450    0.5121   17.9932 N   0  0  0  0  0  0  0  0  0  0  0  0
    8.4294   -0.1710   19.0688 C   0  0  0  0  0  0  0  0  0  0  0  0
    7.5171   -0.1848   20.1033 C   0  0  0  0  0  0  0  0  0  0  0  0
    7.7249   -0.8416   21.3775 C   0  0  0  0  0  0  0  0  0  0  0  0
    6.8206   -0.9442   22.1991 O   0  0  0  0  0  0  0  0  0  0  0  0
    9.1080   -1.4201   21.7223 C   0  0  0  0  0  0  0  0  0  0  0  0
    9.3192   -2.5925   21.4329 O   0  0  0  0  0  0  0  0  0  0  0  0
   10.0783   -0.6912   22.3100 N   0  0  0  0  0  0  0  0  0  0  0  0
    9.9661    0.7114   22.7067 C   0  0  0  0  0  0  0  0  0  0  0  0
   11.1061    1.5153   22.1191 C   0  0  0  0  0  0  0  0  0  0  0  0
   12.3866    0.9147   22.4866 N   0  0  0  0  0  0  0  0  0  0  0  0
   12.4988   -0.4877   22.0899 C   0  0  0  0  0  0  0  0  0  0  0  0
   11.3587   -1.2917   22.6776 C   0  0  0  0  0  0  0  0  0  0  0  0
   13.3602    1.6461   23.0764 C   0  0  0  0  0  0  0  0  0  0  0  0
   14.3917    1.0860   23.4056 O   0  0  0  0  0  0  0  0  0  0  0  0
   13.2918    3.1224   23.3632 C   0  0  0  0  0  0  0  0  0  0  0  0
   14.2000    3.9430   22.7002 C   0  0  0  0  0  0  0  0  0  0  0  0
   14.1990    5.3148   22.8879 C   0  0  0  0  0  0  0  0  0  0  0  0
   13.2917    5.8964   23.7448 C   0  0  0  0  0  0  0  0  0  0  0  0
   12.3956    5.1022   24.4249 C   0  0  0  0  0  0  0  0  0  0  0  0
   12.4010    3.7281   24.2497 C   0  0  0  0  0  0  0  0  0  0  0  0
    6.3761    0.5720   19.5969 C   0  0  0  0  0  0  0  0  0  0  0  0
  1  2  1  0
  2  3  1  0
  3  4  2  0
  4  5  1  0
  5  6  2  0
  6  7  1  0
  7  8  1  0
  8  9  1  0
  9 10  2  0
 10 11  1  0
 11 12  2  0
 11 13  1  0
 13 14  2  0
 13 15  1  0
 15 16  1  0
 16 17  1  0
 17 18  1  0
 18 19  1  0
 19 20  1  0
 18 21  1  0
 21 22  2  0
 21 23  1  0
 23 24  2  0
 24 25  1  0
 25 26  2  0
 26 27  1  0
 27 28  2  0
 10 29  1  0
 29  3  1  0
 29  7  2  0
 20 15  1  0
 28 23  1  0
M  END
