CVD-0003740|dock_bobby27042020.87|mol2|3|dock2
     RDKit          3D

 20 21  0  0  0  0  0  0  0  0999 V2000
   11.8908    5.3348   22.7475 Cl  0  0  0  0  0  0  0  0  0  0  0  0
   12.2917    3.6427   22.6544 C   0  0  0  0  0  0  0  0  0  0  0  0
   11.2774    2.7110   22.6228 C   0  0  0  0  0  0  0  0  0  0  0  0
   11.5939    1.3661   22.5483 C   0  0  0  0  0  0  0  0  0  0  0  0
   12.9232    0.9782   22.5053 C   0  0  0  0  0  0  0  0  0  0  0  0
   13.9369    1.9218   22.5396 C   0  0  0  0  0  0  0  0  0  0  0  0
   13.6162    3.2656   22.6141 C   0  0  0  0  0  0  0  0  0  0  0  0
   13.3286   -0.7327   22.4166 S   0  0  0  0  0  0  0  0  0  0  0  0
   14.1920   -0.9310   21.2929 O   0  0  0  0  0  0  0  0  0  0  0  0
   13.7414   -1.1637   23.7173 O   0  0  0  0  0  0  0  0  0  0  0  0
   11.9254   -1.5164   22.0799 N   0  0  0  0  0  0  0  0  0  0  0  0
   11.0859   -2.0482   23.0529 C   0  0  0  0  0  0  0  0  0  0  0  0
   11.3555   -1.9639   24.2482 O   0  0  0  0  0  0  0  0  0  0  0  0
    9.9581   -2.6602   22.5728 N   0  0  0  0  0  0  0  0  0  0  0  0
    8.7266   -3.3538   22.4888 C   0  0  0  0  0  0  0  0  0  0  0  0
    8.4204   -4.4345   23.3157 C   0  0  0  0  0  0  0  0  0  0  0  0
    7.1991   -5.0759   23.1890 C   0  0  0  0  0  0  0  0  0  0  0  0
    6.2802   -4.6564   22.2517 C   0  0  0  0  0  0  0  0  0  0  0  0
    6.5765   -3.5898   21.4320 C   0  0  0  0  0  0  0  0  0  0  0  0
    7.7929   -2.9385   21.5466 C   0  0  0  0  0  0  0  0  0  0  0  0
  1  2  1  0
  2  3  2  0
  3  4  1  0
  4  5  2  0
  5  6  1  0
  6  7  2  0
  5  8  1  0
  8  9  2  0
  8 10  2  0
  8 11  1  0
 11 12  1  0
 12 13  2  0
 12 14  1  0
 14 15  1  0
 15 16  2  0
 16 17  1  0
 17 18  2  0
 18 19  1  0
 19 20  2  0
  7  2  1  0
 20 15  1  0
M  END
