CVD-0000062|dock_bobby27042020.71|mol2|32|dock3
     RDKit          3D

 19 20  0  0  0  0  0  0  0  0999 V2000
   14.2685   -2.1211   24.0420 C   0  0  0  0  0  0  0  0  0  0  0  0
   13.0207   -1.4036   23.5881 C   0  0  0  0  0  0  0  0  0  0  0  0
   12.9711   -0.0189   23.5473 C   0  0  0  0  0  0  0  0  0  0  0  0
   11.8230    0.6357   23.1338 C   0  0  0  0  0  0  0  0  0  0  0  0
   10.7079   -0.0921   22.7558 C   0  0  0  0  0  0  0  0  0  0  0  0
   10.7317   -1.4770   22.7877 C   0  0  0  0  0  0  0  0  0  0  0  0
    9.5191   -2.2835   22.3812 C   0  0  0  0  0  0  0  0  0  0  0  0
    8.3613   -1.4061   21.9482 C   0  0  0  0  0  0  0  0  0  0  0  0
    7.4606   -1.1299   22.7332 O   0  0  0  0  0  0  0  0  0  0  0  0
    8.4501   -1.0034   20.6560 N   0  0  0  0  0  0  0  0  0  0  0  0
    7.5787   -0.1920   19.8753 C   0  0  0  0  0  0  0  0  0  0  0  0
    6.7710    0.8028   20.4304 C   0  0  0  0  0  0  0  0  0  0  0  0
    5.9496    1.5499   19.6050 C   0  0  0  0  0  0  0  0  0  0  0  0
    5.9519    1.2915   18.2565 C   0  0  0  0  0  0  0  0  0  0  0  0
    6.7092    0.3499   17.6846 N   0  0  0  0  0  0  0  0  0  0  0  0
    7.5142   -0.3863   18.4756 C   0  0  0  0  0  0  0  0  0  0  0  0
    8.3035   -1.3842   17.7972 C   0  0  0  0  0  0  0  0  0  0  0  0
    8.9777   -2.1995   17.2798 C   0  0  0  0  0  0  0  0  0  0  0  0
   11.8924   -2.1143   23.2066 C   0  0  0  0  0  0  0  0  0  0  0  0
  1  2  1  0
  2  3  2  0
  3  4  1  0
  4  5  2  0
  5  6  1  0
  6  7  1  0
  7  8  1  0
  8  9  2  0
  8 10  1  0
 10 11  1  0
 11 12  2  0
 12 13  1  0
 13 14  2  0
 14 15  1  0
 15 16  2  0
 16 17  1  0
 17 18  3  0
  6 19  2  0
 19  2  1  0
 16 11  1  0
M  END
