CVD-0002393|dock_bobby27042020.77|mol2|28|dock1
     RDKit          3D

 26 29  0  0  0  0  0  0  0  0999 V2000
   12.4042   -3.4382   24.1445 F   0  0  0  0  0  0  0  0  0  0  0  0
   11.9241   -2.2388   23.7437 C   0  0  0  0  0  0  0  0  0  0  0  0
   10.9043   -2.1970   22.8309 C   0  0  0  0  0  0  0  0  0  0  0  0
   10.4099   -0.9645   22.4059 C   0  0  0  0  0  0  0  0  0  0  0  0
   10.9775    0.2219   22.8945 C   0  0  0  0  0  0  0  0  0  0  0  0
   11.9919    0.1510   23.8485 C   0  0  0  0  0  0  0  0  0  0  0  0
   12.4663   -1.0798   24.2605 C   0  0  0  0  0  0  0  0  0  0  0  0
   13.7441   -1.1521   25.4294 Cl  0  0  0  0  0  0  0  0  0  0  0  0
   10.4773    1.4510   22.3953 N   0  0  0  0  0  0  0  0  0  0  0  0
   11.0629    2.7075   22.8061 C   0  0  0  0  0  0  0  0  0  0  0  0
   12.4134    2.9629   22.6072 C   0  0  0  0  0  0  0  0  0  0  0  0
   12.9419    4.1770   23.0090 C   0  0  0  0  0  0  0  0  0  0  0  0
   12.1042    5.0970   23.5958 C   0  0  0  0  0  0  0  0  0  0  0  0
   10.8045    4.8773   23.7970 N   0  0  0  0  0  0  0  0  0  0  0  0
   10.3045    3.7013   23.4050 C   0  0  0  0  0  0  0  0  0  0  0  0
    9.4240    1.5254   21.4787 C   0  0  0  0  0  0  0  0  0  0  0  0
    9.0400    2.6083   21.0646 O   0  0  0  0  0  0  0  0  0  0  0  0
    8.8558    0.3176   21.0442 N   0  0  0  0  0  0  0  0  0  0  0  0
    7.7533    0.3820   20.1014 C   0  0  0  0  0  0  0  0  0  0  0  0
    6.5825    1.0675   20.4013 C   0  0  0  0  0  0  0  0  0  0  0  0
    5.5536    1.1036   19.4769 C   0  0  0  0  0  0  0  0  0  0  0  0
    5.7241    0.4525   18.2776 C   0  0  0  0  0  0  0  0  0  0  0  0
    6.8355   -0.2119   17.9618 N   0  0  0  0  0  0  0  0  0  0  0  0
    7.8234   -0.2367   18.8619 C   0  0  0  0  0  0  0  0  0  0  0  0
    9.2923   -0.9573   21.4554 C   0  0  0  0  0  0  0  0  0  0  0  0
    8.7786   -1.9928   21.0670 O   0  0  0  0  0  0  0  0  0  0  0  0
  1  2  1  0
  2  3  2  0
  3  4  1  0
  4  5  2  0
  5  6  1  0
  6  7  2  0
  7  8  1  0
  5  9  1  0
  9 10  1  0
 10 11  2  0
 11 12  1  0
 12 13  2  0
 13 14  1  0
 14 15  2  0
  9 16  1  0
 16 17  2  0
 16 18  1  0
 18 19  1  0
 19 20  2  0
 20 21  1  0
 21 22  2  0
 22 23  1  0
 23 24  2  0
 18 25  1  0
 25 26  2  0
  7  2  1  0
 15 10  1  0
 24 19  1  0
 25  4  1  0
M  END
