CVD-0000120|dock_bobby27042020.42|mol2|36|dock2
     RDKit          3D

 20 23  0  0  0  0  0  0  0  0999 V2000
    9.4702   -1.2951   20.1158 O   0  0  0  0  0  0  0  0  0  0  0  0
    8.6561   -0.4801   20.5056 C   0  0  0  0  0  0  0  0  0  0  0  0
    7.1861   -0.4646   20.1132 C   0  0  0  0  0  0  0  0  0  0  0  0
    6.8585    0.2282   18.8183 C   0  0  0  0  0  0  0  0  0  0  0  0
    5.6810    0.8213   18.6292 C   0  0  0  0  0  0  0  0  0  0  0  0
    4.7051    0.8388   19.6450 C   0  0  0  0  0  0  0  0  0  0  0  0
    5.0180    0.5317   20.9025 C   0  0  0  0  0  0  0  0  0  0  0  0
    6.4344    0.1746   21.2888 C   0  0  0  0  0  0  0  0  0  0  0  0
    7.5210    1.7187   21.7317 Se  0  0  0  0  0  2  0  0  0  0  0  0
    8.9491    0.5550   21.3442 N   0  0  0  0  0  0  0  0  0  0  0  0
   10.2182    0.8651   21.9189 C   0  0  0  0  0  0  0  0  0  0  0  0
   10.6216    2.1840   21.9238 C   0  0  0  0  0  0  0  0  0  0  0  0
   11.8668    2.5559   22.3988 C   0  0  0  0  0  0  0  0  0  0  0  0
   12.7355    1.6272   22.8830 C   0  0  0  0  0  0  0  0  0  0  0  0
   12.3675    0.2630   22.9492 C   0  0  0  0  0  0  0  0  0  0  0  0
   13.2477   -0.7178   23.4661 C   0  0  0  0  0  0  0  0  0  0  0  0
   12.8647   -2.0214   23.5605 C   0  0  0  0  0  0  0  0  0  0  0  0
   11.6046   -2.4098   23.1617 C   0  0  0  0  0  0  0  0  0  0  0  0
   10.7260   -1.5028   22.6489 C   0  0  0  0  0  0  0  0  0  0  0  0
   11.0747   -0.1342   22.4895 C   0  0  0  0  0  0  0  0  0  0  0  0
  1  2  2  0
  2  3  1  0
  3  4  1  0
  4  5  2  0
  5  6  1  0
  6  7  2  0
  7  8  1  0
  8  9  1  0
  9 10  1  0
 10 11  1  0
 11 12  2  0
 12 13  1  0
 13 14  2  0
 14 15  1  0
 15 16  2  0
 16 17  1  0
 17 18  2  0
 18 19  1  0
 19 20  2  0
 10  2  1  0
 20 11  1  0
  8  3  1  0
 20 15  1  0
M  END
