CVD-0000481|dock_bobby27042020.70|mol2|6|dock2
     RDKit          3D

 16 17  0  0  0  0  0  0  0  0999 V2000
    5.2294    0.6435   18.0484 Cl  0  0  0  0  0  0  0  0  0  0  0  0
    6.6250    0.1883   18.9851 C   0  0  0  0  0  0  0  0  0  0  0  0
    7.0915    1.0407   19.9602 C   0  0  0  0  0  0  0  0  0  0  0  0
    8.2002    0.6752   20.7018 C   0  0  0  0  0  0  0  0  0  0  0  0
    8.8422   -0.5360   20.4725 C   0  0  0  0  0  0  0  0  0  0  0  0
    9.9732   -0.8634   21.2590 N   0  0  0  0  0  0  0  0  0  0  0  0
   11.1976   -1.3270   21.6625 C   0  0  0  0  0  0  0  0  0  0  0  0
   12.0053   -1.8528   20.9015 O   0  0  0  0  0  0  0  0  0  0  0  0
   11.4457   -1.1462   23.0265 N   0  0  0  0  0  0  0  0  0  0  0  0
   12.6067   -1.5146   23.7414 C   0  0  0  0  0  0  0  0  0  0  0  0
   13.1333   -0.8681   24.9046 C   0  0  0  0  0  0  0  0  0  0  0  0
   14.2613   -1.5515   25.2636 C   0  0  0  0  0  0  0  0  0  0  0  0
   14.4411   -2.5679   24.3849 N   0  0  0  0  0  0  0  0  0  0  0  0
   13.4439   -2.5583   23.4546 C   0  0  0  0  0  0  0  0  0  0  0  0
    8.3509   -1.3828   19.4790 C   0  0  0  0  0  0  0  0  0  0  0  0
    7.2415   -1.0177   18.7367 C   0  0  0  0  0  0  0  0  0  0  0  0
  1  2  1  0
  2  3  2  0
  3  4  1  0
  4  5  2  0
  5  6  1  0
  6  7  1  0
  7  8  2  0
  7  9  1  0
  9 10  1  0
 10 11  1  0
 11 12  2  0
 12 13  1  0
 13 14  1  0
  5 15  1  0
 15 16  2  0
 16  2  1  0
 14 10  2  0
M  END
