CVD-0002524|dock_bobby27042020.63|mol2|7|dock3
     RDKit          3D

 29 32  0  0  0  0  0  0  0  0999 V2000
    6.4066   -0.1931   19.0332 C   0  0  0  0  0  0  0  0  0  0  0  0
    6.1331   -1.6575   19.2193 C   0  0  0  0  0  0  0  0  0  0  0  0
    5.5510   -2.2834   18.3404 O   0  0  0  0  0  0  0  0  0  0  0  0
    6.5457   -2.2829   20.3563 N   0  0  0  0  0  0  0  0  0  0  0  0
    6.3243   -3.7112   20.5922 C   0  0  0  0  0  0  0  0  0  0  0  0
    7.6336   -4.4028   20.9240 C   0  0  0  0  0  0  0  0  0  0  0  0
    8.2497   -3.7846   22.1018 N   0  0  0  0  0  0  0  0  0  0  0  0
    7.4263   -3.9749   23.3070 C   0  0  0  0  0  0  0  0  0  0  0  0
    8.2416   -4.4781   24.4605 C   0  0  0  0  0  0  0  0  0  0  0  0
    8.3145   -3.9404   25.7275 C   0  0  0  0  0  0  0  0  0  0  0  0
    9.1900   -4.6887   26.5511 C   0  0  0  0  0  0  0  0  0  0  0  0
    9.7459   -5.7392   25.9248 C   0  0  0  0  0  0  0  0  0  0  0  0
    9.2255   -5.8607   24.3044 S   0  0  0  0  0  0  0  0  0  0  0  0
    8.5075   -2.3748   21.8200 C   0  0  0  0  0  0  0  0  0  0  0  0
    7.2162   -1.6465   21.4944 C   0  0  0  0  0  0  0  0  0  0  0  0
    9.2689   -1.7281   22.9730 C   0  0  0  0  0  0  0  0  0  0  0  0
   10.7034   -2.3439   23.0707 C   0  0  0  0  0  0  0  0  0  0  0  0
   11.3384   -1.9675   24.2947 O   0  0  0  0  0  0  0  0  0  0  0  0
   11.5827   -1.9328   21.8766 C   0  0  0  0  0  0  0  0  0  0  0  0
   11.5252   -0.4186   21.6822 C   0  0  0  0  0  0  0  0  0  0  0  0
   10.0842    0.0552   21.5711 C   0  0  0  0  0  0  0  0  0  0  0  0
    9.3383   -0.2878   22.7799 N   0  0  0  0  0  0  0  0  0  0  0  0
    9.7301    0.5022   23.9564 C   0  0  0  0  0  0  0  0  0  0  0  0
    8.8767    0.2661   25.1796 C   0  0  0  0  0  0  0  0  0  0  0  0
    7.4997    0.1432   25.0749 C   0  0  0  0  0  0  0  0  0  0  0  0
    6.7210   -0.0786   26.1985 C   0  0  0  0  0  0  0  0  0  0  0  0
    7.3107   -0.1812   27.4401 C   0  0  0  0  0  0  0  0  0  0  0  0
    8.6789   -0.0631   27.5579 C   0  0  0  0  0  0  0  0  0  0  0  0
    9.4572    0.1586   26.4340 C   0  0  0  0  0  0  0  0  0  0  0  0
  1  2  1  0
  2  3  2  0
  2  4  1  0
  4  5  1  0
  5  6  1  0
  6  7  1  0
  7  8  1  0
  8  9  1  0
  9 10  2  0
 10 11  1  0
 11 12  2  0
 12 13  1  0
  7 14  1  0
 14 15  1  0
 14 16  1  0
 16 17  1  0
 17 18  1  0
 17 19  1  0
 19 20  1  0
 20 21  1  0
 21 22  1  0
 22 23  1  0
 23 24  1  0
 24 25  2  0
 25 26  1  0
 26 27  2  0
 27 28  1  0
 28 29  2  0
 15  4  1  0
 22 16  1  0
 29 24  1  0
 13  9  1  0
M  END
