CVD-0000662|dock_bobby27042020.26|mol2|33|dock3
     RDKit          3D

 18 19  0  0  0  0  0  0  0  0999 V2000
   12.1595    3.9616   22.1799 Cl  0  0  0  0  0  0  0  0  0  0  0  0
   11.0916    2.6318   22.6464 C   0  0  0  0  0  0  0  0  0  0  0  0
   11.8504    1.4252   23.1752 C   0  0  0  0  0  0  0  0  0  0  0  0
   12.9032    1.6430   23.7625 O   0  0  0  0  0  0  0  0  0  0  0  0
   11.3645    0.1420   23.0119 N   0  0  0  0  0  0  0  0  0  0  0  0
   12.1095   -1.0284   23.5553 C   0  0  0  0  0  0  0  0  0  0  0  0
   13.5052   -1.2696   22.9644 C   0  0  0  0  0  0  0  0  0  0  0  0
   14.1675   -2.3445   23.8126 C   0  0  0  0  0  0  0  0  0  0  0  0
   13.6062   -2.0603   25.4937 S   0  0  0  0  0  0  0  0  0  0  0  0
   14.5881   -1.3048   26.2239 O   0  0  0  0  0  0  0  0  0  0  0  0
   13.1501   -3.2986   26.0651 O   0  0  0  0  0  0  0  0  0  0  0  0
   12.2213   -0.9994   25.0647 C   0  0  0  0  0  0  0  0  0  0  0  0
   10.1310   -0.0734   22.3024 C   0  0  0  0  0  0  0  0  0  0  0  0
    8.9331    0.4912   22.7260 C   0  0  0  0  0  0  0  0  0  0  0  0
    7.7653    0.2478   22.0246 C   0  0  0  0  0  0  0  0  0  0  0  0
    7.8203   -0.5533   20.9096 C   0  0  0  0  0  0  0  0  0  0  0  0
    8.9507   -1.1031   20.4706 N   0  0  0  0  0  0  0  0  0  0  0  0
   10.0707   -0.8551   21.1566 C   0  0  0  0  0  0  0  0  0  0  0  0
  1  2  1  0
  2  3  1  0
  3  4  2  0
  3  5  1  0
  5  6  1  0
  6  7  1  0
  7  8  1  0
  8  9  1  0
  9 10  2  0
  9 11  2  0
  9 12  1  0
  5 13  1  0
 13 14  2  0
 14 15  1  0
 15 16  2  0
 16 17  1  0
 17 18  2  0
 12  6  1  0
 18 13  1  0
M  END
