CVD-0001508|dock_bobby27042020.9|mol2|28|dock3
     RDKit          3D

 32 36  0  0  0  0  0  0  0  0999 V2000
    9.4756    3.6853   22.6427 C   0  0  0  0  0  0  0  0  0  0  0  0
   10.9331    3.6585   22.6034 N   0  0  0  0  0  0  0  0  0  0  0  0
   11.6199    4.9383   22.4799 C   0  0  0  0  0  0  0  0  0  0  0  0
   12.9899    4.8659   23.1303 C   0  0  0  0  0  0  0  0  0  0  0  0
   13.8053    3.7536   22.5038 C   0  0  0  0  0  0  0  0  0  0  0  0
   13.0416    2.4516   22.5120 C   0  0  0  0  0  0  0  0  0  0  0  0
   13.7099    1.2331   22.4870 C   0  0  0  0  0  0  0  0  0  0  0  0
   13.0235    0.0361   22.4751 C   0  0  0  0  0  0  0  0  0  0  0  0
   11.6399    0.0589   22.4887 C   0  0  0  0  0  0  0  0  0  0  0  0
   10.9386    1.2547   22.5137 C   0  0  0  0  0  0  0  0  0  0  0  0
   11.6300    2.4665   22.5258 C   0  0  0  0  0  0  0  0  0  0  0  0
   10.7371   -1.4565   22.4935 S   0  0  0  0  0  0  0  0  0  0  0  0
    9.8777   -1.5102   21.3418 O   0  0  0  0  0  0  0  0  0  0  0  0
   11.6826   -2.5222   22.6851 O   0  0  0  0  0  0  0  0  0  0  0  0
    9.7235   -1.4543   23.9636 C   0  0  0  0  0  0  0  0  0  0  0  0
    9.9368   -0.5844   24.7832 O   0  0  0  0  0  0  0  0  0  0  0  0
    8.7750   -2.3953   24.1145 N   0  0  0  0  0  0  0  0  0  0  0  0
    7.9053   -2.3248   25.3150 C   0  0  0  0  0  0  0  0  0  0  0  0
    6.4720   -2.5324   24.9546 C   0  0  0  0  0  0  0  0  0  0  0  0
    5.9368   -1.3854   24.1016 C   0  0  0  0  0  0  0  0  0  0  0  0
    5.3966   -0.2522   24.6979 C   0  0  0  0  0  0  0  0  0  0  0  0
    4.9018    0.7892   23.9309 C   0  0  0  0  0  0  0  0  0  0  0  0
    4.9419    0.7171   22.5559 C   0  0  0  0  0  0  0  0  0  0  0  0
    5.4772   -0.3973   21.9479 C   0  0  0  0  0  0  0  0  0  0  0  0
    5.9721   -1.4400   22.7133 C   0  0  0  0  0  0  0  0  0  0  0  0
    6.3030   -3.8595   24.2609 C   0  0  0  0  0  0  0  0  0  0  0  0
    5.1540   -4.6300   24.4388 C   0  0  0  0  0  0  0  0  0  0  0  0
    4.9974   -5.8544   23.8135 C   0  0  0  0  0  0  0  0  0  0  0  0
    5.9953   -6.3321   22.9934 C   0  0  0  0  0  0  0  0  0  0  0  0
    7.1428   -5.5830   22.8037 C   0  0  0  0  0  0  0  0  0  0  0  0
    7.3078   -4.3510   23.4288 C   0  0  0  0  0  0  0  0  0  0  0  0
    8.5893   -3.5426   23.2038 C   0  0  0  0  0  0  0  0  0  0  0  0
  1  2  1  0
  2  3  1  0
  3  4  1  0
  4  5  1  0
  5  6  1  0
  6  7  2  0
  7  8  1  0
  8  9  2  0
  9 10  1  0
 10 11  2  0
  9 12  1  0
 12 13  2  0
 12 14  2  0
 12 15  1  0
 15 16  2  0
 15 17  1  0
 17 18  1  0
 18 19  1  0
 19 20  1  0
 20 21  2  0
 21 22  1  0
 22 23  2  0
 23 24  1  0
 24 25  2  0
 19 26  1  0
 26 27  2  0
 27 28  1  0
 28 29  2  0
 29 30  1  0
 30 31  2  0
 31 32  1  0
 11  2  1  0
 32 17  1  0
 11  6  1  0
 25 20  1  0
 31 26  1  0
M  END
