CVD-0000796|dock_bobby27042020.69|mol2|12|dock3
     RDKit          3D

 23 25  0  0  0  0  0  0  0  0999 V2000
   13.9950   -1.7897   25.0668 C   0  0  0  0  0  0  0  0  0  0  0  0
   13.9449   -1.6476   23.5678 C   0  0  0  0  0  0  0  0  0  0  0  0
   12.6329   -1.0849   23.0566 C   0  0  0  0  0  0  0  0  0  0  0  0
   11.6734   -1.9403   22.5254 C   0  0  0  0  0  0  0  0  0  0  0  0
   10.4725   -1.4738   22.0500 C   0  0  0  0  0  0  0  0  0  0  0  0
    9.4787   -2.2500   21.5244 O   0  0  0  0  0  0  0  0  0  0  0  0
    8.7034   -3.1180   22.3880 C   0  0  0  0  0  0  0  0  0  0  0  0
    7.9030   -2.3026   23.4243 C   0  0  0  0  0  0  0  0  0  0  0  0
    7.0189   -3.1850   24.3034 C   0  0  0  0  0  0  0  0  0  0  0  0
    6.1027   -4.0648   23.4627 C   0  0  0  0  0  0  0  0  0  0  0  0
    6.8998   -4.8909   22.4635 C   0  0  0  0  0  0  0  0  0  0  0  0
    7.7496   -3.9994   21.5638 C   0  0  0  0  0  0  0  0  0  0  0  0
   10.1915   -0.0795   22.0816 C   0  0  0  0  0  0  0  0  0  0  0  0
    8.9937    0.5017   21.5982 C   0  0  0  0  0  0  0  0  0  0  0  0
    8.7250    1.7946   21.6264 N   0  0  0  0  0  0  0  0  0  0  0  0
    9.6464    2.6105   22.1500 C   0  0  0  0  0  0  0  0  0  0  0  0
   10.8682    2.1999   22.6613 C   0  0  0  0  0  0  0  0  0  0  0  0
   11.8529    3.1935   23.2408 C   0  0  0  0  0  0  0  0  0  0  0  0
   12.9832    3.5011   22.3677 N   0  0  0  0  0  0  0  0  0  0  0  0
   12.5221    4.0949   21.1177 C   0  0  0  0  0  0  0  0  0  0  0  0
   13.9056    4.4162   23.0300 C   0  0  0  0  0  0  0  0  0  0  0  0
   11.1648    0.8107   22.6271 C   0  0  0  0  0  0  0  0  0  0  0  0
   12.3790    0.2604   23.1054 C   0  0  0  0  0  0  0  0  0  0  0  0
  1  2  1  0
  2  3  1  0
  3  4  2  0
  4  5  1  0
  5  6  1  0
  6  7  1  0
  7  8  1  0
  8  9  1  0
  9 10  1  0
 10 11  1  0
 11 12  1  0
  5 13  2  0
 13 14  1  0
 14 15  2  0
 15 16  1  0
 16 17  2  0
 17 18  1  0
 18 19  1  0
 19 20  1  0
 19 21  1  0
 17 22  1  0
 22 23  2  0
 23  3  1  0
 12  7  1  0
 22 13  1  0
M  END
