CVD-0002507|dock_bobby27042020.5|mol2|25|dock3
     RDKit          3D

 37 40  0  0  0  0  0  0  0  0999 V2000
   13.6080    9.8045   26.4564 C   0  0  0  0  0  0  0  0  0  0  0  0
   13.0372    8.5139   25.9210 C   0  0  0  0  0  0  0  0  0  0  0  0
   13.3834    8.0481   24.6625 C   0  0  0  0  0  0  0  0  0  0  0  0
   12.8673    6.8651   24.1642 C   0  0  0  0  0  0  0  0  0  0  0  0
   11.9747    6.1334   24.9273 C   0  0  0  0  0  0  0  0  0  0  0  0
   11.4379    4.9692   24.4423 O   0  0  0  0  0  0  0  0  0  0  0  0
   12.1229    4.1899   23.4473 C   0  0  0  0  0  0  0  0  0  0  0  0
   11.4836    2.8256   23.3156 C   0  0  0  0  0  0  0  0  0  0  0  0
   11.1792    2.0896   24.6113 C   0  0  0  0  0  0  0  0  0  0  0  0
   10.7667    0.6375   24.4098 C   0  0  0  0  0  0  0  0  0  0  0  0
    9.5282    0.4706   23.5264 C   0  0  0  0  0  0  0  0  0  0  0  0
    8.8832   -0.8231   23.8101 N   0  0  0  0  0  0  0  0  0  0  0  0
    9.8191   -1.9037   23.4863 C   0  0  0  0  0  0  0  0  0  0  0  0
   10.1965   -1.9268   22.0383 C   0  0  0  0  0  0  0  0  0  0  0  0
   10.8149   -0.5693   21.6371 C   0  0  0  0  0  0  0  0  0  0  0  0
    9.9068    0.5562   22.0683 C   0  0  0  0  0  0  0  0  0  0  0  0
    9.5058    1.4347   21.3362 O   0  0  0  0  0  0  0  0  0  0  0  0
    8.9659   -2.2637   21.2194 C   0  0  0  0  0  0  0  0  0  0  0  0
    8.3245   -3.4845   21.3706 C   0  0  0  0  0  0  0  0  0  0  0  0
    7.1975   -3.8154   20.6332 C   0  0  0  0  0  0  0  0  0  0  0  0
    6.5159   -5.1493   20.8179 C   0  0  0  0  0  0  0  0  0  0  0  0
    6.7098   -2.8874   19.7264 C   0  0  0  0  0  0  0  0  0  0  0  0
    7.3253   -1.6558   19.5506 C   0  0  0  0  0  0  0  0  0  0  0  0
    6.7805   -0.6595   18.5551 C   0  0  0  0  0  0  0  0  0  0  0  0
    6.0993    0.4814   19.1840 N   0  0  0  0  0  0  0  0  0  0  0  0
    5.1297    0.0146   20.1793 C   0  0  0  0  0  0  0  0  0  0  0  0
    4.4595    1.1968   20.8544 C   0  0  0  0  0  0  0  0  0  0  0  0
    3.7965    2.0446   19.8612 N   0  0  0  0  0  0  0  0  0  0  0  0
    4.7285    2.4799   18.8163 C   0  0  0  0  0  0  0  0  0  0  0  0
    5.4029    1.2793   18.1781 C   0  0  0  0  0  0  0  0  0  0  0  0
    2.4951    2.3870   19.9440 C   0  0  0  0  0  0  0  0  0  0  0  0
    1.7830    2.0124   20.8671 O   0  0  0  0  0  0  0  0  0  0  0  0
    1.9585    3.2679   18.8329 C   0  0  0  0  0  0  0  0  0  0  0  0
    0.2589    3.6646   19.1176 Cl  0  0  0  0  0  0  0  0  0  0  0  0
    8.4531   -1.3577   20.3033 C   0  0  0  0  0  0  0  0  0  0  0  0
   11.6246    6.5738   26.1913 C   0  0  0  0  0  0  0  0  0  0  0  0
   12.1563    7.7557   26.6757 C   0  0  0  0  0  0  0  0  0  0  0  0
  1  2  1  0
  2  3  2  0
  3  4  1  0
  4  5  2  0
  5  6  1  0
  6  7  1  0
  7  8  1  0
  8  9  1  0
  9 10  1  0
 10 11  1  0
 11 12  1  0
 12 13  1  0
 13 14  1  0
 14 15  1  0
 15 16  1  0
 16 17  2  0
 14 18  1  0
 18 19  2  0
 19 20  1  0
 20 21  1  0
 20 22  2  0
 22 23  1  0
 23 24  1  0
 24 25  1  0
 25 26  1  0
 26 27  1  0
 27 28  1  0
 28 29  1  0
 29 30  1  0
 28 31  1  0
 31 32  2  0
 31 33  1  0
 33 34  1  0
 23 35  2  0
  5 36  1  0
 36 37  2  0
 37  2  1  0
 16 11  1  0
 35 18  1  0
 30 25  1  0
M  END
