CVD-0002142|dock_bobby27042020.21|mol2|23|dock2
     RDKit          3D

 17 18  0  0  0  0  0  0  0  0999 V2000
   13.7505   -2.6150   25.3702 C   0  0  0  0  0  0  0  0  0  0  0  0
   12.7244   -2.6523   24.2761 C   0  0  0  0  0  0  0  0  0  0  0  0
   12.0753   -3.6668   24.0477 O   0  0  0  0  0  0  0  0  0  0  0  0
   12.5281   -1.5218   23.5538 N   0  0  0  0  0  0  0  0  0  0  0  0
   11.5366   -1.4937   22.4911 C   0  0  0  0  0  0  0  0  0  0  0  0
   10.6063   -0.3352   22.6683 C   0  0  0  0  0  0  0  0  0  0  0  0
   11.3931    0.9041   22.7418 N   0  0  0  0  0  0  0  0  0  0  0  0
   12.3329    0.8875   23.8725 C   0  0  0  0  0  0  0  0  0  0  0  0
   13.2741   -0.2691   23.7093 C   0  0  0  0  0  0  0  0  0  0  0  0
   10.6251    2.2894   22.4013 S   0  0  0  0  0  0  0  0  0  0  0  0
    9.6954    2.5336   23.4590 O   0  0  0  0  0  0  0  0  0  0  0  0
   10.1544    2.1955   21.0551 O   0  0  0  0  0  0  0  0  0  0  0  0
   11.8040    3.5694   22.4463 C   0  0  0  0  0  0  0  0  0  0  0  0
   12.4311    4.0324   21.3199 C   0  0  0  0  0  0  0  0  0  0  0  0
   13.4280    5.0921   21.5569 C   0  0  0  0  0  0  0  0  0  0  0  0
   13.4047    5.4270   23.3299 S   0  0  0  0  0  0  0  0  0  0  0  0
   12.2469    4.2489   23.5928 C   0  0  0  0  0  0  0  0  0  0  0  0
  1  2  1  0
  2  3  2  0
  2  4  1  0
  4  5  1  0
  5  6  1  0
  6  7  1  0
  7  8  1  0
  8  9  1  0
  7 10  1  0
 10 11  2  0
 10 12  2  0
 10 13  1  0
 13 14  2  0
 14 15  1  0
 15 16  1  0
 16 17  2  0
  9  4  1  0
 17 13  1  0
M  END
