CVD-0002512|dock_bobby27042020.34|mol2|10|dock1
     RDKit          3D

 20 22  0  0  0  0  0  0  0  0999 V2000
    3.7270    1.7657   20.8186 C   0  0  0  0  0  0  0  0  0  0  0  0
    4.9881    1.2202   20.1939 C   0  0  0  0  0  0  0  0  0  0  0  0
    5.3217    1.5236   18.8832 C   0  0  0  0  0  0  0  0  0  0  0  0
    6.4809    1.0233   18.3148 C   0  0  0  0  0  0  0  0  0  0  0  0
    7.3225    0.2120   19.0561 C   0  0  0  0  0  0  0  0  0  0  0  0
    7.0133   -0.1041   20.3692 C   0  0  0  0  0  0  0  0  0  0  0  0
    7.9209   -0.9901   21.1875 C   0  0  0  0  0  0  0  0  0  0  0  0
    9.2341   -0.3268   21.6198 C   0  0  0  0  0  0  0  0  0  0  0  0
    9.0585    0.2547   23.0145 C   0  0  0  0  0  0  0  0  0  0  0  0
    9.2198   -0.7940   24.1089 C   0  0  0  0  0  0  0  0  0  0  0  0
    8.2945   -2.0034   23.9058 C   0  0  0  0  0  0  0  0  0  0  0  0
    9.1241   -2.9580   23.0550 C   0  0  0  0  0  0  0  0  0  0  0  0
   10.4424   -2.2300   22.7784 C   0  0  0  0  0  0  0  0  0  0  0  0
   10.3837   -1.3221   21.5562 C   0  0  0  0  0  0  0  0  0  0  0  0
   10.5508   -1.3937   23.9772 N   0  0  0  0  0  0  0  0  0  0  0  0
   11.6985   -1.0296   24.6038 C   0  0  0  0  0  0  0  0  0  0  0  0
   11.7306   -0.0959   25.3955 O   0  0  0  0  0  0  0  0  0  0  0  0
   12.9490   -1.8224   24.2773 C   0  0  0  0  0  0  0  0  0  0  0  0
   14.2874   -1.3633   25.3382 Cl  0  0  0  0  0  0  0  0  0  0  0  0
    5.8452    0.4069   20.9200 C   0  0  0  0  0  0  0  0  0  0  0  0
  1  2  1  0
  2  3  2  0
  3  4  1  0
  4  5  2  0
  5  6  1  0
  6  7  1  0
  7  8  1  0
  8  9  1  0
  9 10  1  0
 10 11  1  0
 11 12  1  0
 12 13  1  0
 13 14  1  0
 13 15  1  0
 15 16  1  0
 16 17  2  0
 16 18  1  0
 18 19  1  0
  6 20  2  0
 20  2  1  0
 14  8  1  0
 15 10  1  0
M  END
