CVD-0003713|dock_bobby27042020.30|mol2|8|dock3
     RDKit          3D

 24 25  0  0  0  0  0  0  0  0999 V2000
   10.1202   -3.4779   24.3774 C   0  0  0  0  0  0  0  0  0  0  0  0
    9.4658   -2.4938   23.4200 C   0  0  0  0  0  0  0  0  0  0  0  0
   10.5285   -1.8559   22.5271 C   0  0  0  0  0  0  0  0  0  0  0  0
   11.6887   -1.3161   23.2440 N   0  0  0  0  0  0  0  0  0  0  0  0
   12.7469   -0.8813   22.3120 C   0  0  0  0  0  0  0  0  0  0  0  0
   13.6041    0.0622   23.1286 C   0  0  0  0  0  0  0  0  0  0  0  0
   12.7139    0.5757   24.2134 C   0  0  0  0  0  0  0  0  0  0  0  0
   11.3786   -0.1134   24.0372 C   0  0  0  0  0  0  0  0  0  0  0  0
    8.4788   -3.1816   22.5915 N   0  0  0  0  0  0  0  0  0  0  0  0
    7.3026   -2.6482   22.2492 C   0  0  0  0  0  0  0  0  0  0  0  0
    6.9500   -1.5269   22.6051 O   0  0  0  0  0  0  0  0  0  0  0  0
    6.3911   -3.5082   21.3763 C   0  0  0  0  0  0  0  0  0  0  0  0
    6.8729   -3.5229   19.9151 C   0  0  0  0  0  0  0  0  0  0  0  0
    6.6909   -2.1971   19.2171 C   0  0  0  0  0  0  0  0  0  0  0  0
    7.6949   -1.2415   19.2349 C   0  0  0  0  0  0  0  0  0  0  0  0
    7.5337   -0.0228   18.6000 C   0  0  0  0  0  0  0  0  0  0  0  0
    6.3516    0.2568   17.9332 C   0  0  0  0  0  0  0  0  0  0  0  0
    6.1861    1.4565   17.3047 O   0  0  0  0  0  0  0  0  0  0  0  0
    5.3388   -0.6883   17.9082 C   0  0  0  0  0  0  0  0  0  0  0  0
    5.5136   -1.9028   18.5473 C   0  0  0  0  0  0  0  0  0  0  0  0
    6.1924   -4.8457   21.9249 N   0  0  0  0  0  0  0  0  0  0  0  0
    5.3253   -5.2125   22.8850 C   0  0  0  0  0  0  0  0  0  0  0  0
    5.2299   -6.6443   23.3315 C   0  0  0  0  0  0  0  0  0  0  0  0
    4.5927   -4.3701   23.3942 O   0  0  0  0  0  0  0  0  0  0  0  0
  1  2  1  0
  2  3  1  0
  3  4  1  0
  4  5  1  0
  5  6  1  0
  6  7  1  0
  7  8  1  0
  2  9  1  0
  9 10  1  0
 10 11  2  0
 10 12  1  0
 12 13  1  0
 13 14  1  0
 14 15  2  0
 15 16  1  0
 16 17  2  0
 17 18  1  0
 17 19  1  0
 19 20  2  0
 12 21  1  0
 21 22  1  0
 22 23  1  0
 22 24  2  0
  8  4  1  0
 20 14  1  0
M  END
