CVD-0001355|dock_bobby27042020.53|mol2|3|dock3
     RDKit          3D

 28 31  0  0  0  0  0  0  0  0999 V2000
    9.4742    0.8446   25.0020 C   0  0  0  0  0  0  0  0  0  0  0  0
    9.5536    1.2758   23.6082 N   0  0  0  0  0  0  0  0  0  0  0  0
    8.6926    0.5680   22.6196 C   0  0  0  0  0  0  0  0  0  0  0  0
    7.7895    1.5337   21.8383 C   0  0  0  0  0  0  0  0  0  0  0  0
    7.5089    2.8278   22.5855 C   0  0  0  0  0  0  0  0  0  0  0  0
    8.8249    3.4760   22.9172 C   0  0  0  0  0  0  0  0  0  0  0  0
    9.0895    4.8212   22.6878 C   0  0  0  0  0  0  0  0  0  0  0  0
   10.3426    5.3520   22.9173 C   0  0  0  0  0  0  0  0  0  0  0  0
   11.3454    4.5206   23.3842 C   0  0  0  0  0  0  0  0  0  0  0  0
   11.1172    3.1720   23.6245 C   0  0  0  0  0  0  0  0  0  0  0  0
    9.8456    2.6484   23.3882 C   0  0  0  0  0  0  0  0  0  0  0  0
   12.9473    5.1893   23.7150 S   0  0  0  0  0  0  0  0  0  0  0  0
   13.5442    5.7753   22.3500 N   0  0  0  0  0  0  0  0  0  0  0  0
   12.7733    6.2939   24.6098 O   0  0  0  0  0  0  0  0  0  0  0  0
   13.7904    4.1024   24.1135 O   0  0  0  0  0  0  0  0  0  0  0  0
    9.5761   -0.2384   21.6260 C   0  0  0  0  0  0  0  0  0  0  0  0
    8.7501   -1.2157   20.8578 C   0  0  0  0  0  0  0  0  0  0  0  0
    8.1560   -2.2421   21.7498 N   0  0  0  0  0  0  0  0  0  0  0  0
    9.0568   -2.9260   22.7000 C   0  0  0  0  0  0  0  0  0  0  0  0
   10.4205   -2.2565   22.8935 C   0  0  0  0  0  0  0  0  0  0  0  0
   11.4305   -2.9206   23.5828 C   0  0  0  0  0  0  0  0  0  0  0  0
   12.6678   -2.3329   23.7762 C   0  0  0  0  0  0  0  0  0  0  0  0
   12.9078   -1.0712   23.2803 C   0  0  0  0  0  0  0  0  0  0  0  0
   11.9100   -0.4013   22.5928 C   0  0  0  0  0  0  0  0  0  0  0  0
   10.6546   -0.9759   22.3865 C   0  0  0  0  0  0  0  0  0  0  0  0
    6.8333   -2.5460   21.6523 C   0  0  0  0  0  0  0  0  0  0  0  0
    6.2435   -3.5930   22.5520 C   0  0  0  0  0  0  0  0  0  0  0  0
    6.1250   -1.9807   20.8265 O   0  0  0  0  0  0  0  0  0  0  0  0
  1  2  1  0
  2  3  1  0
  3  4  1  0
  4  5  1  0
  5  6  1  0
  6  7  2  0
  7  8  1  0
  8  9  2  0
  9 10  1  0
 10 11  2  0
  9 12  1  0
 12 13  1  0
 12 14  2  0
 12 15  2  0
  3 16  1  0
 16 17  1  0
 17 18  1  0
 18 19  1  0
 19 20  1  0
 20 21  2  0
 21 22  1  0
 22 23  2  0
 23 24  1  0
 24 25  2  0
 18 26  1  0
 26 27  1  0
 26 28  2  0
 11  2  1  0
 25 16  1  0
 11  6  1  0
 25 20  1  0
M  END
