CVD-0002549|dock_bobby27042020.48|mol2|14|dock1
     RDKit          3D

 32 33  0  0  0  0  0  0  0  0999 V2000
   14.0323    5.4044   21.8509 C   0  0  0  0  0  0  0  0  0  0  0  0
   12.9594    4.9915   22.8152 C   0  0  0  0  0  0  0  0  0  0  0  0
   12.9535    5.3722   23.9818 O   0  0  0  0  0  0  0  0  0  0  0  0
   12.0201    4.1710   22.3325 N   0  0  0  0  0  0  0  0  0  0  0  0
   10.9330    3.6801   23.1634 C   0  0  0  0  0  0  0  0  0  0  0  0
   10.2832    2.4520   22.5045 C   0  0  0  0  0  0  0  0  0  0  0  0
   11.1803    1.2398   22.3846 C   0  0  0  0  0  0  0  0  0  0  0  0
   12.4983    1.3338   22.8244 C   0  0  0  0  0  0  0  0  0  0  0  0
   13.3743    0.2668   22.7479 C   0  0  0  0  0  0  0  0  0  0  0  0
   12.9417   -0.9375   22.2208 C   0  0  0  0  0  0  0  0  0  0  0  0
   13.7970   -1.9976   22.1424 O   0  0  0  0  0  0  0  0  0  0  0  0
   11.6362   -1.0657   21.7719 C   0  0  0  0  0  0  0  0  0  0  0  0
   10.7635    0.0127   21.8490 C   0  0  0  0  0  0  0  0  0  0  0  0
    9.1152   -0.2418   21.2453 S   0  0  0  0  0  0  0  0  0  0  0  0
    9.2011   -1.1133   20.1135 O   0  0  0  0  0  0  0  0  0  0  0  0
    8.5070    1.0452   21.0990 O   0  0  0  0  0  0  0  0  0  0  0  0
    8.2704   -1.0288   22.3683 N   0  0  0  0  0  0  0  0  0  0  0  0
    7.7940   -2.3923   22.1067 C   0  0  0  0  0  0  0  0  0  0  0  0
    6.3493   -2.3747   21.6405 C   0  0  0  0  0  0  0  0  0  0  0  0
    6.1057   -1.3807   20.5309 C   0  0  0  0  0  0  0  0  0  0  0  0
    5.9879   -0.0266   20.8041 C   0  0  0  0  0  0  0  0  0  0  0  0
    5.7614    0.8854   19.7868 C   0  0  0  0  0  0  0  0  0  0  0  0
    5.6489    0.4540   18.4828 C   0  0  0  0  0  0  0  0  0  0  0  0
    5.7625   -0.8894   18.1967 C   0  0  0  0  0  0  0  0  0  0  0  0
    5.9891   -1.8006   19.2148 C   0  0  0  0  0  0  0  0  0  0  0  0
    9.9005    4.7810   23.3953 C   0  0  0  0  0  0  0  0  0  0  0  0
    9.5715    5.0875   24.5381 O   0  0  0  0  0  0  0  0  0  0  0  0
    9.3867    5.3692   22.3150 N   0  0  0  0  0  0  0  0  0  0  0  0
    8.3900    6.4262   22.4248 C   0  0  0  0  0  0  0  0  0  0  0  0
    7.0334    5.9051   22.6306 C   0  0  0  0  0  0  0  0  0  0  0  0
    5.9380    5.4642   22.7407 C   0  0  0  0  0  0  0  0  0  0  0  0
    4.2758    4.7792   22.8473 Br  0  0  0  0  0  0  0  0  0  0  0  0
  1  2  1  0
  2  3  2  0
  2  4  1  0
  4  5  1  0
  5  6  1  0
  6  7  1  0
  7  8  2  0
  8  9  1  0
  9 10  2  0
 10 11  1  0
 10 12  1  0
 12 13  2  0
 13 14  1  0
 14 15  2  0
 14 16  2  0
 14 17  1  0
 17 18  1  0
 18 19  1  0
 19 20  1  0
 20 21  2  0
 21 22  1  0
 22 23  2  0
 23 24  1  0
 24 25  2  0
  5 26  1  0
 26 27  2  0
 26 28  1  0
 28 29  1  0
 29 30  1  0
 30 31  3  0
 31 32  1  0
 13  7  1  0
 25 20  1  0
M  END
