CVD-0001728|dock_bobby27042020.8|mol2|34|dock2
     RDKit          3D

 24 26  0  0  0  0  0  0  0  0999 V2000
    9.3874    6.0228   23.2259 Cl  0  0  0  0  0  0  0  0  0  0  0  0
   10.4017    4.6301   22.9730 C   0  0  0  0  0  0  0  0  0  0  0  0
   11.7407    4.8129   22.7125 C   0  0  0  0  0  0  0  0  0  0  0  0
   12.5351    3.6979   22.5141 C   0  0  0  0  0  0  0  0  0  0  0  0
   11.9897    2.4267   22.5799 C   0  0  0  0  0  0  0  0  0  0  0  0
   10.6363    2.2461   22.8432 C   0  0  0  0  0  0  0  0  0  0  0  0
    9.8405    3.3713   23.0391 C   0  0  0  0  0  0  0  0  0  0  0  0
   10.0686    0.9251   22.9304 N   0  0  0  0  0  0  0  0  0  0  0  0
   10.5469    0.1217   24.0527 C   0  0  0  0  0  0  0  0  0  0  0  0
   11.9120   -0.3148   23.8576 N   0  0  0  0  0  0  0  0  0  0  0  0
   11.9849   -1.2468   22.7256 C   0  0  0  0  0  0  0  0  0  0  0  0
   13.4022   -1.6969   22.4775 C   0  0  0  0  0  0  0  0  0  0  0  0
   14.0071   -2.3295   23.7031 C   0  0  0  0  0  0  0  0  0  0  0  0
   13.8591   -1.3983   24.8911 C   0  0  0  0  0  0  0  0  0  0  0  0
   12.4260   -0.9732   25.0669 C   0  0  0  0  0  0  0  0  0  0  0  0
    9.1787    0.3365   22.0241 C   0  0  0  0  0  0  0  0  0  0  0  0
    9.0390   -0.8791   22.0568 O   0  0  0  0  0  0  0  0  0  0  0  0
    8.4843    1.1297   21.1421 N   0  0  0  0  0  0  0  0  0  0  0  0
    7.5318    0.7792   20.1501 C   0  0  0  0  0  0  0  0  0  0  0  0
    7.5990   -0.3471   19.3335 C   0  0  0  0  0  0  0  0  0  0  0  0
    6.5956   -0.5756   18.4075 C   0  0  0  0  0  0  0  0  0  0  0  0
    5.5584    0.3229   18.3153 C   0  0  0  0  0  0  0  0  0  0  0  0
    5.4687    1.4126   19.0768 N   0  0  0  0  0  0  0  0  0  0  0  0
    6.4406    1.6219   19.9691 C   0  0  0  0  0  0  0  0  0  0  0  0
  1  2  1  0
  2  3  2  0
  3  4  1  0
  4  5  2  0
  5  6  1  0
  6  7  2  0
  6  8  1  0
  8  9  1  0
  9 10  1  0
 10 11  1  0
 11 12  1  0
 12 13  1  0
 13 14  1  0
 14 15  1  0
  8 16  1  0
 16 17  2  0
 16 18  1  0
 18 19  1  0
 19 20  2  0
 20 21  1  0
 21 22  2  0
 22 23  1  0
 23 24  2  0
  7  2  1  0
 15 10  1  0
 24 19  1  0
M  END
