CVD-0002561|dock_bobby27042020.63|mol2|1|dock2
     RDKit          3D

 30 34  0  0  0  0  0  0  0  0999 V2000
   13.8041   -1.7028   23.7900 N   0  0  0  0  0  0  0  0  0  0  0  0
   13.9463   -0.2711   23.4433 C   0  0  0  0  0  0  0  0  0  0  0  0
   12.8146    0.2349   22.5595 C   0  0  0  0  0  0  0  0  0  0  0  0
   11.6027   -0.3540   23.0392 O   0  0  0  0  0  0  0  0  0  0  0  0
   10.4729    0.0805   22.2681 C   0  0  0  0  0  0  0  0  0  0  0  0
   10.2164    1.5445   22.5021 C   0  0  0  0  0  0  0  0  0  0  0  0
   11.4769    2.3676   22.5580 C   0  0  0  0  0  0  0  0  0  0  0  0
   11.4260    3.7702   22.5972 C   0  0  0  0  0  0  0  0  0  0  0  0
   10.2427    4.4559   22.5421 O   0  0  0  0  0  0  0  0  0  0  0  0
   12.6027    4.5190   22.5924 C   0  0  0  0  0  0  0  0  0  0  0  0
   12.5240    5.8749   22.5739 O   0  0  0  0  0  0  0  0  0  0  0  0
   13.8366    3.8861   22.5490 C   0  0  0  0  0  0  0  0  0  0  0  0
   13.8841    2.5054   22.5104 C   0  0  0  0  0  0  0  0  0  0  0  0
   12.7151    1.7428   22.5146 C   0  0  0  0  0  0  0  0  0  0  0  0
    9.2915   -0.8002   22.6730 C   0  0  0  0  0  0  0  0  0  0  0  0
    9.3209   -1.2236   24.1449 C   0  0  0  0  0  0  0  0  0  0  0  0
    8.1489   -2.1216   24.4812 C   0  0  0  0  0  0  0  0  0  0  0  0
    8.1476   -3.3255   23.6468 N   0  0  0  0  0  0  0  0  0  0  0  0
    7.0493   -4.2257   24.0310 C   0  0  0  0  0  0  0  0  0  0  0  0
    7.2738   -4.9598   25.3321 C   0  0  0  0  0  0  0  0  0  0  0  0
    8.2454   -5.9463   25.4315 C   0  0  0  0  0  0  0  0  0  0  0  0
    8.4614   -6.6328   26.6149 C   0  0  0  0  0  0  0  0  0  0  0  0
    7.6844   -6.3250   27.7270 C   0  0  0  0  0  0  0  0  0  0  0  0
    7.6824   -6.8359   29.0021 N   0  0  0  0  0  0  0  0  0  0  0  0
    6.7138   -6.1890   29.7322 C   0  0  0  0  0  0  0  0  0  0  0  0
    6.0861   -5.2686   28.9596 C   0  0  0  0  0  0  0  0  0  0  0  0
    6.6909   -5.3352   27.6657 C   0  0  0  0  0  0  0  0  0  0  0  0
    6.5037   -4.6639   26.4502 C   0  0  0  0  0  0  0  0  0  0  0  0
    8.0382   -2.9480   22.2390 C   0  0  0  0  0  0  0  0  0  0  0  0
    9.2013   -2.0668   21.8136 C   0  0  0  0  0  0  0  0  0  0  0  0
  1  2  1  0
  2  3  1  0
  3  4  1  0
  4  5  1  0
  5  6  1  0
  6  7  1  0
  7  8  2  0
  8  9  1  0
  8 10  1  0
 10 11  1  0
 10 12  2  0
 12 13  1  0
 13 14  2  0
  5 15  1  0
 15 16  1  0
 16 17  1  0
 17 18  1  0
 18 19  1  0
 19 20  1  0
 20 21  2  0
 21 22  1  0
 22 23  2  0
 23 24  1  0
 24 25  1  0
 25 26  2  0
 26 27  1  0
 27 28  2  0
 18 29  1  0
 29 30  1  0
 14  3  1  0
 30 15  1  0
 14  7  1  0
 28 20  1  0
 27 23  1  0
M  END
