CVD-0000052|dock_bobby27042020.14|mol2|20|dock2
     RDKit          3D

 35 37  0  0  0  0  0  0  0  0999 V2000
    2.3501    2.6579   20.2668 C   0  0  0  0  0  0  0  0  0  0  0  0
    3.6434    2.1647   20.6073 O   0  0  0  0  0  0  0  0  0  0  0  0
    4.3648    1.6050   19.6374 C   0  0  0  0  0  0  0  0  0  0  0  0
    4.5660    2.3296   18.5470 N   0  0  0  0  0  0  0  0  0  0  0  0
    5.2964    1.6910   17.6326 C   0  0  0  0  0  0  0  0  0  0  0  0
    5.8107    0.4644   17.7165 N   0  0  0  0  0  0  0  0  0  0  0  0
    5.5229   -0.1370   18.8744 C   0  0  0  0  0  0  0  0  0  0  0  0
    6.0638   -1.5287   19.0835 C   0  0  0  0  0  0  0  0  0  0  0  0
    6.8777   -1.5805   20.3058 N   0  0  0  0  0  0  0  0  0  0  0  0
    7.8929   -0.6218   20.4165 C   0  0  0  0  0  0  0  0  0  0  0  0
    8.1155    0.1390   19.4826 O   0  0  0  0  0  0  0  0  0  0  0  0
    8.6095   -0.5525   21.5818 N   0  0  0  0  0  0  0  0  0  0  0  0
    9.6700    0.3775   21.8547 C   0  0  0  0  0  0  0  0  0  0  0  0
   10.9614   -0.1456   22.0166 C   0  0  0  0  0  0  0  0  0  0  0  0
   11.2137   -1.6284   21.8156 C   0  0  0  0  0  0  0  0  0  0  0  0
   11.1876   -2.4325   23.1030 C   0  0  0  0  0  0  0  0  0  0  0  0
   12.5274   -2.6741   23.6190 N   0  0  0  0  0  0  0  0  0  0  0  0
   12.8824   -2.3712   24.8691 C   0  0  0  0  0  0  0  0  0  0  0  0
   14.2954   -2.6997   25.2526 C   0  0  0  0  0  0  0  0  0  0  0  0
   12.0944   -1.8675   25.6635 O   0  0  0  0  0  0  0  0  0  0  0  0
   12.0043    0.7218   22.3671 C   0  0  0  0  0  0  0  0  0  0  0  0
   13.4235    0.2608   22.5733 C   0  0  0  0  0  0  0  0  0  0  0  0
   11.6904    2.0627   22.5369 C   0  0  0  0  0  0  0  0  0  0  0  0
   10.4746    2.5864   22.3596 N   0  0  0  0  0  0  0  0  0  0  0  0
    9.4689    1.7750   21.9568 C   0  0  0  0  0  0  0  0  0  0  0  0
    8.2102    2.4549   21.6280 C   0  0  0  0  0  0  0  0  0  0  0  0
    7.9759    3.7220   21.8010 C   0  0  0  0  0  0  0  0  0  0  0  0
    6.5296   -2.6293   21.2085 C   0  0  0  0  0  0  0  0  0  0  0  0
    6.1648   -2.4172   22.5400 C   0  0  0  0  0  0  0  0  0  0  0  0
    5.8499   -3.4976   23.3516 C   0  0  0  0  0  0  0  0  0  0  0  0
    5.4536   -3.2924   24.7933 C   0  0  0  0  0  0  0  0  0  0  0  0
    5.9035   -4.7655   22.8021 C   0  0  0  0  0  0  0  0  0  0  0  0
    6.2668   -4.8978   21.4803 C   0  0  0  0  0  0  0  0  0  0  0  0
    6.5739   -3.8611   20.6925 N   0  0  0  0  0  0  0  0  0  0  0  0
    4.8042    0.3737   19.8767 N   0  0  0  0  0  0  0  0  0  0  0  0
  1  2  1  0
  2  3  1  0
  3  4  2  0
  4  5  1  0
  5  6  2  0
  6  7  1  0
  7  8  1  0
  8  9  1  0
  9 10  1  0
 10 11  2  0
 10 12  1  0
 12 13  1  0
 13 14  2  0
 14 15  1  0
 15 16  1  0
 16 17  1  0
 17 18  1  0
 18 19  1  0
 18 20  2  0
 14 21  1  0
 21 22  1  0
 21 23  2  0
 23 24  1  0
 24 25  2  0
 25 26  1  0
 26 27  2  0
  9 28  1  0
 28 29  2  0
 29 30  1  0
 30 31  1  0
 30 32  2  0
 32 33  1  0
 33 34  2  0
  7 35  2  0
 35  3  1  0
 25 13  1  0
 34 28  1  0
M  END
