CVD-0004007|dock_bobby27042020.29|mol2|8|dock1
     RDKit          3D

 16 16  0  0  0  0  0  0  0  0999 V2000
   13.2368   -1.8637   21.0185 N   0  0  0  0  0  0  0  0  0  0  0  0
   12.7883   -1.2487   22.4278 S   0  0  0  0  0  0  0  0  0  0  0  0
   13.8512   -0.3717   22.8179 O   0  0  0  0  0  0  0  0  0  0  0  0
   12.4628   -2.3304   23.3088 O   0  0  0  0  0  0  0  0  0  0  0  0
   11.3317   -0.2539   22.2079 C   0  0  0  0  0  0  0  0  0  0  0  0
   10.2087   -0.9522   21.7803 C   0  0  0  0  0  0  0  0  0  0  0  0
    9.0089   -0.2842   21.6191 C   0  0  0  0  0  0  0  0  0  0  0  0
    8.9289    1.0661   21.8654 C   0  0  0  0  0  0  0  0  0  0  0  0
   10.0495    1.7741   22.2611 C   0  0  0  0  0  0  0  0  0  0  0  0
   11.2822    1.1370   22.4409 C   0  0  0  0  0  0  0  0  0  0  0  0
   12.4650    1.9719   22.8606 C   0  0  0  0  0  0  0  0  0  0  0  0
   13.1499    1.6517   23.8250 O   0  0  0  0  0  0  0  0  0  0  0  0
   12.7784    3.0768   22.1750 N   0  0  0  0  0  0  0  0  0  0  0  0
   13.9225    3.8799   22.5851 C   0  0  0  0  0  0  0  0  0  0  0  0
   13.9434    5.1994   21.9293 C   0  0  0  0  0  0  0  0  0  0  0  0
   13.9871    6.2308   21.4553 N   0  0  0  0  0  0  0  0  0  0  0  0
  1  2  1  0
  2  3  2  0
  2  4  2  0
  2  5  1  0
  5  6  2  0
  6  7  1  0
  7  8  2  0
  8  9  1  0
  9 10  2  0
 10 11  1  0
 11 12  2  0
 11 13  1  0
 13 14  1  0
 14 15  1  0
 15 16  3  0
 10  5  1  0
M  END
