CVD-0003968|dock_bobby27042020.86|mol2|14|dock3
     RDKit          3D

 20 22  0  0  0  0  0  0  0  0999 V2000
    5.5842   -0.3208   17.6364 O   0  0  0  0  0  0  0  0  0  0  0  0
    6.2321   -0.6598   18.7884 C   0  0  0  0  0  0  0  0  0  0  0  0
    7.0234    0.2836   19.4338 C   0  0  0  0  0  0  0  0  0  0  0  0
    7.6874   -0.0561   20.5991 C   0  0  0  0  0  0  0  0  0  0  0  0
    7.5311   -1.3427   21.0783 C   0  0  0  0  0  0  0  0  0  0  0  0
    6.7571   -2.3067   20.4695 C   0  0  0  0  0  0  0  0  0  0  0  0
    6.0954   -1.9472   19.2966 C   0  0  0  0  0  0  0  0  0  0  0  0
    6.8289   -3.6039   21.2226 C   0  0  0  0  0  0  0  0  0  0  0  0
    6.2341   -4.6282   20.8809 O   0  0  0  0  0  0  0  0  0  0  0  0
    7.6304   -3.5457   22.3433 N   0  0  0  0  0  0  0  0  0  0  0  0
    8.2114   -2.0865   22.5264 S   0  0  0  0  0  0  0  0  0  0  0  0
    7.9255   -1.3657   23.7494 O   0  0  0  0  0  0  0  0  0  0  0  0
    9.9571   -2.1731   22.3272 C   0  0  0  0  0  0  0  0  0  0  0  0
   10.3798   -2.1025   21.2129 O   0  0  0  0  0  0  0  0  0  0  0  0
   10.7047   -2.3120   23.4278 O   0  0  0  0  0  0  0  0  0  0  0  0
   12.1209   -2.3969   23.4375 C   0  0  0  0  0  0  0  0  0  0  0  0
   12.8997   -2.5453   24.6267 C   0  0  0  0  0  0  0  0  0  0  0  0
   14.1775   -2.5887   24.2478 C   0  0  0  0  0  0  0  0  0  0  0  0
   14.2733   -2.4782   22.8946 O   0  0  0  0  0  0  0  0  0  0  0  0
   12.9961   -2.3623   22.4274 C   0  0  0  0  0  0  0  0  0  0  0  0
  1  2  1  0
  2  3  2  0
  3  4  1  0
  4  5  2  0
  5  6  1  0
  6  7  2  0
  6  8  1  0
  8  9  2  0
  8 10  1  0
 10 11  2  0
 11 12  2  0
 11 13  1  0
 13 14  2  0
 13 15  1  0
 15 16  1  0
 16 17  1  0
 17 18  2  0
 18 19  1  0
 19 20  1  0
  7  2  1  0
 20 16  2  0
 11  5  1  0
M  END
