CVD-0001659|dock_bobby27042020.9|mol2|6|dock1
     RDKit          3D

 20 22  0  0  0  0  0  0  0  0999 V2000
    9.6822    6.7618   22.9483 N   0  0  0  0  0  0  0  0  0  0  0  0
    9.9837    5.6601   22.9652 C   0  0  0  0  0  0  0  0  0  0  0  0
   10.4181    4.2796   22.9916 C   0  0  0  0  0  0  0  0  0  0  0  0
    9.4533    3.4199   23.3654 N   0  0  0  0  0  0  0  0  0  0  0  0
    9.7460    2.1159   23.4196 C   0  0  0  0  0  0  0  0  0  0  0  0
   10.9952    1.5848   23.1262 C   0  0  0  0  0  0  0  0  0  0  0  0
   11.9824    2.4908   22.7401 C   0  0  0  0  0  0  0  0  0  0  0  0
   11.7168    3.8572   22.6624 C   0  0  0  0  0  0  0  0  0  0  0  0
   12.8367    4.7250   22.2394 C   0  0  0  0  0  0  0  0  0  0  0  0
   13.7763    4.3960   21.4078 N   0  0  0  0  0  0  0  0  0  0  0  0
   14.5776    5.5105   21.3278 C   0  0  0  0  0  0  0  0  0  0  0  0
   14.0818    6.4799   22.1256 C   0  0  0  0  0  0  0  0  0  0  0  0
   12.9528    5.9948   22.7278 O   0  0  0  0  0  0  0  0  0  0  0  0
   11.2566    0.2174   23.2055 N   0  0  0  0  0  0  0  0  0  0  0  0
   12.0172   -0.2792   24.3578 C   0  0  0  0  0  0  0  0  0  0  0  0
   13.5245   -0.4479   24.0606 C   0  0  0  0  0  0  0  0  0  0  0  0
   13.7734   -1.6813   23.1644 C   0  0  0  0  0  0  0  0  0  0  0  0
   13.0681   -1.4935   21.9375 O   0  0  0  0  0  0  0  0  0  0  0  0
   11.7005   -1.9047   21.9491 C   0  0  0  0  0  0  0  0  0  0  0  0
   10.7432   -0.7148   22.1892 C   0  0  0  0  0  0  0  0  0  0  0  0
  1  2  3  0
  2  3  1  0
  3  4  2  0
  4  5  1  0
  5  6  2  0
  6  7  1  0
  7  8  2  0
  8  9  1  0
  9 10  2  0
 10 11  1  0
 11 12  2  0
 12 13  1  0
  6 14  1  0
 14 15  1  0
 15 16  1  0
 16 17  1  0
 17 18  1  0
 18 19  1  0
 19 20  1  0
  8  3  1  0
 13  9  1  0
 20 14  1  0
M  END
