CVD-0001868|dock_bobby27042020.79|mol2|35|dock2
     RDKit          3D

 16 17  0  0  0  0  0  0  0  0999 V2000
   14.9159   -1.9084   24.8997 Cl  0  0  0  0  0  0  0  0  0  0  0  0
   14.0841   -2.2226   23.3711 C   0  0  0  0  0  0  0  0  0  0  0  0
   12.6054   -1.9020   23.4709 C   0  0  0  0  0  0  0  0  0  0  0  0
   11.7539   -2.7701   23.3273 O   0  0  0  0  0  0  0  0  0  0  0  0
   12.2751   -0.6178   23.7190 N   0  0  0  0  0  0  0  0  0  0  0  0
   13.2732    0.4407   23.8870 C   0  0  0  0  0  0  0  0  0  0  0  0
   12.9916    1.5903   22.9375 C   0  0  0  0  0  0  0  0  0  0  0  0
   11.6455    2.1221   23.1697 N   0  0  0  0  0  0  0  0  0  0  0  0
   11.3831    3.2585   22.2821 C   0  0  0  0  0  0  0  0  0  0  0  0
   12.2254    4.4646   22.5796 C   0  0  0  0  0  0  0  0  0  0  0  0
   13.3423    4.8792   21.8859 C   0  0  0  0  0  0  0  0  0  0  0  0
   13.8849    6.0625   22.4429 C   0  0  0  0  0  0  0  0  0  0  0  0
   13.2010    6.5150   23.5064 C   0  0  0  0  0  0  0  0  0  0  0  0
   11.8668    5.5168   23.8727 S   0  0  0  0  0  0  0  0  0  0  0  0
   10.6681    1.0604   22.9440 C   0  0  0  0  0  0  0  0  0  0  0  0
   10.9120   -0.1043   23.8863 C   0  0  0  0  0  0  0  0  0  0  0  0
  1  2  1  0
  2  3  1  0
  3  4  2  0
  3  5  1  0
  5  6  1  0
  6  7  1  0
  7  8  1  0
  8  9  1  0
  9 10  1  0
 10 11  2  0
 11 12  1  0
 12 13  2  0
 13 14  1  0
  8 15  1  0
 15 16  1  0
 16  5  1  0
 14 10  1  0
M  END
