CVD-0000925|dock_bobby27042020.40|mol2|5|dock1
     RDKit          3D

 41 44  0  0  0  0  0  0  0  0999 V2000
   10.2804   -5.9464   26.2926 C   0  0  0  0  0  0  0  0  0  0  0  0
    8.9285   -5.3667   26.6427 C   0  0  0  0  0  0  0  0  0  0  0  0
    8.3766   -6.0076   27.7233 N   0  0  0  0  0  0  0  0  0  0  0  0
    8.0327   -5.4220   25.5026 N   0  0  0  0  0  0  0  0  0  0  0  0
    6.9173   -4.4682   25.4192 C   0  0  0  0  0  0  0  0  0  0  0  0
    6.1292   -4.4226   26.7373 C   0  0  0  0  0  0  0  0  0  0  0  0
    4.8692   -3.5853   26.6717 C   0  0  0  0  0  0  0  0  0  0  0  0
    4.1924   -3.4605   27.8024 N   0  0  0  0  0  0  0  0  0  0  0  0
    4.4991   -3.0632   25.6161 O   0  0  0  0  0  0  0  0  0  0  0  0
    7.5071   -3.1002   25.0761 C   0  0  0  0  0  0  0  0  0  0  0  0
    7.2848   -2.1417   25.8110 O   0  0  0  0  0  0  0  0  0  0  0  0
    8.2626   -2.9952   23.9786 N   0  0  0  0  0  0  0  0  0  0  0  0
    8.8734   -1.7338   23.5735 C   0  0  0  0  0  0  0  0  0  0  0  0
   10.1400   -1.4337   24.3829 C   0  0  0  0  0  0  0  0  0  0  0  0
   11.4056   -2.0294   23.8119 C   0  0  0  0  0  0  0  0  0  0  0  0
   11.6158   -1.3601   22.4699 C   0  0  0  0  0  0  0  0  0  0  0  0
   10.5092   -1.6318   21.4407 C   0  0  0  0  0  0  0  0  0  0  0  0
    9.1241   -1.5282   22.0868 N   0  0  0  0  0  0  0  0  0  0  0  0
    7.9673   -1.3393   21.4060 C   0  0  0  0  0  0  0  0  0  0  0  0
    6.9012   -1.3741   22.0076 O   0  0  0  0  0  0  0  0  0  0  0  0
    7.9777   -1.0837   19.9113 C   0  0  0  0  0  0  0  0  0  0  0  0
    6.3508   -1.2294   19.2337 Cl  0  0  0  0  0  0  0  0  0  0  0  0
   11.8092    0.1252   22.5814 C   0  0  0  0  0  0  0  0  0  0  0  0
   10.8148    0.9556   22.5787 N   0  0  0  0  0  0  0  0  0  0  0  0
   11.2451    2.2734   22.6899 C   0  0  0  0  0  0  0  0  0  0  0  0
   10.4547    3.4464   22.7170 C   0  0  0  0  0  0  0  0  0  0  0  0
   11.0858    4.6854   22.8618 C   0  0  0  0  0  0  0  0  0  0  0  0
   12.4633    4.7841   22.9659 C   0  0  0  0  0  0  0  0  0  0  0  0
   13.2500    3.6475   22.9265 C   0  0  0  0  0  0  0  0  0  0  0  0
   12.6366    2.4066   22.7896 C   0  0  0  0  0  0  0  0  0  0  0  0
   13.3970    0.8444   22.7165 S   0  0  0  0  0  0  0  0  0  0  0  0
    8.9656    3.4425   22.6012 C   0  0  0  0  0  0  0  0  0  0  0  0
    8.2939    2.5772   21.7410 C   0  0  0  0  0  0  0  0  0  0  0  0
    6.9130    2.5718   21.6541 C   0  0  0  0  0  0  0  0  0  0  0  0
    6.1776    3.4519   22.4297 C   0  0  0  0  0  0  0  0  0  0  0  0
    6.8179    4.3339   23.2830 C   0  0  0  0  0  0  0  0  0  0  0  0
    8.1991    4.3214   23.3615 C   0  0  0  0  0  0  0  0  0  0  0  0
    4.4137    3.4569   22.3213 S   0  0  0  0  0  0  0  0  0  0  0  0
    3.9677    4.6590   21.3625 N   0  0  0  0  0  0  0  0  0  0  0  0
    3.9058    3.7472   23.6285 O   0  0  0  0  0  0  0  0  0  0  0  0
    4.0211    2.2372   21.6817 O   0  0  0  0  0  0  0  0  0  0  0  0
  1  2  1  0
  2  3  1  0
  2  4  1  0
  4  5  1  0
  5  6  1  0
  6  7  1  0
  7  8  1  0
  7  9  2  0
  5 10  1  0
 10 11  2  0
 10 12  1  0
 12 13  1  0
 13 14  1  0
 14 15  1  0
 15 16  1  0
 16 17  1  0
 17 18  1  0
 18 19  1  0
 19 20  2  0
 19 21  1  0
 21 22  1  0
 16 23  1  0
 23 24  2  0
 24 25  1  0
 25 26  2  0
 26 27  1  0
 27 28  2  0
 28 29  1  0
 29 30  2  0
 30 31  1  0
 26 32  1  0
 32 33  2  0
 33 34  1  0
 34 35  2  0
 35 36  1  0
 36 37  2  0
 35 38  1  0
 38 39  1  0
 38 40  2  0
 38 41  2  0
 18 13  1  0
 31 23  1  0
 37 32  1  0
 30 25  1  0
M  END
