CVD-0001227|dock_bobby27042020.96|mol2|5|dock1
     RDKit          3D

 22 23  0  0  0  0  0  0  0  0999 V2000
   14.2360    5.8039   21.8506 C   0  0  0  0  0  0  0  0  0  0  0  0
   13.9288    4.5853   22.6704 C   0  0  0  0  0  0  0  0  0  0  0  0
   14.4495    4.4152   23.7676 O   0  0  0  0  0  0  0  0  0  0  0  0
   13.0609    3.7265   22.0752 N   0  0  0  0  0  0  0  0  0  0  0  0
   12.5309    2.4799   22.4915 C   0  0  0  0  0  0  0  0  0  0  0  0
   11.2675    2.0253   22.1241 C   0  0  0  0  0  0  0  0  0  0  0  0
   10.8053    0.7971   22.5640 C   0  0  0  0  0  0  0  0  0  0  0  0
   11.5918   -0.0070   23.3810 C   0  0  0  0  0  0  0  0  0  0  0  0
   11.1445   -1.2355   23.8292 N   0  0  0  0  0  0  0  0  0  0  0  0
   10.1755   -2.0419   23.1122 C   0  0  0  0  0  0  0  0  0  0  0  0
   10.3433   -1.9353   21.6089 C   0  0  0  0  0  0  0  0  0  0  0  0
   11.4555   -1.9597   21.0911 O   0  0  0  0  0  0  0  0  0  0  0  0
    9.1911   -1.8062   20.9139 N   0  0  0  0  0  0  0  0  0  0  0  0
    8.2591   -1.6139   19.8656 C   0  0  0  0  0  0  0  0  0  0  0  0
    8.4050   -0.6855   18.8365 C   0  0  0  0  0  0  0  0  0  0  0  0
    7.5065   -0.5278   17.8589 N   0  0  0  0  0  0  0  0  0  0  0  0
    6.4236   -1.3033   17.8815 C   0  0  0  0  0  0  0  0  0  0  0  0
    6.1877   -2.2501   18.8554 C   0  0  0  0  0  0  0  0  0  0  0  0
    7.1148   -2.4220   19.8783 C   0  0  0  0  0  0  0  0  0  0  0  0
    6.8885   -3.4499   20.9553 C   0  0  0  0  0  0  0  0  0  0  0  0
   12.8521    0.4461   23.7471 C   0  0  0  0  0  0  0  0  0  0  0  0
   13.3145    1.6733   23.3076 C   0  0  0  0  0  0  0  0  0  0  0  0
  1  2  1  0
  2  3  2  0
  2  4  1  0
  4  5  1  0
  5  6  2  0
  6  7  1  0
  7  8  2  0
  8  9  1  0
  9 10  1  0
 10 11  1  0
 11 12  2  0
 11 13  1  0
 13 14  1  0
 14 15  2  0
 15 16  1  0
 16 17  2  0
 17 18  1  0
 18 19  2  0
 19 20  1  0
  8 21  1  0
 21 22  2  0
 22  5  1  0
 19 14  1  0
M  END
