CVD-0001480|dock_bobby27042020.23|mol2|42|dock2
     RDKit          3D

 28 30  0  0  0  0  0  0  0  0999 V2000
    7.1820    8.6160   25.3802 C   0  0  0  0  0  0  0  0  0  0  0  0
    6.9177    8.1573   23.9754 C   0  0  0  0  0  0  0  0  0  0  0  0
    5.9284    8.5633   23.3759 O   0  0  0  0  0  0  0  0  0  0  0  0
    7.7876    7.3034   23.3703 N   0  0  0  0  0  0  0  0  0  0  0  0
    7.6060    6.8254   21.9980 C   0  0  0  0  0  0  0  0  0  0  0  0
    7.6355    5.3088   21.9568 C   0  0  0  0  0  0  0  0  0  0  0  0
    8.9013    4.8109   22.5032 N   0  0  0  0  0  0  0  0  0  0  0  0
    8.9516    3.3439   22.4291 C   0  0  0  0  0  0  0  0  0  0  0  0
   10.3511    2.7950   22.5845 C   0  0  0  0  0  0  0  0  0  0  0  0
   11.4329    3.6703   22.5633 C   0  0  0  0  0  0  0  0  0  0  0  0
   12.7377    3.2061   22.7070 C   0  0  0  0  0  0  0  0  0  0  0  0
   12.9640    1.8457   22.8743 C   0  0  0  0  0  0  0  0  0  0  0  0
   11.8922    0.9730   22.8953 C   0  0  0  0  0  0  0  0  0  0  0  0
   10.5819    1.4229   22.7531 C   0  0  0  0  0  0  0  0  0  0  0  0
    9.4460    0.4299   22.7767 C   0  0  0  0  0  0  0  0  0  0  0  0
    8.8082    0.2520   21.4805 N   0  0  0  0  0  0  0  0  0  0  0  0
    7.5518    0.6880   21.2782 C   0  0  0  0  0  0  0  0  0  0  0  0
    6.9408    1.2810   22.1589 O   0  0  0  0  0  0  0  0  0  0  0  0
    6.9493    0.4656   20.0760 N   0  0  0  0  0  0  0  0  0  0  0  0
    5.7944    1.2410   19.6086 C   0  0  0  0  0  0  0  0  0  0  0  0
    4.7379    0.3081   19.0525 C   0  0  0  0  0  0  0  0  0  0  0  0
    5.2506   -0.5192   18.0277 O   0  0  0  0  0  0  0  0  0  0  0  0
    6.3249   -1.3149   18.5292 C   0  0  0  0  0  0  0  0  0  0  0  0
    7.4525   -0.4504   19.0478 C   0  0  0  0  0  0  0  0  0  0  0  0
   13.8412    4.1341   22.6815 C   0  0  0  0  0  0  0  0  0  0  0  0
   14.6938    4.8939   22.6549 N   0  0  0  0  0  0  0  0  0  0  0  0
    9.0314    5.2578   23.8877 C   0  0  0  0  0  0  0  0  0  0  0  0
    9.0176    6.7735   23.9671 C   0  0  0  0  0  0  0  0  0  0  0  0
  1  2  1  0
  2  3  2  0
  2  4  1  0
  4  5  1  0
  5  6  1  0
  6  7  1  0
  7  8  1  0
  8  9  1  0
  9 10  2  0
 10 11  1  0
 11 12  2  0
 12 13  1  0
 13 14  2  0
 14 15  1  0
 15 16  1  0
 16 17  1  0
 17 18  2  0
 17 19  1  0
 19 20  1  0
 20 21  1  0
 21 22  1  0
 22 23  1  0
 23 24  1  0
 11 25  1  0
 25 26  3  0
  7 27  1  0
 27 28  1  0
 28  4  1  0
 14  9  1  0
 24 19  1  0
M  END
