CVD-0001300|dock_bobby27042020.81|mol2|30|dock1
     RDKit          3D

 16 16  0  0  0  0  0  0  0  0999 V2000
   13.9526   -2.3969   25.4600 C   0  0  0  0  0  0  0  0  0  0  0  0
   13.0510   -2.2505   24.2414 C   0  0  0  0  0  0  0  0  0  0  0  0
   13.8914   -2.2217   22.9726 C   0  0  0  0  0  0  0  0  0  0  0  0
   12.2540   -0.9618   24.3345 C   0  0  0  0  0  0  0  0  0  0  0  0
   12.7175   -0.0170   24.9442 O   0  0  0  0  0  0  0  0  0  0  0  0
   11.0514   -0.8782   23.7307 N   0  0  0  0  0  0  0  0  0  0  0  0
   10.4649   -1.8902   22.8559 C   0  0  0  0  0  0  0  0  0  0  0  0
    9.8946   -1.2340   21.6154 C   0  0  0  0  0  0  0  0  0  0  0  0
    8.8592   -0.1821   21.9939 C   0  0  0  0  0  0  0  0  0  0  0  0
    9.4858    0.8297   22.9508 C   0  0  0  0  0  0  0  0  0  0  0  0
   10.0824    0.1229   24.1634 C   0  0  0  0  0  0  0  0  0  0  0  0
    8.3129    0.5052   20.7632 C   0  0  0  0  0  0  0  0  0  0  0  0
    8.5325    1.6561   20.4870 O   0  0  0  0  0  0  0  0  0  0  0  0
    7.3073   -0.5001   19.7257 S   0  0  0  0  0  0  0  0  0  0  0  0
    6.5612    0.6240   18.5721 C   0  0  0  0  0  0  0  0  0  0  0  0
    5.8482    1.6091   19.2204 F   0  0  0  0  0  0  0  0  0  0  0  0
  1  2  1  0
  2  3  1  0
  2  4  1  0
  4  5  2  0
  4  6  1  0
  6  7  1  0
  7  8  1  0
  8  9  1  0
  9 10  1  0
 10 11  1  0
  9 12  1  0
 12 13  2  0
 12 14  1  0
 14 15  1  0
 15 16  1  0
 11  6  1  0
M  END
