CVD-0003691|dock_bobby27042020.44|mol2|31|dock2
     RDKit          3D

 26 28  0  0  0  0  0  0  0  0999 V2000
   13.3380    0.2014   25.2689 O   0  0  0  0  0  0  0  0  0  0  0  0
   12.4870   -0.9209   25.0285 C   0  0  0  0  0  0  0  0  0  0  0  0
   13.2304   -2.1700   25.4613 C   0  0  0  0  0  0  0  0  0  0  0  0
   14.5731   -2.5365   24.3413 Cl  0  0  0  0  0  0  0  0  0  0  0  0
   12.0235   -0.9825   23.5664 C   0  0  0  0  0  0  0  0  0  0  0  0
   11.1827   -2.2263   23.3530 C   0  0  0  0  0  0  0  0  0  0  0  0
   10.5175   -2.2366   21.9906 C   0  0  0  0  0  0  0  0  0  0  0  0
   11.4562   -2.3117   20.9471 F   0  0  0  0  0  0  0  0  0  0  0  0
    9.7346   -0.9549   21.8023 C   0  0  0  0  0  0  0  0  0  0  0  0
    9.1632   -0.7976   20.5102 N   0  0  0  0  0  0  0  0  0  0  0  0
    8.0353   -0.0245   20.2453 C   0  0  0  0  0  0  0  0  0  0  0  0
    7.3680   -0.1792   19.0351 C   0  0  0  0  0  0  0  0  0  0  0  0
    6.2435    0.5845   18.7582 C   0  0  0  0  0  0  0  0  0  0  0  0
    5.5947    0.4268   17.5684 O   0  0  0  0  0  0  0  0  0  0  0  0
    5.7734    1.5071   19.6808 C   0  0  0  0  0  0  0  0  0  0  0  0
    6.4400    1.6590   20.8874 C   0  0  0  0  0  0  0  0  0  0  0  0
    5.9852    2.5639   21.8016 O   0  0  0  0  0  0  0  0  0  0  0  0
    7.5652    0.8995   21.1734 C   0  0  0  0  0  0  0  0  0  0  0  0
   10.5854    0.1850   22.0023 O   0  0  0  0  0  0  0  0  0  0  0  0
   11.2097    0.2664   23.2877 C   0  0  0  0  0  0  0  0  0  0  0  0
   11.9745    1.5755   23.2062 C   0  0  0  0  0  0  0  0  0  0  0  0
   11.2712    2.7281   22.4931 C   0  0  0  0  0  0  0  0  0  0  0  0
   12.0929    3.8905   22.2378 C   0  0  0  0  0  0  0  0  0  0  0  0
   11.4317    5.0799   23.0005 C   0  0  0  0  0  0  0  0  0  0  0  0
   10.2131    4.4671   23.6100 N   0  0  0  0  0  0  0  0  0  0  0  0
   10.0873    3.0639   23.2980 C   0  0  0  0  0  0  0  0  0  0  0  0
  1  2  1  0
  2  3  1  0
  3  4  1  0
  2  5  1  0
  5  6  1  0
  6  7  1  0
  7  8  1  0
  7  9  1  0
  9 10  1  0
 10 11  1  0
 11 12  2  0
 12 13  1  0
 13 14  1  0
 13 15  2  0
 15 16  1  0
 16 17  1  0
 16 18  2  0
  9 19  1  0
 19 20  1  0
 20 21  1  0
 21 22  1  0
 22 23  1  0
 23 24  1  0
 24 25  1  0
 25 26  1  0
 20  5  1  0
 26 22  1  0
 18 11  1  0
M  END
