CVD-0002334|dock_bobby27042020.63|mol2|36|dock1
     RDKit          3D

 29 31  0  0  0  0  0  0  0  0999 V2000
    7.0944    7.4395   22.4686 C   0  0  0  0  0  0  0  0  0  0  0  0
    7.9703    5.9343   22.6551 S   0  0  0  0  0  0  0  0  0  0  0  0
    7.3690    5.1854   23.7151 O   0  0  0  0  0  0  0  0  0  0  0  0
    8.0801    5.3239   21.3661 O   0  0  0  0  0  0  0  0  0  0  0  0
    9.4810    6.3208   23.1263 N   0  0  0  0  0  0  0  0  0  0  0  0
   10.5605    5.3903   23.2436 C   0  0  0  0  0  0  0  0  0  0  0  0
   11.8223    5.8051   23.6539 C   0  0  0  0  0  0  0  0  0  0  0  0
   12.8503    4.8831   23.7593 C   0  0  0  0  0  0  0  0  0  0  0  0
   12.6297    3.5496   23.4583 C   0  0  0  0  0  0  0  0  0  0  0  0
   11.3716    3.1221   23.0466 C   0  0  0  0  0  0  0  0  0  0  0  0
   10.3424    4.0507   22.9423 C   0  0  0  0  0  0  0  0  0  0  0  0
   11.1075    1.6872   22.7156 C   0  0  0  0  0  0  0  0  0  0  0  0
   11.8947    0.7974   22.9942 O   0  0  0  0  0  0  0  0  0  0  0  0
    9.9033    1.5149   22.0794 O   0  0  0  0  0  0  0  0  0  0  0  0
    9.4390    0.2808   21.6741 C   0  0  0  0  0  0  0  0  0  0  0  0
   10.0209   -0.7722   21.8258 O   0  0  0  0  0  0  0  0  0  0  0  0
    8.2313    0.4917   21.0884 N   0  0  0  0  0  0  0  0  0  0  0  0
    7.3249   -0.4263   20.5015 C   0  0  0  0  0  0  0  0  0  0  0  0
    6.6069   -0.1433   19.3450 C   0  0  0  0  0  0  0  0  0  0  0  0
    5.7413   -1.0887   18.8289 C   0  0  0  0  0  0  0  0  0  0  0  0
    5.5842   -2.3149   19.4492 C   0  0  0  0  0  0  0  0  0  0  0  0
    6.2936   -2.6168   20.6082 C   0  0  0  0  0  0  0  0  0  0  0  0
    7.1628   -1.6582   21.1288 C   0  0  0  0  0  0  0  0  0  0  0  0
    6.1145   -3.9006   21.2380 N   0  0  0  0  0  0  0  0  0  0  0  0
    6.1048   -4.0416   22.6960 C   0  0  0  0  0  0  0  0  0  0  0  0
    5.8565   -5.5115   22.9298 C   0  0  0  0  0  0  0  0  0  0  0  0
    5.9327   -6.1947   21.5879 C   0  0  0  0  0  0  0  0  0  0  0  0
    6.0422   -5.0994   20.5701 C   0  0  0  0  0  0  0  0  0  0  0  0
    6.0731   -5.1935   19.3503 O   0  0  0  0  0  0  0  0  0  0  0  0
  1  2  1  0
  2  3  2  0
  2  4  2  0
  2  5  1  0
  5  6  1  0
  6  7  2  0
  7  8  1  0
  8  9  2  0
  9 10  1  0
 10 11  2  0
 10 12  1  0
 12 13  2  0
 12 14  1  0
 14 15  1  0
 15 16  2  0
 15 17  1  0
 17 18  1  0
 18 19  2  0
 19 20  1  0
 20 21  2  0
 21 22  1  0
 22 23  2  0
 22 24  1  0
 24 25  1  0
 25 26  1  0
 26 27  1  0
 27 28  1  0
 28 29  2  0
 11  6  1  0
 23 18  1  0
 28 24  1  0
M  END
