CVD-0003761|dock_bobby27042020.86|mol2|44|dock1
     RDKit          3D

 24 26  0  0  0  0  0  0  0  0999 V2000
    3.5574    1.9148   19.5608 N   0  0  0  0  0  0  0  0  0  0  0  0
    4.5423    1.3728   19.7634 C   0  0  0  0  0  0  0  0  0  0  0  0
    5.7704    0.6547   19.9994 C   0  0  0  0  0  0  0  0  0  0  0  0
    6.6507    0.3711   18.9614 C   0  0  0  0  0  0  0  0  0  0  0  0
    7.8200   -0.3197   19.2231 C   0  0  0  0  0  0  0  0  0  0  0  0
    8.0796   -0.7130   20.5351 C   0  0  0  0  0  0  0  0  0  0  0  0
    9.2144   -1.3950   20.8509 N   0  0  0  0  0  0  0  0  0  0  0  0
    9.6067   -1.7818   22.1992 C   0  0  0  0  0  0  0  0  0  0  0  0
   10.9033   -1.1142   22.6947 C   0  0  0  0  0  0  0  0  0  0  0  0
   11.0523   -1.5192   24.1590 C   0  0  0  0  0  0  0  0  0  0  0  0
   12.3860   -1.0641   24.7171 C   0  0  0  0  0  0  0  0  0  0  0  0
   13.5455   -1.6045   23.8942 C   0  0  0  0  0  0  0  0  0  0  0  0
   13.4003   -1.2159   22.4317 C   0  0  0  0  0  0  0  0  0  0  0  0
   12.0574   -1.6593   21.8653 C   0  0  0  0  0  0  0  0  0  0  0  0
   10.7997    0.3502   22.7145 C   0  0  0  0  0  0  0  0  0  0  0  0
   10.7574    1.5416   22.7767 C   0  0  0  0  0  0  0  0  0  0  0  0
   10.7681    2.9737   22.9180 C   0  0  0  0  0  0  0  0  0  0  0  0
   11.9626    3.6457   23.1568 C   0  0  0  0  0  0  0  0  0  0  0  0
   11.9246    5.0230   23.2856 C   0  0  0  0  0  0  0  0  0  0  0  0
   10.7208    5.6843   23.1756 C   0  0  0  0  0  0  0  0  0  0  0  0
    9.5879    4.9392   22.9386 C   0  0  0  0  0  0  0  0  0  0  0  0
    9.5840    3.6057   22.8079 N   0  0  0  0  0  0  0  0  0  0  0  0
    7.2450   -0.4488   21.5453 N   0  0  0  0  0  0  0  0  0  0  0  0
    6.1186    0.2201   21.2748 C   0  0  0  0  0  0  0  0  0  0  0  0
  1  2  3  0
  2  3  1  0
  3  4  2  0
  4  5  1  0
  5  6  2  0
  6  7  1  0
  7  8  1  0
  8  9  1  0
  9 10  1  0
 10 11  1  0
 11 12  1  0
 12 13  1  0
 13 14  1  0
  9 15  1  0
 15 16  3  0
 16 17  1  0
 17 18  2  0
 18 19  1  0
 19 20  2  0
 20 21  1  0
 21 22  2  0
  6 23  1  0
 23 24  2  0
 24  3  1  0
 14  9  1  0
 22 17  1  0
M  END
