CVD-0002370|dock_bobby27042020.6|mol2|12|dock1
     RDKit          3D

 38 42  0  0  0  0  0  0  0  0999 V2000
    4.5185   -7.7333   28.5759 C   0  0  0  0  0  0  0  0  0  0  0  0
    5.5457   -6.8108   28.1078 N   0  0  0  0  0  0  0  0  0  0  0  0
    6.4239   -6.2238   29.1123 C   0  0  0  0  0  0  0  0  0  0  0  0
    7.7760   -5.8963   28.5044 C   0  0  0  0  0  0  0  0  0  0  0  0
    7.6050   -4.9619   27.3244 C   0  0  0  0  0  0  0  0  0  0  0  0
    6.5957   -5.5083   26.3437 C   0  0  0  0  0  0  0  0  0  0  0  0
    6.6339   -5.1333   25.0077 C   0  0  0  0  0  0  0  0  0  0  0  0
    5.7057   -5.5878   24.0776 C   0  0  0  0  0  0  0  0  0  0  0  0
    5.7666   -5.1853   22.7635 N   0  0  0  0  0  0  0  0  0  0  0  0
    6.9885   -4.8334   22.0658 C   0  0  0  0  0  0  0  0  0  0  0  0
    7.1408   -3.3561   21.8156 C   0  0  0  0  0  0  0  0  0  0  0  0
    6.3255   -2.5880   20.9649 C   0  0  0  0  0  0  0  0  0  0  0  0
    6.7492   -1.2727   20.9687 C   0  0  0  0  0  0  0  0  0  0  0  0
    6.1435   -0.1655   20.1906 C   0  0  0  0  0  0  0  0  0  0  0  0
    5.7902   -0.4415   18.8685 C   0  0  0  0  0  0  0  0  0  0  0  0
    5.1679    0.5139   18.0826 C   0  0  0  0  0  0  0  0  0  0  0  0
    4.8901    1.7623   18.5929 C   0  0  0  0  0  0  0  0  0  0  0  0
    5.2628    2.0787   19.8869 C   0  0  0  0  0  0  0  0  0  0  0  0
    5.9044    1.1253   20.6417 C   0  0  0  0  0  0  0  0  0  0  0  0
    6.3244    1.5023   21.8687 F   0  0  0  0  0  0  0  0  0  0  0  0
    7.8484   -1.2176   21.8687 N   0  0  0  0  0  0  0  0  0  0  0  0
    8.0758   -2.4935   22.3696 C   0  0  0  0  0  0  0  0  0  0  0  0
    8.8266    0.0648   22.3950 S   0  0  0  0  0  0  0  0  0  0  0  0
    8.3969    0.3349   23.7319 O   0  0  0  0  0  0  0  0  0  0  0  0
    8.7531    1.1035   21.4155 O   0  0  0  0  0  0  0  0  0  0  0  0
   10.4655   -0.5702   22.4863 C   0  0  0  0  0  0  0  0  0  0  0  0
   11.2225   -0.3938   23.6320 C   0  0  0  0  0  0  0  0  0  0  0  0
   12.5081   -0.9059   23.6585 C   0  0  0  0  0  0  0  0  0  0  0  0
   12.9811   -1.5669   22.5474 C   0  0  0  0  0  0  0  0  0  0  0  0
   12.2638   -1.7427   21.4367 N   0  0  0  0  0  0  0  0  0  0  0  0
   11.0236   -1.2458   21.4176 C   0  0  0  0  0  0  0  0  0  0  0  0
    4.7031   -6.4597   24.5422 C   0  0  0  0  0  0  0  0  0  0  0  0
    4.6469   -6.8472   25.8740 C   0  0  0  0  0  0  0  0  0  0  0  0
    5.5843   -6.3830   26.7941 C   0  0  0  0  0  0  0  0  0  0  0  0
    3.4589   -7.1278   23.4698 S   0  0  0  0  0  0  0  0  0  0  0  0
    2.2818   -6.0523   23.3276 N   0  0  0  0  0  0  0  0  0  0  0  0
    2.9077   -8.2775   24.1221 O   0  0  0  0  0  0  0  0  0  0  0  0
    4.0514   -7.2830   22.1752 O   0  0  0  0  0  0  0  0  0  0  0  0
  1  2  1  0
  2  3  1  0
  3  4  1  0
  4  5  1  0
  5  6  1  0
  6  7  2  0
  7  8  1  0
  8  9  1  0
  9 10  1  0
 10 11  1  0
 11 12  1  0
 12 13  2  0
 13 14  1  0
 14 15  2  0
 15 16  1  0
 16 17  2  0
 17 18  1  0
 18 19  2  0
 19 20  1  0
 13 21  1  0
 21 22  1  0
 21 23  1  0
 23 24  2  0
 23 25  2  0
 23 26  1  0
 26 27  2  0
 27 28  1  0
 28 29  2  0
 29 30  1  0
 30 31  2  0
  8 32  2  0
 32 33  1  0
 33 34  2  0
 32 35  1  0
 35 36  1  0
 35 37  2  0
 35 38  2  0
 34  2  1  0
 34  6  1  0
 22 11  2  0
 31 26  1  0
 19 14  1  0
M  END
