CVD-0000190|dock_bobby27042020.28|mol2|12|dock3
     RDKit          3D

 21 23  0  0  0  0  0  0  0  0999 V2000
   14.0108   -1.8857   24.9469 C   0  0  0  0  0  0  0  0  0  0  0  0
   13.1532   -1.4005   23.9222 O   0  0  0  0  0  0  0  0  0  0  0  0
   11.8752   -0.9720   24.4006 C   0  0  0  0  0  0  0  0  0  0  0  0
   10.8341   -0.9852   23.2836 C   0  0  0  0  0  0  0  0  0  0  0  0
   11.0268    0.3512   22.5270 C   0  0  0  0  0  0  0  0  0  0  0  0
    9.6657    0.9380   22.1881 C   0  0  0  0  0  0  0  0  0  0  0  0
    9.0430    0.1583   21.1539 O   0  0  0  0  0  0  0  0  0  0  0  0
    7.9012    0.5757   20.5175 C   0  0  0  0  0  0  0  0  0  0  0  0
    7.5357   -0.0056   19.3178 C   0  0  0  0  0  0  0  0  0  0  0  0
    6.3806    0.4363   18.6975 C   0  0  0  0  0  0  0  0  0  0  0  0
    5.6492    1.4337   19.3020 C   0  0  0  0  0  0  0  0  0  0  0  0
    5.9960    2.0025   20.4581 N   0  0  0  0  0  0  0  0  0  0  0  0
    7.1147    1.5751   21.0516 C   0  0  0  0  0  0  0  0  0  0  0  0
   11.8093    1.1655   23.4774 N   0  0  0  0  0  0  0  0  0  0  0  0
   11.9699    0.4946   24.7663 C   0  0  0  0  0  0  0  0  0  0  0  0
   12.2383    2.4283   23.2067 C   0  0  0  0  0  0  0  0  0  0  0  0
   12.4826    3.2152   24.2591 N   0  0  0  0  0  0  0  0  0  0  0  0
   12.9033    4.4514   23.9638 C   0  0  0  0  0  0  0  0  0  0  0  0
   13.0790    4.9021   22.6762 C   0  0  0  0  0  0  0  0  0  0  0  0
   12.7945    3.9984   21.6789 C   0  0  0  0  0  0  0  0  0  0  0  0
   12.3711    2.7506   21.9163 N   0  0  0  0  0  0  0  0  0  0  0  0
  1  2  1  0
  3  2  1  0
  3  4  1  0
  4  5  1  0
  5  6  1  0
  6  7  1  0
  7  8  1  0
  8  9  2  0
  9 10  1  0
 10 11  2  0
 11 12  1  0
 12 13  2  0
  5 14  1  0
 14 15  1  0
 14 16  1  0
 16 17  2  0
 17 18  1  0
 18 19  2  0
 19 20  1  0
 20 21  2  0
 15  3  1  0
 21 16  1  0
 13  8  1  0
M  END
