CVD-0000395|dock_bobby27042020.84|mol2|25|dock2
     RDKit          3D

 22 24  0  0  0  0  0  0  0  0999 V2000
    9.2669   -5.3135   27.6296 C   0  0  0  0  0  0  0  0  0  0  0  0
    8.9117   -4.7634   26.3343 N   0  0  0  0  0  0  0  0  0  0  0  0
    8.1874   -4.2624   25.3431 C   0  0  0  0  0  0  0  0  0  0  0  0
    6.9758   -4.0788   25.4242 O   0  0  0  0  0  0  0  0  0  0  0  0
    8.9670   -3.9274   24.0866 C   0  0  0  0  0  0  0  0  0  0  0  0
    9.9338   -2.7258   24.2578 C   0  0  0  0  0  0  0  0  0  0  0  0
    9.8082   -1.8838   22.9937 C   0  0  0  0  0  0  0  0  0  0  0  0
    9.0286   -2.7483   22.0041 C   0  0  0  0  0  0  0  0  0  0  0  0
    8.0626   -3.5313   22.9053 C   0  0  0  0  0  0  0  0  0  0  0  0
    7.3571   -4.6707   22.2237 C   0  0  0  0  0  0  0  0  0  0  0  0
    7.3995   -6.0430   22.6435 C   0  0  0  0  0  0  0  0  0  0  0  0
    6.6661   -6.8629   21.8467 C   0  0  0  0  0  0  0  0  0  0  0  0
    5.9057   -6.0188   20.5752 S   0  0  0  0  0  0  0  0  0  0  0  0
    6.5805   -4.5191   21.1155 C   0  0  0  0  0  0  0  0  0  0  0  0
    6.2328   -3.3345   20.3297 C   0  0  0  0  0  0  0  0  0  0  0  0
    5.9916   -3.5642   19.0363 N   0  0  0  0  0  0  0  0  0  0  0  0
    5.6714   -2.4935   18.3020 C   0  0  0  0  0  0  0  0  0  0  0  0
    5.5873   -1.2097   18.8234 C   0  0  0  0  0  0  0  0  0  0  0  0
    5.2561   -0.1323   18.0444 N   0  0  0  0  0  0  0  0  0  0  0  0
    5.7026    1.2162   18.3193 C   0  0  0  0  0  0  0  0  0  0  0  0
    5.8621   -1.1028   20.1808 C   0  0  0  0  0  0  0  0  0  0  0  0
    6.1847   -2.1506   20.9465 N   0  0  0  0  0  0  0  0  0  0  0  0
  1  2  1  0
  2  3  1  0
  3  4  2  0
  5  3  1  0
  5  6  1  0
  6  7  1  0
  7  8  1  0
  8  9  1  0
  9 10  1  0
 10 11  1  0
 11 12  2  0
 12 13  1  0
 13 14  1  0
 14 15  1  0
 15 16  2  0
 16 17  1  0
 17 18  2  0
 18 19  1  0
 19 20  1  0
 18 21  1  0
 21 22  2  0
  9  5  1  0
 14 10  2  0
 22 15  1  0
M  END
