CVD-0001558|dock_bobby27042020.80|mol2|40|dock2
     RDKit          3D

 35 39  0  0  0  0  0  0  0  0999 V2000
    5.4390   -2.9399   21.8956 O   0  0  0  0  0  0  0  0  0  0  0  0
    6.6070   -3.2554   21.6897 C   0  0  0  0  0  0  0  0  0  0  0  0
    7.0638   -4.6985   21.8164 C   0  0  0  0  0  0  0  0  0  0  0  0
    6.2931   -5.4074   22.8319 N   0  0  0  0  0  0  0  0  0  0  0  0
    5.3257   -6.2818   22.4283 C   0  0  0  0  0  0  0  0  0  0  0  0
    4.5658   -6.9907   23.2785 C   0  0  0  0  0  0  0  0  0  0  0  0
    4.8461   -6.7614   24.6763 C   0  0  0  0  0  0  0  0  0  0  0  0
    4.2304   -7.3384   25.7588 O   0  0  0  0  0  0  0  0  0  0  0  0
    4.7992   -6.8410   26.9532 C   0  0  0  0  0  0  0  0  0  0  0  0
    5.7933   -5.9285   26.4702 N   0  0  0  0  0  0  0  0  0  0  0  0
    5.8178   -5.8833   25.0916 C   0  0  0  0  0  0  0  0  0  0  0  0
    6.6309   -5.1244   24.1570 C   0  0  0  0  0  0  0  0  0  0  0  0
    7.5106   -4.3386   24.4483 O   0  0  0  0  0  0  0  0  0  0  0  0
    7.5592   -2.3875   21.3365 N   0  0  0  0  0  0  0  0  0  0  0  0
    7.3018   -0.9659   21.1592 C   0  0  0  0  0  0  0  0  0  0  0  0
    6.3883   -0.6636   19.9513 C   0  0  0  0  0  0  0  0  0  0  0  0
    7.1585   -0.9247   18.7345 C   0  0  0  0  0  0  0  0  0  0  0  0
    7.7641   -1.0884   17.7839 N   0  0  0  0  0  0  0  0  0  0  0  0
    5.8625    0.7899   19.9235 C   0  0  0  0  0  0  0  0  0  0  0  0
    4.7352    1.0874   20.9324 C   0  0  0  0  0  0  0  0  0  0  0  0
    3.7505    1.9817   20.1905 C   0  0  0  0  0  0  0  0  0  0  0  0
    4.0889    1.7579   18.7979 N   0  0  0  0  0  0  0  0  0  0  0  0
    5.2652    1.1605   18.5912 C   0  0  0  0  0  0  0  0  0  0  0  0
    5.7555    0.9198   17.4911 O   0  0  0  0  0  0  0  0  0  0  0  0
    8.6520   -0.2630   21.0039 C   0  0  0  0  0  0  0  0  0  0  0  0
    8.9273    0.3880   20.0109 O   0  0  0  0  0  0  0  0  0  0  0  0
    9.6688   -0.4168   22.1518 C   0  0  0  0  0  0  0  0  0  0  0  0
    9.4155    0.0102   23.2773 O   0  0  0  0  0  0  0  0  0  0  0  0
   10.8049   -1.0346   21.8149 N   0  0  0  0  0  0  0  0  0  0  0  0
   11.9474   -1.3177   22.7039 C   0  0  0  0  0  0  0  0  0  0  0  0
   12.6578   -0.2086   23.5122 C   0  0  0  0  0  0  0  0  0  0  0  0
   13.7677   -1.3005   23.6018 C   0  0  0  0  0  0  0  0  0  0  0  0
   13.3469   -1.6932   22.1562 C   0  0  0  0  0  0  0  0  0  0  0  0
   13.0917   -2.4011   24.4666 C   0  0  0  0  0  0  0  0  0  0  0  0
   11.6968   -2.4035   23.7602 C   0  0  0  0  0  0  0  0  0  0  0  0
  1  2  2  0
  2  3  1  0
  3  4  1  0
  4  5  1  0
  5  6  2  0
  6  7  1  0
  7  8  1  0
  8  9  1  0
  9 10  1  0
 10 11  1  0
 11 12  1  0
 12 13  2  0
  2 14  1  0
 14 15  1  0
 15 16  1  0
 16 17  1  0
 17 18  3  0
 16 19  1  0
 19 20  1  0
 20 21  1  0
 21 22  1  0
 22 23  1  0
 23 24  2  0
 15 25  1  0
 25 26  2  0
 25 27  1  0
 27 28  2  0
 27 29  1  0
 29 30  1  0
 30 31  1  0
 31 32  1  0
 32 33  1  0
 32 34  1  0
 34 35  1  0
 12  4  1  0
 23 19  1  0
 33 30  1  0
 11  7  2  0
 35 30  1  0
M  END
