CVD-0003816|dock_bobby27042020.0|mol2|40|dock3
     RDKit          3D

 26 28  0  0  0  0  0  0  0  0999 V2000
    8.9028   -5.4367   26.4270 C   0  0  0  0  0  0  0  0  0  0  0  0
    8.4777   -4.4084   25.3852 C   0  0  0  0  0  0  0  0  0  0  0  0
    9.6772   -3.7389   24.8425 N   0  0  0  0  0  0  0  0  0  0  0  0
    9.5367   -2.4592   24.1136 C   0  0  0  0  0  0  0  0  0  0  0  0
   10.6608   -2.2646   23.0899 C   0  0  0  0  0  0  0  0  0  0  0  0
   10.5028   -0.9630   22.3564 C   0  0  0  0  0  0  0  0  0  0  0  0
   10.4434    0.1812   23.2708 N   0  0  0  0  0  0  0  0  0  0  0  0
    9.3837    0.0490   24.2974 C   0  0  0  0  0  0  0  0  0  0  0  0
    9.5107   -1.2664   25.0358 C   0  0  0  0  0  0  0  0  0  0  0  0
   11.1606    1.3514   23.0611 C   0  0  0  0  0  0  0  0  0  0  0  0
   10.5139    2.5786   22.9505 C   0  0  0  0  0  0  0  0  0  0  0  0
   11.2252    3.7456   22.7353 C   0  0  0  0  0  0  0  0  0  0  0  0
   12.6040    3.6974   22.6324 C   0  0  0  0  0  0  0  0  0  0  0  0
   13.2694    2.4899   22.7459 C   0  0  0  0  0  0  0  0  0  0  0  0
   12.5481    1.3281   22.9566 C   0  0  0  0  0  0  0  0  0  0  0  0
   13.5194    5.1854   22.3656 S   0  0  0  0  0  0  0  0  0  0  0  0
   13.0521    6.2693   23.4472 N   0  0  0  0  0  0  0  0  0  0  0  0
   13.1517    5.6882   21.0760 O   0  0  0  0  0  0  0  0  0  0  0  0
   14.8967    4.8929   22.6270 O   0  0  0  0  0  0  0  0  0  0  0  0
    7.6460   -5.0337   24.2791 C   0  0  0  0  0  0  0  0  0  0  0  0
    8.0652   -6.1859   23.6265 C   0  0  0  0  0  0  0  0  0  0  0  0
    7.3104   -6.7513   22.6140 C   0  0  0  0  0  0  0  0  0  0  0  0
    6.1317   -6.1490   22.2686 C   0  0  0  0  0  0  0  0  0  0  0  0
    5.3844   -6.6995   21.2740 F   0  0  0  0  0  0  0  0  0  0  0  0
    5.6740   -5.0157   22.8828 C   0  0  0  0  0  0  0  0  0  0  0  0
    6.4415   -4.4620   23.8919 C   0  0  0  0  0  0  0  0  0  0  0  0
  1  2  1  0
  2  3  1  0
  3  4  1  0
  4  5  1  0
  5  6  1  0
  6  7  1  0
  7  8  1  0
  8  9  1  0
  7 10  1  0
 10 11  2  0
 11 12  1  0
 12 13  2  0
 13 14  1  0
 14 15  2  0
 13 16  1  0
 16 17  1  0
 16 18  2  0
 16 19  2  0
  2 20  1  0
 20 21  2  0
 21 22  1  0
 22 23  2  0
 23 24  1  0
 23 25  1  0
 25 26  2  0
  9  4  1  0
 15 10  1  0
 26 20  1  0
M  END
