CVD-0001036|dock_bobby27042020.25|mol2|18|dock3
     RDKit          3D

 38 42  0  0  0  0  0  0  0  0999 V2000
   13.2612    8.8599   25.5578 C   0  0  0  0  0  0  0  0  0  0  0  0
   13.3962    8.3264   24.2419 O   0  0  0  0  0  0  0  0  0  0  0  0
   12.9922    7.0428   23.9710 C   0  0  0  0  0  0  0  0  0  0  0  0
   11.9518    6.5128   24.7151 C   0  0  0  0  0  0  0  0  0  0  0  0
   11.5128    5.2232   24.4754 C   0  0  0  0  0  0  0  0  0  0  0  0
   12.1052    4.4435   23.4901 C   0  0  0  0  0  0  0  0  0  0  0  0
   13.1484    4.9859   22.7497 C   0  0  0  0  0  0  0  0  0  0  0  0
   13.5936    6.2753   22.9834 C   0  0  0  0  0  0  0  0  0  0  0  0
   11.6376    3.0718   23.2357 C   0  0  0  0  0  0  0  0  0  0  0  0
   11.4556    2.5090   22.0768 N   0  0  0  0  0  0  0  0  0  0  0  0
   11.0136    1.2275   22.3893 C   0  0  0  0  0  0  0  0  0  0  0  0
   10.6498    0.1438   21.5941 C   0  0  0  0  0  0  0  0  0  0  0  0
   10.2402   -1.0356   22.1980 C   0  0  0  0  0  0  0  0  0  0  0  0
   10.1860   -1.1562   23.5892 C   0  0  0  0  0  0  0  0  0  0  0  0
    9.7740   -2.3409   24.2498 N   0  0  0  0  0  0  0  0  0  0  0  0
    9.2973   -2.5492   25.5021 C   0  0  0  0  0  0  0  0  0  0  0  0
    9.1216   -1.6872   26.3581 O   0  0  0  0  0  0  0  0  0  0  0  0
    8.9775   -4.0003   25.7914 C   0  0  0  0  0  0  0  0  0  0  0  0
    7.6304   -4.3900   25.1954 C   0  0  0  0  0  0  0  0  0  0  0  0
    7.3005   -5.8319   25.5225 C   0  0  0  0  0  0  0  0  0  0  0  0
    7.3021   -6.0278   26.9699 N   0  0  0  0  0  0  0  0  0  0  0  0
    8.5909   -5.7179   27.5793 C   0  0  0  0  0  0  0  0  0  0  0  0
    8.9669   -4.2675   27.2947 C   0  0  0  0  0  0  0  0  0  0  0  0
    6.3542   -6.6896   27.6800 C   0  0  0  0  0  0  0  0  0  0  0  0
    5.3799   -7.1493   27.1093 O   0  0  0  0  0  0  0  0  0  0  0  0
    6.3899   -6.9219   29.1651 C   0  0  0  0  0  0  0  0  0  0  0  0
    6.9777   -8.0937   29.6308 C   0  0  0  0  0  0  0  0  0  0  0  0
    7.0480   -8.3725   30.9841 C   0  0  0  0  0  0  0  0  0  0  0  0
    6.5285   -7.4891   31.9203 C   0  0  0  0  0  0  0  0  0  0  0  0
    5.9264   -6.3251   31.4622 C   0  0  0  0  0  0  0  0  0  0  0  0
    5.8508   -6.0504   30.1082 C   0  0  0  0  0  0  0  0  0  0  0  0
    6.6090   -7.7866   33.3834 C   0  0  0  0  0  0  0  0  0  0  0  0
    7.7491   -8.3749   33.7270 F   0  0  0  0  0  0  0  0  0  0  0  0
    5.6412   -8.5961   33.7981 F   0  0  0  0  0  0  0  0  0  0  0  0
    6.5200   -6.6958   34.1361 F   0  0  0  0  0  0  0  0  0  0  0  0
   10.5509   -0.0696   24.3801 C   0  0  0  0  0  0  0  0  0  0  0  0
   10.9549    1.0927   23.7538 C   0  0  0  0  0  0  0  0  0  0  0  0
   11.3573    2.2827   24.3254 O   0  0  0  0  0  0  0  0  0  0  0  0
  1  2  1  0
  2  3  1  0
  3  4  2  0
  4  5  1  0
  5  6  2  0
  6  7  1  0
  7  8  2  0
  6  9  1  0
  9 10  2  0
 10 11  1  0
 11 12  2  0
 12 13  1  0
 13 14  2  0
 14 15  1  0
 15 16  1  0
 16 17  2  0
 16 18  1  0
 18 19  1  0
 19 20  1  0
 20 21  1  0
 21 22  1  0
 22 23  1  0
 21 24  1  0
 24 25  2  0
 24 26  1  0
 26 27  2  0
 27 28  1  0
 28 29  2  0
 29 30  1  0
 30 31  2  0
 29 32  1  0
 32 33  1  0
 32 34  1  0
 32 35  1  0
 14 36  1  0
 36 37  2  0
 37 38  1  0
  8  3  1  0
 38  9  1  0
 37 11  1  0
 23 18  1  0
 31 26  1  0
M  END
