CVD-0000882|dock_bobby27042020.54|mol2|27|dock3
     RDKit          3D

 15 15  0  0  0  0  0  0  0  0999 V2000
    9.3148    0.3281   22.4983 C   0  0  0  0  0  0  0  0  0  0  0  0
   10.5682    0.8218   23.2108 C   0  0  0  0  0  0  0  0  0  0  0  0
   10.9446    2.1146   22.6303 N   0  0  0  0  0  0  0  0  0  0  0  0
   12.1894    2.5945   22.6720 C   0  0  0  0  0  0  0  0  0  0  0  0
   13.1273    2.0022   23.1965 O   0  0  0  0  0  0  0  0  0  0  0  0
   12.3647    3.9412   22.0053 C   0  0  0  0  0  0  0  0  0  0  0  0
   14.0162    4.5556   22.1539 Cl  0  0  0  0  0  0  0  0  0  0  0  0
   11.7024   -0.1799   23.0974 C   0  0  0  0  0  0  0  0  0  0  0  0
   11.9134   -0.8769   21.9158 C   0  0  0  0  0  0  0  0  0  0  0  0
   12.9477   -1.7961   21.8152 C   0  0  0  0  0  0  0  0  0  0  0  0
   13.1417   -2.4732   20.6466 O   0  0  0  0  0  0  0  0  0  0  0  0
   13.7854   -2.0309   22.8945 C   0  0  0  0  0  0  0  0  0  0  0  0
   13.5679   -1.3333   24.0637 C   0  0  0  0  0  0  0  0  0  0  0  0
   14.6107   -1.6155   25.4295 Cl  0  0  0  0  0  0  0  0  0  0  0  0
   12.5427   -0.4167   24.1762 C   0  0  0  0  0  0  0  0  0  0  0  0
  1  2  1  0
  2  3  1  0
  3  4  1  0
  4  5  2  0
  4  6  1  0
  6  7  1  0
  2  8  1  0
  8  9  2  0
  9 10  1  0
 10 11  1  0
 10 12  2  0
 12 13  1  0
 13 14  1  0
 13 15  2  0
 15  8  1  0
M  END
