CVD-0001943|dock_bobby27042020.79|mol2|21|dock1
     RDKit          3D

 27 30  0  0  0  0  0  0  0  0999 V2000
   13.9380    6.2727   21.9966 C   0  0  0  0  0  0  0  0  0  0  0  0
   13.6766    4.8470   22.2105 N   0  0  0  0  0  0  0  0  0  0  0  0
   12.2697    4.4589   22.0634 C   0  0  0  0  0  0  0  0  0  0  0  0
   12.0504    3.0128   22.4225 C   0  0  0  0  0  0  0  0  0  0  0  0
   13.0550    2.0607   22.6701 C   0  0  0  0  0  0  0  0  0  0  0  0
   12.4710    0.8423   22.9687 C   0  0  0  0  0  0  0  0  0  0  0  0
   13.1903   -0.4146   23.2880 C   0  0  0  0  0  0  0  0  0  0  0  0
   13.3216   -1.3417   22.2525 C   0  0  0  0  0  0  0  0  0  0  0  0
   13.9180   -2.5726   22.4677 C   0  0  0  0  0  0  0  0  0  0  0  0
   14.4004   -2.9038   23.7140 C   0  0  0  0  0  0  0  0  0  0  0  0
   14.3239   -1.9902   24.7496 C   0  0  0  0  0  0  0  0  0  0  0  0
   13.7568   -0.7610   24.5089 C   0  0  0  0  0  0  0  0  0  0  0  0
   13.7925    0.1260   25.5277 F   0  0  0  0  0  0  0  0  0  0  0  0
   11.0875    1.0159   22.8969 N   0  0  0  0  0  0  0  0  0  0  0  0
   10.8523    2.3318   22.5631 C   0  0  0  0  0  0  0  0  0  0  0  0
    9.9969    0.0271   23.0743 C   0  0  0  0  0  0  0  0  0  0  0  0
    9.2231    0.2849   24.3366 C   0  0  0  0  0  0  0  0  0  0  0  0
    8.7777   -0.5760   25.2866 C   0  0  0  0  0  0  0  0  0  0  0  0
    8.1565    0.1952   26.1830 N   0  0  0  0  0  0  0  0  0  0  0  0
    8.2027    1.4801   25.8263 N   0  0  0  0  0  0  0  0  0  0  0  0
    8.8624    1.5504   24.6846 N   0  0  0  0  0  0  0  0  0  0  0  0
    9.0865    0.0314   21.8539 C   0  0  0  0  0  0  0  0  0  0  0  0
    8.0406    0.9370   21.7310 C   0  0  0  0  0  0  0  0  0  0  0  0
    7.2176    0.9211   20.6172 C   0  0  0  0  0  0  0  0  0  0  0  0
    7.4292    0.0029   19.6114 C   0  0  0  0  0  0  0  0  0  0  0  0
    8.4642   -0.9008   19.7186 C   0  0  0  0  0  0  0  0  0  0  0  0
    9.2869   -0.8869   20.8325 C   0  0  0  0  0  0  0  0  0  0  0  0
  1  2  1  0
  2  3  1  0
  3  4  1  0
  4  5  1  0
  5  6  2  0
  6  7  1  0
  7  8  2  0
  8  9  1  0
  9 10  2  0
 10 11  1  0
 11 12  2  0
 12 13  1  0
  6 14  1  0
 14 15  1  0
 14 16  1  0
 16 17  1  0
 17 18  2  0
 18 19  1  0
 19 20  1  0
 20 21  2  0
 16 22  1  0
 22 23  2  0
 23 24  1  0
 24 25  2  0
 25 26  1  0
 26 27  2  0
 15  4  2  0
 21 17  1  0
 27 22  1  0
 12  7  1  0
M  END
