CVD-0001451|dock_bobby27042020.52|mol2|34|dock2
     RDKit          3D

 23 24  0  0  0  0  0  0  0  0999 V2000
   13.7399    2.9993   22.5127 C   0  0  0  0  0  0  0  0  0  0  0  0
   14.3211    1.6194   22.6096 C   0  0  0  0  0  0  0  0  0  0  0  0
   15.4534    1.3746   22.2085 O   0  0  0  0  0  0  0  0  0  0  0  0
   13.5588    0.6470   23.1668 N   0  0  0  0  0  0  0  0  0  0  0  0
   12.2015    0.8875   23.6612 C   0  0  0  0  0  0  0  0  0  0  0  0
   11.2265   -0.0885   23.0292 C   0  0  0  0  0  0  0  0  0  0  0  0
   11.6325   -1.4678   23.3148 N   0  0  0  0  0  0  0  0  0  0  0  0
   10.6735   -2.4129   22.7410 C   0  0  0  0  0  0  0  0  0  0  0  0
    9.2296   -1.9512   22.8384 C   0  0  0  0  0  0  0  0  0  0  0  0
    8.6165   -2.0453   23.8964 O   0  0  0  0  0  0  0  0  0  0  0  0
    8.7417   -1.4621   21.6724 N   0  0  0  0  0  0  0  0  0  0  0  0
    7.4668   -0.9444   21.3333 C   0  0  0  0  0  0  0  0  0  0  0  0
    6.4242   -0.8339   22.2502 C   0  0  0  0  0  0  0  0  0  0  0  0
    5.2000   -0.3199   21.8556 C   0  0  0  0  0  0  0  0  0  0  0  0
    4.9942    0.0909   20.5504 C   0  0  0  0  0  0  0  0  0  0  0  0
    6.0326   -0.0180   19.6418 C   0  0  0  0  0  0  0  0  0  0  0  0
    7.2632   -0.5321   20.0202 C   0  0  0  0  0  0  0  0  0  0  0  0
    5.7894    0.4952   17.9683 S   0  0  0  0  0  0  0  0  0  0  0  0
    5.0530    1.9168   17.9758 N   0  0  0  0  0  0  0  0  0  0  0  0
    7.0842    0.6921   17.3888 O   0  0  0  0  0  0  0  0  0  0  0  0
    4.8942   -0.4422   17.3593 O   0  0  0  0  0  0  0  0  0  0  0  0
   12.9664   -1.6955   22.7649 C   0  0  0  0  0  0  0  0  0  0  0  0
   13.9729   -0.7427   23.3839 C   0  0  0  0  0  0  0  0  0  0  0  0
  1  2  1  0
  2  3  2  0
  2  4  1  0
  4  5  1  0
  5  6  1  0
  6  7  1  0
  7  8  1  0
  8  9  1  0
  9 10  2  0
  9 11  1  0
 11 12  1  0
 12 13  2  0
 13 14  1  0
 14 15  2  0
 15 16  1  0
 16 17  2  0
 16 18  1  0
 18 19  1  0
 18 20  2  0
 18 21  2  0
  7 22  1  0
 22 23  1  0
 23  4  1  0
 17 12  1  0
M  END
