CVD-0000240|dock_bobby27042020.13|mol2|34|dock3
     RDKit          3D

 23 25  0  0  0  0  0  0  0  0999 V2000
   14.2629    5.7579   21.6019 C   0  0  0  0  0  0  0  0  0  0  0  0
   13.0499    4.9338   22.0263 C   0  0  0  0  0  0  0  0  0  0  0  0
   13.4612    3.4736   22.1829 C   0  0  0  0  0  0  0  0  0  0  0  0
   14.6473    3.1587   22.2096 O   0  0  0  0  0  0  0  0  0  0  0  0
   12.4106    2.6219   22.2824 N   0  0  0  0  0  0  0  0  0  0  0  0
   12.3586    1.2138   22.4361 C   0  0  0  0  0  0  0  0  0  0  0  0
   13.4915    0.5751   22.9258 C   0  0  0  0  0  0  0  0  0  0  0  0
   13.5037   -0.7981   23.0979 C   0  0  0  0  0  0  0  0  0  0  0  0
   12.3872   -1.5523   22.7844 C   0  0  0  0  0  0  0  0  0  0  0  0
   11.2465   -0.9276   22.2948 C   0  0  0  0  0  0  0  0  0  0  0  0
   10.1092   -1.6632   21.9731 N   0  0  0  0  0  0  0  0  0  0  0  0
    8.8540   -1.5707   22.7116 C   0  0  0  0  0  0  0  0  0  0  0  0
    7.8048   -1.0499   21.8063 C   0  0  0  0  0  0  0  0  0  0  0  0
    6.8564   -2.0890   21.5853 C   0  0  0  0  0  0  0  0  0  0  0  0
    7.2133   -3.2114   22.3324 C   0  0  0  0  0  0  0  0  0  0  0  0
    8.4048   -2.9369   23.0625 C   0  0  0  0  0  0  0  0  0  0  0  0
   11.2341    0.4525   22.1211 C   0  0  0  0  0  0  0  0  0  0  0  0
   12.4446    5.4450   23.3205 C   0  0  0  0  0  0  0  0  0  0  0  0
   11.1507    5.9708   23.3515 C   0  0  0  0  0  0  0  0  0  0  0  0
   10.5975    6.4295   24.4770 N   0  0  0  0  0  0  0  0  0  0  0  0
   11.3483    6.3605   25.5766 C   0  0  0  0  0  0  0  0  0  0  0  0
   12.6285    5.8436   25.5550 C   0  0  0  0  0  0  0  0  0  0  0  0
   13.1893    5.3821   24.4302 N   0  0  0  0  0  0  0  0  0  0  0  0
  1  2  1  0
  2  3  1  0
  3  4  2  0
  3  5  1  0
  5  6  1  0
  6  7  2  0
  7  8  1  0
  8  9  2  0
  9 10  1  0
 10 11  1  0
 11 12  1  0
 12 13  1  0
 13 14  1  0
 14 15  1  0
 15 16  1  0
 10 17  2  0
  2 18  1  0
 18 19  2  0
 19 20  1  0
 20 21  2  0
 21 22  1  0
 22 23  2  0
 17  6  1  0
 23 18  1  0
 16 12  1  0
M  END
