CVD-0002101|dock_bobby27042020.7|mol2|23|dock3
     RDKit          3D

 24 26  0  0  0  0  0  0  0  0999 V2000
   11.0573    3.7400   22.0658 N   0  0  0  0  0  0  0  0  0  0  0  0
    9.7808    3.3632   22.7127 C   0  0  0  0  0  0  0  0  0  0  0  0
    9.4643    1.8810   22.5722 C   0  0  0  0  0  0  0  0  0  0  0  0
    8.8083    1.7013   21.3142 O   0  0  0  0  0  0  0  0  0  0  0  0
    8.4817    0.3216   21.0911 C   0  0  0  0  0  0  0  0  0  0  0  0
    9.7377   -0.4845   20.9004 C   0  0  0  0  0  0  0  0  0  0  0  0
   10.8429   -0.0961   21.8476 C   0  0  0  0  0  0  0  0  0  0  0  0
   12.0235   -0.8511   21.9342 C   0  0  0  0  0  0  0  0  0  0  0  0
   12.2099   -1.9930   21.2032 O   0  0  0  0  0  0  0  0  0  0  0  0
   13.0127   -0.5094   22.8563 C   0  0  0  0  0  0  0  0  0  0  0  0
   14.1192   -1.2906   22.9588 O   0  0  0  0  0  0  0  0  0  0  0  0
   12.8415    0.5801   23.6983 C   0  0  0  0  0  0  0  0  0  0  0  0
   11.6785    1.3216   23.6109 C   0  0  0  0  0  0  0  0  0  0  0  0
   10.6804    0.9914   22.6933 C   0  0  0  0  0  0  0  0  0  0  0  0
    7.5524    0.2731   19.8730 C   0  0  0  0  0  0  0  0  0  0  0  0
    6.2374    1.0272   20.0636 C   0  0  0  0  0  0  0  0  0  0  0  0
    5.4628    0.5235   21.1482 O   0  0  0  0  0  0  0  0  0  0  0  0
    5.3542    0.9989   18.8339 C   0  0  0  0  0  0  0  0  0  0  0  0
    6.0071    1.6241   17.7271 O   0  0  0  0  0  0  0  0  0  0  0  0
    5.0190   -0.4467   18.5094 C   0  0  0  0  0  0  0  0  0  0  0  0
    6.2471   -1.3486   18.2476 C   0  0  0  0  0  0  0  0  0  0  0  0
    5.8337   -2.7126   18.1555 O   0  0  0  0  0  0  0  0  0  0  0  0
    7.2500   -1.1478   19.4130 C   0  0  0  0  0  0  0  0  0  0  0  0
    6.8129   -1.9102   20.5350 O   0  0  0  0  0  0  0  0  0  0  0  0
  1  2  1  0
  2  3  1  0
  3  4  1  0
  4  5  1  0
  5  6  1  0
  6  7  1  0
  7  8  2  0
  8  9  1  0
  8 10  1  0
 10 11  1  0
 10 12  2  0
 12 13  1  0
 13 14  2  0
  5 15  1  0
 15 16  1  0
 16 17  1  0
 16 18  1  0
 18 19  1  0
 18 20  1  0
 20 21  1  0
 21 22  1  0
 21 23  1  0
 23 24  1  0
 14  3  1  0
 23 15  1  0
 14  7  1  0
M  END
