CVD-0000680|dock_bobby27042020.69|mol2|29|dock1
     RDKit          3D

 24 25  0  0  0  0  0  0  0  0999 V2000
   12.6660   -1.5394   21.4878 C   0  0  0  0  0  0  0  0  0  0  0  0
   12.3581   -0.0969   21.7979 C   0  0  0  0  0  0  0  0  0  0  0  0
   13.3284    0.6643   22.4428 C   0  0  0  0  0  0  0  0  0  0  0  0
   13.0776    1.9858   22.7363 C   0  0  0  0  0  0  0  0  0  0  0  0
   11.9341    2.5927   22.4319 N   0  0  0  0  0  0  0  0  0  0  0  0
   10.9944    1.8720   21.8119 C   0  0  0  0  0  0  0  0  0  0  0  0
   11.1405    0.5284   21.4659 C   0  0  0  0  0  0  0  0  0  0  0  0
   10.1415   -0.2393   20.8042 N   0  0  0  0  0  0  0  0  0  0  0  0
    8.7879   -0.1571   20.8540 C   0  0  0  0  0  0  0  0  0  0  0  0
    8.1414    0.6452   21.5210 O   0  0  0  0  0  0  0  0  0  0  0  0
    8.0906   -1.1912   19.9665 C   0  0  0  0  0  0  0  0  0  0  0  0
    6.7357   -0.6357   19.5060 C   0  0  0  0  0  0  0  0  0  0  0  0
    6.8532    0.5128   18.6009 N   0  0  0  0  0  0  0  0  0  0  0  0
    5.5579    1.0581   17.8292 S   0  0  0  0  0  0  0  0  0  0  0  0
    4.6079    1.9822   18.9739 C   0  0  0  0  0  0  0  0  0  0  0  0
    4.7921   -0.0843   17.4368 O   0  0  0  0  0  0  0  0  0  0  0  0
    6.0210    1.9519   16.8130 O   0  0  0  0  0  0  0  0  0  0  0  0
    7.9195   -2.4940   20.7323 C   0  0  0  0  0  0  0  0  0  0  0  0
    7.3329   -3.5994   20.1323 C   0  0  0  0  0  0  0  0  0  0  0  0
    7.1708   -4.7873   20.8228 C   0  0  0  0  0  0  0  0  0  0  0  0
    7.6039   -4.8477   22.1193 C   0  0  0  0  0  0  0  0  0  0  0  0
    7.4484   -6.0122   22.8052 F   0  0  0  0  0  0  0  0  0  0  0  0
    8.1868   -3.7852   22.7545 C   0  0  0  0  0  0  0  0  0  0  0  0
    8.3415   -2.6046   22.0497 C   0  0  0  0  0  0  0  0  0  0  0  0
  1  2  1  0
  2  3  2  0
  3  4  1  0
  4  5  2  0
  5  6  1  0
  6  7  2  0
  7  8  1  0
  8  9  1  0
  9 10  2  0
  9 11  1  0
 11 12  1  0
 12 13  1  0
 13 14  1  0
 14 15  1  0
 14 16  2  0
 14 17  2  0
 11 18  1  0
 18 19  2  0
 19 20  1  0
 20 21  2  0
 21 22  1  0
 21 23  1  0
 23 24  2  0
  7  2  1  0
 24 18  1  0
M  END
