CVD-0000685|dock_bobby27042020.97|mol2|42|dock3
     RDKit          3D

 28 30  0  0  0  0  0  0  0  0999 V2000
    8.2528    2.8118   23.8742 O   0  0  0  0  0  0  0  0  0  0  0  0
    8.2077    3.4142   22.8049 C   0  0  0  0  0  0  0  0  0  0  0  0
    7.0788    3.4950   22.0732 N   0  0  0  0  0  0  0  0  0  0  0  0
    5.8376    2.8703   22.5075 C   0  0  0  0  0  0  0  0  0  0  0  0
    5.8420    1.3721   22.2621 C   0  0  0  0  0  0  0  0  0  0  0  0
    6.1090    1.0214   20.8138 C   0  0  0  0  0  0  0  0  0  0  0  0
    5.0568    1.1766   19.9179 C   0  0  0  0  0  0  0  0  0  0  0  0
    5.2527    0.8735   18.5892 C   0  0  0  0  0  0  0  0  0  0  0  0
    6.4110    0.4335   18.1059 N   0  0  0  0  0  0  0  0  0  0  0  0
    7.4272    0.2825   18.9613 C   0  0  0  0  0  0  0  0  0  0  0  0
    7.3455    0.5585   20.3268 C   0  0  0  0  0  0  0  0  0  0  0  0
    8.4165    0.4055   21.2533 N   0  0  0  0  0  0  0  0  0  0  0  0
    9.3903   -0.5670   21.3182 C   0  0  0  0  0  0  0  0  0  0  0  0
    9.4892   -1.5083   20.5387 O   0  0  0  0  0  0  0  0  0  0  0  0
   10.2454   -0.3485   22.3753 N   0  0  0  0  0  0  0  0  0  0  0  0
   11.3761   -1.0792   22.8220 C   0  0  0  0  0  0  0  0  0  0  0  0
   11.5725   -1.1821   24.1947 C   0  0  0  0  0  0  0  0  0  0  0  0
   12.6550   -1.8801   24.7026 C   0  0  0  0  0  0  0  0  0  0  0  0
   13.5534   -2.4830   23.8509 C   0  0  0  0  0  0  0  0  0  0  0  0
   13.3705   -2.3888   22.4889 C   0  0  0  0  0  0  0  0  0  0  0  0
   12.2914   -1.6931   21.9689 C   0  0  0  0  0  0  0  0  0  0  0  0
    9.2862    4.0395   22.2842 N   0  0  0  0  0  0  0  0  0  0  0  0
   10.5679    4.1252   22.9845 C   0  0  0  0  0  0  0  0  0  0  0  0
   11.6289    3.2265   22.3168 C   0  0  0  0  0  0  0  0  0  0  0  0
   12.9988    3.3493   22.9816 C   0  0  0  0  0  0  0  0  0  0  0  0
   13.4587    4.8003   23.0401 C   0  0  0  0  0  0  0  0  0  0  0  0
   12.4225    5.6774   23.7281 C   0  0  0  0  0  0  0  0  0  0  0  0
   11.0679    5.5790   23.0342 C   0  0  0  0  0  0  0  0  0  0  0  0
  1  2  2  0
  2  3  1  0
  3  4  1  0
  4  5  1  0
  5  6  1  0
  6  7  2  0
  7  8  1  0
  8  9  2  0
  9 10  1  0
 10 11  2  0
 11 12  1  0
 12 13  1  0
 13 14  2  0
 13 15  1  0
 15 16  1  0
 16 17  2  0
 17 18  1  0
 18 19  2  0
 19 20  1  0
 20 21  2  0
  2 22  1  0
 22 23  1  0
 23 24  1  0
 24 25  1  0
 25 26  1  0
 26 27  1  0
 27 28  1  0
 11  6  1  0
 21 16  1  0
 28 23  1  0
M  END
