CVD-0000141|dock_bobby27042020.71|mol2|19|dock2
     RDKit          3D

 20 22  0  0  0  0  0  0  0  0999 V2000
   10.5150   -2.1582   23.8354 N   0  0  0  0  0  0  0  0  0  0  0  0
   10.3115   -0.8822   24.1212 C   0  0  0  0  0  0  0  0  0  0  0  0
    9.9372   -0.5042   25.2332 O   0  0  0  0  0  0  0  0  0  0  0  0
   10.5693    0.0961   22.9927 C   0  0  0  0  0  0  0  0  0  0  0  0
   10.0589    1.5395   23.2919 C   0  0  0  0  0  0  0  0  0  0  0  0
   11.2860    2.3791   23.1453 N   0  0  0  0  0  0  0  0  0  0  0  0
   11.0386    3.5096   22.2399 C   0  0  0  0  0  0  0  0  0  0  0  0
   12.0665    4.6074   22.3733 C   0  0  0  0  0  0  0  0  0  0  0  0
   13.1752    4.6564   21.5444 C   0  0  0  0  0  0  0  0  0  0  0  0
   14.0871    5.6815   21.7014 C   0  0  0  0  0  0  0  0  0  0  0  0
   13.9669    6.6451   22.6153 N   0  0  0  0  0  0  0  0  0  0  0  0
   12.8955    6.5901   23.4073 C   0  0  0  0  0  0  0  0  0  0  0  0
   11.9316    5.6048   23.3249 C   0  0  0  0  0  0  0  0  0  0  0  0
   12.4479    1.5996   22.7928 C   0  0  0  0  0  0  0  0  0  0  0  0
   11.9730    0.2138   22.6651 C   0  0  0  0  0  0  0  0  0  0  0  0
   12.9464   -0.6367   23.4515 C   0  0  0  0  0  0  0  0  0  0  0  0
   13.6752   -1.7285   22.8954 C   0  0  0  0  0  0  0  0  0  0  0  0
   14.5055   -2.3539   23.7760 C   0  0  0  0  0  0  0  0  0  0  0  0
   14.4022   -1.6083   25.2983 S   0  0  0  0  0  0  0  0  0  0  0  0
   13.2624   -0.4640   24.7681 C   0  0  0  0  0  0  0  0  0  0  0  0
  1  2  1  0
  2  3  2  0
  4  2  1  0
  4  5  1  0
  5  6  1  0
  6  7  1  0
  7  8  1  0
  8  9  2  0
  9 10  1  0
 10 11  2  0
 11 12  1  0
 12 13  2  0
  6 14  1  0
 14 15  1  0
 15 16  1  0
 16 17  1  0
 17 18  2  0
 18 19  1  0
 19 20  1  0
 15  4  1  0
 20 16  2  0
 13  8  1  0
M  END
