CVD-0002620|dock_bobby27042020.62|mol2|27|dock3
     RDKit          3D

 27 30  0  0  0  0  0  0  0  0999 V2000
   10.0866    6.5829   23.4120 C   0  0  0  0  0  0  0  0  0  0  0  0
   10.9464    5.3647   23.1779 C   0  0  0  0  0  0  0  0  0  0  0  0
   12.3016    5.4908   22.9248 C   0  0  0  0  0  0  0  0  0  0  0  0
   13.0818    4.3702   22.7039 C   0  0  0  0  0  0  0  0  0  0  0  0
   12.5172    3.1064   22.7326 C   0  0  0  0  0  0  0  0  0  0  0  0
   11.1571    2.9467   22.9923 C   0  0  0  0  0  0  0  0  0  0  0  0
   10.3951    4.0926   23.2063 C   0  0  0  0  0  0  0  0  0  0  0  0
   10.4732    1.6324   23.0525 C   0  0  0  0  0  0  0  0  0  0  0  0
    9.2584    1.3352   22.4669 C   0  0  0  0  0  0  0  0  0  0  0  0
    8.9872    0.0017   22.7758 C   0  0  0  0  0  0  0  0  0  0  0  0
    7.8031   -0.8285   22.3929 C   0  0  0  0  0  0  0  0  0  0  0  0
    7.1725   -0.3622   21.1572 N   0  0  0  0  0  0  0  0  0  0  0  0
    5.9591   -1.1352   20.8664 C   0  0  0  0  0  0  0  0  0  0  0  0
    5.2580   -0.6345   19.6190 C   0  0  0  0  0  0  0  0  0  0  0  0
    6.1648   -0.6343   18.3943 C   0  0  0  0  0  0  0  0  0  0  0  0
    5.5690   -0.0482   17.2337 O   0  0  0  0  0  0  0  0  0  0  0  0
    7.4591    0.0866   18.7543 C   0  0  0  0  0  0  0  0  0  0  0  0
    8.0933   -0.4619   20.0217 C   0  0  0  0  0  0  0  0  0  0  0  0
    9.9570   -0.5287   23.5110 N   0  0  0  0  0  0  0  0  0  0  0  0
   10.8664    0.4742   23.6705 N   0  0  0  0  0  0  0  0  0  0  0  0
   12.0436    0.1572   24.4807 C   0  0  0  0  0  0  0  0  0  0  0  0
   12.8557   -0.9832   23.9151 C   0  0  0  0  0  0  0  0  0  0  0  0
   13.7786   -1.6540   24.7024 C   0  0  0  0  0  0  0  0  0  0  0  0
   14.5212   -2.7022   24.1847 C   0  0  0  0  0  0  0  0  0  0  0  0
   14.3483   -3.0918   22.8740 C   0  0  0  0  0  0  0  0  0  0  0  0
   13.4328   -2.4338   22.0810 C   0  0  0  0  0  0  0  0  0  0  0  0
   12.6904   -1.3857   22.5990 C   0  0  0  0  0  0  0  0  0  0  0  0
  1  2  1  0
  2  3  2  0
  3  4  1  0
  4  5  2  0
  5  6  1  0
  6  7  2  0
  6  8  1  0
  8  9  2  0
  9 10  1  0
 10 11  1  0
 11 12  1  0
 12 13  1  0
 13 14  1  0
 14 15  1  0
 15 16  1  0
 15 17  1  0
 17 18  1  0
 10 19  2  0
 19 20  1  0
 20 21  1  0
 21 22  1  0
 22 23  2  0
 23 24  1  0
 24 25  2  0
 25 26  1  0
 26 27  2  0
  7  2  1  0
 20  8  1  0
 27 22  1  0
 18 12  1  0
M  END
