CVD-0002612|dock_bobby27042020.76|mol2|33|dock3
     RDKit          3D

 22 24  0  0  0  0  0  0  0  0999 V2000
    6.6601   -1.3587   17.9102 Cl  0  0  0  0  0  0  0  0  0  0  0  0
    5.5264   -2.1317   19.0259 C   0  0  0  0  0  0  0  0  0  0  0  0
    6.2572   -2.9593   20.0661 C   0  0  0  0  0  0  0  0  0  0  0  0
    6.1897   -4.1820   20.0660 O   0  0  0  0  0  0  0  0  0  0  0  0
    6.9878   -2.2917   20.9832 N   0  0  0  0  0  0  0  0  0  0  0  0
    7.7551   -2.9672   22.0320 C   0  0  0  0  0  0  0  0  0  0  0  0
    9.2033   -2.5150   22.0039 C   0  0  0  0  0  0  0  0  0  0  0  0
    9.2843   -1.0613   22.1737 N   0  0  0  0  0  0  0  0  0  0  0  0
   10.6813   -0.6245   22.1870 C   0  0  0  0  0  0  0  0  0  0  0  0
   10.8499    0.6992   22.8702 C   0  0  0  0  0  0  0  0  0  0  0  0
   11.2466    0.9493   24.1412 C   0  0  0  0  0  0  0  0  0  0  0  0
   11.3205    2.2641   24.5255 N   0  0  0  0  0  0  0  0  0  0  0  0
   10.9782    3.0422   23.5361 C   0  0  0  0  0  0  0  0  0  0  0  0
   10.9442    4.5393   23.6274 C   0  0  0  0  0  0  0  0  0  0  0  0
   12.2010    5.1727   23.0974 C   0  0  0  0  0  0  0  0  0  0  0  0
   12.9378    4.6957   21.9859 C   0  0  0  0  0  0  0  0  0  0  0  0
   14.0491    5.4268   21.6921 C   0  0  0  0  0  0  0  0  0  0  0  0
   14.1949    6.7144   22.7904 S   0  0  0  0  0  0  0  0  0  0  0  0
   12.7859    6.2778   23.6364 C   0  0  0  0  0  0  0  0  0  0  0  0
   10.5399    2.2027   22.0779 S   0  0  0  0  0  0  0  0  0  0  0  0
    8.5561   -0.4130   21.0860 C   0  0  0  0  0  0  0  0  0  0  0  0
    7.0977   -0.8335   21.0898 C   0  0  0  0  0  0  0  0  0  0  0  0
  1  2  1  0
  2  3  1  0
  3  4  2  0
  3  5  1  0
  5  6  1  0
  6  7  1  0
  7  8  1  0
  8  9  1  0
  9 10  1  0
 10 11  2  0
 11 12  1  0
 12 13  2  0
 13 14  1  0
 14 15  1  0
 15 16  1  0
 16 17  2  0
 17 18  1  0
 18 19  1  0
 13 20  1  0
  8 21  1  0
 21 22  1  0
 22  5  1  0
 20 10  1  0
 19 15  2  0
M  END
