CVD-0000611|dock_bobby27042020.69|mol2|39|dock3
     RDKit          3D

 22 24  0  0  0  0  0  0  0  0999 V2000
    8.7248    0.1945   22.4261 O   0  0  0  0  0  0  0  0  0  0  0  0
    9.2620   -0.5081   21.5764 C   0  0  0  0  0  0  0  0  0  0  0  0
   10.4941   -1.3306   21.8936 C   0  0  0  0  0  0  0  0  0  0  0  0
   10.9637   -1.2652   23.3555 C   0  0  0  0  0  0  0  0  0  0  0  0
   11.5572    0.1356   23.6479 C   0  0  0  0  0  0  0  0  0  0  0  0
   12.9776   -0.0259   23.8604 C   0  0  0  0  0  0  0  0  0  0  0  0
   13.3460   -1.4339   23.8118 C   0  0  0  0  0  0  0  0  0  0  0  0
   12.1099   -2.2436   23.6390 C   0  0  0  0  0  0  0  0  0  0  0  0
    9.8116   -1.4887   24.2228 O   0  0  0  0  0  0  0  0  0  0  0  0
    8.7795   -2.4204   23.9946 C   0  0  0  0  0  0  0  0  0  0  0  0
    9.0819   -3.7032   23.5707 C   0  0  0  0  0  0  0  0  0  0  0  0
    8.0539   -4.6054   23.3534 C   0  0  0  0  0  0  0  0  0  0  0  0
    6.7426   -4.2296   23.5532 C   0  0  0  0  0  0  0  0  0  0  0  0
    6.4488   -2.9491   23.9712 C   0  0  0  0  0  0  0  0  0  0  0  0
    7.4653   -2.0355   24.1943 C   0  0  0  0  0  0  0  0  0  0  0  0
    8.8466   -0.6396   20.2930 N   0  0  0  0  0  0  0  0  0  0  0  0
    7.7592   -0.0588   19.5939 C   0  0  0  0  0  0  0  0  0  0  0  0
    6.6099    0.2748   20.2987 C   0  0  0  0  0  0  0  0  0  0  0  0
    5.5381    0.8427   19.6329 C   0  0  0  0  0  0  0  0  0  0  0  0
    5.6454    1.0615   18.2793 C   0  0  0  0  0  0  0  0  0  0  0  0
    6.7339    0.7530   17.5744 N   0  0  0  0  0  0  0  0  0  0  0  0
    7.7643    0.2047   18.2259 C   0  0  0  0  0  0  0  0  0  0  0  0
  1  2  2  0
  2  3  1  0
  3  4  1  0
  4  5  1  0
  5  6  1  0
  6  7  1  0
  7  8  1  0
  4  9  1  0
  9 10  1  0
 10 11  2  0
 11 12  1  0
 12 13  2  0
 13 14  1  0
 14 15  2  0
  2 16  1  0
 16 17  1  0
 17 18  2  0
 18 19  1  0
 19 20  2  0
 20 21  1  0
 21 22  2  0
  8  4  1  0
 15 10  1  0
 22 17  1  0
M  END
