CVD-0002926|dock_bobby27042020.61|mol2|29|dock2
     RDKit          3D

 22 24  0  0  0  0  0  0  0  0999 V2000
   12.9486    4.9528   21.1300 Cl  0  0  0  0  0  0  0  0  0  0  0  0
   13.5412    4.1034   22.5634 C   0  0  0  0  0  0  0  0  0  0  0  0
   12.8179    2.7885   22.7801 C   0  0  0  0  0  0  0  0  0  0  0  0
   13.4516    1.7769   23.0164 O   0  0  0  0  0  0  0  0  0  0  0  0
   11.3320    2.7733   22.6618 C   0  0  0  0  0  0  0  0  0  0  0  0
   10.6355    3.9746   22.8451 C   0  0  0  0  0  0  0  0  0  0  0  0
    9.2851    4.0921   22.5637 C   0  0  0  0  0  0  0  0  0  0  0  0
    8.5634    3.0086   22.0668 C   0  0  0  0  0  0  0  0  0  0  0  0
    7.1817    3.1472   21.6870 C   0  0  0  0  0  0  0  0  0  0  0  0
    6.0945    3.2514   21.3527 N   0  0  0  0  0  0  0  0  0  0  0  0
    9.2264    1.7866   21.9556 C   0  0  0  0  0  0  0  0  0  0  0  0
    8.7683    0.5812   21.4811 N   0  0  0  0  0  0  0  0  0  0  0  0
    9.7124   -0.3729   21.7172 C   0  0  0  0  0  0  0  0  0  0  0  0
    9.6006   -1.5671   21.4664 O   0  0  0  0  0  0  0  0  0  0  0  0
   10.7889    0.2415   22.3110 N   0  0  0  0  0  0  0  0  0  0  0  0
   11.9167   -0.4849   22.8470 C   0  0  0  0  0  0  0  0  0  0  0  0
   12.6065   -1.3941   22.0571 C   0  0  0  0  0  0  0  0  0  0  0  0
   13.6927   -2.0678   22.5871 C   0  0  0  0  0  0  0  0  0  0  0  0
   14.0558   -1.8084   23.8883 C   0  0  0  0  0  0  0  0  0  0  0  0
   13.4116   -0.9382   24.6664 N   0  0  0  0  0  0  0  0  0  0  0  0
   12.3619   -0.2954   24.1451 C   0  0  0  0  0  0  0  0  0  0  0  0
   10.5663    1.6281   22.3491 C   0  0  0  0  0  0  0  0  0  0  0  0
  1  2  1  0
  2  3  1  0
  3  4  2  0
  3  5  1  0
  5  6  2  0
  6  7  1  0
  7  8  2  0
  8  9  1  0
  9 10  3  0
  8 11  1  0
 11 12  1  0
 12 13  1  0
 13 14  2  0
 13 15  1  0
 15 16  1  0
 16 17  2  0
 17 18  1  0
 18 19  2  0
 19 20  1  0
 20 21  2  0
 15 22  1  0
 22  5  1  0
 22 11  2  0
 21 16  1  0
M  END
