CVD-0003176|dock_bobby27042020.3|mol2|4|dock1
     RDKit          3D

 39 42  0  0  0  0  0  0  0  0999 V2000
    4.1720    1.4470   22.2135 C   0  0  0  0  0  0  0  0  0  0  0  0
    4.9272    0.7401   23.3251 C   0  0  0  0  0  0  0  0  0  0  0  0
    4.4496    1.2289   24.6809 C   0  0  0  0  0  0  0  0  0  0  0  0
    6.4338    0.9506   23.1859 C   0  0  0  0  0  0  0  0  0  0  0  0
    6.9849    0.6538   21.8456 N   0  0  0  0  0  0  0  0  0  0  0  0
    7.0278   -0.7635   21.4295 C   0  0  0  0  0  0  0  0  0  0  0  0
    8.4029   -1.4177   21.5281 C   0  0  0  0  0  0  0  0  0  0  0  0
    9.4158   -0.4726   21.1807 O   0  0  0  0  0  0  0  0  0  0  0  0
    8.7910   -1.9234   22.9029 C   0  0  0  0  0  0  0  0  0  0  0  0
   10.1844   -2.5944   22.9355 C   0  0  0  0  0  0  0  0  0  0  0  0
   11.3334   -1.6164   22.9737 C   0  0  0  0  0  0  0  0  0  0  0  0
   12.2923   -1.6100   21.9724 C   0  0  0  0  0  0  0  0  0  0  0  0
   13.3484   -0.7150   22.0088 C   0  0  0  0  0  0  0  0  0  0  0  0
   13.4586    0.1838   23.0481 C   0  0  0  0  0  0  0  0  0  0  0  0
   12.5129    0.1870   24.0507 C   0  0  0  0  0  0  0  0  0  0  0  0
   11.4569   -0.7082   24.0138 C   0  0  0  0  0  0  0  0  0  0  0  0
    7.7369   -2.8905   23.3465 C   0  0  0  0  0  0  0  0  0  0  0  0
    7.4059   -3.9874   22.6895 C   0  0  0  0  0  0  0  0  0  0  0  0
    6.3824   -4.9573   23.0890 C   0  0  0  0  0  0  0  0  0  0  0  0
    5.6013   -5.6067   22.1398 C   0  0  0  0  0  0  0  0  0  0  0  0
    4.6602   -6.5016   22.5473 C   0  0  0  0  0  0  0  0  0  0  0  0
    4.4852   -6.7624   23.9254 C   0  0  0  0  0  0  0  0  0  0  0  0
    3.5346   -7.6740   24.4425 C   0  0  0  0  0  0  0  0  0  0  0  0
    3.4188   -7.8778   25.7842 C   0  0  0  0  0  0  0  0  0  0  0  0
    4.2381   -7.1876   26.6522 C   0  0  0  0  0  0  0  0  0  0  0  0
    4.0705   -7.4658   28.3631 Cl  0  0  0  0  0  0  0  0  0  0  0  0
    5.1722   -6.2969   26.2155 C   0  0  0  0  0  0  0  0  0  0  0  0
    5.3182   -6.0621   24.8292 C   0  0  0  0  0  0  0  0  0  0  0  0
    6.2592   -5.1653   24.3953 N   0  0  0  0  0  0  0  0  0  0  0  0
    7.4737    1.8210   20.8105 S   0  0  0  0  0  0  0  0  0  0  0  0
    6.2876    2.5260   20.4351 O   0  0  0  0  0  0  0  0  0  0  0  0
    8.2518    1.1804   19.7965 O   0  0  0  0  0  0  0  0  0  0  0  0
    8.5189    2.9653   21.6450 C   0  0  0  0  0  0  0  0  0  0  0  0
    8.0049    4.1796   22.0694 C   0  0  0  0  0  0  0  0  0  0  0  0
    8.8284    5.0775   22.7251 C   0  0  0  0  0  0  0  0  0  0  0  0
   10.1711    4.7775   22.9654 C   0  0  0  0  0  0  0  0  0  0  0  0
   10.9870    5.6722   23.6174 N   0  0  0  0  0  0  0  0  0  0  0  0
   10.6654    3.5466   22.5276 C   0  0  0  0  0  0  0  0  0  0  0  0
    9.8474    2.6441   21.8713 C   0  0  0  0  0  0  0  0  0  0  0  0
  1  2  1  0
  2  3  1  0
  2  4  1  0
  4  5  1  0
  5  6  1  0
  6  7  1  0
  7  8  1  0
  7  9  1  0
  9 10  1  0
 10 11  1  0
 11 12  2  0
 12 13  1  0
 13 14  2  0
 14 15  1  0
 15 16  2  0
  9 17  1  0
 17 18  2  0
 18 19  1  0
 19 20  2  0
 20 21  1  0
 21 22  2  0
 22 23  1  0
 23 24  2  0
 24 25  1  0
 25 26  1  0
 25 27  2  0
 27 28  1  0
 28 29  2  0
  5 30  1  0
 30 31  2  0
 30 32  2  0
 30 33  1  0
 33 34  2  0
 34 35  1  0
 35 36  2  0
 36 37  1  0
 36 38  1  0
 38 39  2  0
 16 11  1  0
 29 19  1  0
 39 33  1  0
 28 22  1  0
M  END
