CVD-0003676|dock_bobby27042020.59|mol2|7|dock1
     RDKit          3D

 18 19  0  0  0  0  0  0  0  0999 V2000
   13.9787   -1.7147   22.5428 Cl  0  0  0  0  0  0  0  0  0  0  0  0
   13.3736   -0.8560   23.9654 C   0  0  0  0  0  0  0  0  0  0  0  0
   12.3519    0.1971   23.5821 C   0  0  0  0  0  0  0  0  0  0  0  0
   12.6233    1.3901   23.6346 O   0  0  0  0  0  0  0  0  0  0  0  0
   11.1384   -0.2329   23.1756 N   0  0  0  0  0  0  0  0  0  0  0  0
   10.7237   -1.6286   23.0604 C   0  0  0  0  0  0  0  0  0  0  0  0
   10.0151   -1.8503   21.7400 C   0  0  0  0  0  0  0  0  0  0  0  0
    8.8163   -0.9187   21.6126 C   0  0  0  0  0  0  0  0  0  0  0  0
    9.2723    0.5276   21.7918 C   0  0  0  0  0  0  0  0  0  0  0  0
   10.0151    0.6960   23.1130 C   0  0  0  0  0  0  0  0  0  0  0  0
    8.1236   -1.1068   20.2765 C   0  0  0  0  0  0  0  0  0  0  0  0
    8.7175   -1.6438   19.3611 O   0  0  0  0  0  0  0  0  0  0  0  0
    6.8530   -0.6875   20.1118 N   0  0  0  0  0  0  0  0  0  0  0  0
    6.0209   -0.0531   21.1359 C   0  0  0  0  0  0  0  0  0  0  0  0
    5.5304    1.2982   20.6596 C   0  0  0  0  0  0  0  0  0  0  0  0
    4.8002    1.1734   19.3229 C   0  0  0  0  0  0  0  0  0  0  0  0
    5.6778    0.4648   18.3054 C   0  0  0  0  0  0  0  0  0  0  0  0
    6.1613   -0.8682   18.8300 C   0  0  0  0  0  0  0  0  0  0  0  0
  1  2  1  0
  2  3  1  0
  3  4  2  0
  3  5  1  0
  5  6  1  0
  6  7  1  0
  7  8  1  0
  8  9  1  0
  9 10  1  0
  8 11  1  0
 11 12  2  0
 11 13  1  0
 13 14  1  0
 14 15  1  0
 15 16  1  0
 16 17  1  0
 17 18  1  0
 10  5  1  0
 18 13  1  0
M  END
