CVD-0002908|dock_bobby27042020.18|mol2|18|dock1
     RDKit          3D

 21 23  0  0  0  0  0  0  0  0999 V2000
   12.5849    3.4669   23.1510 C   0  0  0  0  0  0  0  0  0  0  0  0
   11.4814    2.6022   22.5741 C   0  0  0  0  0  0  0  0  0  0  0  0
   11.7250    1.1044   22.7036 C   0  0  0  0  0  0  0  0  0  0  0  0
   11.8223    0.7137   24.1666 C   0  0  0  0  0  0  0  0  0  0  0  0
   12.1789   -0.7027   24.2908 N   0  0  0  0  0  0  0  0  0  0  0  0
   13.4951   -0.9878   23.7223 C   0  0  0  0  0  0  0  0  0  0  0  0
   11.1494   -1.5119   23.6436 C   0  0  0  0  0  0  0  0  0  0  0  0
   11.0315   -1.1560   22.1728 C   0  0  0  0  0  0  0  0  0  0  0  0
   10.7357    0.2715   22.0163 N   0  0  0  0  0  0  0  0  0  0  0  0
    9.6560    0.7224   21.3201 C   0  0  0  0  0  0  0  0  0  0  0  0
    9.3854    1.9063   21.1682 O   0  0  0  0  0  0  0  0  0  0  0  0
    8.7314   -0.3355   20.7271 C   0  0  0  0  0  0  0  0  0  0  0  0
    7.5676    0.1326   19.8969 C   0  0  0  0  0  0  0  0  0  0  0  0
    7.4319    0.1767   18.5378 C   0  0  0  0  0  0  0  0  0  0  0  0
    6.2044    0.6704   18.1849 N   0  0  0  0  0  0  0  0  0  0  0  0
    5.5102    0.9576   19.3221 C   0  0  0  0  0  0  0  0  0  0  0  0
    4.2675    1.4604   19.4136 N   0  0  0  0  0  0  0  0  0  0  0  0
    3.7970    1.6547   20.6532 C   0  0  0  0  0  0  0  0  0  0  0  0
    4.5101    1.3708   21.7981 C   0  0  0  0  0  0  0  0  0  0  0  0
    5.7911    0.8537   21.6843 C   0  0  0  0  0  0  0  0  0  0  0  0
    6.3277    0.6330   20.4174 C   0  0  0  0  0  0  0  0  0  0  0  0
  1  2  1  0
  2  3  1  0
  3  4  1  0
  4  5  1  0
  5  6  1  0
  5  7  1  0
  7  8  1  0
  8  9  1  0
  9 10  1  0
 10 11  2  0
 10 12  1  0
 12 13  1  0
 13 14  2  0
 14 15  1  0
 15 16  1  0
 16 17  2  0
 17 18  1  0
 18 19  2  0
 19 20  1  0
 20 21  2  0
  9  3  1  0
 21 13  1  0
 21 16  1  0
M  END
