CVD-0002344|dock_bobby27042020.20|mol2|25|dock2
     RDKit          3D

 17 18  0  0  0  0  0  0  0  0999 V2000
    8.6067   -1.0799   18.6013 N   0  0  0  0  0  0  0  0  0  0  0  0
    7.6622   -1.0403   19.5452 C   0  0  0  0  0  0  0  0  0  0  0  0
    6.4958   -0.4090   19.1842 N   0  0  0  0  0  0  0  0  0  0  0  0
    5.5591   -0.3586   20.0853 C   0  0  0  0  0  0  0  0  0  0  0  0
    5.6706   -0.8823   21.3265 N   0  0  0  0  0  0  0  0  0  0  0  0
    6.8032   -1.5365   21.7847 C   0  0  0  0  0  0  0  0  0  0  0  0
    6.8622   -1.9999   22.9227 O   0  0  0  0  0  0  0  0  0  0  0  0
    7.8618   -1.6044   20.8032 C   0  0  0  0  0  0  0  0  0  0  0  0
    9.1331   -2.3040   21.2080 C   0  0  0  0  0  0  0  0  0  0  0  0
   10.1938   -1.3364   21.7042 C   0  0  0  0  0  0  0  0  0  0  0  0
   11.3858   -2.0214   22.2209 N   0  0  0  0  0  0  0  0  0  0  0  0
   11.5858   -1.9868   23.6856 C   0  0  0  0  0  0  0  0  0  0  0  0
   11.9435   -0.6051   24.2128 C   0  0  0  0  0  0  0  0  0  0  0  0
   13.4516   -0.3045   24.2912 C   0  0  0  0  0  0  0  0  0  0  0  0
   14.1442   -0.8991   23.1884 O   0  0  0  0  0  0  0  0  0  0  0  0
   13.5296   -0.7581   21.9119 C   0  0  0  0  0  0  0  0  0  0  0  0
   12.6842   -1.9504   21.5341 C   0  0  0  0  0  0  0  0  0  0  0  0
  1  2  1  0
  2  3  1  0
  3  4  2  0
  4  5  1  0
  5  6  1  0
  6  7  2  0
  6  8  1  0
  8  9  1  0
  9 10  1  0
 10 11  1  0
 11 12  1  0
 12 13  1  0
 13 14  1  0
 14 15  1  0
 15 16  1  0
 16 17  1  0
  8  2  2  0
 17 11  1  0
M  END
