CVD-0001477|dock_bobby27042020.67|mol2|4|dock3
     RDKit          3D

 21 22  0  0  0  0  0  0  0  0999 V2000
    6.6342   -6.6544   22.3999 C   0  0  0  0  0  0  0  0  0  0  0  0
    6.8283   -5.5938   21.3618 C   0  0  0  0  0  0  0  0  0  0  0  0
    6.3984   -4.2921   21.8444 N   0  0  0  0  0  0  0  0  0  0  0  0
    6.4229   -3.1880   21.0797 C   0  0  0  0  0  0  0  0  0  0  0  0
    5.8510   -3.2903   19.8633 N   0  0  0  0  0  0  0  0  0  0  0  0
    5.8710   -2.2157   19.0677 C   0  0  0  0  0  0  0  0  0  0  0  0
    6.4445   -1.0040   19.4316 C   0  0  0  0  0  0  0  0  0  0  0  0
    7.0233   -0.9101   20.6919 C   0  0  0  0  0  0  0  0  0  0  0  0
    7.0241   -2.0024   21.5526 C   0  0  0  0  0  0  0  0  0  0  0  0
    7.6554   -1.8520   22.9183 C   0  0  0  0  0  0  0  0  0  0  0  0
    9.0136   -1.2907   22.8641 N   0  0  0  0  0  0  0  0  0  0  0  0
    9.8913   -2.1483   22.0623 C   0  0  0  0  0  0  0  0  0  0  0  0
   11.2803   -1.5436   21.9756 C   0  0  0  0  0  0  0  0  0  0  0  0
   11.8416   -1.3570   23.3153 N   0  0  0  0  0  0  0  0  0  0  0  0
   10.9567   -0.5517   24.1628 C   0  0  0  0  0  0  0  0  0  0  0  0
    9.5692   -1.1652   24.2091 C   0  0  0  0  0  0  0  0  0  0  0  0
   13.0517   -1.8585   23.6849 C   0  0  0  0  0  0  0  0  0  0  0  0
   13.5678   -1.6099   25.0725 C   0  0  0  0  0  0  0  0  0  0  0  0
   13.7275   -2.4995   22.8878 O   0  0  0  0  0  0  0  0  0  0  0  0
    6.4420    0.1246   18.5340 C   0  0  0  0  0  0  0  0  0  0  0  0
    6.4497    0.9986   17.7985 N   0  0  0  0  0  0  0  0  0  0  0  0
  1  2  1  0
  2  3  1  0
  3  4  1  0
  4  5  2  0
  5  6  1  0
  6  7  2  0
  7  8  1  0
  8  9  2  0
  9 10  1  0
 10 11  1  0
 11 12  1  0
 12 13  1  0
 13 14  1  0
 14 15  1  0
 15 16  1  0
 14 17  1  0
 17 18  1  0
 17 19  2  0
  7 20  1  0
 20 21  3  0
  9  4  1  0
 16 11  1  0
M  END
