CVD-0000281|dock_bobby27042020.99|mol2|11|dock1
     RDKit          3D

 28 30  0  0  0  0  0  0  0  0999 V2000
   13.5306   -1.7297   20.8740 C   0  0  0  0  0  0  0  0  0  0  0  0
   12.5706   -2.2497   21.9032 C   0  0  0  0  0  0  0  0  0  0  0  0
   11.4282   -2.5808   21.6063 O   0  0  0  0  0  0  0  0  0  0  0  0
   12.9996   -2.3277   23.1823 N   0  0  0  0  0  0  0  0  0  0  0  0
   14.3482   -1.9902   23.6615 C   0  0  0  0  0  0  0  0  0  0  0  0
   14.3197   -2.2271   25.1651 C   0  0  0  0  0  0  0  0  0  0  0  0
   12.9077   -2.6156   25.5396 C   0  0  0  0  0  0  0  0  0  0  0  0
   12.0728   -2.7518   24.2407 C   0  0  0  0  0  0  0  0  0  0  0  0
   10.7586   -1.9796   24.1867 C   0  0  0  0  0  0  0  0  0  0  0  0
   10.6619   -0.8665   24.6967 O   0  0  0  0  0  0  0  0  0  0  0  0
    9.7483   -2.5841   23.5621 N   0  0  0  0  0  0  0  0  0  0  0  0
    8.4302   -1.9775   23.4264 C   0  0  0  0  0  0  0  0  0  0  0  0
    7.6480   -2.5515   22.2409 C   0  0  0  0  0  0  0  0  0  0  0  0
    6.6514   -1.5797   21.7979 N   0  0  0  0  0  0  0  0  0  0  0  0
    6.7731   -0.8659   20.6767 C   0  0  0  0  0  0  0  0  0  0  0  0
    7.7333   -0.9631   19.9188 O   0  0  0  0  0  0  0  0  0  0  0  0
    5.6267    0.0861   20.3821 C   0  0  0  0  0  0  0  0  0  0  0  0
    5.6590    0.5443   19.0008 N   0  0  0  0  0  0  0  0  0  0  0  0
    5.9250   -0.1321   17.8907 C   0  0  0  0  0  0  0  0  0  0  0  0
    5.8802    0.6546   16.8381 N   0  0  0  0  0  0  0  0  0  0  0  0
    5.5827    1.8486   17.3878 C   0  0  0  0  0  0  0  0  0  0  0  0
    5.4422    1.8491   18.6947 N   0  0  0  0  0  0  0  0  0  0  0  0
    7.0014   -3.8711   22.6134 C   0  0  0  0  0  0  0  0  0  0  0  0
    7.3891   -5.0510   21.9940 C   0  0  0  0  0  0  0  0  0  0  0  0
    6.7958   -6.2557   22.3323 C   0  0  0  0  0  0  0  0  0  0  0  0
    5.8077   -6.2953   23.2926 C   0  0  0  0  0  0  0  0  0  0  0  0
    5.4118   -5.1307   23.9149 C   0  0  0  0  0  0  0  0  0  0  0  0
    6.0044   -3.9254   23.5773 C   0  0  0  0  0  0  0  0  0  0  0  0
  1  2  1  0
  2  3  2  0
  2  4  1  0
  4  5  1  0
  5  6  1  0
  6  7  1  0
  7  8  1  0
  8  9  1  0
  9 10  2  0
  9 11  1  0
 11 12  1  0
 12 13  1  0
 13 14  1  0
 14 15  1  0
 15 16  2  0
 15 17  1  0
 17 18  1  0
 18 19  1  0
 19 20  2  0
 20 21  1  0
 21 22  2  0
 13 23  1  0
 23 24  2  0
 24 25  1  0
 25 26  2  0
 26 27  1  0
 27 28  2  0
  8  4  1  0
 22 18  1  0
 28 23  1  0
M  END
