CVD-0002102|dock_bobby27042020.93|mol2|2|dock2
     RDKit          3D

 21 23  0  0  0  0  0  0  0  0999 V2000
    8.7825    3.9637   22.2684 N   0  0  0  0  0  0  0  0  0  0  0  0
    9.5096    2.6757   22.3154 C   0  0  0  0  0  0  0  0  0  0  0  0
    8.5889    1.4885   22.5480 C   0  0  0  0  0  0  0  0  0  0  0  0
    9.3594    0.4694   23.1642 O   0  0  0  0  0  0  0  0  0  0  0  0
   10.1547   -0.2791   22.2203 C   0  0  0  0  0  0  0  0  0  0  0  0
    9.1333   -1.1038   21.3921 C   0  0  0  0  0  0  0  0  0  0  0  0
    8.2397   -0.1213   20.6518 C   0  0  0  0  0  0  0  0  0  0  0  0
    7.6320   -0.4174   19.4251 C   0  0  0  0  0  0  0  0  0  0  0  0
    8.1090   -1.4304   18.6335 O   0  0  0  0  0  0  0  0  0  0  0  0
    6.6389    0.4060   18.9009 C   0  0  0  0  0  0  0  0  0  0  0  0
    6.1348    0.1352   17.6689 O   0  0  0  0  0  0  0  0  0  0  0  0
    6.2333    1.5419   19.5901 C   0  0  0  0  0  0  0  0  0  0  0  0
    6.8264    1.8441   20.8011 C   0  0  0  0  0  0  0  0  0  0  0  0
    7.8229    1.0251   21.3348 C   0  0  0  0  0  0  0  0  0  0  0  0
   11.2486   -0.9806   23.0264 C   0  0  0  0  0  0  0  0  0  0  0  0
   12.1929   -0.0316   23.5956 N   0  0  0  0  0  0  0  0  0  0  0  0
   13.1789   -0.6996   24.4422 C   0  0  0  0  0  0  0  0  0  0  0  0
   14.0119   -1.6734   23.6230 C   0  0  0  0  0  0  0  0  0  0  0  0
   13.1230   -2.7361   22.9793 C   0  0  0  0  0  0  0  0  0  0  0  0
   11.9939   -2.0637   22.1788 C   0  0  0  0  0  0  0  0  0  0  0  0
   12.5634   -1.4961   20.9974 O   0  0  0  0  0  0  0  0  0  0  0  0
  1  2  1  0
  2  3  1  0
  3  4  1  0
  4  5  1  0
  5  6  1  0
  6  7  1  0
  7  8  2  0
  8  9  1  0
  8 10  1  0
 10 11  1  0
 10 12  2  0
 12 13  1  0
 13 14  2  0
  5 15  1  0
 15 16  1  0
 16 17  1  0
 17 18  1  0
 18 19  1  0
 19 20  1  0
 20 21  1  0
 14  3  1  0
 20 15  1  0
 14  7  1  0
M  END
