CVD-0003333|dock_bobby27042020.45|mol2|35|dock1
     RDKit          3D

 23 25  0  0  0  0  0  0  0  0999 V2000
   14.2081   -1.8144   25.2564 C   0  0  0  0  0  0  0  0  0  0  0  0
   13.3825   -1.0812   24.2523 C   0  0  0  0  0  0  0  0  0  0  0  0
   13.3671   -1.3621   22.9930 N   0  0  0  0  0  0  0  0  0  0  0  0
   12.5214   -0.5632   22.2206 N   0  0  0  0  0  0  0  0  0  0  0  0
   11.9156    0.3122   22.9944 C   0  0  0  0  0  0  0  0  0  0  0  0
   12.3332    0.2247   24.6862 S   0  0  0  0  0  0  0  0  0  0  0  0
   10.9982    1.2542   22.4612 N   0  0  0  0  0  0  0  0  0  0  0  0
    9.8102    0.9355   21.7087 C   0  0  0  0  0  0  0  0  0  0  0  0
    9.2015    1.8544   21.1760 O   0  0  0  0  0  0  0  0  0  0  0  0
    9.4036   -0.3726   21.6222 N   0  0  0  0  0  0  0  0  0  0  0  0
    8.2866   -0.9459   20.9617 C   0  0  0  0  0  0  0  0  0  0  0  0
    7.5376   -2.0280   21.4184 C   0  0  0  0  0  0  0  0  0  0  0  0
    6.4940   -2.5220   20.7468 N   0  0  0  0  0  0  0  0  0  0  0  0
    6.2012   -1.9179   19.6005 C   0  0  0  0  0  0  0  0  0  0  0  0
    6.8307   -0.8832   19.0557 N   0  0  0  0  0  0  0  0  0  0  0  0
    7.8694   -0.4109   19.7490 C   0  0  0  0  0  0  0  0  0  0  0  0
   11.2525    2.6628   22.6802 C   0  0  0  0  0  0  0  0  0  0  0  0
   10.2357    3.5160   23.0947 C   0  0  0  0  0  0  0  0  0  0  0  0
   10.4901    4.8616   23.3012 C   0  0  0  0  0  0  0  0  0  0  0  0
   11.7594    5.3750   23.0980 C   0  0  0  0  0  0  0  0  0  0  0  0
   12.7606    4.5236   22.6877 C   0  0  0  0  0  0  0  0  0  0  0  0
   14.3621    5.1565   22.4284 Cl  0  0  0  0  0  0  0  0  0  0  0  0
   12.5276    3.1803   22.4764 C   0  0  0  0  0  0  0  0  0  0  0  0
  1  2  1  0
  2  3  2  0
  3  4  1  0
  4  5  2  0
  5  6  1  0
  5  7  1  0
  7  8  1  0
  8  9  2  0
  8 10  1  0
 10 11  1  0
 11 12  2  0
 12 13  1  0
 13 14  2  0
 14 15  1  0
 15 16  2  0
  7 17  1  0
 17 18  2  0
 18 19  1  0
 19 20  2  0
 20 21  1  0
 21 22  1  0
 21 23  2  0
  6  2  1  0
 16 11  1  0
 23 17  1  0
M  END
