CVD-0002516|dock_bobby27042020.77|mol2|9|dock2
     RDKit          3D

 28 32  0  0  0  0  0  0  0  0999 V2000
    7.9893   -0.5468   24.8637 O   0  0  0  0  0  0  0  0  0  0  0  0
    8.9922   -0.9379   23.9205 C   0  0  0  0  0  0  0  0  0  0  0  0
    9.8806    0.2667   23.6461 C   0  0  0  0  0  0  0  0  0  0  0  0
    9.0968    1.2804   22.8579 C   0  0  0  0  0  0  0  0  0  0  0  0
    8.5068    0.6471   21.6223 C   0  0  0  0  0  0  0  0  0  0  0  0
    7.6877   -0.5344   21.8636 N   0  0  0  0  0  0  0  0  0  0  0  0
    8.4209   -1.5403   22.6415 C   0  0  0  0  0  0  0  0  0  0  0  0
    7.4572   -2.6876   22.9799 C   0  0  0  0  0  0  0  0  0  0  0  0
    8.3458   -3.7363   23.6120 C   0  0  0  0  0  0  0  0  0  0  0  0
    7.6246   -4.9776   23.7655 N   0  0  0  0  0  0  0  0  0  0  0  0
    6.4724   -4.8264   24.6576 C   0  0  0  0  0  0  0  0  0  0  0  0
    6.8781   -4.5449   26.0732 C   0  0  0  0  0  0  0  0  0  0  0  0
    6.7975   -3.3414   26.7401 C   0  0  0  0  0  0  0  0  0  0  0  0
    7.2750   -3.4596   28.0678 C   0  0  0  0  0  0  0  0  0  0  0  0
    7.6937   -4.6979   28.3774 C   0  0  0  0  0  0  0  0  0  0  0  0
    7.5235   -5.7729   27.0631 S   0  0  0  0  0  0  0  0  0  0  0  0
    7.2348   -5.5033   22.4862 C   0  0  0  0  0  0  0  0  0  0  0  0
    6.2470   -4.5384   21.8381 C   0  0  0  0  0  0  0  0  0  0  0  0
    6.7621   -3.1851   21.7750 N   0  0  0  0  0  0  0  0  0  0  0  0
    6.5775   -2.4459   20.6367 C   0  0  0  0  0  0  0  0  0  0  0  0
    5.9284   -2.8597   19.6879 O   0  0  0  0  0  0  0  0  0  0  0  0
    7.1767   -1.0615   20.5788 C   0  0  0  0  0  0  0  0  0  0  0  0
    6.1565   -0.1187   19.9621 C   0  0  0  0  0  0  0  0  0  0  0  0
    6.2607    0.2678   18.6333 C   0  0  0  0  0  0  0  0  0  0  0  0
    5.3325    1.1293   18.0729 C   0  0  0  0  0  0  0  0  0  0  0  0
    4.2904    1.6147   18.8337 C   0  0  0  0  0  0  0  0  0  0  0  0
    4.1758    1.2398   20.1553 C   0  0  0  0  0  0  0  0  0  0  0  0
    5.1033    0.3783   20.7170 C   0  0  0  0  0  0  0  0  0  0  0  0
  1  2  1  0
  2  3  1  0
  3  4  1  0
  4  5  1  0
  5  6  1  0
  6  7  1  0
  7  8  1  0
  8  9  1  0
  9 10  1  0
 10 11  1  0
 11 12  1  0
 12 13  2  0
 13 14  1  0
 14 15  2  0
 15 16  1  0
 10 17  1  0
 17 18  1  0
 18 19  1  0
 19 20  1  0
 20 21  2  0
 20 22  1  0
 22 23  1  0
 23 24  2  0
 24 25  1  0
 25 26  2  0
 26 27  1  0
 27 28  2  0
  7  2  1  0
 19  8  1  0
 28 23  1  0
 22  6  1  0
 16 12  1  0
M  END
