CVD-0002737|dock_bobby27042020.4|mol2|34|dock2
     RDKit          3D

 21 23  0  0  0  0  0  0  0  0999 V2000
   13.9014   -1.7720   21.3372 Cl  0  0  0  0  0  0  0  0  0  0  0  0
   13.8529   -1.7755   23.1050 C   0  0  0  0  0  0  0  0  0  0  0  0
   12.9059   -0.7170   23.6362 C   0  0  0  0  0  0  0  0  0  0  0  0
   13.3176    0.2538   24.2588 O   0  0  0  0  0  0  0  0  0  0  0  0
   11.5929   -0.8952   23.3843 N   0  0  0  0  0  0  0  0  0  0  0  0
   10.5648    0.0517   23.8215 C   0  0  0  0  0  0  0  0  0  0  0  0
    9.7152    0.4925   22.6441 C   0  0  0  0  0  0  0  0  0  0  0  0
    9.0934   -0.6702   22.0035 N   0  0  0  0  0  0  0  0  0  0  0  0
    8.2375   -0.2453   20.8867 C   0  0  0  0  0  0  0  0  0  0  0  0
    6.8402    0.1750   21.2928 C   0  0  0  0  0  0  0  0  0  0  0  0
    6.3981   -0.0424   22.5717 C   0  0  0  0  0  0  0  0  0  0  0  0
    5.1292    0.3374   22.9748 C   0  0  0  0  0  0  0  0  0  0  0  0
    4.2745    0.9444   22.1042 C   0  0  0  0  0  0  0  0  0  0  0  0
    4.6693    1.1958   20.7682 C   0  0  0  0  0  0  0  0  0  0  0  0
    3.8152    1.8232   19.8299 C   0  0  0  0  0  0  0  0  0  0  0  0
    4.2291    2.0474   18.5507 C   0  0  0  0  0  0  0  0  0  0  0  0
    5.4896    1.6666   18.1416 C   0  0  0  0  0  0  0  0  0  0  0  0
    6.3489    1.0588   19.0076 C   0  0  0  0  0  0  0  0  0  0  0  0
    5.9758    0.8021   20.3527 C   0  0  0  0  0  0  0  0  0  0  0  0
   10.1415   -1.5711   21.5307 C   0  0  0  0  0  0  0  0  0  0  0  0
   11.0062   -2.0429   22.6855 C   0  0  0  0  0  0  0  0  0  0  0  0
  1  2  1  0
  2  3  1  0
  3  4  2  0
  3  5  1  0
  5  6  1  0
  6  7  1  0
  7  8  1  0
  8  9  1  0
  9 10  1  0
 10 11  2  0
 11 12  1  0
 12 13  2  0
 13 14  1  0
 14 15  2  0
 15 16  1  0
 16 17  2  0
 17 18  1  0
 18 19  2  0
  8 20  1  0
 20 21  1  0
 21  5  1  0
 19 10  1  0
 19 14  1  0
M  END
