CVD-0003331|dock_bobby27042020.74|mol2|15|dock3
     RDKit          3D

 24 26  0  0  0  0  0  0  0  0999 V2000
    2.8398    2.3249   20.1421 Cl  0  0  0  0  0  0  0  0  0  0  0  0
    4.2512    1.4142   19.6826 C   0  0  0  0  0  0  0  0  0  0  0  0
    4.9226    1.7479   18.5269 C   0  0  0  0  0  0  0  0  0  0  0  0
    6.0432    1.0159   18.1721 C   0  0  0  0  0  0  0  0  0  0  0  0
    6.4747   -0.0305   18.9702 C   0  0  0  0  0  0  0  0  0  0  0  0
    5.7960   -0.3609   20.1327 C   0  0  0  0  0  0  0  0  0  0  0  0
    6.2638   -1.5039   21.0015 C   0  0  0  0  0  0  0  0  0  0  0  0
    7.7074   -1.4733   21.2825 N   0  0  0  0  0  0  0  0  0  0  0  0
    8.1372   -2.7336   21.8955 C   0  0  0  0  0  0  0  0  0  0  0  0
    9.6337   -2.7125   22.1454 C   0  0  0  0  0  0  0  0  0  0  0  0
    9.9929   -1.5830   23.0056 N   0  0  0  0  0  0  0  0  0  0  0  0
    9.5232   -0.3107   22.4483 C   0  0  0  0  0  0  0  0  0  0  0  0
    8.0298   -0.3704   22.1840 C   0  0  0  0  0  0  0  0  0  0  0  0
   10.6974   -1.7283   24.1510 C   0  0  0  0  0  0  0  0  0  0  0  0
   11.1249   -2.8350   24.4589 O   0  0  0  0  0  0  0  0  0  0  0  0
   11.0180   -0.6157   25.1152 C   0  0  0  0  0  0  0  0  0  0  0  0
   10.1852   -0.1613   26.0372 C   0  0  0  0  0  0  0  0  0  0  0  0
   12.4013   -0.0461   24.9638 C   0  0  0  0  0  0  0  0  0  0  0  0
   13.0989   -0.5030   23.7306 C   0  0  0  0  0  0  0  0  0  0  0  0
   13.4187    0.0824   22.5688 C   0  0  0  0  0  0  0  0  0  0  0  0
   14.0699   -0.9080   21.8410 C   0  0  0  0  0  0  0  0  0  0  0  0
   14.1591   -2.0239   22.4769 N   0  0  0  0  0  0  0  0  0  0  0  0
   13.5289   -1.7824   23.7193 O   0  0  0  0  0  0  0  0  0  0  0  0
    4.6716    0.3739   20.4857 C   0  0  0  0  0  0  0  0  0  0  0  0
  1  2  1  0
  2  3  2  0
  3  4  1  0
  4  5  2  0
  5  6  1  0
  6  7  1  0
  7  8  1  0
  8  9  1  0
  9 10  1  0
 10 11  1  0
 11 12  1  0
 12 13  1  0
 11 14  1  0
 14 15  2  0
 14 16  1  0
 16 17  2  0
 16 18  1  0
 18 19  1  0
 19 20  2  0
 20 21  1  0
 21 22  2  0
 22 23  1  0
  6 24  2  0
 24  2  1  0
 13  8  1  0
 23 19  1  0
M  END
