CVD-0000309|dock_bobby27042020.99|mol2|7|dock1
     RDKit          3D

 17 18  0  0  0  0  0  0  0  0999 V2000
   10.7466   -0.7948   21.9439 C   0  0  0  0  0  0  0  0  0  0  0  0
   11.4997   -0.1212   22.8050 C   0  0  0  0  0  0  0  0  0  0  0  0
   11.3666    1.3653   22.8244 C   0  0  0  0  0  0  0  0  0  0  0  0
   10.2438    1.8389   22.6621 O   0  0  0  0  0  0  0  0  0  0  0  0
   12.4872    2.1042   23.0391 N   0  0  0  0  0  0  0  0  0  0  0  0
   12.6961    3.5067   23.0548 C   0  0  0  0  0  0  0  0  0  0  0  0
   11.7349    4.4261   23.4700 C   0  0  0  0  0  0  0  0  0  0  0  0
   12.0181    5.7821   23.4606 C   0  0  0  0  0  0  0  0  0  0  0  0
   13.2474    6.2382   23.0388 C   0  0  0  0  0  0  0  0  0  0  0  0
   14.2029    5.3380   22.6226 C   0  0  0  0  0  0  0  0  0  0  0  0
   13.9322    3.9802   22.6292 C   0  0  0  0  0  0  0  0  0  0  0  0
   12.4526   -0.8275   23.7102 C   0  0  0  0  0  0  0  0  0  0  0  0
   13.1834   -1.9444   23.3173 C   0  0  0  0  0  0  0  0  0  0  0  0
   14.0391   -2.5647   24.2103 C   0  0  0  0  0  0  0  0  0  0  0  0
   14.1421   -2.0527   25.4827 C   0  0  0  0  0  0  0  0  0  0  0  0
   13.4575   -0.9858   25.8950 N   0  0  0  0  0  0  0  0  0  0  0  0
   12.6404   -0.3952   25.0172 C   0  0  0  0  0  0  0  0  0  0  0  0
  1  2  2  0
  2  3  1  0
  3  4  2  0
  3  5  1  0
  5  6  1  0
  6  7  2  0
  7  8  1  0
  8  9  2  0
  9 10  1  0
 10 11  2  0
  2 12  1  0
 12 13  2  0
 13 14  1  0
 14 15  2  0
 15 16  1  0
 16 17  2  0
 11  6  1  0
 17 12  1  0
M  END
