CVD-0003834|dock_bobby27042020.44|mol2|10|dock1
     RDKit          3D

 25 27  0  0  0  0  0  0  0  0999 V2000
    6.9789   -5.5552   23.3196 C   0  0  0  0  0  0  0  0  0  0  0  0
    7.1226   -4.7071   24.5772 C   0  0  0  0  0  0  0  0  0  0  0  0
    7.3042   -3.2705   24.2559 N   0  0  0  0  0  0  0  0  0  0  0  0
    6.6808   -2.3293   25.1956 C   0  0  0  0  0  0  0  0  0  0  0  0
    8.6332   -2.8563   23.7309 C   0  0  0  0  0  0  0  0  0  0  0  0
    8.5103   -1.9885   22.5179 C   0  0  0  0  0  0  0  0  0  0  0  0
    9.8509   -1.4828   22.0105 C   0  0  0  0  0  0  0  0  0  0  0  0
   10.5887   -0.8466   23.0906 N   0  0  0  0  0  0  0  0  0  0  0  0
   10.7899   -1.6824   24.2680 C   0  0  0  0  0  0  0  0  0  0  0  0
    9.4351   -2.1369   24.8039 C   0  0  0  0  0  0  0  0  0  0  0  0
   11.2466    0.3653   22.9193 C   0  0  0  0  0  0  0  0  0  0  0  0
   12.6352    0.4253   23.0061 C   0  0  0  0  0  0  0  0  0  0  0  0
   13.3147    1.6181   22.8342 C   0  0  0  0  0  0  0  0  0  0  0  0
   12.6074    2.7769   22.5705 C   0  0  0  0  0  0  0  0  0  0  0  0
   11.2276    2.7440   22.4812 C   0  0  0  0  0  0  0  0  0  0  0  0
   10.5571    1.5471   22.6610 C   0  0  0  0  0  0  0  0  0  0  0  0
   13.4696    4.3017   22.3368 S   0  0  0  0  0  0  0  0  0  0  0  0
   12.8085    5.4088   23.2859 N   0  0  0  0  0  0  0  0  0  0  0  0
   14.8147    4.1060   22.7878 O   0  0  0  0  0  0  0  0  0  0  0  0
   13.2469    4.7160   20.9841 O   0  0  0  0  0  0  0  0  0  0  0  0
    8.2436   -5.2266   25.4498 C   0  0  0  0  0  0  0  0  0  0  0  0
    9.2090   -6.1767   25.1376 C   0  0  0  0  0  0  0  0  0  0  0  0
   10.0858   -6.3893   26.2289 C   0  0  0  0  0  0  0  0  0  0  0  0
    9.7953   -5.6387   27.3048 C   0  0  0  0  0  0  0  0  0  0  0  0
    8.4393   -4.6369   27.0393 S   0  0  0  0  0  0  0  0  0  0  0  0
  1  2  1  0
  2  3  1  0
  3  4  1  0
  3  5  1  0
  5  6  1  0
  6  7  1  0
  7  8  1  0
  8  9  1  0
  9 10  1  0
  8 11  1  0
 11 12  2  0
 12 13  1  0
 13 14  2  0
 14 15  1  0
 15 16  2  0
 14 17  1  0
 17 18  1  0
 17 19  2  0
 17 20  2  0
  2 21  1  0
 21 22  2  0
 22 23  1  0
 23 24  2  0
 24 25  1  0
 10  5  1  0
 16 11  1  0
 25 21  1  0
M  END
