CVD-0002573|dock_bobby27042020.62|mol2|34|dock1
     RDKit          3D

 37 40  0  0  0  0  0  0  0  0999 V2000
    5.8139    1.5340   21.8532 C   0  0  0  0  0  0  0  0  0  0  0  0
    6.6890    1.8941   20.6753 C   0  0  0  0  0  0  0  0  0  0  0  0
    7.1616    0.6686   19.9205 C   0  0  0  0  0  0  0  0  0  0  0  0
    7.4336   -0.5167   20.8069 C   0  0  0  0  0  0  0  0  0  0  0  0
    6.7068   -1.7203   20.8094 C   0  0  0  0  0  0  0  0  0  0  0  0
    7.2253   -2.5980   21.7455 C   0  0  0  0  0  0  0  0  0  0  0  0
    6.7253   -3.9662   22.0497 C   0  0  0  0  0  0  0  0  0  0  0  0
    6.7302   -4.4656   23.3549 C   0  0  0  0  0  0  0  0  0  0  0  0
    6.2716   -5.7407   23.6408 C   0  0  0  0  0  0  0  0  0  0  0  0
    5.7780   -6.5468   22.6411 C   0  0  0  0  0  0  0  0  0  0  0  0
    5.7443   -6.0825   21.3399 C   0  0  0  0  0  0  0  0  0  0  0  0
    6.2182   -4.8195   21.0747 C   0  0  0  0  0  0  0  0  0  0  0  0
    6.1755   -4.4276   19.7806 F   0  0  0  0  0  0  0  0  0  0  0  0
    8.3252   -1.9126   22.3365 N   0  0  0  0  0  0  0  0  0  0  0  0
    8.4330   -0.6545   21.7574 C   0  0  0  0  0  0  0  0  0  0  0  0
    9.4480   -2.3428   23.5342 S   0  0  0  0  0  0  0  0  0  0  0  0
    9.7471   -3.7185   23.2837 O   0  0  0  0  0  0  0  0  0  0  0  0
    8.9100   -1.9677   24.8047 O   0  0  0  0  0  0  0  0  0  0  0  0
   10.9067   -1.4180   23.1944 C   0  0  0  0  0  0  0  0  0  0  0  0
   11.7163   -1.7558   22.1235 C   0  0  0  0  0  0  0  0  0  0  0  0
   12.8511   -0.9985   21.8897 C   0  0  0  0  0  0  0  0  0  0  0  0
   13.1271    0.0575   22.7285 C   0  0  0  0  0  0  0  0  0  0  0  0
   12.3554    0.3955   23.7626 N   0  0  0  0  0  0  0  0  0  0  0  0
   11.2614   -0.3395   23.9825 C   0  0  0  0  0  0  0  0  0  0  0  0
    7.9066    2.5631   21.1486 O   0  0  0  0  0  0  0  0  0  0  0  0
    7.8004    3.7234   21.8212 C   0  0  0  0  0  0  0  0  0  0  0  0
    6.7582    4.3336   21.9927 O   0  0  0  0  0  0  0  0  0  0  0  0
    9.1150    4.2075   22.3459 C   0  0  0  0  0  0  0  0  0  0  0  0
   10.2434    3.4013   22.2472 C   0  0  0  0  0  0  0  0  0  0  0  0
   11.4687    3.8299   22.7256 C   0  0  0  0  0  0  0  0  0  0  0  0
   11.5713    5.0815   23.3099 C   0  0  0  0  0  0  0  0  0  0  0  0
   10.4592    5.8999   23.4201 C   0  0  0  0  0  0  0  0  0  0  0  0
    9.2389    5.4606   22.9381 C   0  0  0  0  0  0  0  0  0  0  0  0
   13.1313    5.6345   23.9291 S   0  0  0  0  0  0  0  0  0  0  0  0
   12.9130    6.2217   25.4023 N   0  0  0  0  0  0  0  0  0  0  0  0
   13.9748    4.4836   24.0526 O   0  0  0  0  0  0  0  0  0  0  0  0
   13.5601    6.7204   23.0996 O   0  0  0  0  0  0  0  0  0  0  0  0
  1  2  1  0
  2  3  1  0
  3  4  1  0
  4  5  1  0
  5  6  2  0
  6  7  1  0
  7  8  2  0
  8  9  1  0
  9 10  2  0
 10 11  1  0
 11 12  2  0
 12 13  1  0
  6 14  1  0
 14 15  1  0
 14 16  1  0
 16 17  2  0
 16 18  2  0
 16 19  1  0
 19 20  2  0
 20 21  1  0
 21 22  2  0
 22 23  1  0
 23 24  2  0
  2 25  1  0
 25 26  1  0
 26 27  2  0
 26 28  1  0
 28 29  2  0
 29 30  1  0
 30 31  2  0
 31 32  1  0
 32 33  2  0
 31 34  1  0
 34 35  1  0
 34 36  2  0
 34 37  2  0
 15  4  2  0
 24 19  1  0
 33 28  1  0
 12  7  1  0
M  END
