CVD-0003966|dock_bobby27042020.29|mol2|14|dock2
     RDKit          3D

 24 26  0  0  0  0  0  0  0  0999 V2000
   12.4378    7.6167   25.4342 C   0  0  0  0  0  0  0  0  0  0  0  0
   12.9474    7.0570   24.1383 C   0  0  0  0  0  0  0  0  0  0  0  0
   13.8646    7.6000   23.5329 O   0  0  0  0  0  0  0  0  0  0  0  0
   12.3627    5.9392   23.6393 N   0  0  0  0  0  0  0  0  0  0  0  0
   11.2728    5.1589   24.2045 C   0  0  0  0  0  0  0  0  0  0  0  0
   11.5861    3.6671   24.2232 C   0  0  0  0  0  0  0  0  0  0  0  0
   12.0102    3.2106   22.8914 N   0  0  0  0  0  0  0  0  0  0  0  0
   13.1954    3.9842   22.4412 C   0  0  0  0  0  0  0  0  0  0  0  0
   12.8134    5.4366   22.3329 C   0  0  0  0  0  0  0  0  0  0  0  0
   11.9254    1.8611   22.5729 C   0  0  0  0  0  0  0  0  0  0  0  0
   12.9548    0.9929   22.9216 C   0  0  0  0  0  0  0  0  0  0  0  0
   12.8790   -0.3497   22.6018 C   0  0  0  0  0  0  0  0  0  0  0  0
   11.7787   -0.8452   21.9296 C   0  0  0  0  0  0  0  0  0  0  0  0
   10.7360   -0.0009   21.5731 C   0  0  0  0  0  0  0  0  0  0  0  0
    9.6468   -0.5971   20.8848 N   0  0  0  0  0  0  0  0  0  0  0  0
    8.6795   -0.0370   20.0838 C   0  0  0  0  0  0  0  0  0  0  0  0
    8.6558    1.1486   19.7809 O   0  0  0  0  0  0  0  0  0  0  0  0
    7.6868   -0.8415   19.5968 N   0  0  0  0  0  0  0  0  0  0  0  0
    6.8732   -0.4840   18.4289 C   0  0  0  0  0  0  0  0  0  0  0  0
    5.4092   -0.7410   18.7221 C   0  0  0  0  0  0  0  0  0  0  0  0
    5.1770   -2.0769   19.1210 O   0  0  0  0  0  0  0  0  0  0  0  0
    5.9243   -2.3749   20.3007 C   0  0  0  0  0  0  0  0  0  0  0  0
    7.4088   -2.2017   20.0683 C   0  0  0  0  0  0  0  0  0  0  0  0
   10.8118    1.3539   21.9022 C   0  0  0  0  0  0  0  0  0  0  0  0
  1  2  1  0
  2  3  2  0
  2  4  1  0
  4  5  1  0
  5  6  1  0
  6  7  1  0
  7  8  1  0
  8  9  1  0
  7 10  1  0
 10 11  2  0
 11 12  1  0
 12 13  2  0
 13 14  1  0
 14 15  1  0
 15 16  1  0
 16 17  2  0
 16 18  1  0
 18 19  1  0
 19 20  1  0
 20 21  1  0
 21 22  1  0
 22 23  1  0
 14 24  2  0
  9  4  1  0
 24 10  1  0
 23 18  1  0
M  END
