CVD-0001625|dock_bobby27042020.94|mol2|37|dock2
     RDKit          3D

 18 19  0  0  0  0  0  0  0  0999 V2000
   13.8100    1.0829   22.8542 Cl  0  0  0  0  0  0  0  0  0  0  0  0
   13.7437   -0.2867   23.9710 C   0  0  0  0  0  0  0  0  0  0  0  0
   12.8412   -1.3820   23.4378 C   0  0  0  0  0  0  0  0  0  0  0  0
   13.2867   -2.4693   23.0926 O   0  0  0  0  0  0  0  0  0  0  0  0
   11.5268   -1.0921   23.3608 N   0  0  0  0  0  0  0  0  0  0  0  0
   10.5327   -2.0404   22.8536 C   0  0  0  0  0  0  0  0  0  0  0  0
    9.7228   -1.4116   21.7350 C   0  0  0  0  0  0  0  0  0  0  0  0
    9.0629   -0.1920   22.2099 N   0  0  0  0  0  0  0  0  0  0  0  0
    8.2581    0.3900   21.1586 C   0  0  0  0  0  0  0  0  0  0  0  0
    7.3012   -0.5691   20.6527 N   0  0  0  0  0  0  0  0  0  0  0  0
    7.0685   -0.4942   19.1944 C   0  0  0  0  0  0  0  0  0  0  0  0
    6.5121    0.8473   18.7407 C   0  0  0  0  0  0  0  0  0  0  0  0
    4.9756    0.9381   18.6977 C   0  0  0  0  0  0  0  0  0  0  0  0
    4.3948    0.2018   19.7794 O   0  0  0  0  0  0  0  0  0  0  0  0
    5.0098    0.3672   21.0527 C   0  0  0  0  0  0  0  0  0  0  0  0
    6.0197   -0.7119   21.3598 C   0  0  0  0  0  0  0  0  0  0  0  0
   10.0793    0.7555   22.6600 C   0  0  0  0  0  0  0  0  0  0  0  0
   10.9035    0.1641   23.7891 C   0  0  0  0  0  0  0  0  0  0  0  0
  1  2  1  0
  2  3  1  0
  3  4  2  0
  3  5  1  0
  5  6  1  0
  6  7  1  0
  7  8  1  0
  8  9  1  0
  9 10  1  0
 10 11  1  0
 11 12  1  0
 12 13  1  0
 13 14  1  0
 14 15  1  0
 15 16  1  0
  8 17  1  0
 17 18  1  0
 18  5  1  0
 16 10  1  0
M  END
