CVD-0002634|dock_bobby27042020.62|mol2|25|dock1
     RDKit          3D

 25 26  0  0  0  0  0  0  0  0999 V2000
    5.7810   -1.7230   17.7898 C   0  0  0  0  0  0  0  0  0  0  0  0
    5.9826   -1.0825   19.1545 C   0  0  0  0  0  0  0  0  0  0  0  0
    6.9497    0.0975   19.0480 C   0  0  0  0  0  0  0  0  0  0  0  0
    8.3190   -0.2533   19.4026 N   0  0  0  0  0  0  0  0  0  0  0  0
    8.8930    0.1847   20.5407 C   0  0  0  0  0  0  0  0  0  0  0  0
    8.2972    0.9014   21.3405 O   0  0  0  0  0  0  0  0  0  0  0  0
   10.1671   -0.2169   20.7433 N   0  0  0  0  0  0  0  0  0  0  0  0
   10.9688    0.2334   21.8812 C   0  0  0  0  0  0  0  0  0  0  0  0
   11.4025    1.7038   21.7103 C   0  0  0  0  0  0  0  0  0  0  0  0
   12.3024    2.1822   22.8482 C   0  0  0  0  0  0  0  0  0  0  0  0
   13.5064    1.2662   23.0257 C   0  0  0  0  0  0  0  0  0  0  0  0
   13.0722   -0.1787   23.2258 C   0  0  0  0  0  0  0  0  0  0  0  0
   12.2068   -0.6606   22.0659 C   0  0  0  0  0  0  0  0  0  0  0  0
    6.5115   -2.0686   20.0934 N   0  0  0  0  0  0  0  0  0  0  0  0
    6.6077   -3.1536   20.8650 C   0  0  0  0  0  0  0  0  0  0  0  0
    5.7087   -3.9838   20.9553 O   0  0  0  0  0  0  0  0  0  0  0  0
    7.9017   -3.3001   21.6278 C   0  0  0  0  0  0  0  0  0  0  0  0
    7.7688   -4.2402   22.8092 C   0  0  0  0  0  0  0  0  0  0  0  0
    8.9986   -4.3070   23.5811 N   0  0  0  0  0  0  0  0  0  0  0  0
    9.0688   -4.8269   24.8589 C   0  0  0  0  0  0  0  0  0  0  0  0
    8.0451   -5.5825   25.4173 C   0  0  0  0  0  0  0  0  0  0  0  0
    8.1068   -6.0891   26.6515 N   0  0  0  0  0  0  0  0  0  0  0  0
    9.2200   -5.8250   27.3278 C   0  0  0  0  0  0  0  0  0  0  0  0
   10.2662   -5.1188   26.9118 N   0  0  0  0  0  0  0  0  0  0  0  0
   10.1754   -4.6262   25.6739 C   0  0  0  0  0  0  0  0  0  0  0  0
  1  2  1  0
  2  3  1  0
  3  4  1  0
  4  5  1  0
  5  6  2  0
  5  7  1  0
  7  8  1  0
  8  9  1  0
  9 10  1  0
 10 11  1  0
 11 12  1  0
 12 13  1  0
  2 14  1  0
 14 15  1  0
 15 16  2  0
 15 17  1  0
 17 18  1  0
 18 19  1  0
 19 20  1  0
 20 21  2  0
 21 22  1  0
 22 23  2  0
 23 24  1  0
 24 25  2  0
 13  8  1  0
 25 20  1  0
M  END
