CVD-0000379|dock_bobby27042020.41|mol2|37|dock3
     RDKit          3D

 33 35  0  0  0  0  0  0  0  0999 V2000
   12.6394    7.2367   26.1674 C   0  0  0  0  0  0  0  0  0  0  0  0
   13.3003    6.6728   25.0444 O   0  0  0  0  0  0  0  0  0  0  0  0
   12.5919    5.6156   24.4313 C   0  0  0  0  0  0  0  0  0  0  0  0
   13.3834    5.0509   23.2833 C   0  0  0  0  0  0  0  0  0  0  0  0
   12.5238    4.2922   22.3904 N   0  0  0  0  0  0  0  0  0  0  0  0
   12.2388    2.9949   22.5765 C   0  0  0  0  0  0  0  0  0  0  0  0
   13.1622    2.1979   23.1286 N   0  0  0  0  0  0  0  0  0  0  0  0
   12.8540    0.9467   23.3594 C   0  0  0  0  0  0  0  0  0  0  0  0
   13.8189    0.2199   23.9430 F   0  0  0  0  0  0  0  0  0  0  0  0
   11.6490    0.3218   23.0673 C   0  0  0  0  0  0  0  0  0  0  0  0
   11.4160   -1.0409   23.4553 C   0  0  0  0  0  0  0  0  0  0  0  0
   11.2011   -2.1270   23.7359 N   0  0  0  0  0  0  0  0  0  0  0  0
   10.6915    1.1182   22.3971 C   0  0  0  0  0  0  0  0  0  0  0  0
    9.4330    0.6101   21.9307 N   0  0  0  0  0  0  0  0  0  0  0  0
    8.3388    0.2918   22.6846 C   0  0  0  0  0  0  0  0  0  0  0  0
    8.2793    0.1693   24.0352 C   0  0  0  0  0  0  0  0  0  0  0  0
    6.7236   -0.2454   24.5830 S   0  0  0  0  0  0  0  0  0  0  0  0
    6.0920   -0.2815   23.0041 C   0  0  0  0  0  0  0  0  0  0  0  0
    7.0365    0.0177   22.0740 C   0  0  0  0  0  0  0  0  0  0  0  0
    6.7533    0.0588   20.5987 C   0  0  0  0  0  0  0  0  0  0  0  0
    5.3541    0.4747   20.1803 C   0  0  0  0  0  0  0  0  0  0  0  0
    5.3585    0.2372   18.7017 C   0  0  0  0  0  0  0  0  0  0  0  0
    6.2883   -0.9756   18.4490 C   0  0  0  0  0  0  0  0  0  0  0  0
    6.9648   -1.2734   19.8185 C   0  0  0  0  0  0  0  0  0  0  0  0
    6.4231   -2.4934   20.5408 C   0  0  0  0  0  0  0  0  0  0  0  0
    5.3688   -3.0178   20.1946 O   0  0  0  0  0  0  0  0  0  0  0  0
    7.2178   -2.9114   21.5703 N   0  0  0  0  0  0  0  0  0  0  0  0
    7.1176   -3.9536   22.4753 C   0  0  0  0  0  0  0  0  0  0  0  0
    6.1440   -4.7183   22.4207 O   0  0  0  0  0  0  0  0  0  0  0  0
    8.1667   -4.1571   23.5051 C   0  0  0  0  0  0  0  0  0  0  0  0
    8.1968   -5.2378   24.2388 C   0  0  0  0  0  0  0  0  0  0  0  0
   11.0026    2.4574   22.2051 C   0  0  0  0  0  0  0  0  0  0  0  0
   10.0893    3.2673   21.6388 F   0  0  0  0  0  0  0  0  0  0  0  0
  1  2  1  0
  2  3  1  0
  3  4  1  0
  4  5  1  0
  5  6  1  0
  6  7  2  0
  7  8  1  0
  8  9  1  0
  8 10  2  0
 10 11  1  0
 11 12  3  0
 10 13  1  0
 13 14  1  0
 14 15  1  0
 15 16  2  0
 16 17  1  0
 17 18  1  0
 18 19  2  0
 20 19  1  0
 20 21  1  0
 21 22  1  0
 22 23  1  0
 23 24  1  0
 24 25  1  0
 25 26  2  0
 25 27  1  0
 27 28  1  0
 28 29  2  0
 28 30  1  0
 30 31  2  0
 13 32  2  0
 32 33  1  0
 32  6  1  0
 19 15  1  0
 24 20  1  0
M  END
