CVD-0001924|dock_bobby27042020.22|mol2|19|dock2
     RDKit          3D

 24 26  0  0  0  0  0  0  0  0999 V2000
   13.3257   -1.7567   21.7040 N   0  0  0  0  0  0  0  0  0  0  0  0
   11.9110   -1.4350   21.9957 C   0  0  0  0  0  0  0  0  0  0  0  0
   11.7473   -0.5658   23.2362 C   0  0  0  0  0  0  0  0  0  0  0  0
   10.3988   -0.6957   23.6704 O   0  0  0  0  0  0  0  0  0  0  0  0
    9.4619    0.0450   22.8612 C   0  0  0  0  0  0  0  0  0  0  0  0
    9.7150    1.5457   23.1655 C   0  0  0  0  0  0  0  0  0  0  0  0
   11.1557    1.8548   22.8017 C   0  0  0  0  0  0  0  0  0  0  0  0
   11.5602    3.1507   22.4474 C   0  0  0  0  0  0  0  0  0  0  0  0
   10.6660    4.1780   22.3224 O   0  0  0  0  0  0  0  0  0  0  0  0
   12.9096    3.4450   22.2599 C   0  0  0  0  0  0  0  0  0  0  0  0
   13.2666    4.7068   21.9054 O   0  0  0  0  0  0  0  0  0  0  0  0
   13.8737    2.4614   22.4205 C   0  0  0  0  0  0  0  0  0  0  0  0
   13.4827    1.1832   22.7692 C   0  0  0  0  0  0  0  0  0  0  0  0
   12.1380    0.8653   22.9619 C   0  0  0  0  0  0  0  0  0  0  0  0
    8.0692   -0.4671   23.2254 C   0  0  0  0  0  0  0  0  0  0  0  0
    7.9579   -1.9822   22.9915 C   0  0  0  0  0  0  0  0  0  0  0  0
    8.0507   -2.3070   21.5030 C   0  0  0  0  0  0  0  0  0  0  0  0
    6.9727   -1.5681   20.7133 C   0  0  0  0  0  0  0  0  0  0  0  0
    7.0138   -0.0706   20.9632 C   0  0  0  0  0  0  0  0  0  0  0  0
    5.9667    0.6932   20.1534 C   0  0  0  0  0  0  0  0  0  0  0  0
    5.9896    0.4599   18.6403 C   0  0  0  0  0  0  0  0  0  0  0  0
    5.2043    1.4283   17.8630 C   0  0  0  0  0  0  0  0  0  0  0  0
    5.5730    1.9624   16.8600 O   0  0  0  0  0  0  0  0  0  0  0  0
    6.9655    0.2581   22.4596 C   0  0  0  0  0  0  0  0  0  0  0  0
  1  2  1  0
  2  3  1  0
  3  4  1  0
  4  5  1  0
  5  6  1  0
  6  7  1  0
  7  8  2  0
  8  9  1  0
  8 10  1  0
 10 11  1  0
 10 12  2  0
 12 13  1  0
 13 14  2  0
  5 15  1  0
 15 16  1  0
 16 17  1  0
 17 18  1  0
 18 19  1  0
 19 20  1  0
 20 21  1  0
 21 22  1  0
 22 23  2  0
 19 24  1  0
 14  3  1  0
 24 15  1  0
 14  7  1  0
M  END
