CVD-0003556|dock_bobby27042020.16|mol2|15|dock3
     RDKit          3D

 26 28  0  0  0  0  0  0  0  0999 V2000
   12.4482    6.6472   25.7316 C   0  0  0  0  0  0  0  0  0  0  0  0
   12.8270    6.6068   24.2804 C   0  0  0  0  0  0  0  0  0  0  0  0
   13.3204    7.5779   23.7151 O   0  0  0  0  0  0  0  0  0  0  0  0
   12.6097    5.4480   23.6529 N   0  0  0  0  0  0  0  0  0  0  0  0
   12.9335    5.2256   22.2504 C   0  0  0  0  0  0  0  0  0  0  0  0
   13.4629    3.8285   21.9904 C   0  0  0  0  0  0  0  0  0  0  0  0
   12.5032    2.7362   22.3650 C   0  0  0  0  0  0  0  0  0  0  0  0
   11.1495    2.8445   22.4960 C   0  0  0  0  0  0  0  0  0  0  0  0
   10.6029    1.6406   22.8482 N   0  0  0  0  0  0  0  0  0  0  0  0
   11.6140    0.7180   22.9533 C   0  0  0  0  0  0  0  0  0  0  0  0
   11.5491   -0.6382   23.2844 C   0  0  0  0  0  0  0  0  0  0  0  0
   10.2359   -1.3200   23.5946 C   0  0  0  0  0  0  0  0  0  0  0  0
    9.3722   -1.5426   22.3691 C   0  0  0  0  0  0  0  0  0  0  0  0
    9.5772   -0.9207   21.3320 O   0  0  0  0  0  0  0  0  0  0  0  0
    8.4026   -2.4717   22.5513 N   0  0  0  0  0  0  0  0  0  0  0  0
    7.4091   -2.9694   21.6721 C   0  0  0  0  0  0  0  0  0  0  0  0
    6.7751   -2.1905   20.7087 C   0  0  0  0  0  0  0  0  0  0  0  0
    5.8202   -2.7817   19.9048 C   0  0  0  0  0  0  0  0  0  0  0  0
    5.4610   -4.0624   19.9902 N   0  0  0  0  0  0  0  0  0  0  0  0
    6.0754   -4.7973   20.9166 C   0  0  0  0  0  0  0  0  0  0  0  0
    7.0426   -4.3057   21.7703 C   0  0  0  0  0  0  0  0  0  0  0  0
   12.7412   -1.3522   23.3270 C   0  0  0  0  0  0  0  0  0  0  0  0
   13.9204   -0.7035   23.0439 C   0  0  0  0  0  0  0  0  0  0  0  0
   15.0726   -1.4250   23.0940 F   0  0  0  0  0  0  0  0  0  0  0  0
   14.0084    0.6289   22.7131 C   0  0  0  0  0  0  0  0  0  0  0  0
   12.8271    1.3685   22.6612 C   0  0  0  0  0  0  0  0  0  0  0  0
  1  2  1  0
  2  3  2  0
  2  4  1  0
  4  5  1  0
  5  6  1  0
  6  7  1  0
  7  8  2  0
  8  9  1  0
  9 10  1  0
 10 11  2  0
 11 12  1  0
 12 13  1  0
 13 14  2  0
 13 15  1  0
 15 16  1  0
 16 17  2  0
 17 18  1  0
 18 19  2  0
 19 20  1  0
 20 21  2  0
 11 22  1  0
 22 23  2  0
 23 24  1  0
 23 25  1  0
 25 26  2  0
 26  7  1  0
 26 10  1  0
 21 16  1  0
M  END
