CVD-0003416|dock_bobby27042020.59|mol2|46|dock1
     RDKit          3D

 20 22  0  0  0  0  0  0  0  0999 V2000
    6.0924   -1.0163   22.7142 Cl  0  0  0  0  0  0  0  0  0  0  0  0
    5.7997   -0.1749   21.2407 C   0  0  0  0  0  0  0  0  0  0  0  0
    4.5269    0.2733   21.1510 N   0  0  0  0  0  0  0  0  0  0  0  0
    4.1654    0.9383   20.0827 C   0  0  0  0  0  0  0  0  0  0  0  0
    5.0496    1.1818   18.9989 C   0  0  0  0  0  0  0  0  0  0  0  0
    4.8473    1.7978   17.8363 N   0  0  0  0  0  0  0  0  0  0  0  0
    6.0455    1.6930   17.1768 C   0  0  0  0  0  0  0  0  0  0  0  0
    6.9643    1.0337   17.9161 C   0  0  0  0  0  0  0  0  0  0  0  0
    6.3514    0.7073   19.1261 N   0  0  0  0  0  0  0  0  0  0  0  0
    6.7643    0.0209   20.2867 C   0  0  0  0  0  0  0  0  0  0  0  0
    8.0653   -0.4846   20.5081 N   0  0  0  0  0  0  0  0  0  0  0  0
    9.0125   -0.3681   21.5362 C   0  0  0  0  0  0  0  0  0  0  0  0
    8.6629    0.2380   22.5446 O   0  0  0  0  0  0  0  0  0  0  0  0
   10.2748   -0.8764   21.3504 N   0  0  0  0  0  0  0  0  0  0  0  0
   11.4183   -0.8478   22.1886 C   0  0  0  0  0  0  0  0  0  0  0  0
   11.5290   -0.0383   23.3173 C   0  0  0  0  0  0  0  0  0  0  0  0
   12.6854   -0.0601   24.0797 C   0  0  0  0  0  0  0  0  0  0  0  0
   13.7343   -0.8853   23.7384 C   0  0  0  0  0  0  0  0  0  0  0  0
   13.6313   -1.6960   22.6299 C   0  0  0  0  0  0  0  0  0  0  0  0
   12.4820   -1.6801   21.8580 C   0  0  0  0  0  0  0  0  0  0  0  0
  1  2  1  0
  2  3  1  0
  3  4  2  0
  4  5  1  0
  5  6  2  0
  6  7  1  0
  7  8  2  0
  8  9  1  0
  9 10  1  0
 10 11  1  0
 11 12  1  0
 12 13  2  0
 12 14  1  0
 14 15  1  0
 15 16  2  0
 16 17  1  0
 17 18  2  0
 18 19  1  0
 19 20  2  0
 10  2  2  0
 20 15  1  0
  9  5  1  0
M  END
