CVD-0000825|dock_bobby27042020.40|mol2|20|dock1
     RDKit          3D

 27 29  0  0  0  0  0  0  0  0999 V2000
   12.4611    6.9862   25.4079 C   0  0  0  0  0  0  0  0  0  0  0  0
   12.9407    6.5690   24.0487 C   0  0  0  0  0  0  0  0  0  0  0  0
   13.6166    7.3109   23.3427 O   0  0  0  0  0  0  0  0  0  0  0  0
   12.6037    5.3380   23.6592 N   0  0  0  0  0  0  0  0  0  0  0  0
   13.0083    4.7825   22.3756 C   0  0  0  0  0  0  0  0  0  0  0  0
   13.4215    3.3291   22.4937 C   0  0  0  0  0  0  0  0  0  0  0  0
   12.2528    2.3943   22.6049 C   0  0  0  0  0  0  0  0  0  0  0  0
   10.9417    2.7252   22.7868 C   0  0  0  0  0  0  0  0  0  0  0  0
   10.1666    1.5986   22.8396 N   0  0  0  0  0  0  0  0  0  0  0  0
   10.9801    0.5026   22.6897 C   0  0  0  0  0  0  0  0  0  0  0  0
   10.6514   -0.8557   22.6751 C   0  0  0  0  0  0  0  0  0  0  0  0
    9.2247   -1.3238   22.8422 C   0  0  0  0  0  0  0  0  0  0  0  0
    8.2357   -0.3219   22.4188 N   0  0  0  0  0  0  0  0  0  0  0  0
    6.8948   -0.7009   22.8739 C   0  0  0  0  0  0  0  0  0  0  0  0
    5.8846    0.3568   22.4700 C   0  0  0  0  0  0  0  0  0  0  0  0
    5.8921    0.5430   21.0173 N   0  0  0  0  0  0  0  0  0  0  0  0
    7.2341    0.8649   20.5224 C   0  0  0  0  0  0  0  0  0  0  0  0
    8.2270   -0.1950   20.9638 C   0  0  0  0  0  0  0  0  0  0  0  0
    4.7776    0.4514   20.2622 C   0  0  0  0  0  0  0  0  0  0  0  0
    3.6837    0.2106   20.7574 O   0  0  0  0  0  0  0  0  0  0  0  0
    4.9343    0.6678   18.7692 C   0  0  0  0  0  0  0  0  0  0  0  0
    5.8690   -0.6368   18.0265 Cl  0  0  0  0  0  0  0  0  0  0  0  0
   11.6858   -1.7694   22.5066 C   0  0  0  0  0  0  0  0  0  0  0  0
   12.9728   -1.3065   22.3607 C   0  0  0  0  0  0  0  0  0  0  0  0
   13.9648   -2.2227   22.1965 F   0  0  0  0  0  0  0  0  0  0  0  0
   13.3201    0.0246   22.3705 C   0  0  0  0  0  0  0  0  0  0  0  0
   12.3013    0.9615   22.5395 C   0  0  0  0  0  0  0  0  0  0  0  0
  1  2  1  0
  2  3  2  0
  2  4  1  0
  4  5  1  0
  5  6  1  0
  6  7  1  0
  7  8  2  0
  8  9  1  0
  9 10  1  0
 10 11  2  0
 11 12  1  0
 12 13  1  0
 13 14  1  0
 14 15  1  0
 15 16  1  0
 16 17  1  0
 17 18  1  0
 16 19  1  0
 19 20  2  0
 19 21  1  0
 21 22  1  0
 11 23  1  0
 23 24  2  0
 24 25  1  0
 24 26  1  0
 26 27  2  0
 27  7  1  0
 27 10  1  0
 18 13  1  0
M  END
