CVD-0003396|dock_bobby27042020.45|mol2|26|dock3
     RDKit          3D

 19 21  0  0  0  0  0  0  0  0999 V2000
    9.0469    0.1162   22.3543 O   0  0  0  0  0  0  0  0  0  0  0  0
    9.5472   -0.5963   21.4902 C   0  0  0  0  0  0  0  0  0  0  0  0
   10.7697   -1.4391   21.7798 C   0  0  0  0  0  0  0  0  0  0  0  0
   11.3061   -1.2672   23.2042 C   0  0  0  0  0  0  0  0  0  0  0  0
   12.3187   -2.3763   23.5559 C   0  0  0  0  0  0  0  0  0  0  0  0
   12.9269   -2.1913   24.9450 C   0  0  0  0  0  0  0  0  0  0  0  0
   13.5442   -0.8075   25.1002 C   0  0  0  0  0  0  0  0  0  0  0  0
   12.5321    0.2840   24.7829 C   0  0  0  0  0  0  0  0  0  0  0  0
   11.9591    0.1144   23.3796 C   0  0  0  0  0  0  0  0  0  0  0  0
    9.0939   -0.7136   20.2194 N   0  0  0  0  0  0  0  0  0  0  0  0
    7.9909   -0.0834   19.5921 C   0  0  0  0  0  0  0  0  0  0  0  0
    7.8690    0.2416   18.2427 C   0  0  0  0  0  0  0  0  0  0  0  0
    6.7945    0.8391   17.7139 N   0  0  0  0  0  0  0  0  0  0  0  0
    5.7679    1.1506   18.5087 C   0  0  0  0  0  0  0  0  0  0  0  0
    5.7808    0.8741   19.8661 C   0  0  0  0  0  0  0  0  0  0  0  0
    4.9196    1.0582   20.9201 N   0  0  0  0  0  0  0  0  0  0  0  0
    5.5329    0.5593   22.0137 C   0  0  0  0  0  0  0  0  0  0  0  0
    6.7284    0.0589   21.7776 N   0  0  0  0  0  0  0  0  0  0  0  0
    6.9005    0.2517   20.4155 C   0  0  0  0  0  0  0  0  0  0  0  0
  1  2  2  0
  2  3  1  0
  3  4  1  0
  4  5  1  0
  5  6  1  0
  6  7  1  0
  7  8  1  0
  8  9  1  0
  2 10  1  0
 10 11  1  0
 11 12  2  0
 12 13  1  0
 13 14  2  0
 14 15  1  0
 15 16  1  0
 16 17  1  0
 17 18  2  0
 18 19  1  0
  9  4  1  0
 19 11  1  0
 19 15  2  0
M  END
