CVD-0002163|dock_bobby27042020.7|mol2|10|dock1
     RDKit          3D

 25 27  0  0  0  0  0  0  0  0999 V2000
    8.8440   -0.2422   22.5563 O   0  0  0  0  0  0  0  0  0  0  0  0
    9.2923   -0.7520   21.5343 C   0  0  0  0  0  0  0  0  0  0  0  0
    8.6739   -0.7008   20.3054 N   0  0  0  0  0  0  0  0  0  0  0  0
    7.4536   -0.0995   19.9047 C   0  0  0  0  0  0  0  0  0  0  0  0
    6.3537    0.0584   20.7459 C   0  0  0  0  0  0  0  0  0  0  0  0
    5.1969    0.6577   20.2750 C   0  0  0  0  0  0  0  0  0  0  0  0
    5.1179    1.1038   18.9743 C   0  0  0  0  0  0  0  0  0  0  0  0
    6.1989    0.9524   18.1349 C   0  0  0  0  0  0  0  0  0  0  0  0
    7.3605    0.3552   18.5939 C   0  0  0  0  0  0  0  0  0  0  0  0
   10.4813   -1.4431   21.4662 N   0  0  0  0  0  0  0  0  0  0  0  0
   11.4158   -1.7193   22.5021 C   0  0  0  0  0  0  0  0  0  0  0  0
   12.7964   -1.6747   22.2938 C   0  0  0  0  0  0  0  0  0  0  0  0
   13.6617   -1.9084   23.3482 C   0  0  0  0  0  0  0  0  0  0  0  0
   13.1387   -2.1544   24.5932 C   0  0  0  0  0  0  0  0  0  0  0  0
   11.8263   -2.2023   24.8397 N   0  0  0  0  0  0  0  0  0  0  0  0
   10.9757   -2.0442   23.8082 C   0  0  0  0  0  0  0  0  0  0  0  0
    9.6389   -2.2205   24.0552 N   0  0  0  0  0  0  0  0  0  0  0  0
    8.6997   -3.0950   23.5296 C   0  0  0  0  0  0  0  0  0  0  0  0
    7.3473   -2.8467   23.7604 C   0  0  0  0  0  0  0  0  0  0  0  0
    6.4120   -3.7209   23.2368 C   0  0  0  0  0  0  0  0  0  0  0  0
    6.8333   -4.8201   22.4979 C   0  0  0  0  0  0  0  0  0  0  0  0
    8.2032   -4.9860   22.3208 C   0  0  0  0  0  0  0  0  0  0  0  0
    9.1190   -4.1492   22.8211 N   0  0  0  0  0  0  0  0  0  0  0  0
    5.8871   -5.7525   21.9366 C   0  0  0  0  0  0  0  0  0  0  0  0
    5.1629   -6.5075   21.4779 N   0  0  0  0  0  0  0  0  0  0  0  0
  1  2  2  0
  2  3  1  0
  3  4  1  0
  4  5  2  0
  5  6  1  0
  6  7  2  0
  7  8  1  0
  8  9  2  0
  2 10  1  0
 10 11  1  0
 11 12  2  0
 12 13  1  0
 13 14  2  0
 14 15  1  0
 15 16  2  0
 16 17  1  0
 17 18  1  0
 18 19  2  0
 19 20  1  0
 20 21  2  0
 21 22  1  0
 22 23  2  0
 21 24  1  0
 24 25  3  0
  9  4  1  0
 16 11  1  0
 23 18  1  0
M  END
