CVD-0001130|dock_bobby27042020.39|mol2|15|dock1
     RDKit          3D

 22 23  0  0  0  0  0  0  0  0999 V2000
    6.3898   -0.0862   22.1763 O   0  0  0  0  0  0  0  0  0  0  0  0
    7.1504   -0.9193   21.6900 N   0  0  0  0  0  0  0  0  0  0  0  0
    7.1634   -1.0733   20.4765 O   0  0  0  0  0  0  0  0  0  0  0  0
    7.7877   -1.6207   22.5795 C   0  0  0  0  0  0  0  0  0  0  0  0
    9.0079   -0.8825   23.0963 C   0  0  0  0  0  0  0  0  0  0  0  0
   10.0769   -0.7116   22.0308 C   0  0  0  0  0  0  0  0  0  0  0  0
   11.2565    0.0130   22.5407 N   0  0  0  0  0  0  0  0  0  0  0  0
   11.2500    1.4158   22.5106 C   0  0  0  0  0  0  0  0  0  0  0  0
   10.2100    1.9871   22.2117 O   0  0  0  0  0  0  0  0  0  0  0  0
   12.3935    2.1184   22.8238 N   0  0  0  0  0  0  0  0  0  0  0  0
   12.6217    3.5190   22.8721 C   0  0  0  0  0  0  0  0  0  0  0  0
   11.6645    4.4876   23.1670 C   0  0  0  0  0  0  0  0  0  0  0  0
   12.0298    5.8229   23.1793 C   0  0  0  0  0  0  0  0  0  0  0  0
   13.3334    6.1590   22.8981 C   0  0  0  0  0  0  0  0  0  0  0  0
   14.2719    5.2578   22.6117 N   0  0  0  0  0  0  0  0  0  0  0  0
   13.9086    3.9721   22.6030 C   0  0  0  0  0  0  0  0  0  0  0  0
   12.3363   -0.7867   23.0661 C   0  0  0  0  0  0  0  0  0  0  0  0
   12.9054   -1.8013   22.3027 C   0  0  0  0  0  0  0  0  0  0  0  0
   13.9388   -2.5729   22.8072 C   0  0  0  0  0  0  0  0  0  0  0  0
   14.4273   -2.3417   24.0735 C   0  0  0  0  0  0  0  0  0  0  0  0
   13.8770   -1.3396   24.8404 C   0  0  0  0  0  0  0  0  0  0  0  0
   12.8364   -0.5703   24.3470 C   0  0  0  0  0  0  0  0  0  0  0  0
  1  2  1  0
  2  3  2  0
  2  4  1  0
  4  5  1  0
  5  6  1  0
  6  7  1  0
  7  8  1  0
  8  9  2  0
  8 10  1  0
 10 11  1  0
 11 12  2  0
 12 13  1  0
 13 14  2  0
 14 15  1  0
 15 16  2  0
  7 17  1  0
 17 18  2  0
 18 19  1  0
 19 20  2  0
 20 21  1  0
 21 22  2  0
 16 11  1  0
 22 17  1  0
M  CHG  2   1  -1   2   1
M  END
