CVD-0003124|dock_bobby27042020.46|mol2|17|dock2
     RDKit          3D

 17 18  0  0  0  0  0  0  0  0999 V2000
   10.2265   -6.1777   26.1695 C   0  0  0  0  0  0  0  0  0  0  0  0
    9.3794   -4.9156   26.2202 C   0  0  0  0  0  0  0  0  0  0  0  0
    9.1931   -4.3328   24.8316 C   0  0  0  0  0  0  0  0  0  0  0  0
    8.3690   -3.1236   24.8906 N   0  0  0  0  0  0  0  0  0  0  0  0
    7.0812   -3.3806   25.5427 C   0  0  0  0  0  0  0  0  0  0  0  0
    7.2981   -3.9872   26.9171 C   0  0  0  0  0  0  0  0  0  0  0  0
    8.0776   -5.2188   26.8221 N   0  0  0  0  0  0  0  0  0  0  0  0
    8.7091   -1.9002   24.4333 C   0  0  0  0  0  0  0  0  0  0  0  0
    7.9594   -0.9423   24.5840 O   0  0  0  0  0  0  0  0  0  0  0  0
   10.0039   -1.6295   23.7313 C   0  0  0  0  0  0  0  0  0  0  0  0
   10.0309   -1.9687   22.4120 C   0  0  0  0  0  0  0  0  0  0  0  0
   11.1264   -1.7828   21.6420 N   0  0  0  0  0  0  0  0  0  0  0  0
   12.2540   -1.2425   22.1538 C   0  0  0  0  0  0  0  0  0  0  0  0
   12.3555   -0.8713   23.4416 C   0  0  0  0  0  0  0  0  0  0  0  0
   13.6003   -0.2738   24.0303 C   0  0  0  0  0  0  0  0  0  0  0  0
   11.2077   -1.0678   24.3438 C   0  0  0  0  0  0  0  0  0  0  0  0
   11.2878   -0.7825   25.5347 O   0  0  0  0  0  0  0  0  0  0  0  0
  2  1  1  0
  2  3  1  0
  3  4  1  0
  4  5  1  0
  5  6  1  0
  6  7  1  0
  4  8  1  0
  8  9  2  0
  8 10  1  0
 10 11  2  0
 11 12  1  0
 12 13  1  0
 13 14  2  0
 14 15  1  0
 14 16  1  0
 16 17  2  0
  7  2  1  0
 16 10  1  0
M  END
