CVD-0002384|dock_bobby27042020.6|mol2|10|dock2
     RDKit          3D

 26 29  0  0  0  0  0  0  0  0999 V2000
   12.7369   -2.8581   22.9809 F   0  0  0  0  0  0  0  0  0  0  0  0
   12.1653   -1.6475   22.7869 C   0  0  0  0  0  0  0  0  0  0  0  0
   10.9662   -1.5712   22.1301 C   0  0  0  0  0  0  0  0  0  0  0  0
   10.3744   -0.3265   21.9186 C   0  0  0  0  0  0  0  0  0  0  0  0
   11.0225    0.8379   22.3567 C   0  0  0  0  0  0  0  0  0  0  0  0
   12.2270    0.7301   23.0507 C   0  0  0  0  0  0  0  0  0  0  0  0
   12.7963   -0.5127   23.2539 C   0  0  0  0  0  0  0  0  0  0  0  0
   14.3050   -0.6302   24.0988 Cl  0  0  0  0  0  0  0  0  0  0  0  0
   10.4074    2.0842   22.0775 N   0  0  0  0  0  0  0  0  0  0  0  0
   11.0538    3.3234   22.4469 C   0  0  0  0  0  0  0  0  0  0  0  0
   12.3519    3.5927   22.0290 C   0  0  0  0  0  0  0  0  0  0  0  0
   12.9662    4.7823   22.3832 C   0  0  0  0  0  0  0  0  0  0  0  0
   12.2968    5.7095   23.1518 C   0  0  0  0  0  0  0  0  0  0  0  0
   11.0093    5.4512   23.5696 C   0  0  0  0  0  0  0  0  0  0  0  0
   10.3854    4.2649   23.2211 C   0  0  0  0  0  0  0  0  0  0  0  0
    9.1762    2.1938   21.4242 C   0  0  0  0  0  0  0  0  0  0  0  0
    8.6958    3.2922   21.1900 O   0  0  0  0  0  0  0  0  0  0  0  0
    8.5409    1.0043   21.0345 N   0  0  0  0  0  0  0  0  0  0  0  0
    7.2562    1.1064   20.3656 C   0  0  0  0  0  0  0  0  0  0  0  0
    7.0291    0.4576   19.1563 C   0  0  0  0  0  0  0  0  0  0  0  0
    5.8017    0.5558   18.5224 C   0  0  0  0  0  0  0  0  0  0  0  0
    4.7868    1.3002   19.0818 C   0  0  0  0  0  0  0  0  0  0  0  0
    4.9981    1.9488   20.2784 C   0  0  0  0  0  0  0  0  0  0  0  0
    6.2224    1.8550   20.9187 C   0  0  0  0  0  0  0  0  0  0  0  0
    9.0728   -0.2839   21.2426 C   0  0  0  0  0  0  0  0  0  0  0  0
    8.4979   -1.3040   20.9021 O   0  0  0  0  0  0  0  0  0  0  0  0
  1  2  1  0
  2  3  2  0
  3  4  1  0
  4  5  2  0
  5  6  1  0
  6  7  2  0
  7  8  1  0
  5  9  1  0
  9 10  1  0
 10 11  2  0
 11 12  1  0
 12 13  2  0
 13 14  1  0
 14 15  2  0
  9 16  1  0
 16 17  2  0
 16 18  1  0
 18 19  1  0
 19 20  2  0
 20 21  1  0
 21 22  2  0
 22 23  1  0
 23 24  2  0
 18 25  1  0
 25 26  2  0
  7  2  1  0
 15 10  1  0
 24 19  1  0
 25  4  1  0
M  END
