CVD-0000297|dock_bobby27042020.70|mol2|34|dock1
     RDKit          3D

 23 24  0  0  0  0  0  0  0  0999 V2000
   10.3233    6.0125   23.7368 C   0  0  0  0  0  0  0  0  0  0  0  0
   11.6789    5.5181   23.3254 C   0  0  0  0  0  0  0  0  0  0  0  0
   12.6918    5.7974   23.9591 O   0  0  0  0  0  0  0  0  0  0  0  0
   11.7169    4.7432   22.2396 N   0  0  0  0  0  0  0  0  0  0  0  0
   12.9538    4.1725   21.7255 C   0  0  0  0  0  0  0  0  0  0  0  0
   13.3272    2.9120   22.4579 C   0  0  0  0  0  0  0  0  0  0  0  0
   12.2779    1.9484   22.2808 O   0  0  0  0  0  0  0  0  0  0  0  0
   12.4814    0.6457   22.6641 C   0  0  0  0  0  0  0  0  0  0  0  0
   13.6544    0.1566   23.2224 C   0  0  0  0  0  0  0  0  0  0  0  0
   13.7356   -1.1797   23.5712 C   0  0  0  0  0  0  0  0  0  0  0  0
   12.6605   -2.0177   23.3671 C   0  0  0  0  0  0  0  0  0  0  0  0
   11.4818   -1.5447   22.8122 C   0  0  0  0  0  0  0  0  0  0  0  0
   11.3831   -0.1992   22.4545 C   0  0  0  0  0  0  0  0  0  0  0  0
   10.2472    0.4265   21.8801 N   0  0  0  0  0  0  0  0  0  0  0  0
    9.3631   -0.0614   20.9459 C   0  0  0  0  0  0  0  0  0  0  0  0
    9.4349   -1.1782   20.4436 O   0  0  0  0  0  0  0  0  0  0  0  0
    8.3908    0.8661   20.6502 N   0  0  0  0  0  0  0  0  0  0  0  0
    7.2899    0.8026   19.7588 C   0  0  0  0  0  0  0  0  0  0  0  0
    6.1626    1.5638   20.0402 C   0  0  0  0  0  0  0  0  0  0  0  0
    5.0740    1.5207   19.1871 C   0  0  0  0  0  0  0  0  0  0  0  0
    5.1421    0.7164   18.0738 C   0  0  0  0  0  0  0  0  0  0  0  0
    6.2081   -0.0260   17.7750 N   0  0  0  0  0  0  0  0  0  0  0  0
    7.2549    0.0221   18.6049 C   0  0  0  0  0  0  0  0  0  0  0  0
  1  2  1  0
  2  3  2  0
  2  4  1  0
  4  5  1  0
  5  6  1  0
  6  7  1  0
  7  8  1  0
  8  9  2  0
  9 10  1  0
 10 11  2  0
 11 12  1  0
 12 13  2  0
 13 14  1  0
 14 15  1  0
 15 16  2  0
 15 17  1  0
 17 18  1  0
 18 19  2  0
 19 20  1  0
 20 21  2  0
 21 22  1  0
 22 23  2  0
 13  8  1  0
 23 18  1  0
M  END
