CVD-0003809|dock_bobby27042020.0|mol2|41|dock2
     RDKit          3D

 27 30  0  0  0  0  0  0  0  0999 V2000
   12.6012    5.6061   23.3081 N   0  0  0  0  0  0  0  0  0  0  0  0
   13.3835    4.5114   22.4404 S   0  0  0  0  0  0  0  0  0  0  0  0
   14.7103    4.4193   22.9717 O   0  0  0  0  0  0  0  0  0  0  0  0
   13.2129    4.8624   21.0625 O   0  0  0  0  0  0  0  0  0  0  0  0
   12.6067    2.9431   22.6856 C   0  0  0  0  0  0  0  0  0  0  0  0
   11.2268    2.8576   22.7348 C   0  0  0  0  0  0  0  0  0  0  0  0
   10.6236    1.6262   22.9193 C   0  0  0  0  0  0  0  0  0  0  0  0
   11.3811    0.4672   23.0592 C   0  0  0  0  0  0  0  0  0  0  0  0
   12.7673    0.5784   23.0086 C   0  0  0  0  0  0  0  0  0  0  0  0
   13.3806    1.8043   22.8198 C   0  0  0  0  0  0  0  0  0  0  0  0
   10.7692   -0.7652   23.2446 N   0  0  0  0  0  0  0  0  0  0  0  0
   10.5887   -1.7349   22.1601 C   0  0  0  0  0  0  0  0  0  0  0  0
    9.2039   -2.3179   22.1487 C   0  0  0  0  0  0  0  0  0  0  0  0
    8.8663   -2.9602   23.4988 C   0  0  0  0  0  0  0  0  0  0  0  0
    9.0602   -1.9326   24.5852 C   0  0  0  0  0  0  0  0  0  0  0  0
   10.4446   -1.3200   24.5793 C   0  0  0  0  0  0  0  0  0  0  0  0
    7.5090   -3.5402   23.5020 N   0  0  0  0  0  0  0  0  0  0  0  0
    7.3252   -4.9497   23.8949 C   0  0  0  0  0  0  0  0  0  0  0  0
    8.0775   -5.8986   22.9187 C   0  0  0  0  0  0  0  0  0  0  0  0
    7.0384   -6.5638   22.0758 C   0  0  0  0  0  0  0  0  0  0  0  0
    5.7269   -6.2039   22.5973 C   0  0  0  0  0  0  0  0  0  0  0  0
    5.8309   -5.3246   23.7749 C   0  0  0  0  0  0  0  0  0  0  0  0
    7.8002   -5.0391   25.3280 C   0  0  0  0  0  0  0  0  0  0  0  0
    9.1252   -5.4478   25.7166 C   0  0  0  0  0  0  0  0  0  0  0  0
    9.3332   -5.4508   27.0631 C   0  0  0  0  0  0  0  0  0  0  0  0
    7.9225   -4.9573   27.8708 S   0  0  0  0  0  0  0  0  0  0  0  0
    7.0467   -4.7414   26.4296 C   0  0  0  0  0  0  0  0  0  0  0  0
  1  2  1  0
  2  3  2  0
  2  4  2  0
  2  5  1  0
  5  6  2  0
  6  7  1  0
  7  8  2  0
  8  9  1  0
  9 10  2  0
  8 11  1  0
 11 12  1  0
 12 13  1  0
 13 14  1  0
 14 15  1  0
 15 16  1  0
 14 17  1  0
 17 18  1  0
 18 19  1  0
 19 20  1  0
 20 21  1  0
 21 22  1  0
 18 23  1  0
 23 24  1  0
 24 25  2  0
 25 26  1  0
 26 27  1  0
 10  5  1  0
 16 11  1  0
 22 18  1  0
 27 23  2  0
M  END
