CVD-0003195|dock_bobby27042020.31|mol2|36|dock1
     RDKit          3D

 24 26  0  0  0  0  0  0  0  0999 V2000
    7.8470   -0.6841   19.6756 F   0  0  0  0  0  0  0  0  0  0  0  0
    6.6110   -1.1457   20.0323 C   0  0  0  0  0  0  0  0  0  0  0  0
    6.8441   -2.3708   20.5913 F   0  0  0  0  0  0  0  0  0  0  0  0
    6.0643   -0.2877   21.1584 C   0  0  0  0  0  0  0  0  0  0  0  0
    6.3068    1.1557   21.0399 N   0  0  0  0  0  0  0  0  0  0  0  0
    5.0833    1.9633   21.0672 C   0  0  0  0  0  0  0  0  0  0  0  0
    4.1461    1.7021   19.9014 C   0  0  0  0  0  0  0  0  0  0  0  0
    4.7412    1.9777   18.5299 C   0  0  0  0  0  0  0  0  0  0  0  0
    5.8322    1.0387   18.0515 C   0  0  0  0  0  0  0  0  0  0  0  0
    5.3750   -0.3411   17.9662 N   0  0  0  0  0  0  0  0  0  0  0  0
    5.6758   -1.3314   18.8134 C   0  0  0  0  0  0  0  0  0  0  0  0
    5.2031   -2.4442   18.6238 O   0  0  0  0  0  0  0  0  0  0  0  0
    7.5379    1.6535   21.3778 C   0  0  0  0  0  0  0  0  0  0  0  0
    7.6997    2.8662   21.4142 O   0  0  0  0  0  0  0  0  0  0  0  0
    8.5877    0.7699   21.6766 N   0  0  0  0  0  0  0  0  0  0  0  0
    9.9185    1.1137   22.0064 C   0  0  0  0  0  0  0  0  0  0  0  0
   10.9582    0.2802   22.4253 C   0  0  0  0  0  0  0  0  0  0  0  0
   12.0744    0.9528   22.6491 N   0  0  0  0  0  0  0  0  0  0  0  0
   11.7521    2.2387   22.3610 N   0  0  0  0  0  0  0  0  0  0  0  0
   10.4697    2.3783   21.9812 C   0  0  0  0  0  0  0  0  0  0  0  0
   12.7786    3.2822   22.5252 C   0  0  0  0  0  0  0  0  0  0  0  0
   12.4592    4.5980   23.2440 C   0  0  0  0  0  0  0  0  0  0  0  0
   12.6597    5.3214   21.9787 O   0  0  0  0  0  0  0  0  0  0  0  0
   13.0810    4.1140   21.3216 C   0  0  0  0  0  0  0  0  0  0  0  0
  1  2  1  0
  2  3  1  0
  2  4  1  0
  4  5  1  0
  5  6  1  0
  6  7  1  0
  7  8  1  0
  8  9  1  0
  9 10  1  0
 10 11  1  0
 11 12  2  0
  5 13  1  0
 13 14  2  0
 13 15  1  0
 15 16  1  0
 16 17  1  0
 17 18  2  0
 18 19  1  0
 19 20  1  0
 19 21  1  0
 21 22  1  0
 22 23  1  0
 23 24  1  0
 11  2  1  0
 20 16  2  0
 24 21  1  0
M  END
