CVD-0003342|dock_bobby27042020.16|mol2|47|dock1
     RDKit          3D

 21 23  0  0  0  0  0  0  0  0999 V2000
   13.0946    5.0974   22.0158 Cl  0  0  0  0  0  0  0  0  0  0  0  0
   13.5173    3.4627   22.5413 C   0  0  0  0  0  0  0  0  0  0  0  0
   12.3447    2.5150   22.3743 C   0  0  0  0  0  0  0  0  0  0  0  0
   11.3130    2.9072   21.8436 O   0  0  0  0  0  0  0  0  0  0  0  0
   12.4729    1.2458   22.8297 N   0  0  0  0  0  0  0  0  0  0  0  0
   13.6802    0.6950   23.4606 C   0  0  0  0  0  0  0  0  0  0  0  0
   13.9843   -0.6770   22.8943 C   0  0  0  0  0  0  0  0  0  0  0  0
   12.7887   -1.6047   23.0687 C   0  0  0  0  0  0  0  0  0  0  0  0
   11.5580   -0.9789   22.4380 C   0  0  0  0  0  0  0  0  0  0  0  0
   11.2794    0.4100   22.9916 C   0  0  0  0  0  0  0  0  0  0  0  0
   10.3485   -1.8397   22.6234 C   0  0  0  0  0  0  0  0  0  0  0  0
    9.8075   -2.1023   23.7984 N   0  0  0  0  0  0  0  0  0  0  0  0
    8.7322   -2.9266   23.4944 C   0  0  0  0  0  0  0  0  0  0  0  0
    7.7512   -3.5563   24.2610 C   0  0  0  0  0  0  0  0  0  0  0  0
    6.8136   -4.3147   23.6578 N   0  0  0  0  0  0  0  0  0  0  0  0
    6.8694   -4.4298   22.3281 C   0  0  0  0  0  0  0  0  0  0  0  0
    7.7526   -3.8798   21.4937 N   0  0  0  0  0  0  0  0  0  0  0  0
    8.6691   -3.1328   22.1294 C   0  0  0  0  0  0  0  0  0  0  0  0
    9.7088   -2.4340   21.5831 N   0  0  0  0  0  0  0  0  0  0  0  0
    7.7229   -3.4091   25.6938 C   0  0  0  0  0  0  0  0  0  0  0  0
    7.7143   -3.3331   26.8690 C   0  0  0  0  0  0  0  0  0  0  0  0
  1  2  1  0
  2  3  1  0
  3  4  2  0
  3  5  1  0
  5  6  1  0
  6  7  1  0
  7  8  1  0
  8  9  1  0
  9 10  1  0
  9 11  1  0
 11 12  2  0
 12 13  1  0
 13 14  2  0
 14 15  1  0
 15 16  2  0
 16 17  1  0
 17 18  2  0
 18 19  1  0
 14 20  1  0
 20 21  3  0
 10  5  1  0
 19 11  1  0
 18 13  1  0
M  END
