CVD-0003841|dock_bobby27042020.44|mol2|9|dock1
     RDKit          3D

 22 24  0  0  0  0  0  0  0  0999 V2000
   13.7775    5.3838   21.2905 N   0  0  0  0  0  0  0  0  0  0  0  0
   13.4248    4.9689   22.7959 S   0  0  0  0  0  0  0  0  0  0  0  0
   14.6533    4.5979   23.4318 O   0  0  0  0  0  0  0  0  0  0  0  0
   12.6489    6.0336   23.3579 O   0  0  0  0  0  0  0  0  0  0  0  0
   12.3970    3.5319   22.7546 C   0  0  0  0  0  0  0  0  0  0  0  0
   12.9618    2.2756   22.8779 C   0  0  0  0  0  0  0  0  0  0  0  0
   12.1505    1.1551   22.8565 C   0  0  0  0  0  0  0  0  0  0  0  0
   10.7713    1.2613   22.7003 C   0  0  0  0  0  0  0  0  0  0  0  0
   10.2295    2.5372   22.5735 C   0  0  0  0  0  0  0  0  0  0  0  0
   11.0285    3.6662   22.6072 C   0  0  0  0  0  0  0  0  0  0  0  0
    9.9620    0.1302   22.6719 N   0  0  0  0  0  0  0  0  0  0  0  0
   10.2119   -0.9742   21.7589 C   0  0  0  0  0  0  0  0  0  0  0  0
   10.0822   -2.2998   22.4912 C   0  0  0  0  0  0  0  0  0  0  0  0
    8.7884   -2.4356   23.2309 C   0  0  0  0  0  0  0  0  0  0  0  0
    8.5846   -1.2367   24.1436 C   0  0  0  0  0  0  0  0  0  0  0  0
    8.6803    0.0721   23.3644 C   0  0  0  0  0  0  0  0  0  0  0  0
    8.7207   -3.6989   24.0019 N   0  0  0  0  0  0  0  0  0  0  0  0
    7.3500   -4.1869   24.1293 C   0  0  0  0  0  0  0  0  0  0  0  0
    7.3121   -5.6039   24.6405 C   0  0  0  0  0  0  0  0  0  0  0  0
    7.9799   -5.7411   26.3029 S   0  0  0  0  0  0  0  0  0  0  0  0
    9.5422   -4.9271   25.9647 C   0  0  0  0  0  0  0  0  0  0  0  0
    9.3613   -3.5767   25.3045 C   0  0  0  0  0  0  0  0  0  0  0  0
  1  2  1  0
  2  3  2  0
  2  4  2  0
  2  5  1  0
  5  6  2  0
  6  7  1  0
  7  8  2  0
  8  9  1  0
  9 10  2  0
  8 11  1  0
 11 12  1  0
 12 13  1  0
 13 14  1  0
 14 15  1  0
 15 16  1  0
 14 17  1  0
 17 18  1  0
 18 19  1  0
 19 20  1  0
 20 21  1  0
 21 22  1  0
 10  5  1  0
 16 11  1  0
 22 17  1  0
M  END
