CVD-0001223|dock_bobby27042020.53|mol2|23|dock1
     RDKit          3D

 20 22  0  0  0  0  0  0  0  0999 V2000
    8.4080   -5.2030   23.8949 C   0  0  0  0  0  0  0  0  0  0  0  0
    7.5548   -4.8119   22.7157 C   0  0  0  0  0  0  0  0  0  0  0  0
    6.9394   -5.8195   21.9791 C   0  0  0  0  0  0  0  0  0  0  0  0
    6.1564   -5.4930   20.8946 C   0  0  0  0  0  0  0  0  0  0  0  0
    5.9492   -4.2401   20.4998 N   0  0  0  0  0  0  0  0  0  0  0  0
    6.5361   -3.2635   21.1989 C   0  0  0  0  0  0  0  0  0  0  0  0
    7.3486   -3.4781   22.3125 C   0  0  0  0  0  0  0  0  0  0  0  0
    7.9752   -2.4406   23.0582 N   0  0  0  0  0  0  0  0  0  0  0  0
    7.7369   -1.1058   23.0774 C   0  0  0  0  0  0  0  0  0  0  0  0
    6.8890   -0.5151   22.4172 O   0  0  0  0  0  0  0  0  0  0  0  0
    8.6438   -0.3483   24.0266 C   0  0  0  0  0  0  0  0  0  0  0  0
   10.1038   -0.4810   23.6566 C   0  0  0  0  0  0  0  0  0  0  0  0
   11.0991   -0.1031   24.5478 C   0  0  0  0  0  0  0  0  0  0  0  0
   12.4412   -0.2210   24.2264 C   0  0  0  0  0  0  0  0  0  0  0  0
   12.8070   -0.7311   22.9813 C   0  0  0  0  0  0  0  0  0  0  0  0
   14.0553   -0.9542   22.4074 N   0  0  0  0  0  0  0  0  0  0  0  0
   13.7844   -1.4492   21.2167 C   0  0  0  0  0  0  0  0  0  0  0  0
   12.4642   -1.5687   20.9635 N   0  0  0  0  0  0  0  0  0  0  0  0
   11.8124   -1.1132   22.0833 C   0  0  0  0  0  0  0  0  0  0  0  0
   10.4694   -0.9904   22.4165 C   0  0  0  0  0  0  0  0  0  0  0  0
  1  2  1  0
  2  3  2  0
  3  4  1  0
  4  5  2  0
  5  6  1  0
  6  7  2  0
  7  8  1  0
  8  9  1  0
  9 10  2  0
  9 11  1  0
 11 12  1  0
 12 13  2  0
 13 14  1  0
 14 15  2  0
 15 16  1  0
 16 17  2  0
 17 18  1  0
 18 19  1  0
 19 20  2  0
  7  2  1  0
 20 12  1  0
 19 15  1  0
M  END
