CVD-0002385|dock_bobby27042020.91|mol2|33|dock1
     RDKit          3D

 26 29  0  0  0  0  0  0  0  0999 V2000
    6.0172    1.8296   19.8118 Cl  0  0  0  0  0  0  0  0  0  0  0  0
    7.3494    0.9527   20.4903 C   0  0  0  0  0  0  0  0  0  0  0  0
    8.3064    1.6482   21.2059 C   0  0  0  0  0  0  0  0  0  0  0  0
    9.4006    0.9769   21.7499 C   0  0  0  0  0  0  0  0  0  0  0  0
   10.4354    1.6402   22.4561 N   0  0  0  0  0  0  0  0  0  0  0  0
   10.4346    3.0802   22.5832 C   0  0  0  0  0  0  0  0  0  0  0  0
    9.3865    3.7318   23.2233 C   0  0  0  0  0  0  0  0  0  0  0  0
    9.3929    5.1115   23.3441 C   0  0  0  0  0  0  0  0  0  0  0  0
   10.4373    5.8504   22.8322 C   0  0  0  0  0  0  0  0  0  0  0  0
   11.4806    5.2123   22.1972 C   0  0  0  0  0  0  0  0  0  0  0  0
   11.4845    3.8332   22.0708 C   0  0  0  0  0  0  0  0  0  0  0  0
   11.5085    0.9627   23.0432 C   0  0  0  0  0  0  0  0  0  0  0  0
   12.3860    1.5804   23.6267 O   0  0  0  0  0  0  0  0  0  0  0  0
   11.5433   -0.4344   22.9119 N   0  0  0  0  0  0  0  0  0  0  0  0
   12.6484   -1.1467   23.5281 C   0  0  0  0  0  0  0  0  0  0  0  0
   13.3530   -2.1272   22.8406 C   0  0  0  0  0  0  0  0  0  0  0  0
   14.4026   -2.7801   23.4625 C   0  0  0  0  0  0  0  0  0  0  0  0
   14.7187   -2.4336   24.7552 C   0  0  0  0  0  0  0  0  0  0  0  0
   14.0604   -1.4984   25.4398 N   0  0  0  0  0  0  0  0  0  0  0  0
   13.0462   -0.8775   24.8292 C   0  0  0  0  0  0  0  0  0  0  0  0
   10.5797   -1.1900   22.2148 C   0  0  0  0  0  0  0  0  0  0  0  0
   10.6258   -2.4050   22.1226 O   0  0  0  0  0  0  0  0  0  0  0  0
    9.4904   -0.4153   21.6098 C   0  0  0  0  0  0  0  0  0  0  0  0
    8.5174   -1.0983   20.8823 C   0  0  0  0  0  0  0  0  0  0  0  0
    7.4558   -0.4178   20.3212 C   0  0  0  0  0  0  0  0  0  0  0  0
    6.2736   -1.3034   19.4145 Cl  0  0  0  0  0  0  0  0  0  0  0  0
  1  2  1  0
  2  3  2  0
  3  4  1  0
  4  5  1  0
  5  6  1  0
  6  7  2  0
  7  8  1  0
  8  9  2  0
  9 10  1  0
 10 11  2  0
  5 12  1  0
 12 13  2  0
 12 14  1  0
 14 15  1  0
 15 16  2  0
 16 17  1  0
 17 18  2  0
 18 19  1  0
 19 20  2  0
 14 21  1  0
 21 22  2  0
 21 23  1  0
 23 24  1  0
 24 25  2  0
 25 26  1  0
 25  2  1  0
 23  4  2  0
 11  6  1  0
 20 15  1  0
M  END
