CVD-0003438|dock_bobby27042020.45|mol2|20|dock2
     RDKit          3D

 21 23  0  0  0  0  0  0  0  0999 V2000
   11.5217   -2.1885   22.9144 Cl  0  0  0  0  0  0  0  0  0  0  0  0
   12.0901   -0.5540   23.0353 C   0  0  0  0  0  0  0  0  0  0  0  0
   12.8942   -0.3027   24.0533 N   0  0  0  0  0  0  0  0  0  0  0  0
   13.3451    0.9223   24.2055 C   0  0  0  0  0  0  0  0  0  0  0  0
   13.0746    1.9807   23.3128 C   0  0  0  0  0  0  0  0  0  0  0  0
   13.6225    3.2130   23.5541 N   0  0  0  0  0  0  0  0  0  0  0  0
   13.3931    4.1643   22.6672 C   0  0  0  0  0  0  0  0  0  0  0  0
   12.6411    4.0017   21.5251 C   0  0  0  0  0  0  0  0  0  0  0  0
   12.0714    2.7885   21.2793 C   0  0  0  0  0  0  0  0  0  0  0  0
   12.2457    1.7163   22.1923 C   0  0  0  0  0  0  0  0  0  0  0  0
   11.6966    0.3966   22.1050 C   0  0  0  0  0  0  0  0  0  0  0  0
   10.7703    0.0072   21.1006 N   0  0  0  0  0  0  0  0  0  0  0  0
    9.4853    0.4808   20.9826 C   0  0  0  0  0  0  0  0  0  0  0  0
    8.9797    1.3044   21.7387 O   0  0  0  0  0  0  0  0  0  0  0  0
    8.8461   -0.1074   19.9167 N   0  0  0  0  0  0  0  0  0  0  0  0
    7.5269    0.0528   19.4223 C   0  0  0  0  0  0  0  0  0  0  0  0
    6.7585    1.1962   19.6313 C   0  0  0  0  0  0  0  0  0  0  0  0
    5.4754    1.2768   19.1154 C   0  0  0  0  0  0  0  0  0  0  0  0
    4.9443    0.2320   18.3916 C   0  0  0  0  0  0  0  0  0  0  0  0
    5.6959   -0.9022   18.1792 C   0  0  0  0  0  0  0  0  0  0  0  0
    6.9794   -0.9946   18.6899 C   0  0  0  0  0  0  0  0  0  0  0  0
  1  2  1  0
  2  3  2  0
  3  4  1  0
  4  5  2  0
  5  6  1  0
  6  7  2  0
  7  8  1  0
  8  9  2  0
  9 10  1  0
 10 11  2  0
 11 12  1  0
 12 13  1  0
 13 14  2  0
 13 15  1  0
 15 16  1  0
 16 17  2  0
 17 18  1  0
 18 19  2  0
 19 20  1  0
 20 21  2  0
 11  2  1  0
 21 16  1  0
 10  5  1  0
M  END
