CVD-0003837|dock_bobby27042020.0|mol2|37|dock2
     RDKit          3D

 33 37  0  0  0  0  0  0  0  0999 V2000
   13.6529    5.3546   21.1901 N   0  0  0  0  0  0  0  0  0  0  0  0
   13.4328    5.0315   22.7426 S   0  0  0  0  0  0  0  0  0  0  0  0
   12.6626    6.1059   23.2937 O   0  0  0  0  0  0  0  0  0  0  0  0
   14.7196    4.7448   23.3021 O   0  0  0  0  0  0  0  0  0  0  0  0
   12.4601    3.5621   22.8761 C   0  0  0  0  0  0  0  0  0  0  0  0
   13.0796    2.3262   22.9164 C   0  0  0  0  0  0  0  0  0  0  0  0
   12.3143    1.1788   23.0269 C   0  0  0  0  0  0  0  0  0  0  0  0
   10.9248    1.2416   23.0888 C   0  0  0  0  0  0  0  0  0  0  0  0
   10.3253    2.4979   23.0524 C   0  0  0  0  0  0  0  0  0  0  0  0
   11.0819    3.6516   22.9486 C   0  0  0  0  0  0  0  0  0  0  0  0
   10.1424    0.0976   23.1863 N   0  0  0  0  0  0  0  0  0  0  0  0
    9.2869   -0.1849   24.3429 C   0  0  0  0  0  0  0  0  0  0  0  0
    9.4228   -1.6058   24.8121 C   0  0  0  0  0  0  0  0  0  0  0  0
    9.1250   -2.5909   23.6763 C   0  0  0  0  0  0  0  0  0  0  0  0
    9.2561   -4.0403   24.1386 C   0  0  0  0  0  0  0  0  0  0  0  0
    8.5220   -4.4486   25.3469 N   0  0  0  0  0  0  0  0  0  0  0  0
    9.1316   -5.6322   25.9447 C   0  0  0  0  0  0  0  0  0  0  0  0
    8.4376   -6.0003   27.2446 C   0  0  0  0  0  0  0  0  0  0  0  0
    6.9621   -6.2818   26.9711 C   0  0  0  0  0  0  0  0  0  0  0  0
    6.3300   -5.0814   26.2820 C   0  0  0  0  0  0  0  0  0  0  0  0
    7.1223   -4.7497   25.0271 C   0  0  0  0  0  0  0  0  0  0  0  0
    6.2129   -6.7108   28.2107 C   0  0  0  0  0  0  0  0  0  0  0  0
    6.7129   -6.4356   29.4583 C   0  0  0  0  0  0  0  0  0  0  0  0
    6.0390   -6.8039   30.6102 C   0  0  0  0  0  0  0  0  0  0  0  0
    4.8476   -7.4603   30.5426 C   0  0  0  0  0  0  0  0  0  0  0  0
    4.2759   -7.7827   29.2891 C   0  0  0  0  0  0  0  0  0  0  0  0
    3.0411   -8.4656   29.1766 C   0  0  0  0  0  0  0  0  0  0  0  0
    2.5174   -8.7642   27.9545 C   0  0  0  0  0  0  0  0  0  0  0  0
    3.1812   -8.4085   26.7999 C   0  0  0  0  0  0  0  0  0  0  0  0
    4.3732   -7.7499   26.8566 C   0  0  0  0  0  0  0  0  0  0  0  0
    4.9677   -7.4066   28.0993 C   0  0  0  0  0  0  0  0  0  0  0  0
   10.0251   -2.2707   22.5097 C   0  0  0  0  0  0  0  0  0  0  0  0
    9.9139   -0.8311   22.0551 C   0  0  0  0  0  0  0  0  0  0  0  0
  1  2  1  0
  2  3  2  0
  2  4  2  0
  2  5  1  0
  5  6  2  0
  6  7  1  0
  7  8  2  0
  8  9  1  0
  9 10  2  0
  8 11  1  0
 11 12  1  0
 12 13  1  0
 13 14  1  0
 14 15  1  0
 15 16  1  0
 16 17  1  0
 17 18  1  0
 18 19  1  0
 19 20  1  0
 20 21  1  0
 19 22  1  0
 22 23  2  0
 23 24  1  0
 24 25  2  0
 25 26  1  0
 26 27  2  0
 27 28  1  0
 28 29  2  0
 29 30  1  0
 30 31  2  0
 14 32  1  0
 32 33  1  0
 10  5  1  0
 33 11  1  0
 21 16  1  0
 31 22  1  0
 31 26  1  0
M  END
