CVD-0000380|dock_bobby27042020.27|mol2|22|dock1
     RDKit          3D

 31 33  0  0  0  0  0  0  0  0999 V2000
   13.8253   -1.8994   25.6164 C   0  0  0  0  0  0  0  0  0  0  0  0
   14.1227   -2.0023   24.1531 C   0  0  0  0  0  0  0  0  0  0  0  0
   12.9266   -1.8033   23.3517 N   0  0  0  0  0  0  0  0  0  0  0  0
   12.3377   -0.5927   23.1456 C   0  0  0  0  0  0  0  0  0  0  0  0
   11.0790   -0.4945   22.5515 C   0  0  0  0  0  0  0  0  0  0  0  0
   10.5345    0.7707   22.3379 C   0  0  0  0  0  0  0  0  0  0  0  0
    9.2780    0.9851   21.7104 N   0  0  0  0  0  0  0  0  0  0  0  0
    8.1221    1.5631   22.1582 C   0  0  0  0  0  0  0  0  0  0  0  0
    7.9564    2.2005   23.3487 C   0  0  0  0  0  0  0  0  0  0  0  0
    6.3825    2.8295   23.5793 S   0  0  0  0  0  0  0  0  0  0  0  0
    5.9432    2.1877   22.0350 C   0  0  0  0  0  0  0  0  0  0  0  0
    4.6907    2.3434   21.5609 O   0  0  0  0  0  0  0  0  0  0  0  0
    3.7529    3.0391   22.4159 C   0  0  0  0  0  0  0  0  0  0  0  0
    6.9256    1.5296   21.3536 C   0  0  0  0  0  0  0  0  0  0  0  0
    6.7584    0.8732   19.9851 C   0  0  0  0  0  0  0  0  0  0  0  0
    5.4611    1.1496   19.2459 C   0  0  0  0  0  0  0  0  0  0  0  0
    5.5444    0.2349   18.0628 C   0  0  0  0  0  0  0  0  0  0  0  0
    6.3229   -1.0214   18.5262 C   0  0  0  0  0  0  0  0  0  0  0  0
    6.8504   -0.6820   19.9504 C   0  0  0  0  0  0  0  0  0  0  0  0
    6.0982   -1.3629   21.0859 C   0  0  0  0  0  0  0  0  0  0  0  0
    5.3870   -0.7557   21.8786 O   0  0  0  0  0  0  0  0  0  0  0  0
    6.3116   -2.7129   21.1217 N   0  0  0  0  0  0  0  0  0  0  0  0
    5.8578   -3.7216   21.9544 C   0  0  0  0  0  0  0  0  0  0  0  0
    5.0958   -3.4402   22.8903 O   0  0  0  0  0  0  0  0  0  0  0  0
    6.2745   -5.1294   21.7364 C   0  0  0  0  0  0  0  0  0  0  0  0
    5.7898   -6.1004   22.4643 C   0  0  0  0  0  0  0  0  0  0  0  0
   11.2666    1.8913   22.7769 C   0  0  0  0  0  0  0  0  0  0  0  0
   12.5119    1.6802   23.3807 C   0  0  0  0  0  0  0  0  0  0  0  0
   13.0432    0.4666   23.5501 N   0  0  0  0  0  0  0  0  0  0  0  0
   10.7824    3.2390   22.6211 C   0  0  0  0  0  0  0  0  0  0  0  0
   10.4011    4.3121   22.5317 N   0  0  0  0  0  0  0  0  0  0  0  0
  1  2  1  0
  2  3  1  0
  3  4  1  0
  4  5  2  0
  5  6  1  0
  6  7  1  0
  7  8  1  0
  8  9  2  0
  9 10  1  0
 10 11  1  0
 11 12  1  0
 12 13  1  0
 11 14  2  0
 15 14  1  0
 15 16  1  0
 16 17  1  0
 17 18  1  0
 18 19  1  0
 19 20  1  0
 20 21  2  0
 20 22  1  0
 22 23  1  0
 23 24  2  0
 23 25  1  0
 25 26  2  0
  6 27  2  0
 27 28  1  0
 28 29  2  0
 27 30  1  0
 30 31  3  0
 29  4  1  0
 14  8  1  0
 19 15  1  0
M  END
