CVD-0002225|dock_bobby27042020.92|mol2|18|dock1
     RDKit          3D

 17 18  0  0  0  0  0  0  0  0999 V2000
   13.9167   -2.5643   25.0636 C   0  0  0  0  0  0  0  0  0  0  0  0
   12.6922   -2.6482   24.2005 C   0  0  0  0  0  0  0  0  0  0  0  0
   11.9723   -3.6403   24.2131 O   0  0  0  0  0  0  0  0  0  0  0  0
   12.3990   -1.5840   23.4132 N   0  0  0  0  0  0  0  0  0  0  0  0
   11.2168   -1.6017   22.5673 C   0  0  0  0  0  0  0  0  0  0  0  0
   10.3858   -0.3786   22.7969 C   0  0  0  0  0  0  0  0  0  0  0  0
   11.2182    0.8136   22.5822 N   0  0  0  0  0  0  0  0  0  0  0  0
   12.3638    0.8522   23.5033 C   0  0  0  0  0  0  0  0  0  0  0  0
   13.2083   -0.3682   23.2850 C   0  0  0  0  0  0  0  0  0  0  0  0
   10.4512    2.2016   22.2511 S   0  0  0  0  0  0  0  0  0  0  0  0
    9.5089    2.4231   23.3027 O   0  0  0  0  0  0  0  0  0  0  0  0
    9.9870    2.1129   20.9023 O   0  0  0  0  0  0  0  0  0  0  0  0
   11.6073    3.5010   22.3134 C   0  0  0  0  0  0  0  0  0  0  0  0
   11.9767    4.1824   23.4496 C   0  0  0  0  0  0  0  0  0  0  0  0
   12.9407    5.1726   23.1428 C   0  0  0  0  0  0  0  0  0  0  0  0
   13.2688    5.2173   21.8407 C   0  0  0  0  0  0  0  0  0  0  0  0
   12.4205    4.0552   20.9224 S   0  0  0  0  0  0  0  0  0  0  0  0
  1  2  1  0
  2  3  2  0
  2  4  1  0
  4  5  1  0
  5  6  1  0
  6  7  1  0
  7  8  1  0
  8  9  1  0
  7 10  1  0
 10 11  2  0
 10 12  2  0
 10 13  1  0
 13 14  2  0
 14 15  1  0
 15 16  2  0
 16 17  1  0
  9  4  1  0
 17 13  1  0
M  END
