CVD-0002502|dock_bobby27042020.77|mol2|11|dock1
     RDKit          3D

 30 33  0  0  0  0  0  0  0  0999 V2000
   13.7794    4.9204   21.6218 C   0  0  0  0  0  0  0  0  0  0  0  0
   13.8021    4.2754   22.9722 C   0  0  0  0  0  0  0  0  0  0  0  0
   14.1255    2.8616   22.8801 N   0  0  0  0  0  0  0  0  0  0  0  0
   13.2183    1.9037   22.5472 C   0  0  0  0  0  0  0  0  0  0  0  0
   13.5282    0.5521   22.6837 C   0  0  0  0  0  0  0  0  0  0  0  0
   12.5693   -0.3800   22.3310 C   0  0  0  0  0  0  0  0  0  0  0  0
   11.3330    0.0398   21.8542 C   0  0  0  0  0  0  0  0  0  0  0  0
   11.1233    1.4075   21.7558 C   0  0  0  0  0  0  0  0  0  0  0  0
   12.0356    2.3270   22.0909 N   0  0  0  0  0  0  0  0  0  0  0  0
   10.2740   -0.9127   21.4636 C   0  0  0  0  0  0  0  0  0  0  0  0
   10.2909   -2.2100   21.9611 N   0  0  0  0  0  0  0  0  0  0  0  0
    9.2372   -2.8164   21.4457 C   0  0  0  0  0  0  0  0  0  0  0  0
    8.5198   -1.9867   20.6265 N   0  0  0  0  0  0  0  0  0  0  0  0
    7.3687   -2.1454   19.8756 C   0  0  0  0  0  0  0  0  0  0  0  0
    6.6891   -3.4760   19.8966 C   0  0  0  0  0  0  0  0  0  0  0  0
    6.8216   -4.2070   21.1598 N   0  0  0  0  0  0  0  0  0  0  0  0
    6.5017   -5.6246   20.9679 C   0  0  0  0  0  0  0  0  0  0  0  0
    6.6802   -6.3841   22.2694 C   0  0  0  0  0  0  0  0  0  0  0  0
    5.8318   -5.8112   23.3166 N   0  0  0  0  0  0  0  0  0  0  0  0
    6.0861   -4.3778   23.4917 C   0  0  0  0  0  0  0  0  0  0  0  0
    5.9265   -3.6488   22.1700 C   0  0  0  0  0  0  0  0  0  0  0  0
    4.9530   -6.5492   24.0351 C   0  0  0  0  0  0  0  0  0  0  0  0
    4.8252   -7.7524   23.8461 O   0  0  0  0  0  0  0  0  0  0  0  0
    4.1230   -5.8543   25.0978 C   0  0  0  0  0  0  0  0  0  0  0  0
    2.9719   -4.7147   24.3883 Cl  0  0  0  0  0  0  0  0  0  0  0  0
    6.9354   -1.0306   19.1613 C   0  0  0  0  0  0  0  0  0  0  0  0
    5.6906   -1.0783   18.3237 C   0  0  0  0  0  0  0  0  0  0  0  0
    7.6695    0.1546   19.2383 C   0  0  0  0  0  0  0  0  0  0  0  0
    8.7665    0.3240   19.9435 N   0  0  0  0  0  0  0  0  0  0  0  0
    9.1729   -0.7666   20.6336 C   0  0  0  0  0  0  0  0  0  0  0  0
  1  2  1  0
  2  3  1  0
  3  4  1  0
  4  5  2  0
  5  6  1  0
  6  7  2  0
  7  8  1  0
  8  9  2  0
  7 10  1  0
 10 11  1  0
 11 12  2  0
 12 13  1  0
 13 14  1  0
 14 15  1  0
 15 16  1  0
 16 17  1  0
 17 18  1  0
 18 19  1  0
 19 20  1  0
 20 21  1  0
 19 22  1  0
 22 23  2  0
 22 24  1  0
 24 25  1  0
 14 26  2  0
 26 27  1  0
 26 28  1  0
 28 29  2  0
 29 30  1  0
  9  4  1  0
 30 10  2  0
 30 13  1  0
 21 16  1  0
M  END
