CVD-0000484|dock_bobby27042020.27|mol2|6|dock2
     RDKit          3D

 24 26  0  0  0  0  0  0  0  0999 V2000
    9.3914   -0.0204   23.3344 O   0  0  0  0  0  0  0  0  0  0  0  0
    9.8333   -0.5886   22.3415 C   0  0  0  0  0  0  0  0  0  0  0  0
   10.9685   -1.4055   22.3828 N   0  0  0  0  0  0  0  0  0  0  0  0
   11.7932   -1.7278   23.4864 C   0  0  0  0  0  0  0  0  0  0  0  0
   12.0716   -2.9485   23.9681 C   0  0  0  0  0  0  0  0  0  0  0  0
   13.0346   -3.1301   25.0533 C   0  0  0  0  0  0  0  0  0  0  0  0
   13.9004   -2.1648   25.3002 C   0  0  0  0  0  0  0  0  0  0  0  0
   13.8570   -0.8906   24.5366 C   0  0  0  0  0  0  0  0  0  0  0  0
   12.4250   -0.5045   24.1557 C   0  0  0  0  0  0  0  0  0  0  0  0
   12.4413    0.6965   23.2204 C   0  0  0  0  0  0  0  0  0  0  0  0
   12.5627    0.5550   22.0064 O   0  0  0  0  0  0  0  0  0  0  0  0
   12.3132    1.9054   23.8367 N   0  0  0  0  0  0  0  0  0  0  0  0
   12.3000    3.1368   23.1987 C   0  0  0  0  0  0  0  0  0  0  0  0
   13.3899    3.8292   22.7908 C   0  0  0  0  0  0  0  0  0  0  0  0
   12.9923    5.0863   22.1726 C   0  0  0  0  0  0  0  0  0  0  0  0
   11.6300    5.1395   22.2074 C   0  0  0  0  0  0  0  0  0  0  0  0
   11.1046    3.9417   22.8565 C   0  0  0  0  0  0  0  0  0  0  0  0
    9.2963   -0.5103   21.0795 N   0  0  0  0  0  0  0  0  0  0  0  0
    8.1655    0.1940   20.5949 C   0  0  0  0  0  0  0  0  0  0  0  0
    7.6993   -0.0890   19.3175 C   0  0  0  0  0  0  0  0  0  0  0  0
    6.5968    0.5864   18.8242 C   0  0  0  0  0  0  0  0  0  0  0  0
    5.9901    1.5274   19.6229 C   0  0  0  0  0  0  0  0  0  0  0  0
    6.4125    1.8222   20.8523 N   0  0  0  0  0  0  0  0  0  0  0  0
    7.4781    1.1647   21.3204 C   0  0  0  0  0  0  0  0  0  0  0  0
  1  2  2  0
  2  3  1  0
  3  4  1  0
  4  5  2  0
  5  6  1  0
  6  7  2  0
  7  8  1  0
  8  9  1  0
  9 10  1  0
 10 11  2  0
 10 12  1  0
 12 13  1  0
 13 14  2  0
 14 15  1  0
 15 16  2  0
 16 17  1  0
  2 18  1  0
 18 19  1  0
 19 20  2  0
 20 21  1  0
 21 22  2  0
 22 23  1  0
 23 24  2  0
  9  4  1  0
 17 13  1  0
 24 19  1  0
M  END
