CVD-0002237|dock_bobby27042020.21|mol2|7|dock1
     RDKit          3D

 43 48  0  0  0  0  0  0  0  0999 V2000
    6.2164   -5.4474   19.6789 F   0  0  0  0  0  0  0  0  0  0  0  0
    6.2508   -5.5831   21.0215 C   0  0  0  0  0  0  0  0  0  0  0  0
    5.6476   -6.7037   21.5419 C   0  0  0  0  0  0  0  0  0  0  0  0
    5.5891   -6.8512   22.9159 C   0  0  0  0  0  0  0  0  0  0  0  0
    6.1253   -5.8824   23.7341 C   0  0  0  0  0  0  0  0  0  0  0  0
    6.7508   -4.7735   23.1896 C   0  0  0  0  0  0  0  0  0  0  0  0
    6.8584   -4.6124   21.8068 C   0  0  0  0  0  0  0  0  0  0  0  0
    7.5961   -3.4141   21.3367 C   0  0  0  0  0  0  0  0  0  0  0  0
    8.7859   -2.9556   21.8698 C   0  0  0  0  0  0  0  0  0  0  0  0
    9.2018   -1.7960   21.1922 C   0  0  0  0  0  0  0  0  0  0  0  0
   10.4513   -1.0116   21.4957 C   0  0  0  0  0  0  0  0  0  0  0  0
   10.2198    0.4077   21.6846 N   0  0  0  0  0  0  0  0  0  0  0  0
   11.1272    1.2794   22.2474 C   0  0  0  0  0  0  0  0  0  0  0  0
   12.4914    0.9854   22.1988 C   0  0  0  0  0  0  0  0  0  0  0  0
   13.4143    1.8684   22.7319 C   0  0  0  0  0  0  0  0  0  0  0  0
   12.9969    3.0438   23.3107 C   0  0  0  0  0  0  0  0  0  0  0  0
   11.6479    3.3380   23.3736 C   0  0  0  0  0  0  0  0  0  0  0  0
   10.6834    2.4636   22.8680 C   0  0  0  0  0  0  0  0  0  0  0  0
    9.1974    2.7984   22.9994 C   0  0  0  0  0  0  0  0  0  0  0  0
    8.4747    1.7550   23.7836 C   0  0  0  0  0  0  0  0  0  0  0  0
    8.9093    1.7594   25.2025 N   0  0  0  0  0  0  0  0  0  0  0  0
    8.9624    3.0610   25.8966 C   0  0  0  0  0  0  0  0  0  0  0  0
    8.8362    4.2894   24.9909 C   0  0  0  0  0  0  0  0  0  0  0  0
    8.6219    5.5433   25.5539 C   0  0  0  0  0  0  0  0  0  0  0  0
    8.5333    6.6744   24.7635 C   0  0  0  0  0  0  0  0  0  0  0  0
    8.6591    6.5590   23.3971 C   0  0  0  0  0  0  0  0  0  0  0  0
    8.8722    5.3143   22.8318 C   0  0  0  0  0  0  0  0  0  0  0  0
    8.9652    4.1576   23.6095 C   0  0  0  0  0  0  0  0  0  0  0  0
    9.2917    0.6527   25.8736 C   0  0  0  0  0  0  0  0  0  0  0  0
    9.2975   -0.4551   25.3517 O   0  0  0  0  0  0  0  0  0  0  0  0
    9.7223    0.8452   27.3147 C   0  0  0  0  0  0  0  0  0  0  0  0
    9.7779   -0.6983   28.1757 Cl  0  0  0  0  0  0  0  0  0  0  0  0
    8.2580   -1.5422   20.2082 C   0  0  0  0  0  0  0  0  0  0  0  0
    7.2740   -2.5209   20.2764 N   0  0  0  0  0  0  0  0  0  0  0  0
    5.9987   -2.4688   19.1579 S   0  0  0  0  0  0  0  0  0  0  0  0
    6.5390   -2.7874   17.8729 O   0  0  0  0  0  0  0  0  0  0  0  0
    4.9879   -3.3136   19.7141 O   0  0  0  0  0  0  0  0  0  0  0  0
    5.3683   -0.8258   19.1673 C   0  0  0  0  0  0  0  0  0  0  0  0
    5.1070   -0.1830   20.3653 C   0  0  0  0  0  0  0  0  0  0  0  0
    4.6159    1.1105   20.3265 C   0  0  0  0  0  0  0  0  0  0  0  0
    4.4086    1.7038   19.1017 C   0  0  0  0  0  0  0  0  0  0  0  0
    4.6573    1.0973   17.9402 N   0  0  0  0  0  0  0  0  0  0  0  0
    5.1314   -0.1512   17.9848 C   0  0  0  0  0  0  0  0  0  0  0  0
  1  2  1  0
  2  3  2  0
  3  4  1  0
  4  5  2  0
  5  6  1  0
  6  7  2  0
  7  8  1  0
  8  9  2  0
  9 10  1  0
 10 11  1  0
 11 12  1  0
 12 13  1  0
 13 14  2  0
 14 15  1  0
 15 16  2  0
 16 17  1  0
 17 18  2  0
 18 19  1  0
 19 20  1  0
 20 21  1  0
 21 22  1  0
 22 23  1  0
 23 24  2  0
 24 25  1  0
 25 26  2  0
 26 27  1  0
 27 28  2  0
 21 29  1  0
 29 30  2  0
 29 31  1  0
 31 32  1  0
 10 33  2  0
 33 34  1  0
 34 35  1  0
 35 36  2  0
 35 37  2  0
 35 38  1  0
 38 39  2  0
 39 40  1  0
 40 41  2  0
 41 42  1  0
 42 43  2  0
  7  2  1  0
 34  8  1  0
 43 38  1  0
 18 13  1  0
 28 19  1  0
 28 23  1  0
M  END
