CVD-0000409|dock_bobby27042020.84|mol2|23|dock3
     RDKit          3D

 23 25  0  0  0  0  0  0  0  0999 V2000
   14.4736   -2.7088   26.0109 C   0  0  0  0  0  0  0  0  0  0  0  0
   13.3414   -2.5412   25.0241 C   0  0  0  0  0  0  0  0  0  0  0  0
   13.7377   -1.6861   23.8346 C   0  0  0  0  0  0  0  0  0  0  0  0
   12.6458   -1.3885   22.8489 C   0  0  0  0  0  0  0  0  0  0  0  0
   12.5760   -1.8275   21.5577 C   0  0  0  0  0  0  0  0  0  0  0  0
   11.4432   -1.3620   20.9462 N   0  0  0  0  0  0  0  0  0  0  0  0
   10.7491   -0.5992   21.8510 C   0  0  0  0  0  0  0  0  0  0  0  0
    9.5427    0.0975   21.7297 C   0  0  0  0  0  0  0  0  0  0  0  0
    8.9316    0.0162   20.4780 O   0  0  0  0  0  0  0  0  0  0  0  0
    7.6192    0.3408   20.2688 C   0  0  0  0  0  0  0  0  0  0  0  0
    6.7256    0.2704   21.2409 N   0  0  0  0  0  0  0  0  0  0  0  0
    5.4619    0.6008   20.9445 C   0  0  0  0  0  0  0  0  0  0  0  0
    5.0473    1.0049   19.6919 C   0  0  0  0  0  0  0  0  0  0  0  0
    5.9762    1.0828   18.6589 C   0  0  0  0  0  0  0  0  0  0  0  0
    5.5813    1.5130   17.2709 C   0  0  0  0  0  0  0  0  0  0  0  0
    7.2727    0.7357   18.9900 C   0  0  0  0  0  0  0  0  0  0  0  0
    8.2147    0.7883   18.0307 F   0  0  0  0  0  0  0  0  0  0  0  0
    9.0493    0.8064   22.8137 C   0  0  0  0  0  0  0  0  0  0  0  0
    9.7596    0.7977   23.9881 C   0  0  0  0  0  0  0  0  0  0  0  0
    9.2826    1.4829   25.0524 F   0  0  0  0  0  0  0  0  0  0  0  0
   10.9456    0.1126   24.1194 C   0  0  0  0  0  0  0  0  0  0  0  0
   11.5933    0.1379   25.2984 F   0  0  0  0  0  0  0  0  0  0  0  0
   11.4733   -0.5986   23.0542 C   0  0  0  0  0  0  0  0  0  0  0  0
  1  2  1  0
  2  3  1  0
  3  4  1  0
  4  5  2  0
  5  6  1  0
  6  7  1  0
  7  8  2  0
  8  9  1  0
  9 10  1  0
 10 11  2  0
 11 12  1  0
 12 13  2  0
 13 14  1  0
 14 15  1  0
 14 16  2  0
 16 17  1  0
  8 18  1  0
 18 19  2  0
 19 20  1  0
 19 21  1  0
 21 22  1  0
 21 23  2  0
 23  4  1  0
 23  7  1  0
 16 10  1  0
M  END
