CVD-0002350|dock_bobby27042020.34|mol2|35|dock2
     RDKit          3D

 16 16  0  0  0  0  0  0  0  0999 V2000
   10.4709   -2.4482   21.8345 N   0  0  0  0  0  0  0  0  0  0  0  0
   11.4685   -2.2575   22.8992 C   0  0  0  0  0  0  0  0  0  0  0  0
   10.8071   -2.5166   24.2514 C   0  0  0  0  0  0  0  0  0  0  0  0
   10.2778   -1.5924   24.8596 O   0  0  0  0  0  0  0  0  0  0  0  0
   10.8907   -3.8177   24.6399 N   0  0  0  0  0  0  0  0  0  0  0  0
   10.3287   -4.3300   25.7453 C   0  0  0  0  0  0  0  0  0  0  0  0
   10.4797   -5.6229   26.0224 N   0  0  0  0  0  0  0  0  0  0  0  0
    9.6106   -3.6109   26.6062 N   0  0  0  0  0  0  0  0  0  0  0  0
   12.0828   -0.8688   22.8839 C   0  0  0  0  0  0  0  0  0  0  0  0
   11.3073    0.2676   23.0562 C   0  0  0  0  0  0  0  0  0  0  0  0
   11.8912    1.5207   23.0410 C   0  0  0  0  0  0  0  0  0  0  0  0
   13.2674    1.5959   22.8496 C   0  0  0  0  0  0  0  0  0  0  0  0
   14.0485    0.5119   22.6804 N   0  0  0  0  0  0  0  0  0  0  0  0
   13.4435   -0.6817   22.7020 C   0  0  0  0  0  0  0  0  0  0  0  0
   13.9376    2.8813   22.8234 C   0  0  0  0  0  0  0  0  0  0  0  0
   14.4812    3.8859   22.8365 N   0  0  0  0  0  0  0  0  0  0  0  0
  1  2  1  0
  2  3  1  0
  3  4  2  0
  3  5  1  0
  5  6  2  3
  6  7  1  0
  6  8  1  0
  2  9  1  0
  9 10  2  0
 10 11  1  0
 11 12  2  0
 12 13  1  0
 13 14  2  0
 12 15  1  0
 15 16  3  0
 14  9  1  0
M  END
