CVD-0001617|dock_bobby27042020.9|mol2|12|dock1
     RDKit          3D

 19 21  0  0  0  0  0  0  0  0999 V2000
    8.0185   -5.6166   27.8035 Cl  0  0  0  0  0  0  0  0  0  0  0  0
    9.3238   -6.0011   26.6742 C   0  0  0  0  0  0  0  0  0  0  0  0
    8.9355   -5.6299   25.2557 C   0  0  0  0  0  0  0  0  0  0  0  0
    8.8597   -6.4947   24.3920 O   0  0  0  0  0  0  0  0  0  0  0  0
    8.6716   -4.3316   24.9781 N   0  0  0  0  0  0  0  0  0  0  0  0
    8.7376   -3.2124   25.9230 C   0  0  0  0  0  0  0  0  0  0  0  0
    9.4756   -2.0472   25.3168 C   0  0  0  0  0  0  0  0  0  0  0  0
    8.8461   -1.6286   24.0537 N   0  0  0  0  0  0  0  0  0  0  0  0
    8.8904   -2.7661   23.1337 C   0  0  0  0  0  0  0  0  0  0  0  0
    8.1157   -3.9396   23.6843 C   0  0  0  0  0  0  0  0  0  0  0  0
    9.5393   -0.4483   23.4726 C   0  0  0  0  0  0  0  0  0  0  0  0
    9.0677    0.9374   23.8569 C   0  0  0  0  0  0  0  0  0  0  0  0
    8.6963    0.3827   22.5174 C   0  0  0  0  0  0  0  0  0  0  0  0
   10.9681   -0.7721   23.0498 C   0  0  0  0  0  0  0  0  0  0  0  0
   12.1183   -0.6465   23.7884 C   0  0  0  0  0  0  0  0  0  0  0  0
   13.2759   -1.0291   23.1151 C   0  0  0  0  0  0  0  0  0  0  0  0
   13.0125   -1.4476   21.8643 C   0  0  0  0  0  0  0  0  0  0  0  0
   14.2431   -2.0548   20.5915 Br  0  0  0  0  0  0  0  0  0  0  0  0
   11.3436   -1.3853   21.4761 S   0  0  0  0  0  0  0  0  0  0  0  0
  1  2  1  0
  2  3  1  0
  3  4  2  0
  3  5  1  0
  5  6  1  0
  6  7  1  0
  7  8  1  0
  8  9  1  0
  9 10  1  0
  8 11  1  0
 11 12  1  0
 12 13  1  0
 11 14  1  0
 14 15  2  0
 15 16  1  0
 16 17  2  0
 17 18  1  0
 17 19  1  0
 10  5  1  0
 13 11  1  0
 19 14  1  0
M  END
