CVD-0000142|dock_bobby27042020.57|mol2|10|dock2
     RDKit          3D

 14 15  0  0  0  0  0  0  0  0999 V2000
   11.9608    3.3944   22.8026 C   0  0  0  0  0  0  0  0  0  0  0  0
   12.6770    2.2124   23.2457 N   0  0  0  0  0  0  0  0  0  0  0  0
   12.2559    0.9857   22.9703 C   0  0  0  0  0  0  0  0  0  0  0  0
   11.2336    0.7736   22.3230 O   0  0  0  0  0  0  0  0  0  0  0  0
   13.1483   -0.1152   23.5189 C   0  0  0  0  0  0  0  0  0  0  0  0
   13.0303   -0.4181   25.0021 C   0  0  0  0  0  0  0  0  0  0  0  0
   13.8841   -1.6376   25.1673 C   0  0  0  0  0  0  0  0  0  0  0  0
   13.7708   -2.4416   23.8483 C   0  0  0  0  0  0  0  0  0  0  0  0
   12.9893   -1.5212   22.8662 C   0  0  0  0  0  0  0  0  0  0  0  0
   11.5509   -1.9223   22.6353 C   0  0  0  0  0  0  0  0  0  0  0  0
   10.7117   -2.5093   23.6260 C   0  0  0  0  0  0  0  0  0  0  0  0
    9.4503   -2.7865   23.1913 C   0  0  0  0  0  0  0  0  0  0  0  0
    9.2840   -2.3289   21.5638 S   0  0  0  0  0  0  0  0  0  0  0  0
   10.8853   -1.7683   21.4554 C   0  0  0  0  0  0  0  0  0  0  0  0
  1  2  1  0
  2  3  1  0
  3  4  2  0
  5  3  1  0
  5  6  1  0
  6  7  1  0
  7  8  1  0
  8  9  1  0
  9 10  1  0
 10 11  1  0
 11 12  2  0
 12 13  1  0
 13 14  1  0
  9  5  1  0
 14 10  2  0
M  END
