CVD-0000732|dock_bobby27042020.83|mol2|28|dock3
     RDKit          3D

 22 24  0  0  0  0  0  0  0  0999 V2000
   11.0919    1.6338   23.1144 N   0  0  0  0  0  0  0  0  0  0  0  0
   10.1133    1.3830   22.2594 C   0  0  0  0  0  0  0  0  0  0  0  0
   10.1726    1.6921   21.0673 O   0  0  0  0  0  0  0  0  0  0  0  0
    8.8949    0.6851   22.8274 C   0  0  0  0  0  0  0  0  0  0  0  0
    7.7461    0.7259   21.8457 C   0  0  0  0  0  0  0  0  0  0  0  0
    7.3413   -0.7201   21.6872 C   0  0  0  0  0  0  0  0  0  0  0  0
    6.2530   -1.1523   20.7334 C   0  0  0  0  0  0  0  0  0  0  0  0
    6.0088   -0.1685   19.6116 C   0  0  0  0  0  0  0  0  0  0  0  0
    4.9942    0.7713   19.6839 C   0  0  0  0  0  0  0  0  0  0  0  0
    4.7973    1.6541   18.6366 C   0  0  0  0  0  0  0  0  0  0  0  0
    5.6274    1.5672   17.5423 C   0  0  0  0  0  0  0  0  0  0  0  0
    6.6120    0.6728   17.4427 N   0  0  0  0  0  0  0  0  0  0  0  0
    6.7828   -0.1693   18.4664 C   0  0  0  0  0  0  0  0  0  0  0  0
    8.0652   -1.5231   22.4761 C   0  0  0  0  0  0  0  0  0  0  0  0
    9.1216   -0.7535   23.2320 C   0  0  0  0  0  0  0  0  0  0  0  0
   10.5369   -1.2117   22.9203 C   0  0  0  0  0  0  0  0  0  0  0  0
   10.9513   -1.3919   21.6081 C   0  0  0  0  0  0  0  0  0  0  0  0
   12.2394   -1.8121   21.3239 C   0  0  0  0  0  0  0  0  0  0  0  0
   13.1325   -2.0591   22.3524 C   0  0  0  0  0  0  0  0  0  0  0  0
   12.7161   -1.8797   23.6591 C   0  0  0  0  0  0  0  0  0  0  0  0
   14.0571   -2.2504   25.2305 I   0  0  0  0  0  0  0  0  0  0  0  0
   11.4306   -1.4600   23.9518 C   0  0  0  0  0  0  0  0  0  0  0  0
  1  2  1  0
  2  3  2  0
  4  2  1  0
  4  5  1  0
  5  6  1  0
  6  7  1  0
  7  8  1  0
  8  9  2  0
  9 10  1  0
 10 11  2  0
 11 12  1  0
 12 13  2  0
  6 14  2  0
 14 15  1  0
 15 16  1  0
 16 17  2  0
 17 18  1  0
 18 19  2  0
 19 20  1  0
 20 21  1  0
 20 22  2  0
 15  4  1  0
 22 16  1  0
 13  8  1  0
M  END
