CVD-0002596|dock_bobby27042020.5|mol2|11|dock1
     RDKit          3D

 61 68  0  0  0  0  0  0  0  0999 V2000
    2.7540   -4.7073   33.4567 Cl  0  0  0  0  0  0  0  0  0  0  0  0
    4.0632   -4.9406   34.6224 C   0  0  0  0  0  0  0  0  0  0  0  0
    4.8101   -6.2320   34.3475 C   0  0  0  0  0  0  0  0  0  0  0  0
    4.7450   -7.1765   35.1243 O   0  0  0  0  0  0  0  0  0  0  0  0
    5.5382   -6.2933   33.2122 N   0  0  0  0  0  0  0  0  0  0  0  0
    6.2766   -7.5004   32.8791 C   0  0  0  0  0  0  0  0  0  0  0  0
    5.9436   -7.9569   31.4935 C   0  0  0  0  0  0  0  0  0  0  0  0
    6.2006   -6.8577   30.5521 N   0  0  0  0  0  0  0  0  0  0  0  0
    5.3836   -5.6743   30.8590 C   0  0  0  0  0  0  0  0  0  0  0  0
    5.7063   -5.2032   32.2461 C   0  0  0  0  0  0  0  0  0  0  0  0
    6.4274   -7.2528   28.9975 S   0  0  0  0  0  0  0  0  0  0  0  0
    7.2867   -8.3946   28.9756 O   0  0  0  0  0  0  0  0  0  0  0  0
    5.1350   -7.3370   28.3929 O   0  0  0  0  0  0  0  0  0  0  0  0
    7.2785   -5.9522   28.2145 C   0  0  0  0  0  0  0  0  0  0  0  0
    8.6205   -5.9164   27.9219 C   0  0  0  0  0  0  0  0  0  0  0  0
    8.9945   -4.7328   27.2860 C   0  0  0  0  0  0  0  0  0  0  0  0
    7.9535   -3.8525   27.0803 C   0  0  0  0  0  0  0  0  0  0  0  0
    7.9942   -2.4996   26.4330 C   0  0  0  0  0  0  0  0  0  0  0  0
    9.1919   -2.2907   25.6163 N   0  0  0  0  0  0  0  0  0  0  0  0
    9.0083   -2.8619   24.2882 C   0  0  0  0  0  0  0  0  0  0  0  0
   10.2592   -2.6843   23.4483 C   0  0  0  0  0  0  0  0  0  0  0  0
   10.5599   -1.2421   23.3634 N   0  0  0  0  0  0  0  0  0  0  0  0
   10.7511   -0.6463   24.6992 C   0  0  0  0  0  0  0  0  0  0  0  0
    9.4877   -0.8687   25.5024 C   0  0  0  0  0  0  0  0  0  0  0  0
   11.5669   -0.7463   22.1811 S   0  0  0  0  0  0  0  0  0  0  0  0
   10.8671   -0.9246   20.9469 O   0  0  0  0  0  0  0  0  0  0  0  0
   12.8129   -1.4130   22.4002 O   0  0  0  0  0  0  0  0  0  0  0  0
   11.8272    0.9954   22.4166 C   0  0  0  0  0  0  0  0  0  0  0  0
   13.1233    1.4179   22.5307 C   0  0  0  0  0  0  0  0  0  0  0  0
   13.4101    2.7604   22.7148 C   0  0  0  0  0  0  0  0  0  0  0  0
   12.4138    3.6883   22.7854 C   0  0  0  0  0  0  0  0  0  0  0  0
   11.0577    3.2987   22.6712 C   0  0  0  0  0  0  0  0  0  0  0  0
    9.9961    4.2280   22.7382 C   0  0  0  0  0  0  0  0  0  0  0  0
    8.6890    3.8413   22.6261 C   0  0  0  0  0  0  0  0  0  0  0  0
    7.5805    4.8662   22.6988 C   0  0  0  0  0  0  0  0  0  0  0  0
    6.7010    4.6859   23.8630 N   0  0  0  0  0  0  0  0  0  0  0  0
    5.7142    5.7565   23.9260 C   0  0  0  0  0  0  0  0  0  0  0  0
    4.7775    5.5566   25.1028 C   0  0  0  0  0  0  0  0  0  0  0  0
    5.5856    5.5130   26.3365 N   0  0  0  0  0  0  0  0  0  0  0  0
    6.5895    4.4332   26.2921 C   0  0  0  0  0  0  0  0  0  0  0  0
    7.4826    4.6658   25.0924 C   0  0  0  0  0  0  0  0  0  0  0  0
    4.8196    5.7497   27.7494 S   0  0  0  0  0  0  0  0  0  0  0  0
    5.1216    4.6340   28.5956 O   0  0  0  0  0  0  0  0  0  0  0  0
    3.4558    6.0968   27.4819 O   0  0  0  0  0  0  0  0  0  0  0  0
    5.5176    7.1461   28.5631 C   0  0  0  0  0  0  0  0  0  0  0  0
    5.3623    8.4638   27.8283 C   0  0  0  0  0  0  0  0  0  0  0  0
    6.4265    9.3842   28.3993 C   0  0  0  0  0  0  0  0  0  0  0  0
    7.7304    8.6050   28.3910 C   0  0  0  0  0  0  0  0  0  0  0  0
    8.9042    9.2379   29.5701 Cl  0  0  0  0  0  0  0  0  0  0  0  0
    7.2992    6.8924   28.7999 S   0  0  0  0  0  0  0  0  0  0  0  0
    8.3821    2.4856   22.4394 C   0  0  0  0  0  0  0  0  0  0  0  0
    6.9498    2.0147   22.3174 C   0  0  0  0  0  0  0  0  0  0  0  0
    6.6257    1.4936   20.9195 C   0  0  0  0  0  0  0  0  0  0  0  0
    5.1747    1.6679   20.5598 C   0  0  0  0  0  0  0  0  0  0  0  0
    4.6902    2.1783   19.3297 C   0  0  0  0  0  0  0  0  0  0  0  0
    3.3335    2.2512   19.2359 C   0  0  0  0  0  0  0  0  0  0  0  0
    2.6305    1.6874   20.6746 S   0  0  0  0  0  0  0  0  0  0  0  0
    4.1384    1.3631   21.3900 C   0  0  0  0  0  0  0  0  0  0  0  0
    9.3803    1.5524   22.3691 C   0  0  0  0  0  0  0  0  0  0  0  0
   10.7424    1.9243   22.4819 C   0  0  0  0  0  0  0  0  0  0  0  0
    6.4865   -4.5246   27.6967 S   0  0  0  0  0  0  0  0  0  0  0  0
  1  2  1  0
  2  3  1  0
  3  4  2  0
  3  5  1  0
  5  6  1  0
  6  7  1  0
  7  8  1  0
  8  9  1  0
  9 10  1  0
  8 11  1  0
 11 12  2  0
 11 13  2  0
 11 14  1  0
 14 15  2  0
 15 16  1  0
 16 17  2  0
 17 18  1  0
 18 19  1  0
 19 20  1  0
 20 21  1  0
 21 22  1  0
 22 23  1  0
 23 24  1  0
 22 25  1  0
 25 26  2  0
 25 27  2  0
 25 28  1  0
 28 29  2  0
 29 30  1  0
 30 31  2  0
 31 32  1  0
 32 33  2  0
 33 34  1  0
 34 35  1  0
 35 36  1  0
 36 37  1  0
 37 38  1  0
 38 39  1  0
 39 40  1  0
 40 41  1  0
 39 42  1  0
 42 43  2  0
 42 44  2  0
 42 45  1  0
 45 46  1  0
 46 47  1  0
 47 48  1  0
 48 49  1  0
 48 50  1  0
 34 51  2  0
 51 52  1  0
 52 53  1  0
 53 54  1  0
 54 55  1  0
 55 56  2  0
 56 57  1  0
 57 58  1  0
 51 59  1  0
 59 60  2  0
 17 61  1  0
 10  5  1  0
 61 14  1  0
 24 19  1  0
 60 28  1  0
 60 32  1  0
 41 36  1  0
 50 45  1  0
 58 54  2  0
M  END
