CVD-0003383|dock_bobby27042020.31|mol2|9|dock1
     RDKit          3D

 20 22  0  0  0  0  0  0  0  0999 V2000
   14.7830   -2.0238   25.5661 C   0  0  0  0  0  0  0  0  0  0  0  0
   13.9251   -1.2479   24.6721 N   0  0  0  0  0  0  0  0  0  0  0  0
   12.6997   -0.8388   25.3647 C   0  0  0  0  0  0  0  0  0  0  0  0
   11.8322    0.0007   24.4454 C   0  0  0  0  0  0  0  0  0  0  0  0
   11.5011   -0.7471   23.2305 N   0  0  0  0  0  0  0  0  0  0  0  0
   12.7070   -1.2226   22.5452 C   0  0  0  0  0  0  0  0  0  0  0  0
   13.5672   -2.0357   23.4954 C   0  0  0  0  0  0  0  0  0  0  0  0
   10.2341   -0.9314   22.8078 C   0  0  0  0  0  0  0  0  0  0  0  0
    9.2753   -0.4695   23.4136 O   0  0  0  0  0  0  0  0  0  0  0  0
   10.0345   -1.7372   21.5367 C   0  0  0  0  0  0  0  0  0  0  0  0
    8.5945   -1.9885   21.1970 C   0  0  0  0  0  0  0  0  0  0  0  0
    7.7386   -1.2312   20.4260 C   0  0  0  0  0  0  0  0  0  0  0  0
    8.0403    0.2411   19.6055 Cl  0  0  0  0  0  0  0  0  0  0  0  0
    6.5127   -1.7989   20.3590 N   0  0  0  0  0  0  0  0  0  0  0  0
    6.5323   -2.9536   21.0908 C   0  0  0  0  0  0  0  0  0  0  0  0
    5.5098   -3.8058   21.2727 N   0  0  0  0  0  0  0  0  0  0  0  0
    5.7655   -4.8784   22.0346 C   0  0  0  0  0  0  0  0  0  0  0  0
    6.9887   -5.1336   22.6175 C   0  0  0  0  0  0  0  0  0  0  0  0
    8.0317   -4.2423   22.4180 C   0  0  0  0  0  0  0  0  0  0  0  0
    7.8173   -3.1110   21.6335 C   0  0  0  0  0  0  0  0  0  0  0  0
  1  2  1  0
  2  3  1  0
  3  4  1  0
  4  5  1  0
  5  6  1  0
  6  7  1  0
  5  8  1  0
  8  9  2  0
  8 10  1  0
 10 11  1  0
 11 12  2  0
 12 13  1  0
 12 14  1  0
 14 15  1  0
 15 16  2  0
 16 17  1  0
 17 18  2  0
 18 19  1  0
 19 20  2  0
  7  2  1  0
 20 11  1  0
 20 15  1  0
M  END
