CVD-0001405|dock_bobby27042020.67|mol2|15|dock2
     RDKit          3D

 18 19  0  0  0  0  0  0  0  0999 V2000
    5.7259    0.2329   18.0806 Cl  0  0  0  0  0  0  0  0  0  0  0  0
    7.1560   -0.3805   18.9208 C   0  0  0  0  0  0  0  0  0  0  0  0
    7.6317    0.5465   20.0176 C   0  0  0  0  0  0  0  0  0  0  0  0
    6.9345    1.4868   20.3834 O   0  0  0  0  0  0  0  0  0  0  0  0
    8.8554    0.2260   20.5046 N   0  0  0  0  0  0  0  0  0  0  0  0
    9.6533    0.8269   21.5101 C   0  0  0  0  0  0  0  0  0  0  0  0
    9.4788    2.1434   21.9287 C   0  0  0  0  0  0  0  0  0  0  0  0
   10.2928    2.6704   22.9162 C   0  0  0  0  0  0  0  0  0  0  0  0
   11.2832    1.8972   23.4943 C   0  0  0  0  0  0  0  0  0  0  0  0
   11.4639    0.5851   23.0841 C   0  0  0  0  0  0  0  0  0  0  0  0
   10.6500    0.0485   22.0916 C   0  0  0  0  0  0  0  0  0  0  0  0
   12.5006   -0.2148   23.6943 N   0  0  0  0  0  0  0  0  0  0  0  0
   12.6284   -0.5349   25.1311 C   0  0  0  0  0  0  0  0  0  0  0  0
   12.9698   -2.0278   25.1526 C   0  0  0  0  0  0  0  0  0  0  0  0
   14.0518   -2.2247   24.1008 C   0  0  0  0  0  0  0  0  0  0  0  0
   13.6725   -1.0156   22.8365 S   0  0  0  0  0  0  0  0  0  0  0  0
   14.7963   -0.1663   22.5992 O   0  0  0  0  0  0  0  0  0  0  0  0
   13.0781   -1.6532   21.7049 O   0  0  0  0  0  0  0  0  0  0  0  0
  1  2  1  0
  2  3  1  0
  3  4  2  0
  3  5  1  0
  5  6  1  0
  6  7  2  0
  7  8  1  0
  8  9  2  0
  9 10  1  0
 10 11  2  0
 10 12  1  0
 12 13  1  0
 13 14  1  0
 14 15  1  0
 15 16  1  0
 16 17  2  0
 16 18  2  0
 11  6  1  0
 16 12  1  0
M  END
