CVD-0003687|dock_bobby27042020.1|mol2|17|dock1
     RDKit          3D

 27 29  0  0  0  0  0  0  0  0999 V2000
   12.7603   -2.3439   23.0567 C   0  0  0  0  0  0  0  0  0  0  0  0
   12.4754   -0.9127   22.6541 C   0  0  0  0  0  0  0  0  0  0  0  0
   13.1129   -0.7051   21.4216 O   0  0  0  0  0  0  0  0  0  0  0  0
   13.1346    0.0897   23.6158 C   0  0  0  0  0  0  0  0  0  0  0  0
   13.3063    1.5391   23.1663 C   0  0  0  0  0  0  0  0  0  0  0  0
   12.0530    2.3380   22.8188 C   0  0  0  0  0  0  0  0  0  0  0  0
   12.2665    3.7888   22.3719 C   0  0  0  0  0  0  0  0  0  0  0  0
   13.1933    3.9522   21.2641 N   0  0  0  0  0  0  0  0  0  0  0  0
   14.1229    4.8895   21.5027 C   0  0  0  0  0  0  0  0  0  0  0  0
   14.9783    5.2942   20.7198 O   0  0  0  0  0  0  0  0  0  0  0  0
   13.9459    5.3346   22.7980 N   0  0  0  0  0  0  0  0  0  0  0  0
   12.9045    4.7039   23.4117 C   0  0  0  0  0  0  0  0  0  0  0  0
   12.5218    4.9001   24.5621 O   0  0  0  0  0  0  0  0  0  0  0  0
   11.0429   -0.6716   22.5381 N   0  0  0  0  0  0  0  0  0  0  0  0
   10.4285   -1.0976   21.2887 C   0  0  0  0  0  0  0  0  0  0  0  0
    8.9967   -0.6116   21.2234 C   0  0  0  0  0  0  0  0  0  0  0  0
    8.2053   -1.1574   22.3362 N   0  0  0  0  0  0  0  0  0  0  0  0
    6.8250   -0.6583   22.2494 C   0  0  0  0  0  0  0  0  0  0  0  0
    6.2891   -0.6106   20.8383 C   0  0  0  0  0  0  0  0  0  0  0  0
    5.9989   -1.7790   20.1509 C   0  0  0  0  0  0  0  0  0  0  0  0
    5.5048   -1.7374   18.8576 C   0  0  0  0  0  0  0  0  0  0  0  0
    5.2924   -0.5211   18.2308 C   0  0  0  0  0  0  0  0  0  0  0  0
    5.5848    0.6189   18.9282 C   0  0  0  0  0  0  0  0  0  0  0  0
    5.3807    1.8212   18.3253 F   0  0  0  0  0  0  0  0  0  0  0  0
    6.0753    0.6099   20.2107 C   0  0  0  0  0  0  0  0  0  0  0  0
    8.8389   -0.7624   23.5998 C   0  0  0  0  0  0  0  0  0  0  0  0
   10.2756   -1.2315   23.6500 C   0  0  0  0  0  0  0  0  0  0  0  0
  1  2  1  0
  2  3  1  0
  2  4  1  0
  4  5  1  0
  5  6  1  0
  6  7  1  0
  7  8  1  0
  8  9  1  0
  9 10  2  0
  9 11  1  0
 11 12  1  0
 12 13  2  0
  2 14  1  0
 14 15  1  0
 15 16  1  0
 16 17  1  0
 17 18  1  0
 18 19  1  0
 19 20  2  0
 20 21  1  0
 21 22  2  0
 22 23  1  0
 23 24  1  0
 23 25  2  0
 17 26  1  0
 26 27  1  0
 12  7  1  0
 27 14  1  0
 25 19  1  0
M  END
