CVD-0001288|dock_bobby27042020.53|mol2|13|dock3
     RDKit          3D

 19 20  0  0  0  0  0  0  0  0999 V2000
   10.6231   -1.1518   23.5138 O   0  0  0  0  0  0  0  0  0  0  0  0
   11.0483   -1.3695   22.3835 C   0  0  0  0  0  0  0  0  0  0  0  0
   12.4861   -1.0683   22.0165 C   0  0  0  0  0  0  0  0  0  0  0  0
   13.1458    0.0377   22.8206 C   0  0  0  0  0  0  0  0  0  0  0  0
   14.0938   -0.2033   23.5574 O   0  0  0  0  0  0  0  0  0  0  0  0
   12.6498    1.2833   22.6796 N   0  0  0  0  0  0  0  0  0  0  0  0
   13.2206    2.4498   23.3631 C   0  0  0  0  0  0  0  0  0  0  0  0
   12.1128    3.2795   23.9796 C   0  0  0  0  0  0  0  0  0  0  0  0
   11.1474    3.6659   23.0224 O   0  0  0  0  0  0  0  0  0  0  0  0
   10.5566    2.5110   22.4257 C   0  0  0  0  0  0  0  0  0  0  0  0
   11.5962    1.6592   21.7318 C   0  0  0  0  0  0  0  0  0  0  0  0
   10.2930   -1.8808   21.4153 N   0  0  0  0  0  0  0  0  0  0  0  0
    8.8937   -2.2252   21.6198 C   0  0  0  0  0  0  0  0  0  0  0  0
    8.0266   -1.9386   20.4178 C   0  0  0  0  0  0  0  0  0  0  0  0
    8.2875   -0.8511   19.5985 C   0  0  0  0  0  0  0  0  0  0  0  0
    7.4941   -0.5898   18.4938 C   0  0  0  0  0  0  0  0  0  0  0  0
    6.4307   -1.4139   18.1949 C   0  0  0  0  0  0  0  0  0  0  0  0
    6.1610   -2.4994   19.0003 C   0  0  0  0  0  0  0  0  0  0  0  0
    6.9547   -2.7602   20.1048 C   0  0  0  0  0  0  0  0  0  0  0  0
  1  2  2  0
  2  3  1  0
  3  4  1  0
  4  5  2  0
  4  6  1  0
  6  7  1  0
  7  8  1  0
  8  9  1  0
  9 10  1  0
 10 11  1  0
  2 12  1  0
 12 13  1  0
 13 14  1  0
 14 15  2  0
 15 16  1  0
 16 17  2  0
 17 18  1  0
 18 19  2  0
 11  6  1  0
 19 14  1  0
M  END
