CVD-0003986|dock_bobby27042020.29|mol2|11|dock1
     RDKit          3D

 23 24  0  0  0  0  0  0  0  0999 V2000
   14.1646    4.5209   22.9324 O   0  0  0  0  0  0  0  0  0  0  0  0
   12.8457    4.3500   22.9586 C   0  0  0  0  0  0  0  0  0  0  0  0
   12.2957    3.2234   22.5218 C   0  0  0  0  0  0  0  0  0  0  0  0
   10.5685    2.9863   22.5430 S   0  0  0  0  0  0  0  0  0  0  0  0
    9.9954    4.0621   23.3088 O   0  0  0  0  0  0  0  0  0  0  0  0
   10.1498    2.7555   21.1861 O   0  0  0  0  0  0  0  0  0  0  0  0
   10.3773    1.5035   23.4595 C   0  0  0  0  0  0  0  0  0  0  0  0
    9.5860    1.6264   24.3660 O   0  0  0  0  0  0  0  0  0  0  0  0
   11.1315    0.2571   23.1818 C   0  0  0  0  0  0  0  0  0  0  0  0
   10.7457   -0.6280   22.2332 C   0  0  0  0  0  0  0  0  0  0  0  0
   11.5057   -1.7769   21.9977 C   0  0  0  0  0  0  0  0  0  0  0  0
   12.7149   -1.9712   22.6560 C   0  0  0  0  0  0  0  0  0  0  0  0
   13.1331   -1.0787   23.5936 C   0  0  0  0  0  0  0  0  0  0  0  0
   12.3387    0.1129   24.0722 C   0  0  0  0  0  0  0  0  0  0  0  0
    9.5285   -0.5059   21.4001 C   0  0  0  0  0  0  0  0  0  0  0  0
    9.0277    0.5827   21.1564 O   0  0  0  0  0  0  0  0  0  0  0  0
    8.8519   -1.7473   20.8348 C   0  0  0  0  0  0  0  0  0  0  0  0
    7.7205   -1.4316   19.8917 C   0  0  0  0  0  0  0  0  0  0  0  0
    6.4217   -1.1282   20.1586 C   0  0  0  0  0  0  0  0  0  0  0  0
    5.7973   -0.9310   18.9322 C   0  0  0  0  0  0  0  0  0  0  0  0
    6.6412   -1.1007   17.9156 N   0  0  0  0  0  0  0  0  0  0  0  0
    7.8689   -1.4182   18.4284 C   0  0  0  0  0  0  0  0  0  0  0  0
    8.8757   -1.6411   17.7519 O   0  0  0  0  0  0  0  0  0  0  0  0
  1  2  1  0
  2  3  2  0
  3  4  1  0
  4  5  2  0
  4  6  2  0
  4  7  1  0
  7  8  2  0
  7  9  1  0
  9 10  2  0
 10 11  1  0
 11 12  1  0
 12 13  2  0
 13 14  1  0
 10 15  1  0
 15 16  2  0
 15 17  1  0
 17 18  1  0
 18 19  2  0
 19 20  1  0
 20 21  2  0
 21 22  1  0
 22 23  2  0
 14  9  1  0
 22 18  1  0
M  END
