CVD-0000507|dock_bobby27042020.98|mol2|20|dock1
     RDKit          3D

 37 39  0  0  0  0  0  0  0  0999 V2000
   13.8964    3.5832   22.8926 C   0  0  0  0  0  0  0  0  0  0  0  0
   13.3024    2.2768   22.4765 C   0  0  0  0  0  0  0  0  0  0  0  0
   14.0298    1.1816   22.4943 N   0  0  0  0  0  0  0  0  0  0  0  0
   13.2156    0.1736   22.0666 N   0  0  0  0  0  0  0  0  0  0  0  0
   13.8201   -1.1510   22.0059 C   0  0  0  0  0  0  0  0  0  0  0  0
   11.9758    0.6360   21.7801 C   0  0  0  0  0  0  0  0  0  0  0  0
   10.8498   -0.0656   21.3151 N   0  0  0  0  0  0  0  0  0  0  0  0
    9.5025   -0.0394   21.6935 C   0  0  0  0  0  0  0  0  0  0  0  0
    9.0481    0.6729   22.5808 O   0  0  0  0  0  0  0  0  0  0  0  0
    8.7055   -0.8777   20.9953 N   0  0  0  0  0  0  0  0  0  0  0  0
    7.2751   -0.9273   21.2511 C   0  0  0  0  0  0  0  0  0  0  0  0
    6.5095   -1.2475   19.9576 C   0  0  0  0  0  0  0  0  0  0  0  0
    5.7312   -0.0764   19.4075 C   0  0  0  0  0  0  0  0  0  0  0  0
    4.5675    0.3557   20.0247 C   0  0  0  0  0  0  0  0  0  0  0  0
    3.8466    1.4253   19.5244 C   0  0  0  0  0  0  0  0  0  0  0  0
    4.2865    2.0820   18.3864 C   0  0  0  0  0  0  0  0  0  0  0  0
    3.5807    3.1379   17.8878 O   0  0  0  0  0  0  0  0  0  0  0  0
    5.4469    1.6606   17.7575 C   0  0  0  0  0  0  0  0  0  0  0  0
    6.1578    0.5894   18.2690 C   0  0  0  0  0  0  0  0  0  0  0  0
    6.9515   -1.9704   22.3168 C   0  0  0  0  0  0  0  0  0  0  0  0
    6.3263   -1.6553   23.3259 O   0  0  0  0  0  0  0  0  0  0  0  0
    7.3811   -3.2145   22.0869 N   0  0  0  0  0  0  0  0  0  0  0  0
    7.1798   -4.3150   23.0261 C   0  0  0  0  0  0  0  0  0  0  0  0
    6.7471   -5.5687   22.2594 C   0  0  0  0  0  0  0  0  0  0  0  0
    5.8619   -6.4682   23.0065 N   0  0  0  0  0  0  0  0  0  0  0  0
    4.2833   -5.8120   23.0875 S   0  0  0  0  0  0  0  0  0  0  0  0
    3.3274   -6.7098   22.2992 N   0  0  0  0  0  0  0  0  0  0  0  0
    3.8523   -5.8238   24.5017 O   0  0  0  0  0  0  0  0  0  0  0  0
    4.3014   -4.4860   22.4339 O   0  0  0  0  0  0  0  0  0  0  0  0
    8.4343   -4.5859   23.8329 C   0  0  0  0  0  0  0  0  0  0  0  0
    8.4235   -5.5023   24.8751 C   0  0  0  0  0  0  0  0  0  0  0  0
    9.5705   -5.7510   25.6103 C   0  0  0  0  0  0  0  0  0  0  0  0
   10.7414   -5.0874   25.3124 C   0  0  0  0  0  0  0  0  0  0  0  0
   10.7666   -4.1751   24.2793 C   0  0  0  0  0  0  0  0  0  0  0  0
    9.6202   -3.9257   23.5434 C   0  0  0  0  0  0  0  0  0  0  0  0
   12.0082    1.9899   22.0368 C   0  0  0  0  0  0  0  0  0  0  0  0
   10.7318    3.1331   21.8634 Cl  0  0  0  0  0  0  0  0  0  0  0  0
  1  2  1  0
  2  3  2  0
  3  4  1  0
  4  5  1  0
  4  6  1  0
  6  7  1  0
  7  8  1  0
  8  9  2  0
  8 10  1  0
 10 11  1  0
 11 12  1  0
 12 13  1  0
 13 14  2  0
 14 15  1  0
 15 16  2  0
 16 17  1  0
 16 18  1  0
 18 19  2  0
 11 20  1  0
 20 21  2  0
 20 22  1  0
 22 23  1  0
 23 24  1  0
 24 25  1  0
 25 26  1  0
 26 27  1  0
 26 28  2  0
 26 29  2  0
 23 30  1  0
 30 31  2  0
 31 32  1  0
 32 33  2  0
 33 34  1  0
 34 35  2  0
  6 36  2  0
 36 37  1  0
 36  2  1  0
 19 13  1  0
 35 30  1  0
M  END
