CVD-0003630|dock_bobby27042020.59|mol2|14|dock3
     RDKit          3D

 17 18  0  0  0  0  0  0  0  0999 V2000
   12.6984   -1.6625   21.7652 C   0  0  0  0  0  0  0  0  0  0  0  0
   12.5203   -0.2212   22.1683 C   0  0  0  0  0  0  0  0  0  0  0  0
   13.4886    0.3659   22.9773 C   0  0  0  0  0  0  0  0  0  0  0  0
   13.3545    1.6817   23.3594 C   0  0  0  0  0  0  0  0  0  0  0  0
   12.3287    2.4435   22.9911 N   0  0  0  0  0  0  0  0  0  0  0  0
   11.3929    1.8914   22.2126 C   0  0  0  0  0  0  0  0  0  0  0  0
   11.4266    0.5699   21.7663 C   0  0  0  0  0  0  0  0  0  0  0  0
   10.4318   -0.0206   20.9375 N   0  0  0  0  0  0  0  0  0  0  0  0
    9.1165    0.2772   20.7957 C   0  0  0  0  0  0  0  0  0  0  0  0
    8.5091    1.1609   21.3906 O   0  0  0  0  0  0  0  0  0  0  0  0
    8.4033   -0.6155   19.7998 C   0  0  0  0  0  0  0  0  0  0  0  0
    7.0507   -0.0689   19.4024 C   0  0  0  0  0  0  0  0  0  0  0  0
    5.9388   -0.2788   20.2032 C   0  0  0  0  0  0  0  0  0  0  0  0
    4.6991    0.2189   19.8378 C   0  0  0  0  0  0  0  0  0  0  0  0
    4.5573    0.9317   18.6667 C   0  0  0  0  0  0  0  0  0  0  0  0
    5.6547    1.1464   17.8608 C   0  0  0  0  0  0  0  0  0  0  0  0
    6.8941    0.6484   18.2266 C   0  0  0  0  0  0  0  0  0  0  0  0
  1  2  1  0
  2  3  2  0
  3  4  1  0
  4  5  2  0
  5  6  1  0
  6  7  2  0
  7  8  1  0
  8  9  1  0
  9 10  2  0
  9 11  1  0
 11 12  1  0
 12 13  2  0
 13 14  1  0
 14 15  2  0
 15 16  1  0
 16 17  2  0
  7  2  1  0
 17 12  1  0
M  END
