CVD-0002851|dock_bobby27042020.32|mol2|45|dock1
     RDKit          3D

 27 29  0  0  0  0  0  0  0  0999 V2000
   13.2185    4.7510   22.4449 C   0  0  0  0  0  0  0  0  0  0  0  0
   12.2090    3.6776   22.1617 C   0  0  0  0  0  0  0  0  0  0  0  0
   11.8902    3.3718   21.0169 O   0  0  0  0  0  0  0  0  0  0  0  0
   11.6658    3.0862   23.2274 N   0  0  0  0  0  0  0  0  0  0  0  0
   10.6605    2.0408   23.1045 C   0  0  0  0  0  0  0  0  0  0  0  0
   11.1152    0.7076   23.6450 C   0  0  0  0  0  0  0  0  0  0  0  0
   12.4802    0.4613   23.7903 C   0  0  0  0  0  0  0  0  0  0  0  0
   12.9101   -0.7577   24.2804 C   0  0  0  0  0  0  0  0  0  0  0  0
   14.1846   -1.2060   24.5336 O   0  0  0  0  0  0  0  0  0  0  0  0
   14.0520   -2.5858   24.8608 C   0  0  0  0  0  0  0  0  0  0  0  0
   12.6665   -2.8355   25.1151 O   0  0  0  0  0  0  0  0  0  0  0  0
   11.9982   -1.7359   24.6282 C   0  0  0  0  0  0  0  0  0  0  0  0
   10.6412   -1.5113   24.4916 C   0  0  0  0  0  0  0  0  0  0  0  0
   10.1897   -0.2875   23.9989 C   0  0  0  0  0  0  0  0  0  0  0  0
    8.6987   -0.0736   23.8548 C   0  0  0  0  0  0  0  0  0  0  0  0
    7.9306   -1.3169   23.4231 C   0  0  0  0  0  0  0  0  0  0  0  0
    8.4706   -1.9692   22.1575 C   0  0  0  0  0  0  0  0  0  0  0  0
    8.4441   -1.0663   20.9478 C   0  0  0  0  0  0  0  0  0  0  0  0
    9.4844   -0.6646   20.4380 O   0  0  0  0  0  0  0  0  0  0  0  0
    7.1882   -0.7733   20.5291 N   0  0  0  0  0  0  0  0  0  0  0  0
    6.7419    0.0342   19.4455 C   0  0  0  0  0  0  0  0  0  0  0  0
    7.3919    0.1245   18.2141 C   0  0  0  0  0  0  0  0  0  0  0  0
    6.9709    0.8846   17.1984 N   0  0  0  0  0  0  0  0  0  0  0  0
    5.8627    1.5974   17.3778 C   0  0  0  0  0  0  0  0  0  0  0  0
    5.1420    1.5835   18.5509 C   0  0  0  0  0  0  0  0  0  0  0  0
    5.5693    0.7956   19.6154 C   0  0  0  0  0  0  0  0  0  0  0  0
    4.7597    0.8057   20.8867 C   0  0  0  0  0  0  0  0  0  0  0  0
  1  2  1  0
  2  3  2  0
  2  4  1  0
  4  5  1  0
  5  6  1  0
  6  7  2  0
  7  8  1  0
  8  9  1  0
  9 10  1  0
 10 11  1  0
 11 12  1  0
 12 13  1  0
 13 14  2  0
 14 15  1  0
 15 16  1  0
 16 17  1  0
 17 18  1  0
 18 19  2  0
 18 20  1  0
 20 21  1  0
 21 22  2  0
 22 23  1  0
 23 24  2  0
 24 25  1  0
 25 26  2  0
 26 27  1  0
 14  6  1  0
 26 21  1  0
 12  8  2  0
M  END
