CVD-0000295|dock_bobby27042020.99|mol2|9|dock2
     RDKit          3D

 29 32  0  0  0  0  0  0  0  0999 V2000
   14.0949    5.4370   21.6892 C   0  0  0  0  0  0  0  0  0  0  0  0
   12.7083    4.9468   22.0844 C   0  0  0  0  0  0  0  0  0  0  0  0
   12.6758    3.4927   22.1160 N   0  0  0  0  0  0  0  0  0  0  0  0
   11.5759    2.8254   22.4884 C   0  0  0  0  0  0  0  0  0  0  0  0
   10.5570    3.4304   22.8086 O   0  0  0  0  0  0  0  0  0  0  0  0
   11.6053    1.3194   22.5070 C   0  0  0  0  0  0  0  0  0  0  0  0
   12.7358    0.7569   23.1091 C   0  0  0  0  0  0  0  0  0  0  0  0
   12.8932   -0.6141   23.2085 C   0  0  0  0  0  0  0  0  0  0  0  0
   11.9298   -1.4601   22.7130 C   0  0  0  0  0  0  0  0  0  0  0  0
   10.8011   -0.9403   22.1078 C   0  0  0  0  0  0  0  0  0  0  0  0
   10.6312    0.4368   21.9921 C   0  0  0  0  0  0  0  0  0  0  0  0
    9.5322    1.0028   21.3895 O   0  0  0  0  0  0  0  0  0  0  0  0
    8.3767    0.2208   21.0990 C   0  0  0  0  0  0  0  0  0  0  0  0
    7.2709    1.1306   20.6607 C   0  0  0  0  0  0  0  0  0  0  0  0
    6.9102    2.3570   21.2443 C   0  0  0  0  0  0  0  0  0  0  0  0
    7.5315    3.0461   22.4155 C   0  0  0  0  0  0  0  0  0  0  0  0
    5.8982    2.9055   20.6346 N   0  0  0  0  0  0  0  0  0  0  0  0
    5.5544    2.0118   19.5912 O   0  0  0  0  0  0  0  0  0  0  0  0
    6.3966    0.9642   19.6432 C   0  0  0  0  0  0  0  0  0  0  0  0
    6.1891   -0.0937   18.6194 C   0  0  0  0  0  0  0  0  0  0  0  0
   12.3231    5.4504   23.4513 C   0  0  0  0  0  0  0  0  0  0  0  0
   13.0819    5.3712   24.5258 N   0  0  0  0  0  0  0  0  0  0  0  0
   12.3938    5.9387   25.5986 N   0  0  0  0  0  0  0  0  0  0  0  0
   11.2254    6.3483   25.1302 C   0  0  0  0  0  0  0  0  0  0  0  0
   10.2239    6.9569   25.7934 N   0  0  0  0  0  0  0  0  0  0  0  0
    9.1519    7.2644   25.0807 C   0  0  0  0  0  0  0  0  0  0  0  0
    9.0007    7.0016   23.7127 C   0  0  0  0  0  0  0  0  0  0  0  0
   10.0067    6.3924   23.0551 C   0  0  0  0  0  0  0  0  0  0  0  0
   11.1372    6.0593   23.7719 N   0  0  0  0  0  0  0  0  0  0  0  0
  1  2  1  0
  2  3  1  0
  3  4  1  0
  4  5  2  0
  4  6  1  0
  6  7  2  0
  7  8  1  0
  8  9  2  0
  9 10  1  0
 10 11  2  0
 11 12  1  0
 12 13  1  0
 13 14  1  0
 14 15  1  0
 15 16  1  0
 15 17  2  0
 17 18  1  0
 18 19  1  0
 19 20  1  0
  2 21  1  0
 21 22  2  0
 22 23  1  0
 23 24  2  0
 24 25  1  0
 25 26  2  0
 26 27  1  0
 27 28  2  0
 28 29  1  0
 11  6  1  0
 19 14  2  0
 29 21  1  0
 29 24  1  0
M  END
