CVD-0003689|dock_bobby27042020.73|mol2|5|dock2
     RDKit          3D

 26 28  0  0  0  0  0  0  0  0999 V2000
   12.6353    0.1492   22.4160 O   0  0  0  0  0  0  0  0  0  0  0  0
   11.4879    0.2113   23.2641 C   0  0  0  0  0  0  0  0  0  0  0  0
   10.8053    1.5625   23.0963 C   0  0  0  0  0  0  0  0  0  0  0  0
   11.7210    2.7609   22.8684 C   0  0  0  0  0  0  0  0  0  0  0  0
   11.0088    4.1005   22.7244 C   0  0  0  0  0  0  0  0  0  0  0  0
   11.9145    5.2536   22.2824 C   0  0  0  0  0  0  0  0  0  0  0  0
   12.8462    4.9193   21.2178 N   0  0  0  0  0  0  0  0  0  0  0  0
   14.1036    5.2957   21.4953 C   0  0  0  0  0  0  0  0  0  0  0  0
   15.0775    5.2156   20.7512 O   0  0  0  0  0  0  0  0  0  0  0  0
   14.1147    5.8045   22.7791 N   0  0  0  0  0  0  0  0  0  0  0  0
   12.8754    5.7725   23.3467 C   0  0  0  0  0  0  0  0  0  0  0  0
   12.5918    6.1593   24.4771 O   0  0  0  0  0  0  0  0  0  0  0  0
   10.5609   -0.9722   22.9634 C   0  0  0  0  0  0  0  0  0  0  0  0
    9.4062   -1.0279   23.9738 C   0  0  0  0  0  0  0  0  0  0  0  0
    8.4701   -2.1489   23.5205 C   0  0  0  0  0  0  0  0  0  0  0  0
    8.0056   -1.9732   22.1319 N   0  0  0  0  0  0  0  0  0  0  0  0
    7.1420   -0.7910   21.9931 C   0  0  0  0  0  0  0  0  0  0  0  0
    6.4928   -0.6757   20.6346 C   0  0  0  0  0  0  0  0  0  0  0  0
    6.0698   -1.8067   19.9535 C   0  0  0  0  0  0  0  0  0  0  0  0
    5.4769   -1.7034   18.7060 C   0  0  0  0  0  0  0  0  0  0  0  0
    5.2987   -0.4621   18.1189 C   0  0  0  0  0  0  0  0  0  0  0  0
    5.7247    0.6400   18.8084 C   0  0  0  0  0  0  0  0  0  0  0  0
    5.5567    1.8663   18.2440 F   0  0  0  0  0  0  0  0  0  0  0  0
    6.3156    0.5697   20.0459 C   0  0  0  0  0  0  0  0  0  0  0  0
    9.1647   -1.9093   21.2029 C   0  0  0  0  0  0  0  0  0  0  0  0
   10.1291   -0.8799   21.5675 N   0  0  0  0  0  0  0  0  0  0  0  0
  1  2  1  0
  2  3  1  0
  3  4  1  0
  4  5  1  0
  5  6  1  0
  6  7  1  0
  7  8  1  0
  8  9  2  0
  8 10  1  0
 10 11  1  0
 11 12  2  0
  2 13  1  0
 13 14  1  0
 14 15  1  0
 15 16  1  0
 16 17  1  0
 17 18  1  0
 18 19  2  0
 19 20  1  0
 20 21  2  0
 21 22  1  0
 22 23  1  0
 22 24  2  0
 16 25  1  0
 25 26  1  0
 11  6  1  0
 26 13  1  0
 24 18  1  0
M  END
