CVD-0002459|dock_bobby27042020.48|mol2|28|dock2
     RDKit          3D

 24 26  0  0  0  0  0  0  0  0999 V2000
    6.8724   -7.5334   29.7426 C   0  0  0  0  0  0  0  0  0  0  0  0
    6.5390   -6.9635   28.3854 C   0  0  0  0  0  0  0  0  0  0  0  0
    7.3744   -6.0438   27.7720 C   0  0  0  0  0  0  0  0  0  0  0  0
    7.0802   -5.5180   26.5264 C   0  0  0  0  0  0  0  0  0  0  0  0
    5.9286   -5.9182   25.8682 C   0  0  0  0  0  0  0  0  0  0  0  0
    5.6022   -5.4180   24.6323 O   0  0  0  0  0  0  0  0  0  0  0  0
    6.6216   -5.0214   23.7188 C   0  0  0  0  0  0  0  0  0  0  0  0
    6.9978   -3.5691   23.9384 C   0  0  0  0  0  0  0  0  0  0  0  0
    6.4961   -2.8944   24.8288 O   0  0  0  0  0  0  0  0  0  0  0  0
    7.9998   -2.9336   23.0552 C   0  0  0  0  0  0  0  0  0  0  0  0
    8.4819   -3.2954   21.8303 C   0  0  0  0  0  0  0  0  0  0  0  0
    9.3892   -2.3518   21.4714 N   0  0  0  0  0  0  0  0  0  0  0  0
    9.4430   -1.4465   22.4633 C   0  0  0  0  0  0  0  0  0  0  0  0
   10.3328   -0.2512   22.4429 C   0  0  0  0  0  0  0  0  0  0  0  0
   11.6486   -0.5277   23.0234 N   0  0  0  0  0  0  0  0  0  0  0  0
   12.2571   -1.7085   22.3987 C   0  0  0  0  0  0  0  0  0  0  0  0
   13.6440   -1.9830   22.9458 C   0  0  0  0  0  0  0  0  0  0  0  0
   13.6571   -2.1472   24.4608 C   0  0  0  0  0  0  0  0  0  0  0  0
   14.9681   -2.2800   25.0168 O   0  0  0  0  0  0  0  0  0  0  0  0
   12.9304   -0.9583   25.0799 C   0  0  0  0  0  0  0  0  0  0  0  0
   11.5556   -0.7396   24.4704 C   0  0  0  0  0  0  0  0  0  0  0  0
    8.6132   -1.7618   23.4517 N   0  0  0  0  0  0  0  0  0  0  0  0
    5.0805   -6.8343   26.4654 C   0  0  0  0  0  0  0  0  0  0  0  0
    5.3909   -7.3480   27.7119 C   0  0  0  0  0  0  0  0  0  0  0  0
  1  2  1  0
  2  3  2  0
  3  4  1  0
  4  5  2  0
  5  6  1  0
  6  7  1  0
  7  8  1  0
  8  9  2  0
  8 10  1  0
 10 11  2  0
 11 12  1  0
 12 13  1  0
 13 14  1  0
 14 15  1  0
 15 16  1  0
 16 17  1  0
 17 18  1  0
 18 19  1  0
 18 20  1  0
 20 21  1  0
 13 22  2  0
  5 23  1  0
 23 24  2  0
 24  2  1  0
 22 10  1  0
 21 15  1  0
M  END
