CVD-0003097|dock_bobby27042020.61|mol2|3|dock3
     RDKit          3D

 22 23  0  0  0  0  0  0  0  0999 V2000
    7.1251   -3.9569   22.0265 C   0  0  0  0  0  0  0  0  0  0  0  0
    6.4287   -3.3121   20.8643 C   0  0  0  0  0  0  0  0  0  0  0  0
    5.5982   -3.9302   20.2073 O   0  0  0  0  0  0  0  0  0  0  0  0
    6.7993   -2.0225   20.6508 N   0  0  0  0  0  0  0  0  0  0  0  0
    6.3704   -1.0763   19.6794 C   0  0  0  0  0  0  0  0  0  0  0  0
    6.0674   -1.3977   18.3569 C   0  0  0  0  0  0  0  0  0  0  0  0
    5.6642   -0.5053   17.4468 N   0  0  0  0  0  0  0  0  0  0  0  0
    5.5486    0.7632   17.8313 C   0  0  0  0  0  0  0  0  0  0  0  0
    5.8220    1.1929   19.1111 C   0  0  0  0  0  0  0  0  0  0  0  0
    6.2399    0.2701   20.0638 C   0  0  0  0  0  0  0  0  0  0  0  0
    6.5318    0.7876   21.4562 C   0  0  0  0  0  0  0  0  0  0  0  0
    7.9382    1.3437   21.5881 C   0  0  0  0  0  0  0  0  0  0  0  0
    8.9465    0.3661   21.2040 N   0  0  0  0  0  0  0  0  0  0  0  0
    9.8924   -0.0542   22.0671 C   0  0  0  0  0  0  0  0  0  0  0  0
    9.9569    0.3617   23.2210 O   0  0  0  0  0  0  0  0  0  0  0  0
   10.7647   -0.9632   21.5792 N   0  0  0  0  0  0  0  0  0  0  0  0
   11.9037   -1.4624   22.3499 C   0  0  0  0  0  0  0  0  0  0  0  0
   11.4370   -2.1766   23.6348 C   0  0  0  0  0  0  0  0  0  0  0  0
   12.6062   -2.6463   24.4983 C   0  0  0  0  0  0  0  0  0  0  0  0
   13.5569   -1.4992   24.8158 C   0  0  0  0  0  0  0  0  0  0  0  0
   14.0397   -0.8179   23.5433 C   0  0  0  0  0  0  0  0  0  0  0  0
   12.8669   -0.3173   22.7064 C   0  0  0  0  0  0  0  0  0  0  0  0
  1  2  1  0
  2  3  2  0
  2  4  1  0
  4  5  1  0
  5  6  2  0
  6  7  1  0
  7  8  2  0
  8  9  1  0
  9 10  2  0
 10 11  1  0
 11 12  1  0
 12 13  1  0
 13 14  1  0
 14 15  2  0
 14 16  1  0
 16 17  1  0
 17 18  1  0
 18 19  1  0
 19 20  1  0
 20 21  1  0
 21 22  1  0
 10  5  1  0
 22 17  1  0
M  END
