CVD-0001386|dock_bobby27042020.81|mol2|17|dock3
     RDKit          3D

 12 12  0  0  0  0  0  0  0  0999 V2000
   13.2429    0.2553   23.0095 C   0  0  0  0  0  0  0  0  0  0  0  0
   12.0672    1.1717   22.7925 C   0  0  0  0  0  0  0  0  0  0  0  0
   10.8013    0.6402   22.5658 C   0  0  0  0  0  0  0  0  0  0  0  0
    9.7336    1.4893   22.3655 C   0  0  0  0  0  0  0  0  0  0  0  0
    9.8390    2.8173   22.3747 N   0  0  0  0  0  0  0  0  0  0  0  0
   11.0501    3.3406   22.5898 C   0  0  0  0  0  0  0  0  0  0  0  0
   12.1891    2.5693   22.8025 C   0  0  0  0  0  0  0  0  0  0  0  0
   13.4543    3.1919   23.0261 N   0  0  0  0  0  0  0  0  0  0  0  0
   13.7305    4.7974   23.0622 S   0  0  0  0  0  0  0  0  0  0  0  0
   13.5313    5.3865   21.4247 C   0  0  0  0  0  0  0  0  0  0  0  0
   15.1010    4.9744   23.4313 O   0  0  0  0  0  0  0  0  0  0  0  0
   12.7217    5.3886   23.8862 O   0  0  0  0  0  0  0  0  0  0  0  0
  1  2  1  0
  2  3  2  0
  3  4  1  0
  4  5  2  0
  5  6  1  0
  6  7  2  0
  7  8  1  0
  8  9  1  0
  9 10  1  0
  9 11  2  0
  9 12  2  0
  7  2  1  0
M  END
