CVD-0002469|dock_bobby27042020.5|mol2|31|dock2
     RDKit          3D

 26 28  0  0  0  0  0  0  0  0999 V2000
    5.6040    0.4926   18.1788 C   0  0  0  0  0  0  0  0  0  0  0  0
    5.8122   -0.6746   19.1128 C   0  0  0  0  0  0  0  0  0  0  0  0
    5.9246   -0.4857   20.4810 C   0  0  0  0  0  0  0  0  0  0  0  0
    6.1184   -1.5538   21.3387 C   0  0  0  0  0  0  0  0  0  0  0  0
    6.2062   -2.8485   20.8523 C   0  0  0  0  0  0  0  0  0  0  0  0
    6.4196   -4.0084   21.7803 C   0  0  0  0  0  0  0  0  0  0  0  0
    7.3916   -3.6373   22.7934 O   0  0  0  0  0  0  0  0  0  0  0  0
    8.5825   -3.2386   22.3534 C   0  0  0  0  0  0  0  0  0  0  0  0
    8.8337   -3.0033   21.1862 O   0  0  0  0  0  0  0  0  0  0  0  0
    9.5747   -3.1157   23.4757 C   0  0  0  0  0  0  0  0  0  0  0  0
   10.6932   -2.1478   23.1773 C   0  0  0  0  0  0  0  0  0  0  0  0
   10.1733   -0.8170   23.1840 O   0  0  0  0  0  0  0  0  0  0  0  0
   10.9853    0.2066   22.5935 C   0  0  0  0  0  0  0  0  0  0  0  0
   12.3259    0.4081   23.2896 C   0  0  0  0  0  0  0  0  0  0  0  0
   13.1040    1.5838   22.7323 C   0  0  0  0  0  0  0  0  0  0  0  0
   12.3293    2.8289   22.7946 N   0  0  0  0  0  0  0  0  0  0  0  0
   13.1191    3.9591   22.3003 C   0  0  0  0  0  0  0  0  0  0  0  0
   13.0747    5.1837   23.1802 C   0  0  0  0  0  0  0  0  0  0  0  0
   13.5993    6.4525   22.8306 C   0  0  0  0  0  0  0  0  0  0  0  0
   13.4371    7.4144   23.7813 C   0  0  0  0  0  0  0  0  0  0  0  0
   12.6302    6.7607   25.1248 S   0  0  0  0  0  0  0  0  0  0  0  0
   12.5089    5.2187   24.4187 C   0  0  0  0  0  0  0  0  0  0  0  0
   11.0931    2.6687   22.0241 C   0  0  0  0  0  0  0  0  0  0  0  0
   10.2440    1.5389   22.5825 C   0  0  0  0  0  0  0  0  0  0  0  0
    6.0971   -3.0415   19.4842 C   0  0  0  0  0  0  0  0  0  0  0  0
    5.9033   -1.9704   18.6302 C   0  0  0  0  0  0  0  0  0  0  0  0
  1  2  1  0
  2  3  2  0
  3  4  1  0
  4  5  2  0
  5  6  1  0
  6  7  1  0
  7  8  1  0
  8  9  2  0
  8 10  1  0
 10 11  1  0
 11 12  1  0
 12 13  1  0
 13 14  1  0
 14 15  1  0
 15 16  1  0
 16 17  1  0
 17 18  1  0
 18 19  1  0
 19 20  2  0
 20 21  1  0
 21 22  1  0
 16 23  1  0
 23 24  1  0
  5 25  1  0
 25 26  2  0
 26  2  1  0
 24 13  1  0
 22 18  2  0
M  END
