CVD-0000463|dock_bobby27042020.84|mol2|15|dock3
     RDKit          3D

 31 34  0  0  0  0  0  0  0  0999 V2000
   12.8409    0.8761   23.2503 C   0  0  0  0  0  0  0  0  0  0  0  0
   11.4797    0.4130   22.9892 N   0  0  0  0  0  0  0  0  0  0  0  0
   11.1165   -0.9081   22.9784 C   0  0  0  0  0  0  0  0  0  0  0  0
   11.8645   -1.8394   23.2065 O   0  0  0  0  0  0  0  0  0  0  0  0
    9.6251   -0.9894   22.6627 C   0  0  0  0  0  0  0  0  0  0  0  0
    9.2108   -1.9926   21.5670 C   0  0  0  0  0  0  0  0  0  0  0  0
    8.5007   -3.2007   22.1280 C   0  0  0  0  0  0  0  0  0  0  0  0
    7.2678   -3.5905   21.6202 C   0  0  0  0  0  0  0  0  0  0  0  0
    6.6108   -4.6986   22.1357 C   0  0  0  0  0  0  0  0  0  0  0  0
    5.4010   -5.0669   21.6237 O   0  0  0  0  0  0  0  0  0  0  0  0
    7.1742   -5.4347   23.1676 C   0  0  0  0  0  0  0  0  0  0  0  0
    8.3925   -5.0239   23.6491 C   0  0  0  0  0  0  0  0  0  0  0  0
    8.9586   -5.7347   24.6615 F   0  0  0  0  0  0  0  0  0  0  0  0
    9.0692   -3.9329   23.1622 C   0  0  0  0  0  0  0  0  0  0  0  0
    9.2809    0.4493   22.3603 C   0  0  0  0  0  0  0  0  0  0  0  0
    8.1012    1.0410   21.9240 C   0  0  0  0  0  0  0  0  0  0  0  0
    8.0854    2.4002   21.7499 C   0  0  0  0  0  0  0  0  0  0  0  0
    6.9343    2.9793   21.3134 F   0  0  0  0  0  0  0  0  0  0  0  0
    9.1704    3.2072   21.9829 C   0  0  0  0  0  0  0  0  0  0  0  0
   10.3699    2.6406   22.4222 C   0  0  0  0  0  0  0  0  0  0  0  0
   11.5487    3.5462   22.7196 C   0  0  0  0  0  0  0  0  0  0  0  0
   11.1925    4.9771   23.0163 C   0  0  0  0  0  0  0  0  0  0  0  0
   12.4135    5.7470   23.2480 N   0  0  0  0  0  0  0  0  0  0  0  0
   13.4017    5.5967   22.1817 C   0  0  0  0  0  0  0  0  0  0  0  0
   13.6507    4.1419   21.9158 C   0  0  0  0  0  0  0  0  0  0  0  0
   12.4496    3.4465   21.6261 O   0  0  0  0  0  0  0  0  0  0  0  0
   12.5853    6.5020   24.3532 C   0  0  0  0  0  0  0  0  0  0  0  0
   13.6291    7.1074   24.5620 O   0  0  0  0  0  0  0  0  0  0  0  0
   11.4293    6.5652   25.3323 C   0  0  0  0  0  0  0  0  0  0  0  0
   11.7554    7.7225   26.6290 Cl  0  0  0  0  0  0  0  0  0  0  0  0
   10.4051    1.2429   22.6071 C   0  0  0  0  0  0  0  0  0  0  0  0
  1  2  1  0
  2  3  1  0
  3  4  2  0
  3  5  1  0
  5  6  1  0
  6  7  1  0
  7  8  2  0
  8  9  1  0
  9 10  1  0
  9 11  2  0
 11 12  1  0
 12 13  1  0
 12 14  2  0
  5 15  1  0
 15 16  2  0
 16 17  1  0
 17 18  1  0
 17 19  2  0
 19 20  1  0
 21 20  1  0
 21 22  1  0
 22 23  1  0
 23 24  1  0
 24 25  1  0
 25 26  1  0
 23 27  1  0
 27 28  2  0
 27 29  1  0
 29 30  1  0
 20 31  2  0
 31  2  1  0
 14  7  1  0
 31 15  1  0
 26 21  1  0
M  END
