CVD-0004070|dock_bobby27042020.14|mol2|30|dock2
     RDKit          3D

 21 23  0  0  0  0  0  0  0  0999 V2000
    4.9788    1.9772   18.6345 C   0  0  0  0  0  0  0  0  0  0  0  0
    5.3800    0.5630   18.9769 C   0  0  0  0  0  0  0  0  0  0  0  0
    5.1451   -0.4814   18.0984 C   0  0  0  0  0  0  0  0  0  0  0  0
    5.5263   -1.7586   18.4556 C   0  0  0  0  0  0  0  0  0  0  0  0
    6.1188   -2.0576   19.6181 N   0  0  0  0  0  0  0  0  0  0  0  0
    6.3460   -1.0524   20.4698 C   0  0  0  0  0  0  0  0  0  0  0  0
    6.9681   -1.4048   21.6795 N   0  0  0  0  0  0  0  0  0  0  0  0
    7.4186   -2.6021   22.1269 C   0  0  0  0  0  0  0  0  0  0  0  0
    7.3549   -3.6590   21.5058 O   0  0  0  0  0  0  0  0  0  0  0  0
    8.0260   -2.5452   23.5145 C   0  0  0  0  0  0  0  0  0  0  0  0
    9.3438   -1.8042   23.5360 C   0  0  0  0  0  0  0  0  0  0  0  0
    9.6129   -0.8904   24.5442 C   0  0  0  0  0  0  0  0  0  0  0  0
   10.7922   -0.2105   24.5915 C   0  0  0  0  0  0  0  0  0  0  0  0
   11.7887   -0.4155   23.6081 C   0  0  0  0  0  0  0  0  0  0  0  0
   13.0304    0.2634   23.6089 C   0  0  0  0  0  0  0  0  0  0  0  0
   13.9530    0.0240   22.6339 C   0  0  0  0  0  0  0  0  0  0  0  0
   13.6972   -0.8836   21.6270 C   0  0  0  0  0  0  0  0  0  0  0  0
   12.5155   -1.5622   21.5835 C   0  0  0  0  0  0  0  0  0  0  0  0
   11.5266   -1.3479   22.5729 C   0  0  0  0  0  0  0  0  0  0  0  0
   10.2872   -2.0283   22.5681 C   0  0  0  0  0  0  0  0  0  0  0  0
    5.9916    0.2653   20.1851 C   0  0  0  0  0  0  0  0  0  0  0  0
  1  2  1  0
  2  3  2  0
  3  4  1  0
  4  5  2  0
  5  6  1  0
  6  7  1  0
  7  8  1  0
  8  9  2  0
  8 10  1  0
 10 11  1  0
 11 12  2  0
 12 13  1  0
 13 14  2  0
 14 15  1  0
 15 16  2  0
 16 17  1  0
 17 18  2  0
 18 19  1  0
 19 20  2  0
  6 21  2  0
 21  2  1  0
 20 11  1  0
 19 14  1  0
M  END
