CVD-0000427|dock_bobby27042020.13|mol2|6|dock1
     RDKit          3D

 28 30  0  0  0  0  0  0  0  0999 V2000
   13.2191    4.0358   22.9241 C   0  0  0  0  0  0  0  0  0  0  0  0
   12.0039    4.8829   22.7107 C   0  0  0  0  0  0  0  0  0  0  0  0
   10.7949    4.1912   23.1256 N   0  0  0  0  0  0  0  0  0  0  0  0
    9.5474    4.5436   22.7119 C   0  0  0  0  0  0  0  0  0  0  0  0
    9.2530    5.8674   22.3922 C   0  0  0  0  0  0  0  0  0  0  0  0
    7.9682    6.1647   21.9778 C   0  0  0  0  0  0  0  0  0  0  0  0
    7.0596    5.1375   21.9058 C   0  0  0  0  0  0  0  0  0  0  0  0
    5.7962    5.4059   21.5035 F   0  0  0  0  0  0  0  0  0  0  0  0
    7.3994    3.8390   22.2323 C   0  0  0  0  0  0  0  0  0  0  0  0
    6.4191    2.6930   22.1653 C   0  0  0  0  0  0  0  0  0  0  0  0
    6.8459    1.6164   21.1883 C   0  0  0  0  0  0  0  0  0  0  0  0
    6.1758    1.4385   19.9888 C   0  0  0  0  0  0  0  0  0  0  0  0
    6.5725    0.4551   19.0988 C   0  0  0  0  0  0  0  0  0  0  0  0
    7.6478   -0.3651   19.3964 C   0  0  0  0  0  0  0  0  0  0  0  0
    8.3342   -0.2005   20.5946 C   0  0  0  0  0  0  0  0  0  0  0  0
    9.4117   -1.0031   20.9192 N   0  0  0  0  0  0  0  0  0  0  0  0
    9.6409   -1.5310   22.2504 C   0  0  0  0  0  0  0  0  0  0  0  0
    8.4548   -2.3247   22.7629 C   0  0  0  0  0  0  0  0  0  0  0  0
    7.7343   -1.8604   23.6403 O   0  0  0  0  0  0  0  0  0  0  0  0
    8.3055   -3.5360   22.1744 N   0  0  0  0  0  0  0  0  0  0  0  0
    7.2582   -4.4865   22.2559 C   0  0  0  0  0  0  0  0  0  0  0  0
    7.4489   -5.8604   22.1504 C   0  0  0  0  0  0  0  0  0  0  0  0
    6.3553   -6.7041   22.2441 C   0  0  0  0  0  0  0  0  0  0  0  0
    5.1086   -6.1559   22.4396 C   0  0  0  0  0  0  0  0  0  0  0  0
    4.8954   -4.8443   22.5446 N   0  0  0  0  0  0  0  0  0  0  0  0
    5.9572   -4.0384   22.4528 C   0  0  0  0  0  0  0  0  0  0  0  0
    7.9243    0.7911   21.4790 C   0  0  0  0  0  0  0  0  0  0  0  0
    8.6462    3.5559   22.6349 N   0  0  0  0  0  0  0  0  0  0  0  0
  1  2  1  0
  2  3  1  0
  3  4  1  0
  4  5  2  0
  5  6  1  0
  6  7  2  0
  7  8  1  0
  7  9  1  0
  9 10  1  0
 10 11  1  0
 11 12  2  0
 12 13  1  0
 13 14  2  0
 14 15  1  0
 15 16  1  0
 16 17  1  0
 17 18  1  0
 18 19  2  0
 18 20  1  0
 20 21  1  0
 21 22  2  0
 22 23  1  0
 23 24  2  0
 24 25  1  0
 25 26  2  0
 15 27  2  0
  9 28  2  0
 28  4  1  0
 27 11  1  0
 26 21  1  0
M  END
