CVD-0001278|dock_bobby27042020.95|mol2|45|dock2
     RDKit          3D

 20 22  0  0  0  0  0  0  0  0999 V2000
    9.4935   -1.2806   24.8977 O   0  0  0  0  0  0  0  0  0  0  0  0
   10.0629   -1.4927   23.8441 C   0  0  0  0  0  0  0  0  0  0  0  0
    9.2766   -1.6148   22.5514 C   0  0  0  0  0  0  0  0  0  0  0  0
    7.8226   -1.8646   22.8020 C   0  0  0  0  0  0  0  0  0  0  0  0
    6.9983   -1.9078   21.5256 C   0  0  0  0  0  0  0  0  0  0  0  0
    7.2399   -0.7133   20.7315 N   0  0  0  0  0  0  0  0  0  0  0  0
    8.6400   -0.4685   20.4070 C   0  0  0  0  0  0  0  0  0  0  0  0
    9.4489   -0.3687   21.6973 C   0  0  0  0  0  0  0  0  0  0  0  0
    6.2068   -0.0037   20.1379 C   0  0  0  0  0  0  0  0  0  0  0  0
    6.2024    0.2537   18.7726 C   0  0  0  0  0  0  0  0  0  0  0  0
    5.1504    0.9614   18.2255 C   0  0  0  0  0  0  0  0  0  0  0  0
    4.1179    1.4222   18.9305 N   0  0  0  0  0  0  0  0  0  0  0  0
    4.1313    1.1738   20.2394 C   0  0  0  0  0  0  0  0  0  0  0  0
    5.1371    0.4790   20.8816 C   0  0  0  0  0  0  0  0  0  0  0  0
   11.4045   -1.6148   23.8053 N   0  0  0  0  0  0  0  0  0  0  0  0
   12.2512   -1.4796   24.9963 C   0  0  0  0  0  0  0  0  0  0  0  0
   13.4379   -0.5897   24.6871 C   0  0  0  0  0  0  0  0  0  0  0  0
   14.1788   -1.0632   23.5805 O   0  0  0  0  0  0  0  0  0  0  0  0
   13.3495   -1.1154   22.4194 C   0  0  0  0  0  0  0  0  0  0  0  0
   12.1697   -2.0384   22.6286 C   0  0  0  0  0  0  0  0  0  0  0  0
  1  2  2  0
  2  3  1  0
  3  4  1  0
  4  5  1  0
  5  6  1  0
  6  7  1  0
  7  8  1  0
  6  9  1  0
  9 10  2  0
 10 11  1  0
 11 12  2  0
 12 13  1  0
 13 14  2  0
  2 15  1  0
 15 16  1  0
 16 17  1  0
 17 18  1  0
 18 19  1  0
 19 20  1  0
  8  3  1  0
 14  9  1  0
 20 15  1  0
M  END
