CVD-0001593|dock_bobby27042020.52|mol2|12|dock2
     RDKit          3D

 19 20  0  0  0  0  0  0  0  0999 V2000
   11.0852    1.4000   22.8753 C   0  0  0  0  0  0  0  0  0  0  0  0
    9.9316    0.5487   23.3852 C   0  0  0  0  0  0  0  0  0  0  0  0
   10.3690   -0.2177   24.6197 C   0  0  0  0  0  0  0  0  0  0  0  0
   11.3881   -1.2101   24.2713 N   0  0  0  0  0  0  0  0  0  0  0  0
   10.9214   -2.1137   23.2151 C   0  0  0  0  0  0  0  0  0  0  0  0
   10.4657   -1.3190   22.0048 C   0  0  0  0  0  0  0  0  0  0  0  0
    9.4134   -0.3750   22.3718 N   0  0  0  0  0  0  0  0  0  0  0  0
    8.7063    0.1960   21.2359 C   0  0  0  0  0  0  0  0  0  0  0  0
    7.8122   -0.7471   20.5994 N   0  0  0  0  0  0  0  0  0  0  0  0
    7.7567   -0.6129   19.1278 C   0  0  0  0  0  0  0  0  0  0  0  0
    7.2484    0.7443   18.6648 C   0  0  0  0  0  0  0  0  0  0  0  0
    5.7276    0.8320   18.4400 C   0  0  0  0  0  0  0  0  0  0  0  0
    5.0263    0.0500   19.4126 O   0  0  0  0  0  0  0  0  0  0  0  0
    5.4817    0.1647   20.7567 C   0  0  0  0  0  0  0  0  0  0  0  0
    6.4559   -0.9230   21.1398 C   0  0  0  0  0  0  0  0  0  0  0  0
   12.6000   -1.2978   24.8714 C   0  0  0  0  0  0  0  0  0  0  0  0
   12.9077   -0.4900   25.7463 O   0  0  0  0  0  0  0  0  0  0  0  0
   13.5750   -2.3576   24.4852 C   0  0  0  0  0  0  0  0  0  0  0  0
   14.0976   -3.1446   25.3879 C   0  0  0  0  0  0  0  0  0  0  0  0
  1  2  1  0
  2  3  1  0
  3  4  1  0
  4  5  1  0
  5  6  1  0
  6  7  1  0
  7  8  1  0
  8  9  1  0
  9 10  1  0
 10 11  1  0
 11 12  1  0
 12 13  1  0
 13 14  1  0
 14 15  1  0
  4 16  1  0
 16 17  2  0
 16 18  1  0
 18 19  2  0
  7  2  1  0
 15  9  1  0
M  END
