CVD-0000500|dock_bobby27042020.98|mol2|21|dock3
     RDKit          3D

 43 45  0  0  0  0  0  0  0  0999 V2000
    6.5978   -1.9484   27.0041 C   0  0  0  0  0  0  0  0  0  0  0  0
    6.9776   -3.3787   27.2836 C   0  0  0  0  0  0  0  0  0  0  0  0
    6.2075   -4.1418   28.1563 C   0  0  0  0  0  0  0  0  0  0  0  0
    6.5298   -5.4590   28.4221 C   0  0  0  0  0  0  0  0  0  0  0  0
    7.6557   -6.0181   27.8453 C   0  0  0  0  0  0  0  0  0  0  0  0
    8.4811   -5.2842   26.9958 C   0  0  0  0  0  0  0  0  0  0  0  0
    9.7505   -5.9357   26.4985 C   0  0  0  0  0  0  0  0  0  0  0  0
    9.9853   -5.6971   25.1210 O   0  0  0  0  0  0  0  0  0  0  0  0
    8.0888   -3.9703   26.6735 C   0  0  0  0  0  0  0  0  0  0  0  0
    8.7940   -3.1583   25.7207 N   0  0  0  0  0  0  0  0  0  0  0  0
    8.2287   -2.5359   24.6344 C   0  0  0  0  0  0  0  0  0  0  0  0
    7.0416   -2.5850   24.3234 O   0  0  0  0  0  0  0  0  0  0  0  0
    9.1223   -1.8236   23.9138 N   0  0  0  0  0  0  0  0  0  0  0  0
    8.7211   -1.1553   22.6867 C   0  0  0  0  0  0  0  0  0  0  0  0
    8.6747   -2.1481   21.5149 C   0  0  0  0  0  0  0  0  0  0  0  0
    7.9043   -1.6363   20.3212 C   0  0  0  0  0  0  0  0  0  0  0  0
    8.4714   -0.7339   19.4350 C   0  0  0  0  0  0  0  0  0  0  0  0
    7.7640   -0.2601   18.3444 C   0  0  0  0  0  0  0  0  0  0  0  0
    6.4653   -0.6897   18.1247 C   0  0  0  0  0  0  0  0  0  0  0  0
    5.7620   -0.2269   17.0511 O   0  0  0  0  0  0  0  0  0  0  0  0
    5.8849   -1.5917   19.0014 C   0  0  0  0  0  0  0  0  0  0  0  0
    6.6039   -2.0564   20.0883 C   0  0  0  0  0  0  0  0  0  0  0  0
    9.7120   -0.0272   22.3903 C   0  0  0  0  0  0  0  0  0  0  0  0
   10.7871   -0.3196   21.9030 O   0  0  0  0  0  0  0  0  0  0  0  0
    9.4154    1.2619   22.6665 N   0  0  0  0  0  0  0  0  0  0  0  0
    8.1462    1.7098   23.2704 C   0  0  0  0  0  0  0  0  0  0  0  0
    6.9538    1.6987   22.3265 C   0  0  0  0  0  0  0  0  0  0  0  0
    6.6532    3.0715   21.7424 C   0  0  0  0  0  0  0  0  0  0  0  0
    6.0808    4.0428   22.7449 C   0  0  0  0  0  0  0  0  0  0  0  0
    5.5018    5.1253   22.2498 N   0  0  0  0  0  0  0  0  0  0  0  0
    6.1569    3.8248   23.9575 O   0  0  0  0  0  0  0  0  0  0  0  0
   10.4284    2.2985   22.4195 C   0  0  0  0  0  0  0  0  0  0  0  0
   11.3424    2.5208   23.6136 C   0  0  0  0  0  0  0  0  0  0  0  0
   12.2571    3.6563   23.4343 N   0  0  0  0  0  0  0  0  0  0  0  0
   13.0788    3.5340   22.2325 C   0  0  0  0  0  0  0  0  0  0  0  0
   14.1014    4.6356   22.2119 C   0  0  0  0  0  0  0  0  0  0  0  0
   13.4738    6.0098   22.3146 C   0  0  0  0  0  0  0  0  0  0  0  0
   12.5635    6.0120   23.4384 N   0  0  0  0  0  0  0  0  0  0  0  0
   11.5823    4.9416   23.4018 C   0  0  0  0  0  0  0  0  0  0  0  0
   12.6184    6.9159   24.4378 C   0  0  0  0  0  0  0  0  0  0  0  0
   13.4493    7.8153   24.4604 O   0  0  0  0  0  0  0  0  0  0  0  0
   11.5859    6.7632   25.5373 C   0  0  0  0  0  0  0  0  0  0  0  0
   11.7912    7.9967   26.7877 Cl  0  0  0  0  0  0  0  0  0  0  0  0
  1  2  1  0
  2  3  2  0
  3  4  1  0
  4  5  2  0
  5  6  1  0
  6  7  1  0
  7  8  1  0
  6  9  2  0
  9 10  1  0
 10 11  1  0
 11 12  2  0
 11 13  1  0
 13 14  1  0
 14 15  1  0
 15 16  1  0
 16 17  2  0
 17 18  1  0
 18 19  2  0
 19 20  1  0
 19 21  1  0
 21 22  2  0
 14 23  1  0
 23 24  2  0
 23 25  1  0
 25 26  1  0
 26 27  1  0
 27 28  1  0
 28 29  1  0
 29 30  1  0
 29 31  2  0
 25 32  1  0
 32 33  1  0
 33 34  1  0
 34 35  1  0
 35 36  1  0
 36 37  1  0
 37 38  1  0
 38 39  1  0
 38 40  1  0
 40 41  2  0
 40 42  1  0
 42 43  1  0
  9  2  1  0
 22 16  1  0
 39 34  1  0
M  END
