CVD-0001167|dock_bobby27042020.53|mol2|31|dock3
     RDKit          3D

 29 30  0  0  0  0  0  0  0  0999 V2000
    5.1089    2.1386   19.0143 C   0  0  0  0  0  0  0  0  0  0  0  0
    6.0547    1.0983   19.3576 O   0  0  0  0  0  0  0  0  0  0  0  0
    6.2724    0.1790   18.4209 C   0  0  0  0  0  0  0  0  0  0  0  0
    6.1348    0.3797   17.2423 O   0  0  0  0  0  0  0  0  0  0  0  0
    6.7055   -1.1519   19.0164 C   0  0  0  0  0  0  0  0  0  0  0  0
    5.6250   -1.6749   19.9621 C   0  0  0  0  0  0  0  0  0  0  0  0
    4.9489   -0.6201   20.6353 O   0  0  0  0  0  0  0  0  0  0  0  0
    7.9614   -0.9918   19.7311 N   0  0  0  0  0  0  0  0  0  0  0  0
    8.0149   -0.4041   20.9302 C   0  0  0  0  0  0  0  0  0  0  0  0
    7.0178    0.0333   21.4983 O   0  0  0  0  0  0  0  0  0  0  0  0
    9.3873   -0.2809   21.5886 C   0  0  0  0  0  0  0  0  0  0  0  0
    9.8297   -1.6276   22.1845 C   0  0  0  0  0  0  0  0  0  0  0  0
   11.2772   -1.6709   22.6108 C   0  0  0  0  0  0  0  0  0  0  0  0
   12.2726   -2.0081   21.7068 C   0  0  0  0  0  0  0  0  0  0  0  0
   13.6005   -2.0484   22.0980 C   0  0  0  0  0  0  0  0  0  0  0  0
   13.9484   -1.7521   23.3983 C   0  0  0  0  0  0  0  0  0  0  0  0
   12.9685   -1.4157   24.3073 C   0  0  0  0  0  0  0  0  0  0  0  0
   11.6407   -1.3754   23.9156 C   0  0  0  0  0  0  0  0  0  0  0  0
    9.3609    0.7352   22.6278 N   0  0  0  0  0  0  0  0  0  0  0  0
    9.2635    2.0378   22.3140 C   0  0  0  0  0  0  0  0  0  0  0  0
    9.1911    2.4782   21.1864 O   0  0  0  0  0  0  0  0  0  0  0  0
    9.2571    2.7932   23.4293 O   0  0  0  0  0  0  0  0  0  0  0  0
    9.6813    4.1723   23.2649 C   0  0  0  0  0  0  0  0  0  0  0  0
   11.1152    4.1985   22.8225 C   0  0  0  0  0  0  0  0  0  0  0  0
   11.6684    5.3494   22.2831 C   0  0  0  0  0  0  0  0  0  0  0  0
   12.9906    5.3726   21.8718 C   0  0  0  0  0  0  0  0  0  0  0  0
   13.7738    4.2449   21.9946 C   0  0  0  0  0  0  0  0  0  0  0  0
   13.2349    3.0939   22.5282 C   0  0  0  0  0  0  0  0  0  0  0  0
   11.9127    3.0707   22.9395 C   0  0  0  0  0  0  0  0  0  0  0  0
  1  2  1  0
  2  3  1  0
  3  4  2  0
  3  5  1  0
  5  6  1  0
  6  7  1  0
  5  8  1  0
  8  9  1  0
  9 10  2  0
  9 11  1  0
 11 12  1  0
 12 13  1  0
 13 14  2  0
 14 15  1  0
 15 16  2  0
 16 17  1  0
 17 18  2  0
 11 19  1  0
 19 20  1  0
 20 21  2  0
 20 22  1  0
 22 23  1  0
 23 24  1  0
 24 25  2  0
 25 26  1  0
 26 27  2  0
 27 28  1  0
 28 29  2  0
 18 13  1  0
 29 24  1  0
M  END
