CVD-0001332|dock_bobby27042020.95|mol2|37|dock3
     RDKit          3D

 23 25  0  0  0  0  0  0  0  0999 V2000
   11.1241   -3.5252   23.7968 O   0  0  0  0  0  0  0  0  0  0  0  0
   10.2752   -2.8776   24.4018 C   0  0  0  0  0  0  0  0  0  0  0  0
    9.3749   -3.5532   25.3792 C   0  0  0  0  0  0  0  0  0  0  0  0
    8.1670   -2.8023   25.8584 C   0  0  0  0  0  0  0  0  0  0  0  0
    8.4763   -1.3365   26.0483 C   0  0  0  0  0  0  0  0  0  0  0  0
    8.9284   -0.7148   24.7422 C   0  0  0  0  0  0  0  0  0  0  0  0
   10.1380   -1.4125   24.1850 C   0  0  0  0  0  0  0  0  0  0  0  0
   11.1654   -0.7820   23.5599 C   0  0  0  0  0  0  0  0  0  0  0  0
   11.2539    0.6121   23.2404 C   0  0  0  0  0  0  0  0  0  0  0  0
   12.4073    1.2300   22.9608 C   0  0  0  0  0  0  0  0  0  0  0  0
   12.5665    2.6174   22.6341 C   0  0  0  0  0  0  0  0  0  0  0  0
   11.6912    3.5644   22.2210 C   0  0  0  0  0  0  0  0  0  0  0  0
   12.4286    4.7606   22.0553 C   0  0  0  0  0  0  0  0  0  0  0  0
   13.6853    4.4803   22.3704 C   0  0  0  0  0  0  0  0  0  0  0  0
   13.8158    3.1667   22.7340 O   0  0  0  0  0  0  0  0  0  0  0  0
    9.7798   -4.7619   25.8474 C   0  0  0  0  0  0  0  0  0  0  0  0
    9.0884   -5.5991   26.7823 C   0  0  0  0  0  0  0  0  0  0  0  0
    7.8021   -5.9427   26.6494 C   0  0  0  0  0  0  0  0  0  0  0  0
    7.0514   -6.7742   27.5450 C   0  0  0  0  0  0  0  0  0  0  0  0
    5.7991   -7.2855   27.4828 C   0  0  0  0  0  0  0  0  0  0  0  0
    5.6031   -8.0367   28.6657 C   0  0  0  0  0  0  0  0  0  0  0  0
    6.7240   -7.9425   29.3670 C   0  0  0  0  0  0  0  0  0  0  0  0
    7.6463   -7.1712   28.7115 O   0  0  0  0  0  0  0  0  0  0  0  0
  1  2  2  0
  2  3  1  0
  3  4  1  0
  4  5  1  0
  5  6  1  0
  6  7  1  0
  7  8  2  0
  8  9  1  0
  9 10  2  0
 10 11  1  0
 11 12  2  0
 12 13  1  0
 13 14  2  0
 14 15  1  0
  3 16  2  0
 16 17  1  0
 17 18  2  0
 18 19  1  0
 19 20  2  0
 20 21  1  0
 21 22  2  0
 22 23  1  0
  7  2  1  0
 15 11  1  0
 23 19  1  0
M  END
