CVD-0003130|dock_bobby27042020.60|mol2|40|dock2
     RDKit          3D

 15 16  0  0  0  0  0  0  0  0999 V2000
   13.8987   -2.3113   22.2897 C   0  0  0  0  0  0  0  0  0  0  0  0
   12.7719   -1.2810   22.3536 C   0  0  0  0  0  0  0  0  0  0  0  0
   13.2943    0.1141   22.7135 C   0  0  0  0  0  0  0  0  0  0  0  0
   12.1850    1.0791   22.6761 N   0  0  0  0  0  0  0  0  0  0  0  0
   11.0999    0.7463   23.6279 C   0  0  0  0  0  0  0  0  0  0  0  0
   10.5582   -0.6211   23.2940 C   0  0  0  0  0  0  0  0  0  0  0  0
   11.6304   -1.6978   23.3068 C   0  0  0  0  0  0  0  0  0  0  0  0
   11.0892   -2.9115   22.9954 F   0  0  0  0  0  0  0  0  0  0  0  0
   12.1987   -1.7383   24.5470 F   0  0  0  0  0  0  0  0  0  0  0  0
   12.5179    2.4133   22.6201 C   0  0  0  0  0  0  0  0  0  0  0  0
   11.6367    3.3577   22.1083 C   0  0  0  0  0  0  0  0  0  0  0  0
   12.0631    4.6732   22.0994 C   0  0  0  0  0  0  0  0  0  0  0  0
   13.3171    4.9430   22.5924 C   0  0  0  0  0  0  0  0  0  0  0  0
   14.1198    4.0092   23.0671 N   0  0  0  0  0  0  0  0  0  0  0  0
   13.7147    2.7269   23.0806 N   0  0  0  0  0  0  0  0  0  0  0  0
  2  1  1  0
  2  3  1  0
  3  4  1  0
  4  5  1  0
  5  6  1  0
  6  7  1  0
  7  8  1  0
  7  9  1  0
  4 10  1  0
 10 11  2  0
 11 12  1  0
 12 13  2  0
 13 14  1  0
 14 15  2  0
  7  2  1  0
 15 10  1  0
M  END
