CVD-0002676|dock_bobby27042020.62|mol2|19|dock1
     RDKit          3D

 30 32  0  0  0  0  0  0  0  0999 V2000
    5.2130   -0.6594   18.5113 C   0  0  0  0  0  0  0  0  0  0  0  0
    6.6094   -1.7108   18.6649 S   0  0  0  0  0  0  0  0  0  0  0  0
    6.2137   -3.0578   18.3487 O   0  0  0  0  0  0  0  0  0  0  0  0
    7.6968   -1.1530   17.9049 O   0  0  0  0  0  0  0  0  0  0  0  0
    7.0381   -1.6430   20.3890 C   0  0  0  0  0  0  0  0  0  0  0  0
    8.4789   -2.0667   20.6431 C   0  0  0  0  0  0  0  0  0  0  0  0
    8.9453   -1.6828   21.9810 N   0  0  0  0  0  0  0  0  0  0  0  0
    9.4299   -0.3048   22.1046 C   0  0  0  0  0  0  0  0  0  0  0  0
   10.9413   -0.2278   22.1399 C   0  0  0  0  0  0  0  0  0  0  0  0
   11.6958   -1.3627   21.9955 C   0  0  0  0  0  0  0  0  0  0  0  0
   13.0797   -1.3216   22.0279 C   0  0  0  0  0  0  0  0  0  0  0  0
   13.7383   -0.1418   22.2061 C   0  0  0  0  0  0  0  0  0  0  0  0
   13.0160    1.0654   22.3618 C   0  0  0  0  0  0  0  0  0  0  0  0
   13.6466    2.3183   22.5499 C   0  0  0  0  0  0  0  0  0  0  0  0
   12.9142    3.4574   22.6963 C   0  0  0  0  0  0  0  0  0  0  0  0
   11.5278    3.4343   22.6675 C   0  0  0  0  0  0  0  0  0  0  0  0
   10.7381    4.7098   22.8282 C   0  0  0  0  0  0  0  0  0  0  0  0
   10.6575    5.2319   24.1752 N   0  0  0  0  0  0  0  0  0  0  0  0
   10.8828    2.2397   22.4857 C   0  0  0  0  0  0  0  0  0  0  0  0
   11.5920    1.0229   22.3284 C   0  0  0  0  0  0  0  0  0  0  0  0
    8.9210   -2.5842   22.9878 C   0  0  0  0  0  0  0  0  0  0  0  0
    8.4936   -3.7157   22.7965 O   0  0  0  0  0  0  0  0  0  0  0  0
    9.4346   -2.1896   24.3618 C   0  0  0  0  0  0  0  0  0  0  0  0
    9.1692   -3.2340   25.4237 C   0  0  0  0  0  0  0  0  0  0  0  0
    8.2228   -3.0329   26.4004 C   0  0  0  0  0  0  0  0  0  0  0  0
    7.9238   -3.8917   27.3806 N   0  0  0  0  0  0  0  0  0  0  0  0
    8.6027   -5.0372   27.4108 C   0  0  0  0  0  0  0  0  0  0  0  0
    9.5709   -5.3605   26.4843 C   0  0  0  0  0  0  0  0  0  0  0  0
    9.8673   -4.4543   25.4615 C   0  0  0  0  0  0  0  0  0  0  0  0
   10.8221   -4.7714   24.5234 N   0  0  0  0  0  0  0  0  0  0  0  0
  1  2  1  0
  2  3  2  0
  2  4  2  0
  2  5  1  0
  5  6  1  0
  6  7  1  0
  7  8  1  0
  8  9  1  0
  9 10  2  0
 10 11  1  0
 11 12  2  0
 12 13  1  0
 13 14  2  0
 14 15  1  0
 15 16  2  0
 16 17  1  0
 17 18  1  0
 16 19  1  0
 19 20  2  0
  7 21  1  0
 21 22  2  0
 21 23  1  0
 23 24  1  0
 24 25  2  0
 25 26  1  0
 26 27  2  0
 27 28  1  0
 28 29  2  0
 29 30  1  0
 20  9  1  0
 29 24  1  0
 20 13  1  0
M  END
