CVD-0001352|dock_bobby27042020.95|mol2|34|dock2
     RDKit          3D

 25 27  0  0  0  0  0  0  0  0999 V2000
    4.9038    2.0781   17.6469 C   0  0  0  0  0  0  0  0  0  0  0  0
    6.2079    1.3380   17.7013 C   0  0  0  0  0  0  0  0  0  0  0  0
    7.1260    1.6094   16.9356 O   0  0  0  0  0  0  0  0  0  0  0  0
    6.3455    0.3658   18.6360 N   0  0  0  0  0  0  0  0  0  0  0  0
    5.3228   -0.0386   19.6059 C   0  0  0  0  0  0  0  0  0  0  0  0
    5.8758   -0.0018   21.0163 C   0  0  0  0  0  0  0  0  0  0  0  0
    7.1662   -0.8067   21.1550 C   0  0  0  0  0  0  0  0  0  0  0  0
    7.7877   -0.6901   22.5408 C   0  0  0  0  0  0  0  0  0  0  0  0
    9.2223   -0.3694   22.5341 N   0  0  0  0  0  0  0  0  0  0  0  0
   10.1552   -1.4451   22.8445 C   0  0  0  0  0  0  0  0  0  0  0  0
   11.4689   -1.2530   22.1527 C   0  0  0  0  0  0  0  0  0  0  0  0
   11.9846    0.1408   22.3780 C   0  0  0  0  0  0  0  0  0  0  0  0
   13.3465    0.4290   22.3906 C   0  0  0  0  0  0  0  0  0  0  0  0
   13.8060    1.7201   22.5844 C   0  0  0  0  0  0  0  0  0  0  0  0
   12.8888    2.7429   22.7689 C   0  0  0  0  0  0  0  0  0  0  0  0
   11.5274    2.4784   22.7600 C   0  0  0  0  0  0  0  0  0  0  0  0
   11.0717    1.1755   22.5642 C   0  0  0  0  0  0  0  0  0  0  0  0
    9.6149    0.9248   22.4900 C   0  0  0  0  0  0  0  0  0  0  0  0
    8.8107    1.8371   22.3954 O   0  0  0  0  0  0  0  0  0  0  0  0
   13.4545    4.3888   23.0758 S   0  0  0  0  0  0  0  0  0  0  0  0
   13.1482    5.2800   21.7815 N   0  0  0  0  0  0  0  0  0  0  0  0
   12.6687    4.9178   24.1498 O   0  0  0  0  0  0  0  0  0  0  0  0
   14.8780    4.3313   23.2231 O   0  0  0  0  0  0  0  0  0  0  0  0
    8.1476   -0.4038   20.0619 C   0  0  0  0  0  0  0  0  0  0  0  0
    7.5369   -0.4744   18.6797 C   0  0  0  0  0  0  0  0  0  0  0  0
  1  2  1  0
  2  3  2  0
  2  4  1  0
  4  5  1  0
  5  6  1  0
  6  7  1  0
  7  8  1  0
  8  9  1  0
  9 10  1  0
 10 11  1  0
 11 12  1  0
 12 13  2  0
 13 14  1  0
 14 15  2  0
 15 16  1  0
 16 17  2  0
 17 18  1  0
 18 19  2  0
 15 20  1  0
 20 21  1  0
 20 22  2  0
 20 23  2  0
  7 24  1  0
 24 25  1  0
 25  4  1  0
 18  9  1  0
 17 12  1  0
M  END
