CVD-0000201|dock_bobby27042020.71|mol2|10|dock3
     RDKit          3D

 22 24  0  0  0  0  0  0  0  0999 V2000
   12.8020    4.5351   22.8471 C   0  0  0  0  0  0  0  0  0  0  0  0
   12.6651    3.4996   23.8183 O   0  0  0  0  0  0  0  0  0  0  0  0
   12.0935    2.2999   23.4746 C   0  0  0  0  0  0  0  0  0  0  0  0
   11.1508    2.1979   22.4640 C   0  0  0  0  0  0  0  0  0  0  0  0
   10.6212    0.9587   22.1511 C   0  0  0  0  0  0  0  0  0  0  0  0
   11.0079   -0.1996   22.8246 C   0  0  0  0  0  0  0  0  0  0  0  0
   10.4212   -1.5451   22.4361 C   0  0  0  0  0  0  0  0  0  0  0  0
    8.9333   -1.4003   22.0912 C   0  0  0  0  0  0  0  0  0  0  0  0
    8.7171   -1.1403   20.6730 N   0  0  0  0  0  0  0  0  0  0  0  0
    7.5943   -0.6330   20.1430 C   0  0  0  0  0  0  0  0  0  0  0  0
    6.4820   -0.2971   20.9694 C   0  0  0  0  0  0  0  0  0  0  0  0
    5.3651    0.1971   20.5307 N   0  0  0  0  0  0  0  0  0  0  0  0
    5.2513    0.4076   19.1884 N   0  0  0  0  0  0  0  0  0  0  0  0
    6.1985    0.1499   18.2506 C   0  0  0  0  0  0  0  0  0  0  0  0
    5.9975    0.3760   17.0582 O   0  0  0  0  0  0  0  0  0  0  0  0
    7.4233   -0.3996   18.7950 C   0  0  0  0  0  0  0  0  0  0  0  0
    8.6682   -0.7500   17.6566 Cl  0  0  0  0  0  0  0  0  0  0  0  0
   10.5760   -2.5613   23.5435 C   0  0  0  0  0  0  0  0  0  0  0  0
   12.0246   -2.5987   24.0087 C   0  0  0  0  0  0  0  0  0  0  0  0
   12.3853   -1.2849   24.6590 C   0  0  0  0  0  0  0  0  0  0  0  0
   11.9602   -0.0886   23.8438 C   0  0  0  0  0  0  0  0  0  0  0  0
   12.4881    1.1600   24.1528 C   0  0  0  0  0  0  0  0  0  0  0  0
  1  2  1  0
  2  3  1  0
  3  4  2  0
  4  5  1  0
  5  6  2  0
  6  7  1  0
  7  8  1  0
  8  9  1  0
  9 10  1  0
 10 11  1  0
 11 12  2  0
 12 13  1  0
 13 14  1  0
 14 15  2  0
 14 16  1  0
 16 17  1  0
  7 18  1  0
 18 19  1  0
 19 20  1  0
 20 21  1  0
 21 22  2  0
 22  3  1  0
 21  6  1  0
 16 10  2  0
M  END
