CVD-0003567|dock_bobby27042020.59|mol2|23|dock2
     RDKit          3D

 27 29  0  0  0  0  0  0  0  0999 V2000
    9.8826   -5.6463   27.3612 C   0  0  0  0  0  0  0  0  0  0  0  0
    9.6852   -6.0875   25.9823 N   0  0  0  0  0  0  0  0  0  0  0  0
    8.3954   -5.5485   25.1754 S   0  0  0  0  0  0  0  0  0  0  0  0
    8.4791   -6.0869   23.8522 O   0  0  0  0  0  0  0  0  0  0  0  0
    7.2498   -5.8414   25.9815 O   0  0  0  0  0  0  0  0  0  0  0  0
    8.5351   -3.7978   25.0542 C   0  0  0  0  0  0  0  0  0  0  0  0
    8.2229   -3.0008   26.1405 C   0  0  0  0  0  0  0  0  0  0  0  0
    8.3365   -1.6291   26.0166 C   0  0  0  0  0  0  0  0  0  0  0  0
    8.7570   -1.0428   24.8202 C   0  0  0  0  0  0  0  0  0  0  0  0
    8.8506    0.3934   24.7702 C   0  0  0  0  0  0  0  0  0  0  0  0
    8.9063    1.5343   24.7596 N   0  0  0  0  0  0  0  0  0  0  0  0
    9.0753   -1.8501   23.7082 C   0  0  0  0  0  0  0  0  0  0  0  0
    8.9517   -3.2301   23.8607 C   0  0  0  0  0  0  0  0  0  0  0  0
    9.5394   -1.2748   22.3705 C   0  0  0  0  0  0  0  0  0  0  0  0
   10.9324   -1.7105   22.0586 C   0  0  0  0  0  0  0  0  0  0  0  0
   11.9110   -1.0804   22.9793 N   0  0  0  0  0  0  0  0  0  0  0  0
   11.8175    0.3795   23.1812 C   0  0  0  0  0  0  0  0  0  0  0  0
   10.5270    1.0239   22.6657 C   0  0  0  0  0  0  0  0  0  0  0  0
   10.4237    2.4096   22.5949 C   0  0  0  0  0  0  0  0  0  0  0  0
    9.2601    3.0174   22.1597 C   0  0  0  0  0  0  0  0  0  0  0  0
    8.1844    2.2416   21.7899 C   0  0  0  0  0  0  0  0  0  0  0  0
    8.2792    0.8626   21.8575 C   0  0  0  0  0  0  0  0  0  0  0  0
    9.4434    0.2282   22.2934 C   0  0  0  0  0  0  0  0  0  0  0  0
   12.8586   -1.7632   23.6664 C   0  0  0  0  0  0  0  0  0  0  0  0
   12.9744   -2.9781   23.5622 O   0  0  0  0  0  0  0  0  0  0  0  0
   13.7876   -0.9942   24.5866 C   0  0  0  0  0  0  0  0  0  0  0  0
   15.0473   -2.0491   25.2404 Cl  0  0  0  0  0  0  0  0  0  0  0  0
  1  2  1  0
  2  3  1  0
  3  4  2  0
  3  5  2  0
  3  6  1  0
  6  7  2  0
  7  8  1  0
  8  9  2  0
  9 10  1  0
 10 11  3  0
  9 12  1  0
 12 13  2  0
 12 14  1  0
 14 15  1  0
 15 16  1  0
 16 17  1  0
 17 18  1  0
 18 19  2  0
 19 20  1  0
 20 21  2  0
 21 22  1  0
 22 23  2  0
 16 24  1  0
 24 25  2  0
 24 26  1  0
 26 27  1  0
 13  6  1  0
 23 14  1  0
 23 18  1  0
M  END
