CVD-0002007|dock_bobby27042020.50|mol2|33|dock2
     RDKit          3D

 19 21  0  0  0  0  0  0  0  0999 V2000
    5.8270   -1.2134   19.2089 C   0  0  0  0  0  0  0  0  0  0  0  0
    6.5721    0.0779   19.5379 C   0  0  0  0  0  0  0  0  0  0  0  0
    6.8801    0.8432   18.2654 C   0  0  0  0  0  0  0  0  0  0  0  0
    5.8094    1.3079   17.6734 O   0  0  0  0  0  0  0  0  0  0  0  0
    8.0048    1.0053   17.8457 O   0  0  0  0  0  0  0  0  0  0  0  0
    7.8640   -0.1916   20.2871 C   0  0  0  0  0  0  0  0  0  0  0  0
    8.4991    0.8032   21.0241 C   0  0  0  0  0  0  0  0  0  0  0  0
    9.6727    0.4449   21.6722 C   0  0  0  0  0  0  0  0  0  0  0  0
   10.5495    1.1524   22.4726 N   0  0  0  0  0  0  0  0  0  0  0  0
   11.5702    0.3009   22.8609 C   0  0  0  0  0  0  0  0  0  0  0  0
   12.6815    0.5398   23.6619 C   0  0  0  0  0  0  0  0  0  0  0  0
   13.5708   -0.4942   23.9054 C   0  0  0  0  0  0  0  0  0  0  0  0
   13.3484   -1.7412   23.3560 C   0  0  0  0  0  0  0  0  0  0  0  0
   14.4838   -3.0213   23.6800 Cl  0  0  0  0  0  0  0  0  0  0  0  0
   12.2538   -2.0075   22.5571 C   0  0  0  0  0  0  0  0  0  0  0  0
   11.3529   -0.9757   22.3054 C   0  0  0  0  0  0  0  0  0  0  0  0
   10.1206   -0.8765   21.5354 C   0  0  0  0  0  0  0  0  0  0  0  0
    9.4650   -1.7877   20.8134 N   0  0  0  0  0  0  0  0  0  0  0  0
    8.3342   -1.4312   20.1932 N   0  0  0  0  0  0  0  0  0  0  0  0
  2  1  1  0
  2  3  1  0
  3  4  1  0
  3  5  2  0
  2  6  1  0
  6  7  2  0
  7  8  1  0
  8  9  1  0
  9 10  1  0
 10 11  2  0
 11 12  1  0
 12 13  2  0
 13 14  1  0
 13 15  1  0
 15 16  2  0
 16 17  1  0
 17 18  1  0
 18 19  2  0
 19  6  1  0
 17  8  2  0
 16 10  1  0
M  END
