CVD-0000274|dock_bobby27042020.99|mol2|12|dock2
     RDKit          3D

 22 23  0  0  0  0  0  0  0  0999 V2000
    3.9601    2.1436   19.1030 C   0  0  0  0  0  0  0  0  0  0  0  0
    5.1833    1.7379   18.4119 N   0  0  0  0  0  0  0  0  0  0  0  0
    5.5106    2.0065   17.1324 C   0  0  0  0  0  0  0  0  0  0  0  0
    6.6867    1.5240   16.8003 N   0  0  0  0  0  0  0  0  0  0  0  0
    7.1485    0.9153   17.9413 C   0  0  0  0  0  0  0  0  0  0  0  0
    6.2394    1.0389   18.9510 C   0  0  0  0  0  0  0  0  0  0  0  0
    6.2647    0.5669   20.3639 C   0  0  0  0  0  0  0  0  0  0  0  0
    7.6153    0.3847   20.8498 N   0  0  0  0  0  0  0  0  0  0  0  0
    8.9068    0.6224   21.2006 C   0  0  0  0  0  0  0  0  0  0  0  0
    9.3464    1.7557   21.0292 O   0  0  0  0  0  0  0  0  0  0  0  0
    9.6916   -0.3889   21.7331 N   0  0  0  0  0  0  0  0  0  0  0  0
   11.0292   -0.3901   22.1648 C   0  0  0  0  0  0  0  0  0  0  0  0
   11.8193   -1.5202   22.3823 C   0  0  0  0  0  0  0  0  0  0  0  0
   13.1222   -1.3254   22.8087 C   0  0  0  0  0  0  0  0  0  0  0  0
   13.6057   -0.0440   23.0077 C   0  0  0  0  0  0  0  0  0  0  0  0
   12.7307    1.0114   22.7623 C   0  0  0  0  0  0  0  0  0  0  0  0
   13.2251    2.2595   22.9584 O   0  0  0  0  0  0  0  0  0  0  0  0
   12.6513    3.3768   22.2610 C   0  0  0  0  0  0  0  0  0  0  0  0
   13.4807    4.5949   22.4864 C   0  0  0  0  0  0  0  0  0  0  0  0
   13.5130    4.9278   23.8035 F   0  0  0  0  0  0  0  0  0  0  0  0
   13.0386    5.6895   21.8140 F   0  0  0  0  0  0  0  0  0  0  0  0
   11.4812    0.8561   22.3520 N   0  0  0  0  0  0  0  0  0  0  0  0
  1  2  1  0
  2  3  1  0
  3  4  2  0
  4  5  1  0
  5  6  2  0
  6  7  1  0
  7  8  1  0
  8  9  1  0
  9 10  2  0
  9 11  1  0
 11 12  1  0
 12 13  2  0
 13 14  1  0
 14 15  2  0
 15 16  1  0
 16 17  1  0
 17 18  1  0
 18 19  1  0
 19 20  1  0
 19 21  1  0
 16 22  2  0
  6  2  1  0
 22 12  1  0
M  END
