CVD-0002643|dock_bobby27042020.33|mol2|29|dock2
     RDKit          3D

 23 25  0  0  0  0  0  0  0  0999 V2000
    8.4636    4.1744   22.5497 C   0  0  0  0  0  0  0  0  0  0  0  0
    9.9119    3.7992   22.6656 C   0  0  0  0  0  0  0  0  0  0  0  0
   10.7811    4.6606   22.7470 O   0  0  0  0  0  0  0  0  0  0  0  0
   10.1320    2.4587   22.6803 N   0  0  0  0  0  0  0  0  0  0  0  0
   11.3410    1.7189   22.7878 C   0  0  0  0  0  0  0  0  0  0  0  0
   12.5797    2.2361   22.4126 C   0  0  0  0  0  0  0  0  0  0  0  0
   13.7326    1.5723   22.5307 N   0  0  0  0  0  0  0  0  0  0  0  0
   13.6919    0.3588   23.0729 C   0  0  0  0  0  0  0  0  0  0  0  0
   12.5259   -0.2596   23.4684 C   0  0  0  0  0  0  0  0  0  0  0  0
   11.3146    0.4071   23.3002 C   0  0  0  0  0  0  0  0  0  0  0  0
   10.1337   -0.2275   23.6294 N   0  0  0  0  0  0  0  0  0  0  0  0
    9.7761   -1.5863   23.2349 C   0  0  0  0  0  0  0  0  0  0  0  0
    9.9603   -1.6906   21.7342 C   0  0  0  0  0  0  0  0  0  0  0  0
    8.9417   -0.8530   20.9692 C   0  0  0  0  0  0  0  0  0  0  0  0
    7.4962   -1.2162   21.3358 C   0  0  0  0  0  0  0  0  0  0  0  0
    7.3314   -1.0581   22.8518 C   0  0  0  0  0  0  0  0  0  0  0  0
    8.3380   -1.8977   23.6237 C   0  0  0  0  0  0  0  0  0  0  0  0
    6.4414   -0.4754   20.4951 C   0  0  0  0  0  0  0  0  0  0  0  0
    6.6627    1.0344   20.4052 C   0  0  0  0  0  0  0  0  0  0  0  0
    5.5739    1.7073   19.5697 C   0  0  0  0  0  0  0  0  0  0  0  0
    5.4867    1.0961   18.1848 C   0  0  0  0  0  0  0  0  0  0  0  0
    5.2803   -0.4033   18.2513 C   0  0  0  0  0  0  0  0  0  0  0  0
    6.3581   -1.0804   19.0916 C   0  0  0  0  0  0  0  0  0  0  0  0
  1  2  1  0
  2  3  2  0
  2  4  1  0
  4  5  1  0
  5  6  2  0
  6  7  1  0
  7  8  2  0
  8  9  1  0
  9 10  2  0
 10 11  1  0
 11 12  1  0
 12 13  1  0
 13 14  1  0
 14 15  1  0
 15 16  1  0
 16 17  1  0
 15 18  1  0
 18 19  1  0
 19 20  1  0
 20 21  1  0
 21 22  1  0
 22 23  1  0
 10  5  1  0
 17 12  1  0
 23 18  1  0
M  END
