CVD-0002508|dock_bobby27042020.91|mol2|14|dock3
     RDKit          3D

 15 15  0  0  0  0  0  0  0  0999 V2000
   13.9121   -1.1025   25.3222 C   0  0  0  0  0  0  0  0  0  0  0  0
   13.0080   -0.8092   24.1499 C   0  0  0  0  0  0  0  0  0  0  0  0
   12.8308   -1.7402   23.1379 C   0  0  0  0  0  0  0  0  0  0  0  0
   11.9979   -1.4703   22.0649 C   0  0  0  0  0  0  0  0  0  0  0  0
   11.3302   -0.2599   21.9943 C   0  0  0  0  0  0  0  0  0  0  0  0
   11.4921    0.6863   22.9952 C   0  0  0  0  0  0  0  0  0  0  0  0
   12.3295    0.3974   24.0620 C   0  0  0  0  0  0  0  0  0  0  0  0
   10.7680    2.0172   22.9405 C   0  0  0  0  0  0  0  0  0  0  0  0
    9.7351    2.0734   23.9234 O   0  0  0  0  0  0  0  0  0  0  0  0
   11.7153    3.1510   23.1598 C   0  0  0  0  0  0  0  0  0  0  0  0
   12.9872    3.0402   23.1021 N   0  0  0  0  0  0  0  0  0  0  0  0
   13.8747    4.4186   23.3757 S   0  0  0  0  0  0  0  0  0  0  0  0
   13.7264    5.2511   21.8444 C   0  0  0  0  0  0  0  0  0  0  0  0
   13.2398    5.2056   24.3906 O   0  0  0  0  0  0  0  0  0  0  0  0
   15.2498    4.0724   23.5798 O   0  0  0  0  0  0  0  0  0  0  0  0
  1  2  1  0
  2  3  2  0
  3  4  1  0
  4  5  2  0
  5  6  1  0
  6  7  2  0
  6  8  1  0
  8  9  1  0
  8 10  1  0
 10 11  2  0
 11 12  1  0
 12 13  1  0
 12 14  2  0
 12 15  2  0
  7  2  1  0
M  END
