CVD-0003272|dock_bobby27042020.31|mol2|25|dock1
     RDKit          3D

 33 33  0  0  0  0  0  0  0  0999 V2000
   13.1979   -0.3345   25.6195 N   0  0  0  0  0  0  0  0  0  0  0  0
   13.9178   -1.3093   24.7767 C   0  0  0  0  0  0  0  0  0  0  0  0
   14.6044   -2.3351   25.6107 C   0  0  0  0  0  0  0  0  0  0  0  0
   13.5970   -3.0003   26.3658 O   0  0  0  0  0  0  0  0  0  0  0  0
   12.9440   -1.9622   23.8052 C   0  0  0  0  0  0  0  0  0  0  0  0
   12.6070   -3.1344   23.9490 O   0  0  0  0  0  0  0  0  0  0  0  0
   12.4946   -1.1937   22.8132 N   0  0  0  0  0  0  0  0  0  0  0  0
   11.5655   -1.7042   21.8284 C   0  0  0  0  0  0  0  0  0  0  0  0
   10.1274   -1.3126   22.1076 C   0  0  0  0  0  0  0  0  0  0  0  0
    9.7486   -1.0779   23.2509 O   0  0  0  0  0  0  0  0  0  0  0  0
    9.3193   -1.2510   21.0472 N   0  0  0  0  0  0  0  0  0  0  0  0
    7.9119   -0.9106   21.1764 C   0  0  0  0  0  0  0  0  0  0  0  0
    7.2173   -1.0270   19.8095 C   0  0  0  0  0  0  0  0  0  0  0  0
    6.1562    0.0181   19.5629 C   0  0  0  0  0  0  0  0  0  0  0  0
    6.2233    0.8483   18.4547 C   0  0  0  0  0  0  0  0  0  0  0  0
    5.2484    1.8051   18.2264 C   0  0  0  0  0  0  0  0  0  0  0  0
    4.1943    1.9423   19.1038 C   0  0  0  0  0  0  0  0  0  0  0  0
    4.1150    1.1225   20.2089 C   0  0  0  0  0  0  0  0  0  0  0  0
    5.0901    0.1657   20.4367 C   0  0  0  0  0  0  0  0  0  0  0  0
    7.2380   -1.8155   22.2057 C   0  0  0  0  0  0  0  0  0  0  0  0
    6.4596   -1.3402   23.0280 O   0  0  0  0  0  0  0  0  0  0  0  0
    7.5296   -3.1189   22.1584 N   0  0  0  0  0  0  0  0  0  0  0  0
    6.9372   -4.0668   23.0877 C   0  0  0  0  0  0  0  0  0  0  0  0
    5.5615   -4.5107   22.5812 C   0  0  0  0  0  0  0  0  0  0  0  0
    4.8187   -5.4579   23.5137 C   0  0  0  0  0  0  0  0  0  0  0  0
    3.6421   -6.1208   22.8252 C   0  0  0  0  0  0  0  0  0  0  0  0
    3.0033   -7.1202   23.6705 N   0  0  0  0  0  0  0  0  0  0  0  0
    2.2698   -8.1412   23.2404 C   0  0  0  0  0  0  0  0  0  0  0  0
    1.7226   -9.0093   24.0986 N   0  0  0  0  0  0  0  0  0  0  0  0
    2.0709   -8.3119   21.9444 N   0  0  0  0  0  0  0  0  0  0  0  0
    7.8593   -5.2634   23.2643 C   0  0  0  0  0  0  0  0  0  0  0  0
    8.0022   -5.9708   22.1723 O   0  0  0  0  0  0  0  0  0  0  0  0
    8.3951   -5.5263   24.3184 O   0  0  0  0  0  0  0  0  0  0  0  0
  2  1  1  0
  2  3  1  0
  3  4  1  0
  2  5  1  0
  5  6  2  0
  5  7  1  0
  7  8  1  0
  8  9  1  0
  9 10  2  0
  9 11  1  0
 11 12  1  0
 12 13  1  0
 13 14  1  0
 14 15  2  0
 15 16  1  0
 16 17  2  0
 17 18  1  0
 18 19  2  0
 12 20  1  0
 20 21  2  0
 20 22  1  0
 22 23  1  0
 23 24  1  0
 24 25  1  0
 25 26  1  0
 26 27  1  0
 27 28  1  0
 28 29  1  0
 28 30  2  0
 23 31  1  0
 31 32  1  0
 31 33  2  0
 19 14  1  0
M  END
