CVD-0000133|dock_bobby27042020.42|mol2|34|dock1
     RDKit          3D

 23 24  0  0  0  0  0  0  0  0999 V2000
    9.0898   -5.8204   26.8221 C   0  0  0  0  0  0  0  0  0  0  0  0
    9.8685   -5.0860   25.4271 S   0  0  0  0  0  0  0  0  0  0  0  0
    9.1295   -5.6070   24.3131 O   0  0  0  0  0  0  0  0  0  0  0  0
   11.2582   -5.3884   25.6163 O   0  0  0  0  0  0  0  0  0  0  0  0
    9.6543   -3.4845   25.5081 N   0  0  0  0  0  0  0  0  0  0  0  0
   10.3561   -2.6151   24.5592 C   0  0  0  0  0  0  0  0  0  0  0  0
    9.3907   -1.9785   23.5710 C   0  0  0  0  0  0  0  0  0  0  0  0
   10.0085   -1.7909   22.1711 C   0  0  0  0  0  0  0  0  0  0  0  0
    9.0390   -1.1627   21.1737 C   0  0  0  0  0  0  0  0  0  0  0  0
    9.5905   -0.4986   20.0655 O   0  0  0  0  0  0  0  0  0  0  0  0
    8.1171   -2.0725   20.4031 N   0  0  0  0  0  0  0  0  0  0  0  0
    7.1988   -1.6239   19.4997 C   0  0  0  0  0  0  0  0  0  0  0  0
    6.3374   -2.5076   18.8497 C   0  0  0  0  0  0  0  0  0  0  0  0
    5.4326   -1.9804   17.9438 C   0  0  0  0  0  0  0  0  0  0  0  0
    5.4042   -0.6228   17.7114 C   0  0  0  0  0  0  0  0  0  0  0  0
    6.2914    0.1706   18.4011 C   0  0  0  0  0  0  0  0  0  0  0  0
    7.1794   -0.3050   19.2835 N   0  0  0  0  0  0  0  0  0  0  0  0
   11.2586   -0.9428   22.2920 C   0  0  0  0  0  0  0  0  0  0  0  0
   12.5165   -1.5293   22.3034 C   0  0  0  0  0  0  0  0  0  0  0  0
   13.6586   -0.7542   22.4168 C   0  0  0  0  0  0  0  0  0  0  0  0
   13.5576    0.6166   22.5208 C   0  0  0  0  0  0  0  0  0  0  0  0
   12.3150    1.2128   22.5120 C   0  0  0  0  0  0  0  0  0  0  0  0
   11.1725    0.4384   22.3987 C   0  0  0  0  0  0  0  0  0  0  0  0
  1  2  1  0
  2  3  1  0
  2  4  1  0
  2  5  1  0
  5  6  1  0
  6  7  1  0
  7  8  1  0
  8  9  1  0
  9 10  1  0
  9 11  1  0
 11 12  1  0
 12 13  2  0
 13 14  1  0
 14 15  2  0
 15 16  1  0
 16 17  2  0
  8 18  1  0
 18 19  2  0
 19 20  1  0
 20 21  2  0
 21 22  1  0
 22 23  2  0
 17 12  1  0
 23 18  1  0
M  END
