CVD-0001272|dock_bobby27042020.81|mol2|34|dock1
     RDKit          3D

 24 26  0  0  0  0  0  0  0  0999 V2000
    8.5206   -5.4604   27.5943 C   0  0  0  0  0  0  0  0  0  0  0  0
    8.7707   -4.7907   26.3192 N   0  0  0  0  0  0  0  0  0  0  0  0
   10.0481   -5.2226   25.7471 C   0  0  0  0  0  0  0  0  0  0  0  0
   10.2812   -4.5924   24.3901 C   0  0  0  0  0  0  0  0  0  0  0  0
   10.2760   -3.0631   24.4797 C   0  0  0  0  0  0  0  0  0  0  0  0
    8.9724   -2.6293   25.1603 C   0  0  0  0  0  0  0  0  0  0  0  0
    8.7739   -3.3391   26.4896 C   0  0  0  0  0  0  0  0  0  0  0  0
   10.4743   -2.3645   23.1152 C   0  0  0  0  0  0  0  0  0  0  0  0
    9.2429   -1.7187   22.5955 N   0  0  0  0  0  0  0  0  0  0  0  0
    8.4463   -2.6605   21.7920 C   0  0  0  0  0  0  0  0  0  0  0  0
    7.1753   -2.0114   21.3095 C   0  0  0  0  0  0  0  0  0  0  0  0
    7.4724   -0.7963   20.5448 N   0  0  0  0  0  0  0  0  0  0  0  0
    8.3218    0.1361   21.2833 C   0  0  0  0  0  0  0  0  0  0  0  0
    9.5721   -0.5735   21.7456 C   0  0  0  0  0  0  0  0  0  0  0  0
    6.9336   -0.4494   19.3542 C   0  0  0  0  0  0  0  0  0  0  0  0
    7.2592    0.5901   18.7948 O   0  0  0  0  0  0  0  0  0  0  0  0
    5.9205   -1.3825   18.7189 C   0  0  0  0  0  0  0  0  0  0  0  0
    5.1936   -0.6476   17.2842 Cl  0  0  0  0  0  0  0  0  0  0  0  0
   11.6112   -1.3649   23.1694 C   0  0  0  0  0  0  0  0  0  0  0  0
   11.6879   -0.4332   24.1952 C   0  0  0  0  0  0  0  0  0  0  0  0
   12.7259    0.4823   24.2425 C   0  0  0  0  0  0  0  0  0  0  0  0
   13.6982    0.4780   23.2653 C   0  0  0  0  0  0  0  0  0  0  0  0
   13.6335   -0.4412   22.2401 C   0  0  0  0  0  0  0  0  0  0  0  0
   12.5961   -1.3574   22.1917 C   0  0  0  0  0  0  0  0  0  0  0  0
  1  2  1  0
  2  3  1  0
  3  4  1  0
  4  5  1  0
  5  6  1  0
  6  7  1  0
  5  8  1  0
  8  9  1  0
  9 10  1  0
 10 11  1  0
 11 12  1  0
 12 13  1  0
 13 14  1  0
 12 15  1  0
 15 16  2  0
 15 17  1  0
 17 18  1  0
  8 19  1  0
 19 20  2  0
 20 21  1  0
 21 22  2  0
 22 23  1  0
 23 24  2  0
  7  2  1  0
 14  9  1  0
 24 19  1  0
M  END
