CVD-0004047|dock_bobby27042020.43|mol2|18|dock2
     RDKit          3D

 23 26  0  0  0  0  0  0  0  0999 V2000
   12.1941    5.5965   22.2404 C   0  0  0  0  0  0  0  0  0  0  0  0
   12.2612    4.1120   22.4707 C   0  0  0  0  0  0  0  0  0  0  0  0
   13.5095    3.4762   22.8455 C   0  0  0  0  0  0  0  0  0  0  0  0
   13.6590    2.1913   23.0738 N   0  0  0  0  0  0  0  0  0  0  0  0
   12.5495    1.4223   22.9488 C   0  0  0  0  0  0  0  0  0  0  0  0
   12.3031   -0.0010   23.1035 C   0  0  0  0  0  0  0  0  0  0  0  0
   13.2886   -1.0387   23.4369 C   0  0  0  0  0  0  0  0  0  0  0  0
   13.8823   -1.3298   24.7009 C   0  0  0  0  0  0  0  0  0  0  0  0
   14.7369   -2.3954   24.4512 C   0  0  0  0  0  0  0  0  0  0  0  0
   14.7161   -2.7710   23.1786 N   0  0  0  0  0  0  0  0  0  0  0  0
   13.8219   -1.9441   22.5679 N   0  0  0  0  0  0  0  0  0  0  0  0
   13.6226   -2.1067   21.1334 C   0  0  0  0  0  0  0  0  0  0  0  0
   10.8995   -0.1271   22.8355 C   0  0  0  0  0  0  0  0  0  0  0  0
   10.3518    1.0446   22.5082 N   0  0  0  0  0  0  0  0  0  0  0  0
   11.3434    1.9829   22.5925 N   0  0  0  0  0  0  0  0  0  0  0  0
   11.1836    3.3054   22.3557 C   0  0  0  0  0  0  0  0  0  0  0  0
    9.9736   -1.2800   22.8672 C   0  0  0  0  0  0  0  0  0  0  0  0
    8.7986   -1.3181   22.1228 C   0  0  0  0  0  0  0  0  0  0  0  0
    7.9325   -2.3936   22.2099 C   0  0  0  0  0  0  0  0  0  0  0  0
    8.2740   -3.4414   23.0198 C   0  0  0  0  0  0  0  0  0  0  0  0
    7.4251   -4.5008   23.1093 F   0  0  0  0  0  0  0  0  0  0  0  0
    9.4348   -3.4681   23.7421 C   0  0  0  0  0  0  0  0  0  0  0  0
   10.2851   -2.3800   23.6597 C   0  0  0  0  0  0  0  0  0  0  0  0
  1  2  1  0
  2  3  1  0
  3  4  2  0
  4  5  1  0
  5  6  2  0
  6  7  1  0
  7  8  2  0
  8  9  1  0
  9 10  2  0
 10 11  1  0
 11 12  1  0
  6 13  1  0
 13 14  2  0
 14 15  1  0
 15 16  1  0
 13 17  1  0
 17 18  2  0
 18 19  1  0
 19 20  2  0
 20 21  1  0
 20 22  1  0
 22 23  2  0
 16  2  2  0
 23 17  1  0
 15  5  1  0
 11  7  1  0
M  END
