CVD-0001454|dock_bobby27042020.95|mol2|17|dock1
     RDKit          3D

 30 33  0  0  0  0  0  0  0  0999 V2000
   12.7723    3.7868   21.6473 C   0  0  0  0  0  0  0  0  0  0  0  0
   13.0188    3.1260   22.7474 C   0  0  0  0  0  0  0  0  0  0  0  0
   13.6972    1.7999   22.7083 C   0  0  0  0  0  0  0  0  0  0  0  0
   14.8391    1.7018   22.2618 O   0  0  0  0  0  0  0  0  0  0  0  0
   13.0388    0.7131   23.1698 N   0  0  0  0  0  0  0  0  0  0  0  0
   11.7010    0.7868   23.7612 C   0  0  0  0  0  0  0  0  0  0  0  0
   10.7568   -0.1701   23.0573 C   0  0  0  0  0  0  0  0  0  0  0  0
   11.2710   -1.5405   23.1369 N   0  0  0  0  0  0  0  0  0  0  0  0
   10.3399   -2.4775   22.4909 C   0  0  0  0  0  0  0  0  0  0  0  0
    8.9073   -1.9979   22.4981 C   0  0  0  0  0  0  0  0  0  0  0  0
    8.1359   -2.0727   23.6547 C   0  0  0  0  0  0  0  0  0  0  0  0
    6.8208   -1.6318   23.6720 C   0  0  0  0  0  0  0  0  0  0  0  0
    6.2335   -1.1005   22.5336 C   0  0  0  0  0  0  0  0  0  0  0  0
    6.9693   -1.0051   21.3532 C   0  0  0  0  0  0  0  0  0  0  0  0
    6.7013   -0.5263   20.0270 C   0  0  0  0  0  0  0  0  0  0  0  0
    5.4077    0.0555   19.5370 C   0  0  0  0  0  0  0  0  0  0  0  0
    5.5811    1.4031   18.8654 C   0  0  0  0  0  0  0  0  0  0  0  0
    4.3052    2.0702   18.6491 N   0  0  0  0  0  0  0  0  0  0  0  0
    3.5946    2.5950   19.6463 C   0  0  0  0  0  0  0  0  0  0  0  0
    3.9591    2.5570   20.8206 O   0  0  0  0  0  0  0  0  0  0  0  0
    2.3182    3.2409   19.2742 C   0  0  0  0  0  0  0  0  0  0  0  0
    0.9968    3.1199   19.7518 C   0  0  0  0  0  0  0  0  0  0  0  0
    0.1957    4.0053   18.9935 C   0  0  0  0  0  0  0  0  0  0  0  0
    1.0094    4.6303   18.0979 C   0  0  0  0  0  0  0  0  0  0  0  0
    2.2869    4.1719   18.2650 N   0  0  0  0  0  0  0  0  0  0  0  0
    7.8504   -0.7075   19.3144 C   0  0  0  0  0  0  0  0  0  0  0  0
    8.8191   -1.2666   20.1029 N   0  0  0  0  0  0  0  0  0  0  0  0
    8.3009   -1.4588   21.3598 C   0  0  0  0  0  0  0  0  0  0  0  0
   12.5811   -1.5963   22.4937 C   0  0  0  0  0  0  0  0  0  0  0  0
   13.5574   -0.6583   23.1801 C   0  0  0  0  0  0  0  0  0  0  0  0
  1  2  2  0
  2  3  1  0
  3  4  2  0
  3  5  1  0
  5  6  1  0
  6  7  1  0
  7  8  1  0
  8  9  1  0
  9 10  1  0
 10 11  2  0
 11 12  1  0
 12 13  2  0
 13 14  1  0
 14 15  1  0
 15 16  1  0
 16 17  1  0
 17 18  1  0
 18 19  1  0
 19 20  2  0
 19 21  1  0
 21 22  2  0
 22 23  1  0
 23 24  2  0
 24 25  1  0
 15 26  2  0
 26 27  1  0
 27 28  1  0
  8 29  1  0
 29 30  1  0
 30  5  1  0
 28 10  1  0
 28 14  2  0
 25 21  1  0
M  END
