CVD-0002509|dock_bobby27042020.77|mol2|10|dock2
     RDKit          3D

 21 22  0  0  0  0  0  0  0  0999 V2000
   14.1251   -2.0517   25.8078 C   0  0  0  0  0  0  0  0  0  0  0  0
   13.4609   -1.7760   24.4808 C   0  0  0  0  0  0  0  0  0  0  0  0
   13.9898   -2.2789   23.3023 C   0  0  0  0  0  0  0  0  0  0  0  0
   13.3757   -2.0258   22.0873 C   0  0  0  0  0  0  0  0  0  0  0  0
   12.2206   -1.2646   22.0394 C   0  0  0  0  0  0  0  0  0  0  0  0
   11.6702   -0.7527   23.2032 C   0  0  0  0  0  0  0  0  0  0  0  0
   10.4127    0.0813   23.1645 C   0  0  0  0  0  0  0  0  0  0  0  0
    9.1637   -0.6256   23.7093 C   0  0  0  0  0  0  0  0  0  0  0  0
    8.8534   -1.8763   22.9205 C   0  0  0  0  0  0  0  0  0  0  0  0
    8.5308   -1.6332   21.4419 C   0  0  0  0  0  0  0  0  0  0  0  0
    7.5710   -0.4626   21.2864 N   0  0  0  0  0  0  0  0  0  0  0  0
    7.4434    0.6680   22.3121 C   0  0  0  0  0  0  0  0  0  0  0  0
    7.8940    0.1996   23.7033 C   0  0  0  0  0  0  0  0  0  0  0  0
    8.1678    1.9111   21.8178 C   0  0  0  0  0  0  0  0  0  0  0  0
    7.9313    2.9634   22.5587 O   0  0  0  0  0  0  0  0  0  0  0  0
    8.8845    1.9129   20.8412 O   0  0  0  0  0  0  0  0  0  0  0  0
    6.8725   -0.4630   20.1217 C   0  0  0  0  0  0  0  0  0  0  0  0
    7.0085   -1.3755   19.3163 O   0  0  0  0  0  0  0  0  0  0  0  0
    5.9194    0.6727   19.7975 C   0  0  0  0  0  0  0  0  0  0  0  0
    5.3761    0.6055   18.1160 Cl  0  0  0  0  0  0  0  0  0  0  0  0
   12.3023   -1.0170   24.4114 C   0  0  0  0  0  0  0  0  0  0  0  0
  1  2  1  0
  2  3  2  0
  3  4  1  0
  4  5  2  0
  5  6  1  0
  6  7  1  0
  7  8  1  0
  8  9  1  0
  9 10  1  0
 10 11  1  0
 11 12  1  0
 12 13  1  0
 12 14  1  0
 14 15  1  0
 14 16  2  0
 11 17  1  0
 17 18  2  0
 17 19  1  0
 19 20  1  0
  6 21  2  0
 21  2  1  0
 13  8  1  0
M  END
