CVD-0002305|dock_bobby27042020.78|mol2|1|dock3
     RDKit          3D

 40 43  0  0  0  0  0  0  0  0999 V2000
   13.5511   -0.5376   23.1165 C   0  0  0  0  0  0  0  0  0  0  0  0
   12.9117    0.7020   22.4911 C   0  0  0  0  0  0  0  0  0  0  0  0
   13.8359    1.8664   22.8518 C   0  0  0  0  0  0  0  0  0  0  0  0
   11.4454    0.8951   22.9774 C   0  0  0  0  0  0  0  0  0  0  0  0
   11.4199    1.2260   24.4715 C   0  0  0  0  0  0  0  0  0  0  0  0
   10.7681   -0.3863   22.7648 N   0  0  0  0  0  0  0  0  0  0  0  0
   10.6897   -0.9119   21.3993 C   0  0  0  0  0  0  0  0  0  0  0  0
    9.4406   -1.7322   21.2121 C   0  0  0  0  0  0  0  0  0  0  0  0
    9.0563   -2.8213   22.0148 C   0  0  0  0  0  0  0  0  0  0  0  0
    7.8609   -3.3432   21.5584 C   0  0  0  0  0  0  0  0  0  0  0  0
    7.1424   -4.5011   22.1426 C   0  0  0  0  0  0  0  0  0  0  0  0
    6.5721   -5.4081   21.2477 C   0  0  0  0  0  0  0  0  0  0  0  0
    5.9300   -6.5485   21.7004 C   0  0  0  0  0  0  0  0  0  0  0  0
    5.8373   -6.8063   23.0499 C   0  0  0  0  0  0  0  0  0  0  0  0
    6.3584   -5.9070   23.9628 C   0  0  0  0  0  0  0  0  0  0  0  0
    6.9677   -4.7673   23.4937 C   0  0  0  0  0  0  0  0  0  0  0  0
    7.3881   -3.8776   24.4189 F   0  0  0  0  0  0  0  0  0  0  0  0
    7.4790   -2.5378   20.4510 N   0  0  0  0  0  0  0  0  0  0  0  0
    8.4531   -1.5674   20.2514 C   0  0  0  0  0  0  0  0  0  0  0  0
    6.1192   -2.5664   19.4369 S   0  0  0  0  0  0  0  0  0  0  0  0
    6.5239   -3.1015   18.1745 O   0  0  0  0  0  0  0  0  0  0  0  0
    5.1087   -3.2426   20.1896 O   0  0  0  0  0  0  0  0  0  0  0  0
    5.6069   -0.8926   19.2518 C   0  0  0  0  0  0  0  0  0  0  0  0
    5.6431   -0.2830   18.0094 C   0  0  0  0  0  0  0  0  0  0  0  0
    5.2273    1.0333   17.9080 C   0  0  0  0  0  0  0  0  0  0  0  0
    4.7949    1.6808   19.0433 C   0  0  0  0  0  0  0  0  0  0  0  0
    4.7532    1.1055   20.2460 N   0  0  0  0  0  0  0  0  0  0  0  0
    5.1557   -0.1653   20.3369 C   0  0  0  0  0  0  0  0  0  0  0  0
   10.6474    1.9981   22.2385 C   0  0  0  0  0  0  0  0  0  0  0  0
   11.0904    2.4253   21.1982 O   0  0  0  0  0  0  0  0  0  0  0  0
    9.3487    2.5424   22.7552 C   0  0  0  0  0  0  0  0  0  0  0  0
    9.4856    4.0125   23.1311 C   0  0  0  0  0  0  0  0  0  0  0  0
    8.1604    4.5642   23.6150 C   0  0  0  0  0  0  0  0  0  0  0  0
    7.1403    4.3864   22.5851 N   0  0  0  0  0  0  0  0  0  0  0  0
    6.9355    2.9862   22.2302 C   0  0  0  0  0  0  0  0  0  0  0  0
    8.2388    2.3818   21.7186 C   0  0  0  0  0  0  0  0  0  0  0  0
    6.2546    5.3272   22.1797 C   0  0  0  0  0  0  0  0  0  0  0  0
    5.4387    5.0978   21.2957 O   0  0  0  0  0  0  0  0  0  0  0  0
    6.2831    6.6869   22.8516 C   0  0  0  0  0  0  0  0  0  0  0  0
    4.9464    7.6932   22.2793 Cl  0  0  0  0  0  0  0  0  0  0  0  0
  1  2  1  0
  2  3  1  0
  2  4  1  0
  4  5  1  0
  4  6  1  0
  6  7  1  0
  7  8  1  0
  8  9  1  0
  9 10  2  0
 10 11  1  0
 11 12  2  0
 12 13  1  0
 13 14  2  0
 14 15  1  0
 15 16  2  0
 16 17  1  0
 10 18  1  0
 18 19  1  0
 18 20  1  0
 20 21  2  0
 20 22  2  0
 20 23  1  0
 23 24  2  0
 24 25  1  0
 25 26  2  0
 26 27  1  0
 27 28  2  0
  4 29  1  0
 29 30  2  0
 29 31  1  0
 31 32  1  0
 32 33  1  0
 33 34  1  0
 34 35  1  0
 35 36  1  0
 34 37  1  0
 37 38  2  0
 37 39  1  0
 39 40  1  0
 19  8  2  0
 28 23  1  0
 36 31  1  0
 16 11  1  0
M  END
