CVD-0000488|dock_bobby27042020.70|mol2|5|dock2
     RDKit          3D

 30 33  0  0  0  0  0  0  0  0999 V2000
    7.7377   -1.2746   24.3966 O   0  0  0  0  0  0  0  0  0  0  0  0
    8.5858   -0.4436   24.0865 C   0  0  0  0  0  0  0  0  0  0  0  0
    8.6006    0.8574   23.4061 C   0  0  0  0  0  0  0  0  0  0  0  0
    7.6617    1.6281   22.8649 N   0  0  0  0  0  0  0  0  0  0  0  0
    6.2390    1.3224   22.8180 C   0  0  0  0  0  0  0  0  0  0  0  0
    5.9442    0.2133   21.8270 C   0  0  0  0  0  0  0  0  0  0  0  0
    6.0217    0.6438   20.4237 N   0  0  0  0  0  0  0  0  0  0  0  0
    4.7570    1.2575   20.0125 C   0  0  0  0  0  0  0  0  0  0  0  0
    4.7914    1.6542   18.5536 C   0  0  0  0  0  0  0  0  0  0  0  0
    5.0868    0.5026   17.6881 N   0  0  0  0  0  0  0  0  0  0  0  0
    6.3360   -0.1454   18.1202 C   0  0  0  0  0  0  0  0  0  0  0  0
    6.2850   -0.5181   19.5786 C   0  0  0  0  0  0  0  0  0  0  0  0
   10.0045    0.9765   23.5489 C   0  0  0  0  0  0  0  0  0  0  0  0
   10.9555    1.8825   23.2111 N   0  0  0  0  0  0  0  0  0  0  0  0
   10.6144    3.1232   22.5081 C   0  0  0  0  0  0  0  0  0  0  0  0
   11.6899    4.1828   22.5237 C   0  0  0  0  0  0  0  0  0  0  0  0
   12.6019    4.3003   21.4883 C   0  0  0  0  0  0  0  0  0  0  0  0
   13.5616    5.2949   21.5614 C   0  0  0  0  0  0  0  0  0  0  0  0
   13.5861    6.1367   22.6518 C   0  0  0  0  0  0  0  0  0  0  0  0
   12.6412    5.9494   23.6348 C   0  0  0  0  0  0  0  0  0  0  0  0
   11.7016    4.9956   23.5891 N   0  0  0  0  0  0  0  0  0  0  0  0
   12.3740    1.6437   23.4931 C   0  0  0  0  0  0  0  0  0  0  0  0
   12.8312    0.2348   23.2008 C   0  0  0  0  0  0  0  0  0  0  0  0
   12.2780   -0.5036   22.1683 C   0  0  0  0  0  0  0  0  0  0  0  0
   12.7388   -1.7911   21.9545 C   0  0  0  0  0  0  0  0  0  0  0  0
   13.7269   -2.3029   22.7671 C   0  0  0  0  0  0  0  0  0  0  0  0
   14.2193   -1.4999   23.7705 C   0  0  0  0  0  0  0  0  0  0  0  0
   13.7915   -0.2511   23.9993 N   0  0  0  0  0  0  0  0  0  0  0  0
   10.0655   -0.3240   24.2437 C   0  0  0  0  0  0  0  0  0  0  0  0
   10.9471   -1.0181   24.7408 O   0  0  0  0  0  0  0  0  0  0  0  0
  1  2  2  0
  2  3  1  0
  3  4  1  0
  4  5  1  0
  5  6  1  0
  6  7  1  0
  7  8  1  0
  8  9  1  0
  9 10  1  0
 10 11  1  0
 11 12  1  0
  3 13  2  0
 13 14  1  0
 14 15  1  0
 15 16  1  0
 16 17  2  0
 17 18  1  0
 18 19  2  0
 19 20  1  0
 20 21  2  0
 14 22  1  0
 22 23  1  0
 23 24  2  0
 24 25  1  0
 25 26  2  0
 26 27  1  0
 27 28  2  0
 13 29  1  0
 29 30  2  0
 29  2  1  0
 12  7  1  0
 21 16  1  0
 28 23  1  0
M  END
