CVD-0003133|dock_bobby27042020.17|mol2|23|dock1
     RDKit          3D

 18 21  0  0  0  0  0  0  0  0999 V2000
    8.5072   -0.2509   22.7638 O   0  0  0  0  0  0  0  0  0  0  0  0
    9.2646   -0.7643   21.9491 C   0  0  0  0  0  0  0  0  0  0  0  0
    8.8332   -1.0764   20.7115 N   0  0  0  0  0  0  0  0  0  0  0  0
    7.4568   -0.8087   20.3298 C   0  0  0  0  0  0  0  0  0  0  0  0
    7.0002   -1.1461   18.9302 C   0  0  0  0  0  0  0  0  0  0  0  0
    5.5033   -1.2824   18.7188 C   0  0  0  0  0  0  0  0  0  0  0  0
    4.9189   -0.0295   19.3787 C   0  0  0  0  0  0  0  0  0  0  0  0
    5.9918    1.0489   19.3256 C   0  0  0  0  0  0  0  0  0  0  0  0
    7.2947    0.2641   19.2734 C   0  0  0  0  0  0  0  0  0  0  0  0
   10.5573   -1.0234   22.2984 N   0  0  0  0  0  0  0  0  0  0  0  0
   11.4427   -1.9546   21.5862 C   0  0  0  0  0  0  0  0  0  0  0  0
   12.2996   -2.7085   22.5728 C   0  0  0  0  0  0  0  0  0  0  0  0
   12.9940   -1.7215   23.4095 N   0  0  0  0  0  0  0  0  0  0  0  0
   14.1257   -1.8402   24.1560 C   0  0  0  0  0  0  0  0  0  0  0  0
   14.2997   -0.8145   24.9613 N   0  0  0  0  0  0  0  0  0  0  0  0
   13.2256    0.0172   24.7278 C   0  0  0  0  0  0  0  0  0  0  0  0
   12.4172   -0.5346   23.7734 C   0  0  0  0  0  0  0  0  0  0  0  0
   11.2932    0.0436   22.9719 C   0  0  0  0  0  0  0  0  0  0  0  0
  1  2  2  0
  2  3  1  0
  4  3  1  0
  4  5  1  0
  5  6  1  0
  6  7  1  0
  7  8  1  0
  9  8  1  0
  2 10  1  0
 10 11  1  0
 11 12  1  0
 12 13  1  0
 13 14  1  0
 14 15  2  0
 15 16  1  0
 16 17  2  0
 17 18  1  0
  9  4  1  0
 18 10  1  0
  9  5  1  0
 17 13  1  0
M  END
