CVD-0003254|dock_bobby27042020.88|mol2|31|dock3
     RDKit          3D

 28 30  0  0  0  0  0  0  0  0999 V2000
    6.4123   -1.0713   22.8089 O   0  0  0  0  0  0  0  0  0  0  0  0
    6.5654   -0.6433   21.5297 C   0  0  0  0  0  0  0  0  0  0  0  0
    5.5499    0.0925   20.9311 C   0  0  0  0  0  0  0  0  0  0  0  0
    5.6940    0.5348   19.6270 C   0  0  0  0  0  0  0  0  0  0  0  0
    6.8441    0.2450   18.9245 C   0  0  0  0  0  0  0  0  0  0  0  0
    7.8562   -0.4883   19.5212 C   0  0  0  0  0  0  0  0  0  0  0  0
    7.7369   -0.9453   20.8309 C   0  0  0  0  0  0  0  0  0  0  0  0
    8.8701   -1.7430   21.4411 C   0  0  0  0  0  0  0  0  0  0  0  0
   10.0758   -0.8652   21.7871 C   0  0  0  0  0  0  0  0  0  0  0  0
    9.9730   -0.0680   23.0905 C   0  0  0  0  0  0  0  0  0  0  0  0
   10.4014   -0.8591   24.3174 C   0  0  0  0  0  0  0  0  0  0  0  0
   11.8361   -1.0785   24.3074 N   0  0  0  0  0  0  0  0  0  0  0  0
   12.5865    0.1762   24.2730 C   0  0  0  0  0  0  0  0  0  0  0  0
   12.2309    0.9669   23.0539 C   0  0  0  0  0  0  0  0  0  0  0  0
   10.7868    1.1663   23.0282 N   0  0  0  0  0  0  0  0  0  0  0  0
   10.1738    2.4598   22.2105 S   0  0  0  0  0  0  0  0  0  0  0  0
   10.1638    2.0837   20.8316 O   0  0  0  0  0  0  0  0  0  0  0  0
    8.9449    2.8634   22.8153 O   0  0  0  0  0  0  0  0  0  0  0  0
   11.3026    3.7791   22.3467 C   0  0  0  0  0  0  0  0  0  0  0  0
   11.1817    4.8424   23.2079 C   0  0  0  0  0  0  0  0  0  0  0  0
   12.2376    5.7431   23.0951 C   0  0  0  0  0  0  0  0  0  0  0  0
   13.1312    5.3539   22.1634 C   0  0  0  0  0  0  0  0  0  0  0  0
   14.5685    6.1759   21.7163 Cl  0  0  0  0  0  0  0  0  0  0  0  0
   12.7220    3.8797   21.3900 S   0  0  0  0  0  0  0  0  0  0  0  0
   12.4566   -2.2742   24.2151 C   0  0  0  0  0  0  0  0  0  0  0  0
   11.8221   -3.3173   24.1210 O   0  0  0  0  0  0  0  0  0  0  0  0
   13.9728   -2.2805   24.2407 C   0  0  0  0  0  0  0  0  0  0  0  0
   14.5842   -1.6132   25.7599 Cl  0  0  0  0  0  0  0  0  0  0  0  0
  1  2  1  0
  2  3  2  0
  3  4  1  0
  4  5  2  0
  5  6  1  0
  6  7  2  0
  7  8  1  0
  8  9  1  0
 10  9  1  0
 10 11  1  0
 11 12  1  0
 12 13  1  0
 13 14  1  0
 14 15  1  0
 15 16  1  0
 16 17  2  0
 16 18  2  0
 16 19  1  0
 19 20  2  0
 20 21  1  0
 21 22  2  0
 22 23  1  0
 22 24  1  0
 12 25  1  0
 25 26  2  0
 25 27  1  0
 27 28  1  0
  7  2  1  0
 15 10  1  0
 24 19  1  0
M  END
