CVD-0000319|dock_bobby27042020.42|mol2|6|dock1
     RDKit          3D

 23 24  0  0  0  0  0  0  0  0999 V2000
    6.1860   -5.7660   21.1104 C   0  0  0  0  0  0  0  0  0  0  0  0
    6.5012   -4.3055   21.2484 C   0  0  0  0  0  0  0  0  0  0  0  0
    5.8694   -3.4450   20.6433 O   0  0  0  0  0  0  0  0  0  0  0  0
    7.4975   -3.9956   22.0804 N   0  0  0  0  0  0  0  0  0  0  0  0
    7.9103   -2.6226   22.3336 C   0  0  0  0  0  0  0  0  0  0  0  0
    8.4560   -1.9581   21.0851 C   0  0  0  0  0  0  0  0  0  0  0  0
    9.0349   -0.6101   21.3828 C   0  0  0  0  0  0  0  0  0  0  0  0
    8.5243    0.6517   21.2967 C   0  0  0  0  0  0  0  0  0  0  0  0
    9.4440    1.5946   21.6835 N   0  0  0  0  0  0  0  0  0  0  0  0
   10.5384    0.9179   22.0150 C   0  0  0  0  0  0  0  0  0  0  0  0
   11.8481    1.3740   22.5031 C   0  0  0  0  0  0  0  0  0  0  0  0
   12.1370    2.8377   22.7049 C   0  0  0  0  0  0  0  0  0  0  0  0
   12.9760    3.4419   21.5965 C   0  0  0  0  0  0  0  0  0  0  0  0
   13.0127    4.9051   21.7063 N   0  0  0  0  0  0  0  0  0  0  0  0
   13.8851    5.5918   22.8631 S   0  0  0  0  0  0  0  0  0  0  0  0
   12.7865    6.0870   24.1337 C   0  0  0  0  0  0  0  0  0  0  0  0
   14.4737    6.7682   22.3015 O   0  0  0  0  0  0  0  0  0  0  0  0
   14.7490    4.5818   23.3918 O   0  0  0  0  0  0  0  0  0  0  0  0
   12.7738    0.4360   22.7570 C   0  0  0  0  0  0  0  0  0  0  0  0
   12.4998   -0.9359   22.5647 C   0  0  0  0  0  0  0  0  0  0  0  0
   13.7486   -2.0835   22.9176 Cl  0  0  0  0  0  0  0  0  0  0  0  0
   11.3086   -1.3790   22.1190 C   0  0  0  0  0  0  0  0  0  0  0  0
   10.3372   -0.4431   21.8474 N   0  0  0  0  0  0  0  0  0  0  0  0
  1  2  1  0
  2  3  2  0
  2  4  1  0
  4  5  1  0
  5  6  1  0
  6  7  1  0
  7  8  2  0
  8  9  1  0
  9 10  2  0
 10 11  1  0
 11 12  1  0
 12 13  1  0
 13 14  1  0
 14 15  1  0
 15 16  1  0
 15 17  2  0
 15 18  2  0
 11 19  2  0
 19 20  1  0
 20 21  1  0
 20 22  2  0
 22 23  1  0
 23  7  1  0
 23 10  1  0
M  END
