CVD-0002824|dock_bobby27042020.47|mol2|16|dock3
     RDKit          3D

 28 31  0  0  0  0  0  0  0  0999 V2000
   14.1206    5.5560   22.7444 N   0  0  0  0  0  0  0  0  0  0  0  0
   12.7307    4.9056   23.2005 S   0  0  0  0  0  0  0  0  0  0  0  0
   11.7139    5.4343   22.3416 O   0  0  0  0  0  0  0  0  0  0  0  0
   12.6140    5.1039   24.6140 O   0  0  0  0  0  0  0  0  0  0  0  0
   12.8078    3.1631   22.9165 C   0  0  0  0  0  0  0  0  0  0  0  0
   14.0388    2.5624   22.7034 C   0  0  0  0  0  0  0  0  0  0  0  0
   14.1150    1.2198   22.4880 C   0  0  0  0  0  0  0  0  0  0  0  0
   12.9498    0.4165   22.4786 C   0  0  0  0  0  0  0  0  0  0  0  0
   12.9707   -0.9806   22.2600 C   0  0  0  0  0  0  0  0  0  0  0  0
   11.8191   -1.7084   22.2611 C   0  0  0  0  0  0  0  0  0  0  0  0
   10.5786   -1.1147   22.4754 C   0  0  0  0  0  0  0  0  0  0  0  0
   10.5312    0.2364   22.6902 C   0  0  0  0  0  0  0  0  0  0  0  0
   11.6958    1.0378   22.6989 C   0  0  0  0  0  0  0  0  0  0  0  0
   11.6552    2.4339   22.9193 C   0  0  0  0  0  0  0  0  0  0  0  0
    9.2806   -1.9187   22.4816 C   0  0  0  0  0  0  0  0  0  0  0  0
    8.8790   -2.2439   21.0812 C   0  0  0  0  0  0  0  0  0  0  0  0
    7.5692   -2.9406   21.0534 N   0  0  0  0  0  0  0  0  0  0  0  0
    7.3461   -4.0263   22.0270 C   0  0  0  0  0  0  0  0  0  0  0  0
    8.4537   -4.2123   23.0679 C   0  0  0  0  0  0  0  0  0  0  0  0
    8.4859   -5.3584   23.8555 C   0  0  0  0  0  0  0  0  0  0  0  0
    9.4129   -5.4952   24.8732 C   0  0  0  0  0  0  0  0  0  0  0  0
   10.3175   -4.4827   25.1108 C   0  0  0  0  0  0  0  0  0  0  0  0
   10.2871   -3.3424   24.3285 C   0  0  0  0  0  0  0  0  0  0  0  0
    9.3615   -3.1838   23.2979 C   0  0  0  0  0  0  0  0  0  0  0  0
    6.5232   -2.6109   20.2641 C   0  0  0  0  0  0  0  0  0  0  0  0
    5.4717   -3.2370   20.3093 O   0  0  0  0  0  0  0  0  0  0  0  0
    6.6896   -1.4407   19.3136 C   0  0  0  0  0  0  0  0  0  0  0  0
    5.2977   -1.3020   18.2318 Cl  0  0  0  0  0  0  0  0  0  0  0  0
  1  2  1  0
  2  3  2  0
  2  4  2  0
  2  5  1  0
  5  6  2  0
  6  7  1  0
  7  8  2  0
  8  9  1  0
  9 10  2  0
 10 11  1  0
 11 12  2  0
 12 13  1  0
 13 14  2  0
 11 15  1  0
 15 16  1  0
 16 17  1  0
 17 18  1  0
 18 19  1  0
 19 20  2  0
 20 21  1  0
 21 22  2  0
 22 23  1  0
 23 24  2  0
 17 25  1  0
 25 26  2  0
 25 27  1  0
 27 28  1  0
 14  5  1  0
 24 15  1  0
 13  8  1  0
 24 19  1  0
M  END
