CVD-0000176|dock_bobby27042020.28|mol2|14|dock3
     RDKit          3D

 16 17  0  0  0  0  0  0  0  0999 V2000
   14.8792   -2.0958   25.5055 C   0  0  0  0  0  0  0  0  0  0  0  0
   14.1166   -2.0867   24.1892 C   0  0  0  0  0  0  0  0  0  0  0  0
   12.6394   -2.3401   24.3606 C   0  0  0  0  0  0  0  0  0  0  0  0
   12.1371   -2.5002   25.4688 O   0  0  0  0  0  0  0  0  0  0  0  0
   11.9263   -2.3777   23.2382 N   0  0  0  0  0  0  0  0  0  0  0  0
   10.4892   -2.6116   23.2233 C   0  0  0  0  0  0  0  0  0  0  0  0
    9.8169   -1.9689   22.0216 C   0  0  0  0  0  0  0  0  0  0  0  0
    8.2948   -1.8436   22.1718 C   0  0  0  0  0  0  0  0  0  0  0  0
    7.6608   -3.2341   22.3315 C   0  0  0  0  0  0  0  0  0  0  0  0
    6.4514   -3.2593   21.4280 C   0  0  0  0  0  0  0  0  0  0  0  0
    6.7041   -2.1496   20.4432 C   0  0  0  0  0  0  0  0  0  0  0  0
    6.0270   -1.8397   19.2666 C   0  0  0  0  0  0  0  0  0  0  0  0
    6.3766   -0.7173   18.5315 C   0  0  0  0  0  0  0  0  0  0  0  0
    7.4011    0.0997   18.9657 C   0  0  0  0  0  0  0  0  0  0  0  0
    8.0783   -0.2046   20.1367 C   0  0  0  0  0  0  0  0  0  0  0  0
    7.7298   -1.3323   20.8788 C   0  0  0  0  0  0  0  0  0  0  0  0
  1  2  1  0
  2  3  1  0
  3  4  2  0
  3  5  1  0
  5  6  1  0
  6  7  1  0
  8  7  1  0
  8  9  1  0
  9 10  1  0
 10 11  1  0
 11 12  2  0
 12 13  1  0
 13 14  2  0
 14 15  1  0
 15 16  2  0
 16  8  1  0
 16 11  1  0
M  END
