CVD-0001934|dock_bobby27042020.36|mol2|27|dock1
     RDKit          3D

 23 24  0  0  0  0  0  0  0  0999 V2000
   13.5741   -2.0180   21.0112 N   0  0  0  0  0  0  0  0  0  0  0  0
   13.2345   -1.6674   22.5359 S   0  0  0  0  0  0  0  0  0  0  0  0
   14.4770   -1.5860   23.2434 O   0  0  0  0  0  0  0  0  0  0  0  0
   12.2522   -2.6121   22.9762 O   0  0  0  0  0  0  0  0  0  0  0  0
   12.4823   -0.0630   22.5924 C   0  0  0  0  0  0  0  0  0  0  0  0
   13.3147    1.0227   22.8211 C   0  0  0  0  0  0  0  0  0  0  0  0
   12.8001    2.3055   22.8769 C   0  0  0  0  0  0  0  0  0  0  0  0
   11.4461    2.4943   22.7028 C   0  0  0  0  0  0  0  0  0  0  0  0
   10.7369    4.2549   22.7750 Br  0  0  0  0  0  0  0  0  0  0  0  0
   10.5931    1.4352   22.4773 C   0  0  0  0  0  0  0  0  0  0  0  0
   11.0998    0.1442   22.4233 C   0  0  0  0  0  0  0  0  0  0  0  0
    9.9620   -1.1830   22.1312 S   0  0  0  0  0  0  0  0  0  0  0  0
   10.5232   -2.0125   21.1089 O   0  0  0  0  0  0  0  0  0  0  0  0
    9.6207   -1.7539   23.3982 O   0  0  0  0  0  0  0  0  0  0  0  0
    8.6061   -0.5564   21.5282 N   0  0  0  0  0  0  0  0  0  0  0  0
    7.5097   -0.1684   22.4243 C   0  0  0  0  0  0  0  0  0  0  0  0
    6.2138   -0.8401   22.0071 C   0  0  0  0  0  0  0  0  0  0  0  0
    5.7717   -0.4445   20.6190 C   0  0  0  0  0  0  0  0  0  0  0  0
    5.8842   -1.3307   19.5588 C   0  0  0  0  0  0  0  0  0  0  0  0
    5.4756   -0.9695   18.2857 C   0  0  0  0  0  0  0  0  0  0  0  0
    4.9482    0.2832   18.0575 C   0  0  0  0  0  0  0  0  0  0  0  0
    4.8293    1.1739   19.1024 C   0  0  0  0  0  0  0  0  0  0  0  0
    5.2381    0.8117   20.3751 C   0  0  0  0  0  0  0  0  0  0  0  0
  1  2  1  0
  2  3  2  0
  2  4  2  0
  2  5  1  0
  5  6  2  0
  6  7  1  0
  7  8  2  0
  8  9  1  0
  8 10  1  0
 10 11  2  0
 11 12  1  0
 12 13  2  0
 12 14  2  0
 12 15  1  0
 15 16  1  0
 16 17  1  0
 17 18  1  0
 18 19  2  0
 19 20  1  0
 20 21  2  0
 21 22  1  0
 22 23  2  0
 11  5  1  0
 23 18  1  0
M  END
