CVD-0002906|dock_bobby27042020.47|mol2|4|dock1
     RDKit          3D

 29 32  0  0  0  0  0  0  0  0999 V2000
   13.9151   -1.7113   22.4075 C   0  0  0  0  0  0  0  0  0  0  0  0
   12.7119   -0.8903   22.5330 N   0  0  0  0  0  0  0  0  0  0  0  0
   12.3428   -0.7338   23.9430 C   0  0  0  0  0  0  0  0  0  0  0  0
   11.1178    0.1527   24.0698 C   0  0  0  0  0  0  0  0  0  0  0  0
    9.9978   -0.4110   23.3132 N   0  0  0  0  0  0  0  0  0  0  0  0
   10.3552   -0.6360   21.9092 C   0  0  0  0  0  0  0  0  0  0  0  0
   11.5978   -1.5025   21.8137 C   0  0  0  0  0  0  0  0  0  0  0  0
    8.7922   -0.6531   23.8640 C   0  0  0  0  0  0  0  0  0  0  0  0
    8.5867   -0.4214   25.0401 O   0  0  0  0  0  0  0  0  0  0  0  0
    7.6889   -1.2253   22.9888 C   0  0  0  0  0  0  0  0  0  0  0  0
    6.4897   -1.5231   23.8713 C   0  0  0  0  0  0  0  0  0  0  0  0
    6.8971   -2.4165   24.9356 O   0  0  0  0  0  0  0  0  0  0  0  0
    7.1889   -3.6832   24.6293 C   0  0  0  0  0  0  0  0  0  0  0  0
    7.1388   -4.1568   23.5064 O   0  0  0  0  0  0  0  0  0  0  0  0
    7.6012   -4.4857   25.8223 C   0  0  0  0  0  0  0  0  0  0  0  0
    8.2855   -5.6889   25.6798 C   0  0  0  0  0  0  0  0  0  0  0  0
    8.6596   -6.4192   26.7955 C   0  0  0  0  0  0  0  0  0  0  0  0
    8.3576   -5.9609   28.0599 C   0  0  0  0  0  0  0  0  0  0  0  0
    7.6801   -4.7704   28.2140 C   0  0  0  0  0  0  0  0  0  0  0  0
    7.3027   -4.0347   27.1032 C   0  0  0  0  0  0  0  0  0  0  0  0
    7.2905   -0.2569   21.8998 C   0  0  0  0  0  0  0  0  0  0  0  0
    7.4812    1.0933   21.8848 C   0  0  0  0  0  0  0  0  0  0  0  0
    6.9880    1.6369   20.7281 N   0  0  0  0  0  0  0  0  0  0  0  0
    6.4634    0.6354   19.9648 C   0  0  0  0  0  0  0  0  0  0  0  0
    5.8825    0.7483   18.7583 N   0  0  0  0  0  0  0  0  0  0  0  0
    5.4419   -0.3894   18.2040 C   0  0  0  0  0  0  0  0  0  0  0  0
    5.5552   -1.6281   18.7984 C   0  0  0  0  0  0  0  0  0  0  0  0
    6.1569   -1.7266   20.0431 C   0  0  0  0  0  0  0  0  0  0  0  0
    6.6320   -0.5724   20.6622 C   0  0  0  0  0  0  0  0  0  0  0  0
  1  2  1  0
  2  3  1  0
  3  4  1  0
  4  5  1  0
  5  6  1  0
  6  7  1  0
  5  8  1  0
  8  9  2  0
  8 10  1  0
 10 11  1  0
 11 12  1  0
 12 13  1  0
 13 14  2  0
 13 15  1  0
 15 16  2  0
 16 17  1  0
 17 18  2  0
 18 19  1  0
 19 20  2  0
 10 21  1  0
 21 22  2  0
 22 23  1  0
 23 24  1  0
 24 25  2  0
 25 26  1  0
 26 27  2  0
 27 28  1  0
 28 29  2  0
  7  2  1  0
 20 15  1  0
 29 21  1  0
 29 24  1  0
M  END
