CVD-0000042|dock_bobby27042020.43|mol2|7|dock3
     RDKit          3D

 24 26  0  0  0  0  0  0  0  0999 V2000
   10.9868   -1.6606   20.8556 F   0  0  0  0  0  0  0  0  0  0  0  0
   11.7226   -1.8209   21.9794 C   0  0  0  0  0  0  0  0  0  0  0  0
   13.0896   -1.7952   21.8353 C   0  0  0  0  0  0  0  0  0  0  0  0
   13.8796   -1.9824   22.9556 C   0  0  0  0  0  0  0  0  0  0  0  0
   13.2949   -2.1899   24.1851 C   0  0  0  0  0  0  0  0  0  0  0  0
   11.9160   -2.2026   24.3122 C   0  0  0  0  0  0  0  0  0  0  0  0
   11.0885   -2.0070   23.2041 C   0  0  0  0  0  0  0  0  0  0  0  0
    9.6111   -2.0176   23.4269 C   0  0  0  0  0  0  0  0  0  0  0  0
    9.0703   -1.3340   24.5122 C   0  0  0  0  0  0  0  0  0  0  0  0
    7.7060   -1.3280   24.7510 C   0  0  0  0  0  0  0  0  0  0  0  0
    6.8441   -2.0071   23.9076 C   0  0  0  0  0  0  0  0  0  0  0  0
    7.3711   -2.6864   22.8225 C   0  0  0  0  0  0  0  0  0  0  0  0
    8.7349   -2.6916   22.5736 C   0  0  0  0  0  0  0  0  0  0  0  0
    6.3004   -3.5548   21.7234 S   0  0  0  0  0  0  0  0  0  0  0  0
    5.0276   -3.7101   22.3728 O   0  0  0  0  0  0  0  0  0  0  0  0
    6.9908   -4.7297   21.2662 O   0  0  0  0  0  0  0  0  0  0  0  0
    6.0996   -2.4704   20.3681 C   0  0  0  0  0  0  0  0  0  0  0  0
    5.9224   -1.1713   20.5341 C   0  0  0  0  0  0  0  0  0  0  0  0
    5.7389   -0.1743   19.4732 C   0  0  0  0  0  0  0  0  0  0  0  0
    4.8448    0.8833   19.5962 C   0  0  0  0  0  0  0  0  0  0  0  0
    4.7116    1.7952   18.5638 C   0  0  0  0  0  0  0  0  0  0  0  0
    5.4787    1.6237   17.4336 C   0  0  0  0  0  0  0  0  0  0  0  0
    6.3459    0.6210   17.2822 N   0  0  0  0  0  0  0  0  0  0  0  0
    6.4609   -0.2496   18.2896 C   0  0  0  0  0  0  0  0  0  0  0  0
  1  2  1  0
  2  3  2  0
  3  4  1  0
  4  5  2  0
  5  6  1  0
  6  7  2  0
  7  8  1  0
  8  9  2  0
  9 10  1  0
 10 11  2  0
 11 12  1  0
 12 13  2  0
 12 14  1  0
 14 15  2  0
 14 16  2  0
 14 17  1  0
 17 18  2  0
 18 19  1  0
 19 20  2  0
 20 21  1  0
 21 22  2  0
 22 23  1  0
 23 24  2  0
  7  2  1  0
 13  8  1  0
 24 19  1  0
M  END
