CVD-0002433|dock_bobby27042020.20|mol2|11|dock1
     RDKit          3D

 34 36  0  0  0  0  0  0  0  0999 V2000
    9.3401   -5.5929   26.1370 C   0  0  0  0  0  0  0  0  0  0  0  0
    8.4223   -4.7104   25.3039 C   0  0  0  0  0  0  0  0  0  0  0  0
    9.0135   -3.2628   25.2634 C   0  0  0  0  0  0  0  0  0  0  0  0
    8.8077   -2.5256   26.5984 C   0  0  0  0  0  0  0  0  0  0  0  0
    7.3473   -2.6312   27.0342 C   0  0  0  0  0  0  0  0  0  0  0  0
    6.8985   -4.0842   27.0634 C   0  0  0  0  0  0  0  0  0  0  0  0
    7.0346   -4.6886   25.7401 N   0  0  0  0  0  0  0  0  0  0  0  0
    6.0945   -4.0260   24.8239 C   0  0  0  0  0  0  0  0  0  0  0  0
    5.9644   -4.7051   23.4806 C   0  0  0  0  0  0  0  0  0  0  0  0
    6.2440   -4.0177   22.3097 C   0  0  0  0  0  0  0  0  0  0  0  0
    6.1218   -4.6392   21.0781 C   0  0  0  0  0  0  0  0  0  0  0  0
    5.7176   -5.9548   21.0038 C   0  0  0  0  0  0  0  0  0  0  0  0
    5.4353   -6.6490   22.1605 C   0  0  0  0  0  0  0  0  0  0  0  0
    5.5577   -6.0273   23.3920 C   0  0  0  0  0  0  0  0  0  0  0  0
    8.3512   -2.5552   24.1914 O   0  0  0  0  0  0  0  0  0  0  0  0
    8.9048   -1.4288   23.6190 C   0  0  0  0  0  0  0  0  0  0  0  0
    8.1539   -0.2674   23.5653 C   0  0  0  0  0  0  0  0  0  0  0  0
    8.6870    0.8747   22.9951 C   0  0  0  0  0  0  0  0  0  0  0  0
    9.9689    0.8814   22.4694 C   0  0  0  0  0  0  0  0  0  0  0  0
   10.5468    2.1323   21.8533 C   0  0  0  0  0  0  0  0  0  0  0  0
   11.2023    3.0688   22.8798 C   0  0  0  0  0  0  0  0  0  0  0  0
   12.1318    3.9698   22.2182 N   0  0  0  0  0  0  0  0  0  0  0  0
   12.9034    4.8169   22.9079 C   0  0  0  0  0  0  0  0  0  0  0  0
   13.8290    5.6746   22.0960 C   0  0  0  0  0  0  0  0  0  0  0  0
   12.8685    4.8791   24.1329 O   0  0  0  0  0  0  0  0  0  0  0  0
   10.1237    3.8529   23.6219 C   0  0  0  0  0  0  0  0  0  0  0  0
    9.8582    3.5914   24.7921 O   0  0  0  0  0  0  0  0  0  0  0  0
    9.5067    4.8134   22.9341 N   0  0  0  0  0  0  0  0  0  0  0  0
    8.4600    5.6294   23.5350 C   0  0  0  0  0  0  0  0  0  0  0  0
    7.6760    6.3678   22.5380 C   0  0  0  0  0  0  0  0  0  0  0  0
    7.0272    6.9124   21.7081 C   0  0  0  0  0  0  0  0  0  0  0  0
    6.0111    7.7698   20.4932 Br  0  0  0  0  0  0  0  0  0  0  0  0
   10.7084   -0.2888   22.5290 C   0  0  0  0  0  0  0  0  0  0  0  0
   10.1878   -1.4389   23.0953 C   0  0  0  0  0  0  0  0  0  0  0  0
  1  2  1  0
  2  3  1  0
  3  4  1  0
  4  5  1  0
  5  6  1  0
  6  7  1  0
  7  8  1  0
  8  9  1  0
  9 10  2  0
 10 11  1  0
 11 12  2  0
 12 13  1  0
 13 14  2  0
  3 15  1  0
 15 16  1  0
 16 17  2  0
 17 18  1  0
 18 19  2  0
 19 20  1  0
 20 21  1  0
 21 22  1  0
 22 23  1  0
 23 24  1  0
 23 25  2  0
 21 26  1  0
 26 27  2  0
 26 28  1  0
 28 29  1  0
 29 30  1  0
 30 31  3  0
 31 32  1  0
 19 33  1  0
 33 34  2  0
  7  2  1  0
 14  9  1  0
 34 16  1  0
M  END
