CVD-0003967|dock_bobby27042020.15|mol2|3|dock3
     RDKit          3D

 26 27  0  0  0  0  0  0  0  0999 V2000
    4.8254    1.8783   19.3241 C   0  0  0  0  0  0  0  0  0  0  0  0
    4.8914    0.4364   19.7251 C   0  0  0  0  0  0  0  0  0  0  0  0
    4.4647    0.0646   20.8103 O   0  0  0  0  0  0  0  0  0  0  0  0
    5.5114   -0.5559   18.7293 C   0  0  0  0  0  0  0  0  0  0  0  0
    5.8193   -0.2016   17.5954 O   0  0  0  0  0  0  0  0  0  0  0  0
    5.7604   -2.0223   19.1354 C   0  0  0  0  0  0  0  0  0  0  0  0
    5.4721   -2.9658   18.3998 O   0  0  0  0  0  0  0  0  0  0  0  0
    6.3272   -2.1466   20.3820 N   0  0  0  0  0  0  0  0  0  0  0  0
    6.6602   -3.3347   21.0042 C   0  0  0  0  0  0  0  0  0  0  0  0
    7.7253   -3.6355   21.7442 C   0  0  0  0  0  0  0  0  0  0  0  0
    7.6438   -4.9258   22.2387 O   0  0  0  0  0  0  0  0  0  0  0  0
    6.3498   -5.4132   21.8453 C   0  0  0  0  0  0  0  0  0  0  0  0
    5.8162   -4.4049   20.9324 O   0  0  0  0  0  0  0  0  0  0  0  0
    8.9092   -2.9238   22.1721 C   0  0  0  0  0  0  0  0  0  0  0  0
    9.3754   -3.1880   23.2765 O   0  0  0  0  0  0  0  0  0  0  0  0
    9.5900   -1.8659   21.2763 C   0  0  0  0  0  0  0  0  0  0  0  0
    8.9839   -1.3668   20.3356 O   0  0  0  0  0  0  0  0  0  0  0  0
   10.9903   -1.4444   21.5322 C   0  0  0  0  0  0  0  0  0  0  0  0
   11.9032   -1.7874   20.7909 O   0  0  0  0  0  0  0  0  0  0  0  0
   11.2888   -0.5716   22.7432 C   0  0  0  0  0  0  0  0  0  0  0  0
   12.4958   -0.9860   23.5547 C   0  0  0  0  0  0  0  0  0  0  0  0
   13.6704   -0.3261   23.5577 C   0  0  0  0  0  0  0  0  0  0  0  0
   14.7459   -0.6972   24.2761 O   0  0  0  0  0  0  0  0  0  0  0  0
   14.6435   -1.8787   25.0113 C   0  0  0  0  0  0  0  0  0  0  0  0
   13.5433   -2.6060   25.0639 C   0  0  0  0  0  0  0  0  0  0  0  0
   12.2520   -2.2397   24.3805 C   0  0  0  0  0  0  0  0  0  0  0  0
  1  2  1  0
  2  3  2  0
  2  4  1  0
  4  5  2  0
  4  6  1  0
  6  7  2  0
  6  8  1  0
  8  9  1  0
  9 10  2  0
 10 11  1  0
 11 12  1  0
 12 13  1  0
 10 14  1  0
 14 15  2  0
 14 16  1  0
 16 17  2  0
 16 18  1  0
 18 19  2  0
 18 20  1  0
 20 21  1  0
 21 22  2  0
 22 23  1  0
 23 24  1  0
 24 25  2  0
 25 26  1  0
 13  9  1  0
 26 21  1  0
M  END
