CVD-0001251|dock_bobby27042020.96|mol2|1|dock1
     RDKit          3D

 23 25  0  0  0  0  0  0  0  0999 V2000
    7.5914   -0.7501   18.6901 C   0  0  0  0  0  0  0  0  0  0  0  0
    7.6872   -1.0358   20.1561 C   0  0  0  0  0  0  0  0  0  0  0  0
    8.9275   -1.7185   20.4851 N   0  0  0  0  0  0  0  0  0  0  0  0
    9.1431   -2.2944   21.6806 C   0  0  0  0  0  0  0  0  0  0  0  0
    8.1003   -3.0030   22.1552 N   0  0  0  0  0  0  0  0  0  0  0  0
    8.2455   -3.6215   23.3307 C   0  0  0  0  0  0  0  0  0  0  0  0
    9.4073   -3.5697   24.0903 C   0  0  0  0  0  0  0  0  0  0  0  0
   10.4852   -2.8317   23.6123 C   0  0  0  0  0  0  0  0  0  0  0  0
   10.3605   -2.1734   22.3905 C   0  0  0  0  0  0  0  0  0  0  0  0
   11.4101   -1.4270   21.9030 N   0  0  0  0  0  0  0  0  0  0  0  0
   12.6404   -1.1718   22.6347 C   0  0  0  0  0  0  0  0  0  0  0  0
   12.4347   -0.1455   23.7343 C   0  0  0  0  0  0  0  0  0  0  0  0
   12.2970    1.2605   23.2024 C   0  0  0  0  0  0  0  0  0  0  0  0
   11.0454    1.8470   23.0533 C   0  0  0  0  0  0  0  0  0  0  0  0
   10.8964    3.1356   22.5638 C   0  0  0  0  0  0  0  0  0  0  0  0
   12.0326    3.8614   22.2110 C   0  0  0  0  0  0  0  0  0  0  0  0
   12.2142    5.1443   21.7031 N   0  0  0  0  0  0  0  0  0  0  0  0
   13.4872    5.2445   21.5835 C   0  0  0  0  0  0  0  0  0  0  0  0
   14.2314    4.1564   21.9573 O   0  0  0  0  0  0  0  0  0  0  0  0
   13.2642    3.2713   22.3614 C   0  0  0  0  0  0  0  0  0  0  0  0
   13.4270    1.9888   22.8477 C   0  0  0  0  0  0  0  0  0  0  0  0
    9.4995   -4.2650   25.3503 C   0  0  0  0  0  0  0  0  0  0  0  0
    9.6033   -4.8035   26.3523 N   0  0  0  0  0  0  0  0  0  0  0  0
  1  2  1  0
  2  3  1  0
  3  4  1  0
  4  5  2  0
  5  6  1  0
  6  7  2  0
  7  8  1  0
  8  9  2  0
  9 10  1  0
 10 11  1  0
 11 12  1  0
 12 13  1  0
 13 14  2  0
 14 15  1  0
 15 16  2  0
 16 17  1  0
 17 18  2  0
 18 19  1  0
 19 20  1  0
 20 21  2  0
  7 22  1  0
 22 23  3  0
  9  4  1  0
 21 13  1  0
 20 16  1  0
M  END
