CVD-0002249|dock_bobby27042020.21|mol2|5|dock2
     RDKit          3D

 43 48  0  0  0  0  0  0  0  0999 V2000
    5.7050   -2.4925   23.5758 F   0  0  0  0  0  0  0  0  0  0  0  0
    5.6246   -3.6471   22.8753 C   0  0  0  0  0  0  0  0  0  0  0  0
    4.7138   -4.5679   23.3362 C   0  0  0  0  0  0  0  0  0  0  0  0
    4.5970   -5.7770   22.6776 C   0  0  0  0  0  0  0  0  0  0  0  0
    5.3830   -6.0326   21.5781 C   0  0  0  0  0  0  0  0  0  0  0  0
    6.2851   -5.0862   21.1219 C   0  0  0  0  0  0  0  0  0  0  0  0
    6.4368   -3.8541   21.7642 C   0  0  0  0  0  0  0  0  0  0  0  0
    7.4034   -2.8364   21.2676 C   0  0  0  0  0  0  0  0  0  0  0  0
    8.6643   -2.5828   21.7801 C   0  0  0  0  0  0  0  0  0  0  0  0
    9.2882   -1.5500   21.0599 C   0  0  0  0  0  0  0  0  0  0  0  0
   10.6611   -0.9977   21.3402 C   0  0  0  0  0  0  0  0  0  0  0  0
   10.5851    0.4082   21.7392 N   0  0  0  0  0  0  0  0  0  0  0  0
   10.7722    0.7276   23.1663 C   0  0  0  0  0  0  0  0  0  0  0  0
    9.5860    0.2129   23.9084 C   0  0  0  0  0  0  0  0  0  0  0  0
    9.7434    0.4231   25.3687 N   0  0  0  0  0  0  0  0  0  0  0  0
   11.0358    0.0523   25.9756 C   0  0  0  0  0  0  0  0  0  0  0  0
   12.1422   -0.3241   24.9882 C   0  0  0  0  0  0  0  0  0  0  0  0
   13.2946   -0.9610   25.4339 C   0  0  0  0  0  0  0  0  0  0  0  0
   14.3297   -1.2388   24.5593 C   0  0  0  0  0  0  0  0  0  0  0  0
   14.2190   -0.8812   23.2320 C   0  0  0  0  0  0  0  0  0  0  0  0
   13.0752   -0.2468   22.7801 C   0  0  0  0  0  0  0  0  0  0  0  0
   12.0305    0.0365   23.6494 C   0  0  0  0  0  0  0  0  0  0  0  0
    8.7968    0.9346   26.1860 C   0  0  0  0  0  0  0  0  0  0  0  0
    9.0025    1.0875   27.3834 O   0  0  0  0  0  0  0  0  0  0  0  0
    7.4606    1.3087   25.5738 C   0  0  0  0  0  0  0  0  0  0  0  0
    6.2944    1.7740   26.8191 Cl  0  0  0  0  0  0  0  0  0  0  0  0
   10.9085    2.2539   23.2447 C   0  0  0  0  0  0  0  0  0  0  0  0
    9.8587    3.0689   22.8382 C   0  0  0  0  0  0  0  0  0  0  0  0
    9.9632    4.4485   22.8952 C   0  0  0  0  0  0  0  0  0  0  0  0
   11.1202    5.0361   23.3589 C   0  0  0  0  0  0  0  0  0  0  0  0
   12.1720    4.2441   23.7662 C   0  0  0  0  0  0  0  0  0  0  0  0
   12.0686    2.8641   23.7108 C   0  0  0  0  0  0  0  0  0  0  0  0
    8.3970   -1.1513   20.0769 C   0  0  0  0  0  0  0  0  0  0  0  0
    7.2478   -1.9250   20.1824 N   0  0  0  0  0  0  0  0  0  0  0  0
    5.9961   -1.6402   19.0720 S   0  0  0  0  0  0  0  0  0  0  0  0
    6.5907   -1.5064   17.7782 O   0  0  0  0  0  0  0  0  0  0  0  0
    5.0587   -2.6963   19.2977 O   0  0  0  0  0  0  0  0  0  0  0  0
    5.2106   -0.1375   19.5434 C   0  0  0  0  0  0  0  0  0  0  0  0
    4.9867    0.8586   18.6085 C   0  0  0  0  0  0  0  0  0  0  0  0
    4.3613    2.0224   19.0215 C   0  0  0  0  0  0  0  0  0  0  0  0
    3.9874    2.1411   20.3409 C   0  0  0  0  0  0  0  0  0  0  0  0
    4.1950    1.1890   21.2517 N   0  0  0  0  0  0  0  0  0  0  0  0
    4.7990    0.0682   20.8465 C   0  0  0  0  0  0  0  0  0  0  0  0
  1  2  1  0
  2  3  2  0
  3  4  1  0
  4  5  2  0
  5  6  1  0
  6  7  2  0
  7  8  1  0
  8  9  2  0
  9 10  1  0
 10 11  1  0
 11 12  1  0
 12 13  1  0
 13 14  1  0
 14 15  1  0
 15 16  1  0
 16 17  1  0
 17 18  2  0
 18 19  1  0
 19 20  2  0
 20 21  1  0
 21 22  2  0
 15 23  1  0
 23 24  2  0
 23 25  1  0
 25 26  1  0
 13 27  1  0
 27 28  2  0
 28 29  1  0
 29 30  2  0
 30 31  1  0
 31 32  2  0
 10 33  2  0
 33 34  1  0
 34 35  1  0
 35 36  2  0
 35 37  2  0
 35 38  1  0
 38 39  2  0
 39 40  1  0
 40 41  2  0
 41 42  1  0
 42 43  2  0
  7  2  1  0
 34  8  1  0
 43 38  1  0
 22 13  1  0
 32 27  1  0
 22 17  1  0
M  END
