CVD-0001966|dock_bobby27042020.50|mol2|39|dock3
     RDKit          3D

 21 23  0  0  0  0  0  0  0  0999 V2000
   13.9627    5.2054   21.6923 C   0  0  0  0  0  0  0  0  0  0  0  0
   12.5247    5.1699   21.4132 N   0  0  0  0  0  0  0  0  0  0  0  0
   11.7009    4.6958   22.5303 C   0  0  0  0  0  0  0  0  0  0  0  0
   11.5924    3.1936   22.5442 C   0  0  0  0  0  0  0  0  0  0  0  0
   12.5925    2.2997   22.9626 C   0  0  0  0  0  0  0  0  0  0  0  0
   12.1210    1.0074   22.8310 C   0  0  0  0  0  0  0  0  0  0  0  0
   12.8723   -0.2264   23.1719 C   0  0  0  0  0  0  0  0  0  0  0  0
   13.4723   -0.2499   24.4325 C   0  0  0  0  0  0  0  0  0  0  0  0
   14.1462   -1.3716   24.8850 C   0  0  0  0  0  0  0  0  0  0  0  0
   14.2422   -2.4920   24.0915 C   0  0  0  0  0  0  0  0  0  0  0  0
   13.6938   -2.4873   22.8219 C   0  0  0  0  0  0  0  0  0  0  0  0
   13.0540   -1.3541   22.3776 C   0  0  0  0  0  0  0  0  0  0  0  0
   12.6191   -1.3850   21.0985 F   0  0  0  0  0  0  0  0  0  0  0  0
   10.8262    1.0889   22.3407 N   0  0  0  0  0  0  0  0  0  0  0  0
    9.8876    0.0080   22.0843 C   0  0  0  0  0  0  0  0  0  0  0  0
    9.9905   -1.0256   23.1043 N   0  0  0  0  0  0  0  0  0  0  0  0
   10.1569   -2.3666   22.8992 C   0  0  0  0  0  0  0  0  0  0  0  0
   10.2203   -2.9276   24.1262 C   0  0  0  0  0  0  0  0  0  0  0  0
   10.1053   -1.9672   25.0956 N   0  0  0  0  0  0  0  0  0  0  0  0
    9.9746   -0.8371   24.4365 C   0  0  0  0  0  0  0  0  0  0  0  0
   10.5119    2.4061   22.1765 C   0  0  0  0  0  0  0  0  0  0  0  0
  1  2  1  0
  2  3  1  0
  3  4  1  0
  4  5  1  0
  5  6  2  0
  6  7  1  0
  7  8  2  0
  8  9  1  0
  9 10  2  0
 10 11  1  0
 11 12  2  0
 12 13  1  0
  6 14  1  0
 14 15  1  0
 15 16  1  0
 16 17  1  0
 17 18  2  0
 18 19  1  0
 19 20  2  0
 14 21  1  0
 21  4  2  0
 12  7  1  0
 20 16  1  0
M  END
