CVD-0003154|dock_bobby27042020.17|mol2|20|dock3
     RDKit          3D

 25 28  0  0  0  0  0  0  0  0999 V2000
    9.6902    1.7032   20.8088 O   0  0  0  0  0  0  0  0  0  0  0  0
    9.4269    1.8360   22.0030 C   0  0  0  0  0  0  0  0  0  0  0  0
    9.5954    3.1459   22.6752 C   0  0  0  0  0  0  0  0  0  0  0  0
   10.7033    3.9015   22.5995 C   0  0  0  0  0  0  0  0  0  0  0  0
   11.9904    3.6712   21.8757 C   0  0  0  0  0  0  0  0  0  0  0  0
   12.9549    4.7562   22.3968 C   0  0  0  0  0  0  0  0  0  0  0  0
   12.0677    5.6569   23.1260 N   0  0  0  0  0  0  0  0  0  0  0  0
   10.8121    5.2122   23.2971 C   0  0  0  0  0  0  0  0  0  0  0  0
    9.9190    5.7876   23.9172 O   0  0  0  0  0  0  0  0  0  0  0  0
    8.9780    0.7753   22.7195 N   0  0  0  0  0  0  0  0  0  0  0  0
    8.8162   -0.5393   22.0506 C   0  0  0  0  0  0  0  0  0  0  0  0
    9.4561   -1.6226   22.8511 C   0  0  0  0  0  0  0  0  0  0  0  0
   10.9668   -1.4442   22.8616 C   0  0  0  0  0  0  0  0  0  0  0  0
   11.7325   -1.8117   21.7639 C   0  0  0  0  0  0  0  0  0  0  0  0
   13.1082   -1.6513   21.7751 C   0  0  0  0  0  0  0  0  0  0  0  0
   13.7347   -1.1226   22.8832 C   0  0  0  0  0  0  0  0  0  0  0  0
   12.9867   -0.7542   23.9808 C   0  0  0  0  0  0  0  0  0  0  0  0
   11.6111   -0.9142   23.9708 C   0  0  0  0  0  0  0  0  0  0  0  0
    8.8585   -1.6762   24.2336 C   0  0  0  0  0  0  0  0  0  0  0  0
    8.6842   -2.8742   24.9288 C   0  0  0  0  0  0  0  0  0  0  0  0
    8.1350   -2.9096   26.1977 C   0  0  0  0  0  0  0  0  0  0  0  0
    7.7448   -1.7350   26.8035 C   0  0  0  0  0  0  0  0  0  0  0  0
    7.9076   -0.5359   26.1340 C   0  0  0  0  0  0  0  0  0  0  0  0
    8.4600   -0.4998   24.8578 C   0  0  0  0  0  0  0  0  0  0  0  0
    8.6943    0.8451   24.1653 C   0  0  0  0  0  0  0  0  0  0  0  0
  1  2  2  0
  2  3  1  0
  3  4  2  0
  4  5  1  0
  5  6  1  0
  6  7  1  0
  7  8  1  0
  8  9  2  0
  2 10  1  0
 10 11  1  0
 11 12  1  0
 12 13  1  0
 13 14  2  0
 14 15  1  0
 15 16  2  0
 16 17  1  0
 17 18  2  0
 12 19  1  0
 19 20  2  0
 20 21  1  0
 21 22  2  0
 22 23  1  0
 23 24  2  0
 24 25  1  0
  8  4  1  0
 25 10  1  0
 18 13  1  0
 24 19  1  0
M  END
