CVD-0003888|dock_bobby27042020.72|mol2|25|dock1
     RDKit          3D

 24 27  0  0  0  0  0  0  0  0999 V2000
    4.4812    1.7454   20.9844 C   0  0  0  0  0  0  0  0  0  0  0  0
    5.4005    1.2456   19.9016 C   0  0  0  0  0  0  0  0  0  0  0  0
    5.1554    1.5273   18.5580 C   0  0  0  0  0  0  0  0  0  0  0  0
    6.0192    1.0577   17.5840 C   0  0  0  0  0  0  0  0  0  0  0  0
    7.1126    0.3273   17.8448 N   0  0  0  0  0  0  0  0  0  0  0  0
    7.3314    0.0687   19.1446 C   0  0  0  0  0  0  0  0  0  0  0  0
    8.3552   -0.6426   19.7045 N   0  0  0  0  0  0  0  0  0  0  0  0
    8.1455   -0.6279   21.0442 C   0  0  0  0  0  0  0  0  0  0  0  0
    7.0626    0.0388   21.3991 N   0  0  0  0  0  0  0  0  0  0  0  0
    6.5393    0.4848   20.1941 C   0  0  0  0  0  0  0  0  0  0  0  0
    9.0423   -1.3004   22.0851 C   0  0  0  0  0  0  0  0  0  0  0  0
    8.8080   -0.8388   23.5229 C   0  0  0  0  0  0  0  0  0  0  0  0
    9.7037   -1.5869   24.4945 C   0  0  0  0  0  0  0  0  0  0  0  0
   11.1650   -1.4625   24.1150 C   0  0  0  0  0  0  0  0  0  0  0  0
   11.4024   -1.9312   22.6890 C   0  0  0  0  0  0  0  0  0  0  0  0
   10.5150   -1.1832   21.7061 C   0  0  0  0  0  0  0  0  0  0  0  0
    8.5939   -2.6915   21.9556 C   0  0  0  0  0  0  0  0  0  0  0  0
    8.1816   -3.8053   21.8879 C   0  0  0  0  0  0  0  0  0  0  0  0
    7.7073   -5.1745   21.8693 C   0  0  0  0  0  0  0  0  0  0  0  0
    6.2624   -5.2585   21.3805 C   0  0  0  0  0  0  0  0  0  0  0  0
    5.3175   -4.6308   22.4204 C   0  0  0  0  0  0  0  0  0  0  0  0
    5.5801   -5.1935   23.8560 C   0  0  0  0  0  0  0  0  0  0  0  0
    6.9860   -5.0700   24.2089 N   0  0  0  0  0  0  0  0  0  0  0  0
    7.8410   -5.7783   23.2590 C   0  0  0  0  0  0  0  0  0  0  0  0
  1  2  1  0
  2  3  2  0
  3  4  1  0
  4  5  2  0
  5  6  1  0
  6  7  1  0
  7  8  1  0
  8  9  2  0
  9 10  1  0
  8 11  1  0
 11 12  1  0
 12 13  1  0
 13 14  1  0
 14 15  1  0
 15 16  1  0
 11 17  1  0
 17 18  3  0
 18 19  1  0
 19 20  1  0
 20 21  1  0
 21 22  1  0
 22 23  1  0
 23 24  1  0
 10  2  1  0
 16 11  1  0
 24 19  1  0
 10  6  2  0
M  END
