CVD-0000837|dock_bobby27042020.40|mol2|18|dock2
     RDKit          3D

 23 25  0  0  0  0  0  0  0  0999 V2000
   13.6595    5.3391   22.0273 C   0  0  0  0  0  0  0  0  0  0  0  0
   12.3045    4.9009   22.1028 O   0  0  0  0  0  0  0  0  0  0  0  0
   12.0283    3.6302   22.5393 C   0  0  0  0  0  0  0  0  0  0  0  0
   10.7050    3.3579   22.8500 C   0  0  0  0  0  0  0  0  0  0  0  0
   10.2815    2.1274   23.2987 C   0  0  0  0  0  0  0  0  0  0  0  0
    8.8283    1.8635   23.6323 C   0  0  0  0  0  0  0  0  0  0  0  0
    8.2181    0.7650   22.8694 N   0  0  0  0  0  0  0  0  0  0  0  0
    6.7611    0.7768   23.0297 C   0  0  0  0  0  0  0  0  0  0  0  0
    6.1401   -0.3832   22.2739 C   0  0  0  0  0  0  0  0  0  0  0  0
    6.4935   -0.3165   20.8542 N   0  0  0  0  0  0  0  0  0  0  0  0
    7.9463   -0.2664   20.6624 C   0  0  0  0  0  0  0  0  0  0  0  0
    8.5425    0.8858   21.4504 C   0  0  0  0  0  0  0  0  0  0  0  0
    5.5713   -0.3312   19.8691 C   0  0  0  0  0  0  0  0  0  0  0  0
    4.3735   -0.4084   20.1118 O   0  0  0  0  0  0  0  0  0  0  0  0
    6.0807   -0.2557   18.4424 C   0  0  0  0  0  0  0  0  0  0  0  0
    7.0557   -1.6629   17.9990 Cl  0  0  0  0  0  0  0  0  0  0  0  0
   11.2395    1.0900   23.4528 C   0  0  0  0  0  0  0  0  0  0  0  0
   10.9054   -0.2111   23.9095 C   0  0  0  0  0  0  0  0  0  0  0  0
   11.8590   -1.1762   24.0418 C   0  0  0  0  0  0  0  0  0  0  0  0
   13.1768   -0.9109   23.7338 C   0  0  0  0  0  0  0  0  0  0  0  0
   13.5545    0.3219   23.2908 C   0  0  0  0  0  0  0  0  0  0  0  0
   12.6024    1.3579   23.1366 C   0  0  0  0  0  0  0  0  0  0  0  0
   12.9713    2.6447   22.6789 C   0  0  0  0  0  0  0  0  0  0  0  0
  1  2  1  0
  2  3  1  0
  3  4  2  0
  4  5  1  0
  5  6  1  0
  6  7  1  0
  7  8  1  0
  8  9  1  0
  9 10  1  0
 10 11  1  0
 11 12  1  0
 10 13  1  0
 13 14  2  0
 13 15  1  0
 15 16  1  0
  5 17  2  0
 17 18  1  0
 18 19  2  0
 19 20  1  0
 20 21  2  0
 21 22  1  0
 22 23  2  0
 23  3  1  0
 12  7  1  0
 22 17  1  0
M  END
