CVD-0002424|dock_bobby27042020.48|mol2|33|dock2
     RDKit          3D

 34 36  0  0  0  0  0  0  0  0999 V2000
    1.8736   -8.2921   23.6731 C   0  0  0  0  0  0  0  0  0  0  0  0
    2.6015   -6.9801   23.6961 C   0  0  0  0  0  0  0  0  0  0  0  0
    2.1506   -5.9982   24.2778 O   0  0  0  0  0  0  0  0  0  0  0  0
    3.7614   -6.9407   23.0313 N   0  0  0  0  0  0  0  0  0  0  0  0
    4.5612   -5.7290   22.9570 C   0  0  0  0  0  0  0  0  0  0  0  0
    5.4335   -5.5888   24.2139 C   0  0  0  0  0  0  0  0  0  0  0  0
    6.4393   -4.4671   24.1210 C   0  0  0  0  0  0  0  0  0  0  0  0
    6.2257   -3.2653   24.7774 C   0  0  0  0  0  0  0  0  0  0  0  0
    7.1447   -2.2339   24.7004 C   0  0  0  0  0  0  0  0  0  0  0  0
    8.3023   -2.3993   23.9585 C   0  0  0  0  0  0  0  0  0  0  0  0
    9.2286   -1.3912   23.8603 O   0  0  0  0  0  0  0  0  0  0  0  0
   10.5860   -1.6467   23.4630 C   0  0  0  0  0  0  0  0  0  0  0  0
   11.4348   -0.4167   23.6704 C   0  0  0  0  0  0  0  0  0  0  0  0
   10.9662    0.7422   22.8360 C   0  0  0  0  0  0  0  0  0  0  0  0
   11.7832    1.9237   23.1171 N   0  0  0  0  0  0  0  0  0  0  0  0
   11.3243    3.0755   22.3286 C   0  0  0  0  0  0  0  0  0  0  0  0
   12.1107    4.3333   22.6095 C   0  0  0  0  0  0  0  0  0  0  0  0
   12.0016    4.9785   23.8315 C   0  0  0  0  0  0  0  0  0  0  0  0
   12.7254    6.1305   24.0905 C   0  0  0  0  0  0  0  0  0  0  0  0
   13.5671    6.6497   23.1304 C   0  0  0  0  0  0  0  0  0  0  0  0
   13.6855    6.0168   21.9117 C   0  0  0  0  0  0  0  0  0  0  0  0
   12.9616    4.8648   21.6529 C   0  0  0  0  0  0  0  0  0  0  0  0
   13.1839    1.6009   22.8570 C   0  0  0  0  0  0  0  0  0  0  0  0
   13.6081    0.4176   23.6867 C   0  0  0  0  0  0  0  0  0  0  0  0
   12.7995   -0.7177   23.4296 O   0  0  0  0  0  0  0  0  0  0  0  0
    8.5301   -3.5925   23.2958 C   0  0  0  0  0  0  0  0  0  0  0  0
    7.6021   -4.6150   23.3817 C   0  0  0  0  0  0  0  0  0  0  0  0
    5.4482   -5.7415   21.7154 C   0  0  0  0  0  0  0  0  0  0  0  0
    5.8293   -6.8048   21.2333 O   0  0  0  0  0  0  0  0  0  0  0  0
    5.7724   -4.5543   21.2037 N   0  0  0  0  0  0  0  0  0  0  0  0
    6.6138   -4.4383   20.0199 C   0  0  0  0  0  0  0  0  0  0  0  0
    6.2919   -3.2570   19.2107 C   0  0  0  0  0  0  0  0  0  0  0  0
    6.0487   -2.2683   18.6026 C   0  0  0  0  0  0  0  0  0  0  0  0
    5.6460   -0.7464   17.7280 Br  0  0  0  0  0  0  0  0  0  0  0  0
  1  2  1  0
  2  3  2  0
  2  4  1  0
  4  5  1  0
  5  6  1  0
  6  7  1  0
  7  8  2  0
  8  9  1  0
  9 10  2  0
 10 11  1  0
 11 12  1  0
 12 13  1  0
 13 14  1  0
 14 15  1  0
 15 16  1  0
 16 17  1  0
 17 18  2  0
 18 19  1  0
 19 20  2  0
 20 21  1  0
 21 22  2  0
 15 23  1  0
 23 24  1  0
 24 25  1  0
 10 26  1  0
 26 27  2  0
  5 28  1  0
 28 29  2  0
 28 30  1  0
 30 31  1  0
 31 32  1  0
 32 33  3  0
 33 34  1  0
 27  7  1  0
 25 13  1  0
 22 17  1  0
M  END
