CVD-0003336|dock_bobby27042020.2|mol2|23|dock1
     RDKit          3D

 30 33  0  0  0  0  0  0  0  0999 V2000
    5.8121    4.4584   22.8042 Cl  0  0  0  0  0  0  0  0  0  0  0  0
    7.1973    3.3844   22.5699 C   0  0  0  0  0  0  0  0  0  0  0  0
    6.8845    1.9696   23.0190 C   0  0  0  0  0  0  0  0  0  0  0  0
    5.7355    1.6367   23.2809 O   0  0  0  0  0  0  0  0  0  0  0  0
    7.9067    1.0910   23.1170 N   0  0  0  0  0  0  0  0  0  0  0  0
    7.7893   -0.3300   23.5270 C   0  0  0  0  0  0  0  0  0  0  0  0
    8.4883   -1.2214   22.5569 C   0  0  0  0  0  0  0  0  0  0  0  0
    7.7592   -1.2053   21.2216 C   0  0  0  0  0  0  0  0  0  0  0  0
    6.7255   -2.0969   20.9710 C   0  0  0  0  0  0  0  0  0  0  0  0
    6.0608   -2.0876   19.7564 C   0  0  0  0  0  0  0  0  0  0  0  0
    6.4221   -1.1839   18.7716 C   0  0  0  0  0  0  0  0  0  0  0  0
    7.4496   -0.3023   19.0261 C   0  0  0  0  0  0  0  0  0  0  0  0
    7.9157    0.8400   17.7971 Cl  0  0  0  0  0  0  0  0  0  0  0  0
    8.1194   -0.3020   20.2326 C   0  0  0  0  0  0  0  0  0  0  0  0
    9.9426   -0.8394   22.4493 C   0  0  0  0  0  0  0  0  0  0  0  0
   10.9461   -1.7877   22.2468 C   0  0  0  0  0  0  0  0  0  0  0  0
   12.2779   -1.4310   22.1516 C   0  0  0  0  0  0  0  0  0  0  0  0
   12.6416   -0.0997   22.2579 C   0  0  0  0  0  0  0  0  0  0  0  0
   11.6631    0.8645   22.4596 C   0  0  0  0  0  0  0  0  0  0  0  0
   11.9201    2.2086   22.5770 O   0  0  0  0  0  0  0  0  0  0  0  0
   13.2557    2.6580   22.8514 C   0  0  0  0  0  0  0  0  0  0  0  0
   13.2530    4.1658   22.9017 C   0  0  0  0  0  0  0  0  0  0  0  0
   12.2091    4.7279   23.7699 N   0  0  0  0  0  0  0  0  0  0  0  0
   12.7115    5.8776   24.5268 C   0  0  0  0  0  0  0  0  0  0  0  0
   11.6274    6.4210   25.3984 C   0  0  0  0  0  0  0  0  0  0  0  0
   10.4989    6.8340   24.6361 O   0  0  0  0  0  0  0  0  0  0  0  0
   10.0014    5.7358   23.8899 C   0  0  0  0  0  0  0  0  0  0  0  0
   11.0481    5.1522   22.9889 C   0  0  0  0  0  0  0  0  0  0  0  0
   10.3149    0.4982   22.5555 C   0  0  0  0  0  0  0  0  0  0  0  0
    9.2390    1.5795   22.7146 C   0  0  0  0  0  0  0  0  0  0  0  0
  1  2  1  0
  2  3  1  0
  3  4  2  0
  3  5  1  0
  5  6  1  0
  6  7  1  0
  7  8  1  0
  8  9  2  0
  9 10  1  0
 10 11  2  0
 11 12  1  0
 12 13  1  0
 12 14  2  0
  7 15  1  0
 15 16  2  0
 16 17  1  0
 17 18  2  0
 18 19  1  0
 19 20  1  0
 20 21  1  0
 21 22  1  0
 22 23  1  0
 23 24  1  0
 24 25  1  0
 25 26  1  0
 26 27  1  0
 27 28  1  0
 19 29  2  0
 29 30  1  0
 30  5  1  0
 14  8  1  0
 29 15  1  0
 28 23  1  0
M  END
