CVD-0000456|dock_bobby27042020.84|mol2|16|dock2
     RDKit          3D

 33 38  0  0  0  0  0  0  0  0999 V2000
   13.5099    5.5154   21.9536 O   0  0  0  0  0  0  0  0  0  0  0  0
   13.2332    6.2029   23.0921 C   0  0  0  0  0  0  0  0  0  0  0  0
   13.6707    7.5092   23.2358 C   0  0  0  0  0  0  0  0  0  0  0  0
   13.3724    8.1735   24.4008 C   0  0  0  0  0  0  0  0  0  0  0  0
   13.8041    9.4563   24.5375 F   0  0  0  0  0  0  0  0  0  0  0  0
   12.6643    7.6090   25.4274 C   0  0  0  0  0  0  0  0  0  0  0  0
   12.2277    6.3041   25.2832 C   0  0  0  0  0  0  0  0  0  0  0  0
   12.5062    5.5884   24.1176 C   0  0  0  0  0  0  0  0  0  0  0  0
   12.0515    4.2363   23.9731 C   0  0  0  0  0  0  0  0  0  0  0  0
   11.7247    3.0978   23.7957 C   0  0  0  0  0  0  0  0  0  0  0  0
   11.3961    1.7289   23.5453 C   0  0  0  0  0  0  0  0  0  0  0  0
   10.1575    1.0820   23.7954 C   0  0  0  0  0  0  0  0  0  0  0  0
   10.2784   -0.2344   23.4059 C   0  0  0  0  0  0  0  0  0  0  0  0
   11.5634   -0.4308   22.9170 N   0  0  0  0  0  0  0  0  0  0  0  0
   12.1448   -1.5804   22.4150 C   0  0  0  0  0  0  0  0  0  0  0  0
   13.4241   -1.5497   21.9881 C   0  0  0  0  0  0  0  0  0  0  0  0
   14.1730   -0.3608   22.0480 C   0  0  0  0  0  0  0  0  0  0  0  0
   13.6206    0.7875   22.5396 C   0  0  0  0  0  0  0  0  0  0  0  0
   12.2818    0.7678   22.9897 C   0  0  0  0  0  0  0  0  0  0  0  0
    9.2325   -1.3712   23.4609 C   0  0  0  0  0  0  0  0  0  0  0  0
    9.3536   -2.5854   24.3561 C   0  0  0  0  0  0  0  0  0  0  0  0
    8.3971   -1.4954   24.7261 C   0  0  0  0  0  0  0  0  0  0  0  0
    8.4597   -1.4906   22.1797 N   0  0  0  0  0  0  0  0  0  0  0  0
    7.7229   -0.3185   21.7027 C   0  0  0  0  0  0  0  0  0  0  0  0
    7.3874   -0.3496   20.2297 C   0  0  0  0  0  0  0  0  0  0  0  0
    6.4978   -1.4701   19.8894 N   0  0  0  0  0  0  0  0  0  0  0  0
    7.0605   -2.7427   20.3907 C   0  0  0  0  0  0  0  0  0  0  0  0
    6.5703   -3.3866   21.6672 C   0  0  0  0  0  0  0  0  0  0  0  0
    7.9217   -2.7536   21.6365 C   0  0  0  0  0  0  0  0  0  0  0  0
    5.6715   -1.4597   18.7451 C   0  0  0  0  0  0  0  0  0  0  0  0
    5.4106   -2.4944   18.1446 O   0  0  0  0  0  0  0  0  0  0  0  0
    5.1254   -0.1229   18.2825 C   0  0  0  0  0  0  0  0  0  0  0  0
    4.2744    0.7119   19.5887 Cl  0  0  0  0  0  0  0  0  0  0  0  0
  1  2  1  0
  2  3  2  0
  3  4  1  0
  4  5  1  0
  4  6  2  0
  6  7  1  0
  7  8  2  0
  8  9  1  0
  9 10  3  0
 10 11  1  0
 11 12  1  0
 12 13  2  0
 13 14  1  0
 14 15  1  0
 15 16  2  0
 16 17  1  0
 17 18  2  0
 18 19  1  0
 13 20  1  0
 20 21  1  0
 21 22  1  0
 20 23  1  0
 23 24  1  0
 24 25  1  0
 25 26  1  0
 26 27  1  0
 27 28  1  0
 29 28  1  0
 26 30  1  0
 30 31  2  0
 30 32  1  0
 32 33  1  0
  8  2  1  0
 19 11  2  0
 22 20  1  0
 29 23  1  0
 19 14  1  0
 29 27  1  0
M  END
