CVD-0001440|dock_bobby27042020.9|mol2|39|dock3
     RDKit          3D

 20 22  0  0  0  0  0  0  0  0999 V2000
    7.9924   -0.2705   22.8590 O   0  0  0  0  0  0  0  0  0  0  0  0
    8.6748   -0.7309   21.9486 C   0  0  0  0  0  0  0  0  0  0  0  0
    8.3746   -0.6797   20.6272 N   0  0  0  0  0  0  0  0  0  0  0  0
    7.2665   -0.1225   19.9412 C   0  0  0  0  0  0  0  0  0  0  0  0
    6.0440   -0.0831   20.6024 C   0  0  0  0  0  0  0  0  0  0  0  0
    4.9260    0.4495   19.9833 C   0  0  0  0  0  0  0  0  0  0  0  0
    5.0130    0.9474   18.7021 C   0  0  0  0  0  0  0  0  0  0  0  0
    6.2188    0.9137   18.0369 C   0  0  0  0  0  0  0  0  0  0  0  0
    7.3445    0.3834   18.6456 C   0  0  0  0  0  0  0  0  0  0  0  0
    9.9826   -1.4339   22.2432 C   0  0  0  0  0  0  0  0  0  0  0  0
   10.1809   -1.6080   23.7439 C   0  0  0  0  0  0  0  0  0  0  0  0
   11.5092   -2.2769   24.0314 C   0  0  0  0  0  0  0  0  0  0  0  0
   12.5978   -1.4935   23.4532 N   0  0  0  0  0  0  0  0  0  0  0  0
   12.4791   -1.3452   22.0066 C   0  0  0  0  0  0  0  0  0  0  0  0
   11.1620   -0.6595   21.6590 C   0  0  0  0  0  0  0  0  0  0  0  0
   13.7499   -1.1673   24.0755 C   0  0  0  0  0  0  0  0  0  0  0  0
   14.6003   -0.5122   23.5040 O   0  0  0  0  0  0  0  0  0  0  0  0
   13.9821   -1.6236   25.5185 C   0  0  0  0  0  0  0  0  0  0  0  0
   14.1184   -3.0373   25.8422 C   0  0  0  0  0  0  0  0  0  0  0  0
   15.2730   -2.1905   25.8211 O   0  0  0  0  0  0  0  0  0  0  0  0
  1  2  2  0
  2  3  1  0
  3  4  1  0
  4  5  2  0
  5  6  1  0
  6  7  2  0
  7  8  1  0
  8  9  2  0
  2 10  1  0
 10 11  1  0
 11 12  1  0
 12 13  1  0
 13 14  1  0
 14 15  1  0
 13 16  1  0
 16 17  2  0
 16 18  1  0
 18 19  1  0
 19 20  1  0
  9  4  1  0
 15 10  1  0
 20 18  1  0
M  END
