CVD-0003043|dock_bobby27042020.61|mol2|11|dock1
     RDKit          3D

 24 26  0  0  0  0  0  0  0  0999 V2000
    7.3200   -6.5494   28.2567 Cl  0  0  0  0  0  0  0  0  0  0  0  0
    8.2534   -5.4686   27.2137 C   0  0  0  0  0  0  0  0  0  0  0  0
    7.5565   -5.2431   25.8859 C   0  0  0  0  0  0  0  0  0  0  0  0
    6.4255   -5.6653   25.6806 O   0  0  0  0  0  0  0  0  0  0  0  0
    8.2460   -4.5626   24.9470 N   0  0  0  0  0  0  0  0  0  0  0  0
    9.5944   -4.0062   25.0950 C   0  0  0  0  0  0  0  0  0  0  0  0
    9.6453   -2.5910   24.5806 C   0  0  0  0  0  0  0  0  0  0  0  0
    9.2047   -2.5278   23.1774 N   0  0  0  0  0  0  0  0  0  0  0  0
    7.8272   -3.0189   23.1190 C   0  0  0  0  0  0  0  0  0  0  0  0
    7.7430   -4.4547   23.5788 C   0  0  0  0  0  0  0  0  0  0  0  0
    9.2964   -1.1577   22.6526 C   0  0  0  0  0  0  0  0  0  0  0  0
    8.6091   -0.9717   21.3149 C   0  0  0  0  0  0  0  0  0  0  0  0
    8.7686   -1.7047   20.1457 C   0  0  0  0  0  0  0  0  0  0  0  0
    7.9720   -1.2605   19.0933 C   0  0  0  0  0  0  0  0  0  0  0  0
    7.2132   -0.2062   19.4464 C   0  0  0  0  0  0  0  0  0  0  0  0
    5.9961    0.7180   18.3659 Br  0  0  0  0  0  0  0  0  0  0  0  0
    7.4441    0.2816   21.0748 S   0  0  0  0  0  0  0  0  0  0  0  0
   10.7546   -0.7122   22.6456 C   0  0  0  0  0  0  0  0  0  0  0  0
   11.1993    0.4308   23.3023 C   0  0  0  0  0  0  0  0  0  0  0  0
   12.5353    0.7939   23.2622 C   0  0  0  0  0  0  0  0  0  0  0  0
   13.4507    0.0226   22.5672 C   0  0  0  0  0  0  0  0  0  0  0  0
   13.0053   -1.1079   21.9200 C   0  0  0  0  0  0  0  0  0  0  0  0
   14.1427   -2.0908   21.0412 Cl  0  0  0  0  0  0  0  0  0  0  0  0
   11.6774   -1.4812   21.9510 C   0  0  0  0  0  0  0  0  0  0  0  0
  1  2  1  0
  2  3  1  0
  3  4  2  0
  3  5  1  0
  5  6  1  0
  6  7  1  0
  7  8  1  0
  8  9  1  0
  9 10  1  0
  8 11  1  0
 11 12  1  0
 12 13  2  0
 13 14  1  0
 14 15  2  0
 15 16  1  0
 15 17  1  0
 11 18  1  0
 18 19  2  0
 19 20  1  0
 20 21  2  0
 21 22  1  0
 22 23  1  0
 22 24  2  0
 10  5  1  0
 17 12  1  0
 24 18  1  0
M  END
