CVD-0001833|dock_bobby27042020.94|mol2|7|dock2
     RDKit          3D

 25 28  0  0  0  0  0  0  0  0999 V2000
    9.8137   -6.2198   26.5153 C   0  0  0  0  0  0  0  0  0  0  0  0
    9.2658   -5.5149   25.3629 N   0  0  0  0  0  0  0  0  0  0  0  0
    9.0050   -4.2071   25.2492 C   0  0  0  0  0  0  0  0  0  0  0  0
    8.4691   -3.9977   23.9997 C   0  0  0  0  0  0  0  0  0  0  0  0
    8.4425   -5.2777   23.4310 C   0  0  0  0  0  0  0  0  0  0  0  0
    8.9156   -6.2023   24.2508 N   0  0  0  0  0  0  0  0  0  0  0  0
    8.0245   -2.6823   23.4075 C   0  0  0  0  0  0  0  0  0  0  0  0
    6.8336   -2.8099   22.4748 C   0  0  0  0  0  0  0  0  0  0  0  0
    7.0556   -1.7773   21.4677 N   0  0  0  0  0  0  0  0  0  0  0  0
    8.3456   -1.1214   21.6399 C   0  0  0  0  0  0  0  0  0  0  0  0
    9.1206   -2.0924   22.5259 C   0  0  0  0  0  0  0  0  0  0  0  0
   10.2767   -1.5143   23.2317 N   0  0  0  0  0  0  0  0  0  0  0  0
   11.4002   -1.0099   22.4345 C   0  0  0  0  0  0  0  0  0  0  0  0
   12.2914   -2.1033   21.8120 C   0  0  0  0  0  0  0  0  0  0  0  0
   13.7201   -1.5960   21.9581 C   0  0  0  0  0  0  0  0  0  0  0  0
   13.6045   -0.5822   22.9891 N   0  0  0  0  0  0  0  0  0  0  0  0
   12.3579   -0.1804   23.2494 C   0  0  0  0  0  0  0  0  0  0  0  0
   12.0473    0.6952   24.0525 O   0  0  0  0  0  0  0  0  0  0  0  0
    6.1611   -1.5195   20.4966 C   0  0  0  0  0  0  0  0  0  0  0  0
    5.1183   -2.1601   20.4318 O   0  0  0  0  0  0  0  0  0  0  0  0
    6.3566   -0.4659   19.4521 C   0  0  0  0  0  0  0  0  0  0  0  0
    5.2671    0.1664   18.9457 C   0  0  0  0  0  0  0  0  0  0  0  0
    5.7184    1.3201   17.7791 S   0  0  0  0  0  0  0  0  0  0  0  0
    7.3514    0.8983   18.0275 C   0  0  0  0  0  0  0  0  0  0  0  0
    7.5608   -0.0316   18.9110 N   0  0  0  0  0  0  0  0  0  0  0  0
  1  2  1  0
  2  3  1  0
  3  4  2  0
  4  5  1  0
  5  6  2  0
  4  7  1  0
  7  8  1  0
  8  9  1  0
  9 10  1  0
 10 11  1  0
 11 12  1  0
 12 13  1  0
 13 14  1  0
 14 15  1  0
 15 16  1  0
 16 17  1  0
 17 18  2  0
  9 19  1  0
 19 20  2  0
 19 21  1  0
 21 22  2  0
 22 23  1  0
 23 24  1  0
 24 25  2  0
  6  2  1  0
 11  7  1  0
 17 13  1  0
 25 21  1  0
M  END
