CVD-0001874|dock_bobby27042020.94|mol2|1|dock2
     RDKit          3D

 32 34  0  0  0  0  0  0  0  0999 V2000
    5.7483   -1.1435   19.5016 C   0  0  0  0  0  0  0  0  0  0  0  0
    6.5656    0.0571   19.4399 N   0  0  0  0  0  0  0  0  0  0  0  0
    6.3979    0.9224   18.2840 C   0  0  0  0  0  0  0  0  0  0  0  0
    7.6162    0.3321   20.3846 C   0  0  0  0  0  0  0  0  0  0  0  0
    8.8244   -0.3650   20.2804 C   0  0  0  0  0  0  0  0  0  0  0  0
    9.8439   -0.1581   21.1913 C   0  0  0  0  0  0  0  0  0  0  0  0
    9.7013    0.7462   22.2305 C   0  0  0  0  0  0  0  0  0  0  0  0
    8.5077    1.4475   22.3148 C   0  0  0  0  0  0  0  0  0  0  0  0
    7.4645    1.2835   21.4069 C   0  0  0  0  0  0  0  0  0  0  0  0
    6.2687    2.1766   21.6195 C   0  0  0  0  0  0  0  0  0  0  0  0
   10.7334    0.9550   23.2050 N   0  0  0  0  0  0  0  0  0  0  0  0
   10.9195   -0.0966   24.2411 C   0  0  0  0  0  0  0  0  0  0  0  0
    9.6467   -0.9603   24.3717 C   0  0  0  0  0  0  0  0  0  0  0  0
    8.7789   -0.6993   25.2004 O   0  0  0  0  0  0  0  0  0  0  0  0
    9.6236   -1.9915   23.4914 N   0  0  0  0  0  0  0  0  0  0  0  0
    8.6633   -3.0105   23.2716 C   0  0  0  0  0  0  0  0  0  0  0  0
    8.6003   -3.5864   22.0079 C   0  0  0  0  0  0  0  0  0  0  0  0
    7.6865   -4.5857   21.7262 C   0  0  0  0  0  0  0  0  0  0  0  0
    6.8301   -5.0111   22.7161 C   0  0  0  0  0  0  0  0  0  0  0  0
    5.6771   -6.2688   22.3679 Cl  0  0  0  0  0  0  0  0  0  0  0  0
    6.8693   -4.4594   23.9767 C   0  0  0  0  0  0  0  0  0  0  0  0
    7.7850   -3.4597   24.2549 C   0  0  0  0  0  0  0  0  0  0  0  0
   12.1908   -0.9238   24.0761 C   0  0  0  0  0  0  0  0  0  0  0  0
   12.5897   -1.8629   25.0163 C   0  0  0  0  0  0  0  0  0  0  0  0
   13.7503   -2.5906   24.8188 C   0  0  0  0  0  0  0  0  0  0  0  0
   14.4846   -2.3580   23.6782 C   0  0  0  0  0  0  0  0  0  0  0  0
   14.1312   -1.4648   22.7531 N   0  0  0  0  0  0  0  0  0  0  0  0
   13.0068   -0.7745   22.9657 C   0  0  0  0  0  0  0  0  0  0  0  0
   11.6095    2.0374   23.2381 C   0  0  0  0  0  0  0  0  0  0  0  0
   12.4840    2.0972   24.1010 O   0  0  0  0  0  0  0  0  0  0  0  0
   11.5686    3.1898   22.2847 C   0  0  0  0  0  0  0  0  0  0  0  0
   12.4359    4.1695   22.2595 C   0  0  0  0  0  0  0  0  0  0  0  0
  1  2  1  0
  2  3  1  0
  2  4  1  0
  4  5  2  0
  5  6  1  0
  6  7  2  0
  7  8  1  0
  8  9  2  0
  9 10  1  0
  7 11  1  0
 11 12  1  0
 12 13  1  0
 13 14  2  0
 13 15  1  0
 15 16  1  0
 16 17  2  0
 17 18  1  0
 18 19  2  0
 19 20  1  0
 19 21  1  0
 21 22  2  0
 12 23  1  0
 23 24  2  0
 24 25  1  0
 25 26  2  0
 26 27  1  0
 27 28  2  0
 11 29  1  0
 29 30  2  0
 29 31  1  0
 31 32  2  0
  9  4  1  0
 22 16  1  0
 28 23  1  0
M  END
