CVD-0000928|dock_bobby27042020.97|mol2|6|dock1
     RDKit          3D

 42 45  0  0  0  0  0  0  0  0999 V2000
    4.3803   -6.4602   25.0257 C   0  0  0  0  0  0  0  0  0  0  0  0
    4.1844   -6.3104   23.5336 C   0  0  0  0  0  0  0  0  0  0  0  0
    3.2181   -5.3709   23.2778 N   0  0  0  0  0  0  0  0  0  0  0  0
    5.4297   -5.8989   22.9174 N   0  0  0  0  0  0  0  0  0  0  0  0
    6.0114   -4.5792   23.2056 C   0  0  0  0  0  0  0  0  0  0  0  0
    7.1383   -4.6338   24.2522 C   0  0  0  0  0  0  0  0  0  0  0  0
    8.2888   -5.5724   23.9410 C   0  0  0  0  0  0  0  0  0  0  0  0
    9.2684   -5.6404   24.8294 N   0  0  0  0  0  0  0  0  0  0  0  0
    8.3019   -6.2462   22.9073 O   0  0  0  0  0  0  0  0  0  0  0  0
    6.4618   -3.8892   21.9197 C   0  0  0  0  0  0  0  0  0  0  0  0
    6.6974   -4.5391   20.9046 O   0  0  0  0  0  0  0  0  0  0  0  0
    6.5750   -2.5586   21.9668 N   0  0  0  0  0  0  0  0  0  0  0  0
    6.9863   -1.7707   20.8105 C   0  0  0  0  0  0  0  0  0  0  0  0
    8.4219   -2.1132   20.3964 C   0  0  0  0  0  0  0  0  0  0  0  0
    9.4907   -1.3701   21.1633 C   0  0  0  0  0  0  0  0  0  0  0  0
    9.3103    0.0941   20.8220 C   0  0  0  0  0  0  0  0  0  0  0  0
    7.9673    0.6922   21.2652 C   0  0  0  0  0  0  0  0  0  0  0  0
    6.8129   -0.2659   20.9551 N   0  0  0  0  0  0  0  0  0  0  0  0
    5.5199    0.1132   20.7838 C   0  0  0  0  0  0  0  0  0  0  0  0
    4.6039   -0.6668   20.5552 O   0  0  0  0  0  0  0  0  0  0  0  0
    5.2172    1.5954   20.8974 C   0  0  0  0  0  0  0  0  0  0  0  0
    3.4736    1.8911   20.9064 Cl  0  0  0  0  0  0  0  0  0  0  0  0
   10.3805    0.9597   21.4193 C   0  0  0  0  0  0  0  0  0  0  0  0
   10.1710    2.1832   21.7910 N   0  0  0  0  0  0  0  0  0  0  0  0
   11.3308    2.7584   22.3052 C   0  0  0  0  0  0  0  0  0  0  0  0
   11.4927    4.0507   22.8056 C   0  0  0  0  0  0  0  0  0  0  0  0
   12.7257    4.4975   23.2882 C   0  0  0  0  0  0  0  0  0  0  0  0
   13.8048    3.6169   23.2651 C   0  0  0  0  0  0  0  0  0  0  0  0
   13.6732    2.3288   22.7802 C   0  0  0  0  0  0  0  0  0  0  0  0
   12.4386    1.9043   22.3007 C   0  0  0  0  0  0  0  0  0  0  0  0
   12.0065    0.3551   21.6397 S   0  0  0  0  0  0  0  0  0  0  0  0
   12.8806    5.8810   23.8142 C   0  0  0  0  0  0  0  0  0  0  0  0
   12.3687    6.2393   25.0579 C   0  0  0  0  0  0  0  0  0  0  0  0
   12.5111    7.5235   25.5502 C   0  0  0  0  0  0  0  0  0  0  0  0
   13.1678    8.4901   24.8051 C   0  0  0  0  0  0  0  0  0  0  0  0
   13.6927    8.1547   23.5499 C   0  0  0  0  0  0  0  0  0  0  0  0
   14.3493    9.0581   22.7716 O   0  0  0  0  0  0  0  0  0  0  0  0
   13.5450    6.8613   23.0745 C   0  0  0  0  0  0  0  0  0  0  0  0
   13.2988   10.1109   25.5150 S   0  0  0  0  0  0  0  0  0  0  0  0
   11.8216   10.6841   25.7443 N   0  0  0  0  0  0  0  0  0  0  0  0
   13.9020    9.9678   26.8060 O   0  0  0  0  0  0  0  0  0  0  0  0
   13.9334   10.9502   24.5433 O   0  0  0  0  0  0  0  0  0  0  0  0
  1  2  1  0
  2  3  1  0
  2  4  1  0
  4  5  1  0
  5  6  1  0
  6  7  1  0
  7  8  1  0
  7  9  2  0
  5 10  1  0
 10 11  2  0
 10 12  1  0
 12 13  1  0
 13 14  1  0
 14 15  1  0
 15 16  1  0
 16 17  1  0
 17 18  1  0
 18 19  1  0
 19 20  2  0
 19 21  1  0
 21 22  1  0
 16 23  1  0
 23 24  2  0
 24 25  1  0
 25 26  2  0
 26 27  1  0
 27 28  2  0
 28 29  1  0
 29 30  2  0
 30 31  1  0
 27 32  1  0
 32 33  2  0
 33 34  1  0
 34 35  2  0
 35 36  1  0
 36 37  1  0
 36 38  2  0
 35 39  1  0
 39 40  1  0
 39 41  2  0
 39 42  2  0
 18 13  1  0
 31 23  1  0
 38 32  1  0
 30 25  1  0
M  END
