CVD-0004029|dock_bobby27042020.0|mol2|8|dock1
     RDKit          3D

 27 29  0  0  0  0  0  0  0  0999 V2000
   13.1493    4.7403   21.8260 C   0  0  0  0  0  0  0  0  0  0  0  0
   12.5340    3.4621   22.8527 S   0  0  0  0  0  0  0  0  0  0  0  0
   13.3685    2.3131   22.6808 O   0  0  0  0  0  0  0  0  0  0  0  0
   12.3697    3.9930   24.1705 O   0  0  0  0  0  0  0  0  0  0  0  0
   11.0726    3.0716   22.3202 N   0  0  0  0  0  0  0  0  0  0  0  0
   10.3058    2.0169   22.9953 C   0  0  0  0  0  0  0  0  0  0  0  0
   10.5418    0.6790   22.3138 C   0  0  0  0  0  0  0  0  0  0  0  0
   10.2151   -0.5838   23.1318 C   0  0  0  0  0  0  0  0  0  0  0  0
   11.4242   -1.2572   23.8236 C   0  0  0  0  0  0  0  0  0  0  0  0
   12.4329   -1.8751   22.8553 C   0  0  0  0  0  0  0  0  0  0  0  0
   13.5912   -2.5337   23.6043 C   0  0  0  0  0  0  0  0  0  0  0  0
   14.2753   -1.5502   24.5338 C   0  0  0  0  0  0  0  0  0  0  0  0
   13.2901   -0.9161   25.4941 C   0  0  0  0  0  0  0  0  0  0  0  0
   12.1261   -0.2651   24.7539 C   0  0  0  0  0  0  0  0  0  0  0  0
    9.5658   -1.5894   22.1961 C   0  0  0  0  0  0  0  0  0  0  0  0
    9.7998   -1.5817   21.0070 O   0  0  0  0  0  0  0  0  0  0  0  0
    8.6190   -2.5990   22.7960 C   0  0  0  0  0  0  0  0  0  0  0  0
    7.1672   -2.1560   22.7852 C   0  0  0  0  0  0  0  0  0  0  0  0
    6.5925   -2.0163   21.4060 C   0  0  0  0  0  0  0  0  0  0  0  0
    6.2648   -3.0138   20.5354 C   0  0  0  0  0  0  0  0  0  0  0  0
    5.7666   -2.4926   19.3709 N   0  0  0  0  0  0  0  0  0  0  0  0
    5.7636   -1.1322   19.4703 C   0  0  0  0  0  0  0  0  0  0  0  0
    5.3527   -0.2483   18.5454 N   0  0  0  0  0  0  0  0  0  0  0  0
    5.4487    1.0462   18.8787 C   0  0  0  0  0  0  0  0  0  0  0  0
    5.9344    1.4940   20.0886 C   0  0  0  0  0  0  0  0  0  0  0  0
    6.3540    0.5686   21.0313 C   0  0  0  0  0  0  0  0  0  0  0  0
    6.2749   -0.7902   20.7336 C   0  0  0  0  0  0  0  0  0  0  0  0
  1  2  1  0
  2  3  2  0
  2  4  2  0
  2  5  1  0
  5  6  1  0
  6  7  1  0
  7  8  1  0
  8  9  1  0
  9 10  1  0
 10 11  1  0
 11 12  1  0
 12 13  1  0
 13 14  1  0
  8 15  1  0
 15 16  2  0
 15 17  1  0
 17 18  1  0
 18 19  1  0
 19 20  2  0
 20 21  1  0
 21 22  1  0
 22 23  2  0
 23 24  1  0
 24 25  2  0
 25 26  1  0
 26 27  2  0
 14  9  1  0
 27 19  1  0
 27 22  1  0
M  END
