CVD-0002708|dock_bobby27042020.33|mol2|18|dock1
     RDKit          3D

 32 35  0  0  0  0  0  0  0  0999 V2000
   13.7058    5.5933   22.6524 C   0  0  0  0  0  0  0  0  0  0  0  0
   13.1345    4.2949   23.1597 C   0  0  0  0  0  0  0  0  0  0  0  0
   13.8286    3.1192   22.9057 C   0  0  0  0  0  0  0  0  0  0  0  0
   13.3882    1.8768   23.3412 C   0  0  0  0  0  0  0  0  0  0  0  0
   14.2187    0.6554   23.0468 C   0  0  0  0  0  0  0  0  0  0  0  0
   12.1778    1.7847   24.0403 C   0  0  0  0  0  0  0  0  0  0  0  0
   11.7616    0.4216   24.5463 C   0  0  0  0  0  0  0  0  0  0  0  0
   11.4223    2.9677   24.2401 C   0  0  0  0  0  0  0  0  0  0  0  0
   11.9257    4.2431   23.8716 C   0  0  0  0  0  0  0  0  0  0  0  0
   11.2415    5.5492   24.2109 C   0  0  0  0  0  0  0  0  0  0  0  0
    9.7920    2.8137   24.9926 S   0  0  0  0  0  0  0  0  0  0  0  0
    8.9270    3.8883   24.6158 O   0  0  0  0  0  0  0  0  0  0  0  0
    9.9652    2.4832   26.3729 O   0  0  0  0  0  0  0  0  0  0  0  0
    9.1260    1.5082   24.2773 N   0  0  0  0  0  0  0  0  0  0  0  0
    8.1677    0.7245   25.0697 C   0  0  0  0  0  0  0  0  0  0  0  0
    8.0720   -0.6540   24.4956 C   0  0  0  0  0  0  0  0  0  0  0  0
    7.7207   -0.5988   23.0861 N   0  0  0  0  0  0  0  0  0  0  0  0
    8.6094    0.2445   22.2805 C   0  0  0  0  0  0  0  0  0  0  0  0
    8.7093    1.6196   22.8716 C   0  0  0  0  0  0  0  0  0  0  0  0
    6.6817   -1.3137   22.6173 C   0  0  0  0  0  0  0  0  0  0  0  0
    6.2311   -2.2485   23.2692 O   0  0  0  0  0  0  0  0  0  0  0  0
    6.0510   -1.0178   21.2932 C   0  0  0  0  0  0  0  0  0  0  0  0
    6.1861   -1.9273   20.2925 C   0  0  0  0  0  0  0  0  0  0  0  0
    5.6354   -1.7346   18.9920 C   0  0  0  0  0  0  0  0  0  0  0  0
    5.7353   -2.5430   18.0580 O   0  0  0  0  0  0  0  0  0  0  0  0
    4.9614   -0.5604   18.8027 N   0  0  0  0  0  0  0  0  0  0  0  0
    4.7711    0.4138   19.7790 C   0  0  0  0  0  0  0  0  0  0  0  0
    4.0632    1.5740   19.4774 C   0  0  0  0  0  0  0  0  0  0  0  0
    3.8513    2.5183   20.4681 C   0  0  0  0  0  0  0  0  0  0  0  0
    4.3322    2.3162   21.7437 C   0  0  0  0  0  0  0  0  0  0  0  0
    5.0477    1.1714   22.0508 C   0  0  0  0  0  0  0  0  0  0  0  0
    5.2927    0.2107   21.0694 C   0  0  0  0  0  0  0  0  0  0  0  0
  1  2  1  0
  2  3  2  0
  3  4  1  0
  4  5  1  0
  4  6  2  0
  6  7  1  0
  6  8  1  0
  8  9  2  0
  9 10  1  0
  8 11  1  0
 11 12  2  0
 11 13  2  0
 11 14  1  0
 14 15  1  0
 15 16  1  0
 16 17  1  0
 17 18  1  0
 18 19  1  0
 17 20  1  0
 20 21  2  0
 20 22  1  0
 22 23  2  0
 23 24  1  0
 24 25  2  0
 24 26  1  0
 26 27  1  0
 27 28  2  0
 28 29  1  0
 29 30  2  0
 30 31  1  0
 31 32  2  0
  9  2  1  0
 19 14  1  0
 32 22  1  0
 32 27  1  0
M  END
