CVD-0003954|dock_bobby27042020.15|mol2|5|dock1
     RDKit          3D

 18 19  0  0  0  0  0  0  0  0999 V2000
   14.0619    5.3686   21.7040 C   0  0  0  0  0  0  0  0  0  0  0  0
   13.5075    4.4273   22.7327 C   0  0  0  0  0  0  0  0  0  0  0  0
   14.0811    4.2175   23.7969 O   0  0  0  0  0  0  0  0  0  0  0  0
   12.3459    3.8444   22.4301 N   0  0  0  0  0  0  0  0  0  0  0  0
   11.7007    2.9303   23.3474 C   0  0  0  0  0  0  0  0  0  0  0  0
   10.8461    1.9284   22.6277 C   0  0  0  0  0  0  0  0  0  0  0  0
    9.6700    2.2270   22.0193 C   0  0  0  0  0  0  0  0  0  0  0  0
    8.9475    0.8736   21.2866 S   0  0  0  0  0  0  0  0  0  0  0  0
   10.2184   -0.1478   21.7714 C   0  0  0  0  0  0  0  0  0  0  0  0
   11.1658    0.5251   22.4770 C   0  0  0  0  0  0  0  0  0  0  0  0
   12.4024   -0.1290   23.0286 C   0  0  0  0  0  0  0  0  0  0  0  0
   12.8270   -1.4402   22.3914 C   0  0  0  0  0  0  0  0  0  0  0  0
   13.9490   -1.8967   23.2721 C   0  0  0  0  0  0  0  0  0  0  0  0
   13.6207   -1.4021   24.7028 C   0  0  0  0  0  0  0  0  0  0  0  0
   12.3801   -0.4752   24.5479 C   0  0  0  0  0  0  0  0  0  0  0  0
   11.0701   -1.0863   25.0133 C   0  0  0  0  0  0  0  0  0  0  0  0
   10.1958   -0.2277   25.5131 N   0  0  0  0  0  0  0  0  0  0  0  0
   10.8242   -2.2922   24.9325 O   0  0  0  0  0  0  0  0  0  0  0  0
  1  2  1  0
  2  3  2  0
  2  4  1  0
  4  5  1  0
  5  6  1  0
  6  7  2  0
  7  8  1  0
  8  9  1  0
  9 10  2  0
 10 11  1  0
 11 12  1  0
 12 13  1  0
 13 14  1  0
 14 15  1  0
 15 16  1  0
 16 17  1  0
 16 18  2  0
 10  6  1  0
 15 11  1  0
M  END
