CVD-0003271|dock_bobby27042020.45|mol2|44|dock2
     RDKit          3D

 38 39  0  0  0  0  0  0  0  0999 V2000
    8.3999   -0.5342   17.8734 N   0  0  0  0  0  0  0  0  0  0  0  0
    7.6847   -0.1894   19.1178 C   0  0  0  0  0  0  0  0  0  0  0  0
    6.2612   -0.6184   19.0449 C   0  0  0  0  0  0  0  0  0  0  0  0
    5.7211    0.0119   17.8895 O   0  0  0  0  0  0  0  0  0  0  0  0
    8.3845   -0.8597   20.2924 C   0  0  0  0  0  0  0  0  0  0  0  0
    8.3566   -2.0801   20.4279 O   0  0  0  0  0  0  0  0  0  0  0  0
    9.0191   -0.0395   21.1379 N   0  0  0  0  0  0  0  0  0  0  0  0
    9.7460   -0.5059   22.3113 C   0  0  0  0  0  0  0  0  0  0  0  0
   10.0645    0.6599   23.2579 C   0  0  0  0  0  0  0  0  0  0  0  0
   11.3944    1.3053   23.0059 C   0  0  0  0  0  0  0  0  0  0  0  0
   12.6187    0.7039   23.0042 C   0  0  0  0  0  0  0  0  0  0  0  0
   13.5996    1.6188   22.7351 N   0  0  0  0  0  0  0  0  0  0  0  0
   13.0207    2.8509   22.5546 C   0  0  0  0  0  0  0  0  0  0  0  0
   13.5833    4.0889   22.2637 C   0  0  0  0  0  0  0  0  0  0  0  0
   12.7441    5.1836   22.1349 C   0  0  0  0  0  0  0  0  0  0  0  0
   11.3797    5.0475   22.2920 C   0  0  0  0  0  0  0  0  0  0  0  0
   10.8171    3.8145   22.5819 C   0  0  0  0  0  0  0  0  0  0  0  0
   11.6315    2.6913   22.7184 C   0  0  0  0  0  0  0  0  0  0  0  0
    8.9875   -1.5966   23.0667 C   0  0  0  0  0  0  0  0  0  0  0  0
    8.2051   -1.3198   23.9723 O   0  0  0  0  0  0  0  0  0  0  0  0
    9.2227   -2.8550   22.6837 N   0  0  0  0  0  0  0  0  0  0  0  0
    8.5614   -3.9820   23.3207 C   0  0  0  0  0  0  0  0  0  0  0  0
    7.0488   -3.8743   23.1429 C   0  0  0  0  0  0  0  0  0  0  0  0
    6.4484   -5.1616   23.0731 O   0  0  0  0  0  0  0  0  0  0  0  0
    8.8960   -4.0388   24.8084 C   0  0  0  0  0  0  0  0  0  0  0  0
    9.6502   -3.2075   25.3071 O   0  0  0  0  0  0  0  0  0  0  0  0
    8.3300   -5.0245   25.5110 N   0  0  0  0  0  0  0  0  0  0  0  0
    8.5702   -5.1854   26.9361 C   0  0  0  0  0  0  0  0  0  0  0  0
    7.5457   -6.1462   27.5520 C   0  0  0  0  0  0  0  0  0  0  0  0
    6.0977   -5.6668   27.6092 C   0  0  0  0  0  0  0  0  0  0  0  0
    5.2138   -6.4419   28.5677 C   0  0  0  0  0  0  0  0  0  0  0  0
    5.6336   -6.2721   29.9514 N   0  0  0  0  0  0  0  0  0  0  0  0
    6.4018   -7.1297   30.6098 C   0  0  0  0  0  0  0  0  0  0  0  0
    6.7289   -6.8776   31.8803 N   0  0  0  0  0  0  0  0  0  0  0  0
    6.8462   -8.2284   30.0239 N   0  0  0  0  0  0  0  0  0  0  0  0
    9.9987   -5.6433   27.1858 C   0  0  0  0  0  0  0  0  0  0  0  0
   10.5043   -5.1541   28.2891 O   0  0  0  0  0  0  0  0  0  0  0  0
   10.5929   -6.3828   26.4325 O   0  0  0  0  0  0  0  0  0  0  0  0
  2  1  1  0
  2  3  1  0
  3  4  1  0
  2  5  1  0
  5  6  2  0
  5  7  1  0
  7  8  1  0
  8  9  1  0
  9 10  1  0
 10 11  2  0
 11 12  1  0
 12 13  1  0
 13 14  2  0
 14 15  1  0
 15 16  2  0
 16 17  1  0
 17 18  2  0
  8 19  1  0
 19 20  2  0
 19 21  1  0
 21 22  1  0
 22 23  1  0
 23 24  1  0
 22 25  1  0
 25 26  2  0
 25 27  1  0
 27 28  1  0
 28 29  1  0
 29 30  1  0
 30 31  1  0
 31 32  1  0
 32 33  1  0
 33 34  1  0
 33 35  2  0
 28 36  1  0
 36 37  1  0
 36 38  2  0
 18 10  1  0
 18 13  1  0
M  END
