CVD-0001753|dock_bobby27042020.51|mol2|27|dock1
     RDKit          3D

 30 32  0  0  0  0  0  0  0  0999 V2000
    6.4498    0.4417   25.8287 C   0  0  0  0  0  0  0  0  0  0  0  0
    6.1277   -0.9729   25.4609 C   0  0  0  0  0  0  0  0  0  0  0  0
    6.6527   -1.3143   24.1494 N   0  0  0  0  0  0  0  0  0  0  0  0
    6.7730   -2.5802   23.7182 C   0  0  0  0  0  0  0  0  0  0  0  0
    6.1556   -3.5140   24.4705 N   0  0  0  0  0  0  0  0  0  0  0  0
    6.1180   -4.7764   24.0327 C   0  0  0  0  0  0  0  0  0  0  0  0
    6.7176   -5.1999   22.8548 C   0  0  0  0  0  0  0  0  0  0  0  0
    7.4177   -4.2628   22.1051 C   0  0  0  0  0  0  0  0  0  0  0  0
    7.4820   -2.9434   22.5442 C   0  0  0  0  0  0  0  0  0  0  0  0
    8.2731   -2.0305   21.7551 N   0  0  0  0  0  0  0  0  0  0  0  0
    9.7297   -2.2146   21.8501 C   0  0  0  0  0  0  0  0  0  0  0  0
   10.3835   -1.0823   22.6243 C   0  0  0  0  0  0  0  0  0  0  0  0
   11.4537   -1.5443   23.5181 N   0  0  0  0  0  0  0  0  0  0  0  0
   12.6388   -1.9446   22.7500 C   0  0  0  0  0  0  0  0  0  0  0  0
   13.7383   -2.4767   23.6478 C   0  0  0  0  0  0  0  0  0  0  0  0
   14.1466   -1.4841   24.7295 C   0  0  0  0  0  0  0  0  0  0  0  0
   15.0906   -2.0071   25.6681 O   0  0  0  0  0  0  0  0  0  0  0  0
   12.8874   -1.0074   25.4451 C   0  0  0  0  0  0  0  0  0  0  0  0
   11.8288   -0.5032   24.4786 C   0  0  0  0  0  0  0  0  0  0  0  0
    7.7495   -0.9839   20.9873 C   0  0  0  0  0  0  0  0  0  0  0  0
    8.5396   -0.2661   20.3899 O   0  0  0  0  0  0  0  0  0  0  0  0
    6.3860   -0.8029   20.9181 N   0  0  0  0  0  0  0  0  0  0  0  0
    5.6229    0.1631   20.2105 C   0  0  0  0  0  0  0  0  0  0  0  0
    6.0710    0.5493   18.9533 C   0  0  0  0  0  0  0  0  0  0  0  0
    5.3618    1.4881   18.2252 C   0  0  0  0  0  0  0  0  0  0  0  0
    4.2187    2.0193   18.7741 C   0  0  0  0  0  0  0  0  0  0  0  0
    3.7600    1.6721   19.9761 N   0  0  0  0  0  0  0  0  0  0  0  0
    4.4516    0.7638   20.6715 C   0  0  0  0  0  0  0  0  0  0  0  0
    6.6229   -6.5713   22.4189 C   0  0  0  0  0  0  0  0  0  0  0  0
    6.5677   -7.6665   22.0990 N   0  0  0  0  0  0  0  0  0  0  0  0
  1  2  1  0
  2  3  1  0
  3  4  1  0
  4  5  2  0
  5  6  1  0
  6  7  2  0
  7  8  1  0
  8  9  2  0
  9 10  1  0
 10 11  1  0
 11 12  1  0
 12 13  1  0
 13 14  1  0
 14 15  1  0
 15 16  1  0
 16 17  1  0
 16 18  1  0
 18 19  1  0
 10 20  1  0
 20 21  2  0
 20 22  1  0
 22 23  1  0
 23 24  2  0
 24 25  1  0
 25 26  2  0
 26 27  1  0
 27 28  2  0
  7 29  1  0
 29 30  3  0
  9  4  1  0
 19 13  1  0
 28 23  1  0
M  END
