CVD-0001122|dock_bobby27042020.68|mol2|8|dock2
     RDKit          3D

 23 24  0  0  0  0  0  0  0  0999 V2000
   12.1078    6.8777   25.3420 C   0  0  0  0  0  0  0  0  0  0  0  0
   12.8323    6.4098   24.1141 C   0  0  0  0  0  0  0  0  0  0  0  0
   13.5164    7.1691   23.4351 O   0  0  0  0  0  0  0  0  0  0  0  0
   12.7027    5.1163   23.8129 N   0  0  0  0  0  0  0  0  0  0  0  0
   13.3577    4.5081   22.6636 C   0  0  0  0  0  0  0  0  0  0  0  0
   13.3256    2.9941   22.7298 C   0  0  0  0  0  0  0  0  0  0  0  0
   11.9643    2.4233   22.4599 C   0  0  0  0  0  0  0  0  0  0  0  0
   10.8054    3.1107   22.2456 C   0  0  0  0  0  0  0  0  0  0  0  0
    9.7671    2.2447   22.0341 N   0  0  0  0  0  0  0  0  0  0  0  0
   10.2485    0.9611   22.1102 C   0  0  0  0  0  0  0  0  0  0  0  0
    9.5755   -0.2548   21.9649 C   0  0  0  0  0  0  0  0  0  0  0  0
    8.0922   -0.3139   21.6749 C   0  0  0  0  0  0  0  0  0  0  0  0
    7.7934   -0.4649   20.1941 C   0  0  0  0  0  0  0  0  0  0  0  0
    6.4662   -1.0582   19.9916 N   0  0  0  0  0  0  0  0  0  0  0  0
    5.8369   -1.1093   18.5179 S   0  0  0  0  0  0  0  0  0  0  0  0
    4.9924    0.4010   18.2484 C   0  0  0  0  0  0  0  0  0  0  0  0
    4.8718   -2.1649   18.5107 O   0  0  0  0  0  0  0  0  0  0  0  0
    6.9300   -1.1770   17.5977 O   0  0  0  0  0  0  0  0  0  0  0  0
   10.3135   -1.4262   22.0901 C   0  0  0  0  0  0  0  0  0  0  0  0
   11.6615   -1.3421   22.3509 C   0  0  0  0  0  0  0  0  0  0  0  0
   12.3612   -2.5027   22.4697 F   0  0  0  0  0  0  0  0  0  0  0  0
   12.3466   -0.1583   22.4993 C   0  0  0  0  0  0  0  0  0  0  0  0
   11.6280    1.0305   22.3767 C   0  0  0  0  0  0  0  0  0  0  0  0
  1  2  1  0
  2  3  2  0
  2  4  1  0
  4  5  1  0
  5  6  1  0
  6  7  1  0
  7  8  2  0
  8  9  1  0
  9 10  1  0
 10 11  2  0
 11 12  1  0
 12 13  1  0
 13 14  1  0
 14 15  1  0
 15 16  1  0
 15 17  2  0
 15 18  2  0
 11 19  1  0
 19 20  2  0
 20 21  1  0
 20 22  1  0
 22 23  2  0
 23  7  1  0
 23 10  1  0
M  END
