CVD-0003766|dock_bobby27042020.15|mol2|32|dock2
     RDKit          3D

 29 32  0  0  0  0  0  0  0  0999 V2000
    6.2580    1.5824   18.6970 O   0  0  0  0  0  0  0  0  0  0  0  0
    5.7104    0.5337   19.5004 C   0  0  0  0  0  0  0  0  0  0  0  0
    5.6150    0.9212   20.9774 C   0  0  0  0  0  0  0  0  0  0  0  0
    6.9864    1.0108   21.6535 C   0  0  0  0  0  0  0  0  0  0  0  0
    7.7149   -0.3163   21.4951 C   0  0  0  0  0  0  0  0  0  0  0  0
    7.8653   -0.7067   20.0278 C   0  0  0  0  0  0  0  0  0  0  0  0
    6.4939   -0.7653   19.3554 C   0  0  0  0  0  0  0  0  0  0  0  0
    9.0369   -0.2949   22.1852 N   0  0  0  0  0  0  0  0  0  0  0  0
    9.8883    0.7602   21.9443 C   0  0  0  0  0  0  0  0  0  0  0  0
    9.6741    1.5557   21.0384 O   0  0  0  0  0  0  0  0  0  0  0  0
   11.1381    1.0213   22.7708 C   0  0  0  0  0  0  0  0  0  0  0  0
   11.5732    2.4670   22.6876 C   0  0  0  0  0  0  0  0  0  0  0  0
   10.6556    3.5018   22.7558 C   0  0  0  0  0  0  0  0  0  0  0  0
   11.0900    4.8135   22.6796 C   0  0  0  0  0  0  0  0  0  0  0  0
   12.4385    5.0493   22.5374 C   0  0  0  0  0  0  0  0  0  0  0  0
   13.3464    4.0744   22.4699 N   0  0  0  0  0  0  0  0  0  0  0  0
   12.9032    2.8159   22.5459 C   0  0  0  0  0  0  0  0  0  0  0  0
    9.4009   -1.4218   23.1346 C   0  0  0  0  0  0  0  0  0  0  0  0
    8.9787   -1.0318   24.5623 C   0  0  0  0  0  0  0  0  0  0  0  0
    7.4781   -1.1209   24.8135 C   0  0  0  0  0  0  0  0  0  0  0  0
    6.9483   -2.4734   24.4314 C   0  0  0  0  0  0  0  0  0  0  0  0
    7.2375   -2.7961   22.9841 C   0  0  0  0  0  0  0  0  0  0  0  0
    8.7326   -2.7364   22.6903 C   0  0  0  0  0  0  0  0  0  0  0  0
   10.9241   -1.5446   23.0474 C   0  0  0  0  0  0  0  0  0  0  0  0
   11.7677   -1.3389   24.1350 C   0  0  0  0  0  0  0  0  0  0  0  0
   13.1422   -1.4503   24.0056 C   0  0  0  0  0  0  0  0  0  0  0  0
   13.7012   -1.7739   22.7888 C   0  0  0  0  0  0  0  0  0  0  0  0
   12.8840   -1.9862   21.7003 C   0  0  0  0  0  0  0  0  0  0  0  0
   11.5099   -1.8723   21.8299 C   0  0  0  0  0  0  0  0  0  0  0  0
  1  2  1  0
  2  3  1  0
  3  4  1  0
  4  5  1  0
  5  6  1  0
  6  7  1  0
  5  8  1  0
  8  9  1  0
  9 10  2  0
  9 11  1  0
 11 12  1  0
 12 13  2  0
 13 14  1  0
 14 15  2  0
 15 16  1  0
 16 17  2  0
  8 18  1  0
 18 19  1  0
 19 20  1  0
 20 21  1  0
 21 22  1  0
 22 23  1  0
 18 24  1  0
 24 25  2  0
 25 26  1  0
 26 27  2  0
 27 28  1  0
 28 29  2  0
  7  2  1  0
 17 12  1  0
 23 18  1  0
 29 24  1  0
M  END
