CVD-0002756|dock_bobby27042020.33|mol2|11|dock1
     RDKit          3D

 23 26  0  0  0  0  0  0  0  0999 V2000
   14.2361   -1.3909   20.7247 N   0  0  0  0  0  0  0  0  0  0  0  0
   14.2046   -1.0026   21.9895 C   0  0  0  0  0  0  0  0  0  0  0  0
   14.5525    0.1279   22.3367 O   0  0  0  0  0  0  0  0  0  0  0  0
   13.7078   -2.0413   22.9774 C   0  0  0  0  0  0  0  0  0  0  0  0
   14.5449   -1.9814   24.2656 C   0  0  0  0  0  0  0  0  0  0  0  0
   13.5392   -1.9388   25.4146 C   0  0  0  0  0  0  0  0  0  0  0  0
   13.6270   -3.1351   26.1940 O   0  0  0  0  0  0  0  0  0  0  0  0
   12.2879   -1.8737   24.8829 C   0  0  0  0  0  0  0  0  0  0  0  0
   12.2131   -1.9382   23.4381 C   0  0  0  0  0  0  0  0  0  0  0  0
   11.4121   -0.7942   22.8568 C   0  0  0  0  0  0  0  0  0  0  0  0
   10.3838   -0.9339   21.9733 C   0  0  0  0  0  0  0  0  0  0  0  0
    9.7112    0.5736   21.5172 S   0  0  0  0  0  0  0  0  0  0  0  0
   10.8085    1.4503   22.5020 C   0  0  0  0  0  0  0  0  0  0  0  0
   11.6431    0.5820   23.1454 C   0  0  0  0  0  0  0  0  0  0  0  0
   10.8047    2.9275   22.6003 C   0  0  0  0  0  0  0  0  0  0  0  0
    9.5679    3.5762   22.5314 C   0  0  0  0  0  0  0  0  0  0  0  0
    9.3990    4.9004   22.6045 N   0  0  0  0  0  0  0  0  0  0  0  0
   10.4769    5.6754   22.7541 C   0  0  0  0  0  0  0  0  0  0  0  0
   11.7683    5.1571   22.8366 C   0  0  0  0  0  0  0  0  0  0  0  0
   13.0664    5.7320   22.9929 C   0  0  0  0  0  0  0  0  0  0  0  0
   13.9460    4.7027   23.0040 C   0  0  0  0  0  0  0  0  0  0  0  0
   13.2842    3.5057   22.8639 N   0  0  0  0  0  0  0  0  0  0  0  0
   11.9334    3.7558   22.7581 C   0  0  0  0  0  0  0  0  0  0  0  0
  1  2  1  0
  2  3  2  0
  4  2  1  0
  4  5  1  0
  5  6  1  0
  6  7  1  0
  6  8  1  0
  8  9  1  0
  9 10  1  0
 10 11  2  0
 11 12  1  0
 12 13  1  0
 13 14  2  0
 13 15  1  0
 15 16  2  0
 16 17  1  0
 17 18  2  0
 18 19  1  0
 19 20  1  0
 20 21  2  0
 21 22  1  0
 22 23  1  0
  9  4  1  0
 14 10  1  0
 23 15  1  0
 23 19  2  0
M  END
