CVD-0003296|dock_bobby27042020.74|mol2|20|dock2
     RDKit          3D

 17 18  0  0  0  0  0  0  0  0999 V2000
    7.6735   -0.1982   18.6268 C   0  0  0  0  0  0  0  0  0  0  0  0
    7.5059   -0.7459   20.0137 C   0  0  0  0  0  0  0  0  0  0  0  0
    6.4669   -0.5971   20.6493 O   0  0  0  0  0  0  0  0  0  0  0  0
    8.5583   -1.3898   20.5222 N   0  0  0  0  0  0  0  0  0  0  0  0
    8.5567   -1.9621   21.8608 C   0  0  0  0  0  0  0  0  0  0  0  0
    9.0427   -0.9713   22.8998 C   0  0  0  0  0  0  0  0  0  0  0  0
   10.5308   -0.7793   22.8762 C   0  0  0  0  0  0  0  0  0  0  0  0
   11.4902   -1.7350   22.9779 C   0  0  0  0  0  0  0  0  0  0  0  0
   12.7373   -1.1793   22.9095 N   0  0  0  0  0  0  0  0  0  0  0  0
   13.9998   -1.9005   23.0119 C   0  0  0  0  0  0  0  0  0  0  0  0
   12.5955    0.1839   22.7763 C   0  0  0  0  0  0  0  0  0  0  0  0
   13.5500    1.1900   22.6812 C   0  0  0  0  0  0  0  0  0  0  0  0
   13.1267    2.5007   22.5438 C   0  0  0  0  0  0  0  0  0  0  0  0
   11.7822    2.7622   22.5063 C   0  0  0  0  0  0  0  0  0  0  0  0
   11.3817    4.0549   22.3678 F   0  0  0  0  0  0  0  0  0  0  0  0
   10.8100    1.7949   22.6005 C   0  0  0  0  0  0  0  0  0  0  0  0
   11.2219    0.4712   22.7425 C   0  0  0  0  0  0  0  0  0  0  0  0
  1  2  1  0
  2  3  2  0
  2  4  1  0
  4  5  1  0
  5  6  1  0
  6  7  1  0
  7  8  2  0
  8  9  1  0
  9 10  1  0
  9 11  1  0
 11 12  2  0
 12 13  1  0
 13 14  2  0
 14 15  1  0
 14 16  1  0
 16 17  2  0
 17  7  1  0
 17 11  1  0
M  END
