CVD-0001445|dock_bobby27042020.38|mol2|10|dock3
     RDKit          3D

 24 25  0  0  0  0  0  0  0  0999 V2000
   11.1391    5.7300   23.9864 C   0  0  0  0  0  0  0  0  0  0  0  0
   12.4266    5.0431   23.6375 C   0  0  0  0  0  0  0  0  0  0  0  0
   13.5077    5.4916   24.0022 O   0  0  0  0  0  0  0  0  0  0  0  0
   12.3606    3.8997   22.9129 N   0  0  0  0  0  0  0  0  0  0  0  0
   13.5484    3.1368   22.5231 C   0  0  0  0  0  0  0  0  0  0  0  0
   13.4189    1.6913   22.9664 C   0  0  0  0  0  0  0  0  0  0  0  0
   12.2162    1.0880   22.3849 N   0  0  0  0  0  0  0  0  0  0  0  0
   12.1070   -0.3262   22.7798 C   0  0  0  0  0  0  0  0  0  0  0  0
   10.9705   -1.0406   22.1203 C   0  0  0  0  0  0  0  0  0  0  0  0
    9.7445   -1.1341   22.6059 C   0  0  0  0  0  0  0  0  0  0  0  0
    8.6045   -1.8302   21.9743 C   0  0  0  0  0  0  0  0  0  0  0  0
    8.3205   -2.9658   22.3711 O   0  0  0  0  0  0  0  0  0  0  0  0
    7.7527   -1.2628   20.8796 C   0  0  0  0  0  0  0  0  0  0  0  0
    8.0900   -0.0158   20.3624 C   0  0  0  0  0  0  0  0  0  0  0  0
    7.3446    0.5779   19.3597 C   0  0  0  0  0  0  0  0  0  0  0  0
    6.2372   -0.0807   18.8546 C   0  0  0  0  0  0  0  0  0  0  0  0
    5.8865   -1.3290   19.3390 C   0  0  0  0  0  0  0  0  0  0  0  0
    6.6470   -1.9136   20.3363 C   0  0  0  0  0  0  0  0  0  0  0  0
    5.2735    0.6703   17.5778 S   0  0  0  0  0  0  0  0  0  0  0  0
    4.4508    1.8880   18.2128 N   0  0  0  0  0  0  0  0  0  0  0  0
    6.1859    1.2270   16.6246 O   0  0  0  0  0  0  0  0  0  0  0  0
    4.3183   -0.3010   17.1356 O   0  0  0  0  0  0  0  0  0  0  0  0
   11.0440    1.8358   22.8321 C   0  0  0  0  0  0  0  0  0  0  0  0
   11.1331    3.2869   22.3957 C   0  0  0  0  0  0  0  0  0  0  0  0
  1  2  1  0
  2  3  2  0
  2  4  1  0
  4  5  1  0
  5  6  1  0
  6  7  1  0
  7  8  1  0
  8  9  1  0
  9 10  2  0
 10 11  1  0
 11 12  2  0
 11 13  1  0
 13 14  2  0
 14 15  1  0
 15 16  2  0
 16 17  1  0
 17 18  2  0
 16 19  1  0
 19 20  1  0
 19 21  2  0
 19 22  2  0
  7 23  1  0
 23 24  1  0
 24  4  1  0
 18 13  1  0
M  END
