CVD-0002145|dock_bobby27042020.35|mol2|27|dock3
     RDKit          3D

 17 17  0  0  0  0  0  0  0  0999 V2000
   13.5192    4.6007   22.5826 C   0  0  0  0  0  0  0  0  0  0  0  0
   11.8992    4.1687   22.0766 S   0  0  0  0  0  0  0  0  0  0  0  0
   11.9375    3.8612   20.6802 O   0  0  0  0  0  0  0  0  0  0  0  0
   11.0061    5.1913   22.5266 O   0  0  0  0  0  0  0  0  0  0  0  0
   11.4938    2.8202   22.8435 N   0  0  0  0  0  0  0  0  0  0  0  0
   12.4651    1.7246   22.9482 C   0  0  0  0  0  0  0  0  0  0  0  0
   11.7804    0.4419   23.3847 C   0  0  0  0  0  0  0  0  0  0  0  0
   12.7646   -0.6317   23.7927 C   0  0  0  0  0  0  0  0  0  0  0  0
   13.5066   -0.4532   24.9573 C   0  0  0  0  0  0  0  0  0  0  0  0
   14.4223   -1.4043   25.3740 C   0  0  0  0  0  0  0  0  0  0  0  0
   14.6082   -2.5484   24.6294 C   0  0  0  0  0  0  0  0  0  0  0  0
   13.8791   -2.7401   23.4682 C   0  0  0  0  0  0  0  0  0  0  0  0
   12.9554   -1.7928   23.0346 C   0  0  0  0  0  0  0  0  0  0  0  0
   12.1776   -2.0413   21.7624 C   0  0  0  0  0  0  0  0  0  0  0  0
   10.7317   -2.3225   21.9965 C   0  0  0  0  0  0  0  0  0  0  0  0
    9.9496   -2.3389   21.0148 N   0  0  0  0  0  0  0  0  0  0  0  0
   10.3740   -2.5419   23.2427 N   0  0  0  0  0  0  0  0  0  0  0  0
  1  2  1  0
  2  3  2  0
  2  4  2  0
  2  5  1  0
  5  6  1  0
  6  7  1  0
  7  8  1  0
  8  9  2  0
  9 10  1  0
 10 11  2  0
 11 12  1  0
 12 13  2  0
 13 14  1  0
 14 15  1  0
 15 16  1  0
 15 17  2  0
 13  8  1  0
M  END
