CVD-0000342|dock_bobby27042020.99|mol2|2|dock3
     RDKit          3D

 30 33  0  0  0  0  0  0  0  0999 V2000
   11.0326    5.6429   23.0027 C   0  0  0  0  0  0  0  0  0  0  0  0
   11.4005    4.2101   23.1329 C   0  0  0  0  0  0  0  0  0  0  0  0
   10.2827    3.4113   22.6455 O   0  0  0  0  0  0  0  0  0  0  0  0
   10.3876    2.0539   22.6572 C   0  0  0  0  0  0  0  0  0  0  0  0
   11.3960    1.3291   23.2151 C   0  0  0  0  0  0  0  0  0  0  0  0
   11.3983   -0.0883   23.1623 C   0  0  0  0  0  0  0  0  0  0  0  0
   10.3442   -0.6928   22.5292 C   0  0  0  0  0  0  0  0  0  0  0  0
    9.3067    0.0057   21.9446 N   0  0  0  0  0  0  0  0  0  0  0  0
    8.2650   -0.7736   21.3064 C   0  0  0  0  0  0  0  0  0  0  0  0
    7.6853   -0.2869   20.1410 C   0  0  0  0  0  0  0  0  0  0  0  0
    6.7043   -1.0255   19.5184 C   0  0  0  0  0  0  0  0  0  0  0  0
    5.9817   -0.4130   18.0571 Cl  0  0  0  0  0  0  0  0  0  0  0  0
    6.2791   -2.2363   20.0198 C   0  0  0  0  0  0  0  0  0  0  0  0
    6.8467   -2.7298   21.1927 C   0  0  0  0  0  0  0  0  0  0  0  0
    7.8345   -1.9872   21.8399 C   0  0  0  0  0  0  0  0  0  0  0  0
    6.3961   -3.9982   21.7089 N   0  0  0  0  0  0  0  0  0  0  0  0
    6.7336   -5.2580   21.0418 C   0  0  0  0  0  0  0  0  0  0  0  0
    6.1121   -6.3225   21.9121 C   0  0  0  0  0  0  0  0  0  0  0  0
    5.2672   -5.6175   22.9428 C   0  0  0  0  0  0  0  0  0  0  0  0
    5.5474   -4.1538   22.7784 C   0  0  0  0  0  0  0  0  0  0  0  0
    5.1217   -3.2177   23.4418 O   0  0  0  0  0  0  0  0  0  0  0  0
    9.2490    1.4173   21.9771 C   0  0  0  0  0  0  0  0  0  0  0  0
    8.3367    2.0855   21.5040 O   0  0  0  0  0  0  0  0  0  0  0  0
   12.5237   -0.8350   23.7918 C   0  0  0  0  0  0  0  0  0  0  0  0
   12.6237   -0.7959   25.1884 C   0  0  0  0  0  0  0  0  0  0  0  0
   13.5521   -1.4304   25.9082 N   0  0  0  0  0  0  0  0  0  0  0  0
   14.4288   -2.1703   25.2352 C   0  0  0  0  0  0  0  0  0  0  0  0
   14.4404   -2.2661   23.8602 C   0  0  0  0  0  0  0  0  0  0  0  0
   13.5008   -1.5760   23.0974 C   0  0  0  0  0  0  0  0  0  0  0  0
   13.6261   -1.6666   21.5986 C   0  0  0  0  0  0  0  0  0  0  0  0
  1  2  1  0
  2  3  1  0
  3  4  1  0
  4  5  2  0
  5  6  1  0
  6  7  2  0
  7  8  1  0
  8  9  1  0
  9 10  2  0
 10 11  1  0
 11 12  1  0
 11 13  2  0
 13 14  1  0
 14 15  2  0
 14 16  1  0
 16 17  1  0
 17 18  1  0
 18 19  1  0
 19 20  1  0
 20 21  2  0
  8 22  1  0
 22 23  2  0
  6 24  1  0
 24 25  2  0
 25 26  1  0
 26 27  2  0
 27 28  1  0
 28 29  2  0
 29 30  1  0
 22  4  1  0
 29 24  1  0
 15  9  1  0
 20 16  1  0
M  END
