CVD-0003277|dock_bobby27042020.60|mol2|19|dock1
     RDKit          3D

 32 36  0  0  0  0  0  0  0  0999 V2000
    5.4264   -1.9556   19.0932 O   0  0  0  0  0  0  0  0  0  0  0  0
    6.1216   -0.7603   18.7281 C   0  0  0  0  0  0  0  0  0  0  0  0
    5.6396    0.3463   19.6311 C   0  0  0  0  0  0  0  0  0  0  0  0
    6.0970    0.1572   21.0706 C   0  0  0  0  0  0  0  0  0  0  0  0
    7.5912   -0.0210   21.1719 C   0  0  0  0  0  0  0  0  0  0  0  0
    8.0226   -0.2374   22.6253 C   0  0  0  0  0  0  0  0  0  0  0  0
    9.5125   -0.3513   22.8006 C   0  0  0  0  0  0  0  0  0  0  0  0
   10.2079   -1.5233   23.0643 C   0  0  0  0  0  0  0  0  0  0  0  0
    9.6000   -2.7588   23.1954 N   0  0  0  0  0  0  0  0  0  0  0  0
    8.8799   -3.1642   24.2811 C   0  0  0  0  0  0  0  0  0  0  0  0
    8.7031   -2.4500   25.2632 O   0  0  0  0  0  0  0  0  0  0  0  0
    8.2911   -4.5568   24.1989 C   0  0  0  0  0  0  0  0  0  0  0  0
    7.2674   -4.6946   23.1134 C   0  0  0  0  0  0  0  0  0  0  0  0
    6.2643   -3.8966   22.6664 C   0  0  0  0  0  0  0  0  0  0  0  0
    5.6022   -4.4990   21.6252 N   0  0  0  0  0  0  0  0  0  0  0  0
    6.2081   -5.6573   21.4483 C   0  0  0  0  0  0  0  0  0  0  0  0
    7.2169   -5.8179   22.3219 N   0  0  0  0  0  0  0  0  0  0  0  0
   11.9213   -1.3399   23.2224 S   0  0  0  0  0  0  0  0  0  0  0  0
   11.7775    0.3585   22.9423 C   0  0  0  0  0  0  0  0  0  0  0  0
   12.6127    1.4984   22.8581 C   0  0  0  0  0  0  0  0  0  0  0  0
   11.7778    2.5585   22.6003 C   0  0  0  0  0  0  0  0  0  0  0  0
   12.0715    4.0142   22.4072 C   0  0  0  0  0  0  0  0  0  0  0  0
   13.5389    4.3349   22.1844 C   0  0  0  0  0  0  0  0  0  0  0  0
   13.8161    5.7991   22.1851 C   0  0  0  0  0  0  0  0  0  0  0  0
   14.3392    6.4831   21.1776 N   0  0  0  0  0  0  0  0  0  0  0  0
   14.4113    7.7837   21.6156 C   0  0  0  0  0  0  0  0  0  0  0  0
   13.9326    7.8731   22.8763 C   0  0  0  0  0  0  0  0  0  0  0  0
   13.5570    6.6073   23.2275 N   0  0  0  0  0  0  0  0  0  0  0  0
   10.4870    2.0910   22.5298 N   0  0  0  0  0  0  0  0  0  0  0  0
   10.4536    0.7343   22.7367 C   0  0  0  0  0  0  0  0  0  0  0  0
    8.0606   -1.1431   20.2750 C   0  0  0  0  0  0  0  0  0  0  0  0
    7.6178   -0.9352   18.8407 C   0  0  0  0  0  0  0  0  0  0  0  0
  1  2  1  0
  2  3  1  0
  3  4  1  0
  4  5  1  0
  5  6  1  0
  6  7  1  0
  7  8  2  0
  8  9  1  0
  9 10  1  0
 10 11  2  0
 10 12  1  0
 12 13  1  0
 13 14  2  0
 14 15  1  0
 15 16  2  0
 16 17  1  0
  8 18  1  0
 18 19  1  0
 19 20  1  0
 20 21  2  0
 21 22  1  0
 22 23  1  0
 23 24  1  0
 24 25  2  0
 25 26  1  0
 26 27  2  0
 27 28  1  0
 21 29  1  0
 29 30  1  0
  5 31  1  0
 31 32  1  0
 32  2  1  0
 30  7  1  0
 17 13  1  0
 30 19  2  0
 28 24  1  0
M  END
