CVD-0003449|dock_bobby27042020.88|mol2|3|dock3
     RDKit          3D

 20 22  0  0  0  0  0  0  0  0999 V2000
   13.3147   -2.1325   20.4248 F   0  0  0  0  0  0  0  0  0  0  0  0
   13.2205   -1.7465   21.7063 C   0  0  0  0  0  0  0  0  0  0  0  0
   14.2961   -1.9503   22.4191 N   0  0  0  0  0  0  0  0  0  0  0  0
   14.2602   -1.5875   23.7051 C   0  0  0  0  0  0  0  0  0  0  0  0
   13.1478   -0.9852   24.2775 C   0  0  0  0  0  0  0  0  0  0  0  0
   12.8621   -0.5078   25.5334 N   0  0  0  0  0  0  0  0  0  0  0  0
   11.6163   -0.0004   25.4826 C   0  0  0  0  0  0  0  0  0  0  0  0
   11.0498   -0.1095   24.3008 N   0  0  0  0  0  0  0  0  0  0  0  0
   11.9966   -0.7517   23.5149 C   0  0  0  0  0  0  0  0  0  0  0  0
   12.0058   -1.1746   22.1624 C   0  0  0  0  0  0  0  0  0  0  0  0
   10.8970   -1.0522   21.2541 N   0  0  0  0  0  0  0  0  0  0  0  0
    9.6878   -0.4371   21.4860 C   0  0  0  0  0  0  0  0  0  0  0  0
    9.3666    0.1138   22.5322 O   0  0  0  0  0  0  0  0  0  0  0  0
    8.8738   -0.5341   20.3807 N   0  0  0  0  0  0  0  0  0  0  0  0
    7.5532   -0.0692   20.1547 C   0  0  0  0  0  0  0  0  0  0  0  0
    6.5825    0.0227   21.1505 C   0  0  0  0  0  0  0  0  0  0  0  0
    5.3138    0.4880   20.8457 C   0  0  0  0  0  0  0  0  0  0  0  0
    4.9954    0.8649   19.5596 C   0  0  0  0  0  0  0  0  0  0  0  0
    5.9474    0.7782   18.5685 C   0  0  0  0  0  0  0  0  0  0  0  0
    7.2188    0.3147   18.8608 C   0  0  0  0  0  0  0  0  0  0  0  0
  1  2  1  0
  2  3  2  0
  3  4  1  0
  4  5  2  0
  5  6  1  0
  6  7  1  0
  7  8  2  0
  8  9  1  0
  9 10  2  0
 10 11  1  0
 11 12  1  0
 12 13  2  0
 12 14  1  0
 14 15  1  0
 15 16  2  0
 16 17  1  0
 17 18  2  0
 18 19  1  0
 19 20  2  0
 10  2  1  0
 20 15  1  0
  9  5  1  0
M  END
