CVD-0001723|dock_bobby27042020.80|mol2|16|dock1
     RDKit          3D

 26 28  0  0  0  0  0  0  0  0999 V2000
   13.9210   -2.4237   25.1848 C   0  0  0  0  0  0  0  0  0  0  0  0
   13.2417   -1.5362   24.2425 N   0  0  0  0  0  0  0  0  0  0  0  0
   12.5681   -2.2732   23.1734 C   0  0  0  0  0  0  0  0  0  0  0  0
   11.9135   -1.3226   22.2086 C   0  0  0  0  0  0  0  0  0  0  0  0
   10.9387   -0.4719   22.8977 N   0  0  0  0  0  0  0  0  0  0  0  0
   10.2562    0.4199   21.9508 C   0  0  0  0  0  0  0  0  0  0  0  0
    8.8105    0.6917   22.3316 C   0  0  0  0  0  0  0  0  0  0  0  0
    7.8965   -0.2762   21.7000 N   0  0  0  0  0  0  0  0  0  0  0  0
    7.9898   -1.6324   22.0492 C   0  0  0  0  0  0  0  0  0  0  0  0
    8.8398   -1.9698   22.8615 O   0  0  0  0  0  0  0  0  0  0  0  0
    7.1434   -2.5527   21.4690 N   0  0  0  0  0  0  0  0  0  0  0  0
    7.0522   -3.9592   21.6451 C   0  0  0  0  0  0  0  0  0  0  0  0
    7.4579   -4.4835   22.8662 C   0  0  0  0  0  0  0  0  0  0  0  0
    7.3876   -5.8468   23.0916 C   0  0  0  0  0  0  0  0  0  0  0  0
    6.9114   -6.6556   22.0870 C   0  0  0  0  0  0  0  0  0  0  0  0
    6.5150   -6.1880   20.9040 N   0  0  0  0  0  0  0  0  0  0  0  0
    6.5895   -4.8698   20.6947 C   0  0  0  0  0  0  0  0  0  0  0  0
    6.9406    0.2853   20.7773 C   0  0  0  0  0  0  0  0  0  0  0  0
    7.1998    0.3859   19.4128 C   0  0  0  0  0  0  0  0  0  0  0  0
    6.2553    0.9132   18.5480 C   0  0  0  0  0  0  0  0  0  0  0  0
    5.0397    1.3676   19.0260 C   0  0  0  0  0  0  0  0  0  0  0  0
    4.7916    1.2820   20.3763 C   0  0  0  0  0  0  0  0  0  0  0  0
    3.2710    1.8587   20.9988 Cl  0  0  0  0  0  0  0  0  0  0  0  0
    5.7158    0.7502   21.2519 C   0  0  0  0  0  0  0  0  0  0  0  0
   11.6122    0.2651   23.9669 C   0  0  0  0  0  0  0  0  0  0  0  0
   12.2669   -0.6855   24.9316 C   0  0  0  0  0  0  0  0  0  0  0  0
  1  2  1  0
  2  3  1  0
  3  4  1  0
  4  5  1  0
  5  6  1  0
  6  7  1  0
  7  8  1  0
  8  9  1  0
  9 10  2  0
  9 11  1  0
 11 12  1  0
 12 13  2  0
 13 14  1  0
 14 15  2  0
 15 16  1  0
 16 17  2  0
  8 18  1  0
 18 19  2  0
 19 20  1  0
 20 21  2  0
 21 22  1  0
 22 23  1  0
 22 24  2  0
  5 25  1  0
 25 26  1  0
 26  2  1  0
 17 12  1  0
 24 18  1  0
M  END
