CVD-0003375|dock_bobby27042020.45|mol2|29|dock2
     RDKit          3D

 20 22  0  0  0  0  0  0  0  0999 V2000
   14.8321   -2.1489   25.6158 C   0  0  0  0  0  0  0  0  0  0  0  0
   14.0519   -1.4624   24.5875 N   0  0  0  0  0  0  0  0  0  0  0  0
   13.0073   -0.6376   25.2018 C   0  0  0  0  0  0  0  0  0  0  0  0
   12.2274    0.1045   24.1325 C   0  0  0  0  0  0  0  0  0  0  0  0
   11.6336   -0.8403   23.1840 N   0  0  0  0  0  0  0  0  0  0  0  0
   12.6470   -1.7216   22.5958 C   0  0  0  0  0  0  0  0  0  0  0  0
   13.4282   -2.4293   23.6879 C   0  0  0  0  0  0  0  0  0  0  0  0
   10.3015   -0.8512   22.8859 C   0  0  0  0  0  0  0  0  0  0  0  0
    9.6198    0.1380   23.1164 O   0  0  0  0  0  0  0  0  0  0  0  0
    9.7583   -2.0122   22.3188 N   0  0  0  0  0  0  0  0  0  0  0  0
    8.4354   -2.1936   21.8751 C   0  0  0  0  0  0  0  0  0  0  0  0
    7.3949   -2.9714   22.3149 C   0  0  0  0  0  0  0  0  0  0  0  0
    7.2515   -3.8386   23.3201 F   0  0  0  0  0  0  0  0  0  0  0  0
    6.3120   -2.7724   21.5202 N   0  0  0  0  0  0  0  0  0  0  0  0
    6.6105   -1.8639   20.5426 C   0  0  0  0  0  0  0  0  0  0  0  0
    5.8253   -1.3938   19.5613 N   0  0  0  0  0  0  0  0  0  0  0  0
    6.4133   -0.5023   18.7511 C   0  0  0  0  0  0  0  0  0  0  0  0
    7.7278   -0.0996   18.9158 C   0  0  0  0  0  0  0  0  0  0  0  0
    8.5174   -0.5664   19.8951 N   0  0  0  0  0  0  0  0  0  0  0  0
    7.9551   -1.4607   20.7216 C   0  0  0  0  0  0  0  0  0  0  0  0
  1  2  1  0
  2  3  1  0
  3  4  1  0
  4  5  1  0
  5  6  1  0
  6  7  1  0
  5  8  1  0
  8  9  2  0
  8 10  1  0
 10 11  1  0
 11 12  2  0
 12 13  1  0
 12 14  1  0
 14 15  1  0
 15 16  2  0
 16 17  1  0
 17 18  2  0
 18 19  1  0
 19 20  2  0
  7  2  1  0
 20 11  1  0
 20 15  1  0
M  END
