CVD-0000064|dock_bobby27042020.43|mol2|3|dock2
     RDKit          3D

 23 24  0  0  0  0  0  0  0  0999 V2000
    5.8590    2.1308   20.9302 C   0  0  0  0  0  0  0  0  0  0  0  0
    6.1838    0.9429   20.0721 C   0  0  0  0  0  0  0  0  0  0  0  0
    5.3595    0.7620   19.0395 N   0  0  0  0  0  0  0  0  0  0  0  0
    5.5636   -0.2668   18.2110 C   0  0  0  0  0  0  0  0  0  0  0  0
    6.5930   -1.1617   18.3672 C   0  0  0  0  0  0  0  0  0  0  0  0
    7.4606   -0.9921   19.4316 C   0  0  0  0  0  0  0  0  0  0  0  0
    7.2643    0.0771   20.3086 C   0  0  0  0  0  0  0  0  0  0  0  0
    8.1036    0.3329   21.4292 N   0  0  0  0  0  0  0  0  0  0  0  0
    9.3785   -0.0554   21.6802 C   0  0  0  0  0  0  0  0  0  0  0  0
   10.0834   -0.7389   20.9453 O   0  0  0  0  0  0  0  0  0  0  0  0
    9.9088    0.4511   23.0069 C   0  0  0  0  0  0  0  0  0  0  0  0
   10.4842    1.8468   22.9270 C   0  0  0  0  0  0  0  0  0  0  0  0
    9.6300    2.9451   22.9788 C   0  0  0  0  0  0  0  0  0  0  0  0
   10.1155    4.2391   22.9154 C   0  0  0  0  0  0  0  0  0  0  0  0
   11.4717    4.4592   22.7577 C   0  0  0  0  0  0  0  0  0  0  0  0
   12.3290    3.3761   22.6694 C   0  0  0  0  0  0  0  0  0  0  0  0
   13.9956    3.7325   22.3461 Cl  0  0  0  0  0  0  0  0  0  0  0  0
   11.8655    2.0602   22.8136 C   0  0  0  0  0  0  0  0  0  0  0  0
   12.7049    0.8957   22.8463 N   0  0  0  0  0  0  0  0  0  0  0  0
   13.0510    0.1914   23.9551 C   0  0  0  0  0  0  0  0  0  0  0  0
   12.6521    0.4913   25.0890 O   0  0  0  0  0  0  0  0  0  0  0  0
   13.9286   -0.9950   23.7734 C   0  0  0  0  0  0  0  0  0  0  0  0
   14.4360   -1.7373   24.7257 C   0  0  0  0  0  0  0  0  0  0  0  0
  1  2  1  0
  2  3  2  0
  3  4  1  0
  4  5  2  0
  5  6  1  0
  6  7  2  0
  7  8  1  0
  8  9  1  0
  9 10  2  0
  9 11  1  0
 11 12  1  0
 12 13  2  0
 13 14  1  0
 14 15  2  0
 15 16  1  0
 16 17  1  0
 16 18  2  0
 18 19  1  0
 19 20  1  0
 20 21  2  0
 20 22  1  0
 22 23  2  0
  7  2  1  0
 18 12  1  0
M  END
