CVD-0001716|dock_bobby27042020.80|mol2|17|dock1
     RDKit          3D

 17 19  0  0  0  0  0  0  0  0999 V2000
   12.1423    7.4149   26.0010 N   0  0  0  0  0  0  0  0  0  0  0  0
   12.5209    6.8412   25.0886 C   0  0  0  0  0  0  0  0  0  0  0  0
   12.9863    6.0462   23.9620 C   0  0  0  0  0  0  0  0  0  0  0  0
   13.6283    6.7155   23.0046 N   0  0  0  0  0  0  0  0  0  0  0  0
   14.0422    5.9533   21.9841 C   0  0  0  0  0  0  0  0  0  0  0  0
   13.8295    4.5898   21.9155 C   0  0  0  0  0  0  0  0  0  0  0  0
   13.1466    4.0186   22.9816 C   0  0  0  0  0  0  0  0  0  0  0  0
   12.7160    4.7462   24.0213 N   0  0  0  0  0  0  0  0  0  0  0  0
   12.8526    2.5817   23.0382 C   0  0  0  0  0  0  0  0  0  0  0  0
   11.6929    2.0810   23.3550 N   0  0  0  0  0  0  0  0  0  0  0  0
   11.7176    0.6891   23.3228 C   0  0  0  0  0  0  0  0  0  0  0  0
   10.6629   -0.1819   23.6035 C   0  0  0  0  0  0  0  0  0  0  0  0
   10.8605   -1.5519   23.5232 C   0  0  0  0  0  0  0  0  0  0  0  0
   12.0871   -2.0735   23.1690 C   0  0  0  0  0  0  0  0  0  0  0  0
   13.1479   -1.2311   22.8863 C   0  0  0  0  0  0  0  0  0  0  0  0
   12.9568    0.1451   22.9648 C   0  0  0  0  0  0  0  0  0  0  0  0
   14.1071    1.4145   22.6646 S   0  0  0  0  0  0  0  0  0  0  0  0
  1  2  3  0
  2  3  1  0
  3  4  2  0
  4  5  1  0
  5  6  2  0
  6  7  1  0
  7  8  2  0
  7  9  1  0
  9 10  2  0
 10 11  1  0
 11 12  2  0
 12 13  1  0
 13 14  2  0
 14 15  1  0
 15 16  2  0
 16 17  1  0
  8  3  1  0
 17  9  1  0
 16 11  1  0
M  END
