CVD-0002525|dock_bobby27042020.48|mol2|18|dock3
     RDKit          3D

 28 30  0  0  0  0  0  0  0  0999 V2000
    7.1837   -1.8431   22.1643 O   0  0  0  0  0  0  0  0  0  0  0  0
    8.1391   -1.7721   21.3988 C   0  0  0  0  0  0  0  0  0  0  0  0
    8.0437   -0.9773   20.1155 C   0  0  0  0  0  0  0  0  0  0  0  0
    6.6182   -0.5280   19.7802 C   0  0  0  0  0  0  0  0  0  0  0  0
    6.1521    0.5984   20.7253 C   0  0  0  0  0  0  0  0  0  0  0  0
    4.7605    1.1186   20.3704 C   0  0  0  0  0  0  0  0  0  0  0  0
    4.6857    1.5521   18.9120 C   0  0  0  0  0  0  0  0  0  0  0  0
    5.1161    0.4270   17.9819 C   0  0  0  0  0  0  0  0  0  0  0  0
    6.5220   -0.0595   18.3182 C   0  0  0  0  0  0  0  0  0  0  0  0
    9.3502   -2.3543   21.5803 N   0  0  0  0  0  0  0  0  0  0  0  0
    9.8313   -3.1649   22.6447 C   0  0  0  0  0  0  0  0  0  0  0  0
    9.0652   -4.1429   23.2828 C   0  0  0  0  0  0  0  0  0  0  0  0
    9.6230   -4.8826   24.3127 C   0  0  0  0  0  0  0  0  0  0  0  0
   10.9227   -4.6371   24.6855 C   0  0  0  0  0  0  0  0  0  0  0  0
   11.6891   -3.7111   24.1009 N   0  0  0  0  0  0  0  0  0  0  0  0
   11.1388   -3.0104   23.1128 C   0  0  0  0  0  0  0  0  0  0  0  0
   12.2816   -1.8103   22.4346 S   0  0  0  0  0  0  0  0  0  0  0  0
   11.9449   -1.5780   21.0633 O   0  0  0  0  0  0  0  0  0  0  0  0
   13.6150   -2.1997   22.7785 O   0  0  0  0  0  0  0  0  0  0  0  0
   11.9716   -0.4452   23.2312 N   0  0  0  0  0  0  0  0  0  0  0  0
   12.7351    0.7712   22.9283 C   0  0  0  0  0  0  0  0  0  0  0  0
   11.8190    1.8618   22.4032 C   0  0  0  0  0  0  0  0  0  0  0  0
   12.3083    3.2491   22.7421 C   0  0  0  0  0  0  0  0  0  0  0  0
   12.2922    3.7076   24.0504 C   0  0  0  0  0  0  0  0  0  0  0  0
   12.7383    4.9814   24.3613 C   0  0  0  0  0  0  0  0  0  0  0  0
   13.2057    5.8130   23.3668 C   0  0  0  0  0  0  0  0  0  0  0  0
   13.2264    5.3707   22.0616 C   0  0  0  0  0  0  0  0  0  0  0  0
   12.7800    4.0968   21.7517 C   0  0  0  0  0  0  0  0  0  0  0  0
  1  2  2  0
  2  3  1  0
  3  4  1  0
  4  5  1  0
  5  6  1  0
  6  7  1  0
  7  8  1  0
  8  9  1  0
  2 10  1  0
 10 11  1  0
 11 12  2  0
 12 13  1  0
 13 14  2  0
 14 15  1  0
 15 16  2  0
 16 17  1  0
 17 18  2  0
 17 19  2  0
 17 20  1  0
 20 21  1  0
 21 22  1  0
 22 23  1  0
 23 24  2  0
 24 25  1  0
 25 26  2  0
 26 27  1  0
 27 28  2  0
  9  4  1  0
 16 11  1  0
 28 23  1  0
M  END
