CVD-0000988|dock_bobby27042020.96|mol2|42|dock1
     RDKit          3D

 35 39  0  0  0  0  0  0  0  0999 V2000
    9.8987  -13.8839   32.0245 C   0  0  0  0  0  0  0  0  0  0  0  0
    8.7503  -13.0890   32.3133 O   0  0  0  0  0  0  0  0  0  0  0  0
    8.5312  -11.9190   31.6300 C   0  0  0  0  0  0  0  0  0  0  0  0
    7.8536  -10.9037   32.2772 C   0  0  0  0  0  0  0  0  0  0  0  0
    7.6130   -9.7101   31.6237 C   0  0  0  0  0  0  0  0  0  0  0  0
    8.0357   -9.4884   30.3128 C   0  0  0  0  0  0  0  0  0  0  0  0
    7.7002   -8.1600   29.7577 C   0  0  0  0  0  0  0  0  0  0  0  0
    6.8964   -7.2997   30.3142 N   0  0  0  0  0  0  0  0  0  0  0  0
    6.8878   -6.2139   29.4454 C   0  0  0  0  0  0  0  0  0  0  0  0
    6.2267   -4.9889   29.4823 C   0  0  0  0  0  0  0  0  0  0  0  0
    6.4168   -4.0828   28.4494 C   0  0  0  0  0  0  0  0  0  0  0  0
    7.2596   -4.3764   27.3738 C   0  0  0  0  0  0  0  0  0  0  0  0
    7.4870   -3.4838   26.2959 N   0  0  0  0  0  0  0  0  0  0  0  0
    8.0076   -3.6832   25.0588 C   0  0  0  0  0  0  0  0  0  0  0  0
    8.4045   -4.7592   24.6223 O   0  0  0  0  0  0  0  0  0  0  0  0
    8.0556   -2.4254   24.2131 C   0  0  0  0  0  0  0  0  0  0  0  0
    9.0794   -1.4139   24.7225 C   0  0  0  0  0  0  0  0  0  0  0  0
    9.0271   -0.1639   23.8612 C   0  0  0  0  0  0  0  0  0  0  0  0
    9.3207   -0.4804   22.4672 N   0  0  0  0  0  0  0  0  0  0  0  0
    9.3619    0.7443   21.6545 C   0  0  0  0  0  0  0  0  0  0  0  0
   10.4617    1.6927   22.0679 C   0  0  0  0  0  0  0  0  0  0  0  0
   10.2333    3.0572   22.1477 C   0  0  0  0  0  0  0  0  0  0  0  0
   11.2434    3.9249   22.5232 C   0  0  0  0  0  0  0  0  0  0  0  0
   12.5125    3.4601   22.8291 C   0  0  0  0  0  0  0  0  0  0  0  0
   13.6118    4.4081   23.2423 C   0  0  0  0  0  0  0  0  0  0  0  0
   12.7368    2.0950   22.7482 C   0  0  0  0  0  0  0  0  0  0  0  0
   11.7296    1.2239   22.3731 C   0  0  0  0  0  0  0  0  0  0  0  0
    8.2945   -1.4014   21.9665 C   0  0  0  0  0  0  0  0  0  0  0  0
    8.3059   -2.7110   22.7397 C   0  0  0  0  0  0  0  0  0  0  0  0
    7.9176   -5.6034   27.3426 C   0  0  0  0  0  0  0  0  0  0  0  0
    7.7103   -6.4868   28.3832 C   0  0  0  0  0  0  0  0  0  0  0  0
    8.2469   -7.7446   28.5667 O   0  0  0  0  0  0  0  0  0  0  0  0
    8.7189  -10.5317   29.6809 C   0  0  0  0  0  0  0  0  0  0  0  0
    9.3759  -10.4321   27.9039 Br  0  0  0  0  0  0  0  0  0  0  0  0
    8.9657  -11.7314   30.3256 C   0  0  0  0  0  0  0  0  0  0  0  0
  1  2  1  0
  2  3  1  0
  3  4  2  0
  4  5  1  0
  5  6  2  0
  6  7  1  0
  7  8  2  0
  8  9  1  0
  9 10  2  0
 10 11  1  0
 11 12  2  0
 12 13  1  0
 13 14  1  0
 14 15  2  0
 14 16  1  0
 16 17  1  0
 17 18  1  0
 18 19  1  0
 19 20  1  0
 20 21  1  0
 21 22  2  0
 22 23  1  0
 23 24  2  0
 24 25  1  0
 24 26  1  0
 26 27  2  0
 19 28  1  0
 28 29  1  0
 12 30  1  0
 30 31  2  0
 31 32  1  0
  6 33  1  0
 33 34  1  0
 33 35  2  0
 35  3  1  0
 32  7  1  0
 31  9  1  0
 29 16  1  0
 27 21  1  0
M  END
