CVD-0000081|dock_bobby27042020.57|mol2|20|dock3
     RDKit          3D

 17 18  0  0  0  0  0  0  0  0999 V2000
   13.1870   -1.4064   21.5805 C   0  0  0  0  0  0  0  0  0  0  0  0
   12.8103    0.0119   21.9244 C   0  0  0  0  0  0  0  0  0  0  0  0
   13.8136    0.8813   22.3419 C   0  0  0  0  0  0  0  0  0  0  0  0
   13.5012    2.1838   22.6600 C   0  0  0  0  0  0  0  0  0  0  0  0
   12.2663    2.6719   22.5893 N   0  0  0  0  0  0  0  0  0  0  0  0
   11.2942    1.8467   22.1884 C   0  0  0  0  0  0  0  0  0  0  0  0
   11.4954    0.5101   21.8415 C   0  0  0  0  0  0  0  0  0  0  0  0
   10.4634   -0.3717   21.4135 N   0  0  0  0  0  0  0  0  0  0  0  0
    9.1871   -0.5120   21.8499 C   0  0  0  0  0  0  0  0  0  0  0  0
    8.6656    0.1413   22.7460 O   0  0  0  0  0  0  0  0  0  0  0  0
    8.4332   -1.5916   21.1009 C   0  0  0  0  0  0  0  0  0  0  0  0
    7.7807   -1.1781   19.7747 C   0  0  0  0  0  0  0  0  0  0  0  0
    6.7264   -2.2110   19.3264 C   0  0  0  0  0  0  0  0  0  0  0  0
    6.0069   -1.7915   18.0459 C   0  0  0  0  0  0  0  0  0  0  0  0
    5.3987   -0.4015   18.1814 C   0  0  0  0  0  0  0  0  0  0  0  0
    6.4492    0.6199   18.5928 C   0  0  0  0  0  0  0  0  0  0  0  0
    7.1350    0.2130   19.8930 C   0  0  0  0  0  0  0  0  0  0  0  0
  1  2  1  0
  2  3  2  0
  3  4  1  0
  4  5  2  0
  5  6  1  0
  6  7  2  0
  7  8  1  0
  8  9  1  0
  9 10  2  0
  9 11  1  0
 11 12  1  0
 12 13  1  0
 13 14  1  0
 14 15  1  0
 15 16  1  0
 16 17  1  0
  7  2  1  0
 17 12  1  0
M  END
