CVD-0001384|dock_bobby27042020.24|mol2|9|dock2
     RDKit          3D

 17 18  0  0  0  0  0  0  0  0999 V2000
   13.9666   -0.9901   22.2643 C   0  0  0  0  0  0  0  0  0  0  0  0
   12.8270   -0.4349   22.9929 N   0  0  0  0  0  0  0  0  0  0  0  0
   12.1912   -1.4328   23.8950 C   0  0  0  0  0  0  0  0  0  0  0  0
   10.8327   -1.9461   23.3945 C   0  0  0  0  0  0  0  0  0  0  0  0
    9.6704   -0.5079   23.0713 Si  0  0  0  0  0  4  0  0  0  0  0  0
    8.6801   -0.7988   21.5187 C   0  0  0  0  0  0  0  0  0  0  0  0
    8.5439   -0.2486   24.5342 C   0  0  0  0  0  0  0  0  0  0  0  0
   10.8140    0.9663   22.8752 C   0  0  0  0  0  0  0  0  0  0  0  0
   10.2535    2.2403   22.7354 C   0  0  0  0  0  0  0  0  0  0  0  0
   11.0454    3.3646   22.6071 C   0  0  0  0  0  0  0  0  0  0  0  0
   12.4224    3.2217   22.6176 C   0  0  0  0  0  0  0  0  0  0  0  0
   13.0229    1.9779   22.7538 C   0  0  0  0  0  0  0  0  0  0  0  0
   12.2151    0.8473   22.8828 C   0  0  0  0  0  0  0  0  0  0  0  0
   13.4462    4.6460   22.4031 S   0  0  0  0  0  0  0  0  0  0  0  0
   12.9572    5.7803   23.4216 N   0  0  0  0  0  0  0  0  0  0  0  0
   13.2193    5.1402   21.0782 O   0  0  0  0  0  0  0  0  0  0  0  0
   14.7764    4.2782   22.7859 O   0  0  0  0  0  0  0  0  0  0  0  0
  1  2  1  0
  2  3  1  0
  3  4  1  0
  4  5  1  0
  5  6  1  0
  5  7  1  0
  5  8  1  0
  8  9  2  0
  9 10  1  0
 10 11  2  0
 11 12  1  0
 12 13  2  0
 11 14  1  0
 14 15  1  0
 14 16  2  0
 14 17  2  0
 13  2  1  0
 13  8  1  0
M  END
