CVD-0003284|dock_bobby27042020.60|mol2|18|dock2
     RDKit          3D

 24 26  0  0  0  0  0  0  0  0999 V2000
   13.3782    5.6014   22.1403 C   0  0  0  0  0  0  0  0  0  0  0  0
   13.7737    4.2986   22.7710 C   0  0  0  0  0  0  0  0  0  0  0  0
   14.2774    4.2367   23.8883 O   0  0  0  0  0  0  0  0  0  0  0  0
   13.5514    3.1793   22.0102 N   0  0  0  0  0  0  0  0  0  0  0  0
   13.8913    1.9057   22.4769 C   0  0  0  0  0  0  0  0  0  0  0  0
   13.0708    0.8560   22.7462 C   0  0  0  0  0  0  0  0  0  0  0  0
   11.6302    0.7505   22.5913 C   0  0  0  0  0  0  0  0  0  0  0  0
   10.7765    1.7860   22.2547 C   0  0  0  0  0  0  0  0  0  0  0  0
    9.4840    1.3400   22.1942 N   0  0  0  0  0  0  0  0  0  0  0  0
    9.4630   -0.0015   22.4830 C   0  0  0  0  0  0  0  0  0  0  0  0
    8.3765   -0.8787   22.5424 C   0  0  0  0  0  0  0  0  0  0  0  0
    6.9671   -0.4070   22.2729 C   0  0  0  0  0  0  0  0  0  0  0  0
    6.8074    0.2031   20.9450 N   0  0  0  0  0  0  0  0  0  0  0  0
    5.4289    0.6661   20.7456 C   0  0  0  0  0  0  0  0  0  0  0  0
    5.2527    1.3483   19.4032 C   0  0  0  0  0  0  0  0  0  0  0  0
    5.6641    0.4615   18.2341 C   0  0  0  0  0  0  0  0  0  0  0  0
    5.6290    1.1227   16.9664 O   0  0  0  0  0  0  0  0  0  0  0  0
    7.0587   -0.0872   18.5140 C   0  0  0  0  0  0  0  0  0  0  0  0
    7.1590   -0.7418   19.8817 C   0  0  0  0  0  0  0  0  0  0  0  0
    8.6347   -2.2089   22.8531 C   0  0  0  0  0  0  0  0  0  0  0  0
    9.9315   -2.6014   23.0882 C   0  0  0  0  0  0  0  0  0  0  0  0
   10.1572   -3.9088   23.3889 F   0  0  0  0  0  0  0  0  0  0  0  0
   11.0148   -1.7552   23.0387 C   0  0  0  0  0  0  0  0  0  0  0  0
   10.7845   -0.4147   22.7303 C   0  0  0  0  0  0  0  0  0  0  0  0
  1  2  1  0
  2  3  2  0
  2  4  1  0
  4  5  1  0
  5  6  2  0
  6  7  1  0
  7  8  2  0
  8  9  1  0
  9 10  1  0
 10 11  2  0
 11 12  1  0
 12 13  1  0
 13 14  1  0
 14 15  1  0
 15 16  1  0
 16 17  1  0
 16 18  1  0
 18 19  1  0
 11 20  1  0
 20 21  2  0
 21 22  1  0
 21 23  1  0
 23 24  2  0
 24  7  1  0
 24 10  1  0
 19 13  1  0
M  END
