CVD-0000422|dock_bobby27042020.98|mol2|33|dock1
     RDKit          3D

 27 30  0  0  0  0  0  0  0  0999 V2000
    3.7651    1.8472   19.6230 C   0  0  0  0  0  0  0  0  0  0  0  0
    5.0776    1.1189   19.4483 C   0  0  0  0  0  0  0  0  0  0  0  0
    5.1899   -0.1388   20.2923 C   0  0  0  0  0  0  0  0  0  0  0  0
    6.5558   -0.7573   20.3755 C   0  0  0  0  0  0  0  0  0  0  0  0
    7.4886   -0.7564   19.3789 C   0  0  0  0  0  0  0  0  0  0  0  0
    8.6316   -1.3888   19.7823 N   0  0  0  0  0  0  0  0  0  0  0  0
    8.4533   -1.8138   21.0740 C   0  0  0  0  0  0  0  0  0  0  0  0
    9.3297   -2.4873   21.9312 C   0  0  0  0  0  0  0  0  0  0  0  0
   10.5879   -2.7661   21.3962 O   0  0  0  0  0  0  0  0  0  0  0  0
   11.6796   -1.9658   21.5912 C   0  0  0  0  0  0  0  0  0  0  0  0
   11.4703   -0.8498   22.3827 C   0  0  0  0  0  0  0  0  0  0  0  0
   12.5338    0.0069   22.6310 C   0  0  0  0  0  0  0  0  0  0  0  0
   12.3520    1.2410   23.4855 C   0  0  0  0  0  0  0  0  0  0  0  0
   12.6100    2.5278   22.7456 C   0  0  0  0  0  0  0  0  0  0  0  0
   11.7581    3.3592   22.0820 C   0  0  0  0  0  0  0  0  0  0  0  0
   12.5372    4.3999   21.5876 C   0  0  0  0  0  0  0  0  0  0  0  0
   13.8128    4.2412   21.9167 N   0  0  0  0  0  0  0  0  0  0  0  0
   13.8325    3.0790   22.6310 N   0  0  0  0  0  0  0  0  0  0  0  0
   13.7591   -0.3030   22.0674 C   0  0  0  0  0  0  0  0  0  0  0  0
   13.8650   -1.4412   21.2946 C   0  0  0  0  0  0  0  0  0  0  0  0
   12.8455   -2.2753   21.0507 N   0  0  0  0  0  0  0  0  0  0  0  0
    8.9127   -2.8322   23.2058 C   0  0  0  0  0  0  0  0  0  0  0  0
    7.6372   -2.5021   23.5835 C   0  0  0  0  0  0  0  0  0  0  0  0
    7.2222   -2.8410   24.8256 F   0  0  0  0  0  0  0  0  0  0  0  0
    6.7546   -1.8387   22.7499 C   0  0  0  0  0  0  0  0  0  0  0  0
    5.1606   -1.4994   23.3112 Cl  0  0  0  0  0  0  0  0  0  0  0  0
    7.1516   -1.4567   21.4728 C   0  0  0  0  0  0  0  0  0  0  0  0
  1  2  1  0
  2  3  1  0
  3  4  1  0
  4  5  2  0
  5  6  1  0
  6  7  1  0
  7  8  2  0
  8  9  1  0
  9 10  1  0
 10 11  2  0
 11 12  1  0
 12 13  1  0
 13 14  1  0
 14 15  2  0
 15 16  1  0
 16 17  2  0
 17 18  1  0
 12 19  2  0
 19 20  1  0
 20 21  2  0
  8 22  1  0
 22 23  2  0
 23 24  1  0
 23 25  1  0
 25 26  1  0
 25 27  2  0
 27  4  1  0
 27  7  1  0
 21 10  1  0
 18 14  1  0
M  END
