CVD-0000317|dock_bobby27042020.84|mol2|37|dock3
     RDKit          3D

 31 33  0  0  0  0  0  0  0  0999 V2000
   11.8534   -0.4336   24.4051 C   0  0  0  0  0  0  0  0  0  0  0  0
   10.5235   -0.1070   23.7900 C   0  0  0  0  0  0  0  0  0  0  0  0
   10.4162    0.8489   23.0295 O   0  0  0  0  0  0  0  0  0  0  0  0
    9.4642   -0.8913   24.1128 N   0  0  0  0  0  0  0  0  0  0  0  0
    9.5698   -2.0019   25.0640 C   0  0  0  0  0  0  0  0  0  0  0  0
    9.0964   -3.3361   24.5030 C   0  0  0  0  0  0  0  0  0  0  0  0
    8.9821   -4.3906   25.5772 C   0  0  0  0  0  0  0  0  0  0  0  0
    9.9835   -5.3323   25.7567 C   0  0  0  0  0  0  0  0  0  0  0  0
    9.8776   -6.3020   26.7398 C   0  0  0  0  0  0  0  0  0  0  0  0
    8.7675   -6.3423   27.5555 C   0  0  0  0  0  0  0  0  0  0  0  0
    7.7636   -5.4132   27.3874 C   0  0  0  0  0  0  0  0  0  0  0  0
    7.8704   -4.4439   26.4039 C   0  0  0  0  0  0  0  0  0  0  0  0
    8.1644   -0.6658   23.5110 C   0  0  0  0  0  0  0  0  0  0  0  0
    7.0204   -0.7027   24.5133 C   0  0  0  0  0  0  0  0  0  0  0  0
    7.0648    0.4598   25.3812 N   0  0  0  0  0  0  0  0  0  0  0  0
    6.9900    1.7125   24.6305 C   0  0  0  0  0  0  0  0  0  0  0  0
    8.1270    1.8133   23.6634 C   0  0  0  0  0  0  0  0  0  0  0  0
    8.1198    0.6343   22.8057 N   0  0  0  0  0  0  0  0  0  0  0  0
    8.8008    0.7295   21.3267 S   0  0  0  0  0  0  0  0  0  0  0  0
    9.3301    2.0530   21.2135 O   0  0  0  0  0  0  0  0  0  0  0  0
    9.6886   -0.3874   21.2311 O   0  0  0  0  0  0  0  0  0  0  0  0
    7.5733    0.5339   20.0791 C   0  0  0  0  0  0  0  0  0  0  0  0
    7.5742   -0.6051   19.2895 C   0  0  0  0  0  0  0  0  0  0  0  0
    6.6002   -0.7570   18.3168 C   0  0  0  0  0  0  0  0  0  0  0  0
    5.6334    0.2169   18.1318 C   0  0  0  0  0  0  0  0  0  0  0  0
    5.6571    1.3414   18.9269 C   0  0  0  0  0  0  0  0  0  0  0  0
    4.4440    2.5694   18.6969 Cl  0  0  0  0  0  0  0  0  0  0  0  0
    6.6170    1.5225   19.9016 C   0  0  0  0  0  0  0  0  0  0  0  0
    7.2746    0.4480   26.7208 C   0  0  0  0  0  0  0  0  0  0  0  0
    7.2539    1.7628   27.4434 C   0  0  0  0  0  0  0  0  0  0  0  0
    7.4629   -0.6040   27.3213 O   0  0  0  0  0  0  0  0  0  0  0  0
  1  2  1  0
  2  3  2  0
  2  4  1  0
  4  5  1  0
  5  6  1  0
  6  7  1  0
  7  8  2  0
  8  9  1  0
  9 10  2  0
 10 11  1  0
 11 12  2  0
 13  4  1  0
 13 14  1  0
 14 15  1  0
 15 16  1  0
 16 17  1  0
 17 18  1  0
 18 19  1  0
 19 20  2  0
 19 21  2  0
 19 22  1  0
 22 23  2  0
 23 24  1  0
 24 25  2  0
 25 26  1  0
 26 27  1  0
 26 28  2  0
 15 29  1  0
 29 30  1  0
 29 31  2  0
 12  7  1  0
 18 13  1  0
 28 22  1  0
M  END
