CVD-0001834|dock_bobby27042020.79|mol2|40|dock3
     RDKit          3D

 25 28  0  0  0  0  0  0  0  0999 V2000
   12.5359   -2.2221   24.3416 C   0  0  0  0  0  0  0  0  0  0  0  0
   12.9045   -2.0599   22.8703 C   0  0  0  0  0  0  0  0  0  0  0  0
   13.7140   -0.8035   22.6487 C   0  0  0  0  0  0  0  0  0  0  0  0
   13.0069    0.4912   23.0649 C   0  0  0  0  0  0  0  0  0  0  0  0
   11.5677    0.5007   22.5709 N   0  0  0  0  0  0  0  0  0  0  0  0
   10.7651   -0.7714   22.2807 C   0  0  0  0  0  0  0  0  0  0  0  0
    9.7939   -1.0569   23.4218 C   0  0  0  0  0  0  0  0  0  0  0  0
    9.1861   -2.3766   23.3064 N   0  0  0  0  0  0  0  0  0  0  0  0
    8.2319   -2.5900   22.3837 C   0  0  0  0  0  0  0  0  0  0  0  0
    7.8148   -1.6555   21.5701 N   0  0  0  0  0  0  0  0  0  0  0  0
    6.8499   -2.1892   20.7650 C   0  0  0  0  0  0  0  0  0  0  0  0
    6.4913   -3.5333   20.9179 N   0  0  0  0  0  0  0  0  0  0  0  0
    7.4407   -4.1075   22.1538 S   0  0  0  0  0  0  0  0  0  0  0  0
    6.1932   -1.3745   19.7386 C   0  0  0  0  0  0  0  0  0  0  0  0
    5.7634    0.0655   20.0499 C   0  0  0  0  0  0  0  0  0  0  0  0
    6.1247    0.4163   18.6011 C   0  0  0  0  0  0  0  0  0  0  0  0
    6.9603   -0.8726   18.5101 C   0  0  0  0  0  0  0  0  0  0  0  0
   11.6989   -1.9476   21.9609 C   0  0  0  0  0  0  0  0  0  0  0  0
   10.9654    1.6920   22.3567 C   0  0  0  0  0  0  0  0  0  0  0  0
    9.8739    1.7321   21.8003 O   0  0  0  0  0  0  0  0  0  0  0  0
   11.5373    3.0191   22.7500 C   0  0  0  0  0  0  0  0  0  0  0  0
   10.7479    4.2305   22.7949 C   0  0  0  0  0  0  0  0  0  0  0  0
   11.6249    5.2034   23.1871 C   0  0  0  0  0  0  0  0  0  0  0  0
   12.8187    4.6267   23.3575 N   0  0  0  0  0  0  0  0  0  0  0  0
   12.8020    3.2966   23.0981 N   0  0  0  0  0  0  0  0  0  0  0  0
  1  2  1  0
  2  3  1  0
  3  4  1  0
  4  5  1  0
  5  6  1  0
  6  7  1  0
  7  8  1  0
  8  9  1  0
  9 10  2  0
 10 11  1  0
 11 12  2  0
 12 13  1  0
 11 14  1  0
 14 15  1  0
 15 16  1  0
 16 17  1  0
  6 18  1  0
  5 19  1  0
 19 20  2  0
 19 21  1  0
 21 22  1  0
 22 23  2  0
 23 24  1  0
 24 25  1  0
 18  2  1  0
 25 21  2  0
 13  9  1  0
 17 14  1  0
M  END
