CVD-0000461|dock_bobby27042020.13|mol2|1|dock1
     RDKit          3D

 31 34  0  0  0  0  0  0  0  0999 V2000
   13.8609    5.2715   21.3953 C   0  0  0  0  0  0  0  0  0  0  0  0
   12.6257    4.5404   21.6107 N   0  0  0  0  0  0  0  0  0  0  0  0
   12.5214    3.6429   22.5907 C   0  0  0  0  0  0  0  0  0  0  0  0
   13.4917    3.3941   23.2996 O   0  0  0  0  0  0  0  0  0  0  0  0
   11.2005    2.9554   22.8193 C   0  0  0  0  0  0  0  0  0  0  0  0
   10.0966    3.7759   22.7938 C   0  0  0  0  0  0  0  0  0  0  0  0
    8.8069    3.2900   23.0928 C   0  0  0  0  0  0  0  0  0  0  0  0
    7.6384    4.0883   23.0599 C   0  0  0  0  0  0  0  0  0  0  0  0
    6.4284    3.5480   23.3811 C   0  0  0  0  0  0  0  0  0  0  0  0
    6.3215    2.2155   23.7446 C   0  0  0  0  0  0  0  0  0  0  0  0
    7.4199    1.3972   23.7879 C   0  0  0  0  0  0  0  0  0  0  0  0
    7.2928   -0.0591   24.1821 C   0  0  0  0  0  0  0  0  0  0  0  0
    7.5816   -1.0068   23.0964 N   0  0  0  0  0  0  0  0  0  0  0  0
    6.5794   -0.8892   22.0332 C   0  0  0  0  0  0  0  0  0  0  0  0
    6.9055   -1.8403   20.8967 C   0  0  0  0  0  0  0  0  0  0  0  0
    6.9655   -3.2197   21.3853 N   0  0  0  0  0  0  0  0  0  0  0  0
    7.9173   -3.3583   22.4918 C   0  0  0  0  0  0  0  0  0  0  0  0
    7.5828   -2.3775   23.6009 C   0  0  0  0  0  0  0  0  0  0  0  0
    6.2396   -4.2242   20.8396 C   0  0  0  0  0  0  0  0  0  0  0  0
    5.4899   -4.0279   19.8914 O   0  0  0  0  0  0  0  0  0  0  0  0
    6.3654   -5.6140   21.4340 C   0  0  0  0  0  0  0  0  0  0  0  0
    5.6888   -5.6599   23.0672 Cl  0  0  0  0  0  0  0  0  0  0  0  0
    8.7014    1.9289   23.4489 C   0  0  0  0  0  0  0  0  0  0  0  0
    9.7942    1.1126   23.4740 N   0  0  0  0  0  0  0  0  0  0  0  0
   10.9525    1.5848   23.0755 C   0  0  0  0  0  0  0  0  0  0  0  0
   11.8788    0.5732   22.9295 N   0  0  0  0  0  0  0  0  0  0  0  0
   12.7631    0.3629   24.0771 C   0  0  0  0  0  0  0  0  0  0  0  0
   13.7687   -0.7397   23.8202 C   0  0  0  0  0  0  0  0  0  0  0  0
   13.1306   -1.9370   23.4283 O   0  0  0  0  0  0  0  0  0  0  0  0
   12.4749   -1.7025   22.1956 C   0  0  0  0  0  0  0  0  0  0  0  0
   11.3828   -0.6659   22.3452 C   0  0  0  0  0  0  0  0  0  0  0  0
  1  2  1  0
  2  3  1  0
  3  4  2  0
  3  5  1  0
  5  6  2  0
  6  7  1  0
  7  8  2  0
  8  9  1  0
  9 10  2  0
 10 11  1  0
 11 12  1  0
 12 13  1  0
 13 14  1  0
 14 15  1  0
 15 16  1  0
 16 17  1  0
 17 18  1  0
 16 19  1  0
 19 20  2  0
 19 21  1  0
 21 22  1  0
 11 23  2  0
 23 24  1  0
 24 25  2  0
 25 26  1  0
 26 27  1  0
 27 28  1  0
 28 29  1  0
 29 30  1  0
 30 31  1  0
 25  5  1  0
 31 26  1  0
 23  7  1  0
 18 13  1  0
M  END
