CVD-0000967|dock_bobby27042020.25|mol2|30|dock1
     RDKit          3D

 30 33  0  0  0  0  0  0  0  0999 V2000
   12.1735   -1.5416   21.5793 N   0  0  0  0  0  0  0  0  0  0  0  0
   11.0865   -1.5754   22.7545 S   0  0  0  0  0  0  0  0  0  0  0  0
   10.6892   -2.9361   22.9603 O   0  0  0  0  0  0  0  0  0  0  0  0
   11.6640   -0.8691   23.8585 O   0  0  0  0  0  0  0  0  0  0  0  0
    9.6498   -0.6542   22.2669 C   0  0  0  0  0  0  0  0  0  0  0  0
    8.5952   -1.4416   21.8251 C   0  0  0  0  0  0  0  0  0  0  0  0
    7.3736   -0.8778   21.5004 C   0  0  0  0  0  0  0  0  0  0  0  0
    7.2246    0.4922   21.6319 C   0  0  0  0  0  0  0  0  0  0  0  0
    8.2765    1.2956   22.0321 C   0  0  0  0  0  0  0  0  0  0  0  0
    9.5278    0.7499   22.3144 C   0  0  0  0  0  0  0  0  0  0  0  0
   10.5945    1.6266   22.6345 N   0  0  0  0  0  0  0  0  0  0  0  0
   11.1402    2.5110   21.5943 C   0  0  0  0  0  0  0  0  0  0  0  0
   12.5459    2.9708   21.9641 C   0  0  0  0  0  0  0  0  0  0  0  0
   12.6004    3.5396   23.3020 N   0  0  0  0  0  0  0  0  0  0  0  0
   12.0005    2.6678   24.3231 C   0  0  0  0  0  0  0  0  0  0  0  0
   10.5837    2.3268   23.9443 C   0  0  0  0  0  0  0  0  0  0  0  0
   13.1644    4.7114   23.7008 C   0  0  0  0  0  0  0  0  0  0  0  0
   13.0662    5.0374   24.8828 O   0  0  0  0  0  0  0  0  0  0  0  0
   13.8956    5.6571   22.7990 C   0  0  0  0  0  0  0  0  0  0  0  0
   13.9156    6.9637   22.8902 C   0  0  0  0  0  0  0  0  0  0  0  0
    6.2188   -1.7459   21.0199 C   0  0  0  0  0  0  0  0  0  0  0  0
    6.1236   -1.8235   19.5688 N   0  0  0  0  0  0  0  0  0  0  0  0
    6.2271   -3.0704   19.0704 C   0  0  0  0  0  0  0  0  0  0  0  0
    6.1954   -3.3793   17.8840 O   0  0  0  0  0  0  0  0  0  0  0  0
    6.3684   -3.9748   20.2326 C   0  0  0  0  0  0  0  0  0  0  0  0
    6.4841   -5.3624   20.3024 C   0  0  0  0  0  0  0  0  0  0  0  0
    6.5953   -5.9696   21.5448 C   0  0  0  0  0  0  0  0  0  0  0  0
    6.5917   -5.2111   22.6982 C   0  0  0  0  0  0  0  0  0  0  0  0
    6.4766   -3.8314   22.6257 C   0  0  0  0  0  0  0  0  0  0  0  0
    6.3641   -3.2082   21.3855 C   0  0  0  0  0  0  0  0  0  0  0  0
  1  2  1  0
  2  3  2  0
  2  4  2  0
  2  5  1  0
  5  6  2  0
  6  7  1  0
  7  8  2  0
  8  9  1  0
  9 10  2  0
 10 11  1  0
 11 12  1  0
 12 13  1  0
 13 14  1  0
 14 15  1  0
 15 16  1  0
 14 17  1  0
 17 18  2  0
 17 19  1  0
 19 20  2  0
  7 21  1  0
 21 22  1  0
 22 23  1  0
 23 24  2  0
 23 25  1  0
 25 26  2  0
 26 27  1  0
 27 28  2  0
 28 29  1  0
 29 30  2  0
 10  5  1  0
 16 11  1  0
 30 21  1  0
 30 25  1  0
M  END
