CVD-0000775|dock_bobby27042020.69|mol2|15|dock1
     RDKit          3D

 32 35  0  0  0  0  0  0  0  0999 V2000
    8.9286    0.6359   26.9879 C   0  0  0  0  0  0  0  0  0  0  0  0
    8.3210   -0.6421   26.8070 O   0  0  0  0  0  0  0  0  0  0  0  0
    8.2577   -1.2347   25.5691 C   0  0  0  0  0  0  0  0  0  0  0  0
    8.9450   -0.6871   24.4901 C   0  0  0  0  0  0  0  0  0  0  0  0
    8.9000   -1.2577   23.2431 C   0  0  0  0  0  0  0  0  0  0  0  0
    9.6927   -0.5688   22.1257 C   0  0  0  0  0  0  0  0  0  0  0  0
   11.0123   -1.2398   21.9366 C   0  0  0  0  0  0  0  0  0  0  0  0
   11.8968   -1.0273   23.1090 N   0  0  0  0  0  0  0  0  0  0  0  0
   12.0437    0.3529   23.6132 C   0  0  0  0  0  0  0  0  0  0  0  0
   11.0185    1.3538   23.0718 C   0  0  0  0  0  0  0  0  0  0  0  0
   11.1969    2.7163   23.2900 C   0  0  0  0  0  0  0  0  0  0  0  0
   10.2794    3.6401   22.8234 C   0  0  0  0  0  0  0  0  0  0  0  0
    9.1704    3.2079   22.1314 C   0  0  0  0  0  0  0  0  0  0  0  0
    8.9855    1.8543   21.9101 C   0  0  0  0  0  0  0  0  0  0  0  0
    9.8984    0.9047   22.3717 C   0  0  0  0  0  0  0  0  0  0  0  0
   12.5479   -2.0230   23.7583 C   0  0  0  0  0  0  0  0  0  0  0  0
   12.4501   -3.1915   23.4042 O   0  0  0  0  0  0  0  0  0  0  0  0
   13.4115   -1.6696   24.9543 C   0  0  0  0  0  0  0  0  0  0  0  0
   14.4077   -3.0420   25.4554 Cl  0  0  0  0  0  0  0  0  0  0  0  0
    8.1361   -2.4474   23.0245 C   0  0  0  0  0  0  0  0  0  0  0  0
    8.0239   -3.1231   21.7802 C   0  0  0  0  0  0  0  0  0  0  0  0
    7.2722   -4.2510   21.6481 C   0  0  0  0  0  0  0  0  0  0  0  0
    6.5835   -4.7925   22.7220 C   0  0  0  0  0  0  0  0  0  0  0  0
    5.7589   -6.0454   22.5524 C   0  0  0  0  0  0  0  0  0  0  0  0
    4.2768   -5.8083   22.7802 C   0  0  0  0  0  0  0  0  0  0  0  0
    3.9254   -5.8867   24.1909 N   0  0  0  0  0  0  0  0  0  0  0  0
    3.8647   -7.0430   24.8541 C   0  0  0  0  0  0  0  0  0  0  0  0
    3.5061   -6.9525   26.3084 C   0  0  0  0  0  0  0  0  0  0  0  0
    4.1033   -8.1166   24.3100 O   0  0  0  0  0  0  0  0  0  0  0  0
    6.6666   -4.1763   23.9417 C   0  0  0  0  0  0  0  0  0  0  0  0
    7.4327   -3.0029   24.1307 C   0  0  0  0  0  0  0  0  0  0  0  0
    7.5153   -2.3704   25.3918 C   0  0  0  0  0  0  0  0  0  0  0  0
  1  2  1  0
  2  3  1  0
  3  4  2  0
  4  5  1  0
  6  5  1  0
  6  7  1  0
  7  8  1  0
  8  9  1  0
  9 10  1  0
 10 11  2  0
 11 12  1  0
 12 13  2  0
 13 14  1  0
 14 15  2  0
  8 16  1  0
 16 17  2  0
 16 18  1  0
 18 19  1  0
  5 20  2  0
 20 21  1  0
 21 22  2  0
 22 23  1  0
 23 24  1  0
 24 25  1  0
 25 26  1  0
 26 27  1  0
 27 28  1  0
 27 29  2  0
 23 30  2  0
 30 31  1  0
 31 32  2  0
 32  3  1  0
 15  6  1  0
 31 20  1  0
 15 10  1  0
M  END
