CVD-0003553|dock_bobby27042020.59|mol2|25|dock3
     RDKit          3D

 27 30  0  0  0  0  0  0  0  0999 V2000
   11.9914   -1.2363   21.2271 N   0  0  0  0  0  0  0  0  0  0  0  0
   11.0232   -0.9813   22.4763 S   0  0  0  0  0  0  0  0  0  0  0  0
   11.6208    0.0485   23.2720 O   0  0  0  0  0  0  0  0  0  0  0  0
   10.7618   -2.2553   23.0763 O   0  0  0  0  0  0  0  0  0  0  0  0
    9.4840   -0.3562   21.8735 C   0  0  0  0  0  0  0  0  0  0  0  0
    9.1692    0.9792   22.0545 C   0  0  0  0  0  0  0  0  0  0  0  0
    7.9917    1.4641   21.5216 C   0  0  0  0  0  0  0  0  0  0  0  0
    7.1212    0.6445   20.8118 C   0  0  0  0  0  0  0  0  0  0  0  0
    5.8156    1.2436   20.2951 C   0  0  0  0  0  0  0  0  0  0  0  0
    5.7160    1.1312   18.7499 C   0  0  0  0  0  0  0  0  0  0  0  0
    5.4511   -0.2409   18.1445 C   0  0  0  0  0  0  0  0  0  0  0  0
    6.4969   -1.2907   18.4397 C   0  0  0  0  0  0  0  0  0  0  0  0
    6.6086   -1.5832   19.8735 N   0  0  0  0  0  0  0  0  0  0  0  0
    5.9064   -2.6131   20.4265 C   0  0  0  0  0  0  0  0  0  0  0  0
    5.1652   -3.3462   19.7830 O   0  0  0  0  0  0  0  0  0  0  0  0
    6.0691   -2.8215   21.9218 C   0  0  0  0  0  0  0  0  0  0  0  0
    6.7427   -4.1126   22.2785 C   0  0  0  0  0  0  0  0  0  0  0  0
    6.5514   -5.3311   21.6959 C   0  0  0  0  0  0  0  0  0  0  0  0
    7.3437   -6.2780   22.2887 N   0  0  0  0  0  0  0  0  0  0  0  0
    8.0697   -5.6805   23.2769 C   0  0  0  0  0  0  0  0  0  0  0  0
    8.9643   -6.2598   24.0951 N   0  0  0  0  0  0  0  0  0  0  0  0
    9.5529   -5.4576   24.9927 C   0  0  0  0  0  0  0  0  0  0  0  0
    9.2887   -4.1096   25.1084 C   0  0  0  0  0  0  0  0  0  0  0  0
    8.3631   -3.5281   24.2564 C   0  0  0  0  0  0  0  0  0  0  0  0
    7.7228   -4.3191   23.3047 C   0  0  0  0  0  0  0  0  0  0  0  0
    7.4528   -0.7051   20.6361 C   0  0  0  0  0  0  0  0  0  0  0  0
    8.6394   -1.2024   21.1709 C   0  0  0  0  0  0  0  0  0  0  0  0
  1  2  1  0
  2  3  2  0
  2  4  2  0
  2  5  1  0
  5  6  2  0
  6  7  1  0
  7  8  2  0
  8  9  1  0
  9 10  1  0
 10 11  1  0
 11 12  1  0
 12 13  1  0
 13 14  1  0
 14 15  2  0
 14 16  1  0
 16 17  1  0
 17 18  2  0
 18 19  1  0
 19 20  1  0
 20 21  2  0
 21 22  1  0
 22 23  2  0
 23 24  1  0
 24 25  2  0
 13 26  1  0
 26 27  2  0
 27  5  1  0
 26  8  1  0
 25 17  1  0
 25 20  1  0
M  END
