CVD-0003178|dock_bobby27042020.74|mol2|37|dock1
     RDKit          3D

 26 28  0  0  0  0  0  0  0  0999 V2000
    8.3783   -4.8447   26.6730 C   0  0  0  0  0  0  0  0  0  0  0  0
    9.2538   -4.1207   25.7429 C   0  0  0  0  0  0  0  0  0  0  0  0
   10.2600   -4.7462   25.1050 C   0  0  0  0  0  0  0  0  0  0  0  0
    8.8784   -2.6745   25.5799 C   0  0  0  0  0  0  0  0  0  0  0  0
    9.2793   -1.8850   26.4273 O   0  0  0  0  0  0  0  0  0  0  0  0
    8.1434   -2.2021   24.5507 N   0  0  0  0  0  0  0  0  0  0  0  0
    7.8749   -0.7524   24.3834 C   0  0  0  0  0  0  0  0  0  0  0  0
    8.2229   -0.3050   23.0039 C   0  0  0  0  0  0  0  0  0  0  0  0
    9.7292   -0.3710   22.7698 C   0  0  0  0  0  0  0  0  0  0  0  0
   10.3219   -1.3946   22.0283 C   0  0  0  0  0  0  0  0  0  0  0  0
   11.6923   -1.4490   21.8366 C   0  0  0  0  0  0  0  0  0  0  0  0
   12.5055   -0.4783   22.3786 C   0  0  0  0  0  0  0  0  0  0  0  0
   11.9501    0.5544   23.1133 C   0  0  0  0  0  0  0  0  0  0  0  0
   10.5785    0.5988   23.2977 C   0  0  0  0  0  0  0  0  0  0  0  0
    9.9392    1.9205   24.2196 Cl  0  0  0  0  0  0  0  0  0  0  0  0
    7.4393   -1.0923   21.9848 C   0  0  0  0  0  0  0  0  0  0  0  0
    6.9904   -0.5281   20.7907 C   0  0  0  0  0  0  0  0  0  0  0  0
    6.2668   -1.2411   19.8451 C   0  0  0  0  0  0  0  0  0  0  0  0
    5.9835   -2.5746   20.1111 C   0  0  0  0  0  0  0  0  0  0  0  0
    6.4170   -3.1568   21.2868 C   0  0  0  0  0  0  0  0  0  0  0  0
    7.1413   -2.4287   22.2245 C   0  0  0  0  0  0  0  0  0  0  0  0
    7.6729   -3.1112   23.4886 C   0  0  0  0  0  0  0  0  0  0  0  0
    5.7668   -0.5767   18.6024 C   0  0  0  0  0  0  0  0  0  0  0  0
    6.5400    0.4293   18.2097 F   0  0  0  0  0  0  0  0  0  0  0  0
    5.6949   -1.4070   17.5681 F   0  0  0  0  0  0  0  0  0  0  0  0
    4.5490   -0.0665   18.7459 F   0  0  0  0  0  0  0  0  0  0  0  0
  1  2  1  0
  2  3  2  0
  2  4  1  0
  4  5  2  0
  4  6  1  0
  6  7  1  0
  7  8  1  0
  8  9  1  0
  9 10  2  0
 10 11  1  0
 11 12  2  0
 12 13  1  0
 13 14  2  0
 14 15  1  0
  8 16  1  0
 16 17  2  0
 17 18  1  0
 18 19  2  0
 19 20  1  0
 20 21  2  0
 21 22  1  0
 18 23  1  0
 23 24  1  0
 23 25  1  0
 23 26  1  0
 22  6  1  0
 14  9  1  0
 21 16  1  0
M  END
