CVD-0001318|dock_bobby27042020.24|mol2|19|dock1
     RDKit          3D

 24 26  0  0  0  0  0  0  0  0999 V2000
   10.7181   -2.1858   21.3353 O   0  0  0  0  0  0  0  0  0  0  0  0
   10.4572   -0.9859   21.3585 C   0  0  0  0  0  0  0  0  0  0  0  0
    9.3528   -0.4778   20.8042 N   0  0  0  0  0  0  0  0  0  0  0  0
    8.3564   -1.2956   20.1214 C   0  0  0  0  0  0  0  0  0  0  0  0
    7.6109   -0.4603   19.0828 C   0  0  0  0  0  0  0  0  0  0  0  0
    6.5821   -1.2906   18.3340 C   0  0  0  0  0  0  0  0  0  0  0  0
    5.5955   -1.9362   19.2922 C   0  0  0  0  0  0  0  0  0  0  0  0
    6.3232   -2.7573   20.3491 C   0  0  0  0  0  0  0  0  0  0  0  0
    7.3593   -1.9353   21.0981 C   0  0  0  0  0  0  0  0  0  0  0  0
    8.0164   -2.7578   22.1079 N   0  0  0  0  0  0  0  0  0  0  0  0
    8.2296   -2.3221   23.3579 C   0  0  0  0  0  0  0  0  0  0  0  0
    7.8793   -1.1977   23.7033 O   0  0  0  0  0  0  0  0  0  0  0  0
    8.9068   -3.2211   24.3524 C   0  0  0  0  0  0  0  0  0  0  0  0
   10.0386   -3.9740   24.0521 C   0  0  0  0  0  0  0  0  0  0  0  0
   10.5876   -4.7707   25.0377 C   0  0  0  0  0  0  0  0  0  0  0  0
   10.1005   -4.8693   26.2745 N   0  0  0  0  0  0  0  0  0  0  0  0
    9.0167   -4.1450   26.5515 C   0  0  0  0  0  0  0  0  0  0  0  0
    8.3914   -3.3179   25.6397 C   0  0  0  0  0  0  0  0  0  0  0  0
   11.3764    0.0163   22.0232 C   0  0  0  0  0  0  0  0  0  0  0  0
   10.7534    0.5420   23.2955 C   0  0  0  0  0  0  0  0  0  0  0  0
   11.7067    1.4839   24.0239 C   0  0  0  0  0  0  0  0  0  0  0  0
   13.0294    0.8196   24.3037 C   0  0  0  0  0  0  0  0  0  0  0  0
   13.6480    0.2732   23.0388 C   0  0  0  0  0  0  0  0  0  0  0  0
   12.6992   -0.6647   22.3045 C   0  0  0  0  0  0  0  0  0  0  0  0
  1  2  2  0
  2  3  1  0
  3  4  1  0
  4  5  1  0
  5  6  1  0
  6  7  1  0
  7  8  1  0
  8  9  1  0
  9 10  1  0
 10 11  1  0
 11 12  2  0
 11 13  1  0
 13 14  2  0
 14 15  1  0
 15 16  2  0
 16 17  1  0
 17 18  2  0
  2 19  1  0
 19 20  1  0
 20 21  1  0
 21 22  1  0
 22 23  1  0
 23 24  1  0
  9  4  1  0
 18 13  1  0
 24 19  1  0
M  END
