CVD-0001537|dock_bobby27042020.80|mol2|43|dock3
     RDKit          3D

 23 26  0  0  0  0  0  0  0  0999 V2000
   11.9896   -2.3965   22.4483 O   0  0  0  0  0  0  0  0  0  0  0  0
   10.9809   -1.4342   22.7717 S   0  0  0  0  0  0  0  0  0  0  0  0
   10.2320   -1.5667   23.9839 O   0  0  0  0  0  0  0  0  0  0  0  0
    9.8953   -1.4520   21.5398 N   0  0  0  0  0  0  0  0  0  0  0  0
    8.5554   -1.0227   21.6648 C   0  0  0  0  0  0  0  0  0  0  0  0
    8.0391   -0.5636   22.7835 N   0  0  0  0  0  0  0  0  0  0  0  0
    6.4286   -0.1494   22.5624 S   0  0  0  0  0  0  0  0  0  0  0  0
    6.3787   -0.5921   20.8945 C   0  0  0  0  0  0  0  0  0  0  0  0
    5.3314   -0.5344   19.9790 C   0  0  0  0  0  0  0  0  0  0  0  0
    5.5467   -0.9549   18.6770 C   0  0  0  0  0  0  0  0  0  0  0  0
    6.7843   -1.4262   18.2891 C   0  0  0  0  0  0  0  0  0  0  0  0
    7.8331   -1.4876   19.1930 C   0  0  0  0  0  0  0  0  0  0  0  0
    7.6441   -1.0707   20.5099 C   0  0  0  0  0  0  0  0  0  0  0  0
   11.7171    0.1648   22.7505 C   0  0  0  0  0  0  0  0  0  0  0  0
   13.0990    0.2739   22.7496 C   0  0  0  0  0  0  0  0  0  0  0  0
   13.6877    1.5021   22.7381 C   0  0  0  0  0  0  0  0  0  0  0  0
   12.9099    2.6843   22.7285 C   0  0  0  0  0  0  0  0  0  0  0  0
   13.4772    3.9809   22.7161 C   0  0  0  0  0  0  0  0  0  0  0  0
   12.6811    5.0879   22.7075 C   0  0  0  0  0  0  0  0  0  0  0  0
   11.3069    4.9693   22.7107 C   0  0  0  0  0  0  0  0  0  0  0  0
   10.7131    3.7422   22.7224 C   0  0  0  0  0  0  0  0  0  0  0  0
   11.4968    2.5637   22.7315 C   0  0  0  0  0  0  0  0  0  0  0  0
   10.9212    1.2724   22.7434 C   0  0  0  0  0  0  0  0  0  0  0  0
  1  2  2  0
  2  3  2  0
  2  4  1  0
  4  5  1  0
  5  6  2  0
  6  7  1  0
  7  8  1  0
  8  9  2  0
  9 10  1  0
 10 11  2  0
 11 12  1  0
 12 13  2  0
  2 14  1  0
 14 15  2  0
 15 16  1  0
 16 17  2  0
 17 18  1  0
 18 19  2  0
 19 20  1  0
 20 21  2  0
 21 22  1  0
 22 23  2  0
 13  5  1  0
 23 14  1  0
 13  8  1  0
 22 17  1  0
M  END
