CVD-0001267|dock_bobby27042020.67|mol2|37|dock3
     RDKit          3D

 19 21  0  0  0  0  0  0  0  0999 V2000
   13.7693   -2.1804   20.8313 C   0  0  0  0  0  0  0  0  0  0  0  0
   13.0583   -2.0246   22.1732 C   0  0  0  0  0  0  0  0  0  0  0  0
   13.9902   -2.4115   23.3055 C   0  0  0  0  0  0  0  0  0  0  0  0
   13.8744   -1.6409   24.3574 O   0  0  0  0  0  0  0  0  0  0  0  0
   14.7609   -3.3437   23.2380 O   0  0  0  0  0  0  0  0  0  0  0  0
   12.5899   -0.5943   22.4054 C   0  0  0  0  0  0  0  0  0  0  0  0
   11.2328   -0.3062   22.4947 C   0  0  0  0  0  0  0  0  0  0  0  0
   10.7756    0.9830   22.7052 C   0  0  0  0  0  0  0  0  0  0  0  0
   11.6988    2.0180   22.8309 C   0  0  0  0  0  0  0  0  0  0  0  0
   13.0721    1.7248   22.7404 C   0  0  0  0  0  0  0  0  0  0  0  0
   13.5235    0.4268   22.5287 C   0  0  0  0  0  0  0  0  0  0  0  0
   13.7906    2.8959   22.8936 N   0  0  0  0  0  0  0  0  0  0  0  0
   12.9074    3.9434   23.0818 C   0  0  0  0  0  0  0  0  0  0  0  0
   13.1584    5.2969   23.2784 C   0  0  0  0  0  0  0  0  0  0  0  0
   12.0908    6.1627   23.4454 C   0  0  0  0  0  0  0  0  0  0  0  0
   10.8004    5.6751   23.4148 C   0  0  0  0  0  0  0  0  0  0  0  0
    9.4738    6.7831   23.6272 Cl  0  0  0  0  0  0  0  0  0  0  0  0
   10.5256    4.3355   23.2212 C   0  0  0  0  0  0  0  0  0  0  0  0
   11.5885    3.4506   23.0516 C   0  0  0  0  0  0  0  0  0  0  0  0
  1  2  1  0
  2  3  1  0
  3  4  1  0
  3  5  2  0
  2  6  1  0
  6  7  2  0
  7  8  1  0
  8  9  2  0
  9 10  1  0
 10 11  2  0
 10 12  1  0
 12 13  1  0
 13 14  2  0
 14 15  1  0
 15 16  2  0
 16 17  1  0
 16 18  1  0
 18 19  2  0
 11  6  1  0
 19 13  1  0
 19  9  1  0
M  END
