CVD-0002205|dock_bobby27042020.21|mol2|12|dock3
     RDKit          3D

 22 24  0  0  0  0  0  0  0  0999 V2000
   13.8366   -1.9139   21.9371 C   0  0  0  0  0  0  0  0  0  0  0  0
   12.5754   -2.0047   22.7648 C   0  0  0  0  0  0  0  0  0  0  0  0
   12.5373   -0.9736   23.8761 C   0  0  0  0  0  0  0  0  0  0  0  0
   12.3237    0.4419   23.3872 C   0  0  0  0  0  0  0  0  0  0  0  0
   13.4421    1.2383   23.1560 C   0  0  0  0  0  0  0  0  0  0  0  0
   13.3196    2.5402   22.7088 C   0  0  0  0  0  0  0  0  0  0  0  0
   12.0554    3.0709   22.4835 C   0  0  0  0  0  0  0  0  0  0  0  0
   10.9292    2.2836   22.7100 C   0  0  0  0  0  0  0  0  0  0  0  0
   11.0461    0.9706   23.1583 C   0  0  0  0  0  0  0  0  0  0  0  0
    9.7911    0.1454   23.3828 C   0  0  0  0  0  0  0  0  0  0  0  0
    8.6351    0.5009   22.4698 C   0  0  0  0  0  0  0  0  0  0  0  0
    7.6094    1.3283   22.9081 C   0  0  0  0  0  0  0  0  0  0  0  0
    6.5619    1.6742   22.0702 C   0  0  0  0  0  0  0  0  0  0  0  0
    6.5189    1.1952   20.7649 C   0  0  0  0  0  0  0  0  0  0  0  0
    5.5788    1.5410   19.6353 C   0  0  0  0  0  0  0  0  0  0  0  0
    5.9610    0.5699   18.5144 C   0  0  0  0  0  0  0  0  0  0  0  0
    7.2646   -0.0614   18.9443 C   0  0  0  0  0  0  0  0  0  0  0  0
    7.9378   -0.8287   18.2810 O   0  0  0  0  0  0  0  0  0  0  0  0
    7.5403    0.3684   20.3209 C   0  0  0  0  0  0  0  0  0  0  0  0
    8.5931    0.0215   21.1653 C   0  0  0  0  0  0  0  0  0  0  0  0
   11.9047    4.4275   22.0181 C   0  0  0  0  0  0  0  0  0  0  0  0
   11.8048    5.5124   21.6746 N   0  0  0  0  0  0  0  0  0  0  0  0
  1  2  1  0
  2  3  1  0
  3  4  1  0
  4  5  2  0
  5  6  1  0
  6  7  2  0
  7  8  1  0
  8  9  2  0
  9 10  1  0
 10 11  1  0
 11 12  2  0
 12 13  1  0
 13 14  2  0
 14 15  1  0
 15 16  1  0
 16 17  1  0
 17 18  2  0
 17 19  1  0
 19 20  2  0
  7 21  1  0
 21 22  3  0
  9  4  1  0
 20 11  1  0
 19 14  1  0
M  END
