CVD-0000004|dock_bobby27042020.28|mol2|42|dock1
     RDKit          3D

 51 52  0  0  0  0  0  0  0  0999 V2000
    7.6202    0.3587   18.1723 C   0  0  0  0  0  0  0  0  0  0  0  0
    7.5601    0.7412   19.6379 C   0  0  0  0  0  0  0  0  0  0  0  0
    6.1731    0.5921   20.2650 C   0  0  0  0  0  0  0  0  0  0  0  0
    5.2535    1.7281   19.8234 C   0  0  0  0  0  0  0  0  0  0  0  0
    6.2785    0.5641   21.8030 C   0  0  0  0  0  0  0  0  0  0  0  0
    6.6633   -0.7592   22.2682 N   0  0  0  0  0  0  0  0  0  0  0  0
    6.1953   -1.2673   23.4120 C   0  0  0  0  0  0  0  0  0  0  0  0
    5.4166   -0.6557   24.1386 O   0  0  0  0  0  0  0  0  0  0  0  0
    6.6608   -2.6696   23.7976 C   0  0  0  0  0  0  0  0  0  0  0  0
    8.0525   -2.6271   24.4363 C   0  0  0  0  0  0  0  0  0  0  0  0
    9.2027   -2.9400   23.4884 C   0  0  0  0  0  0  0  0  0  0  0  0
   10.5079   -3.1463   24.2316 C   0  0  0  0  0  0  0  0  0  0  0  0
   10.6444   -4.5061   24.7337 N   0  0  0  0  0  0  0  0  0  0  0  0
   10.2742   -4.8958   25.9462 C   0  0  0  0  0  0  0  0  0  0  0  0
   10.4441   -6.1706   26.3073 N   0  0  0  0  0  0  0  0  0  0  0  0
    9.7400   -4.0382   26.7992 N   0  0  0  0  0  0  0  0  0  0  0  0
    5.7152   -3.2796   24.7180 N   0  0  0  0  0  0  0  0  0  0  0  0
    4.6884   -4.0156   24.2833 C   0  0  0  0  0  0  0  0  0  0  0  0
    4.4668   -4.2157   23.0920 O   0  0  0  0  0  0  0  0  0  0  0  0
    3.7762   -4.6143   25.3501 C   0  0  0  0  0  0  0  0  0  0  0  0
    2.9803   -5.7846   24.7527 C   0  0  0  0  0  0  0  0  0  0  0  0
    1.7963   -5.3420   23.9277 C   0  0  0  0  0  0  0  0  0  0  0  0
    1.6821   -5.7116   22.5965 C   0  0  0  0  0  0  0  0  0  0  0  0
    0.5975   -5.3029   21.8385 C   0  0  0  0  0  0  0  0  0  0  0  0
   -0.3855   -4.5190   22.4031 C   0  0  0  0  0  0  0  0  0  0  0  0
   -0.2835   -4.1434   23.7253 C   0  0  0  0  0  0  0  0  0  0  0  0
    0.8013   -4.5522   24.4829 C   0  0  0  0  0  0  0  0  0  0  0  0
    4.5488   -5.0641   26.4964 N   0  0  0  0  0  0  0  0  0  0  0  0
    5.6546   -5.7980   26.3543 C   0  0  0  0  0  0  0  0  0  0  0  0
    6.0951   -6.1442   25.2624 O   0  0  0  0  0  0  0  0  0  0  0  0
    6.3635   -6.1851   27.6408 C   0  0  0  0  0  0  0  0  0  0  0  0
    6.4322   -5.0698   28.5946 N   0  0  0  0  0  0  0  0  0  0  0  0
    7.2857    1.5971   22.2965 C   0  0  0  0  0  0  0  0  0  0  0  0
    7.1152    2.7932   22.0767 O   0  0  0  0  0  0  0  0  0  0  0  0
    8.3401    1.1250   22.9675 N   0  0  0  0  0  0  0  0  0  0  0  0
    9.3703    2.0079   23.4895 C   0  0  0  0  0  0  0  0  0  0  0  0
    9.6472    3.1468   22.4964 C   0  0  0  0  0  0  0  0  0  0  0  0
   10.9941    3.7981   22.6963 C   0  0  0  0  0  0  0  0  0  0  0  0
   11.9424    3.7898   21.6852 C   0  0  0  0  0  0  0  0  0  0  0  0
   13.1771    4.3902   21.8672 C   0  0  0  0  0  0  0  0  0  0  0  0
   13.4773    5.0069   23.0626 C   0  0  0  0  0  0  0  0  0  0  0  0
   12.5430    5.0236   24.0756 C   0  0  0  0  0  0  0  0  0  0  0  0
   11.3084    4.4231   23.8932 C   0  0  0  0  0  0  0  0  0  0  0  0
   10.6589    1.2367   23.7599 C   0  0  0  0  0  0  0  0  0  0  0  0
   11.1492    1.2202   24.8858 O   0  0  0  0  0  0  0  0  0  0  0  0
   11.2037    0.5980   22.7204 N   0  0  0  0  0  0  0  0  0  0  0  0
   12.4360   -0.1789   22.8302 C   0  0  0  0  0  0  0  0  0  0  0  0
   13.6200    0.7542   22.8212 C   0  0  0  0  0  0  0  0  0  0  0  0
   13.5648    1.4936   24.0347 O   0  0  0  0  0  0  0  0  0  0  0  0
   12.5015   -1.1557   21.6732 C   0  0  0  0  0  0  0  0  0  0  0  0
   13.4826   -1.3649   21.0229 O   0  0  0  0  0  0  0  0  0  0  0  0
  1  2  1  0
  2  3  1  0
  3  4  1  0
  3  5  1  0
  5  6  1  0
  6  7  1  0
  7  8  2  0
  7  9  1  0
  9 10  1  0
 10 11  1  0
 11 12  1  0
 12 13  1  0
 13 14  1  0
 14 15  1  0
 14 16  2  0
  9 17  1  0
 17 18  1  0
 18 19  2  0
 18 20  1  0
 20 21  1  0
 21 22  1  0
 22 23  2  0
 23 24  1  0
 24 25  2  0
 25 26  1  0
 26 27  2  0
 20 28  1  0
 28 29  1  0
 29 30  2  0
 29 31  1  0
 31 32  1  0
  5 33  1  0
 33 34  2  0
 33 35  1  0
 35 36  1  0
 36 37  1  0
 37 38  1  0
 38 39  2  0
 39 40  1  0
 40 41  2  0
 41 42  1  0
 42 43  2  0
 36 44  1  0
 44 45  2  0
 44 46  1  0
 46 47  1  0
 47 48  1  0
 48 49  1  0
 47 50  1  0
 50 51  2  0
 27 22  1  0
 43 38  1  0
M  END
