CVD-0001165|dock_bobby27042020.82|mol2|1|dock2
     RDKit          3D

 33 34  0  0  0  0  0  0  0  0999 V2000
    9.7079   -7.0006   25.8634 N   0  0  0  0  0  0  0  0  0  0  0  0
    8.6099   -6.3043   25.5564 C   0  0  0  0  0  0  0  0  0  0  0  0
    7.6611   -6.1850   26.4743 N   0  0  0  0  0  0  0  0  0  0  0  0
    8.5263   -5.7663   24.3428 N   0  0  0  0  0  0  0  0  0  0  0  0
    7.4168   -4.9774   23.8232 C   0  0  0  0  0  0  0  0  0  0  0  0
    7.8901   -3.7469   23.0730 C   0  0  0  0  0  0  0  0  0  0  0  0
    9.0198   -2.9816   23.7567 C   0  0  0  0  0  0  0  0  0  0  0  0
    9.5339   -1.7282   23.0384 C   0  0  0  0  0  0  0  0  0  0  0  0
    8.5493   -0.6653   23.1560 N   0  0  0  0  0  0  0  0  0  0  0  0
    8.6619    0.4745   22.4682 C   0  0  0  0  0  0  0  0  0  0  0  0
    9.5919    0.7016   21.6989 O   0  0  0  0  0  0  0  0  0  0  0  0
    7.5628    1.5119   22.6791 C   0  0  0  0  0  0  0  0  0  0  0  0
    6.2316    0.9739   22.1328 C   0  0  0  0  0  0  0  0  0  0  0  0
    6.0886    1.1410   20.6395 C   0  0  0  0  0  0  0  0  0  0  0  0
    6.9831    0.5365   19.7698 C   0  0  0  0  0  0  0  0  0  0  0  0
    6.8502    0.6870   18.3995 C   0  0  0  0  0  0  0  0  0  0  0  0
    5.8204    1.4433   17.8829 C   0  0  0  0  0  0  0  0  0  0  0  0
    4.9233    2.0487   18.7365 C   0  0  0  0  0  0  0  0  0  0  0  0
    5.0566    1.8978   20.1067 C   0  0  0  0  0  0  0  0  0  0  0  0
    7.9040    2.7654   22.0267 N   0  0  0  0  0  0  0  0  0  0  0  0
    8.2574    3.8423   22.7477 C   0  0  0  0  0  0  0  0  0  0  0  0
    8.3248    3.8777   23.9579 O   0  0  0  0  0  0  0  0  0  0  0  0
    8.5284    4.8845   21.9384 O   0  0  0  0  0  0  0  0  0  0  0  0
    8.8226    6.1432   22.6003 C   0  0  0  0  0  0  0  0  0  0  0  0
   10.0726    5.9912   23.4171 C   0  0  0  0  0  0  0  0  0  0  0  0
   11.2867    5.7142   22.8080 C   0  0  0  0  0  0  0  0  0  0  0  0
   12.4407    5.5772   23.5612 C   0  0  0  0  0  0  0  0  0  0  0  0
   12.3932    5.7165   24.9318 C   0  0  0  0  0  0  0  0  0  0  0  0
   11.1924    5.9934   25.5491 C   0  0  0  0  0  0  0  0  0  0  0  0
   10.0383    6.1303   24.7958 C   0  0  0  0  0  0  0  0  0  0  0  0
    9.8062   -1.9860   21.5646 C   0  0  0  0  0  0  0  0  0  0  0  0
   11.0835   -2.0269   21.2828 O   0  0  0  0  0  0  0  0  0  0  0  0
    8.9228   -2.1363   20.7495 O   0  0  0  0  0  0  0  0  0  0  0  0
  1  2  1  0
  2  3  2  0
  2  4  1  0
  4  5  1  0
  5  6  1  0
  6  7  1  0
  8  7  1  0
  8  9  1  0
  9 10  1  0
 10 11  2  0
 10 12  1  0
 12 13  1  0
 13 14  1  0
 14 15  2  0
 15 16  1  0
 16 17  2  0
 17 18  1  0
 18 19  2  0
 12 20  1  0
 20 21  1  0
 21 22  2  0
 21 23  1  0
 23 24  1  0
 24 25  1  0
 25 26  2  0
 26 27  1  0
 27 28  2  0
 28 29  1  0
 29 30  2  0
  8 31  1  0
 31 32  1  0
 31 33  2  0
 19 14  1  0
 30 25  1  0
M  END
