CVD-0003988|dock_bobby27042020.0|mol2|15|dock1
     RDKit          3D

 30 30  0  0  0  0  0  0  0  0999 V2000
    8.2006    5.1014   22.9974 C   0  0  0  0  0  0  0  0  0  0  0  0
    9.5197    4.6024   22.6543 N   0  0  0  0  0  0  0  0  0  0  0  0
   10.6842    5.0244   23.1682 C   0  0  0  0  0  0  0  0  0  0  0  0
   11.9127    4.5881   22.8756 C   0  0  0  0  0  0  0  0  0  0  0  0
   12.2919    3.4370   21.9783 C   0  0  0  0  0  0  0  0  0  0  0  0
   13.0475    2.3339   22.6899 C   0  0  0  0  0  0  0  0  0  0  0  0
   14.2512    2.2288   22.5905 O   0  0  0  0  0  0  0  0  0  0  0  0
   12.2426    1.3749   23.5540 C   0  0  0  0  0  0  0  0  0  0  0  0
   11.9147    0.1090   22.8234 C   0  0  0  0  0  0  0  0  0  0  0  0
   11.0000   -0.7726   23.2174 C   0  0  0  0  0  0  0  0  0  0  0  0
   10.6930   -2.2242   22.3018 S   0  0  0  0  0  0  0  0  0  0  0  0
   10.7330   -3.3559   23.1895 O   0  0  0  0  0  0  0  0  0  0  0  0
   11.5235   -2.2229   21.1270 O   0  0  0  0  0  0  0  0  0  0  0  0
    9.0382   -2.0620   21.7572 C   0  0  0  0  0  0  0  0  0  0  0  0
    8.2389   -2.8849   22.1413 O   0  0  0  0  0  0  0  0  0  0  0  0
    8.7336   -0.9253   20.8635 C   0  0  0  0  0  0  0  0  0  0  0  0
    9.5425   -0.0033   20.8207 O   0  0  0  0  0  0  0  0  0  0  0  0
    7.4576   -0.8696   20.0051 C   0  0  0  0  0  0  0  0  0  0  0  0
    6.4471   -1.4636   20.3684 O   0  0  0  0  0  0  0  0  0  0  0  0
    7.3904   -0.1175   18.7349 C   0  0  0  0  0  0  0  0  0  0  0  0
    8.3289    0.1225   18.0102 O   0  0  0  0  0  0  0  0  0  0  0  0
    5.8208    0.4746   18.2378 S   0  0  0  0  0  0  0  0  0  0  0  0
    5.9936    1.1729   16.9962 O   0  0  0  0  0  0  0  0  0  0  0  0
    4.8965   -0.6188   18.3315 O   0  0  0  0  0  0  0  0  0  0  0  0
    5.3696    1.6521   19.4507 C   0  0  0  0  0  0  0  0  0  0  0  0
    3.9097    1.9875   19.5452 C   0  0  0  0  0  0  0  0  0  0  0  0
    6.1945    2.1817   20.1595 O   0  0  0  0  0  0  0  0  0  0  0  0
   12.9765    5.3798   23.5936 C   0  0  0  0  0  0  0  0  0  0  0  0
   12.2036    6.2078   24.6131 C   0  0  0  0  0  0  0  0  0  0  0  0
   10.7227    6.0995   24.2274 C   0  0  0  0  0  0  0  0  0  0  0  0
  1  2  1  0
  2  3  1  0
  3  4  2  0
  4  5  1  0
  5  6  1  0
  6  7  2  0
  6  8  1  0
  8  9  1  0
  9 10  2  0
 10 11  1  0
 11 12  2  0
 11 13  2  0
 11 14  1  0
 14 15  2  0
 14 16  1  0
 16 17  2  0
 16 18  1  0
 18 19  2  0
 18 20  1  0
 20 21  2  0
 20 22  1  0
 22 23  2  0
 22 24  2  0
 22 25  1  0
 25 26  1  0
 25 27  2  0
  4 28  1  0
 28 29  1  0
 29 30  1  0
 30  3  1  0
M  END
