CVD-0000760|dock_bobby27042020.83|mol2|24|dock1
     RDKit          3D

 16 17  0  0  0  0  0  0  0  0999 V2000
    5.2697    0.9072   18.3928 C   0  0  0  0  0  0  0  0  0  0  0  0
    6.1413    0.2208   19.3965 C   0  0  0  0  0  0  0  0  0  0  0  0
    5.8302   -0.3328   20.5703 C   0  0  0  0  0  0  0  0  0  0  0  0
    6.9740   -0.8375   21.1277 O   0  0  0  0  0  0  0  0  0  0  0  0
    7.9328   -0.5566   20.2442 C   0  0  0  0  0  0  0  0  0  0  0  0
    9.2102   -0.9496   20.5391 N   0  0  0  0  0  0  0  0  0  0  0  0
    9.8478   -0.7502   21.7664 C   0  0  0  0  0  0  0  0  0  0  0  0
    9.2789   -0.1865   22.6966 O   0  0  0  0  0  0  0  0  0  0  0  0
   11.1292   -1.2444   21.7895 N   0  0  0  0  0  0  0  0  0  0  0  0
   12.1002   -1.2472   22.8219 C   0  0  0  0  0  0  0  0  0  0  0  0
   13.1178   -2.1917   22.7817 C   0  0  0  0  0  0  0  0  0  0  0  0
   14.0754   -2.2109   23.7802 C   0  0  0  0  0  0  0  0  0  0  0  0
   13.9889   -1.2841   24.7928 C   0  0  0  0  0  0  0  0  0  0  0  0
   13.0256   -0.3652   24.8602 N   0  0  0  0  0  0  0  0  0  0  0  0
   12.1048   -0.3542   23.8912 C   0  0  0  0  0  0  0  0  0  0  0  0
    7.5002    0.0902   19.1589 N   0  0  0  0  0  0  0  0  0  0  0  0
  1  2  1  0
  2  3  2  0
  3  4  1  0
  4  5  1  0
  5  6  1  0
  6  7  1  0
  7  8  2  0
  7  9  1  0
  9 10  1  0
 10 11  2  0
 11 12  1  0
 12 13  2  0
 13 14  1  0
 14 15  2  0
  5 16  2  0
 16  2  1  0
 15 10  1  0
M  END
