CVD-0000305|dock_bobby27042020.56|mol2|27|dock1
     RDKit          3D

 21 22  0  0  0  0  0  0  0  0999 V2000
    2.5541    4.2834   19.4565 N   0  0  0  0  0  0  0  0  0  0  0  0
    2.5027    2.9547   19.4622 C   0  0  0  0  0  0  0  0  0  0  0  0
    1.4971    2.3338   19.8356 O   0  0  0  0  0  0  0  0  0  0  0  0
    3.7261    2.2590   18.9930 C   0  0  0  0  0  0  0  0  0  0  0  0
    4.0116    1.0257   19.3645 C   0  0  0  0  0  0  0  0  0  0  0  0
    5.2220    0.2620   18.9340 C   0  0  0  0  0  0  0  0  0  0  0  0
    6.1571    0.0138   20.0441 N   0  0  0  0  0  0  0  0  0  0  0  0
    6.7016    1.2700   20.5496 C   0  0  0  0  0  0  0  0  0  0  0  0
    7.5909    1.0275   21.7568 C   0  0  0  0  0  0  0  0  0  0  0  0
    8.7425    0.1057   21.3629 C   0  0  0  0  0  0  0  0  0  0  0  0
    8.1894   -1.1804   20.7672 C   0  0  0  0  0  0  0  0  0  0  0  0
    7.2674   -0.8394   19.6069 C   0  0  0  0  0  0  0  0  0  0  0  0
    9.7096   -0.1400   22.5045 C   0  0  0  0  0  0  0  0  0  0  0  0
    9.4442    0.1899   23.6567 O   0  0  0  0  0  0  0  0  0  0  0  0
   10.8556   -0.7474   22.1074 N   0  0  0  0  0  0  0  0  0  0  0  0
   12.0018   -1.1538   22.8358 C   0  0  0  0  0  0  0  0  0  0  0  0
   12.4143   -0.5456   24.0194 C   0  0  0  0  0  0  0  0  0  0  0  0
   13.5465   -0.9984   24.6767 C   0  0  0  0  0  0  0  0  0  0  0  0
   14.2763   -2.0514   24.1707 C   0  0  0  0  0  0  0  0  0  0  0  0
   13.8767   -2.6591   23.0011 C   0  0  0  0  0  0  0  0  0  0  0  0
   12.7468   -2.2155   22.3350 C   0  0  0  0  0  0  0  0  0  0  0  0
  1  2  1  0
  2  3  2  0
  2  4  1  0
  4  5  2  0
  5  6  1  0
  6  7  1  0
  7  8  1  0
  8  9  1  0
  9 10  1  0
 10 11  1  0
 11 12  1  0
 10 13  1  0
 13 14  2  0
 13 15  1  0
 15 16  1  0
 16 17  2  0
 17 18  1  0
 18 19  2  0
 19 20  1  0
 20 21  2  0
 12  7  1  0
 21 16  1  0
M  END
