CVD-0003417|dock_bobby27042020.45|mol2|23|dock3
     RDKit          3D

 20 22  0  0  0  0  0  0  0  0999 V2000
    8.8438   -2.1616   17.6717 Cl  0  0  0  0  0  0  0  0  0  0  0  0
    7.5597   -1.2450   18.3938 C   0  0  0  0  0  0  0  0  0  0  0  0
    6.4682   -1.1500   17.6577 N   0  0  0  0  0  0  0  0  0  0  0  0
    5.4330   -0.4664   18.1523 C   0  0  0  0  0  0  0  0  0  0  0  0
    5.4990    0.1645   19.3856 C   0  0  0  0  0  0  0  0  0  0  0  0
    4.6286    0.9336   20.1184 N   0  0  0  0  0  0  0  0  0  0  0  0
    5.2798    1.2937   21.2405 C   0  0  0  0  0  0  0  0  0  0  0  0
    6.5043    0.8193   21.3159 N   0  0  0  0  0  0  0  0  0  0  0  0
    6.6654    0.0759   20.1547 C   0  0  0  0  0  0  0  0  0  0  0  0
    7.7440   -0.6927   19.6499 C   0  0  0  0  0  0  0  0  0  0  0  0
    8.9684   -0.8880   20.3792 N   0  0  0  0  0  0  0  0  0  0  0  0
    9.1693   -0.6704   21.7210 C   0  0  0  0  0  0  0  0  0  0  0  0
    8.3382   -0.2713   22.5304 O   0  0  0  0  0  0  0  0  0  0  0  0
   10.4568   -0.9753   22.0765 N   0  0  0  0  0  0  0  0  0  0  0  0
   11.6433   -1.1750   22.8230 C   0  0  0  0  0  0  0  0  0  0  0  0
   12.0405   -0.3070   23.8400 C   0  0  0  0  0  0  0  0  0  0  0  0
   13.2120   -0.5520   24.5378 C   0  0  0  0  0  0  0  0  0  0  0  0
   13.9917   -1.6476   24.2370 C   0  0  0  0  0  0  0  0  0  0  0  0
   13.6050   -2.5086   23.2338 C   0  0  0  0  0  0  0  0  0  0  0  0
   12.4369   -2.2772   22.5275 C   0  0  0  0  0  0  0  0  0  0  0  0
  1  2  1  0
  2  3  2  0
  3  4  1  0
  4  5  2  0
  5  6  1  0
  6  7  1  0
  7  8  2  0
  8  9  1  0
  9 10  2  0
 10 11  1  0
 11 12  1  0
 12 13  2  0
 12 14  1  0
 14 15  1  0
 15 16  2  0
 16 17  1  0
 17 18  2  0
 18 19  1  0
 19 20  2  0
 10  2  1  0
 20 15  1  0
  9  5  1  0
M  END
