CVD-0000425|dock_bobby27042020.56|mol2|9|dock1
     RDKit          3D

 25 28  0  0  0  0  0  0  0  0999 V2000
    5.2287    1.6792   19.8140 C   0  0  0  0  0  0  0  0  0  0  0  0
    5.4803    0.3703   19.0808 C   0  0  0  0  0  0  0  0  0  0  0  0
    6.7271   -0.3397   19.5495 C   0  0  0  0  0  0  0  0  0  0  0  0
    7.8491   -0.5825   18.8113 C   0  0  0  0  0  0  0  0  0  0  0  0
    8.7821   -1.2492   19.5580 N   0  0  0  0  0  0  0  0  0  0  0  0
    8.2669   -1.4514   20.8139 C   0  0  0  0  0  0  0  0  0  0  0  0
    8.8167   -2.0779   21.9352 C   0  0  0  0  0  0  0  0  0  0  0  0
   10.1064   -2.5823   21.7657 O   0  0  0  0  0  0  0  0  0  0  0  0
   11.2286   -1.8142   21.9092 C   0  0  0  0  0  0  0  0  0  0  0  0
   11.1474   -0.6595   22.6703 C   0  0  0  0  0  0  0  0  0  0  0  0
   12.2835    0.1225   22.8266 C   0  0  0  0  0  0  0  0  0  0  0  0
   12.2449    1.3905   23.6491 C   0  0  0  0  0  0  0  0  0  0  0  0
   12.6715    2.6164   22.8843 C   0  0  0  0  0  0  0  0  0  0  0  0
   11.9376    3.5404   22.2026 C   0  0  0  0  0  0  0  0  0  0  0  0
   12.8480    4.4579   21.6891 C   0  0  0  0  0  0  0  0  0  0  0  0
   14.0913    4.1375   22.0240 N   0  0  0  0  0  0  0  0  0  0  0  0
   13.9564    2.9975   22.7613 N   0  0  0  0  0  0  0  0  0  0  0  0
   13.4487   -0.3001   22.2109 C   0  0  0  0  0  0  0  0  0  0  0  0
   13.4255   -1.4677   21.4761 C   0  0  0  0  0  0  0  0  0  0  0  0
   12.3345   -2.2291   21.3181 N   0  0  0  0  0  0  0  0  0  0  0  0
    8.0852   -2.1527   23.1107 C   0  0  0  0  0  0  0  0  0  0  0  0
    6.8260   -1.5977   23.1119 C   0  0  0  0  0  0  0  0  0  0  0  0
    6.1048   -1.6710   24.2631 F   0  0  0  0  0  0  0  0  0  0  0  0
    6.2442   -0.9741   22.0329 C   0  0  0  0  0  0  0  0  0  0  0  0
    6.9767   -0.8939   20.8501 C   0  0  0  0  0  0  0  0  0  0  0  0
  1  2  1  0
  2  3  1  0
  3  4  2  0
  4  5  1  0
  5  6  1  0
  6  7  2  0
  7  8  1  0
  8  9  1  0
  9 10  2  0
 10 11  1  0
 11 12  1  0
 12 13  1  0
 13 14  2  0
 14 15  1  0
 15 16  2  0
 16 17  1  0
 11 18  2  0
 18 19  1  0
 19 20  2  0
  7 21  1  0
 21 22  2  0
 22 23  1  0
 22 24  1  0
 24 25  2  0
 25  3  1  0
 25  6  1  0
 20  9  1  0
 17 13  1  0
M  END
