CVD-0003509|dock_bobby27042020.30|mol2|39|dock2
     RDKit          3D

 24 26  0  0  0  0  0  0  0  0999 V2000
   13.6766   -1.5042   21.8823 C   0  0  0  0  0  0  0  0  0  0  0  0
   12.6273   -1.1751   22.9160 C   0  0  0  0  0  0  0  0  0  0  0  0
   12.6648    0.0247   23.6089 C   0  0  0  0  0  0  0  0  0  0  0  0
   11.7024    0.3220   24.5586 C   0  0  0  0  0  0  0  0  0  0  0  0
   10.6902   -0.5835   24.8248 C   0  0  0  0  0  0  0  0  0  0  0  0
   10.6285   -1.7946   24.1475 C   0  0  0  0  0  0  0  0  0  0  0  0
   11.6058   -2.0702   23.1981 C   0  0  0  0  0  0  0  0  0  0  0  0
    9.5152   -2.8037   24.4282 C   0  0  0  0  0  0  0  0  0  0  0  0
    9.1394   -2.8712   25.9284 C   0  0  0  0  0  0  0  0  0  0  0  0
    9.8062   -4.2655   26.0304 C   0  0  0  0  0  0  0  0  0  0  0  0
   10.0423   -4.2674   24.4964 C   0  0  0  0  0  0  0  0  0  0  0  0
    8.9634   -5.4175   26.5492 C   0  0  0  0  0  0  0  0  0  0  0  0
    9.4203   -6.6348   26.3029 N   0  0  0  0  0  0  0  0  0  0  0  0
    7.9149   -5.2088   27.1636 O   0  0  0  0  0  0  0  0  0  0  0  0
    8.3242   -2.6464   23.5402 N   0  0  0  0  0  0  0  0  0  0  0  0
    8.6895   -2.8163   22.1243 C   0  0  0  0  0  0  0  0  0  0  0  0
    7.4747   -2.7045   21.2403 C   0  0  0  0  0  0  0  0  0  0  0  0
    6.7959   -1.4224   21.4528 N   0  0  0  0  0  0  0  0  0  0  0  0
    6.4780   -1.1838   22.8593 C   0  0  0  0  0  0  0  0  0  0  0  0
    7.7306   -1.3171   23.6923 C   0  0  0  0  0  0  0  0  0  0  0  0
    6.3514   -0.5829   20.4885 C   0  0  0  0  0  0  0  0  0  0  0  0
    5.8005    0.4746   20.7679 O   0  0  0  0  0  0  0  0  0  0  0  0
    6.5425   -0.9827   19.0378 C   0  0  0  0  0  0  0  0  0  0  0  0
    5.7073   -2.4976   18.6713 Cl  0  0  0  0  0  0  0  0  0  0  0  0
  1  2  1  0
  2  3  2  0
  3  4  1  0
  4  5  2  0
  5  6  1  0
  6  7  2  0
  6  8  1  0
  8  9  1  0
  9 10  1  0
 10 11  1  0
 10 12  1  0
 12 13  1  0
 12 14  2  0
  8 15  1  0
 15 16  1  0
 16 17  1  0
 17 18  1  0
 18 19  1  0
 19 20  1  0
 18 21  1  0
 21 22  2  0
 21 23  1  0
 23 24  1  0
  7  2  1  0
 11  8  1  0
 20 15  1  0
M  END
