CVD-0001845|dock_bobby27042020.22|mol2|32|dock3
     RDKit          3D

 30 33  0  0  0  0  0  0  0  0999 V2000
   10.3665   -2.1346   21.3390 C   0  0  0  0  0  0  0  0  0  0  0  0
   11.8504   -2.0346   21.5016 C   0  0  0  0  0  0  0  0  0  0  0  0
   12.5509   -2.2219   20.5216 O   0  0  0  0  0  0  0  0  0  0  0  0
   12.4407   -1.6929   22.8266 C   0  0  0  0  0  0  0  0  0  0  0  0
   13.7147   -2.1766   23.1358 C   0  0  0  0  0  0  0  0  0  0  0  0
   14.2655   -1.8920   24.3685 C   0  0  0  0  0  0  0  0  0  0  0  0
   13.6562   -1.1756   25.3106 N   0  0  0  0  0  0  0  0  0  0  0  0
   12.4445   -0.6940   25.0245 C   0  0  0  0  0  0  0  0  0  0  0  0
   11.8050   -0.9093   23.8127 C   0  0  0  0  0  0  0  0  0  0  0  0
   10.5019   -0.3176   23.6088 N   0  0  0  0  0  0  0  0  0  0  0  0
    9.4331   -1.1509   24.0169 C   0  0  0  0  0  0  0  0  0  0  0  0
    8.2881   -0.8086   23.7497 O   0  0  0  0  0  0  0  0  0  0  0  0
    9.6580   -2.4450   24.7647 C   0  0  0  0  0  0  0  0  0  0  0  0
    8.4989   -3.4332   24.6573 C   0  0  0  0  0  0  0  0  0  0  0  0
    8.7257   -4.7197   25.4537 C   0  0  0  0  0  0  0  0  0  0  0  0
    8.7562   -4.5246   26.9720 C   0  0  0  0  0  0  0  0  0  0  0  0
    8.0668   -5.7569   27.5597 C   0  0  0  0  0  0  0  0  0  0  0  0
    7.3752   -5.5237   28.7560 F   0  0  0  0  0  0  0  0  0  0  0  0
    7.1545   -6.1845   26.4217 C   0  0  0  0  0  0  0  0  0  0  0  0
    6.2292   -6.9870   26.5114 O   0  0  0  0  0  0  0  0  0  0  0  0
    7.5724   -5.5970   25.2990 N   0  0  0  0  0  0  0  0  0  0  0  0
   10.4377    1.0090   23.0320 C   0  0  0  0  0  0  0  0  0  0  0  0
    9.3684    1.7022   22.5926 C   0  0  0  0  0  0  0  0  0  0  0  0
    9.7468    2.9239   22.1066 N   0  0  0  0  0  0  0  0  0  0  0  0
   11.0964    3.0496   22.2213 C   0  0  0  0  0  0  0  0  0  0  0  0
   11.8428    4.0997   21.8399 N   0  0  0  0  0  0  0  0  0  0  0  0
   13.1476    3.9641   22.0807 C   0  0  0  0  0  0  0  0  0  0  0  0
   13.7634    2.9329   22.6503 N   0  0  0  0  0  0  0  0  0  0  0  0
   12.9819    1.9133   23.0198 C   0  0  0  0  0  0  0  0  0  0  0  0
   11.5987    1.8812   22.8184 C   0  0  0  0  0  0  0  0  0  0  0  0
  1  2  1  0
  2  3  2  0
  2  4  1  0
  4  5  2  0
  5  6  1  0
  6  7  2  0
  7  8  1  0
  8  9  2  0
  9 10  1  0
 10 11  1  0
 11 12  2  0
 11 13  1  0
 13 14  1  0
 14 15  1  0
 15 16  1  0
 16 17  1  0
 17 18  1  0
 17 19  1  0
 19 20  2  0
 19 21  1  0
 10 22  1  0
 22 23  2  0
 23 24  1  0
 24 25  1  0
 25 26  2  0
 26 27  1  0
 27 28  2  0
 28 29  1  0
 29 30  2  0
  9  4  1  0
 21 15  1  0
 30 22  1  0
 30 25  1  0
M  END
