CVD-0002621|dock_bobby27042020.48|mol2|3|dock3
     RDKit          3D

 30 33  0  0  0  0  0  0  0  0999 V2000
    5.5806   -6.3938   26.9320 C   0  0  0  0  0  0  0  0  0  0  0  0
    6.9835   -6.3930   27.3105 N   0  0  0  0  0  0  0  0  0  0  0  0
    7.3053   -6.9415   28.6169 C   0  0  0  0  0  0  0  0  0  0  0  0
    7.9152   -5.7821   26.5554 C   0  0  0  0  0  0  0  0  0  0  0  0
    9.1675   -5.8086   27.0282 N   0  0  0  0  0  0  0  0  0  0  0  0
   10.0783   -5.2138   26.2924 C   0  0  0  0  0  0  0  0  0  0  0  0
    9.7849   -4.5746   25.0678 C   0  0  0  0  0  0  0  0  0  0  0  0
   10.7387   -3.9260   24.2529 C   0  0  0  0  0  0  0  0  0  0  0  0
   10.3514   -3.3358   23.0846 C   0  0  0  0  0  0  0  0  0  0  0  0
   11.2394   -2.6838   22.2285 O   0  0  0  0  0  0  0  0  0  0  0  0
   11.9212   -1.5198   22.5898 C   0  0  0  0  0  0  0  0  0  0  0  0
   13.0787   -1.1320   21.9359 C   0  0  0  0  0  0  0  0  0  0  0  0
   13.7243    0.0262   22.3324 C   0  0  0  0  0  0  0  0  0  0  0  0
   13.2166    0.7846   23.3732 C   0  0  0  0  0  0  0  0  0  0  0  0
   12.0611    0.4007   24.0353 C   0  0  0  0  0  0  0  0  0  0  0  0
   11.5099    1.2319   25.1681 C   0  0  0  0  0  0  0  0  0  0  0  0
   11.4166   -0.7602   23.6334 C   0  0  0  0  0  0  0  0  0  0  0  0
    9.0071   -3.3672   22.6724 C   0  0  0  0  0  0  0  0  0  0  0  0
    8.7833   -2.7325   21.4739 O   0  0  0  0  0  0  0  0  0  0  0  0
    7.4778   -2.7990   20.9320 C   0  0  0  0  0  0  0  0  0  0  0  0
    7.3446   -2.0228   19.7227 N   0  0  0  0  0  0  0  0  0  0  0  0
    7.6849   -0.6158   19.9654 C   0  0  0  0  0  0  0  0  0  0  0  0
    7.6046    0.2099   18.6965 C   0  0  0  0  0  0  0  0  0  0  0  0
    6.2388    0.1267   18.0258 C   0  0  0  0  0  0  0  0  0  0  0  0
    6.1739    0.7921   16.7615 O   0  0  0  0  0  0  0  0  0  0  0  0
    5.8645   -1.3438   17.8774 C   0  0  0  0  0  0  0  0  0  0  0  0
    5.9834   -2.1059   19.1867 C   0  0  0  0  0  0  0  0  0  0  0  0
    8.0654   -3.9873   23.4450 C   0  0  0  0  0  0  0  0  0  0  0  0
    8.4326   -4.6066   24.6617 C   0  0  0  0  0  0  0  0  0  0  0  0
    7.4787   -5.2255   25.4261 N   0  0  0  0  0  0  0  0  0  0  0  0
  1  2  1  0
  2  3  1  0
  2  4  1  0
  4  5  2  0
  5  6  1  0
  6  7  2  0
  7  8  1  0
  8  9  2  0
  9 10  1  0
 10 11  1  0
 11 12  2  0
 12 13  1  0
 13 14  2  0
 14 15  1  0
 15 16  1  0
 15 17  2  0
  9 18  1  0
 18 19  1  0
 19 20  1  0
 20 21  1  0
 21 22  1  0
 22 23  1  0
 23 24  1  0
 24 25  1  0
 24 26  1  0
 26 27  1  0
 18 28  2  0
 28 29  1  0
 29 30  2  0
 30  4  1  0
 29  7  1  0
 17 11  1  0
 27 21  1  0
M  END
