CVD-0000066|dock_bobby27042020.14|mol2|18|dock1
     RDKit          3D

 28 30  0  0  0  0  0  0  0  0999 V2000
    5.1306   -0.4519   18.8750 N   0  0  0  0  0  0  0  0  0  0  0  0
    6.3270   -1.3595   18.3204 S   0  0  0  0  0  0  0  0  0  0  0  0
    7.1092   -0.5416   17.4428 O   0  0  0  0  0  0  0  0  0  0  0  0
    5.7447   -2.5642   17.8098 O   0  0  0  0  0  0  0  0  0  0  0  0
    7.3656   -1.8130   19.6830 C   0  0  0  0  0  0  0  0  0  0  0  0
    8.2793   -0.8799   20.1515 C   0  0  0  0  0  0  0  0  0  0  0  0
    9.1317   -1.1940   21.1995 C   0  0  0  0  0  0  0  0  0  0  0  0
    9.1001   -2.4555   21.8175 C   0  0  0  0  0  0  0  0  0  0  0  0
    9.9184   -2.7923   22.8580 N   0  0  0  0  0  0  0  0  0  0  0  0
   11.0222   -1.9444   23.2485 C   0  0  0  0  0  0  0  0  0  0  0  0
   10.6449   -0.5376   23.2548 N   0  0  0  0  0  0  0  0  0  0  0  0
   10.5333    0.2680   24.4864 C   0  0  0  0  0  0  0  0  0  0  0  0
   11.8916    0.5849   25.0880 C   0  0  0  0  0  0  0  0  0  0  0  0
   12.6957    1.5199   24.2180 C   0  0  0  0  0  0  0  0  0  0  0  0
   13.5709    1.0907   23.4738 O   0  0  0  0  0  0  0  0  0  0  0  0
   12.3464    2.8219   24.3566 N   0  0  0  0  0  0  0  0  0  0  0  0
   12.8419    3.9962   23.7369 C   0  0  0  0  0  0  0  0  0  0  0  0
   13.3665    3.9085   22.4539 C   0  0  0  0  0  0  0  0  0  0  0  0
   13.8547    5.0453   21.8342 C   0  0  0  0  0  0  0  0  0  0  0  0
   13.8047    6.2392   22.5154 C   0  0  0  0  0  0  0  0  0  0  0  0
   13.3078    6.3564   23.7468 N   0  0  0  0  0  0  0  0  0  0  0  0
   12.8385    5.2531   24.3377 C   0  0  0  0  0  0  0  0  0  0  0  0
   10.2715    0.0080   21.7683 S   0  0  0  0  0  0  0  0  0  0  0  0
    9.6032    1.2623   21.9230 O   0  0  0  0  0  0  0  0  0  0  0  0
   11.4598   -0.0557   20.9756 O   0  0  0  0  0  0  0  0  0  0  0  0
    8.1813   -3.3859   21.3423 C   0  0  0  0  0  0  0  0  0  0  0  0
    7.3319   -3.0695   20.2963 C   0  0  0  0  0  0  0  0  0  0  0  0
    6.1915   -4.2714   19.7865 Cl  0  0  0  0  0  0  0  0  0  0  0  0
  1  2  1  0
  2  3  2  0
  2  4  2  0
  2  5  1  0
  5  6  2  0
  6  7  1  0
  7  8  2  0
  8  9  1  0
  9 10  1  0
 10 11  1  0
 11 12  1  0
 12 13  1  0
 13 14  1  0
 14 15  2  0
 14 16  1  0
 16 17  1  0
 17 18  2  0
 18 19  1  0
 19 20  2  0
 20 21  1  0
 21 22  2  0
 11 23  1  0
 23 24  2  0
 23 25  2  0
  8 26  1  0
 26 27  2  0
 27 28  1  0
 27  5  1  0
 23  7  1  0
 22 17  1  0
M  END
