CVD-0000268|dock_bobby27042020.85|mol2|4|dock1
     RDKit          3D

 26 28  0  0  0  0  0  0  0  0999 V2000
    3.3385    2.0998   19.9806 C   0  0  0  0  0  0  0  0  0  0  0  0
    4.4478    1.5357   19.2213 N   0  0  0  0  0  0  0  0  0  0  0  0
    5.5908    1.0245   19.6938 C   0  0  0  0  0  0  0  0  0  0  0  0
    6.3032    0.6625   18.5896 C   0  0  0  0  0  0  0  0  0  0  0  0
    7.6533    0.0310   18.4765 C   0  0  0  0  0  0  0  0  0  0  0  0
    8.0954   -0.5512   19.7252 N   0  0  0  0  0  0  0  0  0  0  0  0
    8.7374    0.1988   20.6404 C   0  0  0  0  0  0  0  0  0  0  0  0
    8.9700    1.3824   20.4266 O   0  0  0  0  0  0  0  0  0  0  0  0
    9.1364   -0.3565   21.8203 N   0  0  0  0  0  0  0  0  0  0  0  0
    8.8865   -1.7622   22.1660 C   0  0  0  0  0  0  0  0  0  0  0  0
    7.4249   -2.0316   22.4991 C   0  0  0  0  0  0  0  0  0  0  0  0
    7.0898   -3.5018   22.4250 C   0  0  0  0  0  0  0  0  0  0  0  0
    7.3981   -4.3537   23.4744 C   0  0  0  0  0  0  0  0  0  0  0  0
    7.0937   -5.7030   23.4056 C   0  0  0  0  0  0  0  0  0  0  0  0
    6.4778   -6.2174   22.2851 C   0  0  0  0  0  0  0  0  0  0  0  0
    6.1668   -5.3822   21.2338 C   0  0  0  0  0  0  0  0  0  0  0  0
    6.4716   -4.0331   21.3036 C   0  0  0  0  0  0  0  0  0  0  0  0
    9.8314    0.4248   22.8454 C   0  0  0  0  0  0  0  0  0  0  0  0
   11.2424   -0.0498   23.0974 C   0  0  0  0  0  0  0  0  0  0  0  0
   11.9102   -0.8458   22.1819 C   0  0  0  0  0  0  0  0  0  0  0  0
   13.2019   -1.2651   22.4479 C   0  0  0  0  0  0  0  0  0  0  0  0
   13.7874   -0.8723   23.6299 C   0  0  0  0  0  0  0  0  0  0  0  0
   13.1696   -0.1074   24.5314 N   0  0  0  0  0  0  0  0  0  0  0  0
   11.9228    0.2851   24.2530 C   0  0  0  0  0  0  0  0  0  0  0  0
    5.5692    0.9760   17.4910 N   0  0  0  0  0  0  0  0  0  0  0  0
    4.4372    1.5218   17.8756 N   0  0  0  0  0  0  0  0  0  0  0  0
  1  2  1  0
  2  3  1  0
  3  4  2  0
  4  5  1  0
  5  6  1  0
  6  7  1  0
  7  8  2  0
  7  9  1  0
  9 10  1  0
 10 11  1  0
 11 12  1  0
 12 13  2  0
 13 14  1  0
 14 15  2  0
 15 16  1  0
 16 17  2  0
  9 18  1  0
 18 19  1  0
 19 20  2  0
 20 21  1  0
 21 22  2  0
 22 23  1  0
 23 24  2  0
  4 25  1  0
 25 26  2  0
 26  2  1  0
 17 12  1  0
 24 19  1  0
M  END
