CVD-0002182|dock_bobby27042020.7|mol2|7|dock2
     RDKit          3D

 22 22  0  0  0  0  0  0  0  0999 V2000
    6.3788    1.3205   21.2611 C   0  0  0  0  0  0  0  0  0  0  0  0
    6.1516    0.6112   19.9507 C   0  0  0  0  0  0  0  0  0  0  0  0
    5.7396    1.3612   18.8533 C   0  0  0  0  0  0  0  0  0  0  0  0
    5.5213    0.7404   17.6438 C   0  0  0  0  0  0  0  0  0  0  0  0
    5.6845   -0.5662   17.4588 N   0  0  0  0  0  0  0  0  0  0  0  0
    6.0790   -1.2975   18.5059 C   0  0  0  0  0  0  0  0  0  0  0  0
    6.3290   -0.7749   19.7752 C   0  0  0  0  0  0  0  0  0  0  0  0
    6.7483   -1.5511   20.8918 N   0  0  0  0  0  0  0  0  0  0  0  0
    6.5683   -2.8672   21.1638 C   0  0  0  0  0  0  0  0  0  0  0  0
    5.9772   -3.6760   20.4566 O   0  0  0  0  0  0  0  0  0  0  0  0
    7.1816   -3.2950   22.4748 C   0  0  0  0  0  0  0  0  0  0  0  0
    8.6956   -3.2775   22.4476 C   0  0  0  0  0  0  0  0  0  0  0  0
    9.3899   -1.7305   23.0851 S   0  0  0  0  0  0  0  0  0  0  0  0
   11.0954   -2.2095   23.4537 C   0  0  0  0  0  0  0  0  0  0  0  0
   12.0772   -1.1220   23.0915 C   0  0  0  0  0  0  0  0  0  0  0  0
   11.8458    0.0528   23.8796 N   0  0  0  0  0  0  0  0  0  0  0  0
   12.3427    1.2334   23.5241 C   0  0  0  0  0  0  0  0  0  0  0  0
   13.0232    1.4413   22.5285 O   0  0  0  0  0  0  0  0  0  0  0  0
   13.7893   -1.6640   23.3433 S   0  0  0  0  0  0  0  0  0  0  0  0
   13.9978   -1.7867   25.0820 C   0  0  0  0  0  0  0  0  0  0  0  0
   14.6542   -0.6284   22.8468 O   0  0  0  0  0  0  0  0  0  0  0  0
   13.9227   -2.9753   22.7689 O   0  0  0  0  0  0  0  0  0  0  0  0
  1  2  1  0
  2  3  2  0
  3  4  1  0
  4  5  2  0
  5  6  1  0
  6  7  2  0
  7  8  1  0
  8  9  1  0
  9 10  2  0
  9 11  1  0
 11 12  1  0
 12 13  1  0
 13 14  1  0
 14 15  1  0
 15 16  1  0
 16 17  1  0
 17 18  2  0
 15 19  1  0
 19 20  1  0
 19 21  2  0
 19 22  2  0
  7  2  1  0
M  END
