CVD-0003822|dock_bobby27042020.15|mol2|24|dock2
     RDKit          3D

 21 22  0  0  0  0  0  0  0  0999 V2000
    5.3865   -4.2611   23.4762 C   0  0  0  0  0  0  0  0  0  0  0  0
    6.8179   -4.3943   22.9828 C   0  0  0  0  0  0  0  0  0  0  0  0
    7.2237   -5.8559   22.8914 C   0  0  0  0  0  0  0  0  0  0  0  0
    7.7472   -3.6207   23.8520 N   0  0  0  0  0  0  0  0  0  0  0  0
    8.1098   -4.3283   25.0840 C   0  0  0  0  0  0  0  0  0  0  0  0
    8.8830   -2.9878   23.1368 C   0  0  0  0  0  0  0  0  0  0  0  0
   10.0042   -2.6385   24.0646 C   0  0  0  0  0  0  0  0  0  0  0  0
   11.1456   -1.9132   23.3708 C   0  0  0  0  0  0  0  0  0  0  0  0
   10.6379   -0.7644   22.6370 N   0  0  0  0  0  0  0  0  0  0  0  0
    9.5890   -1.0710   21.6721 C   0  0  0  0  0  0  0  0  0  0  0  0
    8.4232   -1.7463   22.3890 C   0  0  0  0  0  0  0  0  0  0  0  0
   11.2638    0.4739   22.6838 C   0  0  0  0  0  0  0  0  0  0  0  0
   10.5222    1.6498   22.7462 C   0  0  0  0  0  0  0  0  0  0  0  0
   11.1427    2.8853   22.7975 C   0  0  0  0  0  0  0  0  0  0  0  0
   12.5242    2.9586   22.7793 C   0  0  0  0  0  0  0  0  0  0  0  0
   13.2824    1.8032   22.7151 C   0  0  0  0  0  0  0  0  0  0  0  0
   12.6518    0.5725   22.6689 C   0  0  0  0  0  0  0  0  0  0  0  0
   13.3232    4.5332   22.8487 S   0  0  0  0  0  0  0  0  0  0  0  0
   12.9231    5.3633   21.5396 N   0  0  0  0  0  0  0  0  0  0  0  0
   12.7871    5.2357   23.9758 O   0  0  0  0  0  0  0  0  0  0  0  0
   14.7349    4.2996   22.7869 O   0  0  0  0  0  0  0  0  0  0  0  0
  1  2  1  0
  2  3  1  0
  2  4  1  0
  4  5  1  0
  4  6  1  0
  6  7  1  0
  7  8  1  0
  8  9  1  0
  9 10  1  0
 10 11  1  0
  9 12  1  0
 12 13  2  0
 13 14  1  0
 14 15  2  0
 15 16  1  0
 16 17  2  0
 15 18  1  0
 18 19  1  0
 18 20  2  0
 18 21  2  0
 11  6  1  0
 17 12  1  0
M  END
