CVD-0003236|dock_bobby27042020.46|mol2|1|dock1
     RDKit          3D

 35 39  0  0  0  0  0  0  0  0999 V2000
   14.9779   -1.3093   24.6660 F   0  0  0  0  0  0  0  0  0  0  0  0
   13.8891   -1.1070   23.9060 C   0  0  0  0  0  0  0  0  0  0  0  0
   12.9262   -0.2020   24.0960 C   0  0  0  0  0  0  0  0  0  0  0  0
   11.9469   -0.2957   23.0846 C   0  0  0  0  0  0  0  0  0  0  0  0
   10.7202    0.5778   23.0041 C   0  0  0  0  0  0  0  0  0  0  0  0
    9.5255   -0.1126   22.5131 N   0  0  0  0  0  0  0  0  0  0  0  0
    8.9843    0.2792   21.3140 C   0  0  0  0  0  0  0  0  0  0  0  0
    9.4539    1.1830   20.6343 O   0  0  0  0  0  0  0  0  0  0  0  0
    7.7491   -0.4314   20.7558 C   0  0  0  0  0  0  0  0  0  0  0  0
    7.2360    0.1931   19.5516 N   0  0  0  0  0  0  0  0  0  0  0  0
    7.9375    0.1247   18.3899 N   0  0  0  0  0  0  0  0  0  0  0  0
    7.2916    0.7772   17.4658 N   0  0  0  0  0  0  0  0  0  0  0  0
    6.1502    1.3018   18.0301 C   0  0  0  0  0  0  0  0  0  0  0  0
    5.1244    2.0796   17.4950 C   0  0  0  0  0  0  0  0  0  0  0  0
    4.0830    2.4705   18.3224 C   0  0  0  0  0  0  0  0  0  0  0  0
    4.0522    2.1018   19.6531 C   0  0  0  0  0  0  0  0  0  0  0  0
    5.0618    1.3277   20.2030 C   0  0  0  0  0  0  0  0  0  0  0  0
    6.1058    0.9344   19.3742 C   0  0  0  0  0  0  0  0  0  0  0  0
    8.9814   -1.1387   23.3698 C   0  0  0  0  0  0  0  0  0  0  0  0
    8.3909   -0.8489   24.5956 C   0  0  0  0  0  0  0  0  0  0  0  0
    7.9006   -1.8546   25.4087 C   0  0  0  0  0  0  0  0  0  0  0  0
    7.9590   -3.1864   25.0211 C   0  0  0  0  0  0  0  0  0  0  0  0
    7.4330   -4.1546   25.9154 N   0  0  0  0  0  0  0  0  0  0  0  0
    6.9680   -5.4153   25.6885 C   0  0  0  0  0  0  0  0  0  0  0  0
    6.9463   -5.9421   24.5812 O   0  0  0  0  0  0  0  0  0  0  0  0
    6.4473   -6.2250   26.8467 C   0  0  0  0  0  0  0  0  0  0  0  0
    5.3110   -7.0041   26.6445 C   0  0  0  0  0  0  0  0  0  0  0  0
    4.7782   -7.7731   27.6652 C   0  0  0  0  0  0  0  0  0  0  0  0
    5.3688   -7.7802   28.9088 C   0  0  0  0  0  0  0  0  0  0  0  0
    6.4933   -7.0170   29.1309 C   0  0  0  0  0  0  0  0  0  0  0  0
    7.0313   -6.2454   28.1140 C   0  0  0  0  0  0  0  0  0  0  0  0
    8.5269   -3.4804   23.7849 C   0  0  0  0  0  0  0  0  0  0  0  0
    9.0290   -2.4734   22.9791 C   0  0  0  0  0  0  0  0  0  0  0  0
   12.2296   -1.2799   22.1803 C   0  0  0  0  0  0  0  0  0  0  0  0
   13.6848   -2.1218   22.5134 S   0  0  0  0  0  0  0  0  0  0  0  0
  1  2  1  0
  2  3  2  0
  3  4  1  0
  4  5  1  0
  5  6  1  0
  6  7  1  0
  7  8  2  0
  7  9  1  0
  9 10  1  0
 10 11  1  0
 11 12  2  0
 12 13  1  0
 13 14  2  0
 14 15  1  0
 15 16  2  0
 16 17  1  0
 17 18  2  0
  6 19  1  0
 19 20  2  0
 20 21  1  0
 21 22  2  0
 22 23  1  0
 23 24  1  0
 24 25  2  0
 24 26  1  0
 26 27  2  0
 27 28  1  0
 28 29  2  0
 29 30  1  0
 30 31  2  0
 22 32  1  0
 32 33  2  0
  4 34  2  0
 34 35  1  0
 35  2  1  0
 18 10  1  0
 33 19  1  0
 18 13  1  0
 31 26  1  0
M  END
