CVD-0002398|dock_bobby27042020.63|mol2|26|dock3
     RDKit          3D

 26 29  0  0  0  0  0  0  0  0999 V2000
    6.6629   -6.6198   23.0205 F   0  0  0  0  0  0  0  0  0  0  0  0
    7.2284   -5.4158   22.7741 C   0  0  0  0  0  0  0  0  0  0  0  0
    6.6506   -4.5803   21.8558 C   0  0  0  0  0  0  0  0  0  0  0  0
    7.2320   -3.3410   21.5900 C   0  0  0  0  0  0  0  0  0  0  0  0
    8.4161   -2.9707   22.2449 C   0  0  0  0  0  0  0  0  0  0  0  0
    8.9663   -3.8264   23.1983 C   0  0  0  0  0  0  0  0  0  0  0  0
    8.3735   -5.0490   23.4510 C   0  0  0  0  0  0  0  0  0  0  0  0
    9.0809   -6.1123   24.6227 Cl  0  0  0  0  0  0  0  0  0  0  0  0
    8.9976   -1.7226   21.9082 N   0  0  0  0  0  0  0  0  0  0  0  0
   10.2496   -1.3096   22.5013 C   0  0  0  0  0  0  0  0  0  0  0  0
   10.2622   -0.4972   23.6293 C   0  0  0  0  0  0  0  0  0  0  0  0
   11.4649   -0.1027   24.1915 C   0  0  0  0  0  0  0  0  0  0  0  0
   12.6590   -0.5109   23.6381 C   0  0  0  0  0  0  0  0  0  0  0  0
   12.6556   -1.3153   22.5193 C   0  0  0  0  0  0  0  0  0  0  0  0
   11.4588   -1.7156   21.9490 C   0  0  0  0  0  0  0  0  0  0  0  0
    8.4230   -0.8412   20.9876 C   0  0  0  0  0  0  0  0  0  0  0  0
    8.9718    0.2160   20.7167 O   0  0  0  0  0  0  0  0  0  0  0  0
    7.2194   -1.2316   20.3803 N   0  0  0  0  0  0  0  0  0  0  0  0
    6.6099   -0.3172   19.4313 C   0  0  0  0  0  0  0  0  0  0  0  0
    5.3363    0.1990   19.6366 C   0  0  0  0  0  0  0  0  0  0  0  0
    4.7895    1.0647   18.7058 C   0  0  0  0  0  0  0  0  0  0  0  0
    5.5320    1.3899   17.5949 C   0  0  0  0  0  0  0  0  0  0  0  0
    6.7559    0.9115   17.3720 N   0  0  0  0  0  0  0  0  0  0  0  0
    7.2745    0.0789   18.2801 C   0  0  0  0  0  0  0  0  0  0  0  0
    6.5675   -2.4564   20.6263 C   0  0  0  0  0  0  0  0  0  0  0  0
    5.5162   -2.7694   20.0936 O   0  0  0  0  0  0  0  0  0  0  0  0
  1  2  1  0
  2  3  2  0
  3  4  1  0
  4  5  2  0
  5  6  1  0
  6  7  2  0
  7  8  1  0
  5  9  1  0
  9 10  1  0
 10 11  2  0
 11 12  1  0
 12 13  2  0
 13 14  1  0
 14 15  2  0
  9 16  1  0
 16 17  2  0
 16 18  1  0
 18 19  1  0
 19 20  2  0
 20 21  1  0
 21 22  2  0
 22 23  1  0
 23 24  2  0
 18 25  1  0
 25 26  2  0
  7  2  1  0
 15 10  1  0
 24 19  1  0
 25  4  1  0
M  END
