CVD-0002268|dock_bobby27042020.21|mol2|2|dock3
     RDKit          3D

 26 28  0  0  0  0  0  0  0  0999 V2000
    9.2300    5.6544   22.5019 C   0  0  0  0  0  0  0  0  0  0  0  0
    9.9066    4.3524   22.7752 C   0  0  0  0  0  0  0  0  0  0  0  0
    9.3254    3.2047   22.6718 N   0  0  0  0  0  0  0  0  0  0  0  0
   10.1720    2.1388   22.9723 N   0  0  0  0  0  0  0  0  0  0  0  0
   11.3636    2.5219   23.2845 C   0  0  0  0  0  0  0  0  0  0  0  0
   12.4447    1.5496   23.6497 C   0  0  0  0  0  0  0  0  0  0  0  0
   11.9467    0.1770   23.7500 N   0  0  0  0  0  0  0  0  0  0  0  0
   12.1538   -0.5742   22.5183 C   0  0  0  0  0  0  0  0  0  0  0  0
   11.5193   -1.9541   22.5423 C   0  0  0  0  0  0  0  0  0  0  0  0
   11.8589   -2.6493   23.8086 C   0  0  0  0  0  0  0  0  0  0  0  0
   12.3150   -2.0107   24.8686 C   0  0  0  0  0  0  0  0  0  0  0  0
   12.6229   -2.5960   26.0646 F   0  0  0  0  0  0  0  0  0  0  0  0
   12.5439   -0.5436   24.8727 C   0  0  0  0  0  0  0  0  0  0  0  0
    9.7403   -1.8129   22.4047 S   0  0  0  0  0  0  0  0  0  0  0  0
    9.1944   -3.1396   22.3843 O   0  0  0  0  0  0  0  0  0  0  0  0
    9.2938   -0.8894   23.4079 O   0  0  0  0  0  0  0  0  0  0  0  0
    9.4564   -1.1451   20.9639 N   0  0  0  0  0  0  0  0  0  0  0  0
    8.3948   -0.1418   20.8188 C   0  0  0  0  0  0  0  0  0  0  0  0
    7.0697   -0.8073   20.4938 C   0  0  0  0  0  0  0  0  0  0  0  0
    6.0519    0.1588   19.9373 C   0  0  0  0  0  0  0  0  0  0  0  0
    6.1968    0.6868   18.6636 C   0  0  0  0  0  0  0  0  0  0  0  0
    5.2651    1.5756   18.1539 C   0  0  0  0  0  0  0  0  0  0  0  0
    4.1767    1.9483   18.9127 C   0  0  0  0  0  0  0  0  0  0  0  0
    4.0207    1.4323   20.1811 C   0  0  0  0  0  0  0  0  0  0  0  0
    4.9530    0.5435   20.6899 C   0  0  0  0  0  0  0  0  0  0  0  0
   11.5713    4.2475   23.2467 S   0  0  0  0  0  0  0  0  0  0  0  0
  1  2  1  0
  2  3  2  0
  3  4  1  0
  4  5  2  0
  5  6  1  0
  6  7  1  0
  7  8  1  0
  8  9  1  0
  9 10  1  0
 10 11  2  0
 11 12  1  0
 11 13  1  0
  9 14  1  0
 14 15  2  0
 14 16  2  0
 14 17  1  0
 17 18  1  0
 18 19  1  0
 19 20  1  0
 20 21  2  0
 21 22  1  0
 22 23  2  0
 23 24  1  0
 24 25  2  0
  5 26  1  0
 26  2  1  0
 13  7  1  0
 25 20  1  0
M  END
