CVD-0000841|dock_bobby27042020.69|mol2|5|dock3
     RDKit          3D

 20 22  0  0  0  0  0  0  0  0999 V2000
    9.6632    1.4629   20.8247 O   0  0  0  0  0  0  0  0  0  0  0  0
    9.1184    0.4128   21.1251 C   0  0  0  0  0  0  0  0  0  0  0  0
    9.7611   -0.6996   21.5386 N   0  0  0  0  0  0  0  0  0  0  0  0
    9.3577   -2.0884   21.2666 C   0  0  0  0  0  0  0  0  0  0  0  0
    8.2371   -2.5447   22.1719 C   0  0  0  0  0  0  0  0  0  0  0  0
    6.9179   -1.8578   21.8286 C   0  0  0  0  0  0  0  0  0  0  0  0
    6.9245   -0.3490   22.0020 C   0  0  0  0  0  0  0  0  0  0  0  0
    7.7650    0.3642   21.0063 N   0  0  0  0  0  0  0  0  0  0  0  0
    6.9832    0.8545   19.8987 C   0  0  0  0  0  0  0  0  0  0  0  0
    5.9713    1.7971   20.0485 C   0  0  0  0  0  0  0  0  0  0  0  0
    5.2521    2.2138   18.9425 C   0  0  0  0  0  0  0  0  0  0  0  0
    5.5574    1.6693   17.7176 C   0  0  0  0  0  0  0  0  0  0  0  0
    6.5159    0.7600   17.5447 N   0  0  0  0  0  0  0  0  0  0  0  0
    7.2143    0.3740   18.6174 C   0  0  0  0  0  0  0  0  0  0  0  0
   10.8865   -0.5047   22.4171 C   0  0  0  0  0  0  0  0  0  0  0  0
   12.1311   -1.0174   22.0704 C   0  0  0  0  0  0  0  0  0  0  0  0
   13.2218   -0.8451   22.9064 C   0  0  0  0  0  0  0  0  0  0  0  0
   13.0868   -0.1638   24.0958 C   0  0  0  0  0  0  0  0  0  0  0  0
   11.8585    0.3468   24.4532 C   0  0  0  0  0  0  0  0  0  0  0  0
   10.7626    0.1790   23.6232 C   0  0  0  0  0  0  0  0  0  0  0  0
  1  2  2  0
  2  3  1  0
  3  4  1  0
  4  5  1  0
  5  6  1  0
  6  7  1  0
  7  8  1  0
  8  9  1  0
  9 10  2  0
 10 11  1  0
 11 12  2  0
 12 13  1  0
 13 14  2  0
  3 15  1  0
 15 16  2  0
 16 17  1  0
 17 18  2  0
 18 19  1  0
 19 20  2  0
  8  2  1  0
 14  9  1  0
 20 15  1  0
M  END
