CVD-0001321|dock_bobby27042020.81|mol2|27|dock3
     RDKit          3D

 25 27  0  0  0  0  0  0  0  0999 V2000
    9.2462   -5.5566   27.6726 C   0  0  0  0  0  0  0  0  0  0  0  0
    8.9975   -5.3793   26.2422 N   0  0  0  0  0  0  0  0  0  0  0  0
    7.5644   -5.3607   25.9670 C   0  0  0  0  0  0  0  0  0  0  0  0
    7.3012   -5.2746   24.4737 C   0  0  0  0  0  0  0  0  0  0  0  0
    7.9336   -4.0007   23.9186 C   0  0  0  0  0  0  0  0  0  0  0  0
    9.4158   -3.9725   24.2609 C   0  0  0  0  0  0  0  0  0  0  0  0
    9.5857   -4.1231   25.7647 C   0  0  0  0  0  0  0  0  0  0  0  0
    7.6661   -3.8140   22.4405 C   0  0  0  0  0  0  0  0  0  0  0  0
    7.4313   -4.7660   21.7009 O   0  0  0  0  0  0  0  0  0  0  0  0
    7.7028   -2.5527   22.0017 N   0  0  0  0  0  0  0  0  0  0  0  0
    7.4683   -2.1875   20.6085 C   0  0  0  0  0  0  0  0  0  0  0  0
    5.9900   -2.3514   20.2622 C   0  0  0  0  0  0  0  0  0  0  0  0
    5.7162   -2.0040   18.8087 C   0  0  0  0  0  0  0  0  0  0  0  0
    6.1756   -0.5922   18.4862 C   0  0  0  0  0  0  0  0  0  0  0  0
    7.6443   -0.4038   18.8450 C   0  0  0  0  0  0  0  0  0  0  0  0
    7.9276   -0.7562   20.2961 C   0  0  0  0  0  0  0  0  0  0  0  0
    9.3395   -0.5448   20.5961 N   0  0  0  0  0  0  0  0  0  0  0  0
    9.7490    0.3153   21.5397 C   0  0  0  0  0  0  0  0  0  0  0  0
    8.9388    0.9612   22.1974 O   0  0  0  0  0  0  0  0  0  0  0  0
   11.2173    0.4957   21.8005 C   0  0  0  0  0  0  0  0  0  0  0  0
   12.1321   -0.5546   21.7578 C   0  0  0  0  0  0  0  0  0  0  0  0
   13.4757   -0.3286   22.0079 C   0  0  0  0  0  0  0  0  0  0  0  0
   13.9272    0.9394   22.3023 C   0  0  0  0  0  0  0  0  0  0  0  0
   13.0349    1.9880   22.3475 C   0  0  0  0  0  0  0  0  0  0  0  0
   11.6904    1.7693   22.0988 C   0  0  0  0  0  0  0  0  0  0  0  0
  1  2  1  0
  2  3  1  0
  3  4  1  0
  4  5  1  0
  5  6  1  0
  6  7  1  0
  5  8  1  0
  8  9  2  0
  8 10  1  0
 10 11  1  0
 11 12  1  0
 12 13  1  0
 13 14  1  0
 14 15  1  0
 15 16  1  0
 16 17  1  0
 17 18  1  0
 18 19  2  0
 18 20  1  0
 20 21  2  0
 21 22  1  0
 22 23  2  0
 23 24  1  0
 24 25  2  0
  7  2  1  0
 16 11  1  0
 25 20  1  0
M  END
