CVD-0002574|dock_bobby27042020.48|mol2|10|dock1
     RDKit          3D

 37 40  0  0  0  0  0  0  0  0999 V2000
    9.8036   -4.8191   25.7854 C   0  0  0  0  0  0  0  0  0  0  0  0
    9.4931   -3.4739   25.2965 N   0  0  0  0  0  0  0  0  0  0  0  0
   10.0202   -3.1526   24.0115 C   0  0  0  0  0  0  0  0  0  0  0  0
   10.6762   -1.8765   24.0470 O   0  0  0  0  0  0  0  0  0  0  0  0
   11.5610   -1.5928   23.0741 C   0  0  0  0  0  0  0  0  0  0  0  0
   11.9607   -2.3950   22.2464 O   0  0  0  0  0  0  0  0  0  0  0  0
   12.0144   -0.1676   23.1039 C   0  0  0  0  0  0  0  0  0  0  0  0
   11.1730    0.8207   23.6024 C   0  0  0  0  0  0  0  0  0  0  0  0
   11.5727    2.1447   23.6383 C   0  0  0  0  0  0  0  0  0  0  0  0
   12.8295    2.4890   23.1691 C   0  0  0  0  0  0  0  0  0  0  0  0
   13.6844    1.5200   22.6703 C   0  0  0  0  0  0  0  0  0  0  0  0
   13.2737    0.1990   22.6394 C   0  0  0  0  0  0  0  0  0  0  0  0
   13.3508    4.1770   23.2170 S   0  0  0  0  0  0  0  0  0  0  0  0
   13.2124    4.7925   21.7456 N   0  0  0  0  0  0  0  0  0  0  0  0
   12.4338    4.8840   24.0598 O   0  0  0  0  0  0  0  0  0  0  0  0
   14.7436    4.1851   23.5502 O   0  0  0  0  0  0  0  0  0  0  0  0
    8.9894   -3.1506   22.9229 C   0  0  0  0  0  0  0  0  0  0  0  0
    8.5899   -2.0372   22.1341 C   0  0  0  0  0  0  0  0  0  0  0  0
    7.6114   -2.4094   21.2278 C   0  0  0  0  0  0  0  0  0  0  0  0
    6.9475   -1.5279   20.2283 C   0  0  0  0  0  0  0  0  0  0  0  0
    6.6059   -1.9994   18.9576 C   0  0  0  0  0  0  0  0  0  0  0  0
    5.9936   -1.1808   18.0235 C   0  0  0  0  0  0  0  0  0  0  0  0
    5.7145    0.1329   18.3208 C   0  0  0  0  0  0  0  0  0  0  0  0
    6.0418    0.6376   19.5647 C   0  0  0  0  0  0  0  0  0  0  0  0
    6.6373   -0.1950   20.4824 C   0  0  0  0  0  0  0  0  0  0  0  0
    6.9131    0.3539   21.6875 F   0  0  0  0  0  0  0  0  0  0  0  0
    7.3904   -3.7974   21.4696 N   0  0  0  0  0  0  0  0  0  0  0  0
    8.2359   -4.2104   22.4918 C   0  0  0  0  0  0  0  0  0  0  0  0
    6.3488   -4.9489   20.7839 S   0  0  0  0  0  0  0  0  0  0  0  0
    5.3434   -4.2391   20.0553 O   0  0  0  0  0  0  0  0  0  0  0  0
    7.2091   -5.8491   20.0807 O   0  0  0  0  0  0  0  0  0  0  0  0
    5.6221   -5.8505   22.1090 C   0  0  0  0  0  0  0  0  0  0  0  0
    4.5612   -5.3167   22.8204 C   0  0  0  0  0  0  0  0  0  0  0  0
    4.0233   -6.0580   23.8582 C   0  0  0  0  0  0  0  0  0  0  0  0
    4.5645   -7.2918   24.1410 C   0  0  0  0  0  0  0  0  0  0  0  0
    5.5875   -7.8174   23.4655 N   0  0  0  0  0  0  0  0  0  0  0  0
    6.1022   -7.0966   22.4651 C   0  0  0  0  0  0  0  0  0  0  0  0
  1  2  1  0
  2  3  1  0
  3  4  1  0
  4  5  1  0
  5  6  2  0
  5  7  1  0
  7  8  2  0
  8  9  1  0
  9 10  2  0
 10 11  1  0
 11 12  2  0
 10 13  1  0
 13 14  1  0
 13 15  2  0
 13 16  2  0
  3 17  1  0
 17 18  1  0
 18 19  2  0
 19 20  1  0
 20 21  2  0
 21 22  1  0
 22 23  2  0
 23 24  1  0
 24 25  2  0
 25 26  1  0
 19 27  1  0
 27 28  1  0
 27 29  1  0
 29 30  2  0
 29 31  2  0
 29 32  1  0
 32 33  2  0
 33 34  1  0
 34 35  2  0
 35 36  1  0
 36 37  2  0
 12  7  1  0
 28 17  2  0
 37 32  1  0
 25 20  1  0
M  END
