CVD-0001464|dock_bobby27042020.52|mol2|32|dock3
     RDKit          3D

 33 35  0  0  0  0  0  0  0  0999 V2000
    6.0727   -2.8340   18.4662 F   0  0  0  0  0  0  0  0  0  0  0  0
    6.8511   -3.0436   19.5524 C   0  0  0  0  0  0  0  0  0  0  0  0
    6.6416   -4.1988   20.2674 C   0  0  0  0  0  0  0  0  0  0  0  0
    7.4199   -4.4428   21.3871 C   0  0  0  0  0  0  0  0  0  0  0  0
    8.3915   -3.5393   21.7856 C   0  0  0  0  0  0  0  0  0  0  0  0
    8.5943   -2.3715   21.0620 C   0  0  0  0  0  0  0  0  0  0  0  0
    9.5277   -1.4163   21.3800 O   0  0  0  0  0  0  0  0  0  0  0  0
   10.6756   -1.7367   22.1835 C   0  0  0  0  0  0  0  0  0  0  0  0
   11.7633   -0.7028   21.9962 C   0  0  0  0  0  0  0  0  0  0  0  0
   11.4583    0.7061   22.4696 C   0  0  0  0  0  0  0  0  0  0  0  0
   12.6525    1.5351   22.4777 N   0  0  0  0  0  0  0  0  0  0  0  0
   12.7181    2.7487   23.0890 C   0  0  0  0  0  0  0  0  0  0  0  0
   13.7925    3.6055   22.8565 C   0  0  0  0  0  0  0  0  0  0  0  0
   13.8115    4.8281   23.5029 C   0  0  0  0  0  0  0  0  0  0  0  0
   12.7716    5.1710   24.3594 C   0  0  0  0  0  0  0  0  0  0  0  0
   11.7438    4.2475   24.5259 C   0  0  0  0  0  0  0  0  0  0  0  0
   11.7096    3.0611   23.9088 N   0  0  0  0  0  0  0  0  0  0  0  0
   12.7582    6.4370   25.0499 C   0  0  0  0  0  0  0  0  0  0  0  0
   12.7808    7.4405   25.5952 N   0  0  0  0  0  0  0  0  0  0  0  0
    7.8215   -2.1054   19.9114 C   0  0  0  0  0  0  0  0  0  0  0  0
    8.1435   -0.5880   19.0069 S   0  0  0  0  0  0  0  0  0  0  0  0
    7.9828   -0.8557   17.6115 O   0  0  0  0  0  0  0  0  0  0  0  0
    9.3382    0.0343   19.4866 O   0  0  0  0  0  0  0  0  0  0  0  0
    6.9108    0.3863   19.4424 N   0  0  0  0  0  0  0  0  0  0  0  0
    6.7543    0.6710   20.8758 C   0  0  0  0  0  0  0  0  0  0  0  0
    5.9633    1.9305   21.0395 C   0  0  0  0  0  0  0  0  0  0  0  0
    4.6896    1.8296   20.3461 N   0  0  0  0  0  0  0  0  0  0  0  0
    4.8062    1.4635   18.9311 C   0  0  0  0  0  0  0  0  0  0  0  0
    5.6119    0.2076   18.7765 C   0  0  0  0  0  0  0  0  0  0  0  0
    3.5328    2.1014   20.9982 C   0  0  0  0  0  0  0  0  0  0  0  0
    3.5506    2.4146   22.1875 O   0  0  0  0  0  0  0  0  0  0  0  0
    2.2229    2.0279   20.2898 C   0  0  0  0  0  0  0  0  0  0  0  0
    1.1697    1.5384   20.8887 C   0  0  0  0  0  0  0  0  0  0  0  0
  1  2  1  0
  2  3  2  0
  3  4  1  0
  4  5  2  0
  5  6  1  0
  6  7  1  0
  7  8  1  0
  8  9  1  0
  9 10  1  0
 10 11  1  0
 11 12  1  0
 12 13  2  0
 13 14  1  0
 14 15  2  0
 15 16  1  0
 16 17  2  0
 15 18  1  0
 18 19  3  0
  6 20  2  0
 20 21  1  0
 21 22  2  0
 21 23  2  0
 21 24  1  0
 24 25  1  0
 25 26  1  0
 26 27  1  0
 27 28  1  0
 28 29  1  0
 27 30  1  0
 30 31  2  0
 30 32  1  0
 32 33  2  0
 20  2  1  0
 29 24  1  0
 17 12  1  0
M  END
