CVD-0000413|dock_bobby27042020.27|mol2|17|dock1
     RDKit          3D

 24 26  0  0  0  0  0  0  0  0999 V2000
    9.1930   -6.3410   26.9347 C   0  0  0  0  0  0  0  0  0  0  0  0
    9.1847   -5.3574   25.7734 C   0  0  0  0  0  0  0  0  0  0  0  0
    9.0016   -3.9262   26.2158 C   0  0  0  0  0  0  0  0  0  0  0  0
    8.8999   -3.6507   27.4047 O   0  0  0  0  0  0  0  0  0  0  0  0
    8.9550   -2.9635   25.2713 N   0  0  0  0  0  0  0  0  0  0  0  0
    8.7903   -1.5439   25.5917 C   0  0  0  0  0  0  0  0  0  0  0  0
    9.9001   -0.7254   24.9586 C   0  0  0  0  0  0  0  0  0  0  0  0
    9.9078   -0.9190   23.5056 N   0  0  0  0  0  0  0  0  0  0  0  0
   10.9552   -0.0977   22.8832 C   0  0  0  0  0  0  0  0  0  0  0  0
   10.6226    1.3756   22.8922 C   0  0  0  0  0  0  0  0  0  0  0  0
    9.3057    1.8050   23.0048 C   0  0  0  0  0  0  0  0  0  0  0  0
    9.0356    3.1496   22.9999 C   0  0  0  0  0  0  0  0  0  0  0  0
    7.7487    3.5526   23.1066 F   0  0  0  0  0  0  0  0  0  0  0  0
   10.0240    4.1122   22.8893 C   0  0  0  0  0  0  0  0  0  0  0  0
    9.5904    5.7808   22.8732 Cl  0  0  0  0  0  0  0  0  0  0  0  0
   11.3570    3.7294   22.7894 C   0  0  0  0  0  0  0  0  0  0  0  0
   12.6150    4.3986   22.6805 C   0  0  0  0  0  0  0  0  0  0  0  0
   12.8522    5.8895   22.6622 C   0  0  0  0  0  0  0  0  0  0  0  0
   14.2010    6.2773   22.0742 C   0  0  0  0  0  0  0  0  0  0  0  0
   13.5614    3.4199   22.5943 C   0  0  0  0  0  0  0  0  0  0  0  0
   12.9789    2.1837   22.6532 N   0  0  0  0  0  0  0  0  0  0  0  0
   11.6222    2.3482   22.7827 C   0  0  0  0  0  0  0  0  0  0  0  0
   10.1263   -2.3335   23.2145 C   0  0  0  0  0  0  0  0  0  0  0  0
    9.0266   -3.1841   23.8235 C   0  0  0  0  0  0  0  0  0  0  0  0
  1  2  1  0
  2  3  1  0
  3  4  2  0
  3  5  1  0
  5  6  1  0
  6  7  1  0
  7  8  1  0
  8  9  1  0
  9 10  1  0
 10 11  2  0
 11 12  1  0
 12 13  1  0
 12 14  2  0
 14 15  1  0
 14 16  1  0
 16 17  1  0
 17 18  1  0
 18 19  1  0
 17 20  2  0
 20 21  1  0
 21 22  1  0
  8 23  1  0
 23 24  1  0
 24  5  1  0
 22 10  1  0
 22 16  2  0
M  END
