CVD-0002946|dock_bobby27042020.75|mol2|25|dock3
     RDKit          3D

 21 22  0  0  0  0  0  0  0  0999 V2000
    5.8537    1.6419   17.1498 C   0  0  0  0  0  0  0  0  0  0  0  0
    6.2498    0.5626   18.1139 C   0  0  0  0  0  0  0  0  0  0  0  0
    7.2639   -0.1097   17.9550 O   0  0  0  0  0  0  0  0  0  0  0  0
    5.4440    0.3874   19.1631 N   0  0  0  0  0  0  0  0  0  0  0  0
    5.7128   -0.6107   20.1878 C   0  0  0  0  0  0  0  0  0  0  0  0
    7.1223   -0.5500   20.7250 C   0  0  0  0  0  0  0  0  0  0  0  0
    7.7604    0.6647   20.9181 C   0  0  0  0  0  0  0  0  0  0  0  0
    9.0511    0.7239   21.4134 C   0  0  0  0  0  0  0  0  0  0  0  0
    9.7485   -0.4356   21.7319 C   0  0  0  0  0  0  0  0  0  0  0  0
    9.1046   -1.6500   21.5394 C   0  0  0  0  0  0  0  0  0  0  0  0
    7.8139   -1.7070   21.0451 C   0  0  0  0  0  0  0  0  0  0  0  0
   11.1596   -0.4055   22.2700 C   0  0  0  0  0  0  0  0  0  0  0  0
   11.2372   -0.7674   23.7350 C   0  0  0  0  0  0  0  0  0  0  0  0
   12.6875   -0.7671   24.1664 C   0  0  0  0  0  0  0  0  0  0  0  0
   13.4634   -1.6637   23.2853 N   0  0  0  0  0  0  0  0  0  0  0  0
   13.3353   -1.3218   21.8716 C   0  0  0  0  0  0  0  0  0  0  0  0
   11.9762   -1.3015   21.4959 O   0  0  0  0  0  0  0  0  0  0  0  0
   14.2128   -2.6946   23.7249 C   0  0  0  0  0  0  0  0  0  0  0  0
   14.8388   -3.4152   22.9580 O   0  0  0  0  0  0  0  0  0  0  0  0
   14.2348   -2.9198   25.2240 C   0  0  0  0  0  0  0  0  0  0  0  0
   14.9184   -1.5323   26.0809 Cl  0  0  0  0  0  0  0  0  0  0  0  0
  1  2  1  0
  2  3  2  0
  2  4  1  0
  4  5  1  0
  5  6  1  0
  6  7  2  0
  7  8  1  0
  8  9  2  0
  9 10  1  0
 10 11  2  0
  9 12  1  0
 12 13  1  0
 13 14  1  0
 14 15  1  0
 15 16  1  0
 16 17  1  0
 15 18  1  0
 18 19  2  0
 18 20  1  0
 20 21  1  0
 11  6  1  0
 17 12  1  0
M  END
