CVD-0002746|dock_bobby27042020.76|mol2|12|dock2
     RDKit          3D

 30 33  0  0  0  0  0  0  0  0999 V2000
    3.3146    5.7574   22.6544 Cl  0  0  0  0  0  0  0  0  0  0  0  0
    3.4706    4.0361   22.2797 C   0  0  0  0  0  0  0  0  0  0  0  0
    3.6851    3.8025   20.7971 C   0  0  0  0  0  0  0  0  0  0  0  0
    3.7765    4.7361   20.0100 O   0  0  0  0  0  0  0  0  0  0  0  0
    3.7747    2.5178   20.3963 N   0  0  0  0  0  0  0  0  0  0  0  0
    3.9747    2.2002   18.9919 C   0  0  0  0  0  0  0  0  0  0  0  0
    5.1410    1.2785   18.8205 C   0  0  0  0  0  0  0  0  0  0  0  0
    4.9317    0.0817   19.6477 N   0  0  0  0  0  0  0  0  0  0  0  0
    4.8130    0.4184   21.0741 C   0  0  0  0  0  0  0  0  0  0  0  0
    3.6465    1.3422   21.2633 C   0  0  0  0  0  0  0  0  0  0  0  0
    5.7588   -1.2615   19.2364 S   0  0  0  0  0  0  0  0  0  0  0  0
    4.8432   -2.3536   19.3549 O   0  0  0  0  0  0  0  0  0  0  0  0
    6.3801   -0.9859   17.9784 O   0  0  0  0  0  0  0  0  0  0  0  0
    7.0275   -1.4801   20.4357 C   0  0  0  0  0  0  0  0  0  0  0  0
    6.7642   -2.1915   21.5944 C   0  0  0  0  0  0  0  0  0  0  0  0
    7.7702   -2.3622   22.5289 C   0  0  0  0  0  0  0  0  0  0  0  0
    9.0368   -1.8367   22.3259 C   0  0  0  0  0  0  0  0  0  0  0  0
   10.1297   -2.0263   23.3579 C   0  0  0  0  0  0  0  0  0  0  0  0
   11.3629   -1.1622   23.1726 C   0  0  0  0  0  0  0  0  0  0  0  0
   12.6118   -1.7198   23.0857 C   0  0  0  0  0  0  0  0  0  0  0  0
   13.7447   -0.9426   22.9134 C   0  0  0  0  0  0  0  0  0  0  0  0
   13.6521    0.4137   22.8231 C   0  0  0  0  0  0  0  0  0  0  0  0
   12.3919    1.0530   22.9036 C   0  0  0  0  0  0  0  0  0  0  0  0
   12.2456    2.4581   22.8145 C   0  0  0  0  0  0  0  0  0  0  0  0
   11.0144    3.0376   22.8961 C   0  0  0  0  0  0  0  0  0  0  0  0
    9.8833    2.2678   23.0675 C   0  0  0  0  0  0  0  0  0  0  0  0
    9.9722    0.9107   23.1591 C   0  0  0  0  0  0  0  0  0  0  0  0
   11.2263    0.2508   23.0812 C   0  0  0  0  0  0  0  0  0  0  0  0
    9.2781   -1.1289   21.1586 C   0  0  0  0  0  0  0  0  0  0  0  0
    8.2859   -0.9468   20.2116 C   0  0  0  0  0  0  0  0  0  0  0  0
  1  2  1  0
  2  3  1  0
  3  4  2  0
  3  5  1  0
  5  6  1  0
  6  7  1  0
  7  8  1  0
  8  9  1  0
  9 10  1  0
  8 11  1  0
 11 12  2  0
 11 13  2  0
 11 14  1  0
 14 15  2  0
 15 16  1  0
 16 17  2  0
 17 18  1  0
 18 19  1  0
 19 20  2  0
 20 21  1  0
 21 22  2  0
 22 23  1  0
 23 24  2  0
 24 25  1  0
 25 26  2  0
 26 27  1  0
 27 28  2  0
 17 29  1  0
 29 30  2  0
 10  5  1  0
 30 14  1  0
 28 19  1  0
 28 23  1  0
M  END
