CVD-0000919|dock_bobby27042020.25|mol2|37|dock3
     RDKit          3D

 35 39  0  0  0  0  0  0  0  0999 V2000
    4.9065    1.4267   19.1224 O   0  0  0  0  0  0  0  0  0  0  0  0
    6.0833    1.4450   19.8132 C   0  0  0  0  0  0  0  0  0  0  0  0
    7.0266    0.4531   19.6053 C   0  0  0  0  0  0  0  0  0  0  0  0
    8.1742    0.4302   20.3745 C   0  0  0  0  0  0  0  0  0  0  0  0
    8.4104    1.3840   21.3609 C   0  0  0  0  0  0  0  0  0  0  0  0
    9.6637    1.3731   22.2222 C   0  0  0  0  0  0  0  0  0  0  0  0
    9.5922    0.6021   23.5636 C   0  0  0  0  0  0  0  0  0  0  0  0
    8.1963    0.2149   24.0273 C   0  0  0  0  0  0  0  0  0  0  0  0
    7.9359   -1.4662   23.4546 S   0  0  0  0  0  0  0  0  0  0  0  0
    7.1690   -1.4891   22.2389 O   0  0  0  0  0  0  0  0  0  0  0  0
    7.4577   -2.2683   24.5481 O   0  0  0  0  0  0  0  0  0  0  0  0
    9.6633   -1.8342   23.1252 C   0  0  0  0  0  0  0  0  0  0  0  0
   10.4606   -0.6603   23.6524 C   0  0  0  0  0  0  0  0  0  0  0  0
   11.8300   -0.5798   23.1052 N   0  0  0  0  0  0  0  0  0  0  0  0
   12.3104   -1.3771   21.9606 C   0  0  0  0  0  0  0  0  0  0  0  0
   13.7294   -0.9144   21.7340 C   0  0  0  0  0  0  0  0  0  0  0  0
   14.0552    0.0492   22.8351 C   0  0  0  0  0  0  0  0  0  0  0  0
   12.7772    0.2012   23.6057 C   0  0  0  0  0  0  0  0  0  0  0  0
   12.6120    0.9374   24.5692 O   0  0  0  0  0  0  0  0  0  0  0  0
   10.0721    2.7526   22.4889 N   0  0  0  0  0  0  0  0  0  0  0  0
   11.4663    2.9611   22.4478 C   0  0  0  0  0  0  0  0  0  0  0  0
   12.2066    2.0830   22.0252 O   0  0  0  0  0  0  0  0  0  0  0  0
   12.0653    4.2680   22.9336 C   0  0  0  0  0  0  0  0  0  0  0  0
   13.8324    4.2024   22.9184 Cl  0  0  0  0  0  0  0  0  0  0  0  0
    9.2087    3.7374   22.7723 C   0  0  0  0  0  0  0  0  0  0  0  0
    9.5336    4.8480   23.1477 O   0  0  0  0  0  0  0  0  0  0  0  0
    7.7501    3.4106   22.6402 C   0  0  0  0  0  0  0  0  0  0  0  0
    7.0505    4.7193   22.2896 C   0  0  0  0  0  0  0  0  0  0  0  0
    5.8808    5.0941   22.9359 C   0  0  0  0  0  0  0  0  0  0  0  0
    5.2461    6.2830   22.6175 C   0  0  0  0  0  0  0  0  0  0  0  0
    5.7725    7.1115   21.6497 C   0  0  0  0  0  0  0  0  0  0  0  0
    6.9337    6.7520   20.9998 C   0  0  0  0  0  0  0  0  0  0  0  0
    7.5692    5.5632   21.3175 C   0  0  0  0  0  0  0  0  0  0  0  0
    7.4561    2.3845   21.5683 C   0  0  0  0  0  0  0  0  0  0  0  0
    6.2999    2.4034   20.7901 C   0  0  0  0  0  0  0  0  0  0  0  0
  1  2  1  0
  2  3  2  0
  3  4  1  0
  4  5  2  0
  5  6  1  0
  6  7  1  0
  7  8  1  0
  8  9  1  0
  9 10  2  0
  9 11  2  0
  9 12  1  0
 12 13  1  0
 13 14  1  0
 14 15  1  0
 15 16  1  0
 16 17  1  0
 17 18  1  0
 18 19  2  0
  6 20  1  0
 20 21  1  0
 21 22  2  0
 21 23  1  0
 23 24  1  0
 20 25  1  0
 25 26  2  0
 25 27  1  0
 27 28  1  0
 28 29  2  0
 29 30  1  0
 30 31  2  0
 31 32  1  0
 32 33  2  0
 27 34  1  0
 34 35  2  0
 35  2  1  0
 34  5  1  0
 13  7  1  0
 18 14  1  0
 33 28  1  0
M  END
