CVD-0002293|dock_bobby27042020.49|mol2|20|dock1
     RDKit          3D

 40 43  0  0  0  0  0  0  0  0999 V2000
   13.8332   -1.9914   21.9911 C   0  0  0  0  0  0  0  0  0  0  0  0
   12.9738   -0.9637   21.3984 N   0  0  0  0  0  0  0  0  0  0  0  0
   11.9212   -0.4612   22.3008 C   0  0  0  0  0  0  0  0  0  0  0  0
   12.0955    1.0697   22.4921 C   0  0  0  0  0  0  0  0  0  0  0  0
   13.4455    1.4375   23.0933 C   0  0  0  0  0  0  0  0  0  0  0  0
   10.9964    1.7708   23.2044 N   0  0  0  0  0  0  0  0  0  0  0  0
   10.5780    1.3425   24.5421 C   0  0  0  0  0  0  0  0  0  0  0  0
   10.4716    2.8690   22.6080 C   0  0  0  0  0  0  0  0  0  0  0  0
   10.8946    3.2534   21.5343 O   0  0  0  0  0  0  0  0  0  0  0  0
    9.3549    3.6510   23.2714 C   0  0  0  0  0  0  0  0  0  0  0  0
    9.4682    5.1370   22.9544 C   0  0  0  0  0  0  0  0  0  0  0  0
    8.3271    5.9053   23.5887 C   0  0  0  0  0  0  0  0  0  0  0  0
    7.0486    5.3731   23.1244 N   0  0  0  0  0  0  0  0  0  0  0  0
    6.8718    3.9630   23.4539 C   0  0  0  0  0  0  0  0  0  0  0  0
    7.9884    3.1365   22.8245 C   0  0  0  0  0  0  0  0  0  0  0  0
    5.9951    6.1089   22.6971 C   0  0  0  0  0  0  0  0  0  0  0  0
    4.9609    5.5793   22.3101 O   0  0  0  0  0  0  0  0  0  0  0  0
    6.1193    7.6207   22.6972 C   0  0  0  0  0  0  0  0  0  0  0  0
    6.4369    8.2298   24.3266 Cl  0  0  0  0  0  0  0  0  0  0  0  0
   10.5607   -0.9595   21.8638 C   0  0  0  0  0  0  0  0  0  0  0  0
    9.6993   -0.4545   20.8485 C   0  0  0  0  0  0  0  0  0  0  0  0
    8.5357   -1.2001   20.7672 C   0  0  0  0  0  0  0  0  0  0  0  0
    7.4033   -0.9797   19.8261 C   0  0  0  0  0  0  0  0  0  0  0  0
    6.6769   -2.0520   19.3006 C   0  0  0  0  0  0  0  0  0  0  0  0
    5.6270   -1.8513   18.4201 C   0  0  0  0  0  0  0  0  0  0  0  0
    5.2769   -0.5803   18.0271 C   0  0  0  0  0  0  0  0  0  0  0  0
    5.9743    0.5053   18.5211 C   0  0  0  0  0  0  0  0  0  0  0  0
    7.0048    0.2854   19.4043 C   0  0  0  0  0  0  0  0  0  0  0  0
    7.6332    1.3902   19.8670 F   0  0  0  0  0  0  0  0  0  0  0  0
    8.6705   -2.2019   21.7710 N   0  0  0  0  0  0  0  0  0  0  0  0
    9.8948   -2.0296   22.4037 C   0  0  0  0  0  0  0  0  0  0  0  0
    7.6723   -3.4708   22.2948 S   0  0  0  0  0  0  0  0  0  0  0  0
    7.8427   -4.4997   21.3165 O   0  0  0  0  0  0  0  0  0  0  0  0
    6.3665   -2.9289   22.5112 O   0  0  0  0  0  0  0  0  0  0  0  0
    8.3429   -4.0723   23.8066 C   0  0  0  0  0  0  0  0  0  0  0  0
    8.4456   -3.2393   24.9075 C   0  0  0  0  0  0  0  0  0  0  0  0
    8.9838   -3.7522   26.0750 C   0  0  0  0  0  0  0  0  0  0  0  0
    9.3951   -5.0659   26.0936 C   0  0  0  0  0  0  0  0  0  0  0  0
    9.3038   -5.8791   25.0403 N   0  0  0  0  0  0  0  0  0  0  0  0
    8.7836   -5.3775   23.9164 C   0  0  0  0  0  0  0  0  0  0  0  0
  1  2  1  0
  2  3  1  0
  3  4  1  0
  4  5  1  0
  4  6  1  0
  6  7  1  0
  6  8  1  0
  8  9  2  0
  8 10  1  0
 10 11  1  0
 11 12  1  0
 12 13  1  0
 13 14  1  0
 14 15  1  0
 13 16  1  0
 16 17  2  0
 16 18  1  0
 18 19  1  0
  3 20  1  0
 20 21  1  0
 21 22  2  0
 22 23  1  0
 23 24  2  0
 24 25  1  0
 25 26  2  0
 26 27  1  0
 27 28  2  0
 28 29  1  0
 22 30  1  0
 30 31  1  0
 30 32  1  0
 32 33  2  0
 32 34  2  0
 32 35  1  0
 35 36  2  0
 36 37  1  0
 37 38  2  0
 38 39  1  0
 39 40  2  0
 15 10  1  0
 31 20  2  0
 40 35  1  0
 28 23  1  0
M  END
