CVD-0002122|dock_bobby27042020.78|mol2|32|dock1
     RDKit          3D

 20 21  0  0  0  0  0  0  0  0999 V2000
   13.3055   -1.9057   20.7949 N   0  0  0  0  0  0  0  0  0  0  0  0
   13.0836   -1.1361   22.1814 S   0  0  0  0  0  0  0  0  0  0  0  0
   12.4629    0.1240   21.8871 O   0  0  0  0  0  0  0  0  0  0  0  0
   14.3326   -1.1402   22.8881 O   0  0  0  0  0  0  0  0  0  0  0  0
   11.9206   -2.0795   23.1621 C   0  0  0  0  0  0  0  0  0  0  0  0
   10.5547   -2.1047   22.5655 C   0  0  0  0  0  0  0  0  0  0  0  0
    9.3344   -2.1794   23.1675 C   0  0  0  0  0  0  0  0  0  0  0  0
    8.4447   -2.1731   22.1614 N   0  0  0  0  0  0  0  0  0  0  0  0
    6.9910   -2.2129   22.2278 C   0  0  0  0  0  0  0  0  0  0  0  0
    6.3695   -2.3265   20.8366 C   0  0  0  0  0  0  0  0  0  0  0  0
    5.7367   -3.3266   20.5220 O   0  0  0  0  0  0  0  0  0  0  0  0
    6.5406   -1.2913   19.9887 N   0  0  0  0  0  0  0  0  0  0  0  0
    7.2741   -0.0565   20.2843 C   0  0  0  0  0  0  0  0  0  0  0  0
    6.4151    1.1594   20.0009 C   0  0  0  0  0  0  0  0  0  0  0  0
    5.8369    1.1450   18.5876 C   0  0  0  0  0  0  0  0  0  0  0  0
    4.9451    2.2360   18.3432 O   0  0  0  0  0  0  0  0  0  0  0  0
    5.1720   -0.1980   18.3141 C   0  0  0  0  0  0  0  0  0  0  0  0
    6.0864   -1.3675   18.6050 C   0  0  0  0  0  0  0  0  0  0  0  0
    9.0701   -2.0811   20.9759 N   0  0  0  0  0  0  0  0  0  0  0  0
   10.3609   -2.0489   21.2227 N   0  0  0  0  0  0  0  0  0  0  0  0
  1  2  1  0
  2  3  2  0
  2  4  2  0
  2  5  1  0
  5  6  1  0
  6  7  2  0
  7  8  1  0
  8  9  1  0
  9 10  1  0
 10 11  2  0
 10 12  1  0
 12 13  1  0
 13 14  1  0
 14 15  1  0
 15 16  1  0
 15 17  1  0
 17 18  1  0
  8 19  1  0
 19 20  2  0
 20  6  1  0
 18 12  1  0
M  END
