CVD-0000848|dock_bobby27042020.54|mol2|32|dock3
     RDKit          3D

 19 21  0  0  0  0  0  0  0  0999 V2000
    7.5672   -2.9325   22.7091 O   0  0  0  0  0  0  0  0  0  0  0  0
    8.4800   -2.1257   22.5837 C   0  0  0  0  0  0  0  0  0  0  0  0
    9.5847   -2.2506   23.6105 C   0  0  0  0  0  0  0  0  0  0  0  0
   10.6999   -1.3187   23.5328 N   0  0  0  0  0  0  0  0  0  0  0  0
   10.6055   -0.2015   22.6041 C   0  0  0  0  0  0  0  0  0  0  0  0
    9.8812   -0.5970   21.3368 C   0  0  0  0  0  0  0  0  0  0  0  0
    8.5684   -1.1523   21.6510 N   0  0  0  0  0  0  0  0  0  0  0  0
    7.4264   -0.5962   20.9675 C   0  0  0  0  0  0  0  0  0  0  0  0
    7.4320   -0.3586   19.5954 C   0  0  0  0  0  0  0  0  0  0  0  0
    6.3114    0.1533   18.9626 C   0  0  0  0  0  0  0  0  0  0  0  0
    5.1787    0.4558   19.6841 C   0  0  0  0  0  0  0  0  0  0  0  0
    5.1649    0.2449   21.0443 C   0  0  0  0  0  0  0  0  0  0  0  0
    6.2763   -0.2779   21.6841 C   0  0  0  0  0  0  0  0  0  0  0  0
   11.8340   -1.4617   24.3177 C   0  0  0  0  0  0  0  0  0  0  0  0
   12.5503   -2.6528   24.3314 C   0  0  0  0  0  0  0  0  0  0  0  0
   13.6759   -2.7646   25.1284 C   0  0  0  0  0  0  0  0  0  0  0  0
   14.0538   -1.6843   25.8900 C   0  0  0  0  0  0  0  0  0  0  0  0
   13.3872   -0.5308   25.8955 N   0  0  0  0  0  0  0  0  0  0  0  0
   12.3041   -0.4309   25.1186 C   0  0  0  0  0  0  0  0  0  0  0  0
  1  2  2  0
  2  3  1  0
  3  4  1  0
  4  5  1  0
  5  6  1  0
  6  7  1  0
  7  8  1  0
  8  9  2  0
  9 10  1  0
 10 11  2  0
 11 12  1  0
 12 13  2  0
  4 14  1  0
 14 15  2  0
 15 16  1  0
 16 17  2  0
 17 18  1  0
 18 19  2  0
  7  2  1  0
 13  8  1  0
 19 14  1  0
M  END
