CVD-0003550|dock_bobby27042020.1|mol2|37|dock1
     RDKit          3D

 24 26  0  0  0  0  0  0  0  0999 V2000
   13.8490    5.8284   21.5812 N   0  0  0  0  0  0  0  0  0  0  0  0
   13.6120    5.1613   23.0171 S   0  0  0  0  0  0  0  0  0  0  0  0
   12.8653    6.0985   23.8014 O   0  0  0  0  0  0  0  0  0  0  0  0
   14.8882    4.7210   23.4952 O   0  0  0  0  0  0  0  0  0  0  0  0
   12.6028    3.7258   22.8079 C   0  0  0  0  0  0  0  0  0  0  0  0
   11.2422    3.8609   22.5872 C   0  0  0  0  0  0  0  0  0  0  0  0
   10.4721    2.7228   22.4255 C   0  0  0  0  0  0  0  0  0  0  0  0
   11.0353    1.4506   22.4801 C   0  0  0  0  0  0  0  0  0  0  0  0
   10.1757    0.2406   22.2511 C   0  0  0  0  0  0  0  0  0  0  0  0
   10.7709   -0.9962   22.7594 N   0  0  0  0  0  0  0  0  0  0  0  0
    9.9641   -2.1363   22.3221 C   0  0  0  0  0  0  0  0  0  0  0  0
    8.5769   -1.7514   21.8376 C   0  0  0  0  0  0  0  0  0  0  0  0
    7.6452   -1.6538   22.6291 O   0  0  0  0  0  0  0  0  0  0  0  0
    8.5099   -1.5520   20.4989 N   0  0  0  0  0  0  0  0  0  0  0  0
    7.4251   -1.1955   19.6600 C   0  0  0  0  0  0  0  0  0  0  0  0
    6.3397   -0.5264   20.2109 C   0  0  0  0  0  0  0  0  0  0  0  0
    5.2729   -0.1714   19.4044 C   0  0  0  0  0  0  0  0  0  0  0  0
    5.3211   -0.4958   18.0687 C   0  0  0  0  0  0  0  0  0  0  0  0
    6.3476   -1.1372   17.5100 N   0  0  0  0  0  0  0  0  0  0  0  0
    7.3737   -1.4763   18.2966 C   0  0  0  0  0  0  0  0  0  0  0  0
   12.1317   -1.1207   22.2336 C   0  0  0  0  0  0  0  0  0  0  0  0
   13.0297   -0.0426   22.7992 C   0  0  0  0  0  0  0  0  0  0  0  0
   12.4087    1.3248   22.7031 C   0  0  0  0  0  0  0  0  0  0  0  0
   13.1834    2.4682   22.8657 C   0  0  0  0  0  0  0  0  0  0  0  0
  1  2  1  0
  2  3  2  0
  2  4  2  0
  2  5  1  0
  5  6  2  0
  6  7  1  0
  7  8  2  0
  8  9  1  0
  9 10  1  0
 10 11  1  0
 11 12  1  0
 12 13  2  0
 12 14  1  0
 14 15  1  0
 15 16  2  0
 16 17  1  0
 17 18  2  0
 18 19  1  0
 19 20  2  0
 10 21  1  0
 21 22  1  0
 22 23  1  0
 23 24  2  0
 24  5  1  0
 23  8  1  0
 20 15  1  0
M  END
