CVD-0003807|dock_bobby27042020.29|mol2|37|dock2
     RDKit          3D

 26 28  0  0  0  0  0  0  0  0999 V2000
    6.9295   -5.9326   22.0162 C   0  0  0  0  0  0  0  0  0  0  0  0
    7.1368   -4.9381   23.0616 N   0  0  0  0  0  0  0  0  0  0  0  0
    6.9492   -3.5556   22.6631 C   0  0  0  0  0  0  0  0  0  0  0  0
    8.2112   -2.8797   22.1416 C   0  0  0  0  0  0  0  0  0  0  0  0
    7.9024   -1.5215   21.5020 C   0  0  0  0  0  0  0  0  0  0  0  0
    9.1554   -0.8690   20.9903 C   0  0  0  0  0  0  0  0  0  0  0  0
   10.1670   -0.7190   22.0408 N   0  0  0  0  0  0  0  0  0  0  0  0
   10.5013   -1.9970   22.7112 C   0  0  0  0  0  0  0  0  0  0  0  0
    9.2501   -2.6830   23.2166 C   0  0  0  0  0  0  0  0  0  0  0  0
   10.8837    0.4553   22.2352 C   0  0  0  0  0  0  0  0  0  0  0  0
   12.2706    0.4170   22.3528 C   0  0  0  0  0  0  0  0  0  0  0  0
   13.0061    1.5714   22.5537 C   0  0  0  0  0  0  0  0  0  0  0  0
   12.3574    2.7895   22.6437 C   0  0  0  0  0  0  0  0  0  0  0  0
   10.9811    2.8546   22.5239 C   0  0  0  0  0  0  0  0  0  0  0  0
   10.2552    1.6951   22.3165 C   0  0  0  0  0  0  0  0  0  0  0  0
   13.2905    4.2680   22.9013 S   0  0  0  0  0  0  0  0  0  0  0  0
   13.0103    5.2641   21.6797 N   0  0  0  0  0  0  0  0  0  0  0  0
   14.6771    3.9132   22.8490 O   0  0  0  0  0  0  0  0  0  0  0  0
   12.7811    4.8947   24.0841 O   0  0  0  0  0  0  0  0  0  0  0  0
    7.3381   -5.3222   24.3842 C   0  0  0  0  0  0  0  0  0  0  0  0
    6.3889   -5.0512   25.3665 C   0  0  0  0  0  0  0  0  0  0  0  0
    6.5992   -5.4273   26.6813 C   0  0  0  0  0  0  0  0  0  0  0  0
    7.7517   -6.0868   27.0708 C   0  0  0  0  0  0  0  0  0  0  0  0
    7.9767   -6.4871   28.5086 C   0  0  0  0  0  0  0  0  0  0  0  0
    8.6922   -6.3612   26.0938 C   0  0  0  0  0  0  0  0  0  0  0  0
    8.4933   -5.9926   24.7752 C   0  0  0  0  0  0  0  0  0  0  0  0
  1  2  1  0
  2  3  1  0
  3  4  1  0
  4  5  1  0
  5  6  1  0
  6  7  1  0
  7  8  1  0
  8  9  1  0
  7 10  1  0
 10 11  2  0
 11 12  1  0
 12 13  2  0
 13 14  1  0
 14 15  2  0
 13 16  1  0
 16 17  1  0
 16 18  2  0
 16 19  2  0
  2 20  1  0
 20 21  2  0
 21 22  1  0
 22 23  2  0
 23 24  1  0
 23 25  1  0
 25 26  2  0
  9  4  1  0
 15 10  1  0
 26 20  1  0
M  END
