CVD-0003588|dock_bobby27042020.59|mol2|20|dock1
     RDKit          3D

  6  6  0  0  0  0  0  0  0  0999 V2000
   13.9587   -2.4408   22.8761 C   0  0  0  0  0  0  0  0  0  0  0  0
   14.3564   -2.2833   24.1868 C   0  0  0  0  0  0  0  0  0  0  0  0
   14.0562   -1.1199   24.8631 C   0  0  0  0  0  0  0  0  0  0  0  0
   13.3584   -0.1142   24.2288 C   0  0  0  0  0  0  0  0  0  0  0  0
   12.9608   -0.2718   22.9180 C   0  0  0  0  0  0  0  0  0  0  0  0
   13.2609   -1.4351   22.2417 C   0  0  0  0  0  0  0  0  0  0  0  0
  1  2  2  0
  2  3  1  0
  3  4  2  0
  4  5  1  0
  5  6  2  0
  6  1  1  0
M  END
