CVD-0001481|dock_bobby27042020.9|mol2|33|dock3
     RDKit          3D

 26 28  0  0  0  0  0  0  0  0999 V2000
    9.9563   -5.3524   27.6185 C   0  0  0  0  0  0  0  0  0  0  0  0
    9.8349   -4.7172   26.3053 C   0  0  0  0  0  0  0  0  0  0  0  0
    9.7461   -4.2258   25.2246 C   0  0  0  0  0  0  0  0  0  0  0  0
    9.6017   -3.6205   23.9301 C   0  0  0  0  0  0  0  0  0  0  0  0
    8.5072   -3.8880   23.1194 C   0  0  0  0  0  0  0  0  0  0  0  0
    8.3328   -3.3449   21.9103 N   0  0  0  0  0  0  0  0  0  0  0  0
    9.2614   -2.4874   21.4429 C   0  0  0  0  0  0  0  0  0  0  0  0
    9.0592   -1.9267   20.2071 N   0  0  0  0  0  0  0  0  0  0  0  0
    7.9197   -1.4991   19.4915 C   0  0  0  0  0  0  0  0  0  0  0  0
    8.0067   -0.2790   18.8299 C   0  0  0  0  0  0  0  0  0  0  0  0
    6.9300    0.2156   18.1137 C   0  0  0  0  0  0  0  0  0  0  0  0
    5.7545   -0.4981   18.0465 C   0  0  0  0  0  0  0  0  0  0  0  0
    5.6565   -1.7114   18.6911 C   0  0  0  0  0  0  0  0  0  0  0  0
    6.7288   -2.2188   19.4066 C   0  0  0  0  0  0  0  0  0  0  0  0
   10.4164   -2.1544   22.1874 C   0  0  0  0  0  0  0  0  0  0  0  0
   11.5057   -1.2163   21.7170 C   0  0  0  0  0  0  0  0  0  0  0  0
   11.9964   -0.3151   22.7703 N   0  0  0  0  0  0  0  0  0  0  0  0
   10.8952    0.4848   23.3145 C   0  0  0  0  0  0  0  0  0  0  0  0
   11.3993    1.3831   24.4289 C   0  0  0  0  0  0  0  0  0  0  0  0
   12.4657    2.2583   23.9375 N   0  0  0  0  0  0  0  0  0  0  0  0
   13.5573    1.4896   23.3315 C   0  0  0  0  0  0  0  0  0  0  0  0
   13.0202    0.5817   22.2401 C   0  0  0  0  0  0  0  0  0  0  0  0
   12.4291    3.6067   24.0696 C   0  0  0  0  0  0  0  0  0  0  0  0
   13.5761    4.3988   23.5141 C   0  0  0  0  0  0  0  0  0  0  0  0
   11.4805    4.1566   24.6177 O   0  0  0  0  0  0  0  0  0  0  0  0
   10.5590   -2.7403   23.4409 C   0  0  0  0  0  0  0  0  0  0  0  0
  1  2  1  0
  2  3  3  0
  3  4  1  0
  4  5  2  0
  5  6  1  0
  6  7  2  0
  7  8  1  0
  8  9  1  0
  9 10  2  0
 10 11  1  0
 11 12  2  0
 12 13  1  0
 13 14  2  0
  7 15  1  0
 15 16  1  0
 16 17  1  0
 17 18  1  0
 18 19  1  0
 19 20  1  0
 20 21  1  0
 21 22  1  0
 20 23  1  0
 23 24  1  0
 23 25  2  0
 15 26  2  0
 26  4  1  0
 14  9  1  0
 22 17  1  0
M  END
