CVD-0001394|dock_bobby27042020.67|mol2|17|dock2
     RDKit          3D

 16 17  0  0  0  0  0  0  0  0999 V2000
   14.1297    6.6500   22.1044 C   0  0  0  0  0  0  0  0  0  0  0  0
   13.7087    4.9619   22.3075 S   0  0  0  0  0  0  0  0  0  0  0  0
   14.2150    4.5144   23.5682 O   0  0  0  0  0  0  0  0  0  0  0  0
   14.1067    4.2616   21.1256 O   0  0  0  0  0  0  0  0  0  0  0  0
   12.0830    4.8848   22.3791 N   0  0  0  0  0  0  0  0  0  0  0  0
   11.3314    3.6792   22.5417 C   0  0  0  0  0  0  0  0  0  0  0  0
    9.9420    3.7027   22.5930 C   0  0  0  0  0  0  0  0  0  0  0  0
    9.2371    2.5209   22.7512 C   0  0  0  0  0  0  0  0  0  0  0  0
    9.9087    1.3150   22.8585 C   0  0  0  0  0  0  0  0  0  0  0  0
   11.2969    1.2792   22.8084 C   0  0  0  0  0  0  0  0  0  0  0  0
   12.0023    2.4662   22.6497 C   0  0  0  0  0  0  0  0  0  0  0  0
   12.0172    0.0012   22.9218 C   0  0  0  0  0  0  0  0  0  0  0  0
   11.5382   -1.1970   22.7981 N   0  0  0  0  0  0  0  0  0  0  0  0
   12.6252   -2.0160   22.9954 C   0  0  0  0  0  0  0  0  0  0  0  0
   13.7227   -1.2646   23.2318 C   0  0  0  0  0  0  0  0  0  0  0  0
   13.3538    0.0530   23.1894 O   0  0  0  0  0  0  0  0  0  0  0  0
  1  2  1  0
  2  3  2  0
  2  4  2  0
  2  5  1  0
  5  6  1  0
  6  7  2  0
  7  8  1  0
  8  9  2  0
  9 10  1  0
 10 11  2  0
 10 12  1  0
 12 13  2  0
 13 14  1  0
 14 15  2  0
 15 16  1  0
 11  6  1  0
 16 12  1  0
M  END
