CVD-0000303|dock_bobby27042020.84|mol2|39|dock2
     RDKit          3D

 25 27  0  0  0  0  0  0  0  0999 V2000
   10.2736   -5.5301   25.7226 Cl  0  0  0  0  0  0  0  0  0  0  0  0
    8.5720   -4.9601   25.5804 C   0  0  0  0  0  0  0  0  0  0  0  0
    8.4867   -3.4650   25.9612 C   0  0  0  0  0  0  0  0  0  0  0  0
    8.1329   -3.1599   27.0841 O   0  0  0  0  0  0  0  0  0  0  0  0
    8.7991   -2.5067   25.0637 N   0  0  0  0  0  0  0  0  0  0  0  0
    9.3177   -2.7365   23.7178 C   0  0  0  0  0  0  0  0  0  0  0  0
   10.4880   -1.8127   23.4498 C   0  0  0  0  0  0  0  0  0  0  0  0
   10.0733   -0.3574   23.6273 C   0  0  0  0  0  0  0  0  0  0  0  0
    9.4853   -0.1608   25.0228 C   0  0  0  0  0  0  0  0  0  0  0  0
    8.3387   -1.1369   25.2643 C   0  0  0  0  0  0  0  0  0  0  0  0
   11.2477    0.5717   23.3990 C   0  0  0  0  0  0  0  0  0  0  0  0
   12.4025    0.1576   23.4427 O   0  0  0  0  0  0  0  0  0  0  0  0
   10.8775    1.8529   23.1518 N   0  0  0  0  0  0  0  0  0  0  0  0
   11.6456    3.0148   22.8891 C   0  0  0  0  0  0  0  0  0  0  0  0
   12.9872    2.9780   22.5155 C   0  0  0  0  0  0  0  0  0  0  0  0
   13.6749    4.1561   22.2745 C   0  0  0  0  0  0  0  0  0  0  0  0
   13.0438    5.3740   22.4009 C   0  0  0  0  0  0  0  0  0  0  0  0
   11.7178    5.4207   22.7699 C   0  0  0  0  0  0  0  0  0  0  0  0
   11.0197    4.2500   23.0134 C   0  0  0  0  0  0  0  0  0  0  0  0
    7.8778   -5.3252   24.2951 C   0  0  0  0  0  0  0  0  0  0  0  0
    6.7943   -4.6074   23.8085 C   0  0  0  0  0  0  0  0  0  0  0  0
    6.1972   -4.9835   22.6178 C   0  0  0  0  0  0  0  0  0  0  0  0
    6.7013   -6.0731   21.9448 C   0  0  0  0  0  0  0  0  0  0  0  0
    7.7389   -6.7862   22.3845 N   0  0  0  0  0  0  0  0  0  0  0  0
    8.3005   -6.4039   23.5353 C   0  0  0  0  0  0  0  0  0  0  0  0
  1  2  1  0
  2  3  1  0
  3  4  2  0
  3  5  1  0
  5  6  1  0
  6  7  1  0
  7  8  1  0
  8  9  1  0
  9 10  1  0
  8 11  1  0
 11 12  2  0
 11 13  1  0
 13 14  1  0
 14 15  2  0
 15 16  1  0
 16 17  2  0
 17 18  1  0
 18 19  2  0
  2 20  1  0
 20 21  2  0
 21 22  1  0
 22 23  2  0
 23 24  1  0
 24 25  2  0
 10  5  1  0
 19 14  1  0
 25 20  1  0
M  END
