CVD-0002226|dock_bobby27042020.78|mol2|13|dock3
     RDKit          3D

 15 16  0  0  0  0  0  0  0  0999 V2000
   14.2001   -2.1235   23.2143 C   0  0  0  0  0  0  0  0  0  0  0  0
   12.7323   -1.8649   23.3878 C   0  0  0  0  0  0  0  0  0  0  0  0
   11.9090   -2.7648   23.2645 O   0  0  0  0  0  0  0  0  0  0  0  0
   12.3372   -0.6057   23.6979 N   0  0  0  0  0  0  0  0  0  0  0  0
   13.2781    0.5053   23.8570 C   0  0  0  0  0  0  0  0  0  0  0  0
   12.8834    1.6662   22.9630 C   0  0  0  0  0  0  0  0  0  0  0  0
   11.5211    2.1075   23.2763 N   0  0  0  0  0  0  0  0  0  0  0  0
   11.1494    3.2544   22.4428 C   0  0  0  0  0  0  0  0  0  0  0  0
   12.1212    4.3957   22.5188 C   0  0  0  0  0  0  0  0  0  0  0  0
   12.1863    5.3557   23.5060 C   0  0  0  0  0  0  0  0  0  0  0  0
   13.2253    6.2841   23.2544 C   0  0  0  0  0  0  0  0  0  0  0  0
   13.9067    6.0305   22.1253 C   0  0  0  0  0  0  0  0  0  0  0  0
   13.3094    4.6489   21.3221 S   0  0  0  0  0  0  0  0  0  0  0  0
   10.5983    0.9965   23.0585 C   0  0  0  0  0  0  0  0  0  0  0  0
   10.9559   -0.1815   23.9464 C   0  0  0  0  0  0  0  0  0  0  0  0
  1  2  1  0
  2  3  2  0
  2  4  1  0
  4  5  1  0
  5  6  1  0
  6  7  1  0
  7  8  1  0
  8  9  1  0
  9 10  2  0
 10 11  1  0
 11 12  2  0
 12 13  1  0
  7 14  1  0
 14 15  1  0
 15  4  1  0
 13  9  1  0
M  END
