CVD-0000966|dock_bobby27042020.39|mol2|42|dock2
     RDKit          3D

 30 33  0  0  0  0  0  0  0  0999 V2000
    5.4997   -8.1300   28.3759 C   0  0  0  0  0  0  0  0  0  0  0  0
    6.2800   -7.1609   29.2469 C   0  0  0  0  0  0  0  0  0  0  0  0
    6.7047   -7.8386   30.5381 C   0  0  0  0  0  0  0  0  0  0  0  0
    7.5079   -6.6568   28.4946 C   0  0  0  0  0  0  0  0  0  0  0  0
    7.2625   -6.2011   27.1222 N   0  0  0  0  0  0  0  0  0  0  0  0
    8.5255   -5.8447   26.4764 C   0  0  0  0  0  0  0  0  0  0  0  0
    8.3059   -5.4951   25.0152 C   0  0  0  0  0  0  0  0  0  0  0  0
    7.3165   -4.4151   24.8870 N   0  0  0  0  0  0  0  0  0  0  0  0
    6.0768   -4.6364   25.6450 C   0  0  0  0  0  0  0  0  0  0  0  0
    6.3914   -5.0254   27.0797 C   0  0  0  0  0  0  0  0  0  0  0  0
    7.4407   -3.3738   23.9325 C   0  0  0  0  0  0  0  0  0  0  0  0
    8.0604   -2.1872   24.3257 C   0  0  0  0  0  0  0  0  0  0  0  0
    8.3016   -1.1769   23.4140 C   0  0  0  0  0  0  0  0  0  0  0  0
    7.9414   -1.3058   22.0845 C   0  0  0  0  0  0  0  0  0  0  0  0
    7.2807   -2.4551   21.6876 C   0  0  0  0  0  0  0  0  0  0  0  0
    6.9754   -3.4577   22.6018 C   0  0  0  0  0  0  0  0  0  0  0  0
    5.9736   -4.7786   21.9597 S   0  0  0  0  0  0  0  0  0  0  0  0
    4.5785   -4.8375   22.7426 N   0  0  0  0  0  0  0  0  0  0  0  0
    6.6438   -6.0107   22.2494 O   0  0  0  0  0  0  0  0  0  0  0  0
    5.7043   -4.4872   20.5840 O   0  0  0  0  0  0  0  0  0  0  0  0
    8.2662   -0.2095   21.0792 C   0  0  0  0  0  0  0  0  0  0  0  0
    8.8591   -0.7153   19.8490 N   0  0  0  0  0  0  0  0  0  0  0  0
    8.1568   -0.4316   18.7354 C   0  0  0  0  0  0  0  0  0  0  0  0
    8.4477   -0.7678   17.5925 O   0  0  0  0  0  0  0  0  0  0  0  0
    6.9909    0.3692   19.1690 C   0  0  0  0  0  0  0  0  0  0  0  0
    5.9569    0.9497   18.4357 C   0  0  0  0  0  0  0  0  0  0  0  0
    4.9773    1.6708   19.1029 C   0  0  0  0  0  0  0  0  0  0  0  0
    5.0245    1.8128   20.4753 C   0  0  0  0  0  0  0  0  0  0  0  0
    6.0539    1.2345   21.2018 C   0  0  0  0  0  0  0  0  0  0  0  0
    7.0440    0.5080   20.5454 C   0  0  0  0  0  0  0  0  0  0  0  0
  1  2  1  0
  2  3  1  0
  2  4  1  0
  4  5  1  0
  5  6  1  0
  6  7  1  0
  7  8  1  0
  8  9  1  0
  9 10  1  0
  8 11  1  0
 11 12  2  0
 12 13  1  0
 13 14  2  0
 14 15  1  0
 15 16  2  0
 16 17  1  0
 17 18  1  0
 17 19  2  0
 17 20  2  0
 14 21  1  0
 21 22  1  0
 22 23  1  0
 23 24  2  0
 23 25  1  0
 25 26  2  0
 26 27  1  0
 27 28  2  0
 28 29  1  0
 29 30  2  0
 10  5  1  0
 16 11  1  0
 30 21  1  0
 30 25  1  0
M  END
