CVD-0003613|dock_bobby27042020.1|mol2|28|dock1
     RDKit          3D

 21 23  0  0  0  0  0  0  0  0999 V2000
   14.1337   -1.9505   26.0151 Cl  0  0  0  0  0  0  0  0  0  0  0  0
   13.5376   -1.6109   24.4145 C   0  0  0  0  0  0  0  0  0  0  0  0
   14.1811   -2.1448   23.3205 C   0  0  0  0  0  0  0  0  0  0  0  0
   13.6590   -1.8371   22.0795 C   0  0  0  0  0  0  0  0  0  0  0  0
   12.5821   -1.0632   21.8893 N   0  0  0  0  0  0  0  0  0  0  0  0
   11.9771   -0.5598   22.9738 C   0  0  0  0  0  0  0  0  0  0  0  0
   10.7696    0.3105   22.7330 C   0  0  0  0  0  0  0  0  0  0  0  0
    9.7377   -0.3551   21.9515 N   0  0  0  0  0  0  0  0  0  0  0  0
    8.6374    0.2724   21.5455 C   0  0  0  0  0  0  0  0  0  0  0  0
    8.4130    1.4519   21.7987 O   0  0  0  0  0  0  0  0  0  0  0  0
    7.6624   -0.5522   20.7318 C   0  0  0  0  0  0  0  0  0  0  0  0
    6.8405    0.2370   19.7573 C   0  0  0  0  0  0  0  0  0  0  0  0
    7.1375    0.5016   18.4525 C   0  0  0  0  0  0  0  0  0  0  0  0
    6.1481    1.2535   17.8765 N   0  0  0  0  0  0  0  0  0  0  0  0
    5.1829    1.4905   18.8107 C   0  0  0  0  0  0  0  0  0  0  0  0
    4.0460    2.1883   18.6491 N   0  0  0  0  0  0  0  0  0  0  0  0
    3.2505    2.2825   19.7236 C   0  0  0  0  0  0  0  0  0  0  0  0
    3.5392    1.7133   20.9455 C   0  0  0  0  0  0  0  0  0  0  0  0
    4.7162    0.9968   21.0948 C   0  0  0  0  0  0  0  0  0  0  0  0
    5.5781    0.8693   20.0074 C   0  0  0  0  0  0  0  0  0  0  0  0
   12.4260   -0.8099   24.2593 C   0  0  0  0  0  0  0  0  0  0  0  0
  1  2  1  0
  2  3  2  0
  3  4  1  0
  4  5  2  0
  5  6  1  0
  6  7  1  0
  7  8  1  0
  8  9  1  0
  9 10  2  0
  9 11  1  0
 11 12  1  0
 12 13  2  0
 13 14  1  0
 14 15  1  0
 15 16  2  0
 16 17  1  0
 17 18  2  0
 18 19  1  0
 19 20  2  0
  6 21  2  0
 21  2  1  0
 20 12  1  0
 20 15  1  0
M  END
