CVD-0001415|dock_bobby27042020.81|mol2|11|dock3
     RDKit          3D

 38 42  0  0  0  0  0  0  0  0999 V2000
    3.7604    2.2304   21.0262 C   0  0  0  0  0  0  0  0  0  0  0  0
    5.2345    1.9618   21.2078 C   0  0  0  0  0  0  0  0  0  0  0  0
    6.0860    2.9728   21.6272 C   0  0  0  0  0  0  0  0  0  0  0  0
    7.4202    2.7642   21.8020 C   0  0  0  0  0  0  0  0  0  0  0  0
    7.9915    1.4933   21.5578 C   0  0  0  0  0  0  0  0  0  0  0  0
    9.3705    1.2405   21.7377 C   0  0  0  0  0  0  0  0  0  0  0  0
    9.9099   -0.0052   21.5293 C   0  0  0  0  0  0  0  0  0  0  0  0
    9.0833   -1.0316   21.0798 C   0  0  0  0  0  0  0  0  0  0  0  0
    7.7285   -0.8341   20.8605 C   0  0  0  0  0  0  0  0  0  0  0  0
    6.9106   -1.9052   20.3800 N   0  0  0  0  0  0  0  0  0  0  0  0
    6.4844   -2.9695   21.3152 C   0  0  0  0  0  0  0  0  0  0  0  0
    7.0372   -4.3656   20.9975 C   0  0  0  0  0  0  0  0  0  0  0  0
    6.8030   -5.2272   22.2290 C   0  0  0  0  0  0  0  0  0  0  0  0
    7.0225   -4.1395   23.6400 S   0  0  0  0  0  0  0  0  0  0  0  0
    5.9125   -4.2993   24.5401 O   0  0  0  0  0  0  0  0  0  0  0  0
    8.3498   -4.2763   24.1762 O   0  0  0  0  0  0  0  0  0  0  0  0
    6.8884   -2.5986   22.7262 C   0  0  0  0  0  0  0  0  0  0  0  0
    6.5018   -1.9897   19.0759 C   0  0  0  0  0  0  0  0  0  0  0  0
    5.8507   -2.9415   18.6635 O   0  0  0  0  0  0  0  0  0  0  0  0
    6.8983   -0.8596   18.1439 C   0  0  0  0  0  0  0  0  0  0  0  0
    8.6517   -0.6269   18.1262 Cl  0  0  0  0  0  0  0  0  0  0  0  0
    7.1410    0.4412   21.1157 C   0  0  0  0  0  0  0  0  0  0  0  0
    5.7598    0.7190   20.9570 C   0  0  0  0  0  0  0  0  0  0  0  0
   11.3406   -0.2921   21.7578 C   0  0  0  0  0  0  0  0  0  0  0  0
   11.9854   -1.2184   20.9641 N   0  0  0  0  0  0  0  0  0  0  0  0
   13.2964   -1.3306   21.3195 C   0  0  0  0  0  0  0  0  0  0  0  0
   13.5319   -0.4783   22.3589 C   0  0  0  0  0  0  0  0  0  0  0  0
   12.3033    0.1872   22.6658 C   0  0  0  0  0  0  0  0  0  0  0  0
   12.1490    1.1671   23.7685 C   0  0  0  0  0  0  0  0  0  0  0  0
   11.6682    0.7956   24.8331 O   0  0  0  0  0  0  0  0  0  0  0  0
   12.5713    2.5936   23.6543 C   0  0  0  0  0  0  0  0  0  0  0  0
   13.5616    2.9246   22.7363 C   0  0  0  0  0  0  0  0  0  0  0  0
   13.9766    4.2350   22.5819 C   0  0  0  0  0  0  0  0  0  0  0  0
   13.4305    5.2728   23.3327 C   0  0  0  0  0  0  0  0  0  0  0  0
   13.8910    6.6926   23.1338 C   0  0  0  0  0  0  0  0  0  0  0  0
   12.4514    4.9194   24.2529 C   0  0  0  0  0  0  0  0  0  0  0  0
   11.7277    6.1589   25.2245 Cl  0  0  0  0  0  0  0  0  0  0  0  0
   12.0282    3.6153   24.4292 C   0  0  0  0  0  0  0  0  0  0  0  0
  1  2  1  0
  2  3  2  0
  3  4  1  0
  4  5  2  0
  5  6  1  0
  6  7  2  0
  7  8  1  0
  8  9  2  0
  9 10  1  0
 11 10  1  0
 11 12  1  0
 12 13  1  0
 13 14  1  0
 14 15  2  0
 14 16  2  0
 14 17  1  0
 10 18  1  0
 18 19  2  0
 18 20  1  0
 20 21  1  0
  9 22  1  0
 22 23  2  0
  7 24  1  0
 24 25  1  0
 25 26  1  0
 26 27  2  0
 27 28  1  0
 28 29  1  0
 29 30  2  0
 29 31  1  0
 31 32  2  0
 32 33  1  0
 33 34  2  0
 34 35  1  0
 34 36  1  0
 36 37  1  0
 36 38  2  0
 23  2  1  0
 28 24  2  0
 38 31  1  0
 22  5  1  0
 17 11  1  0
M  END
