CVD-0003152|dock_bobby27042020.46|mol2|13|dock3
     RDKit          3D

 26 30  0  0  0  0  0  0  0  0999 V2000
   11.2536    1.3031   25.7968 O   0  0  0  0  0  0  0  0  0  0  0  0
   12.1009    0.4959   24.9912 C   0  0  0  0  0  0  0  0  0  0  0  0
   12.3417    0.9835   23.5688 C   0  0  0  0  0  0  0  0  0  0  0  0
   12.8351    2.2909   23.8112 F   0  0  0  0  0  0  0  0  0  0  0  0
   13.2152    0.0946   22.6737 C   0  0  0  0  0  0  0  0  0  0  0  0
   12.2742   -1.0176   22.2120 C   0  0  0  0  0  0  0  0  0  0  0  0
   10.9644   -0.3842   22.2536 N   0  0  0  0  0  0  0  0  0  0  0  0
   11.0032    0.9501   22.7987 C   0  0  0  0  0  0  0  0  0  0  0  0
    9.8157   -1.0348   21.8567 C   0  0  0  0  0  0  0  0  0  0  0  0
    9.1245   -0.3155   20.9624 N   0  0  0  0  0  0  0  0  0  0  0  0
    7.9759   -0.8084   20.4915 C   0  0  0  0  0  0  0  0  0  0  0  0
    7.4509   -1.9819   20.8464 N   0  0  0  0  0  0  0  0  0  0  0  0
    8.1519   -2.6788   21.7339 C   0  0  0  0  0  0  0  0  0  0  0  0
    7.5186   -4.1666   22.3674 S   0  0  0  0  0  0  0  0  0  0  0  0
    8.8853   -4.3006   23.4302 C   0  0  0  0  0  0  0  0  0  0  0  0
    9.2025   -5.2928   24.5040 C   0  0  0  0  0  0  0  0  0  0  0  0
   10.4717   -4.6930   25.1299 C   0  0  0  0  0  0  0  0  0  0  0  0
   10.9811   -3.5947   24.1715 C   0  0  0  0  0  0  0  0  0  0  0  0
    9.7741   -3.2856   23.3206 C   0  0  0  0  0  0  0  0  0  0  0  0
    9.3720   -2.3039   22.3234 C   0  0  0  0  0  0  0  0  0  0  0  0
    7.3004   -0.0565   19.4087 C   0  0  0  0  0  0  0  0  0  0  0  0
    5.9618    0.3045   19.5045 C   0  0  0  0  0  0  0  0  0  0  0  0
    5.3613    1.0068   18.4744 C   0  0  0  0  0  0  0  0  0  0  0  0
    6.1191    1.3302   17.3720 C   0  0  0  0  0  0  0  0  0  0  0  0
    7.4053    0.9999   17.2470 N   0  0  0  0  0  0  0  0  0  0  0  0
    7.9685    0.3218   18.2517 C   0  0  0  0  0  0  0  0  0  0  0  0
  1  2  1  0
  2  3  1  0
  3  4  1  0
  3  5  1  0
  5  6  1  0
  6  7  1  0
  7  8  1  0
  7  9  1  0
  9 10  2  0
 10 11  1  0
 11 12  2  0
 12 13  1  0
 13 14  1  0
 14 15  1  0
 15 16  1  0
 16 17  1  0
 17 18  1  0
 18 19  1  0
 19 20  1  0
 11 21  1  0
 21 22  2  0
 22 23  1  0
 23 24  2  0
 24 25  1  0
 25 26  2  0
  8  3  1  0
 20  9  1  0
 26 21  1  0
 20 13  2  0
 19 15  2  0
M  END
