CVD-0001502|dock_bobby27042020.23|mol2|38|dock1
     RDKit          3D

 25 27  0  0  0  0  0  0  0  0999 V2000
    9.3804   -1.9981   20.8656 O   0  0  0  0  0  0  0  0  0  0  0  0
   10.1705   -2.2547   21.8799 C   0  0  0  0  0  0  0  0  0  0  0  0
   11.3181   -2.6209   21.7522 O   0  0  0  0  0  0  0  0  0  0  0  0
    9.5078   -2.0487   23.2115 C   0  0  0  0  0  0  0  0  0  0  0  0
    9.7677   -0.6803   23.8182 C   0  0  0  0  0  0  0  0  0  0  0  0
   11.2199   -0.2685   23.9238 C   0  0  0  0  0  0  0  0  0  0  0  0
   11.9769   -0.6993   24.8922 C   0  0  0  0  0  0  0  0  0  0  0  0
   13.3829   -0.3779   24.9348 C   0  0  0  0  0  0  0  0  0  0  0  0
   14.0525    0.1525   23.9964 N   0  0  0  0  0  0  0  0  0  0  0  0
   13.3095    0.7329   22.8963 C   0  0  0  0  0  0  0  0  0  0  0  0
   13.5255    2.2123   22.8607 N   0  0  0  0  0  0  0  0  0  0  0  0
   12.2906    2.9052   22.8897 C   0  0  0  0  0  0  0  0  0  0  0  0
   11.2903    2.0294   22.8527 C   0  0  0  0  0  0  0  0  0  0  0  0
    9.9341    2.3915   22.6111 N   0  0  0  0  0  0  0  0  0  0  0  0
    9.0736    1.9307   21.6086 C   0  0  0  0  0  0  0  0  0  0  0  0
    9.4239    1.1046   20.7719 O   0  0  0  0  0  0  0  0  0  0  0  0
    7.8338    2.5188   21.6754 N   0  0  0  0  0  0  0  0  0  0  0  0
    6.6844    2.3574   20.8615 C   0  0  0  0  0  0  0  0  0  0  0  0
    5.5560    3.1031   21.1830 C   0  0  0  0  0  0  0  0  0  0  0  0
    4.4002    2.9929   20.4287 C   0  0  0  0  0  0  0  0  0  0  0  0
    4.3523    2.1375   19.3423 C   0  0  0  0  0  0  0  0  0  0  0  0
    5.4723    1.3912   19.0156 C   0  0  0  0  0  0  0  0  0  0  0  0
    5.4344    0.5450   17.9460 O   0  0  0  0  0  0  0  0  0  0  0  0
    6.6343    1.4959   19.7668 C   0  0  0  0  0  0  0  0  0  0  0  0
   11.7654    0.5925   22.8263 C   0  0  0  0  0  0  0  0  0  0  0  0
  1  2  1  0
  2  3  2  0
  2  4  1  0
  4  5  1  0
  5  6  1  0
  6  7  2  0
  7  8  1  0
  8  9  2  0
  9 10  1  0
 10 11  1  0
 11 12  1  0
 12 13  2  0
 13 14  1  0
 14 15  1  0
 15 16  2  0
 15 17  1  0
 17 18  1  0
 18 19  2  0
 19 20  1  0
 20 21  2  0
 21 22  1  0
 22 23  1  0
 22 24  2  0
 13 25  1  0
 25  6  1  0
 25 10  1  0
 24 18  1  0
M  END
