CVD-0003750|dock_bobby27042020.44|mol2|22|dock3
     RDKit          3D

 23 25  0  0  0  0  0  0  0  0999 V2000
    5.3871   -1.1076   18.2935 Cl  0  0  0  0  0  0  0  0  0  0  0  0
    5.7054    0.5301   18.8798 C   0  0  0  0  0  0  0  0  0  0  0  0
    5.6724    0.5929   20.3946 C   0  0  0  0  0  0  0  0  0  0  0  0
    4.8620    1.2970   20.9836 O   0  0  0  0  0  0  0  0  0  0  0  0
    6.5692   -0.1640   21.0610 N   0  0  0  0  0  0  0  0  0  0  0  0
    7.5819   -1.0288   20.4472 C   0  0  0  0  0  0  0  0  0  0  0  0
    8.9610   -0.7069   20.9863 C   0  0  0  0  0  0  0  0  0  0  0  0
    9.0097   -0.7390   22.5124 C   0  0  0  0  0  0  0  0  0  0  0  0
    7.8761    0.1028   23.0842 C   0  0  0  0  0  0  0  0  0  0  0  0
    6.5274   -0.2774   22.5144 C   0  0  0  0  0  0  0  0  0  0  0  0
   10.3210   -0.3269   23.0511 N   0  0  0  0  0  0  0  0  0  0  0  0
   11.1695   -1.3024   23.7576 C   0  0  0  0  0  0  0  0  0  0  0  0
   12.3602   -0.5668   24.3711 C   0  0  0  0  0  0  0  0  0  0  0  0
   13.2808   -0.0163   23.2962 C   0  0  0  0  0  0  0  0  0  0  0  0
   13.7433   -1.1031   22.3475 C   0  0  0  0  0  0  0  0  0  0  0  0
   12.5606   -1.8290   21.7279 C   0  0  0  0  0  0  0  0  0  0  0  0
   11.6351   -2.3908   22.7959 C   0  0  0  0  0  0  0  0  0  0  0  0
   10.1589   -1.8540   24.7794 C   0  0  0  0  0  0  0  0  0  0  0  0
    9.6057   -1.0308   25.7541 C   0  0  0  0  0  0  0  0  0  0  0  0
    8.6888   -1.5326   26.6606 C   0  0  0  0  0  0  0  0  0  0  0  0
    8.3473   -2.8618   26.5766 C   0  0  0  0  0  0  0  0  0  0  0  0
    8.8638   -3.6852   25.6649 N   0  0  0  0  0  0  0  0  0  0  0  0
    9.7481   -3.1765   24.8010 C   0  0  0  0  0  0  0  0  0  0  0  0
  1  2  1  0
  2  3  1  0
  3  4  2  0
  3  5  1  0
  5  6  1  0
  6  7  1  0
  7  8  1  0
  8  9  1  0
  9 10  1  0
  8 11  1  0
 11 12  1  0
 12 13  1  0
 13 14  1  0
 14 15  1  0
 15 16  1  0
 16 17  1  0
 12 18  1  0
 18 19  2  0
 19 20  1  0
 20 21  2  0
 21 22  1  0
 22 23  2  0
 10  5  1  0
 17 12  1  0
 23 18  1  0
M  END
