CVD-0001116|dock_bobby27042020.96|mol2|22|dock3
     RDKit          3D

 26 28  0  0  0  0  0  0  0  0999 V2000
   13.6665   -1.9119   21.6350 C   0  0  0  0  0  0  0  0  0  0  0  0
   13.3940   -2.1258   23.3517 S   0  0  0  0  0  0  0  0  0  0  0  0
   12.9423   -3.4660   23.5657 O   0  0  0  0  0  0  0  0  0  0  0  0
   14.5625   -1.6799   24.0457 O   0  0  0  0  0  0  0  0  0  0  0  0
   12.1940   -1.1520   23.7785 N   0  0  0  0  0  0  0  0  0  0  0  0
   12.4419    0.2882   23.9165 C   0  0  0  0  0  0  0  0  0  0  0  0
   12.1329    1.0109   22.6177 C   0  0  0  0  0  0  0  0  0  0  0  0
   12.1104    2.5156   22.7730 C   0  0  0  0  0  0  0  0  0  0  0  0
   13.3333    3.1642   22.6117 C   0  0  0  0  0  0  0  0  0  0  0  0
   13.4572    4.5379   22.7199 C   0  0  0  0  0  0  0  0  0  0  0  0
   12.3437    5.3091   22.9930 C   0  0  0  0  0  0  0  0  0  0  0  0
   11.0865    4.7099   23.1640 C   0  0  0  0  0  0  0  0  0  0  0  0
    9.7817    5.2184   23.4412 C   0  0  0  0  0  0  0  0  0  0  0  0
    8.9485    4.1592   23.5015 C   0  0  0  0  0  0  0  0  0  0  0  0
    9.6307    2.9803   23.2839 N   0  0  0  0  0  0  0  0  0  0  0  0
    8.9624    1.6801   23.2814 C   0  0  0  0  0  0  0  0  0  0  0  0
    8.5581    1.2238   21.8899 C   0  0  0  0  0  0  0  0  0  0  0  0
    9.0781    1.7187   20.8956 O   0  0  0  0  0  0  0  0  0  0  0  0
    7.6120    0.2536   21.8952 N   0  0  0  0  0  0  0  0  0  0  0  0
    6.9770   -0.4388   20.8344 C   0  0  0  0  0  0  0  0  0  0  0  0
    7.6903   -0.6837   19.6681 C   0  0  0  0  0  0  0  0  0  0  0  0
    7.0840   -1.3585   18.6234 C   0  0  0  0  0  0  0  0  0  0  0  0
    5.7803   -1.7701   18.7743 C   0  0  0  0  0  0  0  0  0  0  0  0
    5.0691   -1.5507   19.8803 N   0  0  0  0  0  0  0  0  0  0  0  0
    5.6629   -0.8982   20.8843 C   0  0  0  0  0  0  0  0  0  0  0  0
   10.9714    3.2995   23.0589 C   0  0  0  0  0  0  0  0  0  0  0  0
  1  2  1  0
  2  3  2  0
  2  4  2  0
  2  5  1  0
  5  6  1  0
  6  7  1  0
  7  8  1  0
  8  9  2  0
  9 10  1  0
 10 11  2  0
 11 12  1  0
 12 13  1  0
 13 14  2  0
 14 15  1  0
 15 16  1  0
 16 17  1  0
 17 18  2  0
 17 19  1  0
 19 20  1  0
 20 21  2  0
 21 22  1  0
 22 23  2  0
 23 24  1  0
 24 25  2  0
 15 26  1  0
 26  8  1  0
 26 12  2  0
 25 20  1  0
M  END
