CVD-0004025|dock_bobby27042020.86|mol2|5|dock2
     RDKit          3D

 42 44  0  0  0  0  0  0  0  0999 V2000
   13.3603   -2.4262   24.3416 C   0  0  0  0  0  0  0  0  0  0  0  0
   12.8250   -1.5637   23.2108 C   0  0  0  0  0  0  0  0  0  0  0  0
   13.2272   -0.1150   23.4258 C   0  0  0  0  0  0  0  0  0  0  0  0
   11.3072   -1.6718   23.0661 C   0  0  0  0  0  0  0  0  0  0  0  0
   10.6190   -0.6922   22.1111 C   0  0  0  0  0  0  0  0  0  0  0  0
   10.2645    0.5494   22.7954 N   0  0  0  0  0  0  0  0  0  0  0  0
    9.7059    1.8298   21.9701 S   0  0  0  0  0  0  0  0  0  0  0  0
    9.3314    1.3441   20.6802 O   0  0  0  0  0  0  0  0  0  0  0  0
    8.7387    2.4595   22.8116 O   0  0  0  0  0  0  0  0  0  0  0  0
   10.8782    2.9095   21.7310 N   0  0  0  0  0  0  0  0  0  0  0  0
   11.8086    3.1886   22.8310 C   0  0  0  0  0  0  0  0  0  0  0  0
   11.5466    4.5355   23.4606 C   0  0  0  0  0  0  0  0  0  0  0  0
   10.3495    5.1995   23.2421 C   0  0  0  0  0  0  0  0  0  0  0  0
   10.1099    6.4362   23.8174 C   0  0  0  0  0  0  0  0  0  0  0  0
   11.0656    7.0241   24.6179 C   0  0  0  0  0  0  0  0  0  0  0  0
   12.2606    6.3753   24.8426 C   0  0  0  0  0  0  0  0  0  0  0  0
   12.4995    5.1385   24.2669 C   0  0  0  0  0  0  0  0  0  0  0  0
    9.3647   -1.3427   21.5350 C   0  0  0  0  0  0  0  0  0  0  0  0
    9.4484   -2.0829   20.5597 O   0  0  0  0  0  0  0  0  0  0  0  0
    8.2132   -1.0556   22.1504 N   0  0  0  0  0  0  0  0  0  0  0  0
    6.9279   -1.5903   21.7251 C   0  0  0  0  0  0  0  0  0  0  0  0
    6.5875   -1.1328   20.3034 C   0  0  0  0  0  0  0  0  0  0  0  0
    6.1655    0.3372   20.1727 C   0  0  0  0  0  0  0  0  0  0  0  0
    4.8732    0.7069   20.9281 C   0  0  0  0  0  0  0  0  0  0  0  0
    4.1153    1.6485   20.0015 C   0  0  0  0  0  0  0  0  0  0  0  0
    4.7204    1.3936   18.7080 N   0  0  0  0  0  0  0  0  0  0  0  0
    5.8781    0.7290   18.7468 C   0  0  0  0  0  0  0  0  0  0  0  0
    6.5701    0.4512   17.7712 O   0  0  0  0  0  0  0  0  0  0  0  0
    6.8978   -3.1047   21.9575 C   0  0  0  0  0  0  0  0  0  0  0  0
    6.3751   -3.8234   21.1232 O   0  0  0  0  0  0  0  0  0  0  0  0
    7.5142   -3.7770   23.2071 C   0  0  0  0  0  0  0  0  0  0  0  0
    8.5511   -4.4364   23.1827 O   0  0  0  0  0  0  0  0  0  0  0  0
    6.7575   -3.5374   24.3072 N   0  0  0  0  0  0  0  0  0  0  0  0
    6.9334   -3.9512   25.6554 C   0  0  0  0  0  0  0  0  0  0  0  0
    7.5071   -5.1662   26.0354 C   0  0  0  0  0  0  0  0  0  0  0  0
    7.6377   -5.4849   27.3782 C   0  0  0  0  0  0  0  0  0  0  0  0
    8.1949   -6.6654   27.7536 O   0  0  0  0  0  0  0  0  0  0  0  0
    7.1923   -4.5829   28.3315 C   0  0  0  0  0  0  0  0  0  0  0  0
    7.3286   -4.9120   29.6366 F   0  0  0  0  0  0  0  0  0  0  0  0
    6.6248   -3.3823   28.0027 C   0  0  0  0  0  0  0  0  0  0  0  0
    6.5099   -3.0969   26.6675 C   0  0  0  0  0  0  0  0  0  0  0  0
    5.9503   -1.9124   26.3287 F   0  0  0  0  0  0  0  0  0  0  0  0
  1  2  1  0
  2  3  1  0
  2  4  1  0
  5  4  1  0
  5  6  1  0
  6  7  1  0
  7  8  2  0
  7  9  2  0
  7 10  1  0
 10 11  1  0
 11 12  1  0
 12 13  2  0
 13 14  1  0
 14 15  2  0
 15 16  1  0
 16 17  2  0
  5 18  1  0
 18 19  2  0
 18 20  1  0
 20 21  1  0
 21 22  1  0
 23 22  1  0
 23 24  1  0
 24 25  1  0
 25 26  1  0
 26 27  1  0
 27 28  2  0
 21 29  1  0
 29 30  2  0
 29 31  1  0
 31 32  2  0
 31 33  1  0
 33 34  1  0
 34 35  2  0
 35 36  1  0
 36 37  1  0
 36 38  2  0
 38 39  1  0
 38 40  1  0
 40 41  2  0
 41 42  1  0
 17 12  1  0
 27 23  1  0
 41 34  1  0
M  END
