CVD-0000220|dock_bobby27042020.99|mol2|20|dock2
     RDKit          3D

 24 26  0  0  0  0  0  0  0  0999 V2000
    3.4112    3.5548   21.9878 C   0  0  0  0  0  0  0  0  0  0  0  0
    3.3767    3.1440   20.5169 C   0  0  0  0  0  0  0  0  0  0  0  0
    4.6658    2.3939   20.0870 C   0  0  0  0  0  0  0  0  0  0  0  0
    4.9119    1.0758   20.8273 C   0  0  0  0  0  0  0  0  0  0  0  0
    5.8780    0.1750   20.0967 C   0  0  0  0  0  0  0  0  0  0  0  0
    5.5106   -0.4508   18.9170 C   0  0  0  0  0  0  0  0  0  0  0  0
    6.4002   -1.2776   18.2546 C   0  0  0  0  0  0  0  0  0  0  0  0
    7.6688   -1.4880   18.7669 C   0  0  0  0  0  0  0  0  0  0  0  0
    8.0608   -0.8724   19.9499 C   0  0  0  0  0  0  0  0  0  0  0  0
    9.3739   -1.1314   20.4190 N   0  0  0  0  0  0  0  0  0  0  0  0
    9.9458   -0.9307   21.6548 C   0  0  0  0  0  0  0  0  0  0  0  0
    9.3604   -0.4572   22.6230 O   0  0  0  0  0  0  0  0  0  0  0  0
   11.2627   -1.3300   21.6663 N   0  0  0  0  0  0  0  0  0  0  0  0
   12.2234   -1.3069   22.7087 C   0  0  0  0  0  0  0  0  0  0  0  0
   12.1881   -0.4345   23.7924 C   0  0  0  0  0  0  0  0  0  0  0  0
   13.1837   -0.5049   24.7516 C   0  0  0  0  0  0  0  0  0  0  0  0
   14.1829   -1.4390   24.6048 C   0  0  0  0  0  0  0  0  0  0  0  0
   14.2438   -2.2874   23.5789 N   0  0  0  0  0  0  0  0  0  0  0  0
   13.2781   -2.2112   22.6587 C   0  0  0  0  0  0  0  0  0  0  0  0
    7.1525   -0.0421   20.6056 C   0  0  0  0  0  0  0  0  0  0  0  0
    2.9882    4.2499   19.6111 N   0  0  0  0  0  0  0  0  0  0  0  0
    1.7193    3.5696   19.2611 C   0  0  0  0  0  0  0  0  0  0  0  0
    2.0843    2.4077   20.1736 C   0  0  0  0  0  0  0  0  0  0  0  0
    1.1209    2.1498   21.2014 O   0  0  0  0  0  0  0  0  0  0  0  0
  2  1  1  0
  2  3  1  0
  3  4  1  0
  4  5  1  0
  5  6  2  0
  6  7  1  0
  7  8  2  0
  8  9  1  0
  9 10  1  0
 10 11  1  0
 11 12  2  0
 11 13  1  0
 13 14  1  0
 14 15  2  0
 15 16  1  0
 16 17  2  0
 17 18  1  0
 18 19  2  0
  9 20  2  0
  2 21  1  0
 21 22  1  0
 22 23  1  0
 23 24  1  0
 23  2  1  0
 20  5  1  0
 19 14  1  0
M  END
