CVD-0003990|dock_bobby27042020.72|mol2|10|dock2
     RDKit          3D

 19 19  0  0  0  0  0  0  0  0999 V2000
   13.8721    5.7108   22.2419 C   0  0  0  0  0  0  0  0  0  0  0  0
   13.7636    4.2983   22.5574 N   0  0  0  0  0  0  0  0  0  0  0  0
   12.6262    3.6209   22.3919 C   0  0  0  0  0  0  0  0  0  0  0  0
   11.6191    4.1971   21.9563 O   0  0  0  0  0  0  0  0  0  0  0  0
   12.5939    2.1790   22.7370 C   0  0  0  0  0  0  0  0  0  0  0  0
   11.5309    1.4826   23.1011 C   0  0  0  0  0  0  0  0  0  0  0  0
   11.5302    0.0256   23.4436 C   0  0  0  0  0  0  0  0  0  0  0  0
   10.8852   -0.8546   22.3887 C   0  0  0  0  0  0  0  0  0  0  0  0
    9.2873   -0.2765   21.9107 S   0  0  0  0  0  0  0  0  0  0  0  0
    9.4349    0.9981   21.2693 O   0  0  0  0  0  0  0  0  0  0  0  0
    8.3748   -0.3783   23.0132 O   0  0  0  0  0  0  0  0  0  0  0  0
    8.7762   -1.4066   20.6731 C   0  0  0  0  0  0  0  0  0  0  0  0
    9.4233   -2.4246   20.5839 O   0  0  0  0  0  0  0  0  0  0  0  0
    7.6172   -1.1228   19.7955 C   0  0  0  0  0  0  0  0  0  0  0  0
    7.6425   -1.4205   18.4818 C   0  0  0  0  0  0  0  0  0  0  0  0
    6.6264   -1.1840   17.6319 O   0  0  0  0  0  0  0  0  0  0  0  0
    5.5056   -0.5306   18.1457 C   0  0  0  0  0  0  0  0  0  0  0  0
    5.3874   -0.1837   19.4137 C   0  0  0  0  0  0  0  0  0  0  0  0
    6.4159   -0.4816   20.4730 C   0  0  0  0  0  0  0  0  0  0  0  0
  1  2  1  0
  2  3  1  0
  3  4  2  0
  3  5  1  0
  5  6  2  0
  6  7  1  0
  7  8  1  0
  8  9  1  0
  9 10  2  0
  9 11  2  0
  9 12  1  0
 12 13  2  0
 12 14  1  0
 14 15  2  0
 15 16  1  0
 16 17  1  0
 17 18  2  0
 18 19  1  0
 19 14  1  0
M  END
