CVD-0001786|dock_bobby27042020.80|mol2|7|dock1
     RDKit          3D

 29 32  0  0  0  0  0  0  0  0999 V2000
   13.8969   -1.7729   24.4361 C   0  0  0  0  0  0  0  0  0  0  0  0
   13.5673   -1.3252   23.0160 C   0  0  0  0  0  0  0  0  0  0  0  0
   13.6457    0.2045   22.8858 C   0  0  0  0  0  0  0  0  0  0  0  0
   12.5467    0.8733   23.7068 C   0  0  0  0  0  0  0  0  0  0  0  0
   11.1668    0.3753   23.2830 C   0  0  0  0  0  0  0  0  0  0  0  0
   11.0680   -1.1391   23.3436 C   0  0  0  0  0  0  0  0  0  0  0  0
   12.1964   -1.8148   22.5565 C   0  0  0  0  0  0  0  0  0  0  0  0
    9.6871   -1.6557   22.9602 C   0  0  0  0  0  0  0  0  0  0  0  0
    8.9677   -0.6524   22.0779 C   0  0  0  0  0  0  0  0  0  0  0  0
    8.5752    0.5244   22.8563 N   0  0  0  0  0  0  0  0  0  0  0  0
    7.7645    0.1543   24.0206 C   0  0  0  0  0  0  0  0  0  0  0  0
    8.4972   -0.8689   24.8692 C   0  0  0  0  0  0  0  0  0  0  0  0
    8.8294   -2.0526   24.0807 N   0  0  0  0  0  0  0  0  0  0  0  0
    9.0428   -3.2806   24.8694 C   0  0  0  0  0  0  0  0  0  0  0  0
    8.4587   -3.2211   26.2803 C   0  0  0  0  0  0  0  0  0  0  0  0
    8.8245   -4.4618   27.0832 C   0  0  0  0  0  0  0  0  0  0  0  0
    8.3872   -5.7220   26.3637 C   0  0  0  0  0  0  0  0  0  0  0  0
    8.9711   -5.7960   24.9483 C   0  0  0  0  0  0  0  0  0  0  0  0
    8.6069   -4.5522   24.1302 C   0  0  0  0  0  0  0  0  0  0  0  0
    7.1729   -4.5432   23.7605 N   0  0  0  0  0  0  0  0  0  0  0  0
    6.4561   -3.2687   23.6505 C   0  0  0  0  0  0  0  0  0  0  0  0
    5.0125   -3.5022   23.9370 C   0  0  0  0  0  0  0  0  0  0  0  0
    4.4462   -4.4645   23.0607 O   0  0  0  0  0  0  0  0  0  0  0  0
    5.1371   -5.6962   23.1587 C   0  0  0  0  0  0  0  0  0  0  0  0
    6.6091   -5.5385   22.8578 C   0  0  0  0  0  0  0  0  0  0  0  0
    8.9458    1.7662   22.4722 C   0  0  0  0  0  0  0  0  0  0  0  0
    9.5801    1.9382   21.4389 O   0  0  0  0  0  0  0  0  0  0  0  0
    8.5803    2.9574   23.3330 C   0  0  0  0  0  0  0  0  0  0  0  0
    9.2986    4.5037   22.7294 S   0  0  0  0  0  0  0  0  0  0  0  0
  1  2  1  0
  2  3  1  0
  3  4  1  0
  4  5  1  0
  5  6  1  0
  6  7  1  0
  6  8  1  0
  8  9  1  0
  9 10  1  0
 10 11  1  0
 11 12  1  0
 12 13  1  0
 13 14  1  0
 14 15  1  0
 15 16  1  0
 16 17  1  0
 17 18  1  0
 18 19  1  0
 19 20  1  0
 20 21  1  0
 21 22  1  0
 22 23  1  0
 23 24  1  0
 24 25  1  0
 10 26  1  0
 26 27  2  0
 26 28  1  0
 28 29  1  0
  7  2  1  0
 13  8  1  0
 19 14  1  0
 25 20  1  0
M  END
