CVD-0001088|dock_bobby27042020.68|mol2|14|dock3
     RDKit          3D

 22 23  0  0  0  0  0  0  0  0999 V2000
   14.0607    6.0928   22.0694 C   0  0  0  0  0  0  0  0  0  0  0  0
   13.1023    4.9615   21.9669 C   0  0  0  0  0  0  0  0  0  0  0  0
   13.8212    3.7393   22.1719 O   0  0  0  0  0  0  0  0  0  0  0  0
   13.1662    2.5335   22.2210 C   0  0  0  0  0  0  0  0  0  0  0  0
   11.8233    2.4234   21.8955 C   0  0  0  0  0  0  0  0  0  0  0  0
   11.2005    1.1893   21.9591 C   0  0  0  0  0  0  0  0  0  0  0  0
   11.8921    0.0434   22.3406 C   0  0  0  0  0  0  0  0  0  0  0  0
   11.2235   -1.2612   22.4057 C   0  0  0  0  0  0  0  0  0  0  0  0
   10.0203   -1.5168   22.9118 C   0  0  0  0  0  0  0  0  0  0  0  0
    9.4595   -2.8809   22.9163 C   0  0  0  0  0  0  0  0  0  0  0  0
    9.8879   -3.6854   23.7511 O   0  0  0  0  0  0  0  0  0  0  0  0
    8.4042   -3.3001   21.9499 C   0  0  0  0  0  0  0  0  0  0  0  0
    7.7459   -4.5235   22.1227 C   0  0  0  0  0  0  0  0  0  0  0  0
    6.7648   -4.9265   21.2351 C   0  0  0  0  0  0  0  0  0  0  0  0
    5.8043   -6.7686   21.5332 I   0  0  0  0  0  0  0  0  0  0  0  0
    6.4038   -4.1438   20.1580 C   0  0  0  0  0  0  0  0  0  0  0  0
    7.0451   -2.9315   19.9730 C   0  0  0  0  0  0  0  0  0  0  0  0
    6.5004   -1.7378   18.3375 I   0  0  0  0  0  0  0  0  0  0  0  0
    8.0417   -2.4839   20.8440 C   0  0  0  0  0  0  0  0  0  0  0  0
    8.6037   -1.2709   20.5605 O   0  0  0  0  0  0  0  0  0  0  0  0
   13.2402    0.1788   22.6578 C   0  0  0  0  0  0  0  0  0  0  0  0
   13.8748    1.4067   22.5997 C   0  0  0  0  0  0  0  0  0  0  0  0
  1  2  1  0
  2  3  1  0
  3  4  1  0
  4  5  2  0
  5  6  1  0
  6  7  2  0
  7  8  1  0
  8  9  2  0
  9 10  1  0
 10 11  2  0
 10 12  1  0
 12 13  2  0
 13 14  1  0
 14 15  1  0
 14 16  2  0
 16 17  1  0
 17 18  1  0
 17 19  2  0
 19 20  1  0
  7 21  1  0
 21 22  2  0
 22  4  1  0
 19 12  1  0
M  END
