CVD-0000453|dock_bobby27042020.27|mol2|11|dock1
     RDKit          3D

 27 31  0  0  0  0  0  0  0  0999 V2000
   14.1812    5.5880   22.4701 N   0  0  0  0  0  0  0  0  0  0  0  0
   13.0759    4.7728   22.9925 C   0  0  0  0  0  0  0  0  0  0  0  0
   11.6344    5.0456   22.6553 C   0  0  0  0  0  0  0  0  0  0  0  0
   12.4017    4.0217   21.8807 C   0  0  0  0  0  0  0  0  0  0  0  0
   12.0900    2.5558   22.1061 C   0  0  0  0  0  0  0  0  0  0  0  0
   10.8228    2.0404   21.8760 C   0  0  0  0  0  0  0  0  0  0  0  0
   10.4639    0.7879   22.0457 N   0  0  0  0  0  0  0  0  0  0  0  0
   11.4186   -0.0835   22.4876 C   0  0  0  0  0  0  0  0  0  0  0  0
   11.0679   -1.4544   22.6851 C   0  0  0  0  0  0  0  0  0  0  0  0
    9.6527   -1.9170   22.4090 C   0  0  0  0  0  0  0  0  0  0  0  0
    8.6658   -0.8307   22.3392 N   0  0  0  0  0  0  0  0  0  0  0  0
    8.2754   -0.3669   23.6736 C   0  0  0  0  0  0  0  0  0  0  0  0
    7.3311    0.8156   23.5625 C   0  0  0  0  0  0  0  0  0  0  0  0
    6.1291    0.4558   22.8079 N   0  0  0  0  0  0  0  0  0  0  0  0
    4.8758    0.4749   23.3443 C   0  0  0  0  0  0  0  0  0  0  0  0
    3.8932    0.1664   22.6817 O   0  0  0  0  0  0  0  0  0  0  0  0
    4.6829    0.8910   24.7913 C   0  0  0  0  0  0  0  0  0  0  0  0
    5.4538   -0.2522   25.8992 Cl  0  0  0  0  0  0  0  0  0  0  0  0
    6.5014   -0.0996   21.4923 C   0  0  0  0  0  0  0  0  0  0  0  0
    6.8240    0.9066   20.4070 C   0  0  0  0  0  0  0  0  0  0  0  0
    5.6170    0.0235   20.2805 C   0  0  0  0  0  0  0  0  0  0  0  0
    7.4757   -1.2658   21.6102 C   0  0  0  0  0  0  0  0  0  0  0  0
   12.0211   -2.3340   23.1276 C   0  0  0  0  0  0  0  0  0  0  0  0
   13.3184   -1.9238   23.3880 C   0  0  0  0  0  0  0  0  0  0  0  0
   13.6875   -0.6234   23.2109 C   0  0  0  0  0  0  0  0  0  0  0  0
   12.7457    0.3302   22.7557 C   0  0  0  0  0  0  0  0  0  0  0  0
   13.0529    1.6926   22.5487 C   0  0  0  0  0  0  0  0  0  0  0  0
  2  1  1  0
  2  3  1  0
  3  4  1  0
  4  5  1  0
  5  6  2  0
  6  7  1  0
  7  8  2  0
  8  9  1  0
  9 10  1  0
 10 11  1  0
 11 12  1  0
 12 13  1  0
 13 14  1  0
 14 15  1  0
 15 16  2  0
 15 17  1  0
 17 18  1  0
 14 19  1  0
 19 20  1  0
 20 21  1  0
 19 22  1  0
  9 23  2  0
 23 24  1  0
 24 25  2  0
 25 26  1  0
 26 27  2  0
  4  2  1  0
 27  5  1  0
 26  8  1  0
 22 11  1  0
 21 19  1  0
M  END
