CVD-0001899|dock_bobby27042020.36|mol2|35|dock1
     RDKit          3D

 34 36  0  0  0  0  0  0  0  0999 V2000
    4.0308    1.0091   19.9730 C   0  0  0  0  0  0  0  0  0  0  0  0
    5.3074    1.3349   19.2115 C   0  0  0  0  0  0  0  0  0  0  0  0
    6.1628    0.1197   18.8353 C   0  0  0  0  0  0  0  0  0  0  0  0
    7.4513    0.6287   18.1742 C   0  0  0  0  0  0  0  0  0  0  0  0
    5.4080   -0.7118   17.7900 C   0  0  0  0  0  0  0  0  0  0  0  0
    6.4818   -0.7368   20.0716 C   0  0  0  0  0  0  0  0  0  0  0  0
    6.7493   -0.1656   21.3116 C   0  0  0  0  0  0  0  0  0  0  0  0
    7.0538   -0.9436   22.4144 C   0  0  0  0  0  0  0  0  0  0  0  0
    7.0999   -2.3294   22.3249 C   0  0  0  0  0  0  0  0  0  0  0  0
    6.8180   -2.9067   21.0927 C   0  0  0  0  0  0  0  0  0  0  0  0
    6.5167   -2.1248   19.9918 C   0  0  0  0  0  0  0  0  0  0  0  0
    7.4310   -3.1216   23.4766 N   0  0  0  0  0  0  0  0  0  0  0  0
    8.7144   -2.8913   24.1905 C   0  0  0  0  0  0  0  0  0  0  0  0
    9.7723   -2.2748   23.2541 C   0  0  0  0  0  0  0  0  0  0  0  0
    9.7001   -2.4550   22.0422 O   0  0  0  0  0  0  0  0  0  0  0  0
   10.7158   -1.5634   23.9211 N   0  0  0  0  0  0  0  0  0  0  0  0
   11.8513   -0.8446   23.4506 C   0  0  0  0  0  0  0  0  0  0  0  0
   12.6196   -1.2993   22.3738 C   0  0  0  0  0  0  0  0  0  0  0  0
   13.7187   -0.5773   21.9377 C   0  0  0  0  0  0  0  0  0  0  0  0
   14.0763    0.6054   22.5553 C   0  0  0  0  0  0  0  0  0  0  0  0
   13.3079    1.0303   23.6077 C   0  0  0  0  0  0  0  0  0  0  0  0
   13.6476    2.1880   24.2196 F   0  0  0  0  0  0  0  0  0  0  0  0
   12.2020    0.3575   24.0942 C   0  0  0  0  0  0  0  0  0  0  0  0
   11.4386    0.9227   25.2705 C   0  0  0  0  0  0  0  0  0  0  0  0
    9.2356   -4.1590   24.8512 C   0  0  0  0  0  0  0  0  0  0  0  0
    9.6257   -4.1874   26.1815 C   0  0  0  0  0  0  0  0  0  0  0  0
   10.0943   -5.3660   26.7355 C   0  0  0  0  0  0  0  0  0  0  0  0
   10.1590   -6.4862   25.9380 C   0  0  0  0  0  0  0  0  0  0  0  0
    9.7918   -6.4927   24.6554 N   0  0  0  0  0  0  0  0  0  0  0  0
    9.3427   -5.3438   24.1416 C   0  0  0  0  0  0  0  0  0  0  0  0
    6.6102   -4.1545   23.9131 C   0  0  0  0  0  0  0  0  0  0  0  0
    6.9302   -4.8644   24.8655 O   0  0  0  0  0  0  0  0  0  0  0  0
    5.2945   -4.4431   23.2679 C   0  0  0  0  0  0  0  0  0  0  0  0
    4.7346   -5.6179   23.3896 C   0  0  0  0  0  0  0  0  0  0  0  0
  1  2  1  0
  2  3  1  0
  3  4  1  0
  3  5  1  0
  3  6  1  0
  6  7  2  0
  7  8  1  0
  8  9  2  0
  9 10  1  0
 10 11  2  0
  9 12  1  0
 12 13  1  0
 13 14  1  0
 14 15  2  0
 14 16  1  0
 16 17  1  0
 17 18  2  0
 18 19  1  0
 19 20  2  0
 20 21  1  0
 21 22  1  0
 21 23  2  0
 23 24  1  0
 13 25  1  0
 25 26  2  0
 26 27  1  0
 27 28  2  0
 28 29  1  0
 29 30  2  0
 12 31  1  0
 31 32  2  0
 31 33  1  0
 33 34  2  0
 11  6  1  0
 23 17  1  0
 30 25  1  0
M  END
