CVD-0001101|dock_bobby27042020.25|mol2|8|dock2
     RDKit          3D

 24 26  0  0  0  0  0  0  0  0999 V2000
   11.4993    6.2118   24.1226 C   0  0  0  0  0  0  0  0  0  0  0  0
   12.5193    5.2653   23.5613 C   0  0  0  0  0  0  0  0  0  0  0  0
   13.6105    5.0949   24.0959 O   0  0  0  0  0  0  0  0  0  0  0  0
   12.1773    4.6320   22.4375 N   0  0  0  0  0  0  0  0  0  0  0  0
   13.0652    3.6962   21.7626 C   0  0  0  0  0  0  0  0  0  0  0  0
   13.3226    2.4582   22.5983 C   0  0  0  0  0  0  0  0  0  0  0  0
   12.1680    1.4996   22.5976 C   0  0  0  0  0  0  0  0  0  0  0  0
   10.8647    1.7767   22.3381 C   0  0  0  0  0  0  0  0  0  0  0  0
   10.1019    0.6507   22.4374 N   0  0  0  0  0  0  0  0  0  0  0  0
    8.6638    0.5792   22.1957 C   0  0  0  0  0  0  0  0  0  0  0  0
    8.3634   -0.1903   20.9108 C   0  0  0  0  0  0  0  0  0  0  0  0
    9.2705   -0.7211   20.2823 O   0  0  0  0  0  0  0  0  0  0  0  0
    7.0780   -0.2643   20.5067 N   0  0  0  0  0  0  0  0  0  0  0  0
    6.6665   -0.9660   19.2852 C   0  0  0  0  0  0  0  0  0  0  0  0
    5.6998   -0.1057   18.4970 C   0  0  0  0  0  0  0  0  0  0  0  0
    4.5814    0.2771   19.2716 O   0  0  0  0  0  0  0  0  0  0  0  0
    5.0057    1.0204   20.4145 C   0  0  0  0  0  0  0  0  0  0  0  0
    5.9293    0.2022   21.2893 C   0  0  0  0  0  0  0  0  0  0  0  0
   10.9307   -0.4135   22.7565 C   0  0  0  0  0  0  0  0  0  0  0  0
   10.6584   -1.7631   22.9540 C   0  0  0  0  0  0  0  0  0  0  0  0
   11.7068   -2.6095   23.2777 C   0  0  0  0  0  0  0  0  0  0  0  0
   12.9934   -2.1270   23.4023 C   0  0  0  0  0  0  0  0  0  0  0  0
   13.2674   -0.7839   23.2028 C   0  0  0  0  0  0  0  0  0  0  0  0
   12.2359    0.0932   22.8727 C   0  0  0  0  0  0  0  0  0  0  0  0
  1  2  1  0
  2  3  2  0
  2  4  1  0
  4  5  1  0
  5  6  1  0
  6  7  1  0
  7  8  2  0
  8  9  1  0
  9 10  1  0
 10 11  1  0
 11 12  2  0
 11 13  1  0
 13 14  1  0
 14 15  1  0
 15 16  1  0
 16 17  1  0
 17 18  1  0
  9 19  1  0
 19 20  2  0
 20 21  1  0
 21 22  2  0
 22 23  1  0
 23 24  2  0
 24  7  1  0
 18 13  1  0
 24 19  1  0
M  END
