CVD-0001417|dock_bobby27042020.38|mol2|14|dock1
     RDKit          3D

 38 42  0  0  0  0  0  0  0  0999 V2000
   12.9527    3.3814   23.4864 C   0  0  0  0  0  0  0  0  0  0  0  0
   13.5787    2.1641   22.9079 C   0  0  0  0  0  0  0  0  0  0  0  0
   14.7941    2.0851   22.4320 N   0  0  0  0  0  0  0  0  0  0  0  0
   14.9868    0.7794   21.9858 N   0  0  0  0  0  0  0  0  0  0  0  0
   13.8811    0.1196   22.2131 C   0  0  0  0  0  0  0  0  0  0  0  0
   13.6378   -1.3096   21.8878 C   0  0  0  0  0  0  0  0  0  0  0  0
   12.9461    0.9466   22.7923 N   0  0  0  0  0  0  0  0  0  0  0  0
   11.5642    0.5905   23.2079 C   0  0  0  0  0  0  0  0  0  0  0  0
   10.5945    1.6491   22.7100 C   0  0  0  0  0  0  0  0  0  0  0  0
    9.1956    1.1341   22.5943 N   0  0  0  0  0  0  0  0  0  0  0  0
    8.4138    2.3520   22.3364 C   0  0  0  0  0  0  0  0  0  0  0  0
    6.9754    2.0887   21.9448 C   0  0  0  0  0  0  0  0  0  0  0  0
    5.9270    2.6955   22.6005 C   0  0  0  0  0  0  0  0  0  0  0  0
    4.5984    2.4773   22.2668 C   0  0  0  0  0  0  0  0  0  0  0  0
    3.4961    3.1768   23.0243 C   0  0  0  0  0  0  0  0  0  0  0  0
    4.3114    1.6206   21.2349 C   0  0  0  0  0  0  0  0  0  0  0  0
    5.3330    0.9611   20.5139 C   0  0  0  0  0  0  0  0  0  0  0  0
    5.0543    0.0746   19.4479 C   0  0  0  0  0  0  0  0  0  0  0  0
    6.0530   -0.5601   18.7532 C   0  0  0  0  0  0  0  0  0  0  0  0
    5.7306   -1.5049   17.6212 C   0  0  0  0  0  0  0  0  0  0  0  0
    7.3700   -0.3205   19.1158 C   0  0  0  0  0  0  0  0  0  0  0  0
    7.6945    0.5234   20.1342 C   0  0  0  0  0  0  0  0  0  0  0  0
    6.6902    1.1981   20.8739 C   0  0  0  0  0  0  0  0  0  0  0  0
    8.4676    0.1657   23.4619 C   0  0  0  0  0  0  0  0  0  0  0  0
    9.3767   -0.7393   24.2747 C   0  0  0  0  0  0  0  0  0  0  0  0
    9.9765   -1.6769   23.2131 C   0  0  0  0  0  0  0  0  0  0  0  0
    9.0667   -2.7617   22.6892 C   0  0  0  0  0  0  0  0  0  0  0  0
    8.6222   -2.7439   21.3784 C   0  0  0  0  0  0  0  0  0  0  0  0
    7.7962   -3.7778   20.9860 C   0  0  0  0  0  0  0  0  0  0  0  0
    7.4222   -4.7646   21.7996 N   0  0  0  0  0  0  0  0  0  0  0  0
    7.9087   -4.6817   23.0332 C   0  0  0  0  0  0  0  0  0  0  0  0
    8.7110   -3.7397   23.5330 N   0  0  0  0  0  0  0  0  0  0  0  0
   10.2651   -0.0657   25.2104 N   0  0  0  0  0  0  0  0  0  0  0  0
   11.5814    0.3034   24.6966 C   0  0  0  0  0  0  0  0  0  0  0  0
    9.8946    0.2649   26.4870 C   0  0  0  0  0  0  0  0  0  0  0  0
   10.6258    0.8136   27.2999 O   0  0  0  0  0  0  0  0  0  0  0  0
    8.4914   -0.0545   26.9722 C   0  0  0  0  0  0  0  0  0  0  0  0
    8.1219    0.7279   28.5147 Cl  0  0  0  0  0  0  0  0  0  0  0  0
  1  2  1  0
  2  3  2  0
  3  4  1  0
  4  5  2  0
  5  6  1  0
  5  7  1  0
  8  7  1  0
  8  9  1  0
  9 10  1  0
 10 11  1  0
 11 12  1  0
 12 13  2  0
 13 14  1  0
 14 15  1  0
 14 16  2  0
 16 17  1  0
 17 18  2  0
 18 19  1  0
 19 20  1  0
 19 21  2  0
 21 22  1  0
 22 23  2  0
 10 24  1  0
 24 25  1  0
 25 26  1  0
 26 27  1  0
 27 28  2  0
 28 29  1  0
 29 30  2  0
 30 31  1  0
 31 32  2  0
 25 33  1  0
 33 34  1  0
 33 35  1  0
 35 36  2  0
 35 37  1  0
 37 38  1  0
  7  2  1  0
 34  8  1  0
 23 12  1  0
 32 27  1  0
 23 17  1  0
M  END
