CVD-0001316|dock_bobby27042020.53|mol2|9|dock2
     RDKit          3D

 17 17  0  0  0  0  0  0  0  0999 V2000
   14.4049   -2.4191   25.7111 C   0  0  0  0  0  0  0  0  0  0  0  0
   13.6961   -1.1940   25.1679 C   0  0  0  0  0  0  0  0  0  0  0  0
   12.7359   -1.5009   24.0263 C   0  0  0  0  0  0  0  0  0  0  0  0
   13.4988   -1.9211   22.7709 C   0  0  0  0  0  0  0  0  0  0  0  0
   11.9167   -0.2623   23.7098 C   0  0  0  0  0  0  0  0  0  0  0  0
   12.3519    0.8426   23.9726 O   0  0  0  0  0  0  0  0  0  0  0  0
   10.7003   -0.3912   23.1430 N   0  0  0  0  0  0  0  0  0  0  0  0
   10.0993   -1.6433   22.6910 C   0  0  0  0  0  0  0  0  0  0  0  0
    9.4974   -1.4603   21.3129 C   0  0  0  0  0  0  0  0  0  0  0  0
    8.4656   -0.3393   21.3237 C   0  0  0  0  0  0  0  0  0  0  0  0
    9.1085    0.9411   21.8519 C   0  0  0  0  0  0  0  0  0  0  0  0
    9.7363    0.7011   23.2210 C   0  0  0  0  0  0  0  0  0  0  0  0
    7.8882   -0.1240   19.9445 C   0  0  0  0  0  0  0  0  0  0  0  0
    8.3792   -0.5443   18.9292 O   0  0  0  0  0  0  0  0  0  0  0  0
    6.3955    0.8061   19.9312 S   0  0  0  0  0  0  0  0  0  0  0  0
    5.7478    0.5602   18.2957 C   0  0  0  0  0  0  0  0  0  0  0  0
    5.6659   -0.7647   17.9268 F   0  0  0  0  0  0  0  0  0  0  0  0
  1  2  1  0
  2  3  1  0
  3  4  1  0
  3  5  1  0
  5  6  2  0
  5  7  1  0
  7  8  1  0
  8  9  1  0
  9 10  1  0
 10 11  1  0
 11 12  1  0
 10 13  1  0
 13 14  2  0
 13 15  1  0
 15 16  1  0
 16 17  1  0
 12  7  1  0
M  END
