CVD-0001674|dock_bobby27042020.80|mol2|23|dock2
     RDKit          3D

 19 19  0  0  0  0  0  0  0  0999 V2000
   13.6128   -1.2261   24.5872 C   0  0  0  0  0  0  0  0  0  0  0  0
   12.7455   -0.0043   24.5187 C   0  0  0  0  0  0  0  0  0  0  0  0
   11.6965   -0.1662   25.4467 F   0  0  0  0  0  0  0  0  0  0  0  0
   12.1013    0.2393   23.1545 C   0  0  0  0  0  0  0  0  0  0  0  0
   12.9535   -0.3362   22.1214 N   0  0  0  0  0  0  0  0  0  0  0  0
   12.6884   -1.5109   21.5393 C   0  0  0  0  0  0  0  0  0  0  0  0
   13.6775   -1.9729   20.5098 C   0  0  0  0  0  0  0  0  0  0  0  0
   11.7042   -2.1798   21.8386 O   0  0  0  0  0  0  0  0  0  0  0  0
   11.8463    1.7120   22.9023 C   0  0  0  0  0  0  0  0  0  0  0  0
   10.5548    2.1935   22.7472 C   0  0  0  0  0  0  0  0  0  0  0  0
   10.3663    3.5350   22.5221 C   0  0  0  0  0  0  0  0  0  0  0  0
    9.0923    3.9875   22.3712 F   0  0  0  0  0  0  0  0  0  0  0  0
   11.3907    4.4455   22.4408 C   0  0  0  0  0  0  0  0  0  0  0  0
   12.6777    3.9559   22.6003 C   0  0  0  0  0  0  0  0  0  0  0  0
   12.9034    2.6067   22.8268 C   0  0  0  0  0  0  0  0  0  0  0  0
   14.0502    5.0648   22.5033 S   0  0  0  0  0  0  0  0  0  0  0  0
   13.5430    6.5344   22.8854 N   0  0  0  0  0  0  0  0  0  0  0  0
   14.9925    4.6680   23.5060 O   0  0  0  0  0  0  0  0  0  0  0  0
   14.4718    5.1049   21.1351 O   0  0  0  0  0  0  0  0  0  0  0  0
  1  2  1  0
  2  3  1  0
  2  4  1  0
  4  5  1  0
  5  6  1  0
  6  7  1  0
  6  8  2  0
  4  9  1  0
  9 10  2  0
 10 11  1  0
 11 12  1  0
 11 13  2  0
 13 14  1  0
 14 15  2  0
 14 16  1  0
 16 17  1  0
 16 18  2  0
 16 19  2  0
 15  9  1  0
M  END
