CVD-0003080|dock_bobby27042020.3|mol2|19|dock3
     RDKit          3D

 26 28  0  0  0  0  0  0  0  0999 V2000
    8.4860   -0.5665   18.4453 N   0  0  0  0  0  0  0  0  0  0  0  0
    7.0713   -1.2141   18.8231 S   0  0  0  0  0  0  0  0  0  0  0  0
    6.2555   -0.1660   19.3590 O   0  0  0  0  0  0  0  0  0  0  0  0
    6.6111   -1.9282   17.6702 O   0  0  0  0  0  0  0  0  0  0  0  0
    7.3234   -2.3976   20.1111 C   0  0  0  0  0  0  0  0  0  0  0  0
    6.6394   -3.6006   20.0759 C   0  0  0  0  0  0  0  0  0  0  0  0
    6.8233   -4.5033   21.1043 C   0  0  0  0  0  0  0  0  0  0  0  0
    7.6770   -4.2267   22.1660 C   0  0  0  0  0  0  0  0  0  0  0  0
    7.9429   -5.2570   23.2366 C   0  0  0  0  0  0  0  0  0  0  0  0
    8.3977   -4.5986   24.5226 C   0  0  0  0  0  0  0  0  0  0  0  0
    9.5721   -3.6766   24.2468 C   0  0  0  0  0  0  0  0  0  0  0  0
    9.1880   -2.6561   23.2802 N   0  0  0  0  0  0  0  0  0  0  0  0
    9.9446   -1.4039   23.2803 C   0  0  0  0  0  0  0  0  0  0  0  0
   11.0743   -1.3605   22.2696 C   0  0  0  0  0  0  0  0  0  0  0  0
   11.3148   -0.0032   21.8012 N   0  0  0  0  0  0  0  0  0  0  0  0
   12.1548    0.8313   22.4451 C   0  0  0  0  0  0  0  0  0  0  0  0
   12.7729    0.4735   23.4434 O   0  0  0  0  0  0  0  0  0  0  0  0
   12.2191    2.0719   21.8594 N   0  0  0  0  0  0  0  0  0  0  0  0
   12.9548    3.2277   22.2224 C   0  0  0  0  0  0  0  0  0  0  0  0
   12.8295    4.3729   21.4466 C   0  0  0  0  0  0  0  0  0  0  0  0
   13.5396    5.5112   21.7848 C   0  0  0  0  0  0  0  0  0  0  0  0
   14.3564    5.4729   22.8907 C   0  0  0  0  0  0  0  0  0  0  0  0
   14.4984    4.3904   23.6555 N   0  0  0  0  0  0  0  0  0  0  0  0
   13.8086    3.2954   23.3212 C   0  0  0  0  0  0  0  0  0  0  0  0
    8.3707   -2.9983   22.1950 C   0  0  0  0  0  0  0  0  0  0  0  0
    8.1829   -2.0886   21.1548 C   0  0  0  0  0  0  0  0  0  0  0  0
  1  2  1  0
  2  3  2  0
  2  4  2  0
  2  5  1  0
  5  6  2  0
  6  7  1  0
  7  8  2  0
  8  9  1  0
  9 10  1  0
 10 11  1  0
 11 12  1  0
 12 13  1  0
 13 14  1  0
 14 15  1  0
 15 16  1  0
 16 17  2  0
 16 18  1  0
 18 19  1  0
 19 20  2  0
 20 21  1  0
 21 22  2  0
 22 23  1  0
 23 24  2  0
 12 25  1  0
 25 26  2  0
 26  5  1  0
 25  8  1  0
 24 19  1  0
M  END
