CVD-0003896|dock_bobby27042020.44|mol2|1|dock1
     RDKit          3D

 26 28  0  0  0  0  0  0  0  0999 V2000
   13.2960    5.1809   22.0970 Cl  0  0  0  0  0  0  0  0  0  0  0  0
   13.5090    3.4890   22.5652 C   0  0  0  0  0  0  0  0  0  0  0  0
   12.2153    2.7143   22.4005 C   0  0  0  0  0  0  0  0  0  0  0  0
   11.2331    3.2613   21.9147 O   0  0  0  0  0  0  0  0  0  0  0  0
   12.1860    1.4188   22.7949 N   0  0  0  0  0  0  0  0  0  0  0  0
   13.3234    0.6873   23.3699 C   0  0  0  0  0  0  0  0  0  0  0  0
   13.4358   -0.6837   22.7351 C   0  0  0  0  0  0  0  0  0  0  0  0
   12.1333   -1.4568   22.8973 C   0  0  0  0  0  0  0  0  0  0  0  0
   10.9826   -0.6481   22.3264 C   0  0  0  0  0  0  0  0  0  0  0  0
   10.8974    0.7370   22.9489 C   0  0  0  0  0  0  0  0  0  0  0  0
    9.6655   -1.3589   22.5046 C   0  0  0  0  0  0  0  0  0  0  0  0
    9.2545   -1.8052   23.7551 C   0  0  0  0  0  0  0  0  0  0  0  0
    8.0364   -2.4592   23.8797 C   0  0  0  0  0  0  0  0  0  0  0  0
    7.5585   -2.9529   25.2239 C   0  0  0  0  0  0  0  0  0  0  0  0
    7.5916   -4.4908   25.3430 C   0  0  0  0  0  0  0  0  0  0  0  0
    6.8111   -5.1796   24.2499 C   0  0  0  0  0  0  0  0  0  0  0  0
    7.4523   -5.6855   23.1293 C   0  0  0  0  0  0  0  0  0  0  0  0
    6.7374   -6.3205   22.1274 C   0  0  0  0  0  0  0  0  0  0  0  0
    5.3642   -6.4593   22.2344 C   0  0  0  0  0  0  0  0  0  0  0  0
    4.7073   -5.9584   23.3530 C   0  0  0  0  0  0  0  0  0  0  0  0
    5.4332   -5.3209   24.3565 C   0  0  0  0  0  0  0  0  0  0  0  0
    3.2773   -6.0958   23.4790 C   0  0  0  0  0  0  0  0  0  0  0  0
    2.1449   -6.2260   23.5533 N   0  0  0  0  0  0  0  0  0  0  0  0
    7.2778   -2.6365   22.7344 C   0  0  0  0  0  0  0  0  0  0  0  0
    7.7605   -2.1630   21.5306 C   0  0  0  0  0  0  0  0  0  0  0  0
    8.9343   -1.5321   21.3965 N   0  0  0  0  0  0  0  0  0  0  0  0
  1  2  1  0
  2  3  1  0
  3  4  2  0
  3  5  1  0
  5  6  1  0
  6  7  1  0
  7  8  1  0
  8  9  1  0
  9 10  1  0
  9 11  1  0
 11 12  2  0
 12 13  1  0
 13 14  1  0
 14 15  1  0
 15 16  1  0
 16 17  2  0
 17 18  1  0
 18 19  2  0
 19 20  1  0
 20 21  2  0
 20 22  1  0
 22 23  3  0
 13 24  2  0
 24 25  1  0
 25 26  2  0
 10  5  1  0
 26 11  1  0
 21 16  1  0
M  END
