CVD-0001136|dock_bobby27042020.39|mol2|14|dock2
     RDKit          3D

 24 26  0  0  0  0  0  0  0  0999 V2000
    5.3555    1.5268   18.2656 C   0  0  0  0  0  0  0  0  0  0  0  0
    6.6881    0.8400   18.2043 C   0  0  0  0  0  0  0  0  0  0  0  0
    7.4445    1.0020   17.2532 O   0  0  0  0  0  0  0  0  0  0  0  0
    7.0260    0.0207   19.2302 N   0  0  0  0  0  0  0  0  0  0  0  0
    6.2069   -0.2450   20.4114 C   0  0  0  0  0  0  0  0  0  0  0  0
    7.0056    0.0097   21.6717 C   0  0  0  0  0  0  0  0  0  0  0  0
    8.2453   -0.7634   21.6461 N   0  0  0  0  0  0  0  0  0  0  0  0
    9.0645   -0.4978   20.4649 C   0  0  0  0  0  0  0  0  0  0  0  0
    8.2657   -0.7526   19.2045 C   0  0  0  0  0  0  0  0  0  0  0  0
    8.5811   -1.5775   22.6654 C   0  0  0  0  0  0  0  0  0  0  0  0
    7.9389   -1.6033   23.6978 O   0  0  0  0  0  0  0  0  0  0  0  0
    9.8098   -2.4784   22.4961 C   0  0  0  0  0  0  0  0  0  0  0  0
    9.7750   -3.5445   23.5625 C   0  0  0  0  0  0  0  0  0  0  0  0
    8.7563   -4.3191   24.0136 C   0  0  0  0  0  0  0  0  0  0  0  0
    9.2204   -5.1504   25.0055 N   0  0  0  0  0  0  0  0  0  0  0  0
   10.5037   -4.8714   25.1418 C   0  0  0  0  0  0  0  0  0  0  0  0
   10.8780   -3.9054   24.2872 N   0  0  0  0  0  0  0  0  0  0  0  0
   11.0730   -1.6520   22.5520 C   0  0  0  0  0  0  0  0  0  0  0  0
   11.9660   -1.8550   21.5772 N   0  0  0  0  0  0  0  0  0  0  0  0
   13.0981   -1.1369   21.6035 C   0  0  0  0  0  0  0  0  0  0  0  0
   13.3974   -0.2051   22.5727 C   0  0  0  0  0  0  0  0  0  0  0  0
   12.4786    0.0087   23.5850 C   0  0  0  0  0  0  0  0  0  0  0  0
   11.3075   -0.7258   23.5680 C   0  0  0  0  0  0  0  0  0  0  0  0
   10.1409   -0.4769   24.8255 Cl  0  0  0  0  0  0  0  0  0  0  0  0
  1  2  1  0
  2  3  2  0
  2  4  1  0
  4  5  1  0
  5  6  1  0
  6  7  1  0
  7  8  1  0
  8  9  1  0
  7 10  1  0
 10 11  2  0
 10 12  1  0
 12 13  1  0
 13 14  2  0
 14 15  1  0
 15 16  2  0
 16 17  1  0
 12 18  1  0
 18 19  2  0
 19 20  1  0
 20 21  2  0
 21 22  1  0
 22 23  2  0
 23 24  1  0
  9  4  1  0
 17 13  1  0
 23 18  1  0
M  END
