CVD-0001719|dock_bobby27042020.37|mol2|21|dock2
     RDKit          3D

 16 17  0  0  0  0  0  0  0  0999 V2000
   13.6400    5.1355   22.0951 C   0  0  0  0  0  0  0  0  0  0  0  0
   12.2652    4.6650   22.5029 C   0  0  0  0  0  0  0  0  0  0  0  0
   11.3680    5.5299   23.1098 C   0  0  0  0  0  0  0  0  0  0  0  0
   10.1061    5.0954   23.4792 C   0  0  0  0  0  0  0  0  0  0  0  0
    9.7274    3.7851   23.2432 C   0  0  0  0  0  0  0  0  0  0  0  0
   10.6055    2.9010   22.6378 C   0  0  0  0  0  0  0  0  0  0  0  0
   10.2032    1.4698   22.3716 C   0  0  0  0  0  0  0  0  0  0  0  0
   11.3262    0.5223   22.4291 N   0  0  0  0  0  0  0  0  0  0  0  0
   10.8859   -0.8312   22.0706 C   0  0  0  0  0  0  0  0  0  0  0  0
   12.0382   -1.8165   22.0701 C   0  0  0  0  0  0  0  0  0  0  0  0
   12.7762   -1.8593   23.4026 C   0  0  0  0  0  0  0  0  0  0  0  0
   13.1329   -0.4315   23.8013 C   0  0  0  0  0  0  0  0  0  0  0  0
   11.9306    0.4969   23.7637 C   0  0  0  0  0  0  0  0  0  0  0  0
   13.9780   -2.7086   23.3902 C   0  0  0  0  0  0  0  0  0  0  0  0
   14.8928   -3.3867   23.4109 N   0  0  0  0  0  0  0  0  0  0  0  0
   11.8661    3.3567   22.2740 C   0  0  0  0  0  0  0  0  0  0  0  0
  1  2  1  0
  2  3  2  0
  3  4  1  0
  4  5  2  0
  5  6  1  0
  6  7  1  0
  7  8  1  0
  8  9  1  0
  9 10  1  0
 10 11  1  0
 11 12  1  0
 12 13  1  0
 11 14  1  0
 14 15  3  0
  6 16  2  0
 16  2  1  0
 13  8  1  0
M  END
