CVD-0003050|dock_bobby27042020.61|mol2|10|dock2
     RDKit          3D

 34 37  0  0  0  0  0  0  0  0999 V2000
    3.7475    2.9201   20.8664 C   0  0  0  0  0  0  0  0  0  0  0  0
    3.9901    2.0053   19.7021 C   0  0  0  0  0  0  0  0  0  0  0  0
    3.1010    1.3020   19.2328 O   0  0  0  0  0  0  0  0  0  0  0  0
    5.2333    1.9885   19.2173 N   0  0  0  0  0  0  0  0  0  0  0  0
    5.6295    1.1411   18.1018 C   0  0  0  0  0  0  0  0  0  0  0  0
    5.8522   -0.2946   18.5340 C   0  0  0  0  0  0  0  0  0  0  0  0
    7.0801   -0.4688   19.3789 C   0  0  0  0  0  0  0  0  0  0  0  0
    8.3207   -0.8568   18.9658 C   0  0  0  0  0  0  0  0  0  0  0  0
    9.1848   -0.9021   20.0257 N   0  0  0  0  0  0  0  0  0  0  0  0
    8.5034   -0.5383   21.1613 C   0  0  0  0  0  0  0  0  0  0  0  0
    8.9566   -0.4359   22.4865 C   0  0  0  0  0  0  0  0  0  0  0  0
    8.0238   -0.0300   23.4413 C   0  0  0  0  0  0  0  0  0  0  0  0
    6.7102    0.2526   23.0994 C   0  0  0  0  0  0  0  0  0  0  0  0
    6.2791    0.1421   21.7870 C   0  0  0  0  0  0  0  0  0  0  0  0
    7.1737   -0.2557   20.7952 C   0  0  0  0  0  0  0  0  0  0  0  0
   10.3904   -0.7487   22.8659 C   0  0  0  0  0  0  0  0  0  0  0  0
   10.4842   -1.8669   23.9120 C   0  0  0  0  0  0  0  0  0  0  0  0
    9.5147   -3.0274   23.6954 C   0  0  0  0  0  0  0  0  0  0  0  0
    9.3704   -3.9114   24.9105 C   0  0  0  0  0  0  0  0  0  0  0  0
    8.4891   -3.5805   25.9282 C   0  0  0  0  0  0  0  0  0  0  0  0
    8.3539   -4.3929   27.0417 C   0  0  0  0  0  0  0  0  0  0  0  0
    9.0983   -5.5476   27.1506 C   0  0  0  0  0  0  0  0  0  0  0  0
    9.9774   -5.8896   26.1456 C   0  0  0  0  0  0  0  0  0  0  0  0
   10.1118   -5.0766   25.0326 C   0  0  0  0  0  0  0  0  0  0  0  0
   11.1508    0.4497   23.2921 N   0  0  0  0  0  0  0  0  0  0  0  0
   10.7319    1.6422   22.5373 C   0  0  0  0  0  0  0  0  0  0  0  0
   11.4749    2.8644   23.0107 C   0  0  0  0  0  0  0  0  0  0  0  0
   12.9234    2.6631   22.9047 N   0  0  0  0  0  0  0  0  0  0  0  0
   13.3709    1.4484   23.5834 C   0  0  0  0  0  0  0  0  0  0  0  0
   12.5859    0.2635   23.0731 C   0  0  0  0  0  0  0  0  0  0  0  0
   13.8160    3.5364   22.3854 C   0  0  0  0  0  0  0  0  0  0  0  0
   15.0085    3.2618   22.3394 O   0  0  0  0  0  0  0  0  0  0  0  0
   13.3118    4.8636   21.8514 C   0  0  0  0  0  0  0  0  0  0  0  0
   12.5579    5.8258   23.1294 Cl  0  0  0  0  0  0  0  0  0  0  0  0
  1  2  1  0
  2  3  2  0
  2  4  1  0
  4  5  1  0
  5  6  1  0
  6  7  1  0
  7  8  2  0
  8  9  1  0
  9 10  1  0
 10 11  2  0
 11 12  1  0
 12 13  2  0
 13 14  1  0
 14 15  2  0
 11 16  1  0
 16 17  1  0
 17 18  1  0
 18 19  1  0
 19 20  2  0
 20 21  1  0
 21 22  2  0
 22 23  1  0
 23 24  2  0
 16 25  1  0
 25 26  1  0
 26 27  1  0
 27 28  1  0
 28 29  1  0
 29 30  1  0
 28 31  1  0
 31 32  2  0
 31 33  1  0
 33 34  1  0
 15  7  1  0
 24 19  1  0
 30 25  1  0
 15 10  1  0
M  END
