CVD-0000933|dock_bobby27042020.25|mol2|35|dock1
     RDKit          3D

 27 28  0  0  0  0  0  0  0  0999 V2000
    9.4583   -2.6096   24.0032 C   0  0  0  0  0  0  0  0  0  0  0  0
   10.9380   -2.6270   23.8766 C   0  0  0  0  0  0  0  0  0  0  0  0
   11.3100   -1.7092   22.8071 O   0  0  0  0  0  0  0  0  0  0  0  0
   11.2796   -0.4111   23.0966 C   0  0  0  0  0  0  0  0  0  0  0  0
   11.1072    0.0196   24.2072 O   0  0  0  0  0  0  0  0  0  0  0  0
   11.4739    0.4688   21.8678 C   0  0  0  0  0  0  0  0  0  0  0  0
   11.6178    1.9441   22.2548 C   0  0  0  0  0  0  0  0  0  0  0  0
   12.9211    2.2495   22.9937 C   0  0  0  0  0  0  0  0  0  0  0  0
   13.0556    3.7048   23.3717 C   0  0  0  0  0  0  0  0  0  0  0  0
   13.9369    4.5350   22.6963 C   0  0  0  0  0  0  0  0  0  0  0  0
   14.0629    5.8694   23.0446 C   0  0  0  0  0  0  0  0  0  0  0  0
   13.3090    6.3902   24.0741 C   0  0  0  0  0  0  0  0  0  0  0  0
   12.4297    5.5762   24.7551 C   0  0  0  0  0  0  0  0  0  0  0  0
   12.3045    4.2419   24.4059 C   0  0  0  0  0  0  0  0  0  0  0  0
   10.4812    0.1831   20.8137 N   0  0  0  0  0  0  0  0  0  0  0  0
    9.0438   -0.0209   21.0759 C   0  0  0  0  0  0  0  0  0  0  0  0
    8.4565    1.0249   22.0147 C   0  0  0  0  0  0  0  0  0  0  0  0
    8.1729   -0.0817   19.8140 C   0  0  0  0  0  0  0  0  0  0  0  0
    8.1911    0.8272   19.0100 O   0  0  0  0  0  0  0  0  0  0  0  0
    7.3821   -1.1452   19.5925 N   0  0  0  0  0  0  0  0  0  0  0  0
    7.2694   -2.3305   20.4555 C   0  0  0  0  0  0  0  0  0  0  0  0
    6.2407   -3.2295   19.7839 C   0  0  0  0  0  0  0  0  0  0  0  0
    5.7076   -2.4917   18.5773 C   0  0  0  0  0  0  0  0  0  0  0  0
    6.5041   -1.1719   18.4147 C   0  0  0  0  0  0  0  0  0  0  0  0
    5.6896    0.1067   18.2874 C   0  0  0  0  0  0  0  0  0  0  0  0
    4.9164    0.3223   19.3209 O   0  0  0  0  0  0  0  0  0  0  0  0
    5.7583    0.8388   17.3248 O   0  0  0  0  0  0  0  0  0  0  0  0
  1  2  1  0
  2  3  1  0
  3  4  1  0
  4  5  2  0
  4  6  1  0
  6  7  1  0
  7  8  1  0
  8  9  1  0
  9 10  2  0
 10 11  1  0
 11 12  2  0
 12 13  1  0
 13 14  2  0
  6 15  1  0
 15 16  1  0
 16 17  1  0
 16 18  1  0
 18 19  2  0
 18 20  1  0
 20 21  1  0
 21 22  1  0
 22 23  1  0
 23 24  1  0
 24 25  1  0
 25 26  1  0
 25 27  2  0
 14  9  1  0
 24 20  1  0
M  END
