CVD-0000820|dock_bobby27042020.26|mol2|10|dock2
     RDKit          3D

 30 33  0  0  0  0  0  0  0  0999 V2000
   13.9816    5.5523   21.7871 C   0  0  0  0  0  0  0  0  0  0  0  0
   13.2323    5.2833   23.0660 C   0  0  0  0  0  0  0  0  0  0  0  0
   11.9396    4.5178   22.8609 C   0  0  0  0  0  0  0  0  0  0  0  0
   11.9369    3.1278   22.8524 C   0  0  0  0  0  0  0  0  0  0  0  0
   10.7649    2.4127   22.6589 C   0  0  0  0  0  0  0  0  0  0  0  0
   10.7009    1.0421   22.6422 O   0  0  0  0  0  0  0  0  0  0  0  0
   11.8284    0.2202   23.0354 C   0  0  0  0  0  0  0  0  0  0  0  0
   11.6547   -1.2591   22.7136 C   0  0  0  0  0  0  0  0  0  0  0  0
   12.7841   -2.1128   23.2557 C   0  0  0  0  0  0  0  0  0  0  0  0
   12.9477   -1.9440   24.7047 N   0  0  0  0  0  0  0  0  0  0  0  0
   14.0061   -2.8147   25.2133 C   0  0  0  0  0  0  0  0  0  0  0  0
   13.2318   -0.5369   24.9988 C   0  0  0  0  0  0  0  0  0  0  0  0
   12.0976    0.3591   24.5298 C   0  0  0  0  0  0  0  0  0  0  0  0
    9.5615    3.0990   22.4698 C   0  0  0  0  0  0  0  0  0  0  0  0
    8.2583    2.6682   22.2516 N   0  0  0  0  0  0  0  0  0  0  0  0
    7.7588    1.2919   22.1840 C   0  0  0  0  0  0  0  0  0  0  0  0
    7.1741    0.9467   20.8356 C   0  0  0  0  0  0  0  0  0  0  0  0
    5.8533    1.2456   20.5391 C   0  0  0  0  0  0  0  0  0  0  0  0
    5.3177    0.9320   19.3011 C   0  0  0  0  0  0  0  0  0  0  0  0
    6.0973    0.3167   18.3453 C   0  0  0  0  0  0  0  0  0  0  0  0
    7.4124    0.0154   18.6272 C   0  0  0  0  0  0  0  0  0  0  0  0
    7.9479    0.3292   19.8652 C   0  0  0  0  0  0  0  0  0  0  0  0
    7.4644    3.7730   22.1502 C   0  0  0  0  0  0  0  0  0  0  0  0
    8.1898    4.9133   22.2763 C   0  0  0  0  0  0  0  0  0  0  0  0
    7.6951    6.3356   22.2177 C   0  0  0  0  0  0  0  0  0  0  0  0
    6.3368    6.4687   21.6797 N   0  0  0  0  0  0  0  0  0  0  0  0
    6.2032    7.7320   20.9633 C   0  0  0  0  0  0  0  0  0  0  0  0
    5.3490    6.4208   22.7527 C   0  0  0  0  0  0  0  0  0  0  0  0
    9.5486    4.5034   22.4814 C   0  0  0  0  0  0  0  0  0  0  0  0
   10.7420    5.1951   22.6735 C   0  0  0  0  0  0  0  0  0  0  0  0
  1  2  1  0
  2  3  1  0
  3  4  2  0
  4  5  1  0
  5  6  1  0
  6  7  1  0
  7  8  1  0
  8  9  1  0
  9 10  1  0
 10 11  1  0
 10 12  1  0
 12 13  1  0
  5 14  2  0
 14 15  1  0
 15 16  1  0
 16 17  1  0
 17 18  2  0
 18 19  1  0
 19 20  2  0
 20 21  1  0
 21 22  2  0
 15 23  1  0
 23 24  2  0
 24 25  1  0
 25 26  1  0
 26 27  1  0
 26 28  1  0
 24 29  1  0
 29 30  2  0
 30  3  1  0
 13  7  1  0
 29 14  1  0
 22 17  1  0
M  END
