CVD-0002856|dock_bobby27042020.61|mol2|39|dock3
     RDKit          3D

 21 23  0  0  0  0  0  0  0  0999 V2000
   13.8292    5.7725   21.6498 C   0  0  0  0  0  0  0  0  0  0  0  0
   12.6503    4.8621   21.7453 C   0  0  0  0  0  0  0  0  0  0  0  0
   12.3608    3.9661   20.8626 N   0  0  0  0  0  0  0  0  0  0  0  0
   11.2065    3.2498   21.1750 N   0  0  0  0  0  0  0  0  0  0  0  0
   10.6636    3.6372   22.2793 C   0  0  0  0  0  0  0  0  0  0  0  0
    9.4143    3.0077   22.8183 C   0  0  0  0  0  0  0  0  0  0  0  0
    9.0148    1.8458   22.0510 N   0  0  0  0  0  0  0  0  0  0  0  0
    7.6412    1.7993   21.5668 C   0  0  0  0  0  0  0  0  0  0  0  0
    7.5478    0.8864   20.3572 C   0  0  0  0  0  0  0  0  0  0  0  0
    8.0102   -0.5085   20.7234 C   0  0  0  0  0  0  0  0  0  0  0  0
    9.3769   -0.4741   21.3638 C   0  0  0  0  0  0  0  0  0  0  0  0
   10.2085   -1.5877   21.3374 C   0  0  0  0  0  0  0  0  0  0  0  0
   11.4281   -1.5893   21.9850 C   0  0  0  0  0  0  0  0  0  0  0  0
   11.8238   -0.4546   22.6728 C   0  0  0  0  0  0  0  0  0  0  0  0
   11.0197    0.6743   22.7203 C   0  0  0  0  0  0  0  0  0  0  0  0
    9.7881    0.6780   22.0670 C   0  0  0  0  0  0  0  0  0  0  0  0
   13.4051   -0.4199   23.4614 S   0  0  0  0  0  0  0  0  0  0  0  0
   14.1180   -1.8348   23.2313 N   0  0  0  0  0  0  0  0  0  0  0  0
   13.1782   -0.2840   24.8689 O   0  0  0  0  0  0  0  0  0  0  0  0
   14.1963    0.5671   22.7899 O   0  0  0  0  0  0  0  0  0  0  0  0
   11.5234    4.9305   23.0605 S   0  0  0  0  0  0  0  0  0  0  0  0
  1  2  1  0
  2  3  2  0
  3  4  1  0
  4  5  2  0
  5  6  1  0
  6  7  1  0
  7  8  1  0
  8  9  1  0
  9 10  1  0
 10 11  1  0
 11 12  2  0
 12 13  1  0
 13 14  2  0
 14 15  1  0
 15 16  2  0
 14 17  1  0
 17 18  1  0
 17 19  2  0
 17 20  2  0
  5 21  1  0
 21  2  1  0
 16  7  1  0
 16 11  1  0
M  END
