CVD-0000018|dock_bobby27042020.14|mol2|26|dock3
     RDKit          3D

 25 27  0  0  0  0  0  0  0  0999 V2000
   13.8394   -0.0697   22.7186 C   0  0  0  0  0  0  0  0  0  0  0  0
   13.5222   -1.5543   21.8456 S   0  0  0  0  0  0  0  0  0  0  0  0
   13.7640   -2.6506   22.7318 O   0  0  0  0  0  0  0  0  0  0  0  0
   14.2399   -1.5042   20.6094 O   0  0  0  0  0  0  0  0  0  0  0  0
   11.9610   -1.5801   21.4816 N   0  0  0  0  0  0  0  0  0  0  0  0
   10.9664   -1.7756   22.5413 C   0  0  0  0  0  0  0  0  0  0  0  0
    9.5827   -1.6585   21.9557 C   0  0  0  0  0  0  0  0  0  0  0  0
    8.3625   -1.5122   22.8168 C   0  0  0  0  0  0  0  0  0  0  0  0
    8.8270   -0.3157   22.0081 C   0  0  0  0  0  0  0  0  0  0  0  0
    9.5155    0.8222   22.7697 C   0  0  0  0  0  0  0  0  0  0  0  0
    9.1048    1.1649   23.8697 O   0  0  0  0  0  0  0  0  0  0  0  0
   10.5712    1.3718   22.1189 N   0  0  0  0  0  0  0  0  0  0  0  0
   11.4462    2.4245   22.4881 C   0  0  0  0  0  0  0  0  0  0  0  0
   12.0275    3.1914   21.4866 C   0  0  0  0  0  0  0  0  0  0  0  0
   12.8848    4.2240   21.8231 C   0  0  0  0  0  0  0  0  0  0  0  0
   13.1377    4.4621   23.1538 C   0  0  0  0  0  0  0  0  0  0  0  0
   12.5964    3.7452   24.1385 N   0  0  0  0  0  0  0  0  0  0  0  0
   11.7695    2.7496   23.8039 C   0  0  0  0  0  0  0  0  0  0  0  0
    7.9970    0.0575   20.7872 C   0  0  0  0  0  0  0  0  0  0  0  0
    8.5324   -0.0040   19.5064 C   0  0  0  0  0  0  0  0  0  0  0  0
    7.7732    0.3372   18.3998 C   0  0  0  0  0  0  0  0  0  0  0  0
    6.4603    0.7479   18.5557 C   0  0  0  0  0  0  0  0  0  0  0  0
    5.9319    0.8084   19.8263 C   0  0  0  0  0  0  0  0  0  0  0  0
    4.2819    1.3232   20.0386 Cl  0  0  0  0  0  0  0  0  0  0  0  0
    6.6784    0.4708   20.9368 C   0  0  0  0  0  0  0  0  0  0  0  0
  1  2  1  0
  2  3  2  0
  2  4  2  0
  2  5  1  0
  5  6  1  0
  6  7  1  0
  7  8  1  0
  8  9  1  0
  9 10  1  0
 10 11  2  0
 10 12  1  0
 12 13  1  0
 13 14  2  0
 14 15  1  0
 15 16  2  0
 16 17  1  0
 17 18  2  0
  9 19  1  0
 19 20  2  0
 20 21  1  0
 21 22  2  0
 22 23  1  0
 23 24  1  0
 23 25  2  0
  9  7  1  0
 18 13  1  0
 25 19  1  0
M  END
