CVD-0000072|dock_bobby27042020.99|mol2|43|dock2
     RDKit          3D

 14 14  0  0  0  0  0  0  0  0999 V2000
   13.3761   -2.1290   21.4401 C   0  0  0  0  0  0  0  0  0  0  0  0
   12.8647   -1.3731   22.6396 C   0  0  0  0  0  0  0  0  0  0  0  0
   13.7154   -1.2015   23.7276 C   0  0  0  0  0  0  0  0  0  0  0  0
   13.2772   -0.5127   24.8360 C   0  0  0  0  0  0  0  0  0  0  0  0
   12.0586    0.0116   24.9296 N   0  0  0  0  0  0  0  0  0  0  0  0
   11.2327   -0.1459   23.8904 C   0  0  0  0  0  0  0  0  0  0  0  0
   11.5702   -0.8241   22.7186 C   0  0  0  0  0  0  0  0  0  0  0  0
   10.6966   -0.9949   21.6078 N   0  0  0  0  0  0  0  0  0  0  0  0
    9.3546   -0.7184   21.5011 C   0  0  0  0  0  0  0  0  0  0  0  0
    8.6343   -0.2545   22.3798 O   0  0  0  0  0  0  0  0  0  0  0  0
    8.8651   -1.0154   20.2811 N   0  0  0  0  0  0  0  0  0  0  0  0
    7.4646   -0.8026   19.9445 C   0  0  0  0  0  0  0  0  0  0  0  0
    7.2616    0.5174   19.2495 C   0  0  0  0  0  0  0  0  0  0  0  0
    5.4200    0.7161   18.6522 Br  0  0  0  0  0  0  0  0  0  0  0  0
  1  2  1  0
  2  3  2  0
  3  4  1  0
  4  5  2  0
  5  6  1  0
  6  7  2  0
  7  8  1  0
  8  9  1  0
  9 10  2  0
  9 11  1  0
 11 12  1  0
 12 13  1  0
 13 14  1  0
  7  2  1  0
M  END
