CVD-0003675|dock_bobby27042020.73|mol2|7|dock3
     RDKit          3D

 14 13  0  0  0  0  0  0  0  0999 V2000
   13.3409    3.9551   22.2648 C   0  0  0  0  0  0  0  0  0  0  0  0
   13.3572    2.5993   22.7824 N   0  0  0  0  0  0  0  0  0  0  0  0
   12.2570    1.8362   22.7066 C   0  0  0  0  0  0  0  0  0  0  0  0
   11.2293    2.2711   22.2014 O   0  0  0  0  0  0  0  0  0  0  0  0
   12.2837    0.5630   23.1974 N   0  0  0  0  0  0  0  0  0  0  0  0
   13.4658   -0.0987   23.7271 C   0  0  0  0  0  0  0  0  0  0  0  0
   11.0414   -0.2107   23.2737 C   0  0  0  0  0  0  0  0  0  0  0  0
   10.8433   -1.0838   22.0462 C   0  0  0  0  0  0  0  0  0  0  0  0
    9.4860   -1.6327   21.9811 N   0  0  0  0  0  0  0  0  0  0  0  0
    8.4964   -0.8399   21.2697 C   0  0  0  0  0  0  0  0  0  0  0  0
    9.1985   -2.7889   22.6050 C   0  0  0  0  0  0  0  0  0  0  0  0
   10.0402   -3.4187   23.2333 O   0  0  0  0  0  0  0  0  0  0  0  0
    7.7640   -3.2681   22.4913 C   0  0  0  0  0  0  0  0  0  0  0  0
    7.5615   -4.9247   23.0765 Cl  0  0  0  0  0  0  0  0  0  0  0  0
  1  2  1  0
  2  3  1  0
  3  4  2  0
  3  5  1  0
  5  6  1  0
  5  7  1  0
  7  8  1  0
  8  9  1  0
  9 10  1  0
  9 11  1  0
 11 12  2  0
 11 13  1  0
 13 14  1  0
M  END
