CVD-0000506|dock_bobby27042020.12|mol2|41|dock1
     RDKit          3D

 39 42  0  0  0  0  0  0  0  0999 V2000
   13.5552   -1.6886   20.8889 N   0  0  0  0  0  0  0  0  0  0  0  0
   13.0845   -1.7479   22.3435 S   0  0  0  0  0  0  0  0  0  0  0  0
   13.0686   -3.1673   22.7566 O   0  0  0  0  0  0  0  0  0  0  0  0
   13.9584   -0.8586   23.1383 O   0  0  0  0  0  0  0  0  0  0  0  0
   11.4851   -1.1465   22.4391 N   0  0  0  0  0  0  0  0  0  0  0  0
   10.7503   -1.8283   23.5097 C   0  0  0  0  0  0  0  0  0  0  0  0
    9.3951   -2.4056   23.0877 C   0  0  0  0  0  0  0  0  0  0  0  0
    8.6026   -1.3546   22.4541 N   0  0  0  0  0  0  0  0  0  0  0  0
    8.6720   -1.0751   21.1490 C   0  0  0  0  0  0  0  0  0  0  0  0
    9.4108   -1.6834   20.3794 O   0  0  0  0  0  0  0  0  0  0  0  0
    7.7774    0.0467   20.6261 C   0  0  0  0  0  0  0  0  0  0  0  0
    6.3420   -0.4593   20.4079 C   0  0  0  0  0  0  0  0  0  0  0  0
    5.4232    0.5473   19.7585 C   0  0  0  0  0  0  0  0  0  0  0  0
    5.6508    0.9840   18.4628 C   0  0  0  0  0  0  0  0  0  0  0  0
    4.8145    1.9084   17.8624 C   0  0  0  0  0  0  0  0  0  0  0  0
    3.7290    2.4125   18.5606 C   0  0  0  0  0  0  0  0  0  0  0  0
    2.9000    3.3239   17.9744 O   0  0  0  0  0  0  0  0  0  0  0  0
    3.4897    1.9860   19.8569 C   0  0  0  0  0  0  0  0  0  0  0  0
    4.3342    1.0611   20.4449 C   0  0  0  0  0  0  0  0  0  0  0  0
    7.7729    1.1660   21.5536 N   0  0  0  0  0  0  0  0  0  0  0  0
    8.8846    1.9106   21.7406 C   0  0  0  0  0  0  0  0  0  0  0  0
    9.9332    1.6766   21.1449 O   0  0  0  0  0  0  0  0  0  0  0  0
    8.7084    2.9265   22.6461 N   0  0  0  0  0  0  0  0  0  0  0  0
    9.5756    3.9181   23.1308 C   0  0  0  0  0  0  0  0  0  0  0  0
    9.2148    4.7457   24.1730 C   0  0  0  0  0  0  0  0  0  0  0  0
   10.1298    5.7264   24.6185 C   0  0  0  0  0  0  0  0  0  0  0  0
    9.8493    6.6197   25.6795 C   0  0  0  0  0  0  0  0  0  0  0  0
   10.7735    7.5459   26.0649 C   0  0  0  0  0  0  0  0  0  0  0  0
   11.9970    7.6320   25.4318 C   0  0  0  0  0  0  0  0  0  0  0  0
   12.3128    6.7928   24.4044 C   0  0  0  0  0  0  0  0  0  0  0  0
   11.3854    5.8166   23.9705 C   0  0  0  0  0  0  0  0  0  0  0  0
   11.6210    4.9039   22.9165 C   0  0  0  0  0  0  0  0  0  0  0  0
   10.7599    3.9965   22.5129 N   0  0  0  0  0  0  0  0  0  0  0  0
    8.6743   -3.0140   24.2762 C   0  0  0  0  0  0  0  0  0  0  0  0
    8.2897   -2.2347   25.3597 C   0  0  0  0  0  0  0  0  0  0  0  0
    7.6375   -2.8000   26.4429 C   0  0  0  0  0  0  0  0  0  0  0  0
    7.3598   -4.1499   26.4580 C   0  0  0  0  0  0  0  0  0  0  0  0
    7.7335   -4.9356   25.3893 C   0  0  0  0  0  0  0  0  0  0  0  0
    8.3856   -4.3716   24.3055 C   0  0  0  0  0  0  0  0  0  0  0  0
  1  2  1  0
  2  3  2  0
  2  4  2  0
  2  5  1  0
  5  6  1  0
  6  7  1  0
  7  8  1  0
  8  9  1  0
  9 10  2  0
  9 11  1  0
 11 12  1  0
 12 13  1  0
 13 14  2  0
 14 15  1  0
 15 16  2  0
 16 17  1  0
 16 18  1  0
 18 19  2  0
 11 20  1  0
 20 21  1  0
 21 22  2  0
 21 23  1  0
 23 24  1  0
 24 25  2  0
 25 26  1  0
 26 27  2  0
 27 28  1  0
 28 29  2  0
 29 30  1  0
 30 31  2  0
 31 32  1  0
 32 33  2  0
  7 34  1  0
 34 35  2  0
 35 36  1  0
 36 37  2  0
 37 38  1  0
 38 39  2  0
 19 13  1  0
 33 24  1  0
 39 34  1  0
 31 26  1  0
M  END
