CVD-0000617|dock_bobby27042020.83|mol2|45|dock1
     RDKit          3D

 24 26  0  0  0  0  0  0  0  0999 V2000
    9.2895    0.2266   22.3621 O   0  0  0  0  0  0  0  0  0  0  0  0
    9.7148   -0.5112   21.4789 C   0  0  0  0  0  0  0  0  0  0  0  0
   10.9726   -1.3382   21.6591 C   0  0  0  0  0  0  0  0  0  0  0  0
   11.9680   -0.8696   22.7503 C   0  0  0  0  0  0  0  0  0  0  0  0
   11.2959   -1.1660   24.0885 C   0  0  0  0  0  0  0  0  0  0  0  0
   12.2440   -0.9097   25.2429 C   0  0  0  0  0  0  0  0  0  0  0  0
   13.5246   -1.7178   25.0992 C   0  0  0  0  0  0  0  0  0  0  0  0
   14.1958   -1.4380   23.7642 C   0  0  0  0  0  0  0  0  0  0  0  0
   13.2462   -1.6819   22.5982 C   0  0  0  0  0  0  0  0  0  0  0  0
   12.1603    0.5855   22.7362 C   0  0  0  0  0  0  0  0  0  0  0  0
   12.3756    1.7597   22.7436 C   0  0  0  0  0  0  0  0  0  0  0  0
   12.6227    3.1740   22.8422 C   0  0  0  0  0  0  0  0  0  0  0  0
   11.6182    4.0326   23.2773 C   0  0  0  0  0  0  0  0  0  0  0  0
   11.9014    5.3849   23.3562 C   0  0  0  0  0  0  0  0  0  0  0  0
   13.1541    5.8398   23.0066 C   0  0  0  0  0  0  0  0  0  0  0  0
   14.0874    4.9192   22.5867 C   0  0  0  0  0  0  0  0  0  0  0  0
   13.8516    3.6032   22.4970 N   0  0  0  0  0  0  0  0  0  0  0  0
    9.1370   -0.6812   20.2648 N   0  0  0  0  0  0  0  0  0  0  0  0
    7.9712   -0.1102   19.6971 C   0  0  0  0  0  0  0  0  0  0  0  0
    6.9215    0.4182   20.4419 C   0  0  0  0  0  0  0  0  0  0  0  0
    5.8269    0.9528   19.7842 C   0  0  0  0  0  0  0  0  0  0  0  0
    5.8102    0.9455   18.4085 C   0  0  0  0  0  0  0  0  0  0  0  0
    6.8003    0.4468   17.6686 N   0  0  0  0  0  0  0  0  0  0  0  0
    7.8521   -0.0670   18.3127 C   0  0  0  0  0  0  0  0  0  0  0  0
  1  2  2  0
  2  3  1  0
  3  4  1  0
  4  5  1  0
  5  6  1  0
  6  7  1  0
  7  8  1  0
  8  9  1  0
  4 10  1  0
 10 11  3  0
 11 12  1  0
 12 13  2  0
 13 14  1  0
 14 15  2  0
 15 16  1  0
 16 17  2  0
  2 18  1  0
 18 19  1  0
 19 20  2  0
 20 21  1  0
 21 22  2  0
 22 23  1  0
 23 24  2  0
  9  4  1  0
 17 12  1  0
 24 19  1  0
M  END
