CVD-0002296|dock_bobby27042020.6|mol2|23|dock2
     RDKit          3D

 40 43  0  0  0  0  0  0  0  0999 V2000
    6.3725   -9.0726   33.6387 C   0  0  0  0  0  0  0  0  0  0  0  0
    6.2021   -7.7529   32.9016 C   0  0  0  0  0  0  0  0  0  0  0  0
    6.8865   -6.5965   33.6141 C   0  0  0  0  0  0  0  0  0  0  0  0
    4.8054   -7.4003   32.5237 N   0  0  0  0  0  0  0  0  0  0  0  0
    3.8739   -7.3880   33.6479 C   0  0  0  0  0  0  0  0  0  0  0  0
    4.3127   -7.1438   31.2815 C   0  0  0  0  0  0  0  0  0  0  0  0
    3.1296   -6.8738   31.2005 O   0  0  0  0  0  0  0  0  0  0  0  0
    5.1102   -7.1600   29.9875 C   0  0  0  0  0  0  0  0  0  0  0  0
    4.1841   -7.1722   28.7776 C   0  0  0  0  0  0  0  0  0  0  0  0
    4.9862   -7.1489   27.4928 C   0  0  0  0  0  0  0  0  0  0  0  0
    5.8544   -5.9747   27.4681 N   0  0  0  0  0  0  0  0  0  0  0  0
    6.7975   -5.9473   28.5809 C   0  0  0  0  0  0  0  0  0  0  0  0
    6.0414   -5.9526   29.9054 C   0  0  0  0  0  0  0  0  0  0  0  0
    6.0153   -5.1354   26.4217 C   0  0  0  0  0  0  0  0  0  0  0  0
    6.7588   -4.1661   26.5075 O   0  0  0  0  0  0  0  0  0  0  0  0
    5.2536   -5.4081   25.1435 C   0  0  0  0  0  0  0  0  0  0  0  0
    5.7807   -4.6388   23.9453 C   0  0  0  0  0  0  0  0  0  0  0  0
    7.2089   -4.8313   23.6685 N   0  0  0  0  0  0  0  0  0  0  0  0
    7.6368   -4.5618   22.2938 C   0  0  0  0  0  0  0  0  0  0  0  0
    8.2508   -3.1927   22.1641 C   0  0  0  0  0  0  0  0  0  0  0  0
    9.6065   -2.8868   22.3799 C   0  0  0  0  0  0  0  0  0  0  0  0
    9.8235   -1.5383   22.1700 C   0  0  0  0  0  0  0  0  0  0  0  0
   11.1262   -0.8412   22.2944 C   0  0  0  0  0  0  0  0  0  0  0  0
   12.2286   -1.4490   21.6909 C   0  0  0  0  0  0  0  0  0  0  0  0
   13.4950   -0.8999   21.8021 C   0  0  0  0  0  0  0  0  0  0  0  0
   13.6893    0.2654   22.5096 C   0  0  0  0  0  0  0  0  0  0  0  0
   12.6107    0.9120   23.0861 C   0  0  0  0  0  0  0  0  0  0  0  0
   11.3577    0.3652   22.9408 C   0  0  0  0  0  0  0  0  0  0  0  0
   10.3237    1.0711   23.4475 F   0  0  0  0  0  0  0  0  0  0  0  0
    8.5575   -0.9848   21.8356 N   0  0  0  0  0  0  0  0  0  0  0  0
    7.6146   -2.0054   21.8313 C   0  0  0  0  0  0  0  0  0  0  0  0
    8.0623    0.6010   21.4921 S   0  0  0  0  0  0  0  0  0  0  0  0
    9.2297    1.3709   21.1949 O   0  0  0  0  0  0  0  0  0  0  0  0
    7.2393    0.9808   22.5981 O   0  0  0  0  0  0  0  0  0  0  0  0
    7.0248    0.4975   20.0741 C   0  0  0  0  0  0  0  0  0  0  0  0
    5.7619    1.0646   20.0870 C   0  0  0  0  0  0  0  0  0  0  0  0
    4.9816    0.9633   18.9483 C   0  0  0  0  0  0  0  0  0  0  0  0
    5.4919    0.3056   17.8519 C   0  0  0  0  0  0  0  0  0  0  0  0
    6.7071   -0.2437   17.8248 N   0  0  0  0  0  0  0  0  0  0  0  0
    7.4552   -0.1421   18.9272 C   0  0  0  0  0  0  0  0  0  0  0  0
  1  2  1  0
  2  3  1  0
  2  4  1  0
  4  5  1  0
  4  6  1  0
  6  7  2  0
  6  8  1  0
  8  9  1  0
  9 10  1  0
 10 11  1  0
 11 12  1  0
 12 13  1  0
 11 14  1  0
 14 15  2  0
 14 16  1  0
 16 17  1  0
 17 18  1  0
 18 19  1  0
 19 20  1  0
 20 21  1  0
 21 22  2  0
 22 23  1  0
 23 24  2  0
 24 25  1  0
 25 26  2  0
 26 27  1  0
 27 28  2  0
 28 29  1  0
 22 30  1  0
 30 31  1  0
 30 32  1  0
 32 33  2  0
 32 34  2  0
 32 35  1  0
 35 36  2  0
 36 37  1  0
 37 38  2  0
 38 39  1  0
 39 40  2  0
 13  8  1  0
 31 20  2  0
 40 35  1  0
 28 23  1  0
M  END
