CVD-0002029|dock_bobby27042020.36|mol2|13|dock2
     RDKit          3D

 33 38  0  0  0  0  0  0  0  0999 V2000
    4.9574    3.1709   20.9586 F   0  0  0  0  0  0  0  0  0  0  0  0
    6.0618    3.7880   21.4590 C   0  0  0  0  0  0  0  0  0  0  0  0
    6.0308    5.1495   21.6080 C   0  0  0  0  0  0  0  0  0  0  0  0
    7.1484    5.7897   22.1138 C   0  0  0  0  0  0  0  0  0  0  0  0
    8.2629    5.0317   22.4549 C   0  0  0  0  0  0  0  0  0  0  0  0
    9.4832    5.4027   22.9641 N   0  0  0  0  0  0  0  0  0  0  0  0
   10.2507    4.2833   23.1355 C   0  0  0  0  0  0  0  0  0  0  0  0
    9.5629    3.1713   22.7499 C   0  0  0  0  0  0  0  0  0  0  0  0
   10.0631    1.7570   22.7879 C   0  0  0  0  0  0  0  0  0  0  0  0
    9.2312    0.9750   23.8305 C   0  0  0  0  0  0  0  0  0  0  0  0
    8.6021   -0.2275   23.2834 N   0  0  0  0  0  0  0  0  0  0  0  0
    8.9416   -1.5003   23.5285 C   0  0  0  0  0  0  0  0  0  0  0  0
    8.3129   -2.4346   23.0384 O   0  0  0  0  0  0  0  0  0  0  0  0
   10.1518   -1.7798   24.4180 C   0  0  0  0  0  0  0  0  0  0  0  0
   10.1500   -3.2084   24.9103 C   0  0  0  0  0  0  0  0  0  0  0  0
   11.0002   -4.2163   24.5618 C   0  0  0  0  0  0  0  0  0  0  0  0
   10.6774   -5.3716   25.2231 N   0  0  0  0  0  0  0  0  0  0  0  0
    9.5986   -5.1294   26.0219 C   0  0  0  0  0  0  0  0  0  0  0  0
    8.9725   -5.9989   26.8328 N   0  0  0  0  0  0  0  0  0  0  0  0
    7.9280   -5.5195   27.5221 C   0  0  0  0  0  0  0  0  0  0  0  0
    7.4840   -4.2171   27.4374 C   0  0  0  0  0  0  0  0  0  0  0  0
    8.1416   -3.3336   26.5960 C   0  0  0  0  0  0  0  0  0  0  0  0
    9.2340   -3.7828   25.8570 C   0  0  0  0  0  0  0  0  0  0  0  0
   11.3539   -1.4894   23.5035 C   0  0  0  0  0  0  0  0  0  0  0  0
   11.4836   -2.1606   22.4976 O   0  0  0  0  0  0  0  0  0  0  0  0
   12.2266   -0.4973   23.7579 N   0  0  0  0  0  0  0  0  0  0  0  0
   13.1618   -0.0267   22.7478 C   0  0  0  0  0  0  0  0  0  0  0  0
   12.3511    1.0077   22.0052 C   0  0  0  0  0  0  0  0  0  0  0  0
   11.5345    1.7685   22.9684 N   0  0  0  0  0  0  0  0  0  0  0  0
   12.1352    1.8114   24.3137 C   0  0  0  0  0  0  0  0  0  0  0  0
   12.2681    0.4219   24.8950 C   0  0  0  0  0  0  0  0  0  0  0  0
    8.2759    3.6324   22.3006 C   0  0  0  0  0  0  0  0  0  0  0  0
    7.1431    3.0042   21.7848 C   0  0  0  0  0  0  0  0  0  0  0  0
  1  2  1  0
  2  3  2  0
  3  4  1  0
  4  5  2  0
  5  6  1  0
  6  7  1  0
  7  8  2  0
  8  9  1  0
  9 10  1  0
 10 11  1  0
 11 12  1  0
 12 13  2  0
 12 14  1  0
 14 15  1  0
 15 16  2  0
 16 17  1  0
 17 18  1  0
 18 19  2  0
 19 20  1  0
 20 21  2  0
 21 22  1  0
 22 23  2  0
 14 24  1  0
 24 25  2  0
 24 26  1  0
 26 27  1  0
 27 28  1  0
 28 29  1  0
 29 30  1  0
 30 31  1  0
  8 32  1  0
 32 33  2  0
 33  2  1  0
 32  5  1  0
 29  9  1  0
 23 15  1  0
 31 26  1  0
 23 18  1  0
M  END
