CVD-0003529|dock_bobby27042020.45|mol2|7|dock3
     RDKit          3D

 11 11  0  0  0  0  0  0  0  0999 V2000
    9.8124   -2.0763   22.3035 C   0  0  0  0  0  0  0  0  0  0  0  0
   10.5314   -1.4573   23.4999 C   0  0  0  0  0  0  0  0  0  0  0  0
    9.4888   -0.8036   24.4043 C   0  0  0  0  0  0  0  0  0  0  0  0
   11.6279   -0.4609   23.0552 C   0  0  0  0  0  0  0  0  0  0  0  0
   11.1598    0.4683   22.0646 O   0  0  0  0  0  0  0  0  0  0  0  0
   12.1883    0.2628   24.2827 C   0  0  0  0  0  0  0  0  0  0  0  0
   12.8004   -0.6955   25.2895 C   0  0  0  0  0  0  0  0  0  0  0  0
   13.6458   -1.7425   24.6804 C   0  0  0  0  0  0  0  0  0  0  0  0
   14.4954   -2.5594   25.6127 C   0  0  0  0  0  0  0  0  0  0  0  0
   13.6307   -1.9695   23.3737 C   0  0  0  0  0  0  0  0  0  0  0  0
   12.7903   -1.2240   22.3902 C   0  0  0  0  0  0  0  0  0  0  0  0
  1  2  1  0
  2  3  1  0
  2  4  1  0
  4  5  1  0
  4  6  1  0
  6  7  1  0
  7  8  1  0
  8  9  1  0
  8 10  2  0
 10 11  1  0
 11  4  1  0
M  END
