CVD-0000583|dock_bobby27042020.98|mol2|9|dock2
     RDKit          3D

 23 25  0  0  0  0  0  0  0  0999 V2000
    8.0622   -1.5759   18.1219 C   0  0  0  0  0  0  0  0  0  0  0  0
    7.2138   -0.9667   19.2085 C   0  0  0  0  0  0  0  0  0  0  0  0
    5.8548   -0.7932   18.9642 C   0  0  0  0  0  0  0  0  0  0  0  0
    5.0510   -0.2365   19.9330 C   0  0  0  0  0  0  0  0  0  0  0  0
    5.5098    0.1548   21.1178 N   0  0  0  0  0  0  0  0  0  0  0  0
    6.8137   -0.0066   21.3643 C   0  0  0  0  0  0  0  0  0  0  0  0
    7.7213   -0.5575   20.4578 C   0  0  0  0  0  0  0  0  0  0  0  0
    9.1129   -0.7332   20.7073 N   0  0  0  0  0  0  0  0  0  0  0  0
    9.8871   -0.2668   21.7460 C   0  0  0  0  0  0  0  0  0  0  0  0
    9.4689    0.4155   22.6751 O   0  0  0  0  0  0  0  0  0  0  0  0
   11.1840   -0.6517   21.6251 N   0  0  0  0  0  0  0  0  0  0  0  0
   12.3046   -0.3637   22.5119 C   0  0  0  0  0  0  0  0  0  0  0  0
   12.2743   -1.1536   23.8397 C   0  0  0  0  0  0  0  0  0  0  0  0
   13.6852   -1.6503   23.5828 C   0  0  0  0  0  0  0  0  0  0  0  0
   13.6412   -1.0499   22.1756 C   0  0  0  0  0  0  0  0  0  0  0  0
   12.4295    1.0914   22.7387 C   0  0  0  0  0  0  0  0  0  0  0  0
   12.5803    2.2722   22.8292 C   0  0  0  0  0  0  0  0  0  0  0  0
   12.8129    3.6886   22.8796 C   0  0  0  0  0  0  0  0  0  0  0  0
   14.0088    4.2408   22.4351 C   0  0  0  0  0  0  0  0  0  0  0  0
   14.1910    5.6112   22.5018 C   0  0  0  0  0  0  0  0  0  0  0  0
   13.1748    6.3886   23.0096 C   0  0  0  0  0  0  0  0  0  0  0  0
   12.0166    5.8894   23.4438 N   0  0  0  0  0  0  0  0  0  0  0  0
   11.8516    4.5652   23.3748 C   0  0  0  0  0  0  0  0  0  0  0  0
  1  2  1  0
  2  3  2  0
  3  4  1  0
  4  5  2  0
  5  6  1  0
  6  7  2  0
  7  8  1  0
  8  9  1  0
  9 10  2  0
  9 11  1  0
 11 12  1  0
 12 13  1  0
 13 14  1  0
 14 15  1  0
 12 16  1  0
 16 17  3  0
 17 18  1  0
 18 19  2  0
 19 20  1  0
 20 21  2  0
 21 22  1  0
 22 23  2  0
  7  2  1  0
 15 12  1  0
 23 18  1  0
M  END
