CVD-0002437|dock_bobby27042020.63|mol2|20|dock2
     RDKit          3D

 39 41  0  0  0  0  0  0  0  0999 V2000
   14.7721   -2.4155   24.3350 C   0  0  0  0  0  0  0  0  0  0  0  0
   13.8744   -1.2147   24.2735 C   0  0  0  0  0  0  0  0  0  0  0  0
   14.0526   -0.2337   24.9887 O   0  0  0  0  0  0  0  0  0  0  0  0
   12.8794   -1.2706   23.3817 N   0  0  0  0  0  0  0  0  0  0  0  0
   11.9471   -0.1692   23.2061 C   0  0  0  0  0  0  0  0  0  0  0  0
   10.7821   -0.6082   22.3036 C   0  0  0  0  0  0  0  0  0  0  0  0
    9.6881   -1.3581   23.0246 C   0  0  0  0  0  0  0  0  0  0  0  0
    8.5794   -0.6921   23.5227 C   0  0  0  0  0  0  0  0  0  0  0  0
    7.5719   -1.3732   24.1825 C   0  0  0  0  0  0  0  0  0  0  0  0
    7.6644   -2.7433   24.3537 C   0  0  0  0  0  0  0  0  0  0  0  0
    6.6312   -3.4076   25.0175 O   0  0  0  0  0  0  0  0  0  0  0  0
    6.8634   -4.3177   26.0499 C   0  0  0  0  0  0  0  0  0  0  0  0
    7.8647   -4.1040   26.9897 C   0  0  0  0  0  0  0  0  0  0  0  0
    8.0641   -5.0213   28.0041 C   0  0  0  0  0  0  0  0  0  0  0  0
    7.2712   -6.1438   28.0843 C   0  0  0  0  0  0  0  0  0  0  0  0
    6.2664   -6.3739   27.1586 C   0  0  0  0  0  0  0  0  0  0  0  0
    6.0448   -5.4617   26.1241 C   0  0  0  0  0  0  0  0  0  0  0  0
    5.0340   -5.6236   25.1355 N   0  0  0  0  0  0  0  0  0  0  0  0
    4.1090   -6.6026   24.9741 C   0  0  0  0  0  0  0  0  0  0  0  0
    3.9654   -7.5868   25.6933 O   0  0  0  0  0  0  0  0  0  0  0  0
    3.2105   -6.3884   23.7748 C   0  0  0  0  0  0  0  0  0  0  0  0
    2.1778   -5.3036   24.0553 C   0  0  0  0  0  0  0  0  0  0  0  0
    1.2587   -5.1229   22.8648 C   0  0  0  0  0  0  0  0  0  0  0  0
    0.6051   -6.3886   22.5427 N   0  0  0  0  0  0  0  0  0  0  0  0
    1.5549   -7.4461   22.2139 C   0  0  0  0  0  0  0  0  0  0  0  0
    2.4988   -7.6828   23.3881 C   0  0  0  0  0  0  0  0  0  0  0  0
   -0.7129   -6.5522   22.2786 C   0  0  0  0  0  0  0  0  0  0  0  0
   -1.1824   -7.6559   22.0307 O   0  0  0  0  0  0  0  0  0  0  0  0
   -1.6134   -5.3319   22.3022 C   0  0  0  0  0  0  0  0  0  0  0  0
   -1.0918   -4.1486   21.0961 Cl  0  0  0  0  0  0  0  0  0  0  0  0
    8.7642   -3.4244   23.8581 C   0  0  0  0  0  0  0  0  0  0  0  0
    9.7642   -2.7306   23.2004 C   0  0  0  0  0  0  0  0  0  0  0  0
   12.6623    1.0443   22.6162 C   0  0  0  0  0  0  0  0  0  0  0  0
   13.6122    0.8897   21.8532 O   0  0  0  0  0  0  0  0  0  0  0  0
   12.2132    2.2480   22.9726 N   0  0  0  0  0  0  0  0  0  0  0  0
   12.8294    3.4697   22.4725 C   0  0  0  0  0  0  0  0  0  0  0  0
   12.8243    4.5525   23.4634 C   0  0  0  0  0  0  0  0  0  0  0  0
   12.7739    5.4007   24.2906 C   0  0  0  0  0  0  0  0  0  0  0  0
   12.6496    6.6585   25.5735 Br  0  0  0  0  0  0  0  0  0  0  0  0
  1  2  1  0
  2  3  2  0
  2  4  1  0
  4  5  1  0
  5  6  1  0
  6  7  1  0
  7  8  2  0
  8  9  1  0
  9 10  2  0
 10 11  1  0
 11 12  1  0
 12 13  2  0
 13 14  1  0
 14 15  2  0
 15 16  1  0
 16 17  2  0
 17 18  1  0
 18 19  1  0
 19 20  2  0
 19 21  1  0
 21 22  1  0
 22 23  1  0
 23 24  1  0
 24 25  1  0
 25 26  1  0
 24 27  1  0
 27 28  2  0
 27 29  1  0
 29 30  1  0
 10 31  1  0
 31 32  2  0
  5 33  1  0
 33 34  2  0
 33 35  1  0
 35 36  1  0
 36 37  1  0
 37 38  3  0
 38 39  1  0
 32  7  1  0
 17 12  1  0
 26 21  1  0
M  END
