CVD-0003157|dock_bobby27042020.74|mol2|40|dock3
     RDKit          3D

 27 30  0  0  0  0  0  0  0  0999 V2000
    7.5255    3.9434   22.6323 O   0  0  0  0  0  0  0  0  0  0  0  0
    8.4157    3.0943   22.6351 C   0  0  0  0  0  0  0  0  0  0  0  0
    9.8170    3.5288   22.4330 C   0  0  0  0  0  0  0  0  0  0  0  0
   10.4437    4.6501   22.8643 C   0  0  0  0  0  0  0  0  0  0  0  0
    9.7837    5.6327   23.6683 C   0  0  0  0  0  0  0  0  0  0  0  0
    9.2223    6.4141   24.2879 N   0  0  0  0  0  0  0  0  0  0  0  0
   11.8285    5.0471   22.6284 C   0  0  0  0  0  0  0  0  0  0  0  0
   12.6236    4.7321   21.4640 C   0  0  0  0  0  0  0  0  0  0  0  0
   13.8313    5.3215   21.7192 C   0  0  0  0  0  0  0  0  0  0  0  0
   13.7502    5.9211   22.9134 N   0  0  0  0  0  0  0  0  0  0  0  0
   12.5369    5.7746   23.5015 N   0  0  0  0  0  0  0  0  0  0  0  0
    8.1135    1.7847   22.8386 N   0  0  0  0  0  0  0  0  0  0  0  0
    6.6792    1.4579   23.0342 C   0  0  0  0  0  0  0  0  0  0  0  0
    6.2754    0.2770   22.2154 C   0  0  0  0  0  0  0  0  0  0  0  0
    6.3595    0.6236   20.7345 C   0  0  0  0  0  0  0  0  0  0  0  0
    7.4528    0.2316   19.9747 C   0  0  0  0  0  0  0  0  0  0  0  0
    7.5299    0.5492   18.6290 C   0  0  0  0  0  0  0  0  0  0  0  0
    6.5161    1.2628   18.0267 C   0  0  0  0  0  0  0  0  0  0  0  0
    5.4246    1.6595   18.7693 C   0  0  0  0  0  0  0  0  0  0  0  0
    5.3465    1.3424   20.1152 C   0  0  0  0  0  0  0  0  0  0  0  0
    7.1429   -0.9059   22.5656 C   0  0  0  0  0  0  0  0  0  0  0  0
    6.6365   -2.2053   22.5358 C   0  0  0  0  0  0  0  0  0  0  0  0
    7.4242   -3.2981   22.8547 C   0  0  0  0  0  0  0  0  0  0  0  0
    8.7407   -3.1095   23.2112 C   0  0  0  0  0  0  0  0  0  0  0  0
    9.2634   -1.8292   23.2473 C   0  0  0  0  0  0  0  0  0  0  0  0
    8.4788   -0.7251   22.9284 C   0  0  0  0  0  0  0  0  0  0  0  0
    9.0875    0.6802   22.9508 C   0  0  0  0  0  0  0  0  0  0  0  0
  1  2  2  0
  2  3  1  0
  3  4  2  0
  4  5  1  0
  5  6  3  0
  4  7  1  0
  7  8  1  0
  8  9  2  0
  9 10  1  0
 10 11  1  0
  2 12  1  0
 12 13  1  0
 13 14  1  0
 14 15  1  0
 15 16  2  0
 16 17  1  0
 17 18  2  0
 18 19  1  0
 19 20  2  0
 14 21  1  0
 21 22  2  0
 22 23  1  0
 23 24  2  0
 24 25  1  0
 25 26  2  0
 26 27  1  0
 11  7  2  0
 27 12  1  0
 20 15  1  0
 26 21  1  0
M  END
