CVD-0003610|dock_bobby27042020.44|mol2|43|dock3
     RDKit          3D

 22 24  0  0  0  0  0  0  0  0999 V2000
    8.9574   -1.3194   23.2176 O   0  0  0  0  0  0  0  0  0  0  0  0
    9.5067   -1.4653   22.1300 C   0  0  0  0  0  0  0  0  0  0  0  0
   11.0147   -1.4179   22.0019 C   0  0  0  0  0  0  0  0  0  0  0  0
   11.7137   -0.7128   23.1254 C   0  0  0  0  0  0  0  0  0  0  0  0
   11.5608    0.5887   23.5038 C   0  0  0  0  0  0  0  0  0  0  0  0
   12.3660    0.8769   24.5736 N   0  0  0  0  0  0  0  0  0  0  0  0
   13.0617   -0.2474   24.9090 C   0  0  0  0  0  0  0  0  0  0  0  0
   13.9569   -0.3862   25.9015 N   0  0  0  0  0  0  0  0  0  0  0  0
   14.5121   -1.5987   26.0337 C   0  0  0  0  0  0  0  0  0  0  0  0
   14.2140   -2.6728   25.2225 C   0  0  0  0  0  0  0  0  0  0  0  0
   13.2882   -2.5122   24.2036 C   0  0  0  0  0  0  0  0  0  0  0  0
   12.6820   -1.2705   24.0240 C   0  0  0  0  0  0  0  0  0  0  0  0
    8.8313   -1.6853   21.0053 N   0  0  0  0  0  0  0  0  0  0  0  0
    7.3787   -1.7710   20.9741 C   0  0  0  0  0  0  0  0  0  0  0  0
    6.7309   -0.6460   20.2035 C   0  0  0  0  0  0  0  0  0  0  0  0
    7.2820   -0.1931   19.0145 C   0  0  0  0  0  0  0  0  0  0  0  0
    6.6886    0.8366   18.3033 C   0  0  0  0  0  0  0  0  0  0  0  0
    5.5296    1.4290   18.7746 C   0  0  0  0  0  0  0  0  0  0  0  0
    4.9645    0.9845   19.9649 C   0  0  0  0  0  0  0  0  0  0  0  0
    5.5670   -0.0516   20.6747 C   0  0  0  0  0  0  0  0  0  0  0  0
    3.7571    1.5915   20.4681 C   0  0  0  0  0  0  0  0  0  0  0  0
    2.7921    2.0800   20.8356 N   0  0  0  0  0  0  0  0  0  0  0  0
  1  2  2  0
  2  3  1  0
  3  4  1  0
  4  5  2  0
  5  6  1  0
  6  7  1  0
  7  8  2  0
  8  9  1  0
  9 10  2  0
 10 11  1  0
 11 12  2  0
  2 13  1  0
 13 14  1  0
 14 15  1  0
 15 16  2  0
 16 17  1  0
 17 18  2  0
 18 19  1  0
 19 20  2  0
 19 21  1  0
 21 22  3  0
 12  4  1  0
 20 15  1  0
 12  7  1  0
M  END
