CVD-0003036|dock_bobby27042020.61|mol2|12|dock3
     RDKit          3D

 44 46  0  0  0  0  0  0  0  0999 V2000
   13.5251   -0.9594   22.0548 C   0  0  0  0  0  0  0  0  0  0  0  0
   12.4808   -0.1395   22.7931 C   0  0  0  0  0  0  0  0  0  0  0  0
   13.1117    0.5733   23.9788 C   0  0  0  0  0  0  0  0  0  0  0  0
   11.2496   -0.9643   23.1843 C   0  0  0  0  0  0  0  0  0  0  0  0
   10.2727   -1.5407   22.1413 C   0  0  0  0  0  0  0  0  0  0  0  0
    9.8988   -0.5536   21.0515 C   0  0  0  0  0  0  0  0  0  0  0  0
    9.1044   -1.2450   20.0961 O   0  0  0  0  0  0  0  0  0  0  0  0
    8.7740   -0.4823   18.9422 C   0  0  0  0  0  0  0  0  0  0  0  0
    7.3435   -0.7327   18.5457 C   0  0  0  0  0  0  0  0  0  0  0  0
    6.4314   -1.4633   19.5401 C   0  0  0  0  0  0  0  0  0  0  0  0
    5.1376   -0.8089   19.5009 C   0  0  0  0  0  0  0  0  0  0  0  0
    5.2633    0.3728   18.5219 C   0  0  0  0  0  0  0  0  0  0  0  0
    4.6840    1.6963   18.9594 C   0  0  0  0  0  0  0  0  0  0  0  0
    3.3089    1.5764   19.4268 N   0  0  0  0  0  0  0  0  0  0  0  0
    2.3958    2.5200   19.1963 C   0  0  0  0  0  0  0  0  0  0  0  0
    2.6448    3.5532   18.5770 O   0  0  0  0  0  0  0  0  0  0  0  0
    1.0355    2.2633   19.7315 C   0  0  0  0  0  0  0  0  0  0  0  0
   -0.0499    3.1982   19.9204 C   0  0  0  0  0  0  0  0  0  0  0  0
   -1.0598    2.4411   20.4379 C   0  0  0  0  0  0  0  0  0  0  0  0
   -0.6193    1.1782   20.5367 N   0  0  0  0  0  0  0  0  0  0  0  0
   -1.3360    0.0214   21.0596 C   0  0  0  0  0  0  0  0  0  0  0  0
    0.6689    1.0259   20.1225 N   0  0  0  0  0  0  0  0  0  0  0  0
    6.6707    0.5092   18.3038 O   0  0  0  0  0  0  0  0  0  0  0  0
    9.0083   -2.0683   22.7881 C   0  0  0  0  0  0  0  0  0  0  0  0
    8.0134   -1.3619   22.9306 O   0  0  0  0  0  0  0  0  0  0  0  0
    9.0629   -3.3446   23.1846 N   0  0  0  0  0  0  0  0  0  0  0  0
    7.9459   -4.0231   23.8259 C   0  0  0  0  0  0  0  0  0  0  0  0
    7.5639   -5.2912   23.0445 C   0  0  0  0  0  0  0  0  0  0  0  0
    7.1391   -4.9645   21.6287 C   0  0  0  0  0  0  0  0  0  0  0  0
    8.6821   -6.1804   23.0044 O   0  0  0  0  0  0  0  0  0  0  0  0
    8.3078   -4.3631   25.2679 C   0  0  0  0  0  0  0  0  0  0  0  0
    9.4821   -4.4159   25.6237 O   0  0  0  0  0  0  0  0  0  0  0  0
    7.2865   -4.5944   26.0976 N   0  0  0  0  0  0  0  0  0  0  0  0
    7.5005   -4.9490   27.4911 C   0  0  0  0  0  0  0  0  0  0  0  0
    6.2872   -5.7137   28.0433 C   0  0  0  0  0  0  0  0  0  0  0  0
    6.4038   -6.0501   29.5103 C   0  0  0  0  0  0  0  0  0  0  0  0
    6.0807   -5.1142   30.4806 C   0  0  0  0  0  0  0  0  0  0  0  0
    6.1841   -5.4241   31.8264 C   0  0  0  0  0  0  0  0  0  0  0  0
    6.6113   -6.6746   32.2180 C   0  0  0  0  0  0  0  0  0  0  0  0
    6.9344   -7.6151   31.2637 C   0  0  0  0  0  0  0  0  0  0  0  0
    6.8307   -7.3046   29.9180 C   0  0  0  0  0  0  0  0  0  0  0  0
    8.7578   -5.7930   27.6278 C   0  0  0  0  0  0  0  0  0  0  0  0
    9.7834   -5.1123   28.0723 O   0  0  0  0  0  0  0  0  0  0  0  0
    8.7911   -6.9714   27.3490 O   0  0  0  0  0  0  0  0  0  0  0  0
  1  2  1  0
  2  3  1  0
  2  4  1  0
  4  5  1  0
  5  6  1  0
  6  7  1  0
  7  8  1  0
  9  8  1  0
  9 10  1  0
 10 11  1  0
 11 12  1  0
 12 13  1  0
 13 14  1  0
 14 15  1  0
 15 16  2  0
 15 17  1  0
 17 18  1  0
 18 19  2  0
 19 20  1  0
 20 21  1  0
 20 22  1  0
 12 23  1  0
  5 24  1  0
 24 25  2  0
 24 26  1  0
 26 27  1  0
 27 28  1  0
 28 29  1  0
 28 30  1  0
 27 31  1  0
 31 32  2  0
 31 33  1  0
 33 34  1  0
 34 35  1  0
 35 36  1  0
 36 37  2  0
 37 38  1  0
 38 39  2  0
 39 40  1  0
 40 41  2  0
 34 42  1  0
 42 43  1  0
 42 44  2  0
 23  9  1  0
 41 36  1  0
 22 17  2  0
M  END
