CVD-0003230|dock_bobby27042020.31|mol2|31|dock3
     RDKit          3D

 32 35  0  0  0  0  0  0  0  0999 V2000
   10.1853   -6.6629   26.1137 N   0  0  0  0  0  0  0  0  0  0  0  0
    9.4883   -5.6231   25.6230 C   0  0  0  0  0  0  0  0  0  0  0  0
    8.5725   -4.9146   26.4282 C   0  0  0  0  0  0  0  0  0  0  0  0
    7.8822   -3.8536   25.8719 C   0  0  0  0  0  0  0  0  0  0  0  0
    8.0900   -3.4992   24.5494 C   0  0  0  0  0  0  0  0  0  0  0  0
    7.3508   -2.3411   23.9185 C   0  0  0  0  0  0  0  0  0  0  0  0
    6.8993   -2.6438   22.5008 C   0  0  0  0  0  0  0  0  0  0  0  0
    6.0915   -3.5493   22.3341 O   0  0  0  0  0  0  0  0  0  0  0  0
    7.4108   -1.9102   21.4628 N   0  0  0  0  0  0  0  0  0  0  0  0
    6.9577   -2.2560   20.1117 C   0  0  0  0  0  0  0  0  0  0  0  0
    6.7645   -1.0622   19.2095 C   0  0  0  0  0  0  0  0  0  0  0  0
    7.8134   -0.3228   18.6096 C   0  0  0  0  0  0  0  0  0  0  0  0
    7.4008    0.7215   17.8386 C   0  0  0  0  0  0  0  0  0  0  0  0
    5.7046    0.8033   17.8460 S   0  0  0  0  0  0  0  0  0  0  0  0
    5.5512   -0.5435   18.8725 C   0  0  0  0  0  0  0  0  0  0  0  0
    8.3762   -0.8497   21.6192 C   0  0  0  0  0  0  0  0  0  0  0  0
    9.7393   -1.1206   21.6603 C   0  0  0  0  0  0  0  0  0  0  0  0
   10.6725   -0.1106   21.8167 C   0  0  0  0  0  0  0  0  0  0  0  0
   10.2708    1.2179   21.9256 C   0  0  0  0  0  0  0  0  0  0  0  0
   11.1567    2.3157   22.0800 N   0  0  0  0  0  0  0  0  0  0  0  0
   10.9956    3.5045   22.7264 C   0  0  0  0  0  0  0  0  0  0  0  0
    9.9742    3.8170   23.3288 O   0  0  0  0  0  0  0  0  0  0  0  0
   12.1212    4.5051   22.7136 C   0  0  0  0  0  0  0  0  0  0  0  0
   12.2764    5.3323   23.8231 C   0  0  0  0  0  0  0  0  0  0  0  0
   13.2895    6.2744   23.8786 C   0  0  0  0  0  0  0  0  0  0  0  0
   14.1686    6.4102   22.8277 C   0  0  0  0  0  0  0  0  0  0  0  0
   14.0334    5.6024   21.7207 C   0  0  0  0  0  0  0  0  0  0  0  0
   13.0219    4.6580   21.6588 C   0  0  0  0  0  0  0  0  0  0  0  0
    8.9102    1.4915   21.8805 C   0  0  0  0  0  0  0  0  0  0  0  0
    7.9802    0.4778   21.7373 C   0  0  0  0  0  0  0  0  0  0  0  0
    9.0069   -4.2481   23.8360 C   0  0  0  0  0  0  0  0  0  0  0  0
    9.6939   -5.2809   24.3379 N   0  0  0  0  0  0  0  0  0  0  0  0
  1  2  1  0
  2  3  2  0
  3  4  1  0
  4  5  2  0
  5  6  1  0
  6  7  1  0
  7  8  2  0
  7  9  1  0
  9 10  1  0
 10 11  1  0
 11 12  1  0
 12 13  2  0
 13 14  1  0
 14 15  1  0
  9 16  1  0
 16 17  2  0
 17 18  1  0
 18 19  2  0
 19 20  1  0
 20 21  1  0
 21 22  2  0
 21 23  1  0
 23 24  2  0
 24 25  1  0
 25 26  2  0
 26 27  1  0
 27 28  2  0
 19 29  1  0
 29 30  2  0
  5 31  1  0
 31 32  2  0
 32  2  1  0
 15 11  2  0
 30 16  1  0
 28 23  1  0
M  END
