CVD-0003386|dock_bobby27042020.88|mol2|12|dock3
     RDKit          3D

 19 21  0  0  0  0  0  0  0  0999 V2000
    4.8570    0.7652   17.6769 C   0  0  0  0  0  0  0  0  0  0  0  0
    5.5388    0.4482   18.9306 N   0  0  0  0  0  0  0  0  0  0  0  0
    5.5309    1.6088   19.8260 C   0  0  0  0  0  0  0  0  0  0  0  0
    6.2033    1.2618   21.1413 C   0  0  0  0  0  0  0  0  0  0  0  0
    7.5774    0.8106   20.9100 N   0  0  0  0  0  0  0  0  0  0  0  0
    7.6241   -0.3135   19.9697 C   0  0  0  0  0  0  0  0  0  0  0  0
    6.9215    0.0529   18.6750 C   0  0  0  0  0  0  0  0  0  0  0  0
    8.6547    1.3705   21.5326 C   0  0  0  0  0  0  0  0  0  0  0  0
    8.5653    2.4902   22.0218 O   0  0  0  0  0  0  0  0  0  0  0  0
    9.8447    0.6322   21.5912 N   0  0  0  0  0  0  0  0  0  0  0  0
   11.0195    1.0326   22.2507 C   0  0  0  0  0  0  0  0  0  0  0  0
   11.5150    2.2619   22.5372 C   0  0  0  0  0  0  0  0  0  0  0  0
   12.7078    2.1097   23.2025 N   0  0  0  0  0  0  0  0  0  0  0  0
   13.0002    0.7852   23.3555 C   0  0  0  0  0  0  0  0  0  0  0  0
   14.0740    0.2399   23.9512 N   0  0  0  0  0  0  0  0  0  0  0  0
   14.1234   -1.1004   23.9683 C   0  0  0  0  0  0  0  0  0  0  0  0
   13.1560   -1.9184   23.4214 C   0  0  0  0  0  0  0  0  0  0  0  0
   12.0534   -1.3426   22.8097 C   0  0  0  0  0  0  0  0  0  0  0  0
   11.9649    0.0462   22.7713 C   0  0  0  0  0  0  0  0  0  0  0  0
  1  2  1  0
  2  3  1  0
  3  4  1  0
  4  5  1  0
  5  6  1  0
  6  7  1  0
  5  8  1  0
  8  9  2  0
  8 10  1  0
 10 11  1  0
 11 12  2  0
 12 13  1  0
 13 14  1  0
 14 15  2  0
 15 16  1  0
 16 17  2  0
 17 18  1  0
 18 19  2  0
  7  2  1  0
 19 11  1  0
 19 14  1  0
M  END
