CVD-0002005|dock_bobby27042020.79|mol2|12|dock3
     RDKit          3D

 19 21  0  0  0  0  0  0  0  0999 V2000
    5.0000    0.6790   20.5936 C   0  0  0  0  0  0  0  0  0  0  0  0
    6.2091    0.9360   19.6971 C   0  0  0  0  0  0  0  0  0  0  0  0
    6.0245    0.2574   18.3525 C   0  0  0  0  0  0  0  0  0  0  0  0
    5.3223   -0.8465   18.4107 O   0  0  0  0  0  0  0  0  0  0  0  0
    6.4870    0.7005   17.3243 O   0  0  0  0  0  0  0  0  0  0  0  0
    7.5014    0.4606   20.3355 C   0  0  0  0  0  0  0  0  0  0  0  0
    7.8246   -0.9027   20.3954 C   0  0  0  0  0  0  0  0  0  0  0  0
    8.9583   -1.3522   20.9492 N   0  0  0  0  0  0  0  0  0  0  0  0
    9.7692   -0.4079   21.4444 C   0  0  0  0  0  0  0  0  0  0  0  0
    9.4351    0.9836   21.3795 C   0  0  0  0  0  0  0  0  0  0  0  0
    8.3003    1.4248   20.8245 N   0  0  0  0  0  0  0  0  0  0  0  0
   10.4394    1.7119   21.9580 N   0  0  0  0  0  0  0  0  0  0  0  0
   11.4244    0.8424   22.4019 C   0  0  0  0  0  0  0  0  0  0  0  0
   12.6261    1.1130   23.0473 C   0  0  0  0  0  0  0  0  0  0  0  0
   13.4568    0.0607   23.3968 C   0  0  0  0  0  0  0  0  0  0  0  0
   13.0893   -1.2377   23.1046 C   0  0  0  0  0  0  0  0  0  0  0  0
   14.1546   -2.5392   23.5564 Cl  0  0  0  0  0  0  0  0  0  0  0  0
   11.9030   -1.5382   22.4648 C   0  0  0  0  0  0  0  0  0  0  0  0
   11.0609   -0.4880   22.1092 C   0  0  0  0  0  0  0  0  0  0  0  0
  2  1  1  0
  2  3  1  0
  3  4  1  0
  3  5  2  0
  2  6  1  0
  6  7  2  0
  7  8  1  0
  8  9  2  0
  9 10  1  0
 10 11  2  0
 10 12  1  0
 12 13  1  0
 13 14  2  0
 14 15  1  0
 15 16  2  0
 16 17  1  0
 16 18  1  0
 18 19  2  0
 11  6  1  0
 19 13  1  0
 19  9  1  0
M  END
