CVD-0002199|dock_bobby27042020.7|mol2|4|dock3
     RDKit          3D

 22 24  0  0  0  0  0  0  0  0999 V2000
   13.5953   -0.2394   22.5752 C   0  0  0  0  0  0  0  0  0  0  0  0
   13.4692   -1.5885   21.9395 C   0  0  0  0  0  0  0  0  0  0  0  0
   12.0762   -1.9570   21.7488 N   0  0  0  0  0  0  0  0  0  0  0  0
   11.3027   -2.4233   22.7436 C   0  0  0  0  0  0  0  0  0  0  0  0
   11.8022   -3.4447   23.4676 N   0  0  0  0  0  0  0  0  0  0  0  0
   11.0548   -3.9323   24.4641 C   0  0  0  0  0  0  0  0  0  0  0  0
    9.7959   -3.4429   24.7907 C   0  0  0  0  0  0  0  0  0  0  0  0
    9.2917   -2.3889   24.0378 C   0  0  0  0  0  0  0  0  0  0  0  0
   10.0373   -1.8526   22.9945 C   0  0  0  0  0  0  0  0  0  0  0  0
    9.4647   -0.7032   22.1843 C   0  0  0  0  0  0  0  0  0  0  0  0
    8.4625   -1.1249   21.1353 C   0  0  0  0  0  0  0  0  0  0  0  0
    7.8332   -0.1866   20.3301 C   0  0  0  0  0  0  0  0  0  0  0  0
    6.9227   -0.6446   19.3814 C   0  0  0  0  0  0  0  0  0  0  0  0
    6.0884    0.0594   18.3841 C   0  0  0  0  0  0  0  0  0  0  0  0
    6.0055    1.2643   18.1697 O   0  0  0  0  0  0  0  0  0  0  0  0
    5.3903   -0.8942   17.7405 N   0  0  0  0  0  0  0  0  0  0  0  0
    5.6641   -2.2435   18.1854 C   0  0  0  0  0  0  0  0  0  0  0  0
    6.6738   -2.0005   19.2685 C   0  0  0  0  0  0  0  0  0  0  0  0
    7.3389   -2.8624   20.1039 C   0  0  0  0  0  0  0  0  0  0  0  0
    8.2198   -2.4413   21.0245 N   0  0  0  0  0  0  0  0  0  0  0  0
    9.0320   -4.0072   25.8759 C   0  0  0  0  0  0  0  0  0  0  0  0
    8.4512   -4.4453   26.7566 N   0  0  0  0  0  0  0  0  0  0  0  0
  1  2  1  0
  2  3  1  0
  3  4  1  0
  4  5  2  0
  5  6  1  0
  6  7  2  0
  7  8  1  0
  8  9  2  0
  9 10  1  0
 10 11  1  0
 11 12  2  0
 12 13  1  0
 13 14  1  0
 14 15  2  0
 14 16  1  0
 16 17  1  0
 17 18  1  0
 18 19  1  0
 19 20  2  0
  7 21  1  0
 21 22  3  0
  9  4  1  0
 20 11  1  0
 18 13  2  0
M  END
