CVD-0002555|dock_bobby27042020.48|mol2|13|dock1
     RDKit          3D

 21 22  0  0  0  0  0  0  0  0999 V2000
    6.1817   -5.9025   20.5710 C   0  0  0  0  0  0  0  0  0  0  0  0
    6.3090   -4.5339   21.1728 C   0  0  0  0  0  0  0  0  0  0  0  0
    5.8502   -3.5375   20.6227 O   0  0  0  0  0  0  0  0  0  0  0  0
    6.9646   -4.4609   22.3328 N   0  0  0  0  0  0  0  0  0  0  0  0
    7.1856   -3.2030   23.0318 C   0  0  0  0  0  0  0  0  0  0  0  0
    8.3857   -2.4517   22.4904 C   0  0  0  0  0  0  0  0  0  0  0  0
    9.5262   -2.4025   23.4978 C   0  0  0  0  0  0  0  0  0  0  0  0
   10.6367   -1.4334   23.1378 C   0  0  0  0  0  0  0  0  0  0  0  0
   10.2809    0.0623   23.3503 C   0  0  0  0  0  0  0  0  0  0  0  0
   11.4842    0.8868   22.9315 C   0  0  0  0  0  0  0  0  0  0  0  0
   11.3329    2.2157   22.5070 C   0  0  0  0  0  0  0  0  0  0  0  0
   10.1029    2.7994   22.3738 O   0  0  0  0  0  0  0  0  0  0  0  0
   12.4490    3.0159   22.2759 C   0  0  0  0  0  0  0  0  0  0  0  0
   12.2703    4.2915   21.8448 O   0  0  0  0  0  0  0  0  0  0  0  0
   13.7243    2.5079   22.4627 C   0  0  0  0  0  0  0  0  0  0  0  0
   13.8795    1.2001   22.8805 C   0  0  0  0  0  0  0  0  0  0  0  0
   12.7782    0.3730   23.1203 C   0  0  0  0  0  0  0  0  0  0  0  0
   12.9802   -1.0785   23.4860 C   0  0  0  0  0  0  0  0  0  0  0  0
   13.4185   -1.9694   22.3292 C   0  0  0  0  0  0  0  0  0  0  0  0
   13.4698   -1.2955   21.0131 N   0  0  0  0  0  0  0  0  0  0  0  0
   11.7909   -1.6963   23.9624 O   0  0  0  0  0  0  0  0  0  0  0  0
  1  2  1  0
  2  3  2  0
  2  4  1  0
  4  5  1  0
  5  6  1  0
  6  7  1  0
  7  8  1  0
  8  9  1  0
  9 10  1  0
 10 11  2  0
 11 12  1  0
 11 13  1  0
 13 14  1  0
 13 15  2  0
 15 16  1  0
 16 17  2  0
 17 18  1  0
 18 19  1  0
 19 20  1  0
 18 21  1  0
 21  8  1  0
 17 10  1  0
M  END
