CVD-0000961|dock_bobby27042020.25|mol2|31|dock2
     RDKit          3D

 39 43  0  0  0  0  0  0  0  0999 V2000
    8.9227   -0.3497   19.1740 C   0  0  0  0  0  0  0  0  0  0  0  0
    9.1174   -0.4461   20.6599 C   0  0  0  0  0  0  0  0  0  0  0  0
    9.6852    0.4729   21.2401 O   0  0  0  0  0  0  0  0  0  0  0  0
    8.6869   -1.5415   21.3607 N   0  0  0  0  0  0  0  0  0  0  0  0
    7.9116   -2.6554   20.8103 C   0  0  0  0  0  0  0  0  0  0  0  0
    7.3219   -3.5344   21.8117 C   0  0  0  0  0  0  0  0  0  0  0  0
    6.8080   -4.5970   20.8517 C   0  0  0  0  0  0  0  0  0  0  0  0
    6.0058   -3.6713   19.9789 C   0  0  0  0  0  0  0  0  0  0  0  0
    4.9772   -3.9117   19.3592 O   0  0  0  0  0  0  0  0  0  0  0  0
    6.6526   -2.4617   20.0590 N   0  0  0  0  0  0  0  0  0  0  0  0
    6.0866   -1.2684   19.4882 C   0  0  0  0  0  0  0  0  0  0  0  0
    5.7882   -1.2453   18.1337 C   0  0  0  0  0  0  0  0  0  0  0  0
    5.2969   -0.1703   17.5101 N   0  0  0  0  0  0  0  0  0  0  0  0
    5.0982    0.9231   18.2446 C   0  0  0  0  0  0  0  0  0  0  0  0
    5.3357    0.9818   19.6021 C   0  0  0  0  0  0  0  0  0  0  0  0
    5.8194   -0.1419   20.2663 C   0  0  0  0  0  0  0  0  0  0  0  0
    6.0100   -0.0992   21.7597 C   0  0  0  0  0  0  0  0  0  0  0  0
    8.2140   -3.9064   22.9184 N   0  0  0  0  0  0  0  0  0  0  0  0
    8.4088   -2.6263   23.6026 C   0  0  0  0  0  0  0  0  0  0  0  0
    9.2592   -1.7251   22.7258 C   0  0  0  0  0  0  0  0  0  0  0  0
   10.6526   -2.3482   22.6479 C   0  0  0  0  0  0  0  0  0  0  0  0
   11.4933   -1.7287   21.6184 N   0  0  0  0  0  0  0  0  0  0  0  0
   12.8943   -1.0520   22.0347 S   0  0  0  0  0  0  0  0  0  0  0  0
   13.6309   -0.8483   20.8250 O   0  0  0  0  0  0  0  0  0  0  0  0
   13.4542   -1.8643   23.0713 O   0  0  0  0  0  0  0  0  0  0  0  0
   12.5352    0.5287   22.7214 C   0  0  0  0  0  0  0  0  0  0  0  0
   12.4263    0.6747   24.0945 C   0  0  0  0  0  0  0  0  0  0  0  0
   12.1386    1.9209   24.6221 C   0  0  0  0  0  0  0  0  0  0  0  0
   11.9544    3.0269   23.8072 C   0  0  0  0  0  0  0  0  0  0  0  0
   11.6451    4.3817   24.3959 C   0  0  0  0  0  0  0  0  0  0  0  0
   12.0679    2.8544   22.4367 C   0  0  0  0  0  0  0  0  0  0  0  0
   12.3550    1.6182   21.8855 C   0  0  0  0  0  0  0  0  0  0  0  0
    7.7929   -5.0209   23.7740 C   0  0  0  0  0  0  0  0  0  0  0  0
    6.4309   -4.9490   24.0564 O   0  0  0  0  0  0  0  0  0  0  0  0
    8.5444   -5.0547   25.0668 C   0  0  0  0  0  0  0  0  0  0  0  0
    8.0329   -4.8190   26.3376 C   0  0  0  0  0  0  0  0  0  0  0  0
    9.0424   -4.9421   27.3227 C   0  0  0  0  0  0  0  0  0  0  0  0
   10.2482   -5.2554   26.8197 C   0  0  0  0  0  0  0  0  0  0  0  0
   10.2119   -5.4159   25.1210 S   0  0  0  0  0  0  0  0  0  0  0  0
  1  2  1  0
  2  3  2  0
  2  4  1  0
  4  5  1  0
  5  6  1  0
  6  7  1  0
  7  8  1  0
  8  9  2  0
  8 10  1  0
 10 11  1  0
 11 12  2  0
 12 13  1  0
 13 14  2  0
 14 15  1  0
 15 16  2  0
 16 17  1  0
  6 18  1  0
 18 19  1  0
 19 20  1  0
 20 21  1  0
 21 22  1  0
 22 23  1  0
 23 24  2  0
 23 25  2  0
 23 26  1  0
 26 27  2  0
 27 28  1  0
 28 29  2  0
 29 30  1  0
 29 31  1  0
 31 32  2  0
 18 33  1  0
 33 34  1  0
 33 35  1  0
 35 36  2  0
 36 37  1  0
 37 38  2  0
 38 39  1  0
 20  4  1  0
 32 26  1  0
 39 35  1  0
 10  5  1  0
 16 11  1  0
M  END
