CVD-0002980|dock_bobby27042020.46|mol2|40|dock2
     RDKit          3D

 22 23  0  0  0  0  0  0  0  0999 V2000
    7.3187   -0.1802   18.5424 C   0  0  0  0  0  0  0  0  0  0  0  0
    7.7899   -0.2168   19.9625 C   0  0  0  0  0  0  0  0  0  0  0  0
    8.6929   -1.3316   20.1946 N   0  0  0  0  0  0  0  0  0  0  0  0
    8.5541   -2.1777   21.2290 C   0  0  0  0  0  0  0  0  0  0  0  0
    7.3495   -2.7657   21.3704 N   0  0  0  0  0  0  0  0  0  0  0  0
    7.1806   -3.6119   22.3926 C   0  0  0  0  0  0  0  0  0  0  0  0
    8.1773   -3.9154   23.3123 C   0  0  0  0  0  0  0  0  0  0  0  0
    9.4158   -3.3039   23.1559 C   0  0  0  0  0  0  0  0  0  0  0  0
    9.6320   -2.4195   22.1058 C   0  0  0  0  0  0  0  0  0  0  0  0
   10.9878   -1.7672   21.9619 C   0  0  0  0  0  0  0  0  0  0  0  0
   11.1810   -0.5018   22.8066 C   0  0  0  0  0  0  0  0  0  0  0  0
   12.6310   -0.0233   22.8312 C   0  0  0  0  0  0  0  0  0  0  0  0
   12.7934    1.2843   23.5797 C   0  0  0  0  0  0  0  0  0  0  0  0
   11.8742    2.3001   23.0566 N   0  0  0  0  0  0  0  0  0  0  0  0
   10.4744    1.8993   23.1393 C   0  0  0  0  0  0  0  0  0  0  0  0
   10.2708    0.6286   22.3441 C   0  0  0  0  0  0  0  0  0  0  0  0
   12.2227    3.5335   22.6335 C   0  0  0  0  0  0  0  0  0  0  0  0
   11.3939    4.3242   22.2006 O   0  0  0  0  0  0  0  0  0  0  0  0
   13.6902    3.9066   22.7231 C   0  0  0  0  0  0  0  0  0  0  0  0
   13.9923    5.5656   22.1900 Cl  0  0  0  0  0  0  0  0  0  0  0  0
    7.9397   -4.8355   24.3970 C   0  0  0  0  0  0  0  0  0  0  0  0
    7.7192   -5.5555   25.2561 N   0  0  0  0  0  0  0  0  0  0  0  0
  1  2  1  0
  2  3  1  0
  3  4  1  0
  4  5  2  0
  5  6  1  0
  6  7  2  0
  7  8  1  0
  8  9  2  0
  9 10  1  0
 10 11  1  0
 11 12  1  0
 12 13  1  0
 13 14  1  0
 14 15  1  0
 15 16  1  0
 14 17  1  0
 17 18  2  0
 17 19  1  0
 19 20  1  0
  7 21  1  0
 21 22  3  0
  9  4  1  0
 16 11  1  0
M  END
