CVD-0003428|dock_bobby27042020.88|mol2|6|dock1
     RDKit          3D

 20 22  0  0  0  0  0  0  0  0999 V2000
    7.1671   -4.7579   21.8853 Cl  0  0  0  0  0  0  0  0  0  0  0  0
    7.0536   -3.4439   20.7818 C   0  0  0  0  0  0  0  0  0  0  0  0
    5.8566   -3.4678   20.1465 N   0  0  0  0  0  0  0  0  0  0  0  0
    5.5671   -2.5475   19.2585 C   0  0  0  0  0  0  0  0  0  0  0  0
    6.4698   -1.5046   18.9256 C   0  0  0  0  0  0  0  0  0  0  0  0
    6.3866   -0.4852   18.0721 N   0  0  0  0  0  0  0  0  0  0  0  0
    7.5845    0.1773   18.2018 C   0  0  0  0  0  0  0  0  0  0  0  0
    8.3891   -0.4166   19.1125 C   0  0  0  0  0  0  0  0  0  0  0  0
    7.6826   -1.5134   19.5956 N   0  0  0  0  0  0  0  0  0  0  0  0
    8.0136   -2.4872   20.5484 C   0  0  0  0  0  0  0  0  0  0  0  0
    9.2935   -2.3302   21.1239 N   0  0  0  0  0  0  0  0  0  0  0  0
    9.7889   -2.4863   22.3920 C   0  0  0  0  0  0  0  0  0  0  0  0
    9.1678   -2.8303   23.3883 O   0  0  0  0  0  0  0  0  0  0  0  0
   11.2668   -2.1782   22.4918 C   0  0  0  0  0  0  0  0  0  0  0  0
   11.5733   -0.6825   22.6160 C   0  0  0  0  0  0  0  0  0  0  0  0
   11.1260   -0.1339   23.9864 C   0  0  0  0  0  0  0  0  0  0  0  0
   11.4839    1.3398   24.1694 C   0  0  0  0  0  0  0  0  0  0  0  0
   12.9687    1.5836   23.9325 C   0  0  0  0  0  0  0  0  0  0  0  0
   13.3985    1.0692   22.5661 C   0  0  0  0  0  0  0  0  0  0  0  0
   13.0731   -0.4125   22.4069 C   0  0  0  0  0  0  0  0  0  0  0  0
  1  2  1  0
  2  3  1  0
  3  4  2  0
  4  5  1  0
  5  6  2  0
  6  7  1  0
  7  8  2  0
  8  9  1  0
  9 10  1  0
 10 11  1  0
 11 12  1  0
 12 13  2  0
 12 14  1  0
 14 15  1  0
 15 16  1  0
 16 17  1  0
 17 18  1  0
 18 19  1  0
 19 20  1  0
 10  2  2  0
 20 15  1  0
  9  5  1  0
M  END
