CVD-0000464|dock_bobby27042020.41|mol2|24|dock3
     RDKit          3D

 22 23  0  0  0  0  0  0  0  0999 V2000
    5.8686   -6.4010   21.9306 C   0  0  0  0  0  0  0  0  0  0  0  0
    6.3477   -5.3608   20.9670 C   0  0  0  0  0  0  0  0  0  0  0  0
    5.9858   -4.0231   21.4049 N   0  0  0  0  0  0  0  0  0  0  0  0
    6.0396   -2.9523   20.5957 C   0  0  0  0  0  0  0  0  0  0  0  0
    5.4614   -3.0829   19.3851 N   0  0  0  0  0  0  0  0  0  0  0  0
    5.4999   -2.0346   18.5556 C   0  0  0  0  0  0  0  0  0  0  0  0
    6.1016   -0.8243   18.8772 C   0  0  0  0  0  0  0  0  0  0  0  0
    6.6931   -0.7033   20.1293 C   0  0  0  0  0  0  0  0  0  0  0  0
    6.6769   -1.7685   21.0226 C   0  0  0  0  0  0  0  0  0  0  0  0
    7.3273   -1.5959   22.3762 C   0  0  0  0  0  0  0  0  0  0  0  0
    8.6388   -0.9339   22.3123 N   0  0  0  0  0  0  0  0  0  0  0  0
    8.9449   -0.2784   23.5872 C   0  0  0  0  0  0  0  0  0  0  0  0
   10.2801    0.4376   23.5023 C   0  0  0  0  0  0  0  0  0  0  0  0
   11.3443   -0.5047   23.1494 N   0  0  0  0  0  0  0  0  0  0  0  0
   11.0391   -1.2216   21.9074 C   0  0  0  0  0  0  0  0  0  0  0  0
    9.6877   -1.9049   22.0115 C   0  0  0  0  0  0  0  0  0  0  0  0
   12.4667   -0.6485   23.8833 C   0  0  0  0  0  0  0  0  0  0  0  0
   12.6661    0.0126   24.8946 O   0  0  0  0  0  0  0  0  0  0  0  0
   13.4768   -1.6668   23.3916 C   0  0  0  0  0  0  0  0  0  0  0  0
   14.8484   -1.7712   24.5030 Cl  0  0  0  0  0  0  0  0  0  0  0  0
    6.1150    0.2758   17.9448 C   0  0  0  0  0  0  0  0  0  0  0  0
    6.1012    1.1616   17.2236 N   0  0  0  0  0  0  0  0  0  0  0  0
  1  2  1  0
  2  3  1  0
  3  4  1  0
  4  5  2  0
  5  6  1  0
  6  7  2  0
  7  8  1  0
  8  9  2  0
  9 10  1  0
 10 11  1  0
 11 12  1  0
 12 13  1  0
 13 14  1  0
 14 15  1  0
 15 16  1  0
 14 17  1  0
 17 18  2  0
 17 19  1  0
 19 20  1  0
  7 21  1  0
 21 22  3  0
  9  4  1  0
 16 11  1  0
M  END
