CVD-0001829|dock_bobby27042020.51|mol2|16|dock2
     RDKit          3D

 25 28  0  0  0  0  0  0  0  0999 V2000
   13.5575    5.0573   22.4215 C   0  0  0  0  0  0  0  0  0  0  0  0
   12.4634    4.0467   22.3249 C   0  0  0  0  0  0  0  0  0  0  0  0
   11.9291    3.6699   21.2120 N   0  0  0  0  0  0  0  0  0  0  0  0
   10.9335    2.7099   21.3860 N   0  0  0  0  0  0  0  0  0  0  0  0
   10.7583    2.3926   22.6239 C   0  0  0  0  0  0  0  0  0  0  0  0
    9.7362    1.3821   23.0524 C   0  0  0  0  0  0  0  0  0  0  0  0
    9.7716    0.1484   22.2818 N   0  0  0  0  0  0  0  0  0  0  0  0
    8.9352   -0.0852   21.2270 C   0  0  0  0  0  0  0  0  0  0  0  0
    9.1908   -1.2585   20.6950 N   0  0  0  0  0  0  0  0  0  0  0  0
   10.2386   -1.8277   21.4136 N   0  0  0  0  0  0  0  0  0  0  0  0
   10.5752   -0.9733   22.3557 C   0  0  0  0  0  0  0  0  0  0  0  0
   11.5972   -1.2519   23.2385 N   0  0  0  0  0  0  0  0  0  0  0  0
   12.3651   -2.4823   23.1117 C   0  0  0  0  0  0  0  0  0  0  0  0
   13.8130   -2.2710   23.4938 C   0  0  0  0  0  0  0  0  0  0  0  0
   13.9099   -1.7083   24.8371 N   0  0  0  0  0  0  0  0  0  0  0  0
   13.1644   -0.6240   25.1436 C   0  0  0  0  0  0  0  0  0  0  0  0
   13.4702    0.1329   26.0599 O   0  0  0  0  0  0  0  0  0  0  0  0
   11.9216   -0.3425   24.3274 C   0  0  0  0  0  0  0  0  0  0  0  0
    7.8613    0.8298   20.6986 C   0  0  0  0  0  0  0  0  0  0  0  0
    7.5106    0.4767   19.2503 C   0  0  0  0  0  0  0  0  0  0  0  0
    5.9868    0.3783   19.2595 C   0  0  0  0  0  0  0  0  0  0  0  0
    5.5860    0.2669   20.6667 C   0  0  0  0  0  0  0  0  0  0  0  0
    4.5282   -0.1015   21.1680 O   0  0  0  0  0  0  0  0  0  0  0  0
    6.6096    0.6782   21.4132 N   0  0  0  0  0  0  0  0  0  0  0  0
   11.8038    3.2507   23.7163 S   0  0  0  0  0  0  0  0  0  0  0  0
  1  2  1  0
  2  3  2  0
  3  4  1  0
  4  5  2  0
  5  6  1  0
  6  7  1  0
  7  8  1  0
  8  9  2  0
  9 10  1  0
 10 11  2  0
 11 12  1  0
 12 13  1  0
 13 14  1  0
 14 15  1  0
 15 16  1  0
 16 17  2  0
 16 18  1  0
  8 19  1  0
 19 20  1  0
 20 21  1  0
 21 22  1  0
 22 23  2  0
 22 24  1  0
  5 25  1  0
 25  2  1  0
 11  7  1  0
 18 12  1  0
 24 19  1  0
M  END
