CVD-0002888|dock_bobby27042020.4|mol2|12|dock3
     RDKit          3D

 19 20  0  0  0  0  0  0  0  0999 V2000
   10.0877   -6.7369   26.4298 O   0  0  0  0  0  0  0  0  0  0  0  0
    9.8397   -5.4124   26.2163 C   0  0  0  0  0  0  0  0  0  0  0  0
    9.1078   -4.6857   27.1421 C   0  0  0  0  0  0  0  0  0  0  0  0
    8.8584   -3.3438   26.9176 C   0  0  0  0  0  0  0  0  0  0  0  0
    9.3405   -2.7277   25.7695 C   0  0  0  0  0  0  0  0  0  0  0  0
    9.0868   -1.4108   25.5534 O   0  0  0  0  0  0  0  0  0  0  0  0
   10.0837   -3.4454   24.8306 C   0  0  0  0  0  0  0  0  0  0  0  0
   10.6087   -2.7761   23.5819 C   0  0  0  0  0  0  0  0  0  0  0  0
    9.6338   -1.8741   22.9510 N   0  0  0  0  0  0  0  0  0  0  0  0
   10.2180   -1.2339   21.7689 C   0  0  0  0  0  0  0  0  0  0  0  0
    9.2222   -0.2734   21.1457 C   0  0  0  0  0  0  0  0  0  0  0  0
    7.9905   -0.9776   20.7829 N   0  0  0  0  0  0  0  0  0  0  0  0
    7.4125   -1.6796   21.9331 C   0  0  0  0  0  0  0  0  0  0  0  0
    8.4383   -2.6120   22.5514 C   0  0  0  0  0  0  0  0  0  0  0  0
    7.4628   -0.9395   19.5365 C   0  0  0  0  0  0  0  0  0  0  0  0
    7.9935   -0.2990   18.6377 O   0  0  0  0  0  0  0  0  0  0  0  0
    6.1907   -1.7197   19.2645 C   0  0  0  0  0  0  0  0  0  0  0  0
    5.6252   -1.5402   17.5986 Cl  0  0  0  0  0  0  0  0  0  0  0  0
   10.3215   -4.7946   25.0710 C   0  0  0  0  0  0  0  0  0  0  0  0
  1  2  1  0
  2  3  2  0
  3  4  1  0
  4  5  2  0
  5  6  1  0
  5  7  1  0
  7  8  1  0
  8  9  1  0
  9 10  1  0
 10 11  1  0
 11 12  1  0
 12 13  1  0
 13 14  1  0
 12 15  1  0
 15 16  2  0
 15 17  1  0
 17 18  1  0
  7 19  2  0
 19  2  1  0
 14  9  1  0
M  END
