CVD-0000125|dock_bobby27042020.57|mol2|13|dock3
     RDKit          3D

 17 18  0  0  0  0  0  0  0  0999 V2000
   10.1335   -2.5336   21.9680 F   0  0  0  0  0  0  0  0  0  0  0  0
   11.2473   -1.7976   21.6153 C   0  0  0  0  0  0  0  0  0  0  0  0
   12.2546   -1.6711   22.7064 C   0  0  0  0  0  0  0  0  0  0  0  0
   13.4305   -2.4098   22.6086 C   0  0  0  0  0  0  0  0  0  0  0  0
   14.4014   -2.3365   23.5924 C   0  0  0  0  0  0  0  0  0  0  0  0
   14.2056   -1.5230   24.6869 C   0  0  0  0  0  0  0  0  0  0  0  0
   13.0402   -0.7834   24.7970 C   0  0  0  0  0  0  0  0  0  0  0  0
   12.0525   -0.8426   23.8170 C   0  0  0  0  0  0  0  0  0  0  0  0
   10.7886   -0.0176   23.9793 C   0  0  0  0  0  0  0  0  0  0  0  0
   10.8786    1.3833   23.4086 C   0  0  0  0  0  0  0  0  0  0  0  0
    9.7370    2.1313   23.1652 C   0  0  0  0  0  0  0  0  0  0  0  0
    9.8312    3.4090   22.6399 C   0  0  0  0  0  0  0  0  0  0  0  0
   11.0724    3.9505   22.3522 C   0  0  0  0  0  0  0  0  0  0  0  0
   12.2273    3.2216   22.5871 C   0  0  0  0  0  0  0  0  0  0  0  0
   13.5763    3.7937   22.2769 C   0  0  0  0  0  0  0  0  0  0  0  0
   13.8193    5.4778   22.9397 S   0  0  0  0  0  0  0  0  0  0  0  0
   12.1161    1.9410   23.1131 C   0  0  0  0  0  0  0  0  0  0  0  0
  1  2  1  0
  2  3  1  0
  3  4  2  0
  4  5  1  0
  5  6  2  0
  6  7  1  0
  7  8  2  0
  8  9  1  0
  9 10  1  0
 10 11  2  0
 11 12  1  0
 12 13  2  0
 13 14  1  0
 14 15  1  0
 15 16  1  0
 14 17  2  0
  8  3  1  0
 17 10  1  0
M  END
