CVD-0001492|dock_bobby27042020.52|mol2|28|dock2
     RDKit          3D

 37 41  0  0  0  0  0  0  0  0999 V2000
    7.0990  -10.1104   33.0977 O   0  0  0  0  0  0  0  0  0  0  0  0
    6.7556   -8.8692   32.8729 C   0  0  0  0  0  0  0  0  0  0  0  0
    6.1701   -8.1751   33.6858 O   0  0  0  0  0  0  0  0  0  0  0  0
    7.1396   -8.3584   31.5269 C   0  0  0  0  0  0  0  0  0  0  0  0
    7.8488   -9.1533   30.6319 C   0  0  0  0  0  0  0  0  0  0  0  0
    8.2310   -8.7684   29.4052 N   0  0  0  0  0  0  0  0  0  0  0  0
    7.8859   -7.5181   29.0504 C   0  0  0  0  0  0  0  0  0  0  0  0
    8.1560   -6.8951   27.8627 N   0  0  0  0  0  0  0  0  0  0  0  0
    7.6420   -5.6392   27.8895 C   0  0  0  0  0  0  0  0  0  0  0  0
    7.7603   -4.7598   26.8141 N   0  0  0  0  0  0  0  0  0  0  0  0
    7.1334   -4.8315   25.5671 C   0  0  0  0  0  0  0  0  0  0  0  0
    6.3652   -5.7501   25.2966 O   0  0  0  0  0  0  0  0  0  0  0  0
    7.4776   -3.7857   24.7436 N   0  0  0  0  0  0  0  0  0  0  0  0
    7.0537   -3.4982   23.4151 C   0  0  0  0  0  0  0  0  0  0  0  0
    6.7399   -4.5142   22.5077 C   0  0  0  0  0  0  0  0  0  0  0  0
    6.3414   -4.1961   21.2178 C   0  0  0  0  0  0  0  0  0  0  0  0
    6.0220   -5.1958   20.3460 O   0  0  0  0  0  0  0  0  0  0  0  0
    6.2671   -2.8793   20.8065 C   0  0  0  0  0  0  0  0  0  0  0  0
    6.5802   -1.8734   21.6968 C   0  0  0  0  0  0  0  0  0  0  0  0
    6.9561   -2.1508   23.0118 C   0  0  0  0  0  0  0  0  0  0  0  0
    7.2376   -0.9980   23.9644 C   0  0  0  0  0  0  0  0  0  0  0  0
    6.1657    0.0667   23.9155 C   0  0  0  0  0  0  0  0  0  0  0  0
    6.2407    0.8086   22.6599 N   0  0  0  0  0  0  0  0  0  0  0  0
    7.5313    1.4499   22.4106 C   0  0  0  0  0  0  0  0  0  0  0  0
    8.6502    0.4086   22.3742 C   0  0  0  0  0  0  0  0  0  0  0  0
   10.0283    1.0440   22.1968 C   0  0  0  0  0  0  0  0  0  0  0  0
   11.1571    0.0281   22.2128 C   0  0  0  0  0  0  0  0  0  0  0  0
   11.1112   -0.8144   23.4777 C   0  0  0  0  0  0  0  0  0  0  0  0
    9.7352   -1.4476   23.6537 C   0  0  0  0  0  0  0  0  0  0  0  0
    8.6165   -0.4001   23.6789 C   0  0  0  0  0  0  0  0  0  0  0  0
    5.1957    0.9063   21.8102 C   0  0  0  0  0  0  0  0  0  0  0  0
    4.1170    0.3772   22.0473 O   0  0  0  0  0  0  0  0  0  0  0  0
    5.4109    1.7095   20.5423 C   0  0  0  0  0  0  0  0  0  0  0  0
    3.9566    1.7317   19.5365 Cl  0  0  0  0  0  0  0  0  0  0  0  0
    7.0238   -5.4194   29.1028 C   0  0  0  0  0  0  0  0  0  0  0  0
    7.1703   -6.6181   29.8644 C   0  0  0  0  0  0  0  0  0  0  0  0
    6.7960   -7.0699   31.1342 C   0  0  0  0  0  0  0  0  0  0  0  0
  1  2  1  0
  2  3  2  0
  2  4  1  0
  4  5  2  0
  5  6  1  0
  6  7  2  0
  7  8  1  0
  8  9  1  0
  9 10  1  0
 10 11  1  0
 11 12  2  0
 11 13  1  0
 13 14  1  0
 14 15  2  0
 15 16  1  0
 16 17  1  0
 16 18  2  0
 18 19  1  0
 19 20  2  0
 20 21  1  0
 21 22  1  0
 22 23  1  0
 23 24  1  0
 24 25  1  0
 25 26  1  0
 26 27  1  0
 27 28  1  0
 28 29  1  0
 29 30  1  0
 23 31  1  0
 31 32  2  0
 31 33  1  0
 33 34  1  0
  9 35  2  0
 35 36  1  0
 36 37  2  0
 37  4  1  0
 36  7  1  0
 20 14  1  0
 30 21  1  0
 30 25  1  0
M  END
