CVD-0003733|dock_bobby27042020.15|mol2|37|dock2
     RDKit          3D

 26 29  0  0  0  0  0  0  0  0999 V2000
    6.4369   -4.1710   24.8500 O   0  0  0  0  0  0  0  0  0  0  0  0
    6.6137   -4.3662   23.4443 C   0  0  0  0  0  0  0  0  0  0  0  0
    5.9044   -3.2946   22.6141 C   0  0  0  0  0  0  0  0  0  0  0  0
    6.5768   -1.9229   22.7230 C   0  0  0  0  0  0  0  0  0  0  0  0
    8.0363   -2.0418   22.3073 C   0  0  0  0  0  0  0  0  0  0  0  0
    8.7817   -3.0724   23.1501 C   0  0  0  0  0  0  0  0  0  0  0  0
    8.0862   -4.4304   23.0574 C   0  0  0  0  0  0  0  0  0  0  0  0
    8.7170   -0.7249   22.3459 N   0  0  0  0  0  0  0  0  0  0  0  0
    8.4447    0.3075   21.4689 C   0  0  0  0  0  0  0  0  0  0  0  0
    9.1027    1.3279   21.5785 O   0  0  0  0  0  0  0  0  0  0  0  0
    7.4160    0.3389   20.3658 C   0  0  0  0  0  0  0  0  0  0  0  0
    6.4306    1.3206   20.4554 C   0  0  0  0  0  0  0  0  0  0  0  0
    5.4356    1.4377   19.4998 C   0  0  0  0  0  0  0  0  0  0  0  0
    5.3985    0.5762   18.4273 C   0  0  0  0  0  0  0  0  0  0  0  0
    6.3658   -0.3959   18.3093 C   0  0  0  0  0  0  0  0  0  0  0  0
    7.3677   -0.5096   19.2590 C   0  0  0  0  0  0  0  0  0  0  0  0
    9.7170   -0.5507   23.3588 C   0  0  0  0  0  0  0  0  0  0  0  0
    9.3413   -0.1095   24.6095 C   0  0  0  0  0  0  0  0  0  0  0  0
   10.2712    0.0530   25.6222 C   0  0  0  0  0  0  0  0  0  0  0  0
   11.5897   -0.2170   25.4138 C   0  0  0  0  0  0  0  0  0  0  0  0
   12.0438   -0.6551   24.1474 C   0  0  0  0  0  0  0  0  0  0  0  0
   13.4080   -0.9348   23.8927 C   0  0  0  0  0  0  0  0  0  0  0  0
   13.8200   -1.3374   22.6575 C   0  0  0  0  0  0  0  0  0  0  0  0
   12.9157   -1.4799   21.6269 C   0  0  0  0  0  0  0  0  0  0  0  0
   11.5906   -1.2292   21.8250 C   0  0  0  0  0  0  0  0  0  0  0  0
   11.0982   -0.8173   23.0915 C   0  0  0  0  0  0  0  0  0  0  0  0
  1  2  1  0
  2  3  1  0
  3  4  1  0
  4  5  1  0
  5  6  1  0
  6  7  1  0
  5  8  1  0
  8  9  1  0
  9 10  2  0
  9 11  1  0
 11 12  2  0
 12 13  1  0
 13 14  2  0
 14 15  1  0
 15 16  2  0
  8 17  1  0
 17 18  2  0
 18 19  1  0
 19 20  2  0
 20 21  1  0
 21 22  2  0
 22 23  1  0
 23 24  2  0
 24 25  1  0
 25 26  2  0
  7  2  1  0
 16 11  1  0
 26 17  1  0
 26 21  1  0
M  END
