CVD-0001510|dock_bobby27042020.80|mol2|47|dock2
     RDKit          3D

 33 37  0  0  0  0  0  0  0  0999 V2000
   12.0585    5.6455   24.3008 N   0  0  0  0  0  0  0  0  0  0  0  0
   11.4265    4.9586   23.0001 S   0  0  0  0  0  0  0  0  0  0  0  0
   11.9003    5.6891   21.8630 O   0  0  0  0  0  0  0  0  0  0  0  0
   10.0146    4.8577   23.2182 O   0  0  0  0  0  0  0  0  0  0  0  0
   12.0594    3.3137   22.8718 C   0  0  0  0  0  0  0  0  0  0  0  0
   13.4159    3.1169   22.6752 C   0  0  0  0  0  0  0  0  0  0  0  0
   13.8916    1.8278   22.5379 C   0  0  0  0  0  0  0  0  0  0  0  0
   13.0382    0.7318   22.5936 C   0  0  0  0  0  0  0  0  0  0  0  0
   13.5767   -0.6769   22.5267 C   0  0  0  0  0  0  0  0  0  0  0  0
   12.5166   -1.6409   22.0362 C   0  0  0  0  0  0  0  0  0  0  0  0
   11.2571   -1.4976   22.8718 C   0  0  0  0  0  0  0  0  0  0  0  0
   10.7574   -0.1314   22.7895 N   0  0  0  0  0  0  0  0  0  0  0  0
    9.3505    0.0829   23.0468 C   0  0  0  0  0  0  0  0  0  0  0  0
    8.7334    0.9493   21.9502 C   0  0  0  0  0  0  0  0  0  0  0  0
    9.3749    1.2181   20.9423 O   0  0  0  0  0  0  0  0  0  0  0  0
    7.4718    1.3895   22.1409 N   0  0  0  0  0  0  0  0  0  0  0  0
    6.7338    2.2235   21.1601 C   0  0  0  0  0  0  0  0  0  0  0  0
    5.3812    1.6572   20.8849 C   0  0  0  0  0  0  0  0  0  0  0  0
    5.5222    0.3224   20.1663 C   0  0  0  0  0  0  0  0  0  0  0  0
    5.6464   -0.8596   20.8829 C   0  0  0  0  0  0  0  0  0  0  0  0
    5.7721   -2.0739   20.2289 C   0  0  0  0  0  0  0  0  0  0  0  0
    5.7745   -2.1214   18.8513 C   0  0  0  0  0  0  0  0  0  0  0  0
    5.6509   -0.9552   18.1267 C   0  0  0  0  0  0  0  0  0  0  0  0
    5.5252    0.2596   18.7798 C   0  0  0  0  0  0  0  0  0  0  0  0
    4.5976    1.5455   22.1683 C   0  0  0  0  0  0  0  0  0  0  0  0
    3.2143    1.7325   22.2075 C   0  0  0  0  0  0  0  0  0  0  0  0
    2.4970    1.6245   23.3858 C   0  0  0  0  0  0  0  0  0  0  0  0
    3.1538    1.3247   24.5583 C   0  0  0  0  0  0  0  0  0  0  0  0
    4.5236    1.1350   24.5435 C   0  0  0  0  0  0  0  0  0  0  0  0
    5.2500    1.2424   23.3620 C   0  0  0  0  0  0  0  0  0  0  0  0
    6.7608    0.9917   23.3718 C   0  0  0  0  0  0  0  0  0  0  0  0
   11.6574    0.9417   22.7942 C   0  0  0  0  0  0  0  0  0  0  0  0
   11.1791    2.2438   22.9326 C   0  0  0  0  0  0  0  0  0  0  0  0
  1  2  1  0
  2  3  2  0
  2  4  2  0
  2  5  1  0
  5  6  2  0
  6  7  1  0
  7  8  2  0
  8  9  1  0
  9 10  1  0
 10 11  1  0
 11 12  1  0
 12 13  1  0
 13 14  1  0
 14 15  2  0
 14 16  1  0
 16 17  1  0
 17 18  1  0
 18 19  1  0
 19 20  2  0
 20 21  1  0
 21 22  2  0
 22 23  1  0
 23 24  2  0
 18 25  1  0
 25 26  2  0
 26 27  1  0
 27 28  2  0
 28 29  1  0
 29 30  2  0
 30 31  1  0
 12 32  1  0
 32 33  2  0
 33  5  1  0
 32  8  1  0
 31 16  1  0
 24 19  1  0
 30 25  1  0
M  END
