CVD-0000167|dock_bobby27042020.71|mol2|15|dock1
     RDKit          3D

 20 21  0  0  0  0  0  0  0  0999 V2000
   13.2419    6.0671   23.1838 C   0  0  0  0  0  0  0  0  0  0  0  0
   13.4305    5.4555   21.8702 N   0  0  0  0  0  0  0  0  0  0  0  0
   13.3410    3.8702   21.6814 S   0  0  0  0  0  0  0  0  0  0  0  0
   14.6384    3.3340   21.9638 O   0  0  0  0  0  0  0  0  0  0  0  0
   12.7578    3.6269   20.3965 O   0  0  0  0  0  0  0  0  0  0  0  0
   12.2125    3.2742   22.9243 C   0  0  0  0  0  0  0  0  0  0  0  0
   11.8620    1.8228   22.7376 C   0  0  0  0  0  0  0  0  0  0  0  0
   12.7237    0.8272   23.1763 C   0  0  0  0  0  0  0  0  0  0  0  0
   12.4169   -0.5134   23.0163 C   0  0  0  0  0  0  0  0  0  0  0  0
   11.2176   -0.8588   22.4030 C   0  0  0  0  0  0  0  0  0  0  0  0
   10.6633   -2.0823   22.1167 N   0  0  0  0  0  0  0  0  0  0  0  0
    9.4565   -1.8875   21.5015 C   0  0  0  0  0  0  0  0  0  0  0  0
    9.1981   -0.5543   21.3732 C   0  0  0  0  0  0  0  0  0  0  0  0
    7.9885    0.0861   20.7578 C   0  0  0  0  0  0  0  0  0  0  0  0
    7.3176   -0.8040   19.7258 C   0  0  0  0  0  0  0  0  0  0  0  0
    6.3087   -0.1144   18.9251 N   0  0  0  0  0  0  0  0  0  0  0  0
    5.3073    0.5135   19.7796 C   0  0  0  0  0  0  0  0  0  0  0  0
    5.6587   -1.0373   18.0016 C   0  0  0  0  0  0  0  0  0  0  0  0
   10.3223    0.1268   21.9486 C   0  0  0  0  0  0  0  0  0  0  0  0
   10.6656    1.4654   22.1273 C   0  0  0  0  0  0  0  0  0  0  0  0
  1  2  1  0
  2  3  1  0
  3  4  2  0
  3  5  2  0
  3  6  1  0
  6  7  1  0
  7  8  2  0
  8  9  1  0
  9 10  2  0
 10 11  1  0
 11 12  1  0
 12 13  2  0
 13 14  1  0
 14 15  1  0
 15 16  1  0
 16 17  1  0
 16 18  1  0
 13 19  1  0
 19 20  2  0
 20  7  1  0
 19 10  1  0
M  END
