CVD-0001763|dock_bobby27042020.8|mol2|29|dock1
     RDKit          3D

 29 31  0  0  0  0  0  0  0  0999 V2000
    5.6488    0.6821   19.2495 C   0  0  0  0  0  0  0  0  0  0  0  0
    6.8395   -0.0551   18.7216 C   0  0  0  0  0  0  0  0  0  0  0  0
    7.8236   -0.2918   19.7646 N   0  0  0  0  0  0  0  0  0  0  0  0
    7.6490   -1.1923   20.7451 C   0  0  0  0  0  0  0  0  0  0  0  0
    6.5220   -1.9308   20.6884 N   0  0  0  0  0  0  0  0  0  0  0  0
    6.2657   -2.7944   21.6764 C   0  0  0  0  0  0  0  0  0  0  0  0
    7.1080   -2.9945   22.7618 C   0  0  0  0  0  0  0  0  0  0  0  0
    8.2898   -2.2658   22.8141 C   0  0  0  0  0  0  0  0  0  0  0  0
    8.5855   -1.3665   21.7941 C   0  0  0  0  0  0  0  0  0  0  0  0
    9.8372   -0.6504   21.8676 N   0  0  0  0  0  0  0  0  0  0  0  0
   11.0526   -1.4450   21.7539 C   0  0  0  0  0  0  0  0  0  0  0  0
   12.0193   -1.1105   22.7771 N   0  0  0  0  0  0  0  0  0  0  0  0
   11.4303   -1.2429   24.1150 C   0  0  0  0  0  0  0  0  0  0  0  0
   12.4085   -0.8453   25.2027 C   0  0  0  0  0  0  0  0  0  0  0  0
   13.7101   -1.6356   25.1411 C   0  0  0  0  0  0  0  0  0  0  0  0
   14.6996   -1.1939   26.0743 O   0  0  0  0  0  0  0  0  0  0  0  0
   14.2482   -1.5659   23.7163 C   0  0  0  0  0  0  0  0  0  0  0  0
   13.2063   -1.9647   22.6844 C   0  0  0  0  0  0  0  0  0  0  0  0
   10.0113    0.7221   22.0434 C   0  0  0  0  0  0  0  0  0  0  0  0
   11.1627    1.1332   22.1053 O   0  0  0  0  0  0  0  0  0  0  0  0
    8.9093    1.5376   22.1258 N   0  0  0  0  0  0  0  0  0  0  0  0
    8.8266    2.9444   22.2902 C   0  0  0  0  0  0  0  0  0  0  0  0
    9.8638    3.7585   22.7378 C   0  0  0  0  0  0  0  0  0  0  0  0
    9.6554    5.1224   22.8511 C   0  0  0  0  0  0  0  0  0  0  0  0
    8.4234    5.6367   22.5202 C   0  0  0  0  0  0  0  0  0  0  0  0
    7.4102    4.8840   22.0930 N   0  0  0  0  0  0  0  0  0  0  0  0
    7.6224    3.5694   21.9855 C   0  0  0  0  0  0  0  0  0  0  0  0
    6.7720   -3.9307   23.8061 C   0  0  0  0  0  0  0  0  0  0  0  0
    6.4902   -4.6912   24.6105 N   0  0  0  0  0  0  0  0  0  0  0  0
  1  2  1  0
  2  3  1  0
  3  4  1  0
  4  5  2  0
  5  6  1  0
  6  7  2  0
  7  8  1  0
  8  9  2  0
  9 10  1  0
 10 11  1  0
 11 12  1  0
 12 13  1  0
 13 14  1  0
 14 15  1  0
 15 16  1  0
 15 17  1  0
 17 18  1  0
 10 19  1  0
 19 20  2  0
 19 21  1  0
 21 22  1  0
 22 23  2  0
 23 24  1  0
 24 25  2  0
 25 26  1  0
 26 27  2  0
  7 28  1  0
 28 29  3  0
  9  4  1  0
 18 12  1  0
 27 22  1  0
M  END
