CVD-0001586|dock_bobby27042020.52|mol2|13|dock1
     RDKit          3D

 19 21  0  0  0  0  0  0  0  0999 V2000
    5.5355   -1.4737   19.4972 C   0  0  0  0  0  0  0  0  0  0  0  0
    6.6928   -0.8148   18.7620 C   0  0  0  0  0  0  0  0  0  0  0  0
    7.6586   -0.1158   19.6863 C   0  0  0  0  0  0  0  0  0  0  0  0
    7.6468    1.1029   19.8294 O   0  0  0  0  0  0  0  0  0  0  0  0
    8.5155   -0.9044   20.3293 N   0  0  0  0  0  0  0  0  0  0  0  0
    9.5135   -0.3932   21.2579 C   0  0  0  0  0  0  0  0  0  0  0  0
    9.0667   -0.5184   22.7049 C   0  0  0  0  0  0  0  0  0  0  0  0
    9.3746    0.7282   23.5452 C   0  0  0  0  0  0  0  0  0  0  0  0
    8.4965    1.9399   23.1806 C   0  0  0  0  0  0  0  0  0  0  0  0
    9.4239    3.1055   22.8413 C   0  0  0  0  0  0  0  0  0  0  0  0
   10.8133    2.5284   22.8951 C   0  0  0  0  0  0  0  0  0  0  0  0
   12.0152    3.1745   22.6089 C   0  0  0  0  0  0  0  0  0  0  0  0
   13.2113    2.4758   22.6899 C   0  0  0  0  0  0  0  0  0  0  0  0
   13.1801    1.1366   23.0582 C   0  0  0  0  0  0  0  0  0  0  0  0
   14.2681    0.3188   23.2125 O   0  0  0  0  0  0  0  0  0  0  0  0
   13.7665   -1.0349   23.3778 C   0  0  0  0  0  0  0  0  0  0  0  0
   12.3075   -0.9080   23.7818 C   0  0  0  0  0  0  0  0  0  0  0  0
   11.9847    0.4923   23.3433 C   0  0  0  0  0  0  0  0  0  0  0  0
   10.7792    1.1932   23.2625 C   0  0  0  0  0  0  0  0  0  0  0  0
  1  2  1  0
  2  3  1  0
  3  4  2  0
  3  5  1  0
  5  6  1  0
  6  7  1  0
  8  7  1  0
  8  9  1  0
  9 10  1  0
 10 11  1  0
 11 12  2  0
 12 13  1  0
 13 14  2  0
 14 15  1  0
 15 16  1  0
 16 17  1  0
 17 18  1  0
 18 19  2  0
 19  8  1  0
 19 11  1  0
 18 14  1  0
M  END
