CVD-0002340|dock_bobby27042020.77|mol2|36|dock2
     RDKit          3D

 19 20  0  0  0  0  0  0  0  0999 V2000
   13.5922   -2.0810   20.5184 N   0  0  0  0  0  0  0  0  0  0  0  0
   13.6343   -1.8683   21.8243 C   0  0  0  0  0  0  0  0  0  0  0  0
   14.6605   -2.0359   22.4860 O   0  0  0  0  0  0  0  0  0  0  0  0
   12.3261   -1.4062   22.4736 C   0  0  0  0  0  0  0  0  0  0  0  0
   12.1298   -2.0805   23.8508 C   0  0  0  0  0  0  0  0  0  0  0  0
   10.7816   -1.8409   24.4916 C   0  0  0  0  0  0  0  0  0  0  0  0
   10.5883   -0.8008   25.3885 C   0  0  0  0  0  0  0  0  0  0  0  0
    9.3538   -0.5900   25.9798 C   0  0  0  0  0  0  0  0  0  0  0  0
    8.2939   -1.4194   25.6840 C   0  0  0  0  0  0  0  0  0  0  0  0
    8.4704   -2.4597   24.7978 C   0  0  0  0  0  0  0  0  0  0  0  0
    9.7055   -2.6688   24.2075 C   0  0  0  0  0  0  0  0  0  0  0  0
   12.2892    0.1133   22.5513 C   0  0  0  0  0  0  0  0  0  0  0  0
   11.0931    0.8062   22.4380 C   0  0  0  0  0  0  0  0  0  0  0  0
   11.0724    2.1871   22.5032 C   0  0  0  0  0  0  0  0  0  0  0  0
   12.2826    2.8489   22.6832 C   0  0  0  0  0  0  0  0  0  0  0  0
   13.4614    2.2083   22.7962 N   0  0  0  0  0  0  0  0  0  0  0  0
   13.4362    0.8718   22.7302 C   0  0  0  0  0  0  0  0  0  0  0  0
   12.3269    4.2961   22.7587 C   0  0  0  0  0  0  0  0  0  0  0  0
   12.3493    5.4341   22.8540 N   0  0  0  0  0  0  0  0  0  0  0  0
  1  2  1  0
  2  3  2  0
  2  4  1  0
  4  5  1  0
  5  6  1  0
  6  7  2  0
  7  8  1  0
  8  9  2  0
  9 10  1  0
 10 11  2  0
  4 12  1  0
 12 13  2  0
 13 14  1  0
 14 15  2  0
 15 16  1  0
 16 17  2  0
 15 18  1  0
 18 19  3  0
 11  6  1  0
 17 12  1  0
M  END
