CVD-0003115|dock_bobby27042020.60|mol2|43|dock1
     RDKit          3D

 17 18  0  0  0  0  0  0  0  0999 V2000
    7.8189   -2.7960   20.7679 C   0  0  0  0  0  0  0  0  0  0  0  0
    7.8100   -1.2896   20.5621 C   0  0  0  0  0  0  0  0  0  0  0  0
    9.1633   -0.7776   20.7626 N   0  0  0  0  0  0  0  0  0  0  0  0
    9.4313    0.2151   21.6282 C   0  0  0  0  0  0  0  0  0  0  0  0
    8.5761    0.7578   22.3171 O   0  0  0  0  0  0  0  0  0  0  0  0
   10.7514    0.6134   21.7198 N   0  0  0  0  0  0  0  0  0  0  0  0
   11.2312    1.6774   22.6068 C   0  0  0  0  0  0  0  0  0  0  0  0
   12.7334    1.6530   22.8115 C   0  0  0  0  0  0  0  0  0  0  0  0
   13.2689    0.3465   23.4044 C   0  0  0  0  0  0  0  0  0  0  0  0
   13.5185   -0.7202   22.3552 C   0  0  0  0  0  0  0  0  0  0  0  0
   12.2839   -1.1557   21.5998 C   0  0  0  0  0  0  0  0  0  0  0  0
   11.6658   -0.0451   20.8921 O   0  0  0  0  0  0  0  0  0  0  0  0
    7.3109   -0.8795   19.1699 C   0  0  0  0  0  0  0  0  0  0  0  0
    7.2114    0.6501   19.0057 C   0  0  0  0  0  0  0  0  0  0  0  0
    5.8143    0.8363   18.4207 C   0  0  0  0  0  0  0  0  0  0  0  0
    5.0445   -0.2231   18.9163 O   0  0  0  0  0  0  0  0  0  0  0  0
    5.8835   -1.3619   18.8890 C   0  0  0  0  0  0  0  0  0  0  0  0
  2  1  1  0
  2  3  1  0
  3  4  1  0
  4  5  2  0
  4  6  1  0
  6  7  1  0
  7  8  1  0
  8  9  1  0
  9 10  1  0
 10 11  1  0
 11 12  1  0
  2 13  1  0
 13 14  1  0
 14 15  1  0
 15 16  1  0
 16 17  1  0
 12  6  1  0
 17 13  1  0
M  END
