CVD-0001614|dock_bobby27042020.52|mol2|9|dock3
     RDKit          3D

 18 19  0  0  0  0  0  0  0  0999 V2000
    6.4423   -6.2043   21.4165 C   0  0  0  0  0  0  0  0  0  0  0  0
    6.4688   -5.0985   22.1188 C   0  0  0  0  0  0  0  0  0  0  0  0
    6.5001   -3.6951   21.5957 C   0  0  0  0  0  0  0  0  0  0  0  0
    5.7352   -3.4448   20.6654 O   0  0  0  0  0  0  0  0  0  0  0  0
    7.3113   -2.7072   22.0646 N   0  0  0  0  0  0  0  0  0  0  0  0
    8.2512   -2.9089   23.1695 C   0  0  0  0  0  0  0  0  0  0  0  0
    9.6525   -2.5000   22.7547 C   0  0  0  0  0  0  0  0  0  0  0  0
    9.6662   -1.0978   22.3277 N   0  0  0  0  0  0  0  0  0  0  0  0
   11.0108   -0.6905   21.9676 C   0  0  0  0  0  0  0  0  0  0  0  0
   12.0394   -1.1075   22.9006 N   0  0  0  0  0  0  0  0  0  0  0  0
   12.2914   -0.2216   24.0574 C   0  0  0  0  0  0  0  0  0  0  0  0
   12.5500   -0.9788   25.3516 C   0  0  0  0  0  0  0  0  0  0  0  0
   14.0289   -1.2951   25.6409 C   0  0  0  0  0  0  0  0  0  0  0  0
   14.7271   -1.6018   24.4293 O   0  0  0  0  0  0  0  0  0  0  0  0
   14.0545   -2.4655   23.5190 C   0  0  0  0  0  0  0  0  0  0  0  0
   13.3000   -1.7150   22.4483 C   0  0  0  0  0  0  0  0  0  0  0  0
    8.7615   -0.9364   21.1925 C   0  0  0  0  0  0  0  0  0  0  0  0
    7.3450   -1.3259   21.5741 C   0  0  0  0  0  0  0  0  0  0  0  0
  1  2  2  0
  2  3  1  0
  3  4  2  0
  3  5  1  0
  5  6  1  0
  6  7  1  0
  7  8  1  0
  8  9  1  0
  9 10  1  0
 10 11  1  0
 11 12  1  0
 12 13  1  0
 13 14  1  0
 14 15  1  0
 15 16  1  0
  8 17  1  0
 17 18  1  0
 18  5  1  0
 16 10  1  0
M  END
