CVD-0002135|dock_bobby27042020.92|mol2|34|dock3
     RDKit          3D

 21 23  0  0  0  0  0  0  0  0999 V2000
    8.7637   -2.7725   24.4973 N   0  0  0  0  0  0  0  0  0  0  0  0
    8.2273   -3.3110   23.2276 C   0  0  0  0  0  0  0  0  0  0  0  0
    8.4706   -2.3832   22.0445 C   0  0  0  0  0  0  0  0  0  0  0  0
    7.3374   -1.5361   21.9391 O   0  0  0  0  0  0  0  0  0  0  0  0
    7.4983   -0.5104   20.9359 C   0  0  0  0  0  0  0  0  0  0  0  0
    8.5693    0.4550   21.5080 C   0  0  0  0  0  0  0  0  0  0  0  0
    9.8623   -0.3252   21.6797 C   0  0  0  0  0  0  0  0  0  0  0  0
   11.1280    0.2707   21.6094 C   0  0  0  0  0  0  0  0  0  0  0  0
   11.2943    1.4981   21.0211 O   0  0  0  0  0  0  0  0  0  0  0  0
   12.2711   -0.4290   21.9876 C   0  0  0  0  0  0  0  0  0  0  0  0
   13.4848    0.1699   21.8714 O   0  0  0  0  0  0  0  0  0  0  0  0
   12.1745   -1.7378   22.4430 C   0  0  0  0  0  0  0  0  0  0  0  0
   10.9307   -2.3358   22.5161 C   0  0  0  0  0  0  0  0  0  0  0  0
    9.7801   -1.6417   22.1388 C   0  0  0  0  0  0  0  0  0  0  0  0
    7.7749   -1.2309   19.6173 C   0  0  0  0  0  0  0  0  0  0  0  0
    6.7146   -2.3093   19.3428 C   0  0  0  0  0  0  0  0  0  0  0  0
    5.3499   -1.6733   19.0922 C   0  0  0  0  0  0  0  0  0  0  0  0
    5.4122   -0.6836   17.9310 C   0  0  0  0  0  0  0  0  0  0  0  0
    6.4897    0.3666   18.1392 C   0  0  0  0  0  0  0  0  0  0  0  0
    6.5411    1.3246   17.0786 O   0  0  0  0  0  0  0  0  0  0  0  0
    7.8530   -0.2680   18.4352 C   0  0  0  0  0  0  0  0  0  0  0  0
  1  2  1  0
  2  3  1  0
  3  4  1  0
  4  5  1  0
  5  6  1  0
  6  7  1  0
  7  8  2  0
  8  9  1  0
  8 10  1  0
 10 11  1  0
 10 12  2  0
 12 13  1  0
 13 14  2  0
  5 15  1  0
 15 16  1  0
 16 17  1  0
 17 18  1  0
 18 19  1  0
 19 20  1  0
 19 21  1  0
 14  3  1  0
 21 15  1  0
 14  7  1  0
M  END
