CVD-0002773|dock_bobby27042020.90|mol2|15|dock2
     RDKit          3D

 25 26  0  0  0  0  0  0  0  0999 V2000
    6.3624   -1.7194   18.3306 C   0  0  0  0  0  0  0  0  0  0  0  0
    6.3475   -0.3551   18.9980 C   0  0  0  0  0  0  0  0  0  0  0  0
    5.3904    0.5720   18.2691 C   0  0  0  0  0  0  0  0  0  0  0  0
    7.7355    0.2341   19.0138 C   0  0  0  0  0  0  0  0  0  0  0  0
    8.6664   -0.4947   19.8657 N   0  0  0  0  0  0  0  0  0  0  0  0
    8.5528   -0.4874   21.1965 C   0  0  0  0  0  0  0  0  0  0  0  0
    7.6745    0.1721   21.7443 O   0  0  0  0  0  0  0  0  0  0  0  0
    9.5159   -1.2674   22.0482 C   0  0  0  0  0  0  0  0  0  0  0  0
   10.8534   -1.1319   21.6782 C   0  0  0  0  0  0  0  0  0  0  0  0
   11.8383   -1.8604   22.3208 C   0  0  0  0  0  0  0  0  0  0  0  0
   11.4908   -2.7682   23.3051 C   0  0  0  0  0  0  0  0  0  0  0  0
   10.1596   -2.9203   23.6909 C   0  0  0  0  0  0  0  0  0  0  0  0
    9.9243   -4.0115   24.6985 C   0  0  0  0  0  0  0  0  0  0  0  0
   10.1409   -5.1774   24.3820 O   0  0  0  0  0  0  0  0  0  0  0  0
    9.4609   -3.7087   25.9190 N   0  0  0  0  0  0  0  0  0  0  0  0
    9.2271   -4.7239   26.9402 C   0  0  0  0  0  0  0  0  0  0  0  0
    7.9141   -4.7306   27.5398 C   0  0  0  0  0  0  0  0  0  0  0  0
    8.2901   -5.7850   26.5488 C   0  0  0  0  0  0  0  0  0  0  0  0
    7.6739   -5.7358   25.2866 F   0  0  0  0  0  0  0  0  0  0  0  0
    9.1732   -2.0773   23.1468 C   0  0  0  0  0  0  0  0  0  0  0  0
    7.4423   -1.9946   23.9093 Br  0  0  0  0  0  0  0  0  0  0  0  0
   13.5341   -1.6454   21.8726 S   0  0  0  0  0  0  0  0  0  0  0  0
   13.6627   -1.8015   20.2844 N   0  0  0  0  0  0  0  0  0  0  0  0
   14.2726   -2.7201   22.4648 O   0  0  0  0  0  0  0  0  0  0  0  0
   13.8945   -0.2976   22.1961 O   0  0  0  0  0  0  0  0  0  0  0  0
  1  2  1  0
  2  3  1  0
  2  4  1  0
  4  5  1  0
  5  6  1  0
  6  7  2  0
  6  8  1  0
  8  9  2  0
  9 10  1  0
 10 11  2  0
 11 12  1  0
 12 13  1  0
 13 14  2  0
 13 15  1  0
 16 15  1  0
 16 17  1  0
 17 18  1  0
 18 19  1  0
 12 20  2  0
 20 21  1  0
 10 22  1  0
 22 23  1  0
 22 24  2  0
 22 25  2  0
 20  8  1  0
 18 16  1  0
M  END
