CVD-0000225|dock_bobby27042020.28|mol2|7|dock2
     RDKit          3D

 24 26  0  0  0  0  0  0  0  0999 V2000
    9.1996   -0.0173   22.5896 O   0  0  0  0  0  0  0  0  0  0  0  0
    9.7141   -0.6029   21.6429 C   0  0  0  0  0  0  0  0  0  0  0  0
   10.9748   -1.1548   21.6645 N   0  0  0  0  0  0  0  0  0  0  0  0
   11.9497   -1.1999   22.6934 C   0  0  0  0  0  0  0  0  0  0  0  0
   12.9670   -2.1414   22.6026 C   0  0  0  0  0  0  0  0  0  0  0  0
   13.9319   -2.2084   23.5920 C   0  0  0  0  0  0  0  0  0  0  0  0
   13.8537   -1.3305   24.6477 C   0  0  0  0  0  0  0  0  0  0  0  0
   12.8914   -0.4158   24.7650 N   0  0  0  0  0  0  0  0  0  0  0  0
   11.9636   -0.3585   23.8044 C   0  0  0  0  0  0  0  0  0  0  0  0
    9.1066   -0.7932   20.4224 N   0  0  0  0  0  0  0  0  0  0  0  0
    7.8275   -0.4030   19.9501 C   0  0  0  0  0  0  0  0  0  0  0  0
    7.2920   -1.1169   18.8844 C   0  0  0  0  0  0  0  0  0  0  0  0
    6.0477   -0.7874   18.3749 C   0  0  0  0  0  0  0  0  0  0  0  0
    5.3256    0.2570   18.9238 C   0  0  0  0  0  0  0  0  0  0  0  0
    5.8370    0.9826   19.9870 C   0  0  0  0  0  0  0  0  0  0  0  0
    5.0567    2.1259   20.5892 C   0  0  0  0  0  0  0  0  0  0  0  0
    3.7367    1.6680   21.2166 C   0  0  0  0  0  0  0  0  0  0  0  0
    2.6005    2.7018   21.2085 C   0  0  0  0  0  0  0  0  0  0  0  0
    2.0491    3.0183   19.8001 C   0  0  0  0  0  0  0  0  0  0  0  0
    0.6415    2.7088   20.2757 C   0  0  0  0  0  0  0  0  0  0  0  0
    1.2029    2.1902   21.6018 C   0  0  0  0  0  0  0  0  0  0  0  0
    3.0048    3.9261   21.9299 C   0  0  0  0  0  0  0  0  0  0  0  0
    3.3287    4.8793   22.4606 N   0  0  0  0  0  0  0  0  0  0  0  0
    7.0870    0.6470   20.4921 C   0  0  0  0  0  0  0  0  0  0  0  0
  1  2  2  0
  2  3  1  0
  3  4  1  0
  4  5  2  0
  5  6  1  0
  6  7  2  0
  7  8  1  0
  8  9  2  0
  2 10  1  0
 10 11  1  0
 11 12  2  0
 12 13  1  0
 13 14  2  0
 14 15  1  0
 15 16  1  0
 16 17  1  0
 17 18  1  0
 18 19  1  0
 19 20  1  0
 20 21  1  0
 18 22  1  0
 22 23  3  0
 15 24  2  0
  9  4  1  0
 24 11  1  0
 21 18  1  0
M  END
