CVD-0000184|dock_bobby27042020.13|mol2|42|dock2
     RDKit          3D

 18 19  0  0  0  0  0  0  0  0999 V2000
   14.0296   -0.1472   22.4669 C   0  0  0  0  0  0  0  0  0  0  0  0
   13.0393   -0.3005   23.3056 C   0  0  0  0  0  0  0  0  0  0  0  0
   12.0045   -1.3492   23.0772 C   0  0  0  0  0  0  0  0  0  0  0  0
   12.3512   -2.4599   22.6787 O   0  0  0  0  0  0  0  0  0  0  0  0
   10.6935   -1.0910   23.2995 N   0  0  0  0  0  0  0  0  0  0  0  0
   10.1511    0.1896   23.7452 C   0  0  0  0  0  0  0  0  0  0  0  0
    8.7783    0.4720   23.1666 C   0  0  0  0  0  0  0  0  0  0  0  0
    8.6372    0.4466   21.6538 C   0  0  0  0  0  0  0  0  0  0  0  0
    8.5448   -0.9436   21.1113 N   0  0  0  0  0  0  0  0  0  0  0  0
    7.0958   -1.1817   21.0268 C   0  0  0  0  0  0  0  0  0  0  0  0
    6.3716   -0.2206   20.1138 C   0  0  0  0  0  0  0  0  0  0  0  0
    5.1027    0.2380   20.4315 C   0  0  0  0  0  0  0  0  0  0  0  0
    4.4397    1.1213   19.5958 C   0  0  0  0  0  0  0  0  0  0  0  0
    5.0388    1.5563   18.4332 C   0  0  0  0  0  0  0  0  0  0  0  0
    6.3008    1.1085   18.1063 C   0  0  0  0  0  0  0  0  0  0  0  0
    6.9635    0.2253   18.9422 C   0  0  0  0  0  0  0  0  0  0  0  0
    9.2327   -2.1854   21.5646 C   0  0  0  0  0  0  0  0  0  0  0  0
    9.7201   -2.1314   23.0018 C   0  0  0  0  0  0  0  0  0  0  0  0
  1  2  2  0
  2  3  1  0
  3  4  2  0
  3  5  1  0
  5  6  1  0
  6  7  1  0
  7  8  1  0
  8  9  1  0
  9 10  1  0
 10 11  1  0
 11 12  2  0
 12 13  1  0
 13 14  2  0
 14 15  1  0
 15 16  2  0
  9 17  1  0
 17 18  1  0
 18  5  1  0
 16 11  1  0
M  END
