CVD-0001081|dock_bobby27042020.68|mol2|15|dock1
     RDKit          3D

 23 25  0  0  0  0  0  0  0  0999 V2000
    1.1763    2.0374   21.5469 O   0  0  0  0  0  0  0  0  0  0  0  0
    1.7142    2.6273   20.6120 N   0  0  0  0  0  0  0  0  0  0  0  0
    1.2951    3.6639   20.1258 O   0  0  0  0  0  0  0  0  0  0  0  0
    2.9387    2.0471   20.0449 C   0  0  0  0  0  0  0  0  0  0  0  0
    3.3524    2.4077   18.7742 C   0  0  0  0  0  0  0  0  0  0  0  0
    4.5110    1.8635   18.2497 C   0  0  0  0  0  0  0  0  0  0  0  0
    5.2803    0.9570   18.9735 C   0  0  0  0  0  0  0  0  0  0  0  0
    4.8336    0.5946   20.2433 C   0  0  0  0  0  0  0  0  0  0  0  0
    3.6801    1.1382   20.7803 C   0  0  0  0  0  0  0  0  0  0  0  0
    6.5271    0.4205   18.3375 C   0  0  0  0  0  0  0  0  0  0  0  0
    6.5625    0.4117   17.1021 O   0  0  0  0  0  0  0  0  0  0  0  0
    7.7016   -0.0955   19.0713 C   0  0  0  0  0  0  0  0  0  0  0  0
    8.0686    0.2775   20.2960 C   0  0  0  0  0  0  0  0  0  0  0  0
    9.2278   -0.2221   21.0409 C   0  0  0  0  0  0  0  0  0  0  0  0
    9.5298   -1.5801   21.1056 C   0  0  0  0  0  0  0  0  0  0  0  0
   10.5578   -2.0668   21.7612 N   0  0  0  0  0  0  0  0  0  0  0  0
   11.3537   -1.1577   22.4045 C   0  0  0  0  0  0  0  0  0  0  0  0
   12.4827   -1.5941   23.1348 C   0  0  0  0  0  0  0  0  0  0  0  0
   13.2729   -0.6844   23.7743 C   0  0  0  0  0  0  0  0  0  0  0  0
   12.9893    0.6660   23.7217 C   0  0  0  0  0  0  0  0  0  0  0  0
   11.9104    1.1317   23.0289 C   0  0  0  0  0  0  0  0  0  0  0  0
   11.0628    0.2262   22.3504 C   0  0  0  0  0  0  0  0  0  0  0  0
    9.9783    0.6855   21.6529 N   0  0  0  0  0  0  0  0  0  0  0  0
  1  2  1  0
  2  3  2  0
  2  4  1  0
  4  5  2  0
  5  6  1  0
  6  7  2  0
  7  8  1  0
  8  9  2  0
  7 10  1  0
 10 11  2  0
 10 12  1  0
 12 13  2  0
 13 14  1  0
 14 15  2  0
 15 16  1  0
 16 17  2  0
 17 18  1  0
 18 19  2  0
 19 20  1  0
 20 21  2  0
 21 22  1  0
 22 23  2  0
  9  4  1  0
 23 14  1  0
 22 17  1  0
M  CHG  2   1  -1   2   1
M  END
