CVD-0000601|dock_bobby27042020.26|mol2|42|dock1
     RDKit          3D

 19 20  0  0  0  0  0  0  0  0999 V2000
    6.4201   -3.2294   21.0874 O   0  0  0  0  0  0  0  0  0  0  0  0
    6.6099   -2.1205   20.3255 C   0  0  0  0  0  0  0  0  0  0  0  0
    5.8211   -2.0022   19.1873 C   0  0  0  0  0  0  0  0  0  0  0  0
    5.9496   -0.9051   18.3561 C   0  0  0  0  0  0  0  0  0  0  0  0
    6.8648    0.0772   18.6575 C   0  0  0  0  0  0  0  0  0  0  0  0
    7.6584   -0.0253   19.7878 C   0  0  0  0  0  0  0  0  0  0  0  0
    7.5539   -1.1219   20.6497 C   0  0  0  0  0  0  0  0  0  0  0  0
    8.4689   -1.1240   21.8472 C   0  0  0  0  0  0  0  0  0  0  0  0
    7.9964   -0.8302   22.9402 O   0  0  0  0  0  0  0  0  0  0  0  0
    9.7753   -1.4526   21.6532 N   0  0  0  0  0  0  0  0  0  0  0  0
   10.8606   -1.5424   22.5628 C   0  0  0  0  0  0  0  0  0  0  0  0
   12.0986   -1.9106   22.0465 C   0  0  0  0  0  0  0  0  0  0  0  0
   13.2082   -2.0215   22.8647 C   0  0  0  0  0  0  0  0  0  0  0  0
   13.0913   -1.7634   24.2194 C   0  0  0  0  0  0  0  0  0  0  0  0
   11.8671   -1.3957   24.7508 C   0  0  0  0  0  0  0  0  0  0  0  0
   10.7587   -1.2856   23.9294 C   0  0  0  0  0  0  0  0  0  0  0  0
   14.2663   -1.8796   25.0932 N   0  0  0  0  0  0  0  0  0  0  0  0
   15.2666   -2.4346   24.6432 O   0  0  0  0  0  0  0  0  0  0  0  0
   14.1880   -1.4195   26.2197 O   0  0  0  0  0  0  0  0  0  0  0  0
  1  2  1  0
  2  3  2  0
  3  4  1  0
  4  5  2  0
  5  6  1  0
  6  7  2  0
  7  8  1  0
  8  9  2  0
  8 10  1  0
 10 11  1  0
 11 12  2  0
 12 13  1  0
 13 14  2  0
 14 15  1  0
 15 16  2  0
 14 17  1  0
 17 18  1  0
 17 19  2  0
  7  2  1  0
 16 11  1  0
M  CHG  2  17   1  18  -1
M  END
