CVD-0000636|dock_bobby27042020.98|mol2|1|dock3
     RDKit          3D

 26 28  0  0  0  0  0  0  0  0999 V2000
   13.7992    3.1468   22.3649 C   0  0  0  0  0  0  0  0  0  0  0  0
   14.3471    1.7612   22.5417 C   0  0  0  0  0  0  0  0  0  0  0  0
   15.4948    1.4826   22.2133 O   0  0  0  0  0  0  0  0  0  0  0  0
   13.5376    0.8232   23.0914 N   0  0  0  0  0  0  0  0  0  0  0  0
   12.1598    1.1044   23.5004 C   0  0  0  0  0  0  0  0  0  0  0  0
   11.2031    0.1212   22.8520 C   0  0  0  0  0  0  0  0  0  0  0  0
   11.5674   -1.2527   23.2105 N   0  0  0  0  0  0  0  0  0  0  0  0
   10.6242   -2.2032   22.6197 C   0  0  0  0  0  0  0  0  0  0  0  0
    9.2491   -1.6186   22.5171 C   0  0  0  0  0  0  0  0  0  0  0  0
    8.8639   -1.2752   21.2671 N   0  0  0  0  0  0  0  0  0  0  0  0
    7.6167   -0.7169   20.9827 C   0  0  0  0  0  0  0  0  0  0  0  0
    7.2791   -0.3850   19.6740 C   0  0  0  0  0  0  0  0  0  0  0  0
    6.0346    0.1678   19.4082 C   0  0  0  0  0  0  0  0  0  0  0  0
    5.1199    0.4000   20.4226 C   0  0  0  0  0  0  0  0  0  0  0  0
    5.4529    0.0712   21.7237 C   0  0  0  0  0  0  0  0  0  0  0  0
    6.6947   -0.4872   22.0195 C   0  0  0  0  0  0  0  0  0  0  0  0
    7.0578   -0.8415   23.4061 C   0  0  0  0  0  0  0  0  0  0  0  0
    6.2956   -0.6646   24.3500 O   0  0  0  0  0  0  0  0  0  0  0  0
    8.3958   -1.4211   23.5784 C   0  0  0  0  0  0  0  0  0  0  0  0
    8.8267   -1.8368   25.1938 Cl  0  0  0  0  0  0  0  0  0  0  0  0
    5.6188    0.5912   17.7436 S   0  0  0  0  0  0  0  0  0  0  0  0
    4.5811    1.8100   17.7742 N   0  0  0  0  0  0  0  0  0  0  0  0
    4.9362   -0.5319   17.1744 O   0  0  0  0  0  0  0  0  0  0  0  0
    6.8128    1.0675   17.1124 O   0  0  0  0  0  0  0  0  0  0  0  0
   12.9251   -1.5229   22.7445 C   0  0  0  0  0  0  0  0  0  0  0  0
   13.9136   -0.5638   23.3826 C   0  0  0  0  0  0  0  0  0  0  0  0
  1  2  1  0
  2  3  2  0
  2  4  1  0
  4  5  1  0
  5  6  1  0
  6  7  1  0
  7  8  1  0
  8  9  1  0
  9 10  1  0
 10 11  1  0
 11 12  2  0
 12 13  1  0
 13 14  2  0
 14 15  1  0
 15 16  2  0
 16 17  1  0
 17 18  2  0
 17 19  1  0
 19 20  1  0
 13 21  1  0
 21 22  1  0
 21 23  2  0
 21 24  2  0
  7 25  1  0
 25 26  1  0
 26  4  1  0
 19  9  2  0
 16 11  1  0
M  END
