CVD-0004052|dock_bobby27042020.71|mol2|46|dock1
     RDKit          3D

 26 30  0  0  0  0  0  0  0  0999 V2000
    6.5311   -0.9750   19.6819 C   0  0  0  0  0  0  0  0  0  0  0  0
    7.7427   -0.6904   20.5124 C   0  0  0  0  0  0  0  0  0  0  0  0
    8.4031   -1.7430   21.1944 C   0  0  0  0  0  0  0  0  0  0  0  0
    9.4933   -1.4552   21.9377 C   0  0  0  0  0  0  0  0  0  0  0  0
    9.9324   -0.1170   22.0069 C   0  0  0  0  0  0  0  0  0  0  0  0
   10.9760    0.5824   22.6227 C   0  0  0  0  0  0  0  0  0  0  0  0
   10.7496    1.9447   22.2501 C   0  0  0  0  0  0  0  0  0  0  0  0
    9.7082    2.0500   21.4222 N   0  0  0  0  0  0  0  0  0  0  0  0
    9.2270    0.8050   21.3122 N   0  0  0  0  0  0  0  0  0  0  0  0
    8.1325    0.5561   20.5601 N   0  0  0  0  0  0  0  0  0  0  0  0
   11.4235    3.2042   22.6295 C   0  0  0  0  0  0  0  0  0  0  0  0
   10.6739    4.3649   22.7885 C   0  0  0  0  0  0  0  0  0  0  0  0
   11.2733    5.5600   23.1439 C   0  0  0  0  0  0  0  0  0  0  0  0
   12.6269    5.5752   23.3396 C   0  0  0  0  0  0  0  0  0  0  0  0
   13.2230    6.7484   23.6846 F   0  0  0  0  0  0  0  0  0  0  0  0
   13.4061    4.4592   23.2034 C   0  0  0  0  0  0  0  0  0  0  0  0
   12.7949    3.2688   22.8513 C   0  0  0  0  0  0  0  0  0  0  0  0
   12.0155   -0.1167   23.4500 C   0  0  0  0  0  0  0  0  0  0  0  0
   12.1655    0.2355   24.7925 C   0  0  0  0  0  0  0  0  0  0  0  0
   13.1404   -0.3600   25.5817 C   0  0  0  0  0  0  0  0  0  0  0  0
   13.9899   -1.3302   25.0712 C   0  0  0  0  0  0  0  0  0  0  0  0
   13.8329   -1.7211   23.7463 C   0  0  0  0  0  0  0  0  0  0  0  0
   14.4623   -2.6310   22.9553 N   0  0  0  0  0  0  0  0  0  0  0  0
   13.9115   -2.6836   21.7061 N   0  0  0  0  0  0  0  0  0  0  0  0
   12.9401   -1.7910   21.6894 C   0  0  0  0  0  0  0  0  0  0  0  0
   12.8467   -1.1336   22.9377 C   0  0  0  0  0  0  0  0  0  0  0  0
  1  2  1  0
  2  3  1  0
  3  4  2  0
  4  5  1  0
  5  6  2  0
  6  7  1  0
  7  8  2  0
  8  9  1  0
  9 10  1  0
  7 11  1  0
 11 12  2  0
 12 13  1  0
 13 14  2  0
 14 15  1  0
 14 16  1  0
 16 17  2  0
  6 18  1  0
 18 19  2  0
 19 20  1  0
 20 21  2  0
 21 22  1  0
 22 23  1  0
 23 24  1  0
 24 25  2  0
 25 26  1  0
 10  2  2  0
 17 11  1  0
 26 18  1  0
  9  5  1  0
 26 22  2  0
M  END
