CVD-0001822|dock_bobby27042020.51|mol2|17|dock2
     RDKit          3D

 30 33  0  0  0  0  0  0  0  0999 V2000
   14.7600   -1.8785   24.3264 N   0  0  0  0  0  0  0  0  0  0  0  0
   14.0741   -1.4897   23.2635 C   0  0  0  0  0  0  0  0  0  0  0  0
   14.4389   -1.7387   22.1122 O   0  0  0  0  0  0  0  0  0  0  0  0
   12.7983   -0.7122   23.5431 C   0  0  0  0  0  0  0  0  0  0  0  0
   11.5770   -1.5601   23.3719 C   0  0  0  0  0  0  0  0  0  0  0  0
   10.2837   -0.7850   23.5642 C   0  0  0  0  0  0  0  0  0  0  0  0
   10.2764    0.3973   22.7172 N   0  0  0  0  0  0  0  0  0  0  0  0
   11.4169    1.2869   22.9004 C   0  0  0  0  0  0  0  0  0  0  0  0
   12.7081    0.5135   22.6478 C   0  0  0  0  0  0  0  0  0  0  0  0
    9.1715    0.7599   21.9786 C   0  0  0  0  0  0  0  0  0  0  0  0
    8.8733    2.0254   21.7810 N   0  0  0  0  0  0  0  0  0  0  0  0
    7.7214    2.0557   21.0019 N   0  0  0  0  0  0  0  0  0  0  0  0
    7.3710    0.8123   20.7658 C   0  0  0  0  0  0  0  0  0  0  0  0
    6.1616    0.4561   19.9414 C   0  0  0  0  0  0  0  0  0  0  0  0
    6.5401    0.2838   18.4674 C   0  0  0  0  0  0  0  0  0  0  0  0
    5.5175    1.1426   17.7272 C   0  0  0  0  0  0  0  0  0  0  0  0
    4.9159    2.0295   18.7297 C   0  0  0  0  0  0  0  0  0  0  0  0
    4.2633    3.0598   18.5943 O   0  0  0  0  0  0  0  0  0  0  0  0
    5.1720    1.5150   19.9314 N   0  0  0  0  0  0  0  0  0  0  0  0
    8.2437   -0.0574   21.3587 N   0  0  0  0  0  0  0  0  0  0  0  0
    8.1354   -1.5241   21.2769 C   0  0  0  0  0  0  0  0  0  0  0  0
    7.1475   -2.1064   22.2802 C   0  0  0  0  0  0  0  0  0  0  0  0
    7.1456   -3.6158   22.2582 C   0  0  0  0  0  0  0  0  0  0  0  0
    7.7743   -4.3343   23.2674 C   0  0  0  0  0  0  0  0  0  0  0  0
    7.7571   -5.7066   23.2161 C   0  0  0  0  0  0  0  0  0  0  0  0
    8.3765   -6.3955   24.2123 F   0  0  0  0  0  0  0  0  0  0  0  0
    7.1485   -6.4208   22.2137 C   0  0  0  0  0  0  0  0  0  0  0  0
    6.5392   -5.6764   21.2340 C   0  0  0  0  0  0  0  0  0  0  0  0
    5.9214   -6.3347   20.2165 F   0  0  0  0  0  0  0  0  0  0  0  0
    6.5200   -4.3032   21.2260 C   0  0  0  0  0  0  0  0  0  0  0  0
  1  2  1  0
  2  3  2  0
  2  4  1  0
  4  5  1  0
  5  6  1  0
  6  7  1  0
  7  8  1  0
  8  9  1  0
  7 10  1  0
 10 11  2  0
 11 12  1  0
 12 13  2  0
 13 14  1  0
 14 15  1  0
 15 16  1  0
 16 17  1  0
 17 18  2  0
 17 19  1  0
 13 20  1  0
 20 21  1  0
 21 22  1  0
 22 23  1  0
 23 24  2  0
 24 25  1  0
 25 26  1  0
 25 27  2  0
 27 28  1  0
 28 29  1  0
 28 30  2  0
  9  4  1  0
 20 10  1  0
 30 23  1  0
 19 14  1  0
M  END
