CVD-0003910|dock_bobby27042020.43|mol2|39|dock2
     RDKit          3D

 26 29  0  0  0  0  0  0  0  0999 V2000
    8.8596   -6.3237   27.2947 O   0  0  0  0  0  0  0  0  0  0  0  0
    9.1064   -5.0773   26.6350 C   0  0  0  0  0  0  0  0  0  0  0  0
    7.8248   -4.3042   26.3912 C   0  0  0  0  0  0  0  0  0  0  0  0
    8.0632   -2.9853   25.6516 C   0  0  0  0  0  0  0  0  0  0  0  0
    8.7901   -3.2598   24.3390 C   0  0  0  0  0  0  0  0  0  0  0  0
   10.1095   -3.9761   24.5804 C   0  0  0  0  0  0  0  0  0  0  0  0
    9.8445   -5.2910   25.3228 C   0  0  0  0  0  0  0  0  0  0  0  0
    8.9993   -1.9959   23.5529 N   0  0  0  0  0  0  0  0  0  0  0  0
    8.3965   -1.7604   22.2826 C   0  0  0  0  0  0  0  0  0  0  0  0
    8.5325   -0.6311   21.4910 C   0  0  0  0  0  0  0  0  0  0  0  0
    7.8484   -0.7456   20.2570 C   0  0  0  0  0  0  0  0  0  0  0  0
    7.7415    0.3570   19.2434 C   0  0  0  0  0  0  0  0  0  0  0  0
    6.4979    0.1877   18.3985 C   0  0  0  0  0  0  0  0  0  0  0  0
    6.2367   -1.1604   17.9911 C   0  0  0  0  0  0  0  0  0  0  0  0
    6.1912   -2.2244   19.0689 C   0  0  0  0  0  0  0  0  0  0  0  0
    7.2140   -1.9356   20.1277 C   0  0  0  0  0  0  0  0  0  0  0  0
    7.4191   -2.9754   21.5044 S   0  0  0  0  0  0  0  0  0  0  0  0
    9.9553   -0.7915   24.1546 S   0  0  0  0  0  0  0  0  0  0  0  0
   10.3523   -1.1376   25.4826 O   0  0  0  0  0  0  0  0  0  0  0  0
    9.2634    0.4419   23.9451 O   0  0  0  0  0  0  0  0  0  0  0  0
   11.4154   -0.7463   23.2072 C   0  0  0  0  0  0  0  0  0  0  0  0
   12.4738    0.1071   23.3995 C   0  0  0  0  0  0  0  0  0  0  0  0
   13.4991   -0.1046   22.4813 C   0  0  0  0  0  0  0  0  0  0  0  0
   13.2057   -1.1025   21.6228 C   0  0  0  0  0  0  0  0  0  0  0  0
   14.1949   -1.6770   20.3448 Cl  0  0  0  0  0  0  0  0  0  0  0  0
   11.6739   -1.8220   21.8976 S   0  0  0  0  0  0  0  0  0  0  0  0
  1  2  1  0
  2  3  1  0
  3  4  1  0
  4  5  1  0
  5  6  1  0
  6  7  1  0
  5  8  1  0
  8  9  1  0
  9 10  2  0
 10 11  1  0
 11 12  1  0
 12 13  1  0
 13 14  1  0
 14 15  1  0
 15 16  1  0
 16 17  1  0
  8 18  1  0
 18 19  2  0
 18 20  2  0
 18 21  1  0
 21 22  2  0
 22 23  1  0
 23 24  2  0
 24 25  1  0
 24 26  1  0
  7  2  1  0
 17  9  1  0
 26 21  1  0
 16 11  2  0
M  END
