CVD-0002366|dock_bobby27042020.63|mol2|31|dock3
     RDKit          3D

 38 42  0  0  0  0  0  0  0  0999 V2000
    6.8235   -7.6020   30.1212 C   0  0  0  0  0  0  0  0  0  0  0  0
    7.0793   -6.8792   28.8725 N   0  0  0  0  0  0  0  0  0  0  0  0
    5.9241   -6.1413   28.3505 C   0  0  0  0  0  0  0  0  0  0  0  0
    6.2308   -5.4897   27.0278 C   0  0  0  0  0  0  0  0  0  0  0  0
    7.3948   -4.7568   26.7340 C   0  0  0  0  0  0  0  0  0  0  0  0
    7.3458   -4.2987   25.4312 C   0  0  0  0  0  0  0  0  0  0  0  0
    8.3862   -3.4832   24.7599 C   0  0  0  0  0  0  0  0  0  0  0  0
    8.6737   -3.7826   23.4291 C   0  0  0  0  0  0  0  0  0  0  0  0
    9.5878   -3.0453   22.6983 C   0  0  0  0  0  0  0  0  0  0  0  0
   10.2685   -1.9771   23.2698 C   0  0  0  0  0  0  0  0  0  0  0  0
   10.0160   -1.6915   24.6074 C   0  0  0  0  0  0  0  0  0  0  0  0
    9.1239   -2.4515   25.3200 C   0  0  0  0  0  0  0  0  0  0  0  0
    8.9950   -2.1666   26.6339 F   0  0  0  0  0  0  0  0  0  0  0  0
   11.1934   -1.1748   22.5385 N   0  0  0  0  0  0  0  0  0  0  0  0
   12.2507   -1.7913   21.7029 C   0  0  0  0  0  0  0  0  0  0  0  0
   13.5347   -1.4771   22.1498 C   0  0  0  0  0  0  0  0  0  0  0  0
   13.8345   -0.2383   22.8304 C   0  0  0  0  0  0  0  0  0  0  0  0
   12.6730    0.7100   22.8737 C   0  0  0  0  0  0  0  0  0  0  0  0
   12.8809    2.0820   22.9773 C   0  0  0  0  0  0  0  0  0  0  0  0
   11.8341    2.9797   22.9404 C   0  0  0  0  0  0  0  0  0  0  0  0
   10.5492    2.4901   22.7966 C   0  0  0  0  0  0  0  0  0  0  0  0
   10.3059    1.1277   22.6905 C   0  0  0  0  0  0  0  0  0  0  0  0
   11.3724    0.2277   22.7290 C   0  0  0  0  0  0  0  0  0  0  0  0
    9.1828    3.6102   22.7650 S   0  0  0  0  0  0  0  0  0  0  0  0
    9.7533    5.1046   22.6985 N   0  0  0  0  0  0  0  0  0  0  0  0
    8.4909    3.4762   24.0118 O   0  0  0  0  0  0  0  0  0  0  0  0
    8.4659    3.3762   21.5474 O   0  0  0  0  0  0  0  0  0  0  0  0
    6.1228   -4.7821   24.8914 N   0  0  0  0  0  0  0  0  0  0  0  0
    5.4556   -5.4991   25.8770 C   0  0  0  0  0  0  0  0  0  0  0  0
    5.4255   -4.6458   23.3509 S   0  0  0  0  0  0  0  0  0  0  0  0
    5.7384   -5.8754   22.6915 O   0  0  0  0  0  0  0  0  0  0  0  0
    5.8688   -3.4138   22.7766 O   0  0  0  0  0  0  0  0  0  0  0  0
    3.6834   -4.6094   23.5995 C   0  0  0  0  0  0  0  0  0  0  0  0
    2.8680   -5.5391   22.9772 C   0  0  0  0  0  0  0  0  0  0  0  0
    1.5039   -5.4768   23.2038 C   0  0  0  0  0  0  0  0  0  0  0  0
    1.0150   -4.4962   24.0372 C   0  0  0  0  0  0  0  0  0  0  0  0
    1.7887   -3.5953   24.6444 N   0  0  0  0  0  0  0  0  0  0  0  0
    3.1045   -3.6613   24.4216 C   0  0  0  0  0  0  0  0  0  0  0  0
  1  2  1  0
  2  3  1  0
  3  4  1  0
  4  5  1  0
  5  6  2  0
  6  7  1  0
  7  8  2  0
  8  9  1  0
  9 10  2  0
 10 11  1  0
 11 12  2  0
 12 13  1  0
 10 14  1  0
 14 15  1  0
 15 16  1  0
 16 17  1  0
 17 18  1  0
 18 19  2  0
 19 20  1  0
 20 21  2  0
 21 22  1  0
 22 23  2  0
 21 24  1  0
 24 25  1  0
 24 26  2  0
 24 27  2  0
  6 28  1  0
 28 29  1  0
 28 30  1  0
 30 31  2  0
 30 32  2  0
 30 33  1  0
 33 34  2  0
 34 35  1  0
 35 36  2  0
 36 37  1  0
 37 38  2  0
 29  4  2  0
 38 33  1  0
 12  7  1  0
 23 14  1  0
 23 18  1  0
M  END
