CVD-0002638|dock_bobby27042020.5|mol2|5|dock1
     RDKit          3D

 24 25  0  0  0  0  0  0  0  0999 V2000
    4.4192    1.9404   21.9041 C   0  0  0  0  0  0  0  0  0  0  0  0
    5.8215    1.4694   21.5350 C   0  0  0  0  0  0  0  0  0  0  0  0
    6.6773    2.6497   21.3323 N   0  0  0  0  0  0  0  0  0  0  0  0
    7.9619    2.6191   21.9858 C   0  0  0  0  0  0  0  0  0  0  0  0
    8.6850    1.3791   21.8099 N   0  0  0  0  0  0  0  0  0  0  0  0
    9.8242    1.1402   22.4892 C   0  0  0  0  0  0  0  0  0  0  0  0
   10.2975    1.9524   23.2795 O   0  0  0  0  0  0  0  0  0  0  0  0
   10.4110   -0.0516   22.2430 N   0  0  0  0  0  0  0  0  0  0  0  0
   11.6952   -0.4389   22.8271 C   0  0  0  0  0  0  0  0  0  0  0  0
   11.5677   -0.6762   24.3459 C   0  0  0  0  0  0  0  0  0  0  0  0
   12.8765   -1.1526   24.9733 C   0  0  0  0  0  0  0  0  0  0  0  0
   13.4152   -2.3873   24.2624 C   0  0  0  0  0  0  0  0  0  0  0  0
   13.5694   -2.1377   22.7691 C   0  0  0  0  0  0  0  0  0  0  0  0
   12.2488   -1.7007   22.1434 C   0  0  0  0  0  0  0  0  0  0  0  0
    5.8201    0.5887   20.2938 C   0  0  0  0  0  0  0  0  0  0  0  0
    5.7522    1.1711   19.0282 C   0  0  0  0  0  0  0  0  0  0  0  0
    5.7017    0.3601   17.9164 C   0  0  0  0  0  0  0  0  0  0  0  0
    5.7201   -0.9681   17.9788 N   0  0  0  0  0  0  0  0  0  0  0  0
    5.8225   -1.5321   19.1857 C   0  0  0  0  0  0  0  0  0  0  0  0
    5.8792   -0.8161   20.3812 C   0  0  0  0  0  0  0  0  0  0  0  0
    5.9964   -1.4388   21.6553 N   0  0  0  0  0  0  0  0  0  0  0  0
    6.7304   -2.5081   22.0610 C   0  0  0  0  0  0  0  0  0  0  0  0
    6.5437   -2.8539   23.5091 C   0  0  0  0  0  0  0  0  0  0  0  0
    7.4749   -3.1721   21.3477 O   0  0  0  0  0  0  0  0  0  0  0  0
  1  2  1  0
  2  3  1  0
  3  4  1  0
  4  5  1  0
  5  6  1  0
  6  7  2  0
  6  8  1  0
  8  9  1  0
  9 10  1  0
 10 11  1  0
 11 12  1  0
 12 13  1  0
 13 14  1  0
  2 15  1  0
 15 16  2  0
 16 17  1  0
 17 18  2  0
 18 19  1  0
 19 20  2  0
 20 21  1  0
 21 22  1  0
 22 23  1  0
 22 24  2  0
 14  9  1  0
 20 15  1  0
M  END
