CVD-0000754|dock_bobby27042020.69|mol2|18|dock2
     RDKit          3D

 19 21  0  0  0  0  0  0  0  0999 V2000
   13.8282    3.5038   22.6345 C   0  0  0  0  0  0  0  0  0  0  0  0
   13.4165    2.1124   22.4931 N   0  0  0  0  0  0  0  0  0  0  0  0
   12.1878    1.6428   22.2455 C   0  0  0  0  0  0  0  0  0  0  0  0
   12.2787    0.2676   22.2294 C   0  0  0  0  0  0  0  0  0  0  0  0
   11.2427   -0.6634   22.0018 N   0  0  0  0  0  0  0  0  0  0  0  0
   10.2791   -1.0699   22.8827 C   0  0  0  0  0  0  0  0  0  0  0  0
   10.1827   -0.6623   24.0360 O   0  0  0  0  0  0  0  0  0  0  0  0
    9.3099   -2.0995   22.3413 C   0  0  0  0  0  0  0  0  0  0  0  0
    8.2190   -1.4962   21.5097 C   0  0  0  0  0  0  0  0  0  0  0  0
    6.9566   -1.1257   21.8712 C   0  0  0  0  0  0  0  0  0  0  0  0
    6.3183   -0.6038   20.7028 C   0  0  0  0  0  0  0  0  0  0  0  0
    5.0674   -0.0650   20.3676 C   0  0  0  0  0  0  0  0  0  0  0  0
    4.8279    0.3448   19.0655 C   0  0  0  0  0  0  0  0  0  0  0  0
    5.8307    0.2118   18.1270 C   0  0  0  0  0  0  0  0  0  0  0  0
    7.0447   -0.2954   18.3891 N   0  0  0  0  0  0  0  0  0  0  0  0
    7.2620   -0.6883   19.6557 C   0  0  0  0  0  0  0  0  0  0  0  0
    8.4058   -1.2327   20.1711 N   0  0  0  0  0  0  0  0  0  0  0  0
   13.6240    0.0056   22.4916 C   0  0  0  0  0  0  0  0  0  0  0  0
   14.3203    1.1183   22.6595 N   0  0  0  0  0  0  0  0  0  0  0  0
  1  2  1  0
  2  3  1  0
  3  4  2  0
  4  5  1  0
  5  6  1  0
  6  7  2  0
  6  8  1  0
  8  9  1  0
  9 10  2  0
 10 11  1  0
 11 12  2  0
 12 13  1  0
 13 14  2  0
 14 15  1  0
 15 16  2  0
 16 17  1  0
  4 18  1  0
 18 19  2  0
 19  2  1  0
 17  9  1  0
 16 11  1  0
M  END
