CVD-0002600|dock_bobby27042020.48|mol2|6|dock1
     RDKit          3D

 26 28  0  0  0  0  0  0  0  0999 V2000
   14.0607   -2.9619   25.4680 C   0  0  0  0  0  0  0  0  0  0  0  0
   13.3559   -1.8288   24.7629 C   0  0  0  0  0  0  0  0  0  0  0  0
   13.5033   -0.5201   25.1955 C   0  0  0  0  0  0  0  0  0  0  0  0
   12.8528    0.5164   24.5473 C   0  0  0  0  0  0  0  0  0  0  0  0
   12.0436    0.2524   23.4558 C   0  0  0  0  0  0  0  0  0  0  0  0
   11.8777   -1.0472   23.0056 C   0  0  0  0  0  0  0  0  0  0  0  0
   11.0002   -1.3479   21.8142 C   0  0  0  0  0  0  0  0  0  0  0  0
    9.6047   -1.6137   22.1869 N   0  0  0  0  0  0  0  0  0  0  0  0
    9.4425   -2.1376   23.5325 C   0  0  0  0  0  0  0  0  0  0  0  0
    7.9437   -2.0944   23.7001 C   0  0  0  0  0  0  0  0  0  0  0  0
    7.6120   -0.7175   23.1394 C   0  0  0  0  0  0  0  0  0  0  0  0
    8.6753   -0.4830   22.0412 C   0  0  0  0  0  0  0  0  0  0  0  0
    8.1160   -0.4313   20.6230 C   0  0  0  0  0  0  0  0  0  0  0  0
    8.4198   -1.2868   19.7957 O   0  0  0  0  0  0  0  0  0  0  0  0
    7.2947    0.5830   20.3531 N   0  0  0  0  0  0  0  0  0  0  0  0
    6.6189    0.7250   19.0714 C   0  0  0  0  0  0  0  0  0  0  0  0
    5.4089   -0.1669   18.9797 C   0  0  0  0  0  0  0  0  0  0  0  0
    4.4736    0.1135   20.0086 O   0  0  0  0  0  0  0  0  0  0  0  0
    7.2595   -3.1412   22.9130 N   0  0  0  0  0  0  0  0  0  0  0  0
    8.1864   -4.1177   22.3352 C   0  0  0  0  0  0  0  0  0  0  0  0
    7.4765   -5.0388   21.3684 C   0  0  0  0  0  0  0  0  0  0  0  0
    6.3182   -5.7574   22.0271 C   0  0  0  0  0  0  0  0  0  0  0  0
    5.5887   -6.5945   21.1256 O   0  0  0  0  0  0  0  0  0  0  0  0
    5.4094   -4.7169   22.6700 C   0  0  0  0  0  0  0  0  0  0  0  0
    6.1794   -3.8186   23.6192 C   0  0  0  0  0  0  0  0  0  0  0  0
   12.5398   -2.0725   23.6684 C   0  0  0  0  0  0  0  0  0  0  0  0
  1  2  1  0
  2  3  2  0
  3  4  1  0
  4  5  2  0
  5  6  1  0
  6  7  1  0
  7  8  1  0
  8  9  1  0
  9 10  1  0
 10 11  1  0
 11 12  1  0
 12 13  1  0
 13 14  2  0
 13 15  1  0
 15 16  1  0
 16 17  1  0
 17 18  1  0
 10 19  1  0
 19 20  1  0
 20 21  1  0
 21 22  1  0
 22 23  1  0
 22 24  1  0
 24 25  1  0
  6 26  2  0
 26  2  1  0
 12  8  1  0
 25 19  1  0
M  END
