CVD-0001635|dock_bobby27042020.52|mol2|6|dock2
     RDKit          3D

 24 26  0  0  0  0  0  0  0  0999 V2000
   14.7489   -1.9138   25.6788 C   0  0  0  0  0  0  0  0  0  0  0  0
   13.9698   -1.9665   24.3868 C   0  0  0  0  0  0  0  0  0  0  0  0
   12.5275   -1.6536   24.6545 C   0  0  0  0  0  0  0  0  0  0  0  0
   11.8004   -1.6088   23.3820 N   0  0  0  0  0  0  0  0  0  0  0  0
   12.4158   -0.6897   22.4205 C   0  0  0  0  0  0  0  0  0  0  0  0
   13.8603   -1.0344   22.2476 C   0  0  0  0  0  0  0  0  0  0  0  0
   14.5524   -1.0297   23.4812 O   0  0  0  0  0  0  0  0  0  0  0  0
   10.6197   -2.3174   23.1936 C   0  0  0  0  0  0  0  0  0  0  0  0
   10.4699   -3.6331   23.6031 C   0  0  0  0  0  0  0  0  0  0  0  0
    9.3511   -4.3431   23.4239 N   0  0  0  0  0  0  0  0  0  0  0  0
    8.3247   -3.7679   22.7705 C   0  0  0  0  0  0  0  0  0  0  0  0
    7.2310   -4.6792   22.5089 C   0  0  0  0  0  0  0  0  0  0  0  0
    6.3857   -5.4073   22.2639 N   0  0  0  0  0  0  0  0  0  0  0  0
    8.3380   -2.4194   22.3727 C   0  0  0  0  0  0  0  0  0  0  0  0
    9.5264   -1.7167   22.5759 C   0  0  0  0  0  0  0  0  0  0  0  0
    7.2273   -1.6243   21.7399 C   0  0  0  0  0  0  0  0  0  0  0  0
    6.1116   -1.7043   22.2430 O   0  0  0  0  0  0  0  0  0  0  0  0
    7.5101   -0.8739   20.6401 N   0  0  0  0  0  0  0  0  0  0  0  0
    6.6865   -0.0205   19.8616 C   0  0  0  0  0  0  0  0  0  0  0  0
    6.9087    0.2641   18.5152 C   0  0  0  0  0  0  0  0  0  0  0  0
    6.0559    1.1159   17.8324 C   0  0  0  0  0  0  0  0  0  0  0  0
    4.9772    1.6876   18.4702 C   0  0  0  0  0  0  0  0  0  0  0  0
    4.7451    1.4088   19.7985 C   0  0  0  0  0  0  0  0  0  0  0  0
    5.5919    0.5609   20.4920 C   0  0  0  0  0  0  0  0  0  0  0  0
  1  2  1  0
  2  3  1  0
  3  4  1  0
  4  5  1  0
  5  6  1  0
  6  7  1  0
  4  8  1  0
  8  9  2  0
  9 10  1  0
 10 11  2  0
 11 12  1  0
 12 13  3  0
 11 14  1  0
 14 15  2  0
 14 16  1  0
 16 17  2  0
 16 18  1  0
 18 19  1  0
 19 20  2  0
 20 21  1  0
 21 22  2  0
 22 23  1  0
 23 24  2  0
  7  2  1  0
 15  8  1  0
 24 19  1  0
M  END
