CVD-0004037|dock_bobby27042020.86|mol2|3|dock2
     RDKit          3D

 26 30  0  0  0  0  0  0  0  0999 V2000
    6.4492   -1.6157   20.0120 C   0  0  0  0  0  0  0  0  0  0  0  0
    7.6631   -1.0853   20.7235 C   0  0  0  0  0  0  0  0  0  0  0  0
    8.5152   -1.9725   21.4305 C   0  0  0  0  0  0  0  0  0  0  0  0
    9.6025   -1.5287   22.0878 C   0  0  0  0  0  0  0  0  0  0  0  0
    9.9027   -0.1801   22.0822 N   0  0  0  0  0  0  0  0  0  0  0  0
   10.9471    0.5393   22.6595 C   0  0  0  0  0  0  0  0  0  0  0  0
   10.7249    1.8546   22.2941 C   0  0  0  0  0  0  0  0  0  0  0  0
    9.5892    1.9576   21.5121 N   0  0  0  0  0  0  0  0  0  0  0  0
    9.1057    0.7259   21.3990 C   0  0  0  0  0  0  0  0  0  0  0  0
    7.9657    0.2449   20.7185 C   0  0  0  0  0  0  0  0  0  0  0  0
   11.4614    3.1006   22.5938 C   0  0  0  0  0  0  0  0  0  0  0  0
   12.8487    3.1366   22.6950 C   0  0  0  0  0  0  0  0  0  0  0  0
   13.5147    4.3250   22.9373 C   0  0  0  0  0  0  0  0  0  0  0  0
   12.7759    5.4636   23.1066 C   0  0  0  0  0  0  0  0  0  0  0  0
   13.4268    6.6342   23.3444 F   0  0  0  0  0  0  0  0  0  0  0  0
   11.4095    5.4734   23.0478 C   0  0  0  0  0  0  0  0  0  0  0  0
   10.7547    4.2821   22.7910 C   0  0  0  0  0  0  0  0  0  0  0  0
   12.0049   -0.1244   23.4569 C   0  0  0  0  0  0  0  0  0  0  0  0
   12.2293    0.2790   24.7749 C   0  0  0  0  0  0  0  0  0  0  0  0
   13.2361   -0.2999   25.5357 C   0  0  0  0  0  0  0  0  0  0  0  0
   14.0484   -1.2986   25.0192 C   0  0  0  0  0  0  0  0  0  0  0  0
   13.8268   -1.7294   23.7160 C   0  0  0  0  0  0  0  0  0  0  0  0
   14.4124   -2.6687   22.9257 N   0  0  0  0  0  0  0  0  0  0  0  0
   13.8126   -2.7464   21.7006 N   0  0  0  0  0  0  0  0  0  0  0  0
   12.8490   -1.8454   21.6998 C   0  0  0  0  0  0  0  0  0  0  0  0
   12.8090   -1.1582   22.9352 C   0  0  0  0  0  0  0  0  0  0  0  0
  1  2  1  0
  2  3  1  0
  3  4  2  0
  4  5  1  0
  5  6  1  0
  6  7  2  0
  7  8  1  0
  8  9  2  0
  9 10  1  0
  7 11  1  0
 11 12  2  0
 12 13  1  0
 13 14  2  0
 14 15  1  0
 14 16  1  0
 16 17  2  0
  6 18  1  0
 18 19  2  0
 19 20  1  0
 20 21  2  0
 21 22  1  0
 22 23  1  0
 23 24  1  0
 24 25  2  0
 25 26  1  0
 10  2  2  0
 17 11  1  0
 26 18  1  0
  9  5  1  0
 26 22  2  0
M  END
