CVD-0001917|dock_bobby27042020.79|mol2|28|dock2
     RDKit          3D

 25 27  0  0  0  0  0  0  0  0999 V2000
    2.2031   -7.6799   22.4020 C   0  0  0  0  0  0  0  0  0  0  0  0
    3.0520   -6.4471   22.5078 C   0  0  0  0  0  0  0  0  0  0  0  0
    2.5605   -5.3626   22.8013 O   0  0  0  0  0  0  0  0  0  0  0  0
    4.3660   -6.6559   22.2370 N   0  0  0  0  0  0  0  0  0  0  0  0
    5.4686   -5.7670   22.2131 C   0  0  0  0  0  0  0  0  0  0  0  0
    5.3873   -4.3961   22.4338 C   0  0  0  0  0  0  0  0  0  0  0  0
    6.4490   -3.5832   22.4037 N   0  0  0  0  0  0  0  0  0  0  0  0
    7.6330   -4.1606   22.1444 C   0  0  0  0  0  0  0  0  0  0  0  0
    8.7503   -3.3872   22.1002 N   0  0  0  0  0  0  0  0  0  0  0  0
    8.7507   -1.9825   22.3137 N   0  0  0  0  0  0  0  0  0  0  0  0
    9.8786   -1.5892   23.1522 C   0  0  0  0  0  0  0  0  0  0  0  0
    9.8290   -0.1035   23.4639 C   0  0  0  0  0  0  0  0  0  0  0  0
    9.8735    0.6910   22.1610 C   0  0  0  0  0  0  0  0  0  0  0  0
    8.7442    0.2402   21.2464 C   0  0  0  0  0  0  0  0  0  0  0  0
    8.8380   -1.2634   21.0381 C   0  0  0  0  0  0  0  0  0  0  0  0
    9.8843    2.1930   22.3922 C   0  0  0  0  0  0  0  0  0  0  0  0
    8.7083    2.9413   22.3442 C   0  0  0  0  0  0  0  0  0  0  0  0
    8.7281    4.3061   22.5714 C   0  0  0  0  0  0  0  0  0  0  0  0
    9.9262    4.9423   22.8455 C   0  0  0  0  0  0  0  0  0  0  0  0
   11.1267    4.2372   22.8953 C   0  0  0  0  0  0  0  0  0  0  0  0
   12.4155    4.9555   23.1961 C   0  0  0  0  0  0  0  0  0  0  0  0
   11.0800    2.8632   22.6635 C   0  0  0  0  0  0  0  0  0  0  0  0
   12.5747    2.0050   22.7223 Cl  0  0  0  0  0  0  0  0  0  0  0  0
    7.8349   -5.4679   21.9163 N   0  0  0  0  0  0  0  0  0  0  0  0
    6.7469   -6.2440   21.9555 C   0  0  0  0  0  0  0  0  0  0  0  0
  1  2  1  0
  2  3  2  0
  2  4  1  0
  4  5  1  0
  5  6  2  0
  6  7  1  0
  7  8  2  0
  8  9  1  0
  9 10  1  0
 10 11  1  0
 11 12  1  0
 12 13  1  0
 13 14  1  0
 14 15  1  0
 13 16  1  0
 16 17  2  0
 17 18  1  0
 18 19  2  0
 19 20  1  0
 20 21  1  0
 20 22  2  0
 22 23  1  0
  8 24  1  0
 24 25  2  0
 25  5  1  0
 15 10  1  0
 22 16  1  0
M  END
