CVD-0002445|dock_bobby27042020.48|mol2|30|dock3
     RDKit          3D

 18 19  0  0  0  0  0  0  0  0999 V2000
   13.6710    5.6600   22.2009 C   0  0  0  0  0  0  0  0  0  0  0  0
   13.0710    4.2831   22.3498 C   0  0  0  0  0  0  0  0  0  0  0  0
   13.8762    3.1646   22.4902 C   0  0  0  0  0  0  0  0  0  0  0  0
   13.3341    1.8999   22.6324 C   0  0  0  0  0  0  0  0  0  0  0  0
   11.9599    1.7360   22.6382 C   0  0  0  0  0  0  0  0  0  0  0  0
   11.4459    0.4708   22.7804 O   0  0  0  0  0  0  0  0  0  0  0  0
   10.1850    0.1205   22.1912 C   0  0  0  0  0  0  0  0  0  0  0  0
    9.9449   -1.3719   22.3626 C   0  0  0  0  0  0  0  0  0  0  0  0
   11.0921   -2.0872   21.7698 N   0  0  0  0  0  0  0  0  0  0  0  0
    8.5555   -1.6779   21.8294 C   0  0  0  0  0  0  0  0  0  0  0  0
    7.9470   -0.8200   21.2134 O   0  0  0  0  0  0  0  0  0  0  0  0
    7.9553   -2.9970   22.0666 C   0  0  0  0  0  0  0  0  0  0  0  0
    8.5227   -3.9825   22.9297 C   0  0  0  0  0  0  0  0  0  0  0  0
    7.7999   -5.1356   23.0043 C   0  0  0  0  0  0  0  0  0  0  0  0
    6.4192   -5.0284   22.0202 S   0  0  0  0  0  0  0  0  0  0  0  0
    6.7899   -3.4527   21.5020 C   0  0  0  0  0  0  0  0  0  0  0  0
   11.1366    2.8420   22.4952 C   0  0  0  0  0  0  0  0  0  0  0  0
   11.6978    4.0990   22.3556 C   0  0  0  0  0  0  0  0  0  0  0  0
  1  2  1  0
  2  3  2  0
  3  4  1  0
  4  5  2  0
  5  6  1  0
  6  7  1  0
  7  8  1  0
  8  9  1  0
  8 10  1  0
 10 11  2  0
 10 12  1  0
 12 13  1  0
 13 14  2  0
 14 15  1  0
 15 16  1  0
  5 17  1  0
 17 18  2  0
 18  2  1  0
 16 12  2  0
M  END
