CVD-0002543|dock_bobby27042020.91|mol2|9|dock3
     RDKit          3D

 32 33  0  0  0  0  0  0  0  0999 V2000
    2.0149   -7.9597   22.3326 C   0  0  0  0  0  0  0  0  0  0  0  0
    2.7669   -6.6764   22.5298 C   0  0  0  0  0  0  0  0  0  0  0  0
    2.2037   -5.6388   22.8641 O   0  0  0  0  0  0  0  0  0  0  0  0
    4.0841   -6.7270   22.3035 N   0  0  0  0  0  0  0  0  0  0  0  0
    4.9292   -5.5521   22.4404 C   0  0  0  0  0  0  0  0  0  0  0  0
    6.2202   -5.7374   21.6259 C   0  0  0  0  0  0  0  0  0  0  0  0
    6.8868   -4.4453   21.2199 C   0  0  0  0  0  0  0  0  0  0  0  0
    7.9733   -3.9550   21.9282 C   0  0  0  0  0  0  0  0  0  0  0  0
    8.5879   -2.7706   21.5629 C   0  0  0  0  0  0  0  0  0  0  0  0
    8.1181   -2.0509   20.4719 C   0  0  0  0  0  0  0  0  0  0  0  0
    8.7173   -0.8879   20.1068 O   0  0  0  0  0  0  0  0  0  0  0  0
    7.0226   -2.5357   19.7537 C   0  0  0  0  0  0  0  0  0  0  0  0
    6.4151   -3.7258   20.1287 C   0  0  0  0  0  0  0  0  0  0  0  0
    6.3916   -1.6530   18.3534 S   0  0  0  0  0  0  0  0  0  0  0  0
    5.2018   -2.3211   17.9226 O   0  0  0  0  0  0  0  0  0  0  0  0
    7.4731   -1.4728   17.4339 O   0  0  0  0  0  0  0  0  0  0  0  0
    5.9513   -0.1865   18.8528 N   0  0  0  0  0  0  0  0  0  0  0  0
    5.1934   -0.0326   20.1004 C   0  0  0  0  0  0  0  0  0  0  0  0
    5.0386    1.4353   20.4554 C   0  0  0  0  0  0  0  0  0  0  0  0
    3.8040    2.0560   19.8478 C   0  0  0  0  0  0  0  0  0  0  0  0
    3.8669    2.7146   18.6295 C   0  0  0  0  0  0  0  0  0  0  0  0
    2.7352    3.2872   18.0732 C   0  0  0  0  0  0  0  0  0  0  0  0
    1.5259    3.2087   18.7294 C   0  0  0  0  0  0  0  0  0  0  0  0
    1.4489    2.5582   19.9420 C   0  0  0  0  0  0  0  0  0  0  0  0
    2.5813    1.9860   20.4975 C   0  0  0  0  0  0  0  0  0  0  0  0
    5.2498   -5.2952   23.9112 C   0  0  0  0  0  0  0  0  0  0  0  0
    5.3056   -4.1451   24.3385 O   0  0  0  0  0  0  0  0  0  0  0  0
    5.4664   -6.3614   24.6819 N   0  0  0  0  0  0  0  0  0  0  0  0
    5.7868   -6.2258   26.0966 C   0  0  0  0  0  0  0  0  0  0  0  0
    7.2106   -5.9576   26.3310 C   0  0  0  0  0  0  0  0  0  0  0  0
    8.3472   -5.7237   26.5757 C   0  0  0  0  0  0  0  0  0  0  0  0
   10.0560   -5.3510   27.0051 Br  0  0  0  0  0  0  0  0  0  0  0  0
  1  2  1  0
  2  3  2  0
  2  4  1  0
  4  5  1  0
  5  6  1  0
  6  7  1  0
  7  8  2  0
  8  9  1  0
  9 10  2  0
 10 11  1  0
 10 12  1  0
 12 13  2  0
 12 14  1  0
 14 15  2  0
 14 16  2  0
 14 17  1  0
 17 18  1  0
 18 19  1  0
 19 20  1  0
 20 21  2  0
 21 22  1  0
 22 23  2  0
 23 24  1  0
 24 25  2  0
  5 26  1  0
 26 27  2  0
 26 28  1  0
 28 29  1  0
 29 30  1  0
 30 31  3  0
 31 32  1  0
 13  7  1  0
 25 20  1  0
M  END
