CVD-0002627|dock_bobby27042020.62|mol2|26|dock3
     RDKit          3D

 25 27  0  0  0  0  0  0  0  0999 V2000
   13.6633    4.4914   22.5014 C   0  0  0  0  0  0  0  0  0  0  0  0
   12.1360    3.6993   22.1743 S   0  0  0  0  0  0  0  0  0  0  0  0
   11.0950    4.4796   22.7685 O   0  0  0  0  0  0  0  0  0  0  0  0
   12.0692    3.4261   20.7719 O   0  0  0  0  0  0  0  0  0  0  0  0
   12.1510    2.2843   22.9281 N   0  0  0  0  0  0  0  0  0  0  0  0
   10.9907    1.3926   22.8326 C   0  0  0  0  0  0  0  0  0  0  0  0
   11.2865   -0.0286   22.5638 C   0  0  0  0  0  0  0  0  0  0  0  0
   10.0536   -0.9226   22.6961 C   0  0  0  0  0  0  0  0  0  0  0  0
    9.2168   -0.9583   21.4168 C   0  0  0  0  0  0  0  0  0  0  0  0
    7.9324   -1.7731   21.6005 C   0  0  0  0  0  0  0  0  0  0  0  0
    8.2232   -3.2066   22.0569 C   0  0  0  0  0  0  0  0  0  0  0  0
    9.0710   -3.1655   23.3323 C   0  0  0  0  0  0  0  0  0  0  0  0
   10.3533   -2.3582   23.1304 C   0  0  0  0  0  0  0  0  0  0  0  0
    6.9406   -3.9997   22.2135 C   0  0  0  0  0  0  0  0  0  0  0  0
    6.7434   -5.1796   21.5119 C   0  0  0  0  0  0  0  0  0  0  0  0
    5.5676   -5.8923   21.6698 C   0  0  0  0  0  0  0  0  0  0  0  0
    4.6141   -5.4018   22.5325 C   0  0  0  0  0  0  0  0  0  0  0  0
    4.7696   -4.2723   23.2242 N   0  0  0  0  0  0  0  0  0  0  0  0
    5.9135   -3.6026   23.0545 C   0  0  0  0  0  0  0  0  0  0  0  0
   12.4050   -0.5303   23.4549 C   0  0  0  0  0  0  0  0  0  0  0  0
   13.4145   -1.3340   22.9433 C   0  0  0  0  0  0  0  0  0  0  0  0
   14.4349   -1.7948   23.7584 C   0  0  0  0  0  0  0  0  0  0  0  0
   14.4586   -1.4590   25.0950 C   0  0  0  0  0  0  0  0  0  0  0  0
   13.4622   -0.6626   25.6173 C   0  0  0  0  0  0  0  0  0  0  0  0
   12.4414   -0.2014   24.8028 C   0  0  0  0  0  0  0  0  0  0  0  0
  1  2  1  0
  2  3  2  0
  2  4  2  0
  2  5  1  0
  5  6  1  0
  6  7  1  0
  7  8  1  0
  8  9  1  0
  9 10  1  0
 10 11  1  0
 11 12  1  0
 12 13  1  0
 11 14  1  0
 14 15  2  0
 15 16  1  0
 16 17  2  0
 17 18  1  0
 18 19  2  0
  7 20  1  0
 20 21  2  0
 21 22  1  0
 22 23  2  0
 23 24  1  0
 24 25  2  0
 13  8  1  0
 19 14  1  0
 25 20  1  0
M  END
