CVD-0001075|dock_bobby27042020.53|mol2|46|dock3
     RDKit          3D

 21 23  0  0  0  0  0  0  0  0999 V2000
    5.1061   -0.2352   21.1973 N   0  0  0  0  0  0  0  0  0  0  0  0
    4.7729    0.6620   20.2090 C   0  0  0  0  0  0  0  0  0  0  0  0
    3.6680    1.4914   20.4371 C   0  0  0  0  0  0  0  0  0  0  0  0
    3.2683    2.4342   19.5091 C   0  0  0  0  0  0  0  0  0  0  0  0
    3.9625    2.5639   18.3288 C   0  0  0  0  0  0  0  0  0  0  0  0
    5.0525    1.7516   18.0663 C   0  0  0  0  0  0  0  0  0  0  0  0
    5.4872    0.7916   18.9862 C   0  0  0  0  0  0  0  0  0  0  0  0
    6.6587   -0.0812   18.6871 C   0  0  0  0  0  0  0  0  0  0  0  0
    6.6369   -0.7762   17.6651 O   0  0  0  0  0  0  0  0  0  0  0  0
    7.8673   -0.1692   19.5327 C   0  0  0  0  0  0  0  0  0  0  0  0
    8.1430    0.6369   20.5567 C   0  0  0  0  0  0  0  0  0  0  0  0
    9.3318    0.5732   21.4115 C   0  0  0  0  0  0  0  0  0  0  0  0
    9.6152    1.5636   22.3487 C   0  0  0  0  0  0  0  0  0  0  0  0
   10.6681    1.5442   23.1324 N   0  0  0  0  0  0  0  0  0  0  0  0
   11.5108    0.4749   22.9911 C   0  0  0  0  0  0  0  0  0  0  0  0
   12.6694    0.3729   23.7948 C   0  0  0  0  0  0  0  0  0  0  0  0
   13.5061   -0.6946   23.6505 C   0  0  0  0  0  0  0  0  0  0  0  0
   13.2416   -1.6864   22.7268 C   0  0  0  0  0  0  0  0  0  0  0  0
   12.1355   -1.6289   21.9305 C   0  0  0  0  0  0  0  0  0  0  0  0
   11.2394   -0.5415   22.0444 C   0  0  0  0  0  0  0  0  0  0  0  0
   10.1273   -0.4765   21.2490 N   0  0  0  0  0  0  0  0  0  0  0  0
  1  2  1  0
  2  3  2  0
  3  4  1  0
  4  5  2  0
  5  6  1  0
  6  7  2  0
  7  8  1  0
  8  9  2  0
  8 10  1  0
 10 11  2  0
 11 12  1  0
 12 13  2  0
 13 14  1  0
 14 15  2  0
 15 16  1  0
 16 17  2  0
 17 18  1  0
 18 19  2  0
 19 20  1  0
 20 21  2  0
  7  2  1  0
 21 12  1  0
 20 15  1  0
M  END
