CVD-0003320|dock_bobby27042020.31|mol2|18|dock2
     RDKit          3D

 22 23  0  0  0  0  0  0  0  0999 V2000
   10.7872    6.5001   23.4358 Cl  0  0  0  0  0  0  0  0  0  0  0  0
   12.1113    5.4141   23.1199 C   0  0  0  0  0  0  0  0  0  0  0  0
   13.3113    5.9268   22.6839 C   0  0  0  0  0  0  0  0  0  0  0  0
   14.3541    5.0530   22.4330 C   0  0  0  0  0  0  0  0  0  0  0  0
   14.1939    3.6895   22.6175 C   0  0  0  0  0  0  0  0  0  0  0  0
   12.9771    3.1785   23.0676 C   0  0  0  0  0  0  0  0  0  0  0  0
   12.7217    1.8005   23.2951 N   0  0  0  0  0  0  0  0  0  0  0  0
   11.5791    1.0613   23.1080 C   0  0  0  0  0  0  0  0  0  0  0  0
   10.5408    1.5485   22.6802 O   0  0  0  0  0  0  0  0  0  0  0  0
   11.5821   -0.3079   23.3939 N   0  0  0  0  0  0  0  0  0  0  0  0
   10.3544   -1.0367   23.0780 C   0  0  0  0  0  0  0  0  0  0  0  0
    9.9863   -0.9384   21.6116 C   0  0  0  0  0  0  0  0  0  0  0  0
   10.8013   -1.2791   20.7634 O   0  0  0  0  0  0  0  0  0  0  0  0
    8.6704   -0.4418   21.2275 C   0  0  0  0  0  0  0  0  0  0  0  0
    8.1641   -0.3585   20.0233 C   0  0  0  0  0  0  0  0  0  0  0  0
   12.6452   -1.1042   23.9482 C   0  0  0  0  0  0  0  0  0  0  0  0
   13.1898   -2.1531   23.2261 C   0  0  0  0  0  0  0  0  0  0  0  0
   14.1646   -2.9294   23.7065 N   0  0  0  0  0  0  0  0  0  0  0  0
   14.5911   -2.6316   24.9289 C   0  0  0  0  0  0  0  0  0  0  0  0
   14.1520   -1.6564   25.7167 N   0  0  0  0  0  0  0  0  0  0  0  0
   13.1724   -0.9018   25.2125 C   0  0  0  0  0  0  0  0  0  0  0  0
   11.9292    4.0605   23.3141 C   0  0  0  0  0  0  0  0  0  0  0  0
  1  2  1  0
  2  3  2  0
  3  4  1  0
  4  5  2  0
  5  6  1  0
  6  7  1  0
  7  8  1  0
  8  9  2  0
  8 10  1  0
 10 11  1  0
 11 12  1  0
 12 13  2  0
 12 14  1  0
 14 15  2  0
 10 16  1  0
 16 17  2  0
 17 18  1  0
 18 19  2  0
 19 20  1  0
 20 21  2  0
  6 22  2  0
 22  2  1  0
 21 16  1  0
M  END
