CVD-0000603|dock_bobby27042020.98|mol2|6|dock3
     RDKit          3D

 17 18  0  0  0  0  0  0  0  0999 V2000
   11.0185   -1.6982   21.4978 O   0  0  0  0  0  0  0  0  0  0  0  0
   11.5965   -0.5142   21.8295 C   0  0  0  0  0  0  0  0  0  0  0  0
   12.9325   -0.5510   22.2119 C   0  0  0  0  0  0  0  0  0  0  0  0
   13.6012    0.6053   22.5660 C   0  0  0  0  0  0  0  0  0  0  0  0
   12.9227    1.8015   22.5349 C   0  0  0  0  0  0  0  0  0  0  0  0
   13.7554    3.2650   22.9791 Cl  0  0  0  0  0  0  0  0  0  0  0  0
   11.5970    1.8702   22.1599 C   0  0  0  0  0  0  0  0  0  0  0  0
   10.9006    0.7131   21.7976 C   0  0  0  0  0  0  0  0  0  0  0  0
    9.4586    0.9118   21.4068 C   0  0  0  0  0  0  0  0  0  0  0  0
    8.7757    1.6920   22.0619 O   0  0  0  0  0  0  0  0  0  0  0  0
    8.9878    0.2097   20.3402 N   0  0  0  0  0  0  0  0  0  0  0  0
    7.7042    0.1776   19.7365 C   0  0  0  0  0  0  0  0  0  0  0  0
    6.7886    1.2273   19.7913 C   0  0  0  0  0  0  0  0  0  0  0  0
    5.5550    1.1096   19.1720 C   0  0  0  0  0  0  0  0  0  0  0  0
    5.2168   -0.0416   18.4957 C   0  0  0  0  0  0  0  0  0  0  0  0
    6.1137   -1.0847   18.4354 C   0  0  0  0  0  0  0  0  0  0  0  0
    7.3495   -0.9788   19.0505 C   0  0  0  0  0  0  0  0  0  0  0  0
  1  2  1  0
  2  3  2  0
  3  4  1  0
  4  5  2  0
  5  6  1  0
  5  7  1  0
  7  8  2  0
  8  9  1  0
  9 10  2  0
  9 11  1  0
 11 12  1  0
 12 13  2  0
 13 14  1  0
 14 15  2  0
 15 16  1  0
 16 17  2  0
  8  2  1  0
 17 12  1  0
M  END
