CVD-0000960|dock_bobby27042020.39|mol2|43|dock1
     RDKit          3D

 27 30  0  0  0  0  0  0  0  0999 V2000
   12.2291    2.7677   22.5782 C   0  0  0  0  0  0  0  0  0  0  0  0
   12.0800    1.2829   22.4099 C   0  0  0  0  0  0  0  0  0  0  0  0
   13.0632    0.5801   22.2033 O   0  0  0  0  0  0  0  0  0  0  0  0
   10.7911    0.7114   22.4830 N   0  0  0  0  0  0  0  0  0  0  0  0
    9.6082    1.4566   22.9122 C   0  0  0  0  0  0  0  0  0  0  0  0
    8.4738    1.3242   21.9256 C   0  0  0  0  0  0  0  0  0  0  0  0
    8.2683   -0.0767   21.5418 N   0  0  0  0  0  0  0  0  0  0  0  0
    6.9175   -0.4540   21.1159 C   0  0  0  0  0  0  0  0  0  0  0  0
    6.8507   -1.8159   20.8331 O   0  0  0  0  0  0  0  0  0  0  0  0
    6.4795    0.3057   19.9045 C   0  0  0  0  0  0  0  0  0  0  0  0
    5.3519    1.1092   19.7815 C   0  0  0  0  0  0  0  0  0  0  0  0
    5.2666    1.6690   18.4838 C   0  0  0  0  0  0  0  0  0  0  0  0
    6.2769    1.3068   17.6751 C   0  0  0  0  0  0  0  0  0  0  0  0
    7.3813    0.2661   18.4560 S   0  0  0  0  0  0  0  0  0  0  0  0
    9.0158   -0.9736   22.4335 C   0  0  0  0  0  0  0  0  0  0  0  0
    9.0235   -2.5063   22.2643 C   0  0  0  0  0  0  0  0  0  0  0  0
   10.2833   -2.8946   23.0668 C   0  0  0  0  0  0  0  0  0  0  0  0
   10.4931   -3.9687   23.6198 O   0  0  0  0  0  0  0  0  0  0  0  0
   11.0341   -1.7702   23.1836 N   0  0  0  0  0  0  0  0  0  0  0  0
   10.5297   -0.7133   22.3194 C   0  0  0  0  0  0  0  0  0  0  0  0
   12.2673   -1.7541   23.9196 C   0  0  0  0  0  0  0  0  0  0  0  0
   13.2920   -2.6092   23.5397 C   0  0  0  0  0  0  0  0  0  0  0  0
   14.4865   -2.6412   24.1379 N   0  0  0  0  0  0  0  0  0  0  0  0
   14.6886   -1.7887   25.1404 C   0  0  0  0  0  0  0  0  0  0  0  0
   13.7242   -0.9184   25.6025 C   0  0  0  0  0  0  0  0  0  0  0  0
   12.4661   -0.8998   25.0067 C   0  0  0  0  0  0  0  0  0  0  0  0
   11.4056    0.0096   25.5713 C   0  0  0  0  0  0  0  0  0  0  0  0
  1  2  1  0
  2  3  2  0
  2  4  1  0
  4  5  1  0
  5  6  1  0
  6  7  1  0
  7  8  1  0
  8  9  1  0
  8 10  1  0
 10 11  2  0
 11 12  1  0
 12 13  2  0
 13 14  1  0
  7 15  1  0
 15 16  1  0
 16 17  1  0
 17 18  2  0
 17 19  1  0
 19 20  1  0
 19 21  1  0
 21 22  2  0
 22 23  1  0
 23 24  2  0
 24 25  1  0
 25 26  2  0
 26 27  1  0
 20  4  1  0
 26 21  1  0
 14 10  1  0
 20 15  1  0
M  END
