CVD-0002354|dock_bobby27042020.63|mol2|33|dock2
     RDKit          3D

 38 42  0  0  0  0  0  0  0  0999 V2000
   10.3796   -5.5005   24.8354 N   0  0  0  0  0  0  0  0  0  0  0  0
    9.7519   -5.0473   26.2367 S   0  0  0  0  0  0  0  0  0  0  0  0
    9.7391   -3.6152   26.2516 O   0  0  0  0  0  0  0  0  0  0  0  0
   10.4652   -5.7433   27.2652 O   0  0  0  0  0  0  0  0  0  0  0  0
    8.0714   -5.5908   26.2995 C   0  0  0  0  0  0  0  0  0  0  0  0
    7.6010   -6.2271   27.4360 C   0  0  0  0  0  0  0  0  0  0  0  0
    6.3000   -6.6902   27.4548 C   0  0  0  0  0  0  0  0  0  0  0  0
    5.4601   -6.5291   26.3588 C   0  0  0  0  0  0  0  0  0  0  0  0
    4.0156   -6.9646   26.4121 C   0  0  0  0  0  0  0  0  0  0  0  0
    3.4828   -7.2470   25.0226 C   0  0  0  0  0  0  0  0  0  0  0  0
    3.7338   -6.0536   24.1183 C   0  0  0  0  0  0  0  0  0  0  0  0
    5.1611   -5.7674   24.0534 N   0  0  0  0  0  0  0  0  0  0  0  0
    5.6548   -5.0507   22.8716 C   0  0  0  0  0  0  0  0  0  0  0  0
    6.6885   -5.8009   22.1126 N   0  0  0  0  0  0  0  0  0  0  0  0
    6.7551   -5.3526   20.7204 C   0  0  0  0  0  0  0  0  0  0  0  0
    6.9869   -3.8675   20.6239 C   0  0  0  0  0  0  0  0  0  0  0  0
    6.3746   -3.0075   19.6960 C   0  0  0  0  0  0  0  0  0  0  0  0
    6.8085   -1.7069   19.8855 C   0  0  0  0  0  0  0  0  0  0  0  0
    6.3966   -0.5126   19.0989 C   0  0  0  0  0  0  0  0  0  0  0  0
    7.2849    0.1217   18.2262 C   0  0  0  0  0  0  0  0  0  0  0  0
    6.9068    1.2370   17.4975 C   0  0  0  0  0  0  0  0  0  0  0  0
    5.6309    1.7408   17.6013 C   0  0  0  0  0  0  0  0  0  0  0  0
    4.7201    1.1320   18.4438 C   0  0  0  0  0  0  0  0  0  0  0  0
    5.1195    0.0351   19.1698 C   0  0  0  0  0  0  0  0  0  0  0  0
    4.1896   -0.5065   19.9896 F   0  0  0  0  0  0  0  0  0  0  0  0
    7.7155   -1.7667   20.9826 N   0  0  0  0  0  0  0  0  0  0  0  0
    7.8125   -3.0838   21.4142 C   0  0  0  0  0  0  0  0  0  0  0  0
    8.6252   -0.5879   21.7970 S   0  0  0  0  0  0  0  0  0  0  0  0
    8.7963    0.5279   20.9196 O   0  0  0  0  0  0  0  0  0  0  0  0
    7.9506   -0.3962   23.0432 O   0  0  0  0  0  0  0  0  0  0  0  0
   10.1826   -1.3277   22.1513 C   0  0  0  0  0  0  0  0  0  0  0  0
   11.2676   -1.1075   21.3201 C   0  0  0  0  0  0  0  0  0  0  0  0
   12.4748   -1.7047   21.6390 C   0  0  0  0  0  0  0  0  0  0  0  0
   12.5477   -2.4902   22.7671 C   0  0  0  0  0  0  0  0  0  0  0  0
   11.5114   -2.7095   23.5777 N   0  0  0  0  0  0  0  0  0  0  0  0
   10.3490   -2.1298   23.2642 C   0  0  0  0  0  0  0  0  0  0  0  0
    5.9484   -5.8798   25.2058 C   0  0  0  0  0  0  0  0  0  0  0  0
    7.2609   -5.4132   25.1883 C   0  0  0  0  0  0  0  0  0  0  0  0
  1  2  1  0
  2  3  2  0
  2  4  2  0
  2  5  1  0
  5  6  2  0
  6  7  1  0
  7  8  2  0
  8  9  1  0
  9 10  1  0
 10 11  1  0
 11 12  1  0
 12 13  1  0
 13 14  1  0
 14 15  1  0
 15 16  1  0
 16 17  1  0
 17 18  2  0
 18 19  1  0
 19 20  2  0
 20 21  1  0
 21 22  2  0
 22 23  1  0
 23 24  2  0
 24 25  1  0
 18 26  1  0
 26 27  1  0
 26 28  1  0
 28 29  2  0
 28 30  2  0
 28 31  1  0
 31 32  2  0
 32 33  1  0
 33 34  2  0
 34 35  1  0
 35 36  2  0
 12 37  1  0
 37 38  2  0
 38  5  1  0
 37  8  1  0
 27 16  2  0
 36 31  1  0
 24 19  1  0
M  END
