CVD-0000595|dock_bobby27042020.12|mol2|28|dock1
     RDKit          3D

 27 29  0  0  0  0  0  0  0  0999 V2000
    9.7426   -7.2697   25.9074 N   0  0  0  0  0  0  0  0  0  0  0  0
    9.4247   -5.7483   26.2914 S   0  0  0  0  0  0  0  0  0  0  0  0
   10.5175   -5.2752   27.0870 O   0  0  0  0  0  0  0  0  0  0  0  0
    8.1035   -5.7181   26.8431 O   0  0  0  0  0  0  0  0  0  0  0  0
    9.3988   -4.7898   24.8070 C   0  0  0  0  0  0  0  0  0  0  0  0
    8.2006   -4.5848   24.1432 C   0  0  0  0  0  0  0  0  0  0  0  0
    8.1830   -3.8292   22.9844 C   0  0  0  0  0  0  0  0  0  0  0  0
    9.3572   -3.2798   22.4951 C   0  0  0  0  0  0  0  0  0  0  0  0
    9.3725   -2.5188   21.3245 O   0  0  0  0  0  0  0  0  0  0  0  0
    8.7279   -1.2863   21.2004 C   0  0  0  0  0  0  0  0  0  0  0  0
    7.5133   -1.1769   20.5437 C   0  0  0  0  0  0  0  0  0  0  0  0
    6.9263    0.0675   20.4618 C   0  0  0  0  0  0  0  0  0  0  0  0
    5.4003    0.2269   19.6384 Cl  0  0  0  0  0  0  0  0  0  0  0  0
    7.5093    1.1907   21.0115 C   0  0  0  0  0  0  0  0  0  0  0  0
    8.7311    1.0809   21.6757 C   0  0  0  0  0  0  0  0  0  0  0  0
    9.3308   -0.1731   21.7626 C   0  0  0  0  0  0  0  0  0  0  0  0
    9.4462    2.2457   22.3091 C   0  0  0  0  0  0  0  0  0  0  0  0
    8.8194    2.9163   23.1224 O   0  0  0  0  0  0  0  0  0  0  0  0
   10.7378    2.5044   21.9603 N   0  0  0  0  0  0  0  0  0  0  0  0
   11.6241    3.5212   22.3998 C   0  0  0  0  0  0  0  0  0  0  0  0
   12.5214    4.2047   21.5833 C   0  0  0  0  0  0  0  0  0  0  0  0
   13.3351    5.1790   22.1358 C   0  0  0  0  0  0  0  0  0  0  0  0
   13.2337    5.4454   23.4814 C   0  0  0  0  0  0  0  0  0  0  0  0
   12.3856    4.8091   24.2886 N   0  0  0  0  0  0  0  0  0  0  0  0
   11.6050    3.8708   23.7454 C   0  0  0  0  0  0  0  0  0  0  0  0
   10.5514   -3.4888   23.1629 C   0  0  0  0  0  0  0  0  0  0  0  0
   10.5757   -4.2436   24.3223 C   0  0  0  0  0  0  0  0  0  0  0  0
  1  2  1  0
  2  3  2  0
  2  4  2  0
  2  5  1  0
  5  6  2  0
  6  7  1  0
  7  8  2  0
  8  9  1  0
  9 10  1  0
 10 11  2  0
 11 12  1  0
 12 13  1  0
 12 14  2  0
 14 15  1  0
 15 16  2  0
 15 17  1  0
 17 18  2  0
 17 19  1  0
 19 20  1  0
 20 21  2  0
 21 22  1  0
 22 23  2  0
 23 24  1  0
 24 25  2  0
  8 26  1  0
 26 27  2  0
 27  5  1  0
 16 10  1  0
 25 20  1  0
M  END
