CVD-0003628|dock_bobby27042020.87|mol2|20|dock2
     RDKit          3D

 19 20  0  0  0  0  0  0  0  0999 V2000
   13.5462   -1.5785   21.1245 C   0  0  0  0  0  0  0  0  0  0  0  0
   13.0321   -2.0573   22.4580 C   0  0  0  0  0  0  0  0  0  0  0  0
   13.9600   -2.4363   23.4234 C   0  0  0  0  0  0  0  0  0  0  0  0
   13.5265   -2.8824   24.6513 C   0  0  0  0  0  0  0  0  0  0  0  0
   12.2406   -2.9743   24.9758 N   0  0  0  0  0  0  0  0  0  0  0  0
   11.3397   -2.6127   24.0568 C   0  0  0  0  0  0  0  0  0  0  0  0
   11.6632   -2.1478   22.7807 C   0  0  0  0  0  0  0  0  0  0  0  0
   10.7132   -1.7618   21.7913 N   0  0  0  0  0  0  0  0  0  0  0  0
    9.4568   -1.2173   21.9443 C   0  0  0  0  0  0  0  0  0  0  0  0
    8.9318   -0.9662   23.0236 O   0  0  0  0  0  0  0  0  0  0  0  0
    8.8588   -0.9886   20.7249 N   0  0  0  0  0  0  0  0  0  0  0  0
    7.5880   -0.4495   20.3984 C   0  0  0  0  0  0  0  0  0  0  0  0
    6.4869   -0.4876   21.2526 C   0  0  0  0  0  0  0  0  0  0  0  0
    5.2774    0.0621   20.8595 C   0  0  0  0  0  0  0  0  0  0  0  0
    5.1437    0.6553   19.6167 C   0  0  0  0  0  0  0  0  0  0  0  0
    6.2336    0.6995   18.7565 C   0  0  0  0  0  0  0  0  0  0  0  0
    7.4504    0.1479   19.1492 C   0  0  0  0  0  0  0  0  0  0  0  0
    6.1108    1.3144   17.4578 C   0  0  0  0  0  0  0  0  0  0  0  0
    6.0227    1.8305   16.4425 N   0  0  0  0  0  0  0  0  0  0  0  0
  1  2  1  0
  2  3  2  0
  3  4  1  0
  4  5  2  0
  5  6  1  0
  6  7  2  0
  7  8  1  0
  8  9  1  0
  9 10  2  0
  9 11  1  0
 11 12  1  0
 12 13  2  0
 13 14  1  0
 14 15  2  0
 15 16  1  0
 16 17  2  0
 16 18  1  0
 18 19  3  0
  7  2  1  0
 17 12  1  0
M  END
