CVD-0000575|dock_bobby27042020.12|mol2|31|dock1
     RDKit          3D

 23 25  0  0  0  0  0  0  0  0999 V2000
    8.2432   -1.6570   18.1674 C   0  0  0  0  0  0  0  0  0  0  0  0
    7.3453   -1.0513   19.2157 C   0  0  0  0  0  0  0  0  0  0  0  0
    5.9921   -0.9109   18.9228 C   0  0  0  0  0  0  0  0  0  0  0  0
    5.1440   -0.3585   19.8556 C   0  0  0  0  0  0  0  0  0  0  0  0
    5.5534    0.0591   21.0495 N   0  0  0  0  0  0  0  0  0  0  0  0
    6.8513   -0.0703   21.3424 C   0  0  0  0  0  0  0  0  0  0  0  0
    7.8009   -0.6139   20.4753 C   0  0  0  0  0  0  0  0  0  0  0  0
    9.1866   -0.7558   20.7743 N   0  0  0  0  0  0  0  0  0  0  0  0
    9.9162   -0.2515   21.8277 C   0  0  0  0  0  0  0  0  0  0  0  0
    9.4540    0.4415   22.7273 O   0  0  0  0  0  0  0  0  0  0  0  0
   11.2238   -0.6123   21.7581 N   0  0  0  0  0  0  0  0  0  0  0  0
   12.3084   -0.2821   22.6745 C   0  0  0  0  0  0  0  0  0  0  0  0
   13.6124   -1.0304   22.3174 C   0  0  0  0  0  0  0  0  0  0  0  0
   13.4255   -1.9403   23.5176 C   0  0  0  0  0  0  0  0  0  0  0  0
   12.2588   -1.0721   23.9950 C   0  0  0  0  0  0  0  0  0  0  0  0
   12.4678    1.1829   22.7876 C   0  0  0  0  0  0  0  0  0  0  0  0
   12.6942    2.3569   22.8396 C   0  0  0  0  0  0  0  0  0  0  0  0
   12.8807    3.7719   22.8675 C   0  0  0  0  0  0  0  0  0  0  0  0
   13.7930    4.5443   22.2033 C   0  0  0  0  0  0  0  0  0  0  0  0
   13.5502    5.8312   22.5818 N   0  0  0  0  0  0  0  0  0  0  0  0
   14.2630    7.0219   22.1161 C   0  0  0  0  0  0  0  0  0  0  0  0
   12.5087    5.7882   23.4353 C   0  0  0  0  0  0  0  0  0  0  0  0
   12.0646    4.5653   23.6515 N   0  0  0  0  0  0  0  0  0  0  0  0
  1  2  1  0
  2  3  2  0
  3  4  1  0
  4  5  2  0
  5  6  1  0
  6  7  2  0
  7  8  1  0
  8  9  1  0
  9 10  2  0
  9 11  1  0
 11 12  1  0
 12 13  1  0
 13 14  1  0
 14 15  1  0
 12 16  1  0
 16 17  3  0
 17 18  1  0
 18 19  2  0
 19 20  1  0
 20 21  1  0
 20 22  1  0
 22 23  2  0
  7  2  1  0
 15 12  1  0
 23 18  1  0
M  END
