CVD-0002790|dock_bobby27042020.47|mol2|21|dock3
     RDKit          3D

 23 25  0  0  0  0  0  0  0  0999 V2000
   14.1615   -2.1596   23.7359 C   0  0  0  0  0  0  0  0  0  0  0  0
   12.7298   -1.8733   23.3864 C   0  0  0  0  0  0  0  0  0  0  0  0
   11.8824   -2.7242   23.6303 O   0  0  0  0  0  0  0  0  0  0  0  0
   12.4446   -0.6721   22.7891 N   0  0  0  0  0  0  0  0  0  0  0  0
   13.5090    0.3597   22.8203 C   0  0  0  0  0  0  0  0  0  0  0  0
   12.9498    1.7724   22.6630 C   0  0  0  0  0  0  0  0  0  0  0  0
   11.5286    1.8893   23.2191 C   0  0  0  0  0  0  0  0  0  0  0  0
   10.6598    0.9245   22.4663 C   0  0  0  0  0  0  0  0  0  0  0  0
    9.4346    1.2902   21.9250 C   0  0  0  0  0  0  0  0  0  0  0  0
    8.7189    0.4234   21.1137 C   0  0  0  0  0  0  0  0  0  0  0  0
    7.5476    0.8518   20.5178 N   0  0  0  0  0  0  0  0  0  0  0  0
    6.4198   -0.0229   20.2640 C   0  0  0  0  0  0  0  0  0  0  0  0
    5.1042    0.7099   20.1704 C   0  0  0  0  0  0  0  0  0  0  0  0
    4.2138    0.7390   21.2404 C   0  0  0  0  0  0  0  0  0  0  0  0
    3.0072    1.4115   21.1624 C   0  0  0  0  0  0  0  0  0  0  0  0
    2.7026    2.0578   19.9959 C   0  0  0  0  0  0  0  0  0  0  0  0
    1.5189    2.7223   19.9076 F   0  0  0  0  0  0  0  0  0  0  0  0
    3.5382    2.0675   18.9067 C   0  0  0  0  0  0  0  0  0  0  0  0
    4.7362    1.3867   19.0149 C   0  0  0  0  0  0  0  0  0  0  0  0
    5.8088    1.3849   17.6535 Cl  0  0  0  0  0  0  0  0  0  0  0  0
    9.2542   -0.8304   20.8494 C   0  0  0  0  0  0  0  0  0  0  0  0
   10.4756   -1.2178   21.3788 C   0  0  0  0  0  0  0  0  0  0  0  0
   11.1963   -0.3443   22.1961 C   0  0  0  0  0  0  0  0  0  0  0  0
  1  2  1  0
  2  3  2  0
  2  4  1  0
  4  5  1  0
  5  6  1  0
  6  7  1  0
  7  8  1  0
  8  9  2  0
  9 10  1  0
 10 11  1  0
 11 12  1  0
 12 13  1  0
 13 14  2  0
 14 15  1  0
 15 16  2  0
 16 17  1  0
 16 18  1  0
 18 19  2  0
 19 20  1  0
 10 21  2  0
 21 22  1  0
 22 23  2  0
 23  4  1  0
 23  8  1  0
 19 13  1  0
M  END
