CVD-0002260|dock_bobby27042020.64|mol2|8|dock3
     RDKit          3D

 26 28  0  0  0  0  0  0  0  0999 V2000
    6.2745   -4.5290   19.4194 F   0  0  0  0  0  0  0  0  0  0  0  0
    6.5480   -5.0058   20.6709 C   0  0  0  0  0  0  0  0  0  0  0  0
    6.1359   -6.1529   21.1745 C   0  0  0  0  0  0  0  0  0  0  0  0
    6.5025   -6.6031   22.5402 C   0  0  0  0  0  0  0  0  0  0  0  0
    7.0104   -5.4282   23.3581 C   0  0  0  0  0  0  0  0  0  0  0  0
    7.9953   -4.6177   22.6527 N   0  0  0  0  0  0  0  0  0  0  0  0
    8.5572   -3.5824   23.5222 C   0  0  0  0  0  0  0  0  0  0  0  0
    9.7115   -2.8634   22.8907 C   0  0  0  0  0  0  0  0  0  0  0  0
    9.5561   -2.0630   21.8900 N   0  0  0  0  0  0  0  0  0  0  0  0
   10.7546   -1.4963   21.4589 N   0  0  0  0  0  0  0  0  0  0  0  0
   11.7671   -1.8886   22.1557 C   0  0  0  0  0  0  0  0  0  0  0  0
   13.1698   -1.4380   21.9033 C   0  0  0  0  0  0  0  0  0  0  0  0
   13.4499    0.2116   22.5042 S   0  0  0  0  0  0  0  0  0  0  0  0
   14.7273    0.6358   22.0151 O   0  0  0  0  0  0  0  0  0  0  0  0
   13.2024    0.2028   23.9145 O   0  0  0  0  0  0  0  0  0  0  0  0
   12.3406    1.1577   21.8294 N   0  0  0  0  0  0  0  0  0  0  0  0
   12.3250    2.6107   22.0379 C   0  0  0  0  0  0  0  0  0  0  0  0
   13.2981    3.0048   23.1344 C   0  0  0  0  0  0  0  0  0  0  0  0
   13.2901    4.4877   23.4169 C   0  0  0  0  0  0  0  0  0  0  0  0
   13.8971    5.3794   22.5459 C   0  0  0  0  0  0  0  0  0  0  0  0
   13.8928    6.7397   22.8062 C   0  0  0  0  0  0  0  0  0  0  0  0
   13.2818    7.2250   23.9422 C   0  0  0  0  0  0  0  0  0  0  0  0
   12.6757    6.3499   24.8176 C   0  0  0  0  0  0  0  0  0  0  0  0
   12.6805    4.9899   24.5563 C   0  0  0  0  0  0  0  0  0  0  0  0
   11.3610   -3.0077   23.4227 S   0  0  0  0  0  0  0  0  0  0  0  0
    7.3981   -4.0620   21.4398 C   0  0  0  0  0  0  0  0  0  0  0  0
  1  2  1  0
  2  3  2  0
  3  4  1  0
  4  5  1  0
  5  6  1  0
  6  7  1  0
  7  8  1  0
  8  9  2  0
  9 10  1  0
 10 11  2  0
 11 12  1  0
 12 13  1  0
 13 14  2  0
 13 15  2  0
 13 16  1  0
 16 17  1  0
 17 18  1  0
 18 19  1  0
 19 20  2  0
 20 21  1  0
 21 22  2  0
 22 23  1  0
 23 24  2  0
 11 25  1  0
  6 26  1  0
 26  2  1  0
 25  8  1  0
 24 19  1  0
M  END
