CVD-0000065|dock_bobby27042020.28|mol2|32|dock1
     RDKit          3D

 24 25  0  0  0  0  0  0  0  0999 V2000
   13.4888    4.6999   23.3152 C   0  0  0  0  0  0  0  0  0  0  0  0
   12.0000    4.9229   23.2649 C   0  0  0  0  0  0  0  0  0  0  0  0
   11.4765    6.1025   23.7847 C   0  0  0  0  0  0  0  0  0  0  0  0
   10.1188    6.3456   23.7848 C   0  0  0  0  0  0  0  0  0  0  0  0
    9.2277    5.4291   23.2386 C   0  0  0  0  0  0  0  0  0  0  0  0
    7.7496    5.7179   23.2484 C   0  0  0  0  0  0  0  0  0  0  0  0
    9.7450    4.2560   22.6793 C   0  0  0  0  0  0  0  0  0  0  0  0
    8.7754    3.3789   22.0835 N   0  0  0  0  0  0  0  0  0  0  0  0
    8.5757    2.0660   22.3480 C   0  0  0  0  0  0  0  0  0  0  0  0
    9.2205    1.4024   23.1705 O   0  0  0  0  0  0  0  0  0  0  0  0
    7.4959    1.4664   21.5318 C   0  0  0  0  0  0  0  0  0  0  0  0
    7.5100    0.2110   21.1697 C   0  0  0  0  0  0  0  0  0  0  0  0
   11.1255    3.9689   22.7199 C   0  0  0  0  0  0  0  0  0  0  0  0
   11.7341    2.6674   22.2327 C   0  0  0  0  0  0  0  0  0  0  0  0
   12.2221    1.7546   23.3419 C   0  0  0  0  0  0  0  0  0  0  0  0
   12.0979    2.0772   24.5185 O   0  0  0  0  0  0  0  0  0  0  0  0
   12.7771    0.6045   22.8860 N   0  0  0  0  0  0  0  0  0  0  0  0
   13.3410   -0.4907   23.5969 C   0  0  0  0  0  0  0  0  0  0  0  0
   13.4739   -0.5270   24.9871 C   0  0  0  0  0  0  0  0  0  0  0  0
   14.0361   -1.6379   25.5933 C   0  0  0  0  0  0  0  0  0  0  0  0
   14.4534   -2.6860   24.8095 C   0  0  0  0  0  0  0  0  0  0  0  0
   14.3446   -2.6912   23.4777 N   0  0  0  0  0  0  0  0  0  0  0  0
   13.8067   -1.6257   22.9134 C   0  0  0  0  0  0  0  0  0  0  0  0
   13.7088   -1.7270   21.1829 Cl  0  0  0  0  0  0  0  0  0  0  0  0
  1  2  1  0
  2  3  2  0
  3  4  1  0
  4  5  2  0
  5  6  1  0
  5  7  1  0
  7  8  1  0
  8  9  1  0
  9 10  2  0
  9 11  1  0
 11 12  2  0
  7 13  2  0
 13 14  1  0
 14 15  1  0
 15 16  2  0
 15 17  1  0
 17 18  1  0
 18 19  2  0
 19 20  1  0
 20 21  2  0
 21 22  1  0
 22 23  2  0
 23 24  1  0
 13  2  1  0
 23 18  1  0
M  END
