CVD-0002347|dock_bobby27042020.77|mol2|35|dock2
     RDKit          3D

 13 13  0  0  0  0  0  0  0  0999 V2000
   10.0284    4.9892   23.1664 C   0  0  0  0  0  0  0  0  0  0  0  0
   11.4918    5.1307   22.8354 C   0  0  0  0  0  0  0  0  0  0  0  0
   12.4044    4.0136   23.1416 N   0  0  0  0  0  0  0  0  0  0  0  0
   13.6630    4.3115   22.4597 C   0  0  0  0  0  0  0  0  0  0  0  0
   11.8866    2.7040   22.7397 C   0  0  0  0  0  0  0  0  0  0  0  0
   12.8218    1.5501   23.0612 C   0  0  0  0  0  0  0  0  0  0  0  0
   12.1068    0.3400   23.4878 N   0  0  0  0  0  0  0  0  0  0  0  0
   12.7757   -0.5024   24.5025 C   0  0  0  0  0  0  0  0  0  0  0  0
   14.0117   -1.2154   23.9745 C   0  0  0  0  0  0  0  0  0  0  0  0
   13.7601   -2.6199   23.3954 C   0  0  0  0  0  0  0  0  0  0  0  0
   12.5050   -2.6664   22.7083 O   0  0  0  0  0  0  0  0  0  0  0  0
   12.2140   -1.5624   21.8578 C   0  0  0  0  0  0  0  0  0  0  0  0
   11.3736   -0.5070   22.5351 C   0  0  0  0  0  0  0  0  0  0  0  0
  1  2  1  0
  2  3  1  0
  3  4  1  0
  3  5  1  0
  5  6  1  0
  6  7  1  0
  7  8  1  0
  8  9  1  0
  9 10  1  0
 10 11  1  0
 11 12  1  0
 12 13  1  0
 13  7  1  0
M  END
