CVD-0002014|dock_bobby27042020.50|mol2|32|dock2
     RDKit          3D

 19 21  0  0  0  0  0  0  0  0999 V2000
   13.8393   -2.2615   23.3079 C   0  0  0  0  0  0  0  0  0  0  0  0
   12.8350   -1.8636   22.2293 C   0  0  0  0  0  0  0  0  0  0  0  0
   13.4757   -1.9613   20.8581 C   0  0  0  0  0  0  0  0  0  0  0  0
   14.4379   -1.0931   20.6733 O   0  0  0  0  0  0  0  0  0  0  0  0
   13.1257   -2.7636   20.0207 O   0  0  0  0  0  0  0  0  0  0  0  0
   12.3286   -0.4402   22.4216 C   0  0  0  0  0  0  0  0  0  0  0  0
   10.9633   -0.1800   22.4545 C   0  0  0  0  0  0  0  0  0  0  0  0
   10.4717    1.1017   22.6302 C   0  0  0  0  0  0  0  0  0  0  0  0
   11.3679    2.1571   22.7785 C   0  0  0  0  0  0  0  0  0  0  0  0
   12.7498    1.8922   22.7460 C   0  0  0  0  0  0  0  0  0  0  0  0
   13.2355    0.6014   22.5691 C   0  0  0  0  0  0  0  0  0  0  0  0
   13.4382    3.0800   22.9124 N   0  0  0  0  0  0  0  0  0  0  0  0
   12.5266    4.1105   23.0519 C   0  0  0  0  0  0  0  0  0  0  0  0
   12.7020    5.4744   23.2408 C   0  0  0  0  0  0  0  0  0  0  0  0
   11.6615    6.3109   23.3531 N   0  0  0  0  0  0  0  0  0  0  0  0
   10.4476    5.7960   23.2782 C   0  0  0  0  0  0  0  0  0  0  0  0
    9.1412    6.9327   23.4311 Cl  0  0  0  0  0  0  0  0  0  0  0  0
   10.1457    4.4651   23.0934 C   0  0  0  0  0  0  0  0  0  0  0  0
   11.2214    3.5897   22.9759 C   0  0  0  0  0  0  0  0  0  0  0  0
  2  1  1  0
  2  3  1  0
  3  4  1  0
  3  5  2  0
  2  6  1  0
  6  7  2  0
  7  8  1  0
  8  9  2  0
  9 10  1  0
 10 11  2  0
 10 12  1  0
 12 13  1  0
 13 14  2  0
 14 15  1  0
 15 16  2  0
 16 17  1  0
 16 18  1  0
 18 19  2  0
 11  6  1  0
 19 13  1  0
 19  9  1  0
M  END
