CVD-0001079|dock_bobby27042020.96|mol2|28|dock3
     RDKit          3D

 21 23  0  0  0  0  0  0  0  0999 V2000
    1.7007    3.0039   20.1992 C   0  0  0  0  0  0  0  0  0  0  0  0
    2.9573    2.2885   19.7665 C   0  0  0  0  0  0  0  0  0  0  0  0
    3.5027    2.4934   18.5103 C   0  0  0  0  0  0  0  0  0  0  0  0
    4.6534    1.8390   18.1072 C   0  0  0  0  0  0  0  0  0  0  0  0
    5.3156    0.9597   18.9609 C   0  0  0  0  0  0  0  0  0  0  0  0
    4.7569    0.7460   20.2168 C   0  0  0  0  0  0  0  0  0  0  0  0
    3.6021    1.3990   20.6091 C   0  0  0  0  0  0  0  0  0  0  0  0
    6.5738    0.2266   18.6061 C   0  0  0  0  0  0  0  0  0  0  0  0
    6.6394   -0.2484   17.4669 O   0  0  0  0  0  0  0  0  0  0  0  0
    7.7284    0.0364   19.5085 C   0  0  0  0  0  0  0  0  0  0  0  0
    8.0513    0.8321   20.5259 C   0  0  0  0  0  0  0  0  0  0  0  0
    9.1958    0.6455   21.4207 C   0  0  0  0  0  0  0  0  0  0  0  0
    9.4725    1.5544   22.4379 C   0  0  0  0  0  0  0  0  0  0  0  0
   10.4837    1.4342   23.2660 N   0  0  0  0  0  0  0  0  0  0  0  0
   11.2875    0.3407   23.0863 C   0  0  0  0  0  0  0  0  0  0  0  0
   12.4001    0.1315   23.9329 C   0  0  0  0  0  0  0  0  0  0  0  0
   13.1987   -0.9593   23.7507 C   0  0  0  0  0  0  0  0  0  0  0  0
   12.9394   -1.8713   22.7468 C   0  0  0  0  0  0  0  0  0  0  0  0
   11.8770   -1.7095   21.9067 C   0  0  0  0  0  0  0  0  0  0  0  0
   11.0214   -0.5941   22.0572 C   0  0  0  0  0  0  0  0  0  0  0  0
    9.9534   -0.4250   21.2179 N   0  0  0  0  0  0  0  0  0  0  0  0
  1  2  1  0
  2  3  2  0
  3  4  1  0
  4  5  2  0
  5  6  1  0
  6  7  2  0
  5  8  1  0
  8  9  2  0
  8 10  1  0
 10 11  2  0
 11 12  1  0
 12 13  2  0
 13 14  1  0
 14 15  2  0
 15 16  1  0
 16 17  2  0
 17 18  1  0
 18 19  2  0
 19 20  1  0
 20 21  2  0
  7  2  1  0
 21 12  1  0
 20 15  1  0
M  END
