CVD-0002230|dock_bobby27042020.21|mol2|8|dock1
     RDKit          3D

 20 21  0  0  0  0  0  0  0  0999 V2000
   13.6618   -2.4108   25.6102 C   0  0  0  0  0  0  0  0  0  0  0  0
   12.7852   -2.5486   24.4003 C   0  0  0  0  0  0  0  0  0  0  0  0
   12.3721   -3.6439   24.0359 O   0  0  0  0  0  0  0  0  0  0  0  0
   12.4535   -1.4196   23.7271 N   0  0  0  0  0  0  0  0  0  0  0  0
   11.5950   -1.4896   22.5562 C   0  0  0  0  0  0  0  0  0  0  0  0
   10.4454   -0.5407   22.6874 C   0  0  0  0  0  0  0  0  0  0  0  0
   10.9663    0.8125   22.9278 N   0  0  0  0  0  0  0  0  0  0  0  0
   11.7649    0.8788   24.1607 C   0  0  0  0  0  0  0  0  0  0  0  0
   12.9231   -0.0673   24.0447 C   0  0  0  0  0  0  0  0  0  0  0  0
    9.9807    2.0629   22.5768 S   0  0  0  0  0  0  0  0  0  0  0  0
    9.5931    1.9095   21.2089 O   0  0  0  0  0  0  0  0  0  0  0  0
    8.9723    2.0907   23.5903 O   0  0  0  0  0  0  0  0  0  0  0  0
   11.0483    3.4975   22.7589 C   0  0  0  0  0  0  0  0  0  0  0  0
   12.3825    3.5129   22.3401 C   0  0  0  0  0  0  0  0  0  0  0  0
   12.9251    2.4060   21.7834 F   0  0  0  0  0  0  0  0  0  0  0  0
   13.2006    4.6110   22.4633 C   0  0  0  0  0  0  0  0  0  0  0  0
   12.6938    5.7630   23.0385 C   0  0  0  0  0  0  0  0  0  0  0  0
   11.3854    5.8036   23.4873 C   0  0  0  0  0  0  0  0  0  0  0  0
   10.6002    4.6843   23.3457 C   0  0  0  0  0  0  0  0  0  0  0  0
    9.3311    4.7591   23.8079 F   0  0  0  0  0  0  0  0  0  0  0  0
  1  2  1  0
  2  3  2  0
  2  4  1  0
  4  5  1  0
  5  6  1  0
  6  7  1  0
  7  8  1  0
  8  9  1  0
  7 10  1  0
 10 11  2  0
 10 12  2  0
 10 13  1  0
 13 14  2  0
 14 15  1  0
 14 16  1  0
 16 17  2  0
 17 18  1  0
 18 19  2  0
 19 20  1  0
  9  4  1  0
 19 13  1  0
M  END
