CVD-0003871|dock_bobby27042020.15|mol2|17|dock2
     RDKit          3D

 17 18  0  0  0  0  0  0  0  0999 V2000
   12.3703    4.6951   21.8207 C   0  0  0  0  0  0  0  0  0  0  0  0
   11.0776    4.5386   22.5786 C   0  0  0  0  0  0  0  0  0  0  0  0
   10.3206    5.6766   22.8473 C   0  0  0  0  0  0  0  0  0  0  0  0
    9.1498    5.5724   23.5695 C   0  0  0  0  0  0  0  0  0  0  0  0
    8.6822    4.4205   24.0462 N   0  0  0  0  0  0  0  0  0  0  0  0
    9.3988    3.3260   23.7775 C   0  0  0  0  0  0  0  0  0  0  0  0
   10.5858    3.3091   23.0481 C   0  0  0  0  0  0  0  0  0  0  0  0
   11.2411    1.9849   22.8282 C   0  0  0  0  0  0  0  0  0  0  0  0
   10.5482    0.8700   22.3620 C   0  0  0  0  0  0  0  0  0  0  0  0
   11.1821   -0.3430   22.1592 C   0  0  0  0  0  0  0  0  0  0  0  0
   12.5344   -0.4591   22.4328 C   0  0  0  0  0  0  0  0  0  0  0  0
   13.2466    0.6280   22.9098 C   0  0  0  0  0  0  0  0  0  0  0  0
   12.5971    1.8342   23.1027 C   0  0  0  0  0  0  0  0  0  0  0  0
   13.3527   -2.0052   22.1823 S   0  0  0  0  0  0  0  0  0  0  0  0
   13.6178   -2.1907   20.6144 N   0  0  0  0  0  0  0  0  0  0  0  0
   12.4463   -3.0388   22.5837 O   0  0  0  0  0  0  0  0  0  0  0  0
   14.6319   -1.9205   22.8209 O   0  0  0  0  0  0  0  0  0  0  0  0
  1  2  1  0
  2  3  2  0
  3  4  1  0
  4  5  2  0
  5  6  1  0
  6  7  2  0
  7  8  1  0
  8  9  2  0
  9 10  1  0
 10 11  2  0
 11 12  1  0
 12 13  2  0
 11 14  1  0
 14 15  1  0
 14 16  2  0
 14 17  2  0
  7  2  1  0
 13  8  1  0
M  END
