CVD-0003220|dock_bobby27042020.74|mol2|31|dock1
     RDKit          3D

 24 26  0  0  0  0  0  0  0  0999 V2000
    6.2179   -0.3976   24.6351 C   0  0  0  0  0  0  0  0  0  0  0  0
    7.0541   -0.9057   23.6032 O   0  0  0  0  0  0  0  0  0  0  0  0
    7.9133   -1.9697   24.0151 C   0  0  0  0  0  0  0  0  0  0  0  0
    7.1614   -3.2749   24.1195 C   0  0  0  0  0  0  0  0  0  0  0  0
    9.0119   -2.0561   22.9782 C   0  0  0  0  0  0  0  0  0  0  0  0
    9.4721   -0.7365   22.5221 N   0  0  0  0  0  0  0  0  0  0  0  0
   10.4200   -0.0347   23.3699 C   0  0  0  0  0  0  0  0  0  0  0  0
   11.8403   -0.5082   23.1911 C   0  0  0  0  0  0  0  0  0  0  0  0
   12.2837   -1.3636   22.1527 C   0  0  0  0  0  0  0  0  0  0  0  0
   13.6113   -1.6649   22.1956 C   0  0  0  0  0  0  0  0  0  0  0  0
   14.3309   -0.8920   23.5255 S   0  0  0  0  0  0  0  0  0  0  0  0
   12.8694   -0.1770   24.0194 C   0  0  0  0  0  0  0  0  0  0  0  0
    9.0421   -0.1807   21.3698 C   0  0  0  0  0  0  0  0  0  0  0  0
    9.4599    0.9026   20.9809 O   0  0  0  0  0  0  0  0  0  0  0  0
    8.0091   -0.9468   20.5451 C   0  0  0  0  0  0  0  0  0  0  0  0
    7.4638   -0.1324   19.4761 N   0  0  0  0  0  0  0  0  0  0  0  0
    8.1319   -0.0048   18.2998 N   0  0  0  0  0  0  0  0  0  0  0  0
    7.4254    0.7297   17.4885 N   0  0  0  0  0  0  0  0  0  0  0  0
    6.2526    1.0663   18.1271 C   0  0  0  0  0  0  0  0  0  0  0  0
    5.1529    1.8163   17.7128 C   0  0  0  0  0  0  0  0  0  0  0  0
    4.0921    1.9845   18.5894 C   0  0  0  0  0  0  0  0  0  0  0  0
    4.1138    1.4241   19.8516 C   0  0  0  0  0  0  0  0  0  0  0  0
    5.1991    0.6775   20.2826 C   0  0  0  0  0  0  0  0  0  0  0  0
    6.2641    0.5106   19.4055 C   0  0  0  0  0  0  0  0  0  0  0  0
  1  2  1  0
  2  3  1  0
  3  4  1  0
  3  5  1  0
  5  6  1  0
  6  7  1  0
  7  8  1  0
  8  9  1  0
  9 10  2  0
 10 11  1  0
 11 12  1  0
  6 13  1  0
 13 14  2  0
 13 15  1  0
 15 16  1  0
 16 17  1  0
 17 18  2  0
 18 19  1  0
 19 20  2  0
 20 21  1  0
 21 22  2  0
 22 23  1  0
 23 24  2  0
 12  8  2  0
 24 16  1  0
 24 19  1  0
M  END
