CVD-0002800|dock_bobby27042020.4|mol2|25|dock1
     RDKit          3D

 21 23  0  0  0  0  0  0  0  0999 V2000
    4.6911    1.8921   21.1261 C   0  0  0  0  0  0  0  0  0  0  0  0
    5.5057    1.4154   19.9516 C   0  0  0  0  0  0  0  0  0  0  0  0
    5.0263    1.6039   18.6589 C   0  0  0  0  0  0  0  0  0  0  0  0
    5.7713    1.1650   17.5851 C   0  0  0  0  0  0  0  0  0  0  0  0
    6.9497    0.5570   17.7084 N   0  0  0  0  0  0  0  0  0  0  0  0
    7.4228    0.3680   18.9443 C   0  0  0  0  0  0  0  0  0  0  0  0
    6.7463    0.7727   20.0929 C   0  0  0  0  0  0  0  0  0  0  0  0
    7.2697    0.5559   21.3522 N   0  0  0  0  0  0  0  0  0  0  0  0
    7.7816   -0.6988   21.7652 C   0  0  0  0  0  0  0  0  0  0  0  0
    7.5459   -0.9387   23.2458 C   0  0  0  0  0  0  0  0  0  0  0  0
    8.1687   -2.2495   23.6866 C   0  0  0  0  0  0  0  0  0  0  0  0
    9.6194   -2.3338   23.2379 C   0  0  0  0  0  0  0  0  0  0  0  0
    9.7570   -2.0069   21.7544 C   0  0  0  0  0  0  0  0  0  0  0  0
   11.0388   -1.9885   21.3648 N   0  0  0  0  0  0  0  0  0  0  0  0
    9.1797   -0.7331   21.4740 O   0  0  0  0  0  0  0  0  0  0  0  0
    7.3705   -3.4144   23.1345 C   0  0  0  0  0  0  0  0  0  0  0  0
    6.0010   -3.4992   23.3432 C   0  0  0  0  0  0  0  0  0  0  0  0
    5.2728   -4.5650   22.8415 C   0  0  0  0  0  0  0  0  0  0  0  0
    5.9044   -5.5594   22.1258 C   0  0  0  0  0  0  0  0  0  0  0  0
    7.2643   -5.4890   21.9119 C   0  0  0  0  0  0  0  0  0  0  0  0
    7.9932   -4.4236   22.4133 C   0  0  0  0  0  0  0  0  0  0  0  0
  1  2  1  0
  2  3  2  0
  3  4  1  0
  4  5  2  0
  5  6  1  0
  6  7  2  0
  7  8  1  0
  9  8  1  0
  9 10  1  0
 10 11  1  0
 11 12  1  0
 12 13  1  0
 13 14  1  0
 13 15  1  0
 11 16  1  0
 16 17  2  0
 17 18  1  0
 18 19  2  0
 19 20  1  0
 20 21  2  0
  7  2  1  0
 15  9  1  0
 21 16  1  0
M  END
