CVD-0002628|dock_bobby27042020.48|mol2|2|dock3
     RDKit          3D

 28 30  0  0  0  0  0  0  0  0999 V2000
    6.8750   -5.3685   21.3184 C   0  0  0  0  0  0  0  0  0  0  0  0
    6.3605   -4.3489   22.6459 S   0  0  0  0  0  0  0  0  0  0  0  0
    7.3798   -4.3779   23.6490 O   0  0  0  0  0  0  0  0  0  0  0  0
    5.0318   -4.7325   23.0112 O   0  0  0  0  0  0  0  0  0  0  0  0
    6.2814   -2.8433   22.1002 N   0  0  0  0  0  0  0  0  0  0  0  0
    7.3565   -2.3149   21.2545 C   0  0  0  0  0  0  0  0  0  0  0  0
    7.6211   -0.8150   21.4190 C   0  0  0  0  0  0  0  0  0  0  0  0
    9.0179   -0.5585   21.1106 N   0  0  0  0  0  0  0  0  0  0  0  0
    9.7763    0.4199   21.7171 C   0  0  0  0  0  0  0  0  0  0  0  0
    9.3216    1.7336   21.8075 C   0  0  0  0  0  0  0  0  0  0  0  0
   10.0865    2.6908   22.4497 C   0  0  0  0  0  0  0  0  0  0  0  0
   11.3081    2.3527   23.0080 C   0  0  0  0  0  0  0  0  0  0  0  0
   12.0479    3.3021   23.6505 O   0  0  0  0  0  0  0  0  0  0  0  0
   11.7856    1.0541   22.9170 C   0  0  0  0  0  0  0  0  0  0  0  0
   11.0306    0.0962   22.2623 C   0  0  0  0  0  0  0  0  0  0  0  0
   11.4950   -1.2100   22.1277 O   0  0  0  0  0  0  0  0  0  0  0  0
   12.4873   -1.7154   22.9708 C   0  0  0  0  0  0  0  0  0  0  0  0
   12.1135   -2.3234   24.1548 C   0  0  0  0  0  0  0  0  0  0  0  0
   13.1045   -2.8207   24.9823 C   0  0  0  0  0  0  0  0  0  0  0  0
   14.4168   -2.6876   24.5893 C   0  0  0  0  0  0  0  0  0  0  0  0
   14.7871   -2.1023   23.4490 N   0  0  0  0  0  0  0  0  0  0  0  0
   13.8277   -1.6221   22.6513 C   0  0  0  0  0  0  0  0  0  0  0  0
    6.6790   -0.0072   20.5483 C   0  0  0  0  0  0  0  0  0  0  0  0
    5.4951    0.5004   21.0650 C   0  0  0  0  0  0  0  0  0  0  0  0
    4.6349    1.2384   20.2690 C   0  0  0  0  0  0  0  0  0  0  0  0
    4.9475    1.4775   18.9479 C   0  0  0  0  0  0  0  0  0  0  0  0
    6.1202    0.9793   18.4217 C   0  0  0  0  0  0  0  0  0  0  0  0
    6.9812    0.2412   19.2167 C   0  0  0  0  0  0  0  0  0  0  0  0
  1  2  1  0
  2  3  2  0
  2  4  2  0
  2  5  1  0
  5  6  1  0
  6  7  1  0
  7  8  1  0
  8  9  1  0
  9 10  2  0
 10 11  1  0
 11 12  2  0
 12 13  1  0
 12 14  1  0
 14 15  2  0
 15 16  1  0
 16 17  1  0
 17 18  2  0
 18 19  1  0
 19 20  2  0
 20 21  1  0
 21 22  2  0
  7 23  1  0
 23 24  2  0
 24 25  1  0
 25 26  2  0
 26 27  1  0
 27 28  2  0
 15  9  1  0
 22 17  1  0
 28 23  1  0
M  END
