CVD-0003701|dock_bobby27042020.1|mol2|15|dock2
     RDKit          3D

 19 20  0  0  0  0  0  0  0  0999 V2000
   13.9381   -1.0561   24.2566 C   0  0  0  0  0  0  0  0  0  0  0  0
   12.6196   -0.5636   24.4590 O   0  0  0  0  0  0  0  0  0  0  0  0
   11.7628   -0.6851   23.3216 C   0  0  0  0  0  0  0  0  0  0  0  0
   10.7164    0.3938   23.3489 C   0  0  0  0  0  0  0  0  0  0  0  0
    9.6911    0.1730   22.2490 C   0  0  0  0  0  0  0  0  0  0  0  0
    9.0351   -1.2041   22.3389 C   0  0  0  0  0  0  0  0  0  0  0  0
   10.1362   -2.2711   22.2963 C   0  0  0  0  0  0  0  0  0  0  0  0
   11.1625   -2.0567   23.3892 C   0  0  0  0  0  0  0  0  0  0  0  0
   10.5589   -2.1891   24.6769 O   0  0  0  0  0  0  0  0  0  0  0  0
    7.9029   -1.4202   21.3325 C   0  0  0  0  0  0  0  0  0  0  0  0
    6.5778   -0.9742   21.9671 C   0  0  0  0  0  0  0  0  0  0  0  0
    5.4850   -1.1950   20.9204 C   0  0  0  0  0  0  0  0  0  0  0  0
    5.7698   -0.5047   19.6487 N   0  0  0  0  0  0  0  0  0  0  0  0
    7.0697   -0.9631   19.0912 C   0  0  0  0  0  0  0  0  0  0  0  0
    8.1748   -0.8127   20.0285 N   0  0  0  0  0  0  0  0  0  0  0  0
    5.6713    0.9483   19.6662 C   0  0  0  0  0  0  0  0  0  0  0  0
    4.4422    1.3820   20.4394 C   0  0  0  0  0  0  0  0  0  0  0  0
    5.6436    1.4912   18.2525 C   0  0  0  0  0  0  0  0  0  0  0  0
    6.7765    1.5214   20.3140 O   0  0  0  0  0  0  0  0  0  0  0  0
  1  2  1  0
  2  3  1  0
  3  4  1  0
  4  5  1  0
  5  6  1  0
  6  7  1  0
  7  8  1  0
  8  9  1  0
  6 10  1  0
 10 11  1  0
 11 12  1  0
 12 13  1  0
 13 14  1  0
 14 15  1  0
 13 16  1  0
 16 17  1  0
 16 18  1  0
 16 19  1  0
  8  3  1  0
 15 10  1  0
M  END
