CVD-0002969|dock_bobby27042020.3|mol2|36|dock2
     RDKit          3D

 28 29  0  0  0  0  0  0  0  0999 V2000
    7.1140    2.7265   21.9254 C   0  0  0  0  0  0  0  0  0  0  0  0
    7.4712    1.4478   21.2261 C   0  0  0  0  0  0  0  0  0  0  0  0
    8.1573    1.4342   20.2089 O   0  0  0  0  0  0  0  0  0  0  0  0
    6.9837    0.3264   21.7676 N   0  0  0  0  0  0  0  0  0  0  0  0
    7.2385   -0.9794   21.1815 C   0  0  0  0  0  0  0  0  0  0  0  0
    6.7878   -0.9904   19.7114 C   0  0  0  0  0  0  0  0  0  0  0  0
    5.8257    0.1153   19.3501 C   0  0  0  0  0  0  0  0  0  0  0  0
    4.7058    0.3647   20.1279 C   0  0  0  0  0  0  0  0  0  0  0  0
    3.8182    1.3744   19.8008 C   0  0  0  0  0  0  0  0  0  0  0  0
    4.0437    2.1545   18.6781 C   0  0  0  0  0  0  0  0  0  0  0  0
    3.1727    3.1520   18.3500 O   0  0  0  0  0  0  0  0  0  0  0  0
    5.1582    1.9159   17.8903 C   0  0  0  0  0  0  0  0  0  0  0  0
    6.0375    0.9029   18.2292 C   0  0  0  0  0  0  0  0  0  0  0  0
    8.7192   -1.3346   21.2969 C   0  0  0  0  0  0  0  0  0  0  0  0
    9.3796   -1.5610   20.2865 O   0  0  0  0  0  0  0  0  0  0  0  0
    9.2409   -1.3773   22.5230 N   0  0  0  0  0  0  0  0  0  0  0  0
   10.6384   -1.7034   22.7684 C   0  0  0  0  0  0  0  0  0  0  0  0
   11.3127   -0.6509   23.6257 C   0  0  0  0  0  0  0  0  0  0  0  0
   11.5327    0.6118   22.9081 N   0  0  0  0  0  0  0  0  0  0  0  0
   12.7234    1.2937   23.4240 C   0  0  0  0  0  0  0  0  0  0  0  0
   12.9696    2.5767   22.6519 C   0  0  0  0  0  0  0  0  0  0  0  0
   11.8036    3.4585   22.7399 N   0  0  0  0  0  0  0  0  0  0  0  0
   10.5830    2.7843   22.2865 C   0  0  0  0  0  0  0  0  0  0  0  0
   10.3771    1.4927   23.0567 C   0  0  0  0  0  0  0  0  0  0  0  0
   11.8835    4.7374   23.1627 C   0  0  0  0  0  0  0  0  0  0  0  0
   10.8924    5.4530   23.2333 O   0  0  0  0  0  0  0  0  0  0  0  0
   13.2549    5.2522   23.5563 C   0  0  0  0  0  0  0  0  0  0  0  0
   13.1836    6.9706   23.9687 Cl  0  0  0  0  0  0  0  0  0  0  0  0
  1  2  1  0
  2  3  2  0
  2  4  1  0
  4  5  1  0
  5  6  1  0
  6  7  1  0
  7  8  2  0
  8  9  1  0
  9 10  2  0
 10 11  1  0
 10 12  1  0
 12 13  2  0
  5 14  1  0
 14 15  2  0
 14 16  1  0
 16 17  1  0
 17 18  1  0
 18 19  1  0
 19 20  1  0
 20 21  1  0
 21 22  1  0
 22 23  1  0
 23 24  1  0
 22 25  1  0
 25 26  2  0
 25 27  1  0
 27 28  1  0
 13  7  1  0
 24 19  1  0
M  END
