CVD-0002423|dock_bobby27042020.63|mol2|22|dock2
     RDKit          3D

 25 28  0  0  0  0  0  0  0  0999 V2000
    8.1120   -3.5416   21.3854 C   0  0  0  0  0  0  0  0  0  0  0  0
    8.2239   -2.1884   21.8137 O   0  0  0  0  0  0  0  0  0  0  0  0
    9.5557   -1.7390   22.0964 C   0  0  0  0  0  0  0  0  0  0  0  0
    9.9258   -1.7992   23.5734 C   0  0  0  0  0  0  0  0  0  0  0  0
   11.2854   -1.1931   23.8613 C   0  0  0  0  0  0  0  0  0  0  0  0
   11.3738    0.1947   23.3917 N   0  0  0  0  0  0  0  0  0  0  0  0
   12.6754    0.7760   23.7270 C   0  0  0  0  0  0  0  0  0  0  0  0
   12.8080    2.2353   23.3708 C   0  0  0  0  0  0  0  0  0  0  0  0
   13.9219    2.8093   22.7101 C   0  0  0  0  0  0  0  0  0  0  0  0
   13.8180    4.1486   22.4847 C   0  0  0  0  0  0  0  0  0  0  0  0
   12.3361    4.7173   23.0886 S   0  0  0  0  0  0  0  0  0  0  0  0
   11.8608    3.1782   23.6329 C   0  0  0  0  0  0  0  0  0  0  0  0
   11.1326    0.2329   21.9468 C   0  0  0  0  0  0  0  0  0  0  0  0
    9.7533   -0.3079   21.6088 C   0  0  0  0  0  0  0  0  0  0  0  0
    6.6409   -3.8341   21.0840 C   0  0  0  0  0  0  0  0  0  0  0  0
    5.7925   -3.8039   22.3873 C   0  0  0  0  0  0  0  0  0  0  0  0
    5.4459   -5.2209   22.7104 C   0  0  0  0  0  0  0  0  0  0  0  0
    5.8833   -6.0625   21.6050 C   0  0  0  0  0  0  0  0  0  0  0  0
    6.5071   -5.2707   20.5305 C   0  0  0  0  0  0  0  0  0  0  0  0
    6.2257   -2.8134   20.0596 C   0  0  0  0  0  0  0  0  0  0  0  0
    5.7903   -1.5501   20.4272 C   0  0  0  0  0  0  0  0  0  0  0  0
    5.4209   -0.6635   19.4304 C   0  0  0  0  0  0  0  0  0  0  0  0
    5.4932   -1.0539   18.1109 C   0  0  0  0  0  0  0  0  0  0  0  0
    5.9360   -2.3278   17.8373 C   0  0  0  0  0  0  0  0  0  0  0  0
    6.2991   -3.2049   18.7824 N   0  0  0  0  0  0  0  0  0  0  0  0
  1  2  1  0
  2  3  1  0
  3  4  1  0
  4  5  1  0
  5  6  1  0
  6  7  1  0
  7  8  1  0
  8  9  1  0
  9 10  2  0
 10 11  1  0
 11 12  1  0
  6 13  1  0
 13 14  1  0
  1 15  1  0
 15 16  1  0
 16 17  1  0
 17 18  1  0
 18 19  1  0
 15 20  1  0
 20 21  2  0
 21 22  1  0
 22 23  2  0
 23 24  1  0
 24 25  2  0
 14  3  1  0
 19 15  1  0
 25 20  1  0
 12  8  2  0
M  END
