CVD-0000478|dock_bobby27042020.12|mol2|45|dock3
     RDKit          3D

 18 20  0  0  0  0  0  0  0  0999 V2000
   13.7138   -2.1510   21.1283 C   0  0  0  0  0  0  0  0  0  0  0  0
   12.9711   -1.4891   22.2588 C   0  0  0  0  0  0  0  0  0  0  0  0
   13.5677   -1.3133   23.5060 C   0  0  0  0  0  0  0  0  0  0  0  0
   12.8946   -0.7019   24.5545 C   0  0  0  0  0  0  0  0  0  0  0  0
   11.5960   -0.2402   24.3969 C   0  0  0  0  0  0  0  0  0  0  0  0
   10.9759   -0.4021   23.1585 C   0  0  0  0  0  0  0  0  0  0  0  0
    9.7048   -0.0414   22.7247 N   0  0  0  0  0  0  0  0  0  0  0  0
    9.6452   -0.4346   21.4566 C   0  0  0  0  0  0  0  0  0  0  0  0
   10.8018   -1.0291   21.0419 N   0  0  0  0  0  0  0  0  0  0  0  0
   11.6665   -1.0195   22.1139 C   0  0  0  0  0  0  0  0  0  0  0  0
    8.4639   -0.2504   20.5932 C   0  0  0  0  0  0  0  0  0  0  0  0
    8.2032   -1.2170   19.6213 C   0  0  0  0  0  0  0  0  0  0  0  0
    7.1136   -1.1082   18.7776 C   0  0  0  0  0  0  0  0  0  0  0  0
    6.2611   -0.0236   18.8928 C   0  0  0  0  0  0  0  0  0  0  0  0
    5.1842    0.0887   18.0627 O   0  0  0  0  0  0  0  0  0  0  0  0
    6.4983    0.9509   19.8509 C   0  0  0  0  0  0  0  0  0  0  0  0
    7.5882    0.8510   20.7018 C   0  0  0  0  0  0  0  0  0  0  0  0
    7.7420    1.8527   21.6097 O   0  0  0  0  0  0  0  0  0  0  0  0
  1  2  1  0
  2  3  2  0
  3  4  1  0
  4  5  2  0
  5  6  1  0
  6  7  1  0
  7  8  2  0
  8  9  1  0
  9 10  1  0
  8 11  1  0
 11 12  2  0
 12 13  1  0
 13 14  2  0
 14 15  1  0
 14 16  1  0
 16 17  2  0
 17 18  1  0
 10  2  1  0
 17 11  1  0
 10  6  2  0
M  END
