CVD-0003267|dock_bobby27042020.2|mol2|33|dock2
     RDKit          3D

 43 45  0  0  0  0  0  0  0  0999 V2000
    9.4805   -6.8332   24.4442 N   0  0  0  0  0  0  0  0  0  0  0  0
    9.1406   -5.7979   25.4409 C   0  0  0  0  0  0  0  0  0  0  0  0
   10.3456   -5.2772   26.1438 C   0  0  0  0  0  0  0  0  0  0  0  0
    9.9160   -4.1573   26.9089 O   0  0  0  0  0  0  0  0  0  0  0  0
    8.4373   -4.6452   24.7394 C   0  0  0  0  0  0  0  0  0  0  0  0
    7.3437   -4.2485   25.1332 O   0  0  0  0  0  0  0  0  0  0  0  0
    9.0745   -4.1094   23.6946 N   0  0  0  0  0  0  0  0  0  0  0  0
    8.5190   -2.9878   22.9550 C   0  0  0  0  0  0  0  0  0  0  0  0
    7.0854   -3.3152   22.5148 C   0  0  0  0  0  0  0  0  0  0  0  0
    6.7083   -2.8046   21.1564 C   0  0  0  0  0  0  0  0  0  0  0  0
    6.8168   -3.4786   19.9759 C   0  0  0  0  0  0  0  0  0  0  0  0
    6.3760   -2.7013   18.9401 N   0  0  0  0  0  0  0  0  0  0  0  0
    5.9647   -1.4893   19.4377 C   0  0  0  0  0  0  0  0  0  0  0  0
    5.4426   -0.3712   18.7965 C   0  0  0  0  0  0  0  0  0  0  0  0
    5.1021    0.7322   19.5617 C   0  0  0  0  0  0  0  0  0  0  0  0
    5.2775    0.7209   20.9306 C   0  0  0  0  0  0  0  0  0  0  0  0
    5.7995   -0.3918   21.5711 C   0  0  0  0  0  0  0  0  0  0  0  0
    6.1557   -1.5194   20.8324 C   0  0  0  0  0  0  0  0  0  0  0  0
    8.5664   -1.7147   23.7954 C   0  0  0  0  0  0  0  0  0  0  0  0
    8.2002   -1.7309   24.9675 O   0  0  0  0  0  0  0  0  0  0  0  0
    9.0287   -0.6141   23.1951 N   0  0  0  0  0  0  0  0  0  0  0  0
    9.1985    0.6356   23.9181 C   0  0  0  0  0  0  0  0  0  0  0  0
   10.4936    0.5992   24.7437 C   0  0  0  0  0  0  0  0  0  0  0  0
   11.7421    0.6148   23.8956 C   0  0  0  0  0  0  0  0  0  0  0  0
   12.4881    1.7746   23.7540 C   0  0  0  0  0  0  0  0  0  0  0  0
   13.6355    1.7885   22.9785 C   0  0  0  0  0  0  0  0  0  0  0  0
   14.0507    0.6418   22.3362 C   0  0  0  0  0  0  0  0  0  0  0  0
   13.3189   -0.5184   22.4698 C   0  0  0  0  0  0  0  0  0  0  0  0
   12.1716   -0.5318   23.2454 C   0  0  0  0  0  0  0  0  0  0  0  0
    9.2364    1.8186   22.9551 C   0  0  0  0  0  0  0  0  0  0  0  0
    9.3737    1.6343   21.7486 O   0  0  0  0  0  0  0  0  0  0  0  0
    9.1144    3.0344   23.4956 N   0  0  0  0  0  0  0  0  0  0  0  0
    9.1312    4.2377   22.6800 C   0  0  0  0  0  0  0  0  0  0  0  0
    7.8175    5.0059   22.8538 C   0  0  0  0  0  0  0  0  0  0  0  0
    7.5403    6.0463   21.7770 C   0  0  0  0  0  0  0  0  0  0  0  0
    6.4639    7.0268   22.2000 C   0  0  0  0  0  0  0  0  0  0  0  0
    5.8690    7.7126   21.0618 N   0  0  0  0  0  0  0  0  0  0  0  0
    5.6755    9.0231   20.9965 C   0  0  0  0  0  0  0  0  0  0  0  0
    5.1201    9.5518   19.9027 N   0  0  0  0  0  0  0  0  0  0  0  0
    6.0256    9.8098   21.9999 N   0  0  0  0  0  0  0  0  0  0  0  0
   10.3189    5.1039   23.0721 C   0  0  0  0  0  0  0  0  0  0  0  0
   11.4447    4.7298   22.5194 O   0  0  0  0  0  0  0  0  0  0  0  0
   10.2174    6.0435   23.8298 O   0  0  0  0  0  0  0  0  0  0  0  0
  2  1  1  0
  2  3  1  0
  3  4  1  0
  2  5  1  0
  5  6  2  0
  5  7  1  0
  7  8  1  0
  8  9  1  0
  9 10  1  0
 10 11  2  0
 11 12  1  0
 12 13  1  0
 13 14  2  0
 14 15  1  0
 15 16  2  0
 16 17  1  0
 17 18  2  0
  8 19  1  0
 19 20  2  0
 19 21  1  0
 21 22  1  0
 22 23  1  0
 23 24  1  0
 24 25  2  0
 25 26  1  0
 26 27  2  0
 27 28  1  0
 28 29  2  0
 22 30  1  0
 30 31  2  0
 30 32  1  0
 32 33  1  0
 33 34  1  0
 34 35  1  0
 35 36  1  0
 36 37  1  0
 37 38  1  0
 38 39  1  0
 38 40  2  0
 33 41  1  0
 41 42  1  0
 41 43  2  0
 18 10  1  0
 29 24  1  0
 18 13  1  0
M  END
