CVD-0002012|dock_bobby27042020.79|mol2|11|dock3
     RDKit          3D

 19 21  0  0  0  0  0  0  0  0999 V2000
   13.9668   -2.2554   23.3676 C   0  0  0  0  0  0  0  0  0  0  0  0
   12.9086   -1.9987   22.2975 C   0  0  0  0  0  0  0  0  0  0  0  0
   13.5138   -2.1287   20.9132 C   0  0  0  0  0  0  0  0  0  0  0  0
   14.6133   -1.4344   20.7662 O   0  0  0  0  0  0  0  0  0  0  0  0
   13.0252   -2.8085   20.0376 O   0  0  0  0  0  0  0  0  0  0  0  0
   12.2930   -0.6113   22.4162 C   0  0  0  0  0  0  0  0  0  0  0  0
   10.9273   -0.4225   22.2454 C   0  0  0  0  0  0  0  0  0  0  0  0
   10.3053    0.7596   22.3293 N   0  0  0  0  0  0  0  0  0  0  0  0
   11.0859    1.8146   22.5976 C   0  0  0  0  0  0  0  0  0  0  0  0
   12.4753    1.7346   22.7867 C   0  0  0  0  0  0  0  0  0  0  0  0
   13.0910    0.4922   22.6929 C   0  0  0  0  0  0  0  0  0  0  0  0
   12.9894    2.9939   23.0460 N   0  0  0  0  0  0  0  0  0  0  0  0
   11.9592    3.8978   23.0303 C   0  0  0  0  0  0  0  0  0  0  0  0
   12.0673    5.2208   23.2406 N   0  0  0  0  0  0  0  0  0  0  0  0
   10.9220    5.9145   23.1774 C   0  0  0  0  0  0  0  0  0  0  0  0
    9.6938    5.3379   22.9151 C   0  0  0  0  0  0  0  0  0  0  0  0
    8.2640    6.3301   22.8547 Cl  0  0  0  0  0  0  0  0  0  0  0  0
    9.5837    3.9786   22.6992 C   0  0  0  0  0  0  0  0  0  0  0  0
   10.7493    3.2212   22.7561 C   0  0  0  0  0  0  0  0  0  0  0  0
  2  1  1  0
  2  3  1  0
  3  4  1  0
  3  5  2  0
  2  6  1  0
  6  7  2  0
  7  8  1  0
  8  9  2  0
  9 10  1  0
 10 11  2  0
 10 12  1  0
 12 13  1  0
 13 14  2  0
 14 15  1  0
 15 16  2  0
 16 17  1  0
 16 18  1  0
 18 19  2  0
 11  6  1  0
 19 13  1  0
 19  9  1  0
M  END
