CVD-0002004|dock_bobby27042020.93|mol2|19|dock2
     RDKit          3D

 19 21  0  0  0  0  0  0  0  0999 V2000
   13.0717   -2.5775   22.6401 C   0  0  0  0  0  0  0  0  0  0  0  0
   13.8097   -1.3445   23.1556 C   0  0  0  0  0  0  0  0  0  0  0  0
   14.2594   -1.5577   24.5881 C   0  0  0  0  0  0  0  0  0  0  0  0
   15.0506   -2.5906   24.7297 O   0  0  0  0  0  0  0  0  0  0  0  0
   13.9187   -0.8407   25.5031 O   0  0  0  0  0  0  0  0  0  0  0  0
   12.9428   -0.0936   23.1132 C   0  0  0  0  0  0  0  0  0  0  0  0
   11.5838   -0.1738   23.3971 C   0  0  0  0  0  0  0  0  0  0  0  0
   10.7681    0.9435   23.3644 C   0  0  0  0  0  0  0  0  0  0  0  0
   11.3284    2.1751   23.0375 C   0  0  0  0  0  0  0  0  0  0  0  0
   12.7053    2.2608   22.7478 C   0  0  0  0  0  0  0  0  0  0  0  0
   13.5136    1.1298   22.7844 C   0  0  0  0  0  0  0  0  0  0  0  0
   13.0424    3.5731   22.4511 N   0  0  0  0  0  0  0  0  0  0  0  0
   11.9211    4.3540   22.5384 C   0  0  0  0  0  0  0  0  0  0  0  0
   11.7910    5.6628   22.3356 N   0  0  0  0  0  0  0  0  0  0  0  0
   10.5692    6.1879   22.4877 N   0  0  0  0  0  0  0  0  0  0  0  0
    9.5732    5.3626   22.8309 C   0  0  0  0  0  0  0  0  0  0  0  0
    8.0143    6.1013   23.0129 Cl  0  0  0  0  0  0  0  0  0  0  0  0
    9.5933    4.0600   23.0545 N   0  0  0  0  0  0  0  0  0  0  0  0
   10.8108    3.5279   22.9044 C   0  0  0  0  0  0  0  0  0  0  0  0
  2  1  1  0
  2  3  1  0
  3  4  1  0
  3  5  2  0
  2  6  1  0
  6  7  2  0
  7  8  1  0
  8  9  2  0
  9 10  1  0
 10 11  2  0
 10 12  1  0
 12 13  1  0
 13 14  2  0
 14 15  1  0
 15 16  2  0
 16 17  1  0
 16 18  1  0
 18 19  2  0
 11  6  1  0
 19 13  1  0
 19  9  1  0
M  END
