CVD-0000368|dock_bobby27042020.98|mol2|41|dock2
     RDKit          3D

 29 31  0  0  0  0  0  0  0  0999 V2000
    0.7611    5.0359   18.9125 C   0  0  0  0  0  0  0  0  0  0  0  0
    1.1819    3.7666   19.5893 C   0  0  0  0  0  0  0  0  0  0  0  0
    2.4705    3.2746   19.4656 C   0  0  0  0  0  0  0  0  0  0  0  0
    2.7901    2.0910   20.1268 C   0  0  0  0  0  0  0  0  0  0  0  0
    1.8694    1.4300   20.8493 N   0  0  0  0  0  0  0  0  0  0  0  0
    0.6626    1.9939   20.8952 C   0  0  0  0  0  0  0  0  0  0  0  0
    0.2598    3.1234   20.3140 N   0  0  0  0  0  0  0  0  0  0  0  0
    4.1390    1.4579   20.0955 C   0  0  0  0  0  0  0  0  0  0  0  0
    4.5868    0.8164   21.2529 C   0  0  0  0  0  0  0  0  0  0  0  0
    5.8226    0.1952   21.2917 C   0  0  0  0  0  0  0  0  0  0  0  0
    6.6589    0.1868   20.1887 C   0  0  0  0  0  0  0  0  0  0  0  0
    8.0002   -0.5045   20.2364 C   0  0  0  0  0  0  0  0  0  0  0  0
    8.6548   -0.3971   21.5476 N   0  0  0  0  0  0  0  0  0  0  0  0
    9.1152    0.9751   21.7797 C   0  0  0  0  0  0  0  0  0  0  0  0
    9.7534    1.0899   23.1516 C   0  0  0  0  0  0  0  0  0  0  0  0
   10.8722    0.1530   23.2754 N   0  0  0  0  0  0  0  0  0  0  0  0
   10.4561   -1.2236   22.9897 C   0  0  0  0  0  0  0  0  0  0  0  0
    9.7980   -1.3028   21.6242 C   0  0  0  0  0  0  0  0  0  0  0  0
   12.1150    0.5397   23.6388 C   0  0  0  0  0  0  0  0  0  0  0  0
   12.3705    1.7108   23.8901 O   0  0  0  0  0  0  0  0  0  0  0  0
   13.2036   -0.5188   23.7519 C   0  0  0  0  0  0  0  0  0  0  0  0
   12.8736   -1.5568   24.6807 O   0  0  0  0  0  0  0  0  0  0  0  0
   13.7474   -2.5043   24.9387 C   0  0  0  0  0  0  0  0  0  0  0  0
   14.2095   -3.1264   23.8694 F   0  0  0  0  0  0  0  0  0  0  0  0
   13.2397   -3.4328   25.7284 F   0  0  0  0  0  0  0  0  0  0  0  0
   14.8059   -2.0208   25.5627 F   0  0  0  0  0  0  0  0  0  0  0  0
    6.2358    0.8253   19.0322 C   0  0  0  0  0  0  0  0  0  0  0  0
    5.0123    1.4439   19.0118 C   0  0  0  0  0  0  0  0  0  0  0  0
    4.6659    2.0704   17.8642 F   0  0  0  0  0  0  0  0  0  0  0  0
  1  2  1  0
  2  3  2  0
  3  4  1  0
  4  5  2  0
  5  6  1  0
  6  7  2  0
  4  8  1  0
  8  9  2  0
  9 10  1  0
 10 11  2  0
 11 12  1  0
 12 13  1  0
 13 14  1  0
 14 15  1  0
 15 16  1  0
 16 17  1  0
 17 18  1  0
 16 19  1  0
 19 20  2  0
 19 21  1  0
 21 22  1  0
 22 23  1  0
 23 24  1  0
 23 25  1  0
 23 26  1  0
 11 27  1  0
 27 28  2  0
 28 29  1  0
  7  2  1  0
 28  8  1  0
 18 13  1  0
M  END
