CVD-0003880|dock_bobby27042020.86|mol2|27|dock3
     RDKit          3D

 22 23  0  0  0  0  0  0  0  0999 V2000
   10.0571   -5.8584   26.0755 C   0  0  0  0  0  0  0  0  0  0  0  0
    9.0482   -4.7808   25.7109 C   0  0  0  0  0  0  0  0  0  0  0  0
    7.7322   -5.0395   26.4263 C   0  0  0  0  0  0  0  0  0  0  0  0
    8.8591   -4.6892   24.2342 N   0  0  0  0  0  0  0  0  0  0  0  0
    8.0671   -5.7566   23.6190 C   0  0  0  0  0  0  0  0  0  0  0  0
    8.3492   -3.3823   23.7740 C   0  0  0  0  0  0  0  0  0  0  0  0
    9.3726   -2.5448   23.0175 C   0  0  0  0  0  0  0  0  0  0  0  0
   10.5797   -2.1973   23.8958 C   0  0  0  0  0  0  0  0  0  0  0  0
   11.5807   -1.3742   23.1354 C   0  0  0  0  0  0  0  0  0  0  0  0
   10.9848   -0.1540   22.5830 N   0  0  0  0  0  0  0  0  0  0  0  0
    9.8008   -0.4199   21.7332 C   0  0  0  0  0  0  0  0  0  0  0  0
    8.7870   -1.2666   22.4726 C   0  0  0  0  0  0  0  0  0  0  0  0
   11.5938    1.0902   22.6749 C   0  0  0  0  0  0  0  0  0  0  0  0
   10.8412    2.2388   22.9003 C   0  0  0  0  0  0  0  0  0  0  0  0
   11.4426    3.4813   22.9946 C   0  0  0  0  0  0  0  0  0  0  0  0
   12.8153    3.5892   22.8605 C   0  0  0  0  0  0  0  0  0  0  0  0
   13.5838    2.4615   22.6326 C   0  0  0  0  0  0  0  0  0  0  0  0
   12.9729    1.2233   22.5444 C   0  0  0  0  0  0  0  0  0  0  0  0
   13.5888    5.1742   22.9704 S   0  0  0  0  0  0  0  0  0  0  0  0
   13.6937    5.7908   21.4967 N   0  0  0  0  0  0  0  0  0  0  0  0
   12.7167    6.0243   23.7240 O   0  0  0  0  0  0  0  0  0  0  0  0
   14.9262    4.9660   23.4385 O   0  0  0  0  0  0  0  0  0  0  0  0
  1  2  1  0
  2  3  1  0
  2  4  1  0
  4  5  1  0
  4  6  1  0
  6  7  1  0
  7  8  1  0
  8  9  1  0
  9 10  1  0
 10 11  1  0
 11 12  1  0
 10 13  1  0
 13 14  2  0
 14 15  1  0
 15 16  2  0
 16 17  1  0
 17 18  2  0
 16 19  1  0
 19 20  1  0
 19 21  2  0
 19 22  2  0
 12  7  1  0
 18 13  1  0
M  END
