CVD-0000140|dock_bobby27042020.85|mol2|23|dock3
     RDKit          3D

 20 21  0  0  0  0  0  0  0  0999 V2000
    2.1406    2.4372   20.9830 C   0  0  0  0  0  0  0  0  0  0  0  0
    3.5408    2.7078   21.0071 O   0  0  0  0  0  0  0  0  0  0  0  0
    4.4059    1.9598   20.2476 C   0  0  0  0  0  0  0  0  0  0  0  0
    4.0105    1.3827   19.0502 C   0  0  0  0  0  0  0  0  0  0  0  0
    4.9243    0.6383   18.3246 C   0  0  0  0  0  0  0  0  0  0  0  0
    6.2204    0.4648   18.7788 C   0  0  0  0  0  0  0  0  0  0  0  0
    6.6203    1.0428   19.9802 C   0  0  0  0  0  0  0  0  0  0  0  0
    7.9288    0.9093   20.5085 N   0  0  0  0  0  0  0  0  0  0  0  0
    8.9416    0.0390   20.1862 C   0  0  0  0  0  0  0  0  0  0  0  0
    8.8967   -0.8374   19.3281 O   0  0  0  0  0  0  0  0  0  0  0  0
   10.0506    0.2659   20.9582 N   0  0  0  0  0  0  0  0  0  0  0  0
   11.3453    0.1805   21.5254 C   0  0  0  0  0  0  0  0  0  0  0  0
   11.9699   -1.0420   21.7747 C   0  0  0  0  0  0  0  0  0  0  0  0
   13.2384   -1.0705   22.3314 C   0  0  0  0  0  0  0  0  0  0  0  0
   13.8974    0.1055   22.6453 C   0  0  0  0  0  0  0  0  0  0  0  0
   13.2823    1.3272   22.4001 C   0  0  0  0  0  0  0  0  0  0  0  0
   12.0076    1.3622   21.8407 C   0  0  0  0  0  0  0  0  0  0  0  0
   13.9582    2.5597   22.7225 C   0  0  0  0  0  0  0  0  0  0  0  0
   14.4656    3.5469   22.9922 N   0  0  0  0  0  0  0  0  0  0  0  0
    5.7016    1.7909   20.7089 C   0  0  0  0  0  0  0  0  0  0  0  0
  1  2  1  0
  2  3  1  0
  3  4  2  0
  4  5  1  0
  5  6  2  0
  6  7  1  0
  7  8  1  0
  8  9  1  0
  9 10  2  0
  9 11  1  0
 11 12  1  0
 12 13  2  0
 13 14  1  0
 14 15  2  0
 15 16  1  0
 16 17  2  0
 16 18  1  0
 18 19  3  0
  7 20  2  0
 20  3  1  0
 17 12  1  0
M  END
