CVD-0000029|dock_bobby27042020.43|mol2|9|dock1
     RDKit          3D

 36 39  0  0  0  0  0  0  0  0999 V2000
    8.8649   -3.6617   26.3074 C   0  0  0  0  0  0  0  0  0  0  0  0
    9.1785   -4.8274   25.3705 C   0  0  0  0  0  0  0  0  0  0  0  0
   10.6866   -5.0738   25.3557 C   0  0  0  0  0  0  0  0  0  0  0  0
    8.6669   -4.5493   23.9785 C   0  0  0  0  0  0  0  0  0  0  0  0
    7.8234   -5.4281   23.3257 C   0  0  0  0  0  0  0  0  0  0  0  0
    7.4329   -5.0552   22.0574 C   0  0  0  0  0  0  0  0  0  0  0  0
    7.8271   -3.9212   21.4648 N   0  0  0  0  0  0  0  0  0  0  0  0
    8.6453   -3.1313   22.1711 C   0  0  0  0  0  0  0  0  0  0  0  0
    9.0806   -3.4065   23.4111 N   0  0  0  0  0  0  0  0  0  0  0  0
    9.0758   -1.9691   21.6186 N   0  0  0  0  0  0  0  0  0  0  0  0
   10.5047   -1.6610   21.7736 C   0  0  0  0  0  0  0  0  0  0  0  0
   10.6787   -0.5176   22.7400 C   0  0  0  0  0  0  0  0  0  0  0  0
   10.4679   -0.7652   24.0350 N   0  0  0  0  0  0  0  0  0  0  0  0
   10.6352    0.2851   24.8497 C   0  0  0  0  0  0  0  0  0  0  0  0
   10.9980    1.5542   24.4371 C   0  0  0  0  0  0  0  0  0  0  0  0
   11.1857    1.6732   23.0622 C   0  0  0  0  0  0  0  0  0  0  0  0
   11.0302    0.6495   22.2024 N   0  0  0  0  0  0  0  0  0  0  0  0
   11.5669    2.9392   22.4816 C   0  0  0  0  0  0  0  0  0  0  0  0
   11.9251    3.9554   22.0062 C   0  0  0  0  0  0  0  0  0  0  0  0
    8.3146   -0.9995   20.9518 C   0  0  0  0  0  0  0  0  0  0  0  0
    8.8810   -0.1302   20.3008 O   0  0  0  0  0  0  0  0  0  0  0  0
    6.9474   -1.0477   21.0336 N   0  0  0  0  0  0  0  0  0  0  0  0
    6.0443   -0.1290   20.3985 C   0  0  0  0  0  0  0  0  0  0  0  0
    5.4396   -0.3777   19.1543 C   0  0  0  0  0  0  0  0  0  0  0  0
    5.7943   -1.5375   18.2704 C   0  0  0  0  0  0  0  0  0  0  0  0
    4.5091    0.4511   18.6768 N   0  0  0  0  0  0  0  0  0  0  0  0
    4.2411    1.5866   19.3314 C   0  0  0  0  0  0  0  0  0  0  0  0
    4.8563    1.9448   20.5110 C   0  0  0  0  0  0  0  0  0  0  0  0
    5.7803    1.0713   21.0725 C   0  0  0  0  0  0  0  0  0  0  0  0
    6.4668    1.4230   22.3723 C   0  0  0  0  0  0  0  0  0  0  0  0
    6.0668    0.5606   23.4939 N   0  0  0  0  0  0  0  0  0  0  0  0
    5.0064    1.1841   24.2903 C   0  0  0  0  0  0  0  0  0  0  0  0
    4.6241    0.2815   25.4168 C   0  0  0  0  0  0  0  0  0  0  0  0
    5.7313    0.0057   26.2670 O   0  0  0  0  0  0  0  0  0  0  0  0
    6.7724   -0.5925   25.5130 C   0  0  0  0  0  0  0  0  0  0  0  0
    7.2032    0.2749   24.3685 C   0  0  0  0  0  0  0  0  0  0  0  0
  1  2  1  0
  2  3  1  0
  2  4  1  0
  4  5  2  0
  5  6  1  0
  6  7  2  0
  7  8  1  0
  8  9  2  0
  8 10  1  0
 10 11  1  0
 11 12  1  0
 12 13  2  0
 13 14  1  0
 14 15  2  0
 15 16  1  0
 16 17  2  0
 16 18  1  0
 18 19  3  0
 10 20  1  0
 20 21  2  0
 20 22  1  0
 22 23  1  0
 23 24  2  0
 24 25  1  0
 24 26  1  0
 26 27  2  0
 27 28  1  0
 28 29  2  0
 29 30  1  0
 30 31  1  0
 31 32  1  0
 32 33  1  0
 33 34  1  0
 34 35  1  0
 35 36  1  0
  9  4  1  0
 17 12  1  0
 29 23  1  0
 36 31  1  0
M  END
