CVD-0001837|dock_bobby27042020.37|mol2|4|dock2
     RDKit          3D

 26 29  0  0  0  0  0  0  0  0999 V2000
    6.1207   -7.0857   22.0205 Cl  0  0  0  0  0  0  0  0  0  0  0  0
    7.0440   -5.7017   22.5031 C   0  0  0  0  0  0  0  0  0  0  0  0
    8.1540   -5.6697   23.3666 C   0  0  0  0  0  0  0  0  0  0  0  0
    8.6023   -4.4337   23.5081 N   0  0  0  0  0  0  0  0  0  0  0  0
    7.7875   -3.6759   22.7278 N   0  0  0  0  0  0  0  0  0  0  0  0
    7.9804   -2.2254   22.6616 C   0  0  0  0  0  0  0  0  0  0  0  0
    8.6493   -1.8132   21.3589 C   0  0  0  0  0  0  0  0  0  0  0  0
    8.7808   -0.3510   21.2207 N   0  0  0  0  0  0  0  0  0  0  0  0
    7.8209    0.4874   20.7167 C   0  0  0  0  0  0  0  0  0  0  0  0
    8.2413    1.7313   20.7327 N   0  0  0  0  0  0  0  0  0  0  0  0
    9.5201    1.7395   21.2775 N   0  0  0  0  0  0  0  0  0  0  0  0
    9.8179    0.4945   21.5768 C   0  0  0  0  0  0  0  0  0  0  0  0
   11.0211    0.1623   22.1633 N   0  0  0  0  0  0  0  0  0  0  0  0
   11.8948    1.2712   22.5194 C   0  0  0  0  0  0  0  0  0  0  0  0
   12.6190    1.0072   23.8206 C   0  0  0  0  0  0  0  0  0  0  0  0
   13.3473   -0.2558   23.7526 N   0  0  0  0  0  0  0  0  0  0  0  0
   12.6959   -1.3606   23.3277 C   0  0  0  0  0  0  0  0  0  0  0  0
   13.0644   -2.4945   23.6179 O   0  0  0  0  0  0  0  0  0  0  0  0
   11.4579   -1.1907   22.4741 C   0  0  0  0  0  0  0  0  0  0  0  0
    6.4495    0.1311   20.2002 C   0  0  0  0  0  0  0  0  0  0  0  0
    6.5030   -0.2130   18.7088 C   0  0  0  0  0  0  0  0  0  0  0  0
    5.3869    0.6334   18.1008 C   0  0  0  0  0  0  0  0  0  0  0  0
    5.0486    1.6543   19.0991 C   0  0  0  0  0  0  0  0  0  0  0  0
    4.4283    2.7070   18.9849 O   0  0  0  0  0  0  0  0  0  0  0  0
    5.5276    1.2470   20.2733 N   0  0  0  0  0  0  0  0  0  0  0  0
    6.8358   -4.4057   22.1191 C   0  0  0  0  0  0  0  0  0  0  0  0
  1  2  1  0
  2  3  1  0
  3  4  2  0
  4  5  1  0
  5  6  1  0
  6  7  1  0
  7  8  1  0
  8  9  1  0
  9 10  2  0
 10 11  1  0
 11 12  2  0
 12 13  1  0
 13 14  1  0
 14 15  1  0
 15 16  1  0
 16 17  1  0
 17 18  2  0
 17 19  1  0
  9 20  1  0
 20 21  1  0
 21 22  1  0
 22 23  1  0
 23 24  2  0
 23 25  1  0
  5 26  1  0
 26  2  2  0
 12  8  1  0
 19 13  1  0
 25 20  1  0
M  END
