CVD-0003745|dock_bobby27042020.15|mol2|35|dock1
     RDKit          3D

 28 31  0  0  0  0  0  0  0  0999 V2000
    3.9596    1.6638   21.4135 O   0  0  0  0  0  0  0  0  0  0  0  0
    5.3761    1.7113   21.4227 C   0  0  0  0  0  0  0  0  0  0  0  0
    5.9918    1.1626   20.1568 C   0  0  0  0  0  0  0  0  0  0  0  0
    5.5386    1.6168   18.9207 C   0  0  0  0  0  0  0  0  0  0  0  0
    6.1200    1.1349   17.7661 C   0  0  0  0  0  0  0  0  0  0  0  0
    7.1103    0.2447   17.7559 N   0  0  0  0  0  0  0  0  0  0  0  0
    7.5343   -0.2012   18.9412 C   0  0  0  0  0  0  0  0  0  0  0  0
    7.0234    0.2059   20.1732 C   0  0  0  0  0  0  0  0  0  0  0  0
    7.6256   -0.4153   21.3879 C   0  0  0  0  0  0  0  0  0  0  0  0
    9.0017   -0.4130   21.5957 C   0  0  0  0  0  0  0  0  0  0  0  0
    9.5482   -1.0002   22.7311 C   0  0  0  0  0  0  0  0  0  0  0  0
    8.6664   -1.5776   23.6364 C   0  0  0  0  0  0  0  0  0  0  0  0
    7.3139   -1.5446   23.3658 C   0  0  0  0  0  0  0  0  0  0  0  0
    6.7855   -0.9827   22.2716 N   0  0  0  0  0  0  0  0  0  0  0  0
   11.0624   -1.0022   22.9516 C   0  0  0  0  0  0  0  0  0  0  0  0
   11.8638   -1.7249   21.8696 C   0  0  0  0  0  0  0  0  0  0  0  0
   13.3556   -1.6399   22.1399 C   0  0  0  0  0  0  0  0  0  0  0  0
   13.7039   -2.1661   23.5171 C   0  0  0  0  0  0  0  0  0  0  0  0
   12.9161   -1.4413   24.5958 C   0  0  0  0  0  0  0  0  0  0  0  0
   11.4195   -1.5260   24.3387 C   0  0  0  0  0  0  0  0  0  0  0  0
   11.3414    0.4427   22.8647 C   0  0  0  0  0  0  0  0  0  0  0  0
   11.6280    1.6000   22.8057 C   0  0  0  0  0  0  0  0  0  0  0  0
   12.0542    2.9741   22.7703 C   0  0  0  0  0  0  0  0  0  0  0  0
   11.1182    4.0006   22.8468 C   0  0  0  0  0  0  0  0  0  0  0  0
   11.5742    5.3065   22.8089 C   0  0  0  0  0  0  0  0  0  0  0  0
   12.9253    5.5533   22.6979 C   0  0  0  0  0  0  0  0  0  0  0  0
   13.7801    4.4766   22.6281 C   0  0  0  0  0  0  0  0  0  0  0  0
   13.3775    3.1990   22.6616 N   0  0  0  0  0  0  0  0  0  0  0  0
  1  2  1  0
  2  3  1  0
  3  4  2  0
  4  5  1  0
  5  6  2  0
  6  7  1  0
  7  8  2  0
  8  9  1  0
  9 10  2  0
 10 11  1  0
 11 12  2  0
 12 13  1  0
 13 14  2  0
 11 15  1  0
 15 16  1  0
 16 17  1  0
 17 18  1  0
 18 19  1  0
 19 20  1  0
 15 21  1  0
 21 22  3  0
 22 23  1  0
 23 24  2  0
 24 25  1  0
 25 26  2  0
 26 27  1  0
 27 28  2  0
  8  3  1  0
 14  9  1  0
 20 15  1  0
 28 23  1  0
M  END
