CVD-0003165|dock_bobby27042020.60|mol2|35|dock2
     RDKit          3D

 21 23  0  0  0  0  0  0  0  0999 V2000
   12.7508    5.2021   24.6032 O   0  0  0  0  0  0  0  0  0  0  0  0
   13.0044    5.2802   23.4041 C   0  0  0  0  0  0  0  0  0  0  0  0
   14.0508    5.9206   22.8766 N   0  0  0  0  0  0  0  0  0  0  0  0
   14.1050    5.9181   21.4271 C   0  0  0  0  0  0  0  0  0  0  0  0
   13.1067    4.8324   21.0468 C   0  0  0  0  0  0  0  0  0  0  0  0
   12.2205    4.6329   22.2924 C   0  0  0  0  0  0  0  0  0  0  0  0
   11.8674    3.1849   22.5971 C   0  0  0  0  0  0  0  0  0  0  0  0
   10.5584    2.7374   22.4984 C   0  0  0  0  0  0  0  0  0  0  0  0
   10.2567    1.4158   22.7843 C   0  0  0  0  0  0  0  0  0  0  0  0
    8.8391    0.9024   22.6874 C   0  0  0  0  0  0  0  0  0  0  0  0
    8.5288    0.2783   21.3422 C   0  0  0  0  0  0  0  0  0  0  0  0
    7.7462    0.9469   20.4136 C   0  0  0  0  0  0  0  0  0  0  0  0
    7.4650    0.3782   19.1826 C   0  0  0  0  0  0  0  0  0  0  0  0
    7.9643   -0.8665   18.8650 C   0  0  0  0  0  0  0  0  0  0  0  0
    8.7449   -1.5418   19.7782 C   0  0  0  0  0  0  0  0  0  0  0  0
    9.0255   -0.9724   21.0090 C   0  0  0  0  0  0  0  0  0  0  0  0
   11.1841    0.5235   23.1638 N   0  0  0  0  0  0  0  0  0  0  0  0
   12.4528    0.9642   23.2582 C   0  0  0  0  0  0  0  0  0  0  0  0
   12.8336    2.2705   22.9871 C   0  0  0  0  0  0  0  0  0  0  0  0
   13.4384   -0.0167   23.6691 C   0  0  0  0  0  0  0  0  0  0  0  0
   14.1864   -0.8127   24.0029 N   0  0  0  0  0  0  0  0  0  0  0  0
  1  2  2  0
  2  3  1  0
  3  4  1  0
  4  5  1  0
  5  6  1  0
  6  7  1  0
  7  8  2  0
  8  9  1  0
  9 10  1  0
 10 11  1  0
 11 12  2  0
 12 13  1  0
 13 14  2  0
 14 15  1  0
 15 16  2  0
  9 17  2  0
 17 18  1  0
 18 19  2  0
 18 20  1  0
 20 21  3  0
  6  2  1  0
 19  7  1  0
 16 11  1  0
M  END
