CVD-0003181|dock_bobby27042020.31|mol2|38|dock1
     RDKit          3D

 25 27  0  0  0  0  0  0  0  0999 V2000
    5.8501    0.9374   18.4112 C   0  0  0  0  0  0  0  0  0  0  0  0
    5.3658   -0.0022   19.4161 N   0  0  0  0  0  0  0  0  0  0  0  0
    5.6174   -1.3673   18.9689 C   0  0  0  0  0  0  0  0  0  0  0  0
    6.0036    0.2390   20.7084 C   0  0  0  0  0  0  0  0  0  0  0  0
    5.8923    1.6768   21.1857 C   0  0  0  0  0  0  0  0  0  0  0  0
    6.3334    1.8586   22.6128 C   0  0  0  0  0  0  0  0  0  0  0  0
    5.7816    2.7830   23.3838 C   0  0  0  0  0  0  0  0  0  0  0  0
    7.4089    0.8910   23.0387 C   0  0  0  0  0  0  0  0  0  0  0  0
    7.0459   -0.2643   23.2280 O   0  0  0  0  0  0  0  0  0  0  0  0
    8.7134    1.1909   23.2170 N   0  0  0  0  0  0  0  0  0  0  0  0
    9.8295    0.3081   23.6367 C   0  0  0  0  0  0  0  0  0  0  0  0
   11.0123    0.4809   22.7428 C   0  0  0  0  0  0  0  0  0  0  0  0
   12.1529   -0.4544   23.1387 C   0  0  0  0  0  0  0  0  0  0  0  0
   12.5866   -1.4711   22.2956 C   0  0  0  0  0  0  0  0  0  0  0  0
   13.6133   -2.3200   22.6746 C   0  0  0  0  0  0  0  0  0  0  0  0
   14.2263   -2.1656   23.8987 C   0  0  0  0  0  0  0  0  0  0  0  0
   13.8137   -1.1591   24.7438 C   0  0  0  0  0  0  0  0  0  0  0  0
   12.7874   -0.3093   24.3666 C   0  0  0  0  0  0  0  0  0  0  0  0
   11.4664    1.9180   22.7677 C   0  0  0  0  0  0  0  0  0  0  0  0
   12.8089    2.2714   22.6376 C   0  0  0  0  0  0  0  0  0  0  0  0
   13.2126    3.5935   22.5924 C   0  0  0  0  0  0  0  0  0  0  0  0
   12.2699    4.5949   22.6772 C   0  0  0  0  0  0  0  0  0  0  0  0
   10.9324    4.2656   22.8066 C   0  0  0  0  0  0  0  0  0  0  0  0
   10.5233    2.9369   22.8525 C   0  0  0  0  0  0  0  0  0  0  0  0
    9.0310    2.5949   22.8935 C   0  0  0  0  0  0  0  0  0  0  0  0
  1  2  1  0
  2  3  1  0
  2  4  1  0
  4  5  1  0
  5  6  1  0
  6  7  2  0
  6  8  1  0
  8  9  2  0
  8 10  1  0
 10 11  1  0
 11 12  1  0
 12 13  1  0
 13 14  2  0
 14 15  1  0
 15 16  2  0
 16 17  1  0
 17 18  2  0
 12 19  1  0
 19 20  2  0
 20 21  1  0
 21 22  2  0
 22 23  1  0
 23 24  2  0
 24 25  1  0
 25 10  1  0
 18 13  1  0
 24 19  1  0
M  END
