CVD-0002043|dock_bobby27042020.79|mol2|6|dock2
     RDKit          3D

 26 28  0  0  0  0  0  0  0  0999 V2000
    5.7477   -0.9565   18.9786 C   0  0  0  0  0  0  0  0  0  0  0  0
    6.0266   -2.3877   19.3329 C   0  0  0  0  0  0  0  0  0  0  0  0
    5.6704   -3.3012   18.5961 O   0  0  0  0  0  0  0  0  0  0  0  0
    6.6774   -2.5451   20.5147 N   0  0  0  0  0  0  0  0  0  0  0  0
    7.1044   -3.7205   21.1882 C   0  0  0  0  0  0  0  0  0  0  0  0
    6.5609   -4.9812   20.9513 C   0  0  0  0  0  0  0  0  0  0  0  0
    6.9263   -6.0830   21.6122 N   0  0  0  0  0  0  0  0  0  0  0  0
    7.8398   -5.9550   22.5710 C   0  0  0  0  0  0  0  0  0  0  0  0
    8.4633   -4.7651   22.8787 C   0  0  0  0  0  0  0  0  0  0  0  0
    8.1230   -3.6218   22.1566 C   0  0  0  0  0  0  0  0  0  0  0  0
    8.8870   -2.3811   22.4808 C   0  0  0  0  0  0  0  0  0  0  0  0
    9.0209   -1.9617   23.7990 C   0  0  0  0  0  0  0  0  0  0  0  0
    9.7304   -0.8188   24.1210 C   0  0  0  0  0  0  0  0  0  0  0  0
   10.3358   -0.0524   23.1323 C   0  0  0  0  0  0  0  0  0  0  0  0
   11.0461    1.1071   23.5352 N   0  0  0  0  0  0  0  0  0  0  0  0
   11.3894    2.2405   22.8342 C   0  0  0  0  0  0  0  0  0  0  0  0
   11.1112    2.4392   21.6561 O   0  0  0  0  0  0  0  0  0  0  0  0
   12.0862    3.1250   23.6251 N   0  0  0  0  0  0  0  0  0  0  0  0
   12.6287    4.3998   23.3244 C   0  0  0  0  0  0  0  0  0  0  0  0
   12.6424    5.4769   24.2058 C   0  0  0  0  0  0  0  0  0  0  0  0
   13.2010    6.6769   23.8003 C   0  0  0  0  0  0  0  0  0  0  0  0
   13.7281    6.7700   22.5330 C   0  0  0  0  0  0  0  0  0  0  0  0
   13.7297    5.7569   21.6671 N   0  0  0  0  0  0  0  0  0  0  0  0
   13.1883    4.6032   22.0681 C   0  0  0  0  0  0  0  0  0  0  0  0
   10.2102   -0.4664   21.8084 C   0  0  0  0  0  0  0  0  0  0  0  0
    9.4981   -1.6113   21.4963 C   0  0  0  0  0  0  0  0  0  0  0  0
  1  2  1  0
  2  3  2  0
  2  4  1  0
  4  5  1  0
  5  6  2  0
  6  7  1  0
  7  8  2  0
  8  9  1  0
  9 10  2  0
 10 11  1  0
 11 12  2  0
 12 13  1  0
 13 14  2  0
 14 15  1  0
 15 16  1  0
 16 17  2  0
 16 18  1  0
 18 19  1  0
 19 20  2  0
 20 21  1  0
 21 22  2  0
 22 23  1  0
 23 24  2  0
 14 25  1  0
 25 26  2  0
 10  5  1  0
 26 11  1  0
 24 19  1  0
M  END
