CVD-0001220|dock_bobby27042020.96|mol2|6|dock3
     RDKit          3D

 24 26  0  0  0  0  0  0  0  0999 V2000
   14.0285    5.9410   21.7954 C   0  0  0  0  0  0  0  0  0  0  0  0
   12.7366    5.4857   22.1932 O   0  0  0  0  0  0  0  0  0  0  0  0
   12.4805    4.1417   22.3035 C   0  0  0  0  0  0  0  0  0  0  0  0
   11.1615    3.7311   22.3923 C   0  0  0  0  0  0  0  0  0  0  0  0
   10.8585    2.3862   22.5048 C   0  0  0  0  0  0  0  0  0  0  0  0
   11.8657    1.4296   22.5304 C   0  0  0  0  0  0  0  0  0  0  0  0
   13.1856    1.8548   22.4405 C   0  0  0  0  0  0  0  0  0  0  0  0
   13.4978    3.1982   22.3277 C   0  0  0  0  0  0  0  0  0  0  0  0
   11.5423   -0.0006   22.6501 C   0  0  0  0  0  0  0  0  0  0  0  0
   12.3417   -0.9628   23.1751 C   0  0  0  0  0  0  0  0  0  0  0  0
   11.5750   -2.4954   23.1211 S   0  0  0  0  0  0  0  0  0  0  0  0
   10.2036   -1.7569   22.3830 C   0  0  0  0  0  0  0  0  0  0  0  0
    8.9954   -2.5644   22.0104 C   0  0  0  0  0  0  0  0  0  0  0  0
    7.9486   -1.6445   21.4141 C   0  0  0  0  0  0  0  0  0  0  0  0
    6.8884   -1.4596   22.0034 O   0  0  0  0  0  0  0  0  0  0  0  0
    8.2336   -1.0397   20.2334 N   0  0  0  0  0  0  0  0  0  0  0  0
    7.4629   -0.1424   19.4526 C   0  0  0  0  0  0  0  0  0  0  0  0
    7.4419   -0.2341   18.0652 C   0  0  0  0  0  0  0  0  0  0  0  0
    6.6946    0.5472   17.2794 N   0  0  0  0  0  0  0  0  0  0  0  0
    5.9240    1.4557   17.8742 C   0  0  0  0  0  0  0  0  0  0  0  0
    5.9038    1.6567   19.2378 C   0  0  0  0  0  0  0  0  0  0  0  0
    6.7088    0.8751   20.0616 C   0  0  0  0  0  0  0  0  0  0  0  0
    6.7550    1.1639   21.5395 C   0  0  0  0  0  0  0  0  0  0  0  0
   10.3159   -0.4692   22.1997 N   0  0  0  0  0  0  0  0  0  0  0  0
  1  2  1  0
  2  3  1  0
  3  4  2  0
  4  5  1  0
  5  6  2  0
  6  7  1  0
  7  8  2  0
  6  9  1  0
  9 10  2  0
 10 11  1  0
 11 12  1  0
 12 13  1  0
 13 14  1  0
 14 15  2  0
 14 16  1  0
 16 17  1  0
 17 18  2  0
 18 19  1  0
 19 20  2  0
 20 21  1  0
 21 22  2  0
 22 23  1  0
 12 24  2  0
  8  3  1  0
 24  9  1  0
 22 17  1  0
M  END
