CVD-0002497|dock_bobby27042020.48|mol2|22|dock3
     RDKit          3D

 30 32  0  0  0  0  0  0  0  0999 V2000
   13.5777    5.0033   21.9052 C   0  0  0  0  0  0  0  0  0  0  0  0
   12.6615    3.8444   22.2915 C   0  0  0  0  0  0  0  0  0  0  0  0
   13.4100    2.8983   23.2153 C   0  0  0  0  0  0  0  0  0  0  0  0
   12.5323    1.8074   23.8278 C   0  0  0  0  0  0  0  0  0  0  0  0
   12.1518    0.7547   22.7978 C   0  0  0  0  0  0  0  0  0  0  0  0
   13.2687   -0.0275   22.2560 N   0  0  0  0  0  0  0  0  0  0  0  0
   12.8562   -1.1885   21.5089 C   0  0  0  0  0  0  0  0  0  0  0  0
   12.1679   -2.1850   22.2983 N   0  0  0  0  0  0  0  0  0  0  0  0
   10.8462   -2.4701   22.1451 C   0  0  0  0  0  0  0  0  0  0  0  0
   10.1846   -3.2846   23.0626 C   0  0  0  0  0  0  0  0  0  0  0  0
    8.8408   -3.5448   22.8635 C   0  0  0  0  0  0  0  0  0  0  0  0
    8.1876   -2.9951   21.7662 C   0  0  0  0  0  0  0  0  0  0  0  0
    8.9348   -2.1948   20.9070 C   0  0  0  0  0  0  0  0  0  0  0  0
   10.2346   -1.9330   21.0847 N   0  0  0  0  0  0  0  0  0  0  0  0
    6.7876   -3.2450   21.5271 C   0  0  0  0  0  0  0  0  0  0  0  0
    5.6855   -3.4755   21.3346 N   0  0  0  0  0  0  0  0  0  0  0  0
   11.2699    2.3985   24.4646 C   0  0  0  0  0  0  0  0  0  0  0  0
   10.5010    3.3073   23.5022 C   0  0  0  0  0  0  0  0  0  0  0  0
    9.2667    3.9351   24.1367 C   0  0  0  0  0  0  0  0  0  0  0  0
    8.9003    5.2396   23.5751 N   0  0  0  0  0  0  0  0  0  0  0  0
    8.1476    6.0270   24.5561 C   0  0  0  0  0  0  0  0  0  0  0  0
    7.8069    7.3907   23.9849 C   0  0  0  0  0  0  0  0  0  0  0  0
    7.0335    7.2491   22.7492 N   0  0  0  0  0  0  0  0  0  0  0  0
    7.7343    6.4153   21.7678 C   0  0  0  0  0  0  0  0  0  0  0  0
    8.0857    5.0692   22.3748 C   0  0  0  0  0  0  0  0  0  0  0  0
    5.8410    7.8495   22.5601 C   0  0  0  0  0  0  0  0  0  0  0  0
    5.3317    8.5617   23.4164 O   0  0  0  0  0  0  0  0  0  0  0  0
    5.1617    7.6026   21.2275 C   0  0  0  0  0  0  0  0  0  0  0  0
    6.0989    8.2831   19.8912 Cl  0  0  0  0  0  0  0  0  0  0  0  0
   11.4188    4.4024   22.9825 C   0  0  0  0  0  0  0  0  0  0  0  0
  1  2  1  0
  2  3  1  0
  3  4  1  0
  4  5  1  0
  5  6  1  0
  6  7  1  0
  7  8  1  0
  8  9  1  0
  9 10  2  0
 10 11  1  0
 11 12  2  0
 12 13  1  0
 13 14  2  0
 12 15  1  0
 15 16  3  0
  4 17  1  0
 17 18  1  0
 18 19  1  0
 19 20  1  0
 20 21  1  0
 21 22  1  0
 22 23  1  0
 23 24  1  0
 24 25  1  0
 23 26  1  0
 26 27  2  0
 26 28  1  0
 28 29  1  0
 18 30  1  0
 30  2  1  0
 14  9  1  0
 25 20  1  0
M  END
