CVD-0003057|dock_bobby27042020.61|mol2|9|dock2
     RDKit          3D

 24 25  0  0  0  0  0  0  0  0999 V2000
   13.8547    4.4673   21.2776 C   0  0  0  0  0  0  0  0  0  0  0  0
   13.1780    5.1548   22.4355 C   0  0  0  0  0  0  0  0  0  0  0  0
   13.6300    6.4150   22.8156 C   0  0  0  0  0  0  0  0  0  0  0  0
   13.0331    7.0657   23.8720 C   0  0  0  0  0  0  0  0  0  0  0  0
   12.0252    6.5476   24.5679 N   0  0  0  0  0  0  0  0  0  0  0  0
   11.5826    5.3373   24.2128 C   0  0  0  0  0  0  0  0  0  0  0  0
   12.1122    4.5887   23.1613 C   0  0  0  0  0  0  0  0  0  0  0  0
   11.6430    3.2998   22.7829 N   0  0  0  0  0  0  0  0  0  0  0  0
   11.2370    2.2562   23.5473 C   0  0  0  0  0  0  0  0  0  0  0  0
   11.2420    2.2043   24.7725 O   0  0  0  0  0  0  0  0  0  0  0  0
   10.7463    1.0578   22.7728 C   0  0  0  0  0  0  0  0  0  0  0  0
   10.4607   -0.0560   23.6443 O   0  0  0  0  0  0  0  0  0  0  0  0
   10.0842   -1.2047   23.0763 C   0  0  0  0  0  0  0  0  0  0  0  0
    9.9102   -1.3650   21.8792 O   0  0  0  0  0  0  0  0  0  0  0  0
    9.8956   -2.3069   24.0699 C   0  0  0  0  0  0  0  0  0  0  0  0
   10.5048   -3.5399   23.8666 C   0  0  0  0  0  0  0  0  0  0  0  0
   10.3426   -4.5723   24.7732 C   0  0  0  0  0  0  0  0  0  0  0  0
    9.5603   -4.3731   25.8987 C   0  0  0  0  0  0  0  0  0  0  0  0
    8.9461   -3.1517   26.1216 C   0  0  0  0  0  0  0  0  0  0  0  0
    9.1155   -2.1265   25.2079 C   0  0  0  0  0  0  0  0  0  0  0  0
    9.3528   -5.6842   27.0652 S   0  0  0  0  0  0  0  0  0  0  0  0
    9.4803   -7.0787   26.2889 N   0  0  0  0  0  0  0  0  0  0  0  0
    8.0148   -5.6008   27.5690 O   0  0  0  0  0  0  0  0  0  0  0  0
   10.4453   -5.6122   27.9884 O   0  0  0  0  0  0  0  0  0  0  0  0
  1  2  1  0
  2  3  2  0
  3  4  1  0
  4  5  2  0
  5  6  1  0
  6  7  2  0
  7  8  1  0
  8  9  1  0
  9 10  2  0
  9 11  1  0
 11 12  1  0
 12 13  1  0
 13 14  2  0
 13 15  1  0
 15 16  2  0
 16 17  1  0
 17 18  2  0
 18 19  1  0
 19 20  2  0
 18 21  1  0
 21 22  1  0
 21 23  2  0
 21 24  2  0
  7  2  1  0
 20 15  1  0
M  END
