CVD-0000223|dock_bobby27042020.56|mol2|39|dock3
     RDKit          3D

 24 26  0  0  0  0  0  0  0  0999 V2000
   12.5084    7.0359   25.3108 C   0  0  0  0  0  0  0  0  0  0  0  0
   12.8991    6.3038   24.0751 C   0  0  0  0  0  0  0  0  0  0  0  0
   13.6673    6.7761   23.1048 N   0  0  0  0  0  0  0  0  0  0  0  0
   13.7337    5.7561   22.1916 C   0  0  0  0  0  0  0  0  0  0  0  0
   13.0168    4.6740   22.5882 C   0  0  0  0  0  0  0  0  0  0  0  0
   12.7672    3.3335   21.9705 C   0  0  0  0  0  0  0  0  0  0  0  0
   13.1078    2.1834   22.9151 C   0  0  0  0  0  0  0  0  0  0  0  0
   12.5515    0.8612   22.4453 C   0  0  0  0  0  0  0  0  0  0  0  0
   13.3805   -0.2292   22.2429 C   0  0  0  0  0  0  0  0  0  0  0  0
   12.8604   -1.4360   21.8089 C   0  0  0  0  0  0  0  0  0  0  0  0
   11.5029   -1.5712   21.5696 C   0  0  0  0  0  0  0  0  0  0  0  0
   10.6507   -0.4867   21.7653 C   0  0  0  0  0  0  0  0  0  0  0  0
    9.2506   -0.5355   21.5448 N   0  0  0  0  0  0  0  0  0  0  0  0
    8.3917    0.3921   21.0006 C   0  0  0  0  0  0  0  0  0  0  0  0
    8.7320    1.4960   20.5880 O   0  0  0  0  0  0  0  0  0  0  0  0
    7.0985   -0.0776   20.9781 N   0  0  0  0  0  0  0  0  0  0  0  0
    5.9054    0.5306   20.5127 C   0  0  0  0  0  0  0  0  0  0  0  0
    5.8162    1.3113   19.3640 C   0  0  0  0  0  0  0  0  0  0  0  0
    4.5940    1.8550   19.0076 C   0  0  0  0  0  0  0  0  0  0  0  0
    3.4991    1.6066   19.8024 C   0  0  0  0  0  0  0  0  0  0  0  0
    3.5529    0.8636   20.9074 N   0  0  0  0  0  0  0  0  0  0  0  0
    4.7370    0.3435   21.2427 C   0  0  0  0  0  0  0  0  0  0  0  0
   11.1919    0.7182   22.2020 C   0  0  0  0  0  0  0  0  0  0  0  0
   12.4870    5.0423   23.7958 N   0  0  0  0  0  0  0  0  0  0  0  0
  1  2  1  0
  2  3  2  0
  3  4  1  0
  4  5  2  0
  5  6  1  0
  6  7  1  0
  7  8  1  0
  8  9  2  0
  9 10  1  0
 10 11  2  0
 11 12  1  0
 12 13  1  0
 13 14  1  0
 14 15  2  0
 14 16  1  0
 16 17  1  0
 17 18  2  0
 18 19  1  0
 19 20  2  0
 20 21  1  0
 21 22  2  0
 12 23  2  0
  5 24  1  0
 24  2  1  0
 23  8  1  0
 22 17  1  0
M  END
