CVD-0002448|dock_bobby27042020.5|mol2|34|dock3
     RDKit          3D

 12 13  0  0  0  0  0  0  0  0999 V2000
   14.3882   -2.2965   25.5327 C   0  0  0  0  0  0  0  0  0  0  0  0
   13.8326   -1.4143   24.4197 C   0  0  0  0  0  0  0  0  0  0  0  0
   13.3274   -2.2473   23.2364 C   0  0  0  0  0  0  0  0  0  0  0  0
   12.7860   -1.3646   22.1476 C   0  0  0  0  0  0  0  0  0  0  0  0
   11.7264   -0.4762   22.6343 N   0  0  0  0  0  0  0  0  0  0  0  0
   12.1464    0.3492   23.7905 C   0  0  0  0  0  0  0  0  0  0  0  0
   12.7155   -0.5186   24.8927 C   0  0  0  0  0  0  0  0  0  0  0  0
   10.5537   -0.2830   21.9609 C   0  0  0  0  0  0  0  0  0  0  0  0
    9.7525    0.9121   22.0346 C   0  0  0  0  0  0  0  0  0  0  0  0
    8.6275    0.8583   21.2685 C   0  0  0  0  0  0  0  0  0  0  0  0
    8.5378   -0.6326   20.4612 S   0  0  0  0  0  0  0  0  0  0  0  0
    9.9922   -1.2060   21.1289 C   0  0  0  0  0  0  0  0  0  0  0  0
  1  2  1  0
  2  3  1  0
  3  4  1  0
  4  5  1  0
  5  6  1  0
  6  7  1  0
  5  8  1  0
  8  9  1  0
  9 10  2  0
 10 11  1  0
 11 12  1  0
  7  2  1  0
 12  8  2  0
M  END
