CVD-0003007|dock_bobby27042020.32|mol2|22|dock1
     RDKit          3D

 19 21  0  0  0  0  0  0  0  0999 V2000
    3.9716    1.7772   19.7441 Cl  0  0  0  0  0  0  0  0  0  0  0  0
    5.4812    1.0722   19.2376 C   0  0  0  0  0  0  0  0  0  0  0  0
    5.7464    0.8880   17.8986 C   0  0  0  0  0  0  0  0  0  0  0  0
    6.8947    0.3547   17.4725 N   0  0  0  0  0  0  0  0  0  0  0  0
    7.8039   -0.0023   18.3845 C   0  0  0  0  0  0  0  0  0  0  0  0
    7.5999    0.1409   19.7421 C   0  0  0  0  0  0  0  0  0  0  0  0
    8.5502   -0.2458   20.7122 O   0  0  0  0  0  0  0  0  0  0  0  0
    9.3329    0.6408   21.3838 C   0  0  0  0  0  0  0  0  0  0  0  0
    9.3295    1.8464   21.2820 O   0  0  0  0  0  0  0  0  0  0  0  0
   10.2588   -0.0565   22.3085 C   0  0  0  0  0  0  0  0  0  0  0  0
   11.1774    0.4942   23.1527 C   0  0  0  0  0  0  0  0  0  0  0  0
   11.9078   -0.4815   23.9071 C   0  0  0  0  0  0  0  0  0  0  0  0
   12.9235   -0.3421   24.8682 C   0  0  0  0  0  0  0  0  0  0  0  0
   13.4921   -1.4486   25.4761 C   0  0  0  0  0  0  0  0  0  0  0  0
   13.0673   -2.7174   25.1453 C   0  0  0  0  0  0  0  0  0  0  0  0
   12.0687   -2.8963   24.2028 C   0  0  0  0  0  0  0  0  0  0  0  0
   11.4907   -1.7884   23.5860 C   0  0  0  0  0  0  0  0  0  0  0  0
   10.2317   -1.8006   22.3852 S   0  0  0  0  0  0  0  0  0  0  0  0
    6.4118    0.6981   20.1841 C   0  0  0  0  0  0  0  0  0  0  0  0
  1  2  1  0
  2  3  2  0
  3  4  1  0
  4  5  2  0
  5  6  1  0
  6  7  1  0
  7  8  1  0
  8  9  2  0
  8 10  1  0
 10 11  2  0
 11 12  1  0
 12 13  2  0
 13 14  1  0
 14 15  2  0
 15 16  1  0
 16 17  2  0
 17 18  1  0
  6 19  2  0
 19  2  1  0
 18 10  1  0
 17 12  1  0
M  END
