CVD-0003711|dock_bobby27042020.59|mol2|2|dock2
     RDKit          3D

 24 24  0  0  0  0  0  0  0  0999 V2000
    6.5230   -5.4861   22.4181 C   0  0  0  0  0  0  0  0  0  0  0  0
    6.9114   -4.2412   21.6759 C   0  0  0  0  0  0  0  0  0  0  0  0
    6.5326   -4.0242   20.5292 O   0  0  0  0  0  0  0  0  0  0  0  0
    7.6805   -3.3749   22.3445 N   0  0  0  0  0  0  0  0  0  0  0  0
    8.1148   -2.1213   21.7503 C   0  0  0  0  0  0  0  0  0  0  0  0
    6.9617   -1.1042   21.7740 C   0  0  0  0  0  0  0  0  0  0  0  0
    6.7116   -0.4172   20.4532 C   0  0  0  0  0  0  0  0  0  0  0  0
    7.7673   -0.0407   19.6375 C   0  0  0  0  0  0  0  0  0  0  0  0
    7.5454    0.5864   18.4244 C   0  0  0  0  0  0  0  0  0  0  0  0
    6.2494    0.8459   18.0087 C   0  0  0  0  0  0  0  0  0  0  0  0
    6.0233    1.4643   16.8136 O   0  0  0  0  0  0  0  0  0  0  0  0
    5.1841    0.4741   18.8129 C   0  0  0  0  0  0  0  0  0  0  0  0
    5.4206   -0.1523   20.0237 C   0  0  0  0  0  0  0  0  0  0  0  0
    9.3353   -1.5775   22.4900 C   0  0  0  0  0  0  0  0  0  0  0  0
    9.2717   -1.2845   23.6809 O   0  0  0  0  0  0  0  0  0  0  0  0
   10.4453   -1.4591   21.7556 N   0  0  0  0  0  0  0  0  0  0  0  0
   11.6121   -0.9738   22.3626 O   0  0  0  0  0  0  0  0  0  0  0  0
   12.2173   -2.0161   23.1336 C   0  0  0  0  0  0  0  0  0  0  0  0
   13.4464   -1.3701   23.6935 C   0  0  0  0  0  0  0  0  0  0  0  0
   14.3259   -1.1188   22.6806 F   0  0  0  0  0  0  0  0  0  0  0  0
   13.1160   -0.1591   24.2293 F   0  0  0  0  0  0  0  0  0  0  0  0
   14.1655   -2.1707   24.7516 C   0  0  0  0  0  0  0  0  0  0  0  0
   13.3289   -2.3526   25.7958 F   0  0  0  0  0  0  0  0  0  0  0  0
   14.4414   -3.3943   24.2514 F   0  0  0  0  0  0  0  0  0  0  0  0
  1  2  1  0
  2  3  2  0
  2  4  1  0
  4  5  1  0
  5  6  1  0
  6  7  1  0
  7  8  2  0
  8  9  1  0
  9 10  2  0
 10 11  1  0
 10 12  1  0
 12 13  2  0
  5 14  1  0
 14 15  2  0
 14 16  1  0
 16 17  1  0
 17 18  1  0
 18 19  1  0
 19 20  1  0
 19 21  1  0
 19 22  1  0
 22 23  1  0
 22 24  1  0
 13  7  1  0
M  END
