CVD-0002207|dock_bobby27042020.78|mol2|16|dock2
     RDKit          3D

 22 24  0  0  0  0  0  0  0  0999 V2000
    5.5229    0.5112   18.1240 C   0  0  0  0  0  0  0  0  0  0  0  0
    5.8071   -0.7647   18.8821 C   0  0  0  0  0  0  0  0  0  0  0  0
    6.8542   -0.5743   19.9625 C   0  0  0  0  0  0  0  0  0  0  0  0
    7.2478   -1.8232   20.7087 C   0  0  0  0  0  0  0  0  0  0  0  0
    6.3728   -2.8400   20.6629 N   0  0  0  0  0  0  0  0  0  0  0  0
    6.6737   -3.9706   21.3118 C   0  0  0  0  0  0  0  0  0  0  0  0
    7.8487   -4.1478   22.0350 C   0  0  0  0  0  0  0  0  0  0  0  0
    8.7528   -3.0914   22.0821 C   0  0  0  0  0  0  0  0  0  0  0  0
    8.4681   -1.9048   21.4168 C   0  0  0  0  0  0  0  0  0  0  0  0
    9.4383   -0.7381   21.4582 C   0  0  0  0  0  0  0  0  0  0  0  0
   10.6815   -0.9897   22.2868 C   0  0  0  0  0  0  0  0  0  0  0  0
   11.7666   -1.6726   21.7530 C   0  0  0  0  0  0  0  0  0  0  0  0
   12.9055   -1.9087   22.5066 C   0  0  0  0  0  0  0  0  0  0  0  0
   12.9708   -1.4571   23.8205 C   0  0  0  0  0  0  0  0  0  0  0  0
   14.0668   -1.5765   24.8390 C   0  0  0  0  0  0  0  0  0  0  0  0
   13.4840   -0.8871   25.9697 N   0  0  0  0  0  0  0  0  0  0  0  0
   12.2415   -0.4163   25.7567 C   0  0  0  0  0  0  0  0  0  0  0  0
   11.5702    0.2015   26.5769 O   0  0  0  0  0  0  0  0  0  0  0  0
   11.8968   -0.7757   24.3640 C   0  0  0  0  0  0  0  0  0  0  0  0
   10.7538   -0.5409   23.6017 C   0  0  0  0  0  0  0  0  0  0  0  0
    8.1264   -5.3874   22.7177 C   0  0  0  0  0  0  0  0  0  0  0  0
    8.3688   -6.3765   23.2350 N   0  0  0  0  0  0  0  0  0  0  0  0
  1  2  1  0
  2  3  1  0
  3  4  1  0
  4  5  2  0
  5  6  1  0
  6  7  2  0
  7  8  1  0
  8  9  2  0
  9 10  1  0
 10 11  1  0
 11 12  2  0
 12 13  1  0
 13 14  2  0
 14 15  1  0
 15 16  1  0
 16 17  1  0
 17 18  2  0
 17 19  1  0
 19 20  2  0
  7 21  1  0
 21 22  3  0
  9  4  1  0
 20 11  1  0
 19 14  1  0
M  END
