CVD-0001562|dock_bobby27042020.23|mol2|29|dock2
     RDKit          3D

 25 27  0  0  0  0  0  0  0  0999 V2000
    0.8337    3.1699   20.4915 C   0  0  0  0  0  0  0  0  0  0  0  0
    1.8636    2.0821   20.5790 C   0  0  0  0  0  0  0  0  0  0  0  0
    1.5652    0.9273   20.8670 O   0  0  0  0  0  0  0  0  0  0  0  0
    3.1204    2.4401   20.3091 N   0  0  0  0  0  0  0  0  0  0  0  0
    4.2282    1.4958   20.3347 C   0  0  0  0  0  0  0  0  0  0  0  0
    5.4086    2.0305   21.1210 C   0  0  0  0  0  0  0  0  0  0  0  0
    6.5751    1.0868   21.1420 C   0  0  0  0  0  0  0  0  0  0  0  0
    6.5931   -0.2168   20.7403 C   0  0  0  0  0  0  0  0  0  0  0  0
    7.8406   -0.7525   20.9105 N   0  0  0  0  0  0  0  0  0  0  0  0
    8.6638    0.2138   21.4343 C   0  0  0  0  0  0  0  0  0  0  0  0
    7.9034    1.3876   21.5949 C   0  0  0  0  0  0  0  0  0  0  0  0
    8.5199    2.5226   22.1155 C   0  0  0  0  0  0  0  0  0  0  0  0
    9.8563    2.4851   22.4651 C   0  0  0  0  0  0  0  0  0  0  0  0
   10.5707    3.9275   23.1080 Cl  0  0  0  0  0  0  0  0  0  0  0  0
   10.6492    1.3407   22.3225 C   0  0  0  0  0  0  0  0  0  0  0  0
   12.0268    1.0678   22.6097 C   0  0  0  0  0  0  0  0  0  0  0  0
   12.4195   -0.1969   22.3215 C   0  0  0  0  0  0  0  0  0  0  0  0
   13.7742   -0.8252   22.4919 C   0  0  0  0  0  0  0  0  0  0  0  0
   13.7363   -2.2744   22.9556 C   0  0  0  0  0  0  0  0  0  0  0  0
   13.0658   -2.4254   24.3137 C   0  0  0  0  0  0  0  0  0  0  0  0
   13.8010   -1.7288   25.4062 C   0  0  0  0  0  0  0  0  0  0  0  0
   14.9259   -2.1320   25.7903 N   0  0  0  0  0  0  0  0  0  0  0  0
   13.1830   -0.6908   25.9256 N   0  0  0  0  0  0  0  0  0  0  0  0
   11.1150   -1.1467   21.6727 S   0  0  0  0  0  0  0  0  0  0  0  0
   10.0200    0.1945   21.7950 C   0  0  0  0  0  0  0  0  0  0  0  0
  1  2  1  0
  2  3  2  0
  2  4  1  0
  4  5  1  0
  5  6  1  0
  6  7  1  0
  7  8  2  0
  8  9  1  0
  9 10  1  0
 10 11  2  0
 11 12  1  0
 12 13  2  0
 13 14  1  0
 13 15  1  0
 15 16  1  0
 16 17  2  0
 17 18  1  0
 18 19  1  0
 19 20  1  0
 20 21  1  0
 21 22  1  0
 21 23  2  0
 17 24  1  0
 24 25  1  0
 11  7  1  0
 25 15  2  0
 25 10  1  0
M  END
