CVD-0003541|dock_bobby27042020.30|mol2|34|dock3
     RDKit          3D

 24 26  0  0  0  0  0  0  0  0999 V2000
    5.9395   -1.6463   22.6061 O   0  0  0  0  0  0  0  0  0  0  0  0
    6.1294   -2.9869   22.7168 C   0  0  0  0  0  0  0  0  0  0  0  0
    5.0515   -3.8423   22.8964 C   0  0  0  0  0  0  0  0  0  0  0  0
    5.2757   -5.2027   23.0058 C   0  0  0  0  0  0  0  0  0  0  0  0
    6.5601   -5.6996   22.9367 C   0  0  0  0  0  0  0  0  0  0  0  0
    7.6466   -4.8564   22.7578 C   0  0  0  0  0  0  0  0  0  0  0  0
    7.4367   -3.4806   22.6450 C   0  0  0  0  0  0  0  0  0  0  0  0
    8.4382   -2.4923   22.4591 N   0  0  0  0  0  0  0  0  0  0  0  0
    9.7252   -2.4502   22.9387 C   0  0  0  0  0  0  0  0  0  0  0  0
   10.2159   -3.3543   23.6025 O   0  0  0  0  0  0  0  0  0  0  0  0
   10.4941   -1.3532   22.6633 N   0  0  0  0  0  0  0  0  0  0  0  0
   11.9515   -1.2910   22.7570 C   0  0  0  0  0  0  0  0  0  0  0  0
   12.3721   -0.1231   23.6232 C   0  0  0  0  0  0  0  0  0  0  0  0
   11.7750    1.1136   23.1240 N   0  0  0  0  0  0  0  0  0  0  0  0
   10.3175    1.0515   23.0304 C   0  0  0  0  0  0  0  0  0  0  0  0
    9.8969   -0.1164   22.1642 C   0  0  0  0  0  0  0  0  0  0  0  0
   12.5346    2.1975   22.8519 C   0  0  0  0  0  0  0  0  0  0  0  0
   13.7472    2.1838   23.0228 O   0  0  0  0  0  0  0  0  0  0  0  0
   11.8596    3.4589   22.3137 C   0  0  0  0  0  0  0  0  0  0  0  0
   12.8237    4.5293   22.1037 N   0  0  0  0  0  0  0  0  0  0  0  0
   12.9352    5.6810   22.7887 C   0  0  0  0  0  0  0  0  0  0  0  0
   13.9952    6.3622   22.2633 C   0  0  0  0  0  0  0  0  0  0  0  0
   14.4835    5.5392   21.2572 C   0  0  0  0  0  0  0  0  0  0  0  0
   13.7850    4.4157   21.1511 N   0  0  0  0  0  0  0  0  0  0  0  0
  1  2  1  0
  2  3  2  0
  3  4  1  0
  4  5  2  0
  5  6  1  0
  6  7  2  0
  7  8  1  0
  8  9  1  0
  9 10  2  0
  9 11  1  0
 11 12  1  0
 12 13  1  0
 13 14  1  0
 14 15  1  0
 15 16  1  0
 14 17  1  0
 17 18  2  0
 17 19  1  0
 19 20  1  0
 20 21  1  0
 21 22  2  0
 22 23  1  0
 23 24  2  0
  7  2  1  0
 16 11  1  0
 24 20  1  0
M  END
