CVD-0001392|dock_bobby27042020.38|mol2|19|dock2
     RDKit          3D

 16 17  0  0  0  0  0  0  0  0999 V2000
   13.0437    5.1172   22.4800 C   0  0  0  0  0  0  0  0  0  0  0  0
   11.6537    4.7669   22.7688 N   0  0  0  0  0  0  0  0  0  0  0  0
   10.6783    5.7174   22.9587 C   0  0  0  0  0  0  0  0  0  0  0  0
    9.5293    5.0515   23.1864 C   0  0  0  0  0  0  0  0  0  0  0  0
    9.7495    3.6983   23.1408 N   0  0  0  0  0  0  0  0  0  0  0  0
   11.0457    3.5456   22.8830 C   0  0  0  0  0  0  0  0  0  0  0  0
   11.6201    2.1883   22.7618 C   0  0  0  0  0  0  0  0  0  0  0  0
   10.7493    1.1275   22.5289 C   0  0  0  0  0  0  0  0  0  0  0  0
   11.2074   -0.1711   22.3993 C   0  0  0  0  0  0  0  0  0  0  0  0
   12.5632   -0.4269   22.5015 C   0  0  0  0  0  0  0  0  0  0  0  0
   13.4522    0.6072   22.7370 C   0  0  0  0  0  0  0  0  0  0  0  0
   12.9809    1.9020   22.8668 C   0  0  0  0  0  0  0  0  0  0  0  0
   13.1611   -2.0821   22.3412 S   0  0  0  0  0  0  0  0  0  0  0  0
   13.3417   -2.4077   20.7841 N   0  0  0  0  0  0  0  0  0  0  0  0
   12.1419   -2.9553   22.8409 O   0  0  0  0  0  0  0  0  0  0  0  0
   14.4628   -2.1261   22.9368 O   0  0  0  0  0  0  0  0  0  0  0  0
  1  2  1  0
  2  3  1  0
  3  4  2  0
  4  5  1  0
  5  6  2  0
  6  7  1  0
  7  8  2  0
  8  9  1  0
  9 10  2  0
 10 11  1  0
 11 12  2  0
 10 13  1  0
 13 14  1  0
 13 15  2  0
 13 16  2  0
  6  2  1  0
 12  7  1  0
M  END
