CVD-0003515|dock_bobby27042020.45|mol2|9|dock1
     RDKit          3D

 24 25  0  0  0  0  0  0  0  0999 V2000
    5.3044   -1.2906   17.9827 N   0  0  0  0  0  0  0  0  0  0  0  0
    6.1640    0.0271   18.2806 S   0  0  0  0  0  0  0  0  0  0  0  0
    5.5268    0.7238   19.3613 O   0  0  0  0  0  0  0  0  0  0  0  0
    6.3459    0.7155   17.0346 O   0  0  0  0  0  0  0  0  0  0  0  0
    7.7743   -0.4454   18.8490 C   0  0  0  0  0  0  0  0  0  0  0  0
    7.7651   -1.5580   19.8767 C   0  0  0  0  0  0  0  0  0  0  0  0
    9.0992   -1.8401   20.3804 N   0  0  0  0  0  0  0  0  0  0  0  0
    9.3286   -2.3221   21.6129 C   0  0  0  0  0  0  0  0  0  0  0  0
    8.3992   -3.1464   22.1336 N   0  0  0  0  0  0  0  0  0  0  0  0
    8.6021   -3.6416   23.3613 C   0  0  0  0  0  0  0  0  0  0  0  0
    9.7104   -3.3527   24.1215 C   0  0  0  0  0  0  0  0  0  0  0  0
   10.6635   -2.5060   23.5858 C   0  0  0  0  0  0  0  0  0  0  0  0
   10.4981   -1.9671   22.3135 C   0  0  0  0  0  0  0  0  0  0  0  0
   11.5651   -1.0432   21.7729 C   0  0  0  0  0  0  0  0  0  0  0  0
   12.0079   -0.0330   22.7453 N   0  0  0  0  0  0  0  0  0  0  0  0
   10.9105    0.8836   23.0680 C   0  0  0  0  0  0  0  0  0  0  0  0
   11.3607    1.8985   24.1023 C   0  0  0  0  0  0  0  0  0  0  0  0
   12.5190    2.6488   23.6123 N   0  0  0  0  0  0  0  0  0  0  0  0
   13.6147    1.7553   23.2238 C   0  0  0  0  0  0  0  0  0  0  0  0
   13.1288    0.7355   22.2099 C   0  0  0  0  0  0  0  0  0  0  0  0
   12.5510    3.9969   23.5654 C   0  0  0  0  0  0  0  0  0  0  0  0
   11.6034    4.6747   23.9425 O   0  0  0  0  0  0  0  0  0  0  0  0
   13.8098    4.6417   23.0171 C   0  0  0  0  0  0  0  0  0  0  0  0
   13.6969    6.4063   23.0473 Cl  0  0  0  0  0  0  0  0  0  0  0  0
  1  2  1  0
  2  3  2  0
  2  4  2  0
  2  5  1  0
  5  6  1  0
  6  7  1  0
  7  8  1  0
  8  9  2  0
  9 10  1  0
 10 11  2  0
 11 12  1  0
 12 13  2  0
 13 14  1  0
 14 15  1  0
 15 16  1  0
 16 17  1  0
 17 18  1  0
 18 19  1  0
 19 20  1  0
 18 21  1  0
 21 22  2  0
 21 23  1  0
 23 24  1  0
 13  8  1  0
 20 15  1  0
M  END
