CVD-0001955|dock_bobby27042020.7|mol2|47|dock2
     RDKit          3D

 20 21  0  0  0  0  0  0  0  0999 V2000
    8.0579   -0.4277   18.5687 C   0  0  0  0  0  0  0  0  0  0  0  0
    8.4150   -1.4654   19.5396 N   0  0  0  0  0  0  0  0  0  0  0  0
    8.1792   -1.0945   20.9390 C   0  0  0  0  0  0  0  0  0  0  0  0
    9.4453   -0.6391   21.6156 C   0  0  0  0  0  0  0  0  0  0  0  0
   10.4095   -1.4723   22.2046 C   0  0  0  0  0  0  0  0  0  0  0  0
   11.4331   -0.7055   22.7331 C   0  0  0  0  0  0  0  0  0  0  0  0
   12.6100   -1.2475   23.4574 C   0  0  0  0  0  0  0  0  0  0  0  0
   13.0401   -0.6804   24.6594 C   0  0  0  0  0  0  0  0  0  0  0  0
   14.1418   -1.1833   25.3313 C   0  0  0  0  0  0  0  0  0  0  0  0
   14.8254   -2.2710   24.8355 C   0  0  0  0  0  0  0  0  0  0  0  0
   14.4129   -2.8680   23.6581 C   0  0  0  0  0  0  0  0  0  0  0  0
   13.3245   -2.3461   23.0002 C   0  0  0  0  0  0  0  0  0  0  0  0
   12.9528   -2.9498   21.8480 F   0  0  0  0  0  0  0  0  0  0  0  0
   11.1259    0.6341   22.4453 N   0  0  0  0  0  0  0  0  0  0  0  0
    9.9136    0.6530   21.7816 C   0  0  0  0  0  0  0  0  0  0  0  0
   11.8609    1.8385   22.7028 C   0  0  0  0  0  0  0  0  0  0  0  0
   12.9486    1.8177   23.2601 O   0  0  0  0  0  0  0  0  0  0  0  0
   11.2646    3.1516   22.2520 C   0  0  0  0  0  0  0  0  0  0  0  0
   12.1717    4.3435   22.4703 C   0  0  0  0  0  0  0  0  0  0  0  0
   13.3522    4.2401   21.6903 O   0  0  0  0  0  0  0  0  0  0  0  0
  1  2  1  0
  2  3  1  0
  3  4  1  0
  4  5  1  0
  5  6  2  0
  6  7  1  0
  7  8  2  0
  8  9  1  0
  9 10  2  0
 10 11  1  0
 11 12  2  0
 12 13  1  0
  6 14  1  0
 14 15  1  0
 14 16  1  0
 16 17  2  0
 16 18  1  0
 18 19  1  0
 19 20  1  0
 15  4  2  0
 12  7  1  0
M  END
