CVD-0002142|dock_bobby27042020.50|mol2|8|dock3
     RDKit          3D

 17 18  0  0  0  0  0  0  0  0999 V2000
   13.8592   -2.7361   24.8009 C   0  0  0  0  0  0  0  0  0  0  0  0
   12.5611   -2.7237   24.0486 C   0  0  0  0  0  0  0  0  0  0  0  0
   11.7892   -3.6748   24.0972 O   0  0  0  0  0  0  0  0  0  0  0  0
   12.2739   -1.6297   23.3008 N   0  0  0  0  0  0  0  0  0  0  0  0
   11.0372   -1.5661   22.5396 C   0  0  0  0  0  0  0  0  0  0  0  0
   10.2933   -0.3044   22.8463 C   0  0  0  0  0  0  0  0  0  0  0  0
   11.1741    0.8447   22.5932 N   0  0  0  0  0  0  0  0  0  0  0  0
   12.3809    0.8026   23.4323 C   0  0  0  0  0  0  0  0  0  0  0  0
   13.1390   -0.4573   23.1360 C   0  0  0  0  0  0  0  0  0  0  0  0
   10.4648    2.2788   22.3389 S   0  0  0  0  0  0  0  0  0  0  0  0
    9.5903    2.5233   23.4426 O   0  0  0  0  0  0  0  0  0  0  0  0
    9.9384    2.2642   21.0101 O   0  0  0  0  0  0  0  0  0  0  0  0
   11.7077    3.4966   22.3871 C   0  0  0  0  0  0  0  0  0  0  0  0
   12.1382    4.0629   23.5576 C   0  0  0  0  0  0  0  0  0  0  0  0
   13.1834    5.0906   23.4013 C   0  0  0  0  0  0  0  0  0  0  0  0
   13.5514    5.1794   21.6369 S   0  0  0  0  0  0  0  0  0  0  0  0
   12.4000    4.0191   21.2825 C   0  0  0  0  0  0  0  0  0  0  0  0
  1  2  1  0
  2  3  2  0
  2  4  1  0
  4  5  1  0
  5  6  1  0
  6  7  1  0
  7  8  1  0
  8  9  1  0
  7 10  1  0
 10 11  2  0
 10 12  2  0
 10 13  1  0
 13 14  2  0
 14 15  1  0
 15 16  1  0
 16 17  2  0
  9  4  1  0
 17 13  1  0
M  END
