CVD-0001003|dock_bobby27042020.11|mol2|10|dock1
     RDKit          3D

 37 41  0  0  0  0  0  0  0  0999 V2000
   -0.0870  -11.5051   27.8335 C   0  0  0  0  0  0  0  0  0  0  0  0
    0.3538  -10.1893   28.1628 O   0  0  0  0  0  0  0  0  0  0  0  0
    1.1906   -9.5063   27.3154 C   0  0  0  0  0  0  0  0  0  0  0  0
    1.1711   -9.7107   25.9457 C   0  0  0  0  0  0  0  0  0  0  0  0
    2.0360   -8.9956   25.1381 C   0  0  0  0  0  0  0  0  0  0  0  0
    2.9383   -8.0649   25.6548 C   0  0  0  0  0  0  0  0  0  0  0  0
    3.7904   -7.3880   24.6544 C   0  0  0  0  0  0  0  0  0  0  0  0
    3.8434   -7.6931   23.3895 N   0  0  0  0  0  0  0  0  0  0  0  0
    4.7661   -6.8025   22.8516 C   0  0  0  0  0  0  0  0  0  0  0  0
    5.2531   -6.6237   21.5593 C   0  0  0  0  0  0  0  0  0  0  0  0
    6.1908   -5.6306   21.3180 C   0  0  0  0  0  0  0  0  0  0  0  0
    6.6551   -4.8070   22.3474 C   0  0  0  0  0  0  0  0  0  0  0  0
    7.6117   -3.7799   22.1488 N   0  0  0  0  0  0  0  0  0  0  0  0
    8.5570   -3.2625   22.9724 C   0  0  0  0  0  0  0  0  0  0  0  0
    8.7714   -3.6175   24.1277 O   0  0  0  0  0  0  0  0  0  0  0  0
    9.3719   -2.1587   22.3304 C   0  0  0  0  0  0  0  0  0  0  0  0
    8.8379   -0.8014   22.6651 C   0  0  0  0  0  0  0  0  0  0  0  0
    9.6868    0.3268   22.1018 C   0  0  0  0  0  0  0  0  0  0  0  0
   11.0769    0.1521   22.4925 N   0  0  0  0  0  0  0  0  0  0  0  0
   11.6577   -1.1336   22.1249 C   0  0  0  0  0  0  0  0  0  0  0  0
   10.8319   -2.2578   22.7438 C   0  0  0  0  0  0  0  0  0  0  0  0
   11.9800    1.3881   23.0421 S   0  0  0  0  0  0  0  0  0  0  0  0
   11.8467    1.4134   24.4641 O   0  0  0  0  0  0  0  0  0  0  0  0
   13.2816    1.2519   22.4700 O   0  0  0  0  0  0  0  0  0  0  0  0
   11.2508    2.8865   22.3962 C   0  0  0  0  0  0  0  0  0  0  0  0
   12.2267    4.0312   22.3674 C   0  0  0  0  0  0  0  0  0  0  0  0
   13.1833    4.1201   21.3683 C   0  0  0  0  0  0  0  0  0  0  0  0
   14.0827    5.1730   21.3430 C   0  0  0  0  0  0  0  0  0  0  0  0
   14.0351    6.1476   22.3166 C   0  0  0  0  0  0  0  0  0  0  0  0
   13.0887    6.0697   23.3158 C   0  0  0  0  0  0  0  0  0  0  0  0
   12.1893    5.0170   23.3413 C   0  0  0  0  0  0  0  0  0  0  0  0
    6.1644   -4.9908   23.6376 C   0  0  0  0  0  0  0  0  0  0  0  0
    5.2318   -5.9866   23.8500 C   0  0  0  0  0  0  0  0  0  0  0  0
    4.6112   -6.3501   25.0273 O   0  0  0  0  0  0  0  0  0  0  0  0
    2.9355   -7.8796   27.0401 C   0  0  0  0  0  0  0  0  0  0  0  0
    4.0801   -6.6655   27.9428 Br  0  0  0  0  0  0  0  0  0  0  0  0
    2.0747   -8.5896   27.8580 C   0  0  0  0  0  0  0  0  0  0  0  0
  1  2  1  0
  2  3  1  0
  3  4  2  0
  4  5  1  0
  5  6  2  0
  6  7  1  0
  7  8  2  0
  8  9  1  0
  9 10  2  0
 10 11  1  0
 11 12  2  0
 12 13  1  0
 13 14  1  0
 14 15  2  0
 14 16  1  0
 16 17  1  0
 17 18  1  0
 18 19  1  0
 19 20  1  0
 20 21  1  0
 19 22  1  0
 22 23  2  0
 22 24  2  0
 22 25  1  0
 25 26  1  0
 26 27  2  0
 27 28  1  0
 28 29  2  0
 29 30  1  0
 30 31  2  0
 12 32  1  0
 32 33  2  0
 33 34  1  0
  6 35  1  0
 35 36  1  0
 35 37  2  0
 37  3  1  0
 34  7  1  0
 33  9  1  0
 21 16  1  0
 31 26  1  0
M  END
