CVD-0002687|dock_bobby27042020.76|mol2|21|dock1
     RDKit          3D

 33 36  0  0  0  0  0  0  0  0999 V2000
    5.9438   -3.2914   23.2121 O   0  0  0  0  0  0  0  0  0  0  0  0
    6.5495   -4.0375   22.4473 C   0  0  0  0  0  0  0  0  0  0  0  0
    7.0475   -3.6281   21.2771 N   0  0  0  0  0  0  0  0  0  0  0  0
    6.9056   -2.2535   20.8260 C   0  0  0  0  0  0  0  0  0  0  0  0
    6.0847   -2.1881   19.5289 C   0  0  0  0  0  0  0  0  0  0  0  0
    5.6805   -0.7843   19.1491 C   0  0  0  0  0  0  0  0  0  0  0  0
    4.7430   -0.0896   19.8978 C   0  0  0  0  0  0  0  0  0  0  0  0
    4.3743    1.1996   19.5513 C   0  0  0  0  0  0  0  0  0  0  0  0
    4.9399    1.8096   18.4524 C   0  0  0  0  0  0  0  0  0  0  0  0
    5.8743    1.1306   17.7003 C   0  0  0  0  0  0  0  0  0  0  0  0
    6.2426   -0.1586   18.0471 C   0  0  0  0  0  0  0  0  0  0  0  0
    8.2905   -1.6635   20.5783 C   0  0  0  0  0  0  0  0  0  0  0  0
    8.5905   -1.1499   19.5145 O   0  0  0  0  0  0  0  0  0  0  0  0
    9.3109   -1.7339   21.7311 C   0  0  0  0  0  0  0  0  0  0  0  0
    8.9482   -1.7398   22.9066 O   0  0  0  0  0  0  0  0  0  0  0  0
   10.5847   -1.7862   21.3448 N   0  0  0  0  0  0  0  0  0  0  0  0
   11.6810   -1.8563   22.2995 C   0  0  0  0  0  0  0  0  0  0  0  0
   11.9855   -0.5268   22.9423 C   0  0  0  0  0  0  0  0  0  0  0  0
   11.4335   -0.1696   24.1610 C   0  0  0  0  0  0  0  0  0  0  0  0
   11.7568    1.0644   24.6980 C   0  0  0  0  0  0  0  0  0  0  0  0
   12.6127    1.9000   24.0144 C   0  0  0  0  0  0  0  0  0  0  0  0
   13.1165    1.4643   22.8099 C   0  0  0  0  0  0  0  0  0  0  0  0
   12.8205    0.2756   22.2679 N   0  0  0  0  0  0  0  0  0  0  0  0
    6.7688   -5.5048   22.8038 C   0  0  0  0  0  0  0  0  0  0  0  0
    5.6319   -6.4276   22.2634 C   0  0  0  0  0  0  0  0  0  0  0  0
    4.5274   -6.1820   23.2690 C   0  0  0  0  0  0  0  0  0  0  0  0
    5.2919   -6.1100   24.5951 C   0  0  0  0  0  0  0  0  0  0  0  0
    6.6619   -5.7137   24.2173 N   0  0  0  0  0  0  0  0  0  0  0  0
    7.7015   -5.6263   25.1195 C   0  0  0  0  0  0  0  0  0  0  0  0
    7.6168   -5.9248   26.5247 C   0  0  0  0  0  0  0  0  0  0  0  0
    8.7992   -5.7505   27.1791 C   0  0  0  0  0  0  0  0  0  0  0  0
   10.0001   -5.2292   26.0961 S   0  0  0  0  0  0  0  0  0  0  0  0
    8.9528   -5.2332   24.7569 C   0  0  0  0  0  0  0  0  0  0  0  0
  1  2  2  0
  2  3  1  0
  3  4  1  0
  4  5  1  0
  5  6  1  0
  6  7  2  0
  7  8  1  0
  8  9  2  0
  9 10  1  0
 10 11  2  0
  4 12  1  0
 12 13  2  0
 12 14  1  0
 14 15  2  0
 14 16  1  0
 16 17  1  0
 17 18  1  0
 18 19  2  0
 19 20  1  0
 20 21  2  0
 21 22  1  0
 22 23  2  0
  2 24  1  0
 24 25  1  0
 25 26  1  0
 26 27  1  0
 27 28  1  0
 28 29  1  0
 29 30  1  0
 30 31  2  0
 31 32  1  0
 32 33  1  0
 11  6  1  0
 23 18  1  0
 28 24  1  0
 33 29  2  0
M  END
