CVD-0003457|dock_bobby27042020.73|mol2|40|dock3
     RDKit          3D

 20 22  0  0  0  0  0  0  0  0999 V2000
    5.7548   -0.8912   22.4246 F   0  0  0  0  0  0  0  0  0  0  0  0
    5.6468   -0.2297   21.2735 C   0  0  0  0  0  0  0  0  0  0  0  0
    4.3852    0.1900   21.0533 N   0  0  0  0  0  0  0  0  0  0  0  0
    4.0910    0.8146   19.9378 C   0  0  0  0  0  0  0  0  0  0  0  0
    5.0582    1.0616   18.9286 C   0  0  0  0  0  0  0  0  0  0  0  0
    4.9826    1.6505   17.7360 N   0  0  0  0  0  0  0  0  0  0  0  0
    6.2613    1.5872   17.2332 C   0  0  0  0  0  0  0  0  0  0  0  0
    7.1081    0.9743   18.0918 C   0  0  0  0  0  0  0  0  0  0  0  0
    6.3438    0.6221   19.1991 N   0  0  0  0  0  0  0  0  0  0  0  0
    6.6829   -0.0274   20.3928 C   0  0  0  0  0  0  0  0  0  0  0  0
    8.0441   -0.3916   20.4919 N   0  0  0  0  0  0  0  0  0  0  0  0
    9.0277   -0.2407   21.4814 C   0  0  0  0  0  0  0  0  0  0  0  0
    8.6750    0.2954   22.5276 O   0  0  0  0  0  0  0  0  0  0  0  0
   10.2971   -0.7205   21.2633 N   0  0  0  0  0  0  0  0  0  0  0  0
   11.4390   -0.7277   22.1042 C   0  0  0  0  0  0  0  0  0  0  0  0
   12.4771   -1.5924   21.7759 C   0  0  0  0  0  0  0  0  0  0  0  0
   13.6170   -1.6553   22.5593 C   0  0  0  0  0  0  0  0  0  0  0  0
   13.7366   -0.8586   23.6761 C   0  0  0  0  0  0  0  0  0  0  0  0
   12.7179    0.0069   24.0089 C   0  0  0  0  0  0  0  0  0  0  0  0
   11.5745    0.0818   23.2303 C   0  0  0  0  0  0  0  0  0  0  0  0
  1  2  1  0
  2  3  1  0
  3  4  2  0
  4  5  1  0
  5  6  2  0
  6  7  1  0
  7  8  2  0
  8  9  1  0
  9 10  1  0
 10 11  1  0
 11 12  1  0
 12 13  2  0
 12 14  1  0
 14 15  1  0
 15 16  2  0
 16 17  1  0
 17 18  2  0
 18 19  1  0
 19 20  2  0
 10  2  2  0
 20 15  1  0
  9  5  1  0
M  END
