CVD-0000249|dock_bobby27042020.85|mol2|7|dock1
     RDKit          3D

 24 26  0  0  0  0  0  0  0  0999 V2000
    7.1258   -0.0871   21.7403 O   0  0  0  0  0  0  0  0  0  0  0  0
    8.1658   -0.3989   21.1662 C   0  0  0  0  0  0  0  0  0  0  0  0
    8.1680   -0.9938   19.9569 N   0  0  0  0  0  0  0  0  0  0  0  0
    6.9290   -1.3022   19.2584 C   0  0  0  0  0  0  0  0  0  0  0  0
    6.0663   -0.0869   19.0288 C   0  0  0  0  0  0  0  0  0  0  0  0
    4.9793    0.1971   19.8367 C   0  0  0  0  0  0  0  0  0  0  0  0
    4.2434    1.3320   19.5484 C   0  0  0  0  0  0  0  0  0  0  0  0
    4.6455    2.0965   18.4780 C   0  0  0  0  0  0  0  0  0  0  0  0
    5.6889    1.7950   17.7264 N   0  0  0  0  0  0  0  0  0  0  0  0
    6.4052    0.6914   18.0049 N   0  0  0  0  0  0  0  0  0  0  0  0
    9.3831   -0.1685   21.7051 N   0  0  0  0  0  0  0  0  0  0  0  0
    9.5133    0.5448   22.9651 C   0  0  0  0  0  0  0  0  0  0  0  0
    9.8810   -0.4482   24.0801 C   0  0  0  0  0  0  0  0  0  0  0  0
   11.2828   -0.9997   23.9810 C   0  0  0  0  0  0  0  0  0  0  0  0
   12.2856   -0.5420   24.8216 C   0  0  0  0  0  0  0  0  0  0  0  0
   13.5723   -1.0459   24.7291 C   0  0  0  0  0  0  0  0  0  0  0  0
   13.8712   -2.0134   23.7940 C   0  0  0  0  0  0  0  0  0  0  0  0
   12.8836   -2.4764   22.9514 C   0  0  0  0  0  0  0  0  0  0  0  0
   11.5972   -1.9721   23.0443 C   0  0  0  0  0  0  0  0  0  0  0  0
   10.5308    1.6431   22.8103 C   0  0  0  0  0  0  0  0  0  0  0  0
   10.2858    3.0107   22.7536 C   0  0  0  0  0  0  0  0  0  0  0  0
   11.4888    3.7426   22.6066 C   0  0  0  0  0  0  0  0  0  0  0  0
   12.5850    2.9680   22.5569 C   0  0  0  0  0  0  0  0  0  0  0  0
   12.2011    1.3105   22.6871 S   0  0  0  0  0  0  0  0  0  0  0  0
  1  2  2  0
  2  3  1  0
  3  4  1  0
  4  5  1  0
  5  6  2  0
  6  7  1  0
  7  8  2  0
  8  9  1  0
  9 10  2  0
  2 11  1  0
 11 12  1  0
 12 13  1  0
 13 14  1  0
 14 15  2  0
 15 16  1  0
 16 17  2  0
 17 18  1  0
 18 19  2  0
 12 20  1  0
 20 21  2  0
 21 22  1  0
 22 23  2  0
 23 24  1  0
 10  5  1  0
 19 14  1  0
 24 20  1  0
M  END
