CVD-0002894|dock_bobby27042020.18|mol2|20|dock3
     RDKit          3D

 18 18  0  0  0  0  0  0  0  0999 V2000
    9.7028   -7.3715   26.0408 O   0  0  0  0  0  0  0  0  0  0  0  0
    9.6398   -6.0358   26.5103 C   0  0  0  0  0  0  0  0  0  0  0  0
    9.5852   -5.0341   25.3827 C   0  0  0  0  0  0  0  0  0  0  0  0
   10.7343   -4.6619   24.7034 C   0  0  0  0  0  0  0  0  0  0  0  0
   10.6845   -3.7409   23.6721 C   0  0  0  0  0  0  0  0  0  0  0  0
    9.4849   -3.1621   23.2891 C   0  0  0  0  0  0  0  0  0  0  0  0
    9.4302   -2.1603   22.1612 C   0  0  0  0  0  0  0  0  0  0  0  0
   10.2834   -0.9215   22.4007 C   0  0  0  0  0  0  0  0  0  0  0  0
    9.7475    0.3078   21.6941 C   0  0  0  0  0  0  0  0  0  0  0  0
    9.1775   -0.0118   20.3930 N   0  0  0  0  0  0  0  0  0  0  0  0
    7.9955    0.4480   19.9917 C   0  0  0  0  0  0  0  0  0  0  0  0
    7.2947    1.1768   20.6870 O   0  0  0  0  0  0  0  0  0  0  0  0
    7.5429    0.0076   18.6156 C   0  0  0  0  0  0  0  0  0  0  0  0
    6.1255    0.4369   18.3398 C   0  0  0  0  0  0  0  0  0  0  0  0
    5.9839    1.1528   17.2505 O   0  0  0  0  0  0  0  0  0  0  0  0
    5.2055    0.1516   19.0745 O   0  0  0  0  0  0  0  0  0  0  0  0
    8.3360   -3.5348   23.9689 C   0  0  0  0  0  0  0  0  0  0  0  0
    8.3853   -4.4558   25.0002 C   0  0  0  0  0  0  0  0  0  0  0  0
  1  2  1  0
  2  3  1  0
  3  4  2  0
  4  5  1  0
  5  6  2  0
  6  7  1  0
  7  8  1  0
  8  9  1  0
  9 10  1  0
 10 11  1  0
 11 12  2  0
 11 13  1  0
 13 14  1  0
 14 15  1  0
 14 16  2  0
  6 17  1  0
 17 18  2  0
 18  3  1  0
M  END
