CVD-0002138|dock_bobby27042020.35|mol2|29|dock3
     RDKit          3D

 26 29  0  0  0  0  0  0  0  0999 V2000
   13.6677    4.5493   21.2965 N   0  0  0  0  0  0  0  0  0  0  0  0
   13.2259    4.8519   22.6760 C   0  0  0  0  0  0  0  0  0  0  0  0
   12.0739    3.9672   23.1318 C   0  0  0  0  0  0  0  0  0  0  0  0
   10.8773    4.4903   22.5488 O   0  0  0  0  0  0  0  0  0  0  0  0
    9.7337    3.7046   22.9157 C   0  0  0  0  0  0  0  0  0  0  0  0
    9.8142    2.3429   22.2806 C   0  0  0  0  0  0  0  0  0  0  0  0
   11.1995    1.7520   22.3155 C   0  0  0  0  0  0  0  0  0  0  0  0
   11.4308    0.4228   21.9268 C   0  0  0  0  0  0  0  0  0  0  0  0
   10.4141   -0.4096   21.5439 O   0  0  0  0  0  0  0  0  0  0  0  0
   12.7105   -0.1250   22.0148 C   0  0  0  0  0  0  0  0  0  0  0  0
   12.8957   -1.4297   21.6853 O   0  0  0  0  0  0  0  0  0  0  0  0
   13.7690    0.6375   22.4874 C   0  0  0  0  0  0  0  0  0  0  0  0
   13.5386    1.9455   22.8694 C   0  0  0  0  0  0  0  0  0  0  0  0
   12.2636    2.5074   22.7870 C   0  0  0  0  0  0  0  0  0  0  0  0
    8.4961    4.4890   22.4822 C   0  0  0  0  0  0  0  0  0  0  0  0
    7.2167    3.7105   22.7835 C   0  0  0  0  0  0  0  0  0  0  0  0
    5.9856    4.5731   22.4543 C   0  0  0  0  0  0  0  0  0  0  0  0
    6.0828    5.9930   23.1033 C   0  0  0  0  0  0  0  0  0  0  0  0
    7.3421    6.6334   22.7565 N   0  0  0  0  0  0  0  0  0  0  0  0
    7.3940    6.9045   21.3182 C   0  0  0  0  0  0  0  0  0  0  0  0
    6.4300    7.9658   20.8908 C   0  0  0  0  0  0  0  0  0  0  0  0
    6.0206    8.9845   21.6793 C   0  0  0  0  0  0  0  0  0  0  0  0
    4.9266    9.9789   20.8362 S   0  0  0  0  0  0  0  0  0  0  0  0
    5.0853    8.9649   19.4737 C   0  0  0  0  0  0  0  0  0  0  0  0
    5.8905    7.9550   19.6199 N   0  0  0  0  0  0  0  0  0  0  0  0
    8.4864    5.8349   23.1906 C   0  0  0  0  0  0  0  0  0  0  0  0
  1  2  1  0
  2  3  1  0
  3  4  1  0
  4  5  1  0
  5  6  1  0
  6  7  1  0
  7  8  2  0
  8  9  1  0
  8 10  1  0
 10 11  1  0
 10 12  2  0
 12 13  1  0
 13 14  2  0
  5 15  1  0
 15 16  1  0
 16 17  1  0
 17 18  1  0
 18 19  1  0
 19 20  1  0
 20 21  1  0
 21 22  2  0
 22 23  1  0
 23 24  1  0
 24 25  2  0
 19 26  1  0
 14  3  1  0
 26 15  1  0
 14  7  1  0
 25 21  1  0
M  END
