CVD-0003558|dock_bobby27042020.87|mol2|30|dock3
     RDKit          3D

 32 35  0  0  0  0  0  0  0  0999 V2000
   14.2515    6.1039   21.5580 C   0  0  0  0  0  0  0  0  0  0  0  0
   12.8007    5.1245   21.6788 S   0  0  0  0  0  0  0  0  0  0  0  0
   12.4004    4.7155   20.3586 O   0  0  0  0  0  0  0  0  0  0  0  0
   11.8275    5.8243   22.4752 O   0  0  0  0  0  0  0  0  0  0  0  0
   13.2966    3.6685   22.5808 C   0  0  0  0  0  0  0  0  0  0  0  0
   12.2342    2.6083   22.6283 C   0  0  0  0  0  0  0  0  0  0  0  0
   10.8948    2.8183   22.4795 C   0  0  0  0  0  0  0  0  0  0  0  0
   10.2125    1.6363   22.5749 N   0  0  0  0  0  0  0  0  0  0  0  0
   11.1165    0.6251   22.7897 C   0  0  0  0  0  0  0  0  0  0  0  0
   10.8999   -0.7542   22.9481 C   0  0  0  0  0  0  0  0  0  0  0  0
   12.0194   -1.5552   23.1678 C   0  0  0  0  0  0  0  0  0  0  0  0
   13.2657   -0.9760   23.2127 C   0  0  0  0  0  0  0  0  0  0  0  0
   14.3365   -1.7873   23.4268 F   0  0  0  0  0  0  0  0  0  0  0  0
   13.5002    0.3690   23.0559 C   0  0  0  0  0  0  0  0  0  0  0  0
   12.4016    1.1977   22.8359 C   0  0  0  0  0  0  0  0  0  0  0  0
    9.5077   -1.3799   22.8971 C   0  0  0  0  0  0  0  0  0  0  0  0
    9.4978   -2.8087   23.1530 N   0  0  0  0  0  0  0  0  0  0  0  0
    9.1070   -3.4244   24.3437 C   0  0  0  0  0  0  0  0  0  0  0  0
    8.5729   -4.7060   24.3333 C   0  0  0  0  0  0  0  0  0  0  0  0
    8.2008   -5.2971   25.5281 C   0  0  0  0  0  0  0  0  0  0  0  0
    8.3745   -4.5903   26.6959 C   0  0  0  0  0  0  0  0  0  0  0  0
    8.8811   -3.3575   26.7368 N   0  0  0  0  0  0  0  0  0  0  0  0
    9.2290   -2.7920   25.5769 C   0  0  0  0  0  0  0  0  0  0  0  0
    8.7792   -1.1306   21.5643 C   0  0  0  0  0  0  0  0  0  0  0  0
    9.3691   -1.2207   20.4912 O   0  0  0  0  0  0  0  0  0  0  0  0
    7.4695   -0.8159   21.7203 N   0  0  0  0  0  0  0  0  0  0  0  0
    6.4635   -0.5189   20.7675 C   0  0  0  0  0  0  0  0  0  0  0  0
    5.3037    0.1111   21.2006 C   0  0  0  0  0  0  0  0  0  0  0  0
    4.3186    0.4042   20.2789 C   0  0  0  0  0  0  0  0  0  0  0  0
    4.4089    0.1179   18.9806 N   0  0  0  0  0  0  0  0  0  0  0  0
    5.5258   -0.4864   18.5759 C   0  0  0  0  0  0  0  0  0  0  0  0
    6.5707   -0.8236   19.4139 C   0  0  0  0  0  0  0  0  0  0  0  0
  1  2  1  0
  2  3  2  0
  2  4  2  0
  2  5  1  0
  5  6  1  0
  6  7  2  0
  7  8  1  0
  8  9  1  0
  9 10  2  0
 10 11  1  0
 11 12  2  0
 12 13  1  0
 12 14  1  0
 14 15  2  0
 10 16  1  0
 16 17  1  0
 17 18  1  0
 18 19  2  0
 19 20  1  0
 20 21  2  0
 21 22  1  0
 22 23  2  0
 16 24  1  0
 24 25  2  0
 24 26  1  0
 26 27  1  0
 27 28  2  0
 28 29  1  0
 29 30  2  0
 30 31  1  0
 31 32  2  0
 15  6  1  0
 23 18  1  0
 32 27  1  0
 15  9  1  0
M  END
