CVD-0002804|dock_bobby27042020.47|mol2|19|dock1
     RDKit          3D

 21 23  0  0  0  0  0  0  0  0999 V2000
    6.7486   -1.0287   18.6388 C   0  0  0  0  0  0  0  0  0  0  0  0
    6.4103    0.2541   19.3538 C   0  0  0  0  0  0  0  0  0  0  0  0
    5.2525    0.9414   19.0014 C   0  0  0  0  0  0  0  0  0  0  0  0
    4.9231    2.1063   19.6591 C   0  0  0  0  0  0  0  0  0  0  0  0
    5.6658    2.6305   20.6311 N   0  0  0  0  0  0  0  0  0  0  0  0
    6.7905    1.9892   20.9636 C   0  0  0  0  0  0  0  0  0  0  0  0
    7.2076    0.7959   20.3775 C   0  0  0  0  0  0  0  0  0  0  0  0
    8.3805    0.1173   20.7461 N   0  0  0  0  0  0  0  0  0  0  0  0
    9.5073    0.5470   21.4341 C   0  0  0  0  0  0  0  0  0  0  0  0
   10.4561   -0.3240   21.9715 C   0  0  0  0  0  0  0  0  0  0  0  0
   11.5495    0.1950   22.6665 C   0  0  0  0  0  0  0  0  0  0  0  0
   11.6545    1.5810   22.7830 C   0  0  0  0  0  0  0  0  0  0  0  0
   10.6773    2.3895   22.2059 C   0  0  0  0  0  0  0  0  0  0  0  0
   10.7338    3.7303   22.2874 N   0  0  0  0  0  0  0  0  0  0  0  0
    9.6241    1.8760   21.5353 N   0  0  0  0  0  0  0  0  0  0  0  0
   12.5747   -0.7023   23.2655 C   0  0  0  0  0  0  0  0  0  0  0  0
   13.1063   -0.4461   24.5271 C   0  0  0  0  0  0  0  0  0  0  0  0
   14.0618   -1.2797   25.0841 C   0  0  0  0  0  0  0  0  0  0  0  0
   14.5026   -2.3882   24.3956 C   0  0  0  0  0  0  0  0  0  0  0  0
   13.9887   -2.6616   23.1473 C   0  0  0  0  0  0  0  0  0  0  0  0
   13.0367   -1.8270   22.5858 C   0  0  0  0  0  0  0  0  0  0  0  0
  1  2  1  0
  2  3  2  0
  3  4  1  0
  4  5  2  0
  5  6  1  0
  6  7  2  0
  7  8  1  0
  8  9  1  0
  9 10  2  0
 10 11  1  0
 11 12  2  0
 12 13  1  0
 13 14  1  0
 13 15  2  0
 11 16  1  0
 16 17  2  0
 17 18  1  0
 18 19  2  0
 19 20  1  0
 20 21  2  0
  7  2  1  0
 15  9  1  0
 21 16  1  0
M  END
