CVD-0003607|dock_bobby27042020.87|mol2|23|dock2
     RDKit          3D

 26 27  0  0  0  0  0  0  0  0999 V2000
   13.9606    0.4901   22.5953 C   0  0  0  0  0  0  0  0  0  0  0  0
   13.0129    1.6478   22.4122 C   0  0  0  0  0  0  0  0  0  0  0  0
   13.5491    2.9294   22.3299 C   0  0  0  0  0  0  0  0  0  0  0  0
   12.7142    4.0112   22.1657 C   0  0  0  0  0  0  0  0  0  0  0  0
   11.3924    3.8992   22.0796 N   0  0  0  0  0  0  0  0  0  0  0  0
   10.8654    2.6733   22.1585 C   0  0  0  0  0  0  0  0  0  0  0  0
   11.6134    1.5060   22.3246 C   0  0  0  0  0  0  0  0  0  0  0  0
   11.0652    0.1934   22.4108 N   0  0  0  0  0  0  0  0  0  0  0  0
    9.9773   -0.3502   21.7621 C   0  0  0  0  0  0  0  0  0  0  0  0
    9.2736    0.2561   20.9615 O   0  0  0  0  0  0  0  0  0  0  0  0
    9.7839   -1.6658   22.1252 N   0  0  0  0  0  0  0  0  0  0  0  0
    8.7892   -2.5894   21.6948 C   0  0  0  0  0  0  0  0  0  0  0  0
    8.0001   -2.3914   20.5592 C   0  0  0  0  0  0  0  0  0  0  0  0
    7.0549   -3.3518   20.2114 C   0  0  0  0  0  0  0  0  0  0  0  0
    6.9170   -4.4730   21.0175 C   0  0  0  0  0  0  0  0  0  0  0  0
    7.6529   -4.6743   22.1122 N   0  0  0  0  0  0  0  0  0  0  0  0
    8.5802   -3.7642   22.4474 C   0  0  0  0  0  0  0  0  0  0  0  0
    9.3667   -4.1289   23.6819 C   0  0  0  0  0  0  0  0  0  0  0  0
    8.9621   -5.4660   24.2776 C   0  0  0  0  0  0  0  0  0  0  0  0
    9.8896   -5.8747   25.3395 N   0  0  0  0  0  0  0  0  0  0  0  0
    9.4795   -5.6618   26.8748 S   0  0  0  0  0  0  0  0  0  0  0  0
    8.7968   -4.0561   27.0242 C   0  0  0  0  0  0  0  0  0  0  0  0
   10.6869   -5.7039   27.6406 O   0  0  0  0  0  0  0  0  0  0  0  0
    8.4505   -6.6108   27.1691 O   0  0  0  0  0  0  0  0  0  0  0  0
    6.2366   -3.1796   19.0365 C   0  0  0  0  0  0  0  0  0  0  0  0
    5.6137   -3.0545   18.0872 N   0  0  0  0  0  0  0  0  0  0  0  0
  1  2  1  0
  2  3  2  0
  3  4  1  0
  4  5  2  0
  5  6  1  0
  6  7  2  0
  7  8  1  0
  8  9  1  0
  9 10  2  0
  9 11  1  0
 11 12  1  0
 12 13  2  0
 13 14  1  0
 14 15  2  0
 15 16  1  0
 16 17  2  0
 17 18  1  0
 18 19  1  0
 19 20  1  0
 20 21  1  0
 21 22  1  0
 21 23  2  0
 21 24  2  0
 14 25  1  0
 25 26  3  0
  7  2  1  0
 17 12  1  0
M  END
