CVD-0003229|dock_bobby27042020.46|mol2|2|dock3
     RDKit          3D

 30 34  0  0  0  0  0  0  0  0999 V2000
   13.6746   -2.8207   25.3986 C   0  0  0  0  0  0  0  0  0  0  0  0
   13.9338   -1.9061   24.2106 C   0  0  0  0  0  0  0  0  0  0  0  0
   12.7671   -0.9699   23.8148 C   0  0  0  0  0  0  0  0  0  0  0  0
   13.1747    0.3233   23.1317 C   0  0  0  0  0  0  0  0  0  0  0  0
   12.6681    0.3510   24.5435 C   0  0  0  0  0  0  0  0  0  0  0  0
   11.4724   -1.6271   23.3268 C   0  0  0  0  0  0  0  0  0  0  0  0
   11.2909   -1.9301   21.9838 C   0  0  0  0  0  0  0  0  0  0  0  0
   10.1205   -2.5071   21.5246 C   0  0  0  0  0  0  0  0  0  0  0  0
    9.0804   -2.8124   22.3959 C   0  0  0  0  0  0  0  0  0  0  0  0
    9.2685   -2.5325   23.7460 C   0  0  0  0  0  0  0  0  0  0  0  0
   10.4369   -1.9446   24.1976 C   0  0  0  0  0  0  0  0  0  0  0  0
    7.8635   -3.4009   21.8922 N   0  0  0  0  0  0  0  0  0  0  0  0
    7.5560   -4.7724   22.3038 C   0  0  0  0  0  0  0  0  0  0  0  0
    6.1173   -4.9822   22.7051 C   0  0  0  0  0  0  0  0  0  0  0  0
    5.2865   -6.0238   22.2239 C   0  0  0  0  0  0  0  0  0  0  0  0
    4.0228   -6.0206   22.7322 C   0  0  0  0  0  0  0  0  0  0  0  0
    3.8452   -4.7252   23.8159 S   0  0  0  0  0  0  0  0  0  0  0  0
    5.4460   -4.1973   23.5926 C   0  0  0  0  0  0  0  0  0  0  0  0
    6.9921   -2.7958   21.0252 C   0  0  0  0  0  0  0  0  0  0  0  0
    5.9892   -3.3399   20.5813 O   0  0  0  0  0  0  0  0  0  0  0  0
    7.2690   -1.3547   20.5959 C   0  0  0  0  0  0  0  0  0  0  0  0
    6.0767   -0.5327   20.6721 N   0  0  0  0  0  0  0  0  0  0  0  0
    5.3127   -0.5320   21.7957 N   0  0  0  0  0  0  0  0  0  0  0  0
    4.3336    0.3135   21.6421 N   0  0  0  0  0  0  0  0  0  0  0  0
    4.4714    0.9085   20.4079 C   0  0  0  0  0  0  0  0  0  0  0  0
    3.7146    1.8823   19.7578 C   0  0  0  0  0  0  0  0  0  0  0  0
    4.1076    2.2993   18.4953 C   0  0  0  0  0  0  0  0  0  0  0  0
    5.2259    1.7670   17.8839 C   0  0  0  0  0  0  0  0  0  0  0  0
    5.9893    0.7963   18.5130 C   0  0  0  0  0  0  0  0  0  0  0  0
    5.5948    0.3755   19.7774 C   0  0  0  0  0  0  0  0  0  0  0  0
  1  2  1  0
  2  3  1  0
  3  4  1  0
  4  5  1  0
  3  6  1  0
  6  7  2  0
  7  8  1  0
  8  9  2  0
  9 10  1  0
 10 11  2  0
  9 12  1  0
 12 13  1  0
 13 14  1  0
 14 15  1  0
 15 16  2  0
 16 17  1  0
 17 18  1  0
 12 19  1  0
 19 20  2  0
 19 21  1  0
 21 22  1  0
 22 23  1  0
 23 24  2  0
 24 25  1  0
 25 26  2  0
 26 27  1  0
 27 28  2  0
 28 29  1  0
 29 30  2  0
  5  3  1  0
 11  6  1  0
 18 14  2  0
 30 22  1  0
 30 25  1  0
M  END
