CVD-0003996|dock_bobby27042020.86|mol2|10|dock3
     RDKit          3D

 28 29  0  0  0  0  0  0  0  0999 V2000
   12.9816    4.9710   21.2932 O   0  0  0  0  0  0  0  0  0  0  0  0
   13.4351    4.8366   22.6063 C   0  0  0  0  0  0  0  0  0  0  0  0
   13.6893    3.4227   22.8342 N   0  0  0  0  0  0  0  0  0  0  0  0
   12.7547    2.4880   22.6259 C   0  0  0  0  0  0  0  0  0  0  0  0
   11.6162    2.7380   22.2326 O   0  0  0  0  0  0  0  0  0  0  0  0
   13.2208    1.0534   22.9208 C   0  0  0  0  0  0  0  0  0  0  0  0
   14.3888    0.7460   22.9958 O   0  0  0  0  0  0  0  0  0  0  0  0
   12.1483    0.2054   23.0800 O   0  0  0  0  0  0  0  0  0  0  0  0
   12.3219   -1.1303   23.3516 C   0  0  0  0  0  0  0  0  0  0  0  0
   13.3900   -1.7006   23.4788 O   0  0  0  0  0  0  0  0  0  0  0  0
   10.9894   -1.8146   23.4749 C   0  0  0  0  0  0  0  0  0  0  0  0
   10.0468   -1.5089   22.3251 C   0  0  0  0  0  0  0  0  0  0  0  0
    8.7138   -2.2025   22.4626 C   0  0  0  0  0  0  0  0  0  0  0  0
    8.6326   -3.2722   23.0541 O   0  0  0  0  0  0  0  0  0  0  0  0
    7.5144   -1.5615   21.8670 C   0  0  0  0  0  0  0  0  0  0  0  0
    6.4405   -1.6712   22.4499 O   0  0  0  0  0  0  0  0  0  0  0  0
    7.6172   -0.7831   20.5352 C   0  0  0  0  0  0  0  0  0  0  0  0
    8.6743   -0.8114   19.9121 O   0  0  0  0  0  0  0  0  0  0  0  0
    6.4903   -0.0016   19.9502 C   0  0  0  0  0  0  0  0  0  0  0  0
    5.5608    0.5731   20.7192 C   0  0  0  0  0  0  0  0  0  0  0  0
    4.4578    1.4464   20.1981 C   0  0  0  0  0  0  0  0  0  0  0  0
    4.6836    1.8559   18.7547 C   0  0  0  0  0  0  0  0  0  0  0  0
    5.2147    0.7300   17.9150 C   0  0  0  0  0  0  0  0  0  0  0  0
    6.5314    0.2089   18.4599 C   0  0  0  0  0  0  0  0  0  0  0  0
   12.6382    5.4432   23.7219 C   0  0  0  0  0  0  0  0  0  0  0  0
   11.4636    5.8539   24.2265 C   0  0  0  0  0  0  0  0  0  0  0  0
   12.5781    6.0139   25.0012 C   0  0  0  0  0  0  0  0  0  0  0  0
   13.1133    6.3884   26.0508 O   0  0  0  0  0  0  0  0  0  0  0  0
  1  2  1  0
  2  3  1  0
  3  4  1  0
  4  5  2  0
  4  6  1  0
  6  7  2  0
  6  8  1  0
  8  9  1  0
  9 10  2  0
  9 11  1  0
 11 12  1  0
 12 13  1  0
 13 14  2  0
 13 15  1  0
 15 16  2  0
 15 17  1  0
 17 18  2  0
 17 19  1  0
 19 20  2  0
 20 21  1  0
 21 22  1  0
 22 23  1  0
 23 24  1  0
  2 25  1  0
 25 26  2  0
 26 27  1  0
 27 28  2  0
 24 19  1  0
 27 25  1  0
M  END
