CVD-0003332|dock_bobby27042020.60|mol2|11|dock1
     RDKit          3D

 26 28  0  0  0  0  0  0  0  0999 V2000
    1.7902    3.2621   17.8968 O   0  0  0  0  0  0  0  0  0  0  0  0
    1.9684    2.8044   19.0186 C   0  0  0  0  0  0  0  0  0  0  0  0
    1.0844    2.4499   20.2163 C   0  0  0  0  0  0  0  0  0  0  0  0
    2.3996    1.9446   20.8704 C   0  0  0  0  0  0  0  0  0  0  0  0
    3.0880    2.4203   19.6597 N   0  0  0  0  0  0  0  0  0  0  0  0
    4.4789    2.2790   19.2180 C   0  0  0  0  0  0  0  0  0  0  0  0
    4.9432    0.8610   19.2943 C   0  0  0  0  0  0  0  0  0  0  0  0
    5.3917    0.1606   18.2563 C   0  0  0  0  0  0  0  0  0  0  0  0
    5.9161   -1.4737   18.4326 S   0  0  0  0  0  0  0  0  0  0  0  0
    4.8016   -2.3034   18.7764 O   0  0  0  0  0  0  0  0  0  0  0  0
    6.7239   -1.8449   17.3108 O   0  0  0  0  0  0  0  0  0  0  0  0
    6.9146   -1.4921   19.7378 N   0  0  0  0  0  0  0  0  0  0  0  0
    7.1136   -2.7795   20.4309 C   0  0  0  0  0  0  0  0  0  0  0  0
    7.6802   -2.4961   21.8097 C   0  0  0  0  0  0  0  0  0  0  0  0
    8.9338   -1.7594   21.7122 N   0  0  0  0  0  0  0  0  0  0  0  0
    9.4952   -1.5219   23.0502 C   0  0  0  0  0  0  0  0  0  0  0  0
   10.9283   -1.0460   23.0252 C   0  0  0  0  0  0  0  0  0  0  0  0
   11.4103   -0.2003   24.0124 C   0  0  0  0  0  0  0  0  0  0  0  0
   12.7250    0.2351   23.9936 C   0  0  0  0  0  0  0  0  0  0  0  0
   13.5778   -0.1731   22.9823 C   0  0  0  0  0  0  0  0  0  0  0  0
   13.1083   -1.0224   21.9863 C   0  0  0  0  0  0  0  0  0  0  0  0
   11.7848   -1.4564   22.0115 C   0  0  0  0  0  0  0  0  0  0  0  0
   13.9854   -1.4562   20.9270 C   0  0  0  0  0  0  0  0  0  0  0  0
   14.6717   -1.7727   20.0705 N   0  0  0  0  0  0  0  0  0  0  0  0
    8.7080   -0.4952   21.0240 C   0  0  0  0  0  0  0  0  0  0  0  0
    8.1742   -0.7325   19.6277 C   0  0  0  0  0  0  0  0  0  0  0  0
  1  2  2  0
  2  3  1  0
  3  4  1  0
  4  5  1  0
  5  6  1  0
  6  7  1  0
  7  8  2  0
  8  9  1  0
  9 10  2  0
  9 11  2  0
  9 12  1  0
 12 13  1  0
 13 14  1  0
 14 15  1  0
 15 16  1  0
 16 17  1  0
 17 18  2  0
 18 19  1  0
 19 20  2  0
 20 21  1  0
 21 22  2  0
 21 23  1  0
 23 24  3  0
 15 25  1  0
 25 26  1  0
  5  2  1  0
 26 12  1  0
 22 17  1  0
M  END
