CVD-0000516|dock_bobby27042020.70|mol2|1|dock1
     RDKit          3D

 24 26  0  0  0  0  0  0  0  0999 V2000
   14.4092   -1.7894   22.1052 O   0  0  0  0  0  0  0  0  0  0  0  0
   13.1577   -1.3851   21.5765 C   0  0  0  0  0  0  0  0  0  0  0  0
   12.8366    0.0669   21.8486 C   0  0  0  0  0  0  0  0  0  0  0  0
   13.8179    0.8829   22.4053 C   0  0  0  0  0  0  0  0  0  0  0  0
   13.5342    2.2073   22.6543 C   0  0  0  0  0  0  0  0  0  0  0  0
   12.3561    2.7643   22.3894 N   0  0  0  0  0  0  0  0  0  0  0  0
   11.4086    1.9888   21.8543 C   0  0  0  0  0  0  0  0  0  0  0  0
   11.5818    0.6364   21.5592 C   0  0  0  0  0  0  0  0  0  0  0  0
   10.5728   -0.1903   20.9884 N   0  0  0  0  0  0  0  0  0  0  0  0
    9.2266   -0.1809   21.1536 C   0  0  0  0  0  0  0  0  0  0  0  0
    8.6007    0.5902   21.8722 O   0  0  0  0  0  0  0  0  0  0  0  0
    8.5281   -1.2508   20.3385 C   0  0  0  0  0  0  0  0  0  0  0  0
    7.0510   -1.5748   20.6608 C   0  0  0  0  0  0  0  0  0  0  0  0
    6.1262   -0.3537   20.4474 C   0  0  0  0  0  0  0  0  0  0  0  0
    5.9664    0.0531   19.0591 N   0  0  0  0  0  0  0  0  0  0  0  0
    6.7535    0.7899   18.2868 C   0  0  0  0  0  0  0  0  0  0  0  0
    6.2025    0.9282   17.1136 N   0  0  0  0  0  0  0  0  0  0  0  0
    5.0307    0.2522   17.1815 N   0  0  0  0  0  0  0  0  0  0  0  0
    4.8662   -0.2678   18.3596 N   0  0  0  0  0  0  0  0  0  0  0  0
    7.0281   -1.8638   22.1595 C   0  0  0  0  0  0  0  0  0  0  0  0
    7.7640   -3.1499   22.4777 C   0  0  0  0  0  0  0  0  0  0  0  0
    7.1905   -4.3244   21.6996 C   0  0  0  0  0  0  0  0  0  0  0  0
    7.1986   -4.0417   20.2061 C   0  0  0  0  0  0  0  0  0  0  0  0
    6.4708   -2.7443   19.8780 C   0  0  0  0  0  0  0  0  0  0  0  0
  1  2  1  0
  2  3  1  0
  3  4  2  0
  4  5  1  0
  5  6  2  0
  6  7  1  0
  7  8  2  0
  8  9  1  0
  9 10  1  0
 10 11  2  0
 10 12  1  0
 12 13  1  0
 13 14  1  0
 14 15  1  0
 15 16  1  0
 16 17  2  0
 17 18  1  0
 18 19  2  0
 13 20  1  0
 20 21  1  0
 21 22  1  0
 22 23  1  0
 23 24  1  0
  8  3  1  0
 24 13  1  0
 19 15  1  0
M  END
