CVD-0003063|dock_bobby27042020.61|mol2|8|dock1
     RDKit          3D

 32 35  0  0  0  0  0  0  0  0999 V2000
   14.2665    6.9160   22.4088 N   0  0  0  0  0  0  0  0  0  0  0  0
   14.1362    5.3207   22.3739 S   0  0  0  0  0  0  0  0  0  0  0  0
   14.4807    4.8965   21.0501 O   0  0  0  0  0  0  0  0  0  0  0  0
   14.8873    4.8102   23.4813 O   0  0  0  0  0  0  0  0  0  0  0  0
   12.4432    4.8912   22.6418 C   0  0  0  0  0  0  0  0  0  0  0  0
   11.5711    5.8294   23.1691 C   0  0  0  0  0  0  0  0  0  0  0  0
   10.2556    5.4708   23.3953 C   0  0  0  0  0  0  0  0  0  0  0  0
    9.7937    4.1915   23.1044 C   0  0  0  0  0  0  0  0  0  0  0  0
    8.3582    3.8179   23.3267 C   0  0  0  0  0  0  0  0  0  0  0  0
    8.1972    2.3200   23.4691 C   0  0  0  0  0  0  0  0  0  0  0  0
    8.8761    1.5902   22.3395 C   0  0  0  0  0  0  0  0  0  0  0  0
    8.7479    0.0681   22.4144 C   0  0  0  0  0  0  0  0  0  0  0  0
    9.5241   -0.6202   23.5426 C   0  0  0  0  0  0  0  0  0  0  0  0
    8.8313   -1.8037   24.0891 N   0  0  0  0  0  0  0  0  0  0  0  0
    9.4224   -2.2219   25.3709 C   0  0  0  0  0  0  0  0  0  0  0  0
    8.6787   -3.3996   25.9451 C   0  0  0  0  0  0  0  0  0  0  0  0
    8.6590   -4.5140   24.9924 N   0  0  0  0  0  0  0  0  0  0  0  0
    8.1430   -4.1214   23.6824 C   0  0  0  0  0  0  0  0  0  0  0  0
    8.9213   -2.9353   23.1651 C   0  0  0  0  0  0  0  0  0  0  0  0
    8.9297   -5.8106   25.2720 C   0  0  0  0  0  0  0  0  0  0  0  0
    8.8946   -6.6717   24.4017 O   0  0  0  0  0  0  0  0  0  0  0  0
    9.2742   -6.1857   26.7008 C   0  0  0  0  0  0  0  0  0  0  0  0
    7.9746   -5.7898   27.8328 Cl  0  0  0  0  0  0  0  0  0  0  0  0
   10.9130   -0.9505   23.0792 C   0  0  0  0  0  0  0  0  0  0  0  0
   12.1032   -0.7847   23.7746 C   0  0  0  0  0  0  0  0  0  0  0  0
   13.2288   -1.1888   23.0611 C   0  0  0  0  0  0  0  0  0  0  0  0
   12.9089   -1.6553   21.8394 C   0  0  0  0  0  0  0  0  0  0  0  0
   14.0870   -2.3046   20.5381 Br  0  0  0  0  0  0  0  0  0  0  0  0
   11.2242   -1.6180   21.5164 S   0  0  0  0  0  0  0  0  0  0  0  0
   10.2943    1.9340   22.3550 N   0  0  0  0  0  0  0  0  0  0  0  0
   10.6900    3.2516   22.5703 C   0  0  0  0  0  0  0  0  0  0  0  0
   12.0150    3.6076   22.3409 C   0  0  0  0  0  0  0  0  0  0  0  0
  1  2  1  0
  2  3  2  0
  2  4  2  0
  2  5  1  0
  5  6  2  0
  6  7  1  0
  7  8  2  0
  8  9  1  0
  9 10  1  0
 10 11  1  0
 11 12  1  0
 13 12  1  0
 13 14  1  0
 14 15  1  0
 15 16  1  0
 16 17  1  0
 17 18  1  0
 18 19  1  0
 17 20  1  0
 20 21  2  0
 20 22  1  0
 22 23  1  0
 13 24  1  0
 24 25  2  0
 25 26  1  0
 26 27  2  0
 27 28  1  0
 27 29  1  0
 11 30  1  0
 30 31  1  0
 31 32  2  0
 32  5  1  0
 31  8  1  0
 19 14  1  0
 29 24  1  0
M  END
