CVD-0001533|dock_bobby27042020.37|mol2|48|dock1
     RDKit          3D

 17 19  0  0  0  0  0  0  0  0999 V2000
   11.8472   -1.1247   22.6963 C   0  0  0  0  0  0  0  0  0  0  0  0
   10.7138   -2.0503   22.6692 N   0  0  0  0  0  0  0  0  0  0  0  0
    9.5768   -1.7977   23.5846 C   0  0  0  0  0  0  0  0  0  0  0  0
    8.6072   -1.9008   22.4100 C   0  0  0  0  0  0  0  0  0  0  0  0
    9.8045   -2.1473   21.5035 C   0  0  0  0  0  0  0  0  0  0  0  0
    7.7090   -0.8101   22.0893 O   0  0  0  0  0  0  0  0  0  0  0  0
    7.0655   -0.7450   20.8708 C   0  0  0  0  0  0  0  0  0  0  0  0
    7.0398    0.4668   20.2016 C   0  0  0  0  0  0  0  0  0  0  0  0
    6.4015    0.5632   18.9766 C   0  0  0  0  0  0  0  0  0  0  0  0
    5.7923   -0.5405   18.4213 C   0  0  0  0  0  0  0  0  0  0  0  0
    5.8185   -1.7460   19.0882 C   0  0  0  0  0  0  0  0  0  0  0  0
    6.4531   -1.8584   20.3144 C   0  0  0  0  0  0  0  0  0  0  0  0
   12.7263   -1.3367   23.8880 C   0  0  0  0  0  0  0  0  0  0  0  0
   13.0944   -0.4868   24.8801 C   0  0  0  0  0  0  0  0  0  0  0  0
   13.9089   -1.1873   25.7193 N   0  0  0  0  0  0  0  0  0  0  0  0
   14.0138   -2.4249   25.2247 C   0  0  0  0  0  0  0  0  0  0  0  0
   13.3129   -2.5670   24.1111 N   0  0  0  0  0  0  0  0  0  0  0  0
  1  2  1  0
  2  3  1  0
  3  4  1  0
  4  5  1  0
  4  6  1  0
  6  7  1  0
  7  8  2  0
  8  9  1  0
  9 10  2  0
 10 11  1  0
 11 12  2  0
  1 13  1  0
 13 14  2  0
 14 15  1  0
 15 16  1  0
 16 17  2  0
  5  2  1  0
 12  7  1  0
 17 13  1  0
M  END
