CVD-0000243|dock_bobby27042020.71|mol2|4|dock1
     RDKit          3D

 26 29  0  0  0  0  0  0  0  0999 V2000
    7.9157   -0.1067   19.2824 O   0  0  0  0  0  0  0  0  0  0  0  0
    7.5045   -1.0634   19.9326 C   0  0  0  0  0  0  0  0  0  0  0  0
    6.4310   -1.7743   19.5344 N   0  0  0  0  0  0  0  0  0  0  0  0
    5.7088   -1.4434   18.3148 C   0  0  0  0  0  0  0  0  0  0  0  0
    5.1479   -0.0439   18.3263 C   0  0  0  0  0  0  0  0  0  0  0  0
    4.4998    0.4714   19.4351 C   0  0  0  0  0  0  0  0  0  0  0  0
    4.0145    1.7639   19.3531 C   0  0  0  0  0  0  0  0  0  0  0  0
    4.2111    2.4439   18.1738 C   0  0  0  0  0  0  0  0  0  0  0  0
    4.8341    1.9205   17.1334 N   0  0  0  0  0  0  0  0  0  0  0  0
    5.3060    0.6636   17.2111 N   0  0  0  0  0  0  0  0  0  0  0  0
    8.0443   -1.5344   21.1047 N   0  0  0  0  0  0  0  0  0  0  0  0
    9.1586   -1.0850   21.8567 C   0  0  0  0  0  0  0  0  0  0  0  0
   10.0271   -1.9443   22.5219 C   0  0  0  0  0  0  0  0  0  0  0  0
   11.0969   -1.4264   23.2305 C   0  0  0  0  0  0  0  0  0  0  0  0
   11.3152   -0.0607   23.2881 C   0  0  0  0  0  0  0  0  0  0  0  0
   10.4522    0.8201   22.6401 C   0  0  0  0  0  0  0  0  0  0  0  0
    9.3841    0.2858   21.9256 C   0  0  0  0  0  0  0  0  0  0  0  0
   10.6023    2.2911   22.6624 C   0  0  0  0  0  0  0  0  0  0  0  0
    9.5248    3.0622   22.8033 N   0  0  0  0  0  0  0  0  0  0  0  0
    9.9606    4.3634   22.8338 C   0  0  0  0  0  0  0  0  0  0  0  0
   11.3169    4.3734   22.7095 C   0  0  0  0  0  0  0  0  0  0  0  0
   12.2714    5.5181   22.6825 C   0  0  0  0  0  0  0  0  0  0  0  0
   13.7133    5.0631   22.9194 C   0  0  0  0  0  0  0  0  0  0  0  0
   14.0147    3.8229   22.0868 C   0  0  0  0  0  0  0  0  0  0  0  0
   13.1624    2.6501   22.5408 C   0  0  0  0  0  0  0  0  0  0  0  0
   11.7459    3.0674   22.5993 N   0  0  0  0  0  0  0  0  0  0  0  0
  1  2  2  0
  2  3  1  0
  3  4  1  0
  4  5  1  0
  5  6  2  0
  6  7  1  0
  7  8  2  0
  8  9  1  0
  9 10  2  0
  2 11  1  0
 11 12  1  0
 12 13  2  0
 13 14  1  0
 14 15  2  0
 15 16  1  0
 16 17  2  0
 16 18  1  0
 18 19  2  0
 19 20  1  0
 20 21  2  0
 21 22  1  0
 22 23  1  0
 23 24  1  0
 24 25  1  0
 25 26  1  0
 10  5  1  0
 17 12  1  0
 26 18  1  0
 26 21  1  0
M  END
