CVD-0001390|dock_bobby27042020.9|mol2|48|dock2
     RDKit          3D

 18 20  0  0  0  0  0  0  0  0999 V2000
    9.5727    0.5019   24.8740 O   0  0  0  0  0  0  0  0  0  0  0  0
   10.0341   -0.0632   23.8814 C   0  0  0  0  0  0  0  0  0  0  0  0
    9.3018   -0.1293   22.7043 N   0  0  0  0  0  0  0  0  0  0  0  0
    9.7701   -0.7263   21.6300 C   0  0  0  0  0  0  0  0  0  0  0  0
    9.0822   -0.8115   20.4582 N   0  0  0  0  0  0  0  0  0  0  0  0
    7.7951   -0.3427   20.0896 C   0  0  0  0  0  0  0  0  0  0  0  0
    6.7323   -0.1535   20.9690 C   0  0  0  0  0  0  0  0  0  0  0  0
    5.5228    0.3107   20.4811 C   0  0  0  0  0  0  0  0  0  0  0  0
    5.4044    0.5730   19.1360 C   0  0  0  0  0  0  0  0  0  0  0  0
    6.4023    0.4022   18.2696 N   0  0  0  0  0  0  0  0  0  0  0  0
    7.5652   -0.0462   18.7507 C   0  0  0  0  0  0  0  0  0  0  0  0
   10.9960   -1.3088   21.6195 N   0  0  0  0  0  0  0  0  0  0  0  0
   11.8356   -1.3172   22.7285 C   0  0  0  0  0  0  0  0  0  0  0  0
   13.0893   -1.9200   22.6974 C   0  0  0  0  0  0  0  0  0  0  0  0
   13.8758   -1.8923   23.8381 C   0  0  0  0  0  0  0  0  0  0  0  0
   13.4277   -1.2779   24.9894 C   0  0  0  0  0  0  0  0  0  0  0  0
   12.1808   -0.6758   25.0275 C   0  0  0  0  0  0  0  0  0  0  0  0
   11.3709   -0.6901   23.8935 C   0  0  0  0  0  0  0  0  0  0  0  0
  1  2  2  0
  2  3  1  0
  3  4  2  0
  4  5  1  0
  5  6  1  0
  6  7  2  0
  7  8  1  0
  8  9  2  0
  9 10  1  0
 10 11  2  0
  4 12  1  0
 12 13  1  0
 13 14  2  0
 14 15  1  0
 15 16  2  0
 16 17  1  0
 17 18  2  0
 18  2  1  0
 11  6  1  0
 18 13  1  0
M  END
