CVD-0000576|dock_bobby27042020.98|mol2|10|dock1
     RDKit          3D

 22 24  0  0  0  0  0  0  0  0999 V2000
    8.2624   -1.5700   18.2617 C   0  0  0  0  0  0  0  0  0  0  0  0
    7.3202   -0.9642   19.2702 C   0  0  0  0  0  0  0  0  0  0  0  0
    5.9702   -0.8800   18.9430 C   0  0  0  0  0  0  0  0  0  0  0  0
    5.0810   -0.3358   19.8418 C   0  0  0  0  0  0  0  0  0  0  0  0
    5.4469    0.1253   21.0338 N   0  0  0  0  0  0  0  0  0  0  0  0
    6.7411    0.0498   21.3597 C   0  0  0  0  0  0  0  0  0  0  0  0
    7.7296   -0.4822   20.5296 C   0  0  0  0  0  0  0  0  0  0  0  0
    9.1113   -0.5704   20.8652 N   0  0  0  0  0  0  0  0  0  0  0  0
    9.7967   -0.0222   21.9262 C   0  0  0  0  0  0  0  0  0  0  0  0
    9.2873    0.6713   22.8014 O   0  0  0  0  0  0  0  0  0  0  0  0
   11.1177   -0.3404   21.8940 N   0  0  0  0  0  0  0  0  0  0  0  0
   12.1638    0.0456   22.8329 C   0  0  0  0  0  0  0  0  0  0  0  0
   13.2682   -0.9650   23.1282 C   0  0  0  0  0  0  0  0  0  0  0  0
   12.2304   -0.6830   24.1711 C   0  0  0  0  0  0  0  0  0  0  0  0
   12.5266    1.4770   22.7961 C   0  0  0  0  0  0  0  0  0  0  0  0
   12.7865    2.6431   22.8662 C   0  0  0  0  0  0  0  0  0  0  0  0
   13.0147    4.0514   22.9123 C   0  0  0  0  0  0  0  0  0  0  0  0
   13.8053    4.8331   22.1159 C   0  0  0  0  0  0  0  0  0  0  0  0
   13.6754    6.1071   22.5830 N   0  0  0  0  0  0  0  0  0  0  0  0
   14.3198    7.3020   22.0358 C   0  0  0  0  0  0  0  0  0  0  0  0
   12.8146    6.0485   23.6178 C   0  0  0  0  0  0  0  0  0  0  0  0
   12.3856    4.8266   23.8678 N   0  0  0  0  0  0  0  0  0  0  0  0
  1  2  1  0
  2  3  2  0
  3  4  1  0
  4  5  2  0
  5  6  1  0
  6  7  2  0
  7  8  1  0
  8  9  1  0
  9 10  2  0
  9 11  1  0
 11 12  1  0
 12 13  1  0
 13 14  1  0
 12 15  1  0
 15 16  3  0
 16 17  1  0
 17 18  2  0
 18 19  1  0
 19 20  1  0
 19 21  1  0
 21 22  2  0
  7  2  1  0
 14 12  1  0
 22 17  1  0
M  END
