CVD-0000195|dock_bobby27042020.57|mol2|2|dock1
     RDKit          3D

 29 31  0  0  0  0  0  0  0  0999 V2000
   13.1676   -2.5357   22.6599 C   0  0  0  0  0  0  0  0  0  0  0  0
   11.7220   -2.6647   23.0159 C   0  0  0  0  0  0  0  0  0  0  0  0
   11.3599   -3.4617   23.9990 N   0  0  0  0  0  0  0  0  0  0  0  0
    9.9807   -3.3591   24.0782 N   0  0  0  0  0  0  0  0  0  0  0  0
    9.4993   -2.4963   23.1404 C   0  0  0  0  0  0  0  0  0  0  0  0
    8.0749   -2.1184   22.9093 C   0  0  0  0  0  0  0  0  0  0  0  0
   10.6127   -2.0327   22.4335 C   0  0  0  0  0  0  0  0  0  0  0  0
   10.6246   -1.0490   21.2926 C   0  0  0  0  0  0  0  0  0  0  0  0
    9.9759    0.2751   21.6368 C   0  0  0  0  0  0  0  0  0  0  0  0
    8.9109    0.6109   21.1280 O   0  0  0  0  0  0  0  0  0  0  0  0
   10.6343    1.0410   22.5024 N   0  0  0  0  0  0  0  0  0  0  0  0
   10.1418    2.3460   22.9180 C   0  0  0  0  0  0  0  0  0  0  0  0
   11.1620    3.4474   22.7596 C   0  0  0  0  0  0  0  0  0  0  0  0
   12.3828    3.2024   22.1501 C   0  0  0  0  0  0  0  0  0  0  0  0
   13.3219    4.2072   21.9985 C   0  0  0  0  0  0  0  0  0  0  0  0
   13.0315    5.4708   22.4630 C   0  0  0  0  0  0  0  0  0  0  0  0
   14.2067    6.7423   22.2774 Cl  0  0  0  0  0  0  0  0  0  0  0  0
   11.8268    5.7457   23.0717 C   0  0  0  0  0  0  0  0  0  0  0  0
   10.8986    4.7298   23.2155 C   0  0  0  0  0  0  0  0  0  0  0  0
    9.3771   -4.1504   25.0917 C   0  0  0  0  0  0  0  0  0  0  0  0
    9.9976   -5.2460   25.6855 C   0  0  0  0  0  0  0  0  0  0  0  0
    9.2881   -5.9245   26.6601 C   0  0  0  0  0  0  0  0  0  0  0  0
    8.0114   -5.5161   27.0176 C   0  0  0  0  0  0  0  0  0  0  0  0
    7.4879   -4.4167   26.3693 C   0  0  0  0  0  0  0  0  0  0  0  0
    8.1498   -3.7413   25.4235 N   0  0  0  0  0  0  0  0  0  0  0  0
    7.2400   -6.2425   28.0727 C   0  0  0  0  0  0  0  0  0  0  0  0
    6.6758   -5.4239   28.9534 F   0  0  0  0  0  0  0  0  0  0  0  0
    6.2532   -6.9782   27.5740 F   0  0  0  0  0  0  0  0  0  0  0  0
    7.9947   -7.0756   28.7802 F   0  0  0  0  0  0  0  0  0  0  0  0
  1  2  1  0
  2  3  2  0
  3  4  1  0
  4  5  1  0
  5  6  1  0
  5  7  2  0
  7  8  1  0
  8  9  1  0
  9 10  2  0
  9 11  1  0
 11 12  1  0
 12 13  1  0
 13 14  2  0
 14 15  1  0
 15 16  2  0
 16 17  1  0
 16 18  1  0
 18 19  2  0
  4 20  1  0
 20 21  2  0
 21 22  1  0
 22 23  2  0
 23 24  1  0
 24 25  2  0
 23 26  1  0
 26 27  1  0
 26 28  1  0
 26 29  1  0
  7  2  1  0
 19 13  1  0
 25 20  1  0
M  END
