CVD-0001045|dock_bobby27042020.82|mol2|20|dock2
     RDKit          3D

 30 33  0  0  0  0  0  0  0  0999 V2000
   14.9626    5.5842   23.1154 O   0  0  0  0  0  0  0  0  0  0  0  0
   13.7440    5.7026   23.2268 N   0  0  0  0  0  0  0  0  0  0  0  0
   13.1838    6.7416   23.5323 O   0  0  0  0  0  0  0  0  0  0  0  0
   12.9122    4.5181   22.9761 C   0  0  0  0  0  0  0  0  0  0  0  0
   13.5154    3.3151   22.6589 C   0  0  0  0  0  0  0  0  0  0  0  0
   12.7374    2.2075   22.3821 C   0  0  0  0  0  0  0  0  0  0  0  0
   11.3474    2.2978   22.4235 C   0  0  0  0  0  0  0  0  0  0  0  0
   10.7350    3.5031   22.8324 C   0  0  0  0  0  0  0  0  0  0  0  0
   11.5339    4.6200   23.0637 C   0  0  0  0  0  0  0  0  0  0  0  0
    9.3005    3.6552   23.0433 N   0  0  0  0  0  0  0  0  0  0  0  0
    8.8243    4.7818   22.9193 O   0  0  0  0  0  0  0  0  0  0  0  0
    8.6206    2.7023   23.3829 O   0  0  0  0  0  0  0  0  0  0  0  0
   10.6220    1.1314   22.0121 N   0  0  0  0  0  0  0  0  0  0  0  0
    9.4447    1.3417   21.3111 N   0  0  0  0  0  0  0  0  0  0  0  0
    9.0048    0.1208   20.9919 C   0  0  0  0  0  0  0  0  0  0  0  0
    9.8727   -0.8672   21.4791 C   0  0  0  0  0  0  0  0  0  0  0  0
   10.8976   -0.2123   22.1334 C   0  0  0  0  0  0  0  0  0  0  0  0
   12.0389   -0.8677   22.8105 C   0  0  0  0  0  0  0  0  0  0  0  0
   12.7226   -1.9560   22.2746 C   0  0  0  0  0  0  0  0  0  0  0  0
   13.7663   -2.5524   22.9604 C   0  0  0  0  0  0  0  0  0  0  0  0
   14.1329   -2.0331   24.1712 C   0  0  0  0  0  0  0  0  0  0  0  0
   15.1578   -2.6171   24.8487 F   0  0  0  0  0  0  0  0  0  0  0  0
   13.5114   -0.9496   24.7276 C   0  0  0  0  0  0  0  0  0  0  0  0
   12.4620   -0.3688   24.0382 C   0  0  0  0  0  0  0  0  0  0  0  0
    7.7618   -0.0481   20.2290 C   0  0  0  0  0  0  0  0  0  0  0  0
    7.5822   -1.1302   19.3779 C   0  0  0  0  0  0  0  0  0  0  0  0
    6.3867   -1.2304   18.6877 C   0  0  0  0  0  0  0  0  0  0  0  0
    5.4178   -0.2662   18.8606 C   0  0  0  0  0  0  0  0  0  0  0  0
    5.6821    0.7719   19.7248 C   0  0  0  0  0  0  0  0  0  0  0  0
    6.8278    0.8987   20.4078 N   0  0  0  0  0  0  0  0  0  0  0  0
  1  2  1  0
  2  3  2  0
  2  4  1  0
  4  5  2  0
  5  6  1  0
  6  7  2  0
  7  8  1  0
  8  9  2  0
  8 10  1  0
 10 11  1  0
 10 12  2  0
  7 13  1  0
 13 14  1  0
 14 15  2  0
 15 16  1  0
 16 17  2  0
 17 18  1  0
 18 19  2  0
 19 20  1  0
 20 21  2  0
 21 22  1  0
 21 23  1  0
 23 24  2  0
 15 25  1  0
 25 26  2  0
 26 27  1  0
 27 28  2  0
 28 29  1  0
 29 30  2  0
  9  4  1  0
 17 13  1  0
 24 18  1  0
 30 25  1  0
M  CHG  4   1  -1   2   1  10   1  11  -1
M  END
