CVD-0003544|dock_bobby27042020.45|mol2|4|dock1
     RDKit          3D

 22 23  0  0  0  0  0  0  0  0999 V2000
   13.6131    6.0964   22.9156 Cl  0  0  0  0  0  0  0  0  0  0  0  0
   13.6989    4.3372   22.7583 C   0  0  0  0  0  0  0  0  0  0  0  0
   12.7979    3.6517   23.7667 C   0  0  0  0  0  0  0  0  0  0  0  0
   12.0652    4.2904   24.5116 O   0  0  0  0  0  0  0  0  0  0  0  0
   12.8447    2.3046   23.7931 N   0  0  0  0  0  0  0  0  0  0  0  0
   12.0219    1.5608   24.7327 C   0  0  0  0  0  0  0  0  0  0  0  0
   11.2259    0.5121   24.0216 C   0  0  0  0  0  0  0  0  0  0  0  0
   12.1414   -0.3519   23.2628 N   0  0  0  0  0  0  0  0  0  0  0  0
   12.9054    0.4080   22.2623 C   0  0  0  0  0  0  0  0  0  0  0  0
   13.7104    1.4641   22.9600 C   0  0  0  0  0  0  0  0  0  0  0  0
   11.6055   -1.8256   22.8625 S   0  0  0  0  0  0  0  0  0  0  0  0
   12.6917   -2.5436   22.2780 O   0  0  0  0  0  0  0  0  0  0  0  0
   10.9077   -2.3596   23.9871 O   0  0  0  0  0  0  0  0  0  0  0  0
   10.4773   -1.6606   21.6655 N   0  0  0  0  0  0  0  0  0  0  0  0
    9.1004   -1.6116   21.8210 C   0  0  0  0  0  0  0  0  0  0  0  0
    8.5852   -1.6924   22.9320 O   0  0  0  0  0  0  0  0  0  0  0  0
    8.2837   -1.4543   20.5535 C   0  0  0  0  0  0  0  0  0  0  0  0
    8.8608   -0.7877   19.5516 N   0  0  0  0  0  0  0  0  0  0  0  0
    8.1187   -0.6631   18.4441 C   0  0  0  0  0  0  0  0  0  0  0  0
    6.8483   -1.1780   18.3259 C   0  0  0  0  0  0  0  0  0  0  0  0
    6.3642   -1.8445   19.4281 C   0  0  0  0  0  0  0  0  0  0  0  0
    7.0645   -1.9974   20.5590 N   0  0  0  0  0  0  0  0  0  0  0  0
  1  2  1  0
  2  3  1  0
  3  4  2  0
  3  5  1  0
  5  6  1  0
  6  7  1  0
  7  8  1  0
  8  9  1  0
  9 10  1  0
  8 11  1  0
 11 12  2  0
 11 13  2  0
 11 14  1  0
 14 15  1  0
 15 16  2  0
 15 17  1  0
 17 18  2  0
 18 19  1  0
 19 20  2  0
 20 21  1  0
 21 22  2  0
 10  5  1  0
 22 17  1  0
M  END
