CVD-0000475|dock_bobby27042020.56|mol2|1|dock2
     RDKit          3D

 22 24  0  0  0  0  0  0  0  0999 V2000
   13.6764   -1.9747   22.1623 C   0  0  0  0  0  0  0  0  0  0  0  0
   12.8995   -0.6840   22.0714 C   0  0  0  0  0  0  0  0  0  0  0  0
   13.4799    0.5149   22.4523 C   0  0  0  0  0  0  0  0  0  0  0  0
   12.7674    1.7056   22.3724 C   0  0  0  0  0  0  0  0  0  0  0  0
   13.3454    2.9142   22.7515 N   0  0  0  0  0  0  0  0  0  0  0  0
   12.9807    4.2016   22.1693 C   0  0  0  0  0  0  0  0  0  0  0  0
   12.2836    5.0093   23.1955 C   0  0  0  0  0  0  0  0  0  0  0  0
   13.1151    6.1173   23.5257 C   0  0  0  0  0  0  0  0  0  0  0  0
   14.2654    6.0868   22.7376 C   0  0  0  0  0  0  0  0  0  0  0  0
   14.2177    4.9581   21.8706 C   0  0  0  0  0  0  0  0  0  0  0  0
   11.4581    1.6873   21.9070 C   0  0  0  0  0  0  0  0  0  0  0  0
   10.8490    0.4973   21.5193 C   0  0  0  0  0  0  0  0  0  0  0  0
   11.5915   -0.6803   21.6106 C   0  0  0  0  0  0  0  0  0  0  0  0
    9.4267    0.5614   21.0263 C   0  0  0  0  0  0  0  0  0  0  0  0
    8.6834    1.3755   21.5637 O   0  0  0  0  0  0  0  0  0  0  0  0
    9.0307   -0.2714   20.0226 N   0  0  0  0  0  0  0  0  0  0  0  0
    7.7773   -0.4095   19.3716 C   0  0  0  0  0  0  0  0  0  0  0  0
    7.2183   -1.6295   18.9936 C   0  0  0  0  0  0  0  0  0  0  0  0
    5.9862   -1.6664   18.3612 C   0  0  0  0  0  0  0  0  0  0  0  0
    5.2980   -0.5029   18.0974 C   0  0  0  0  0  0  0  0  0  0  0  0
    5.8406    0.7076   18.4661 C   0  0  0  0  0  0  0  0  0  0  0  0
    7.0710    0.7569   19.0988 C   0  0  0  0  0  0  0  0  0  0  0  0
  1  2  1  0
  2  3  2  0
  3  4  1  0
  4  5  1  0
  5  6  1  0
  6  7  1  0
  7  8  1  0
  8  9  1  0
  9 10  1  0
  4 11  2  0
 11 12  1  0
 12 13  2  0
 12 14  1  0
 14 15  2  0
 14 16  1  0
 16 17  1  0
 17 18  2  0
 18 19  1  0
 19 20  2  0
 20 21  1  0
 21 22  2  0
 13  2  1  0
 22 17  1  0
 10  6  1  0
M  END
