CVD-0001231|dock_bobby27042020.38|mol2|44|dock2
     RDKit          3D

 22 24  0  0  0  0  0  0  0  0999 V2000
    4.7457    1.1902   21.0360 C   0  0  0  0  0  0  0  0  0  0  0  0
    5.4538    1.0058   19.7183 C   0  0  0  0  0  0  0  0  0  0  0  0
    4.9916    1.7121   18.6118 C   0  0  0  0  0  0  0  0  0  0  0  0
    5.6168    1.5614   17.3945 C   0  0  0  0  0  0  0  0  0  0  0  0
    6.6620    0.7603   17.2093 N   0  0  0  0  0  0  0  0  0  0  0  0
    7.1142    0.0755   18.2643 C   0  0  0  0  0  0  0  0  0  0  0  0
    6.5590    0.1510   19.5420 C   0  0  0  0  0  0  0  0  0  0  0  0
    7.0389   -0.5775   20.6664 N   0  0  0  0  0  0  0  0  0  0  0  0
    8.2580   -1.1215   20.9033 C   0  0  0  0  0  0  0  0  0  0  0  0
    9.1735   -1.2325   20.0952 O   0  0  0  0  0  0  0  0  0  0  0  0
    8.4405   -1.6153   22.3253 C   0  0  0  0  0  0  0  0  0  0  0  0
    9.8311   -1.8872   22.6360 N   0  0  0  0  0  0  0  0  0  0  0  0
   10.6325   -0.9733   23.2619 C   0  0  0  0  0  0  0  0  0  0  0  0
   10.4449    0.3835   23.1128 C   0  0  0  0  0  0  0  0  0  0  0  0
   11.2797    1.2676   23.7676 C   0  0  0  0  0  0  0  0  0  0  0  0
   12.2804    0.9198   24.5538 N   0  0  0  0  0  0  0  0  0  0  0  0
   12.5017   -0.4203   24.7265 C   0  0  0  0  0  0  0  0  0  0  0  0
   13.5708   -0.8150   25.5647 C   0  0  0  0  0  0  0  0  0  0  0  0
   13.8365   -2.1357   25.7717 C   0  0  0  0  0  0  0  0  0  0  0  0
   13.0705   -3.1111   25.1696 C   0  0  0  0  0  0  0  0  0  0  0  0
   12.0305   -2.7768   24.3542 C   0  0  0  0  0  0  0  0  0  0  0  0
   11.7057   -1.4171   24.1018 C   0  0  0  0  0  0  0  0  0  0  0  0
  1  2  1  0
  2  3  2  0
  3  4  1  0
  4  5  2  0
  5  6  1  0
  6  7  2  0
  7  8  1  0
  8  9  1  0
  9 10  2  0
  9 11  1  0
 11 12  1  0
 12 13  1  0
 13 14  2  0
 14 15  1  0
 15 16  2  0
 16 17  1  0
 17 18  2  0
 18 19  1  0
 19 20  2  0
 20 21  1  0
 21 22  2  0
  7  2  1  0
 22 13  1  0
 22 17  1  0
M  END
