CVD-0001040|dock_bobby27042020.68|mol2|21|dock1
     RDKit          3D

 32 35  0  0  0  0  0  0  0  0999 V2000
    4.8590   -1.5625   19.2020 F   0  0  0  0  0  0  0  0  0  0  0  0
    5.8205   -2.3959   18.8210 C   0  0  0  0  0  0  0  0  0  0  0  0
    5.8734   -2.3107   17.4966 F   0  0  0  0  0  0  0  0  0  0  0  0
    5.3729   -3.6171   19.0904 F   0  0  0  0  0  0  0  0  0  0  0  0
    7.1334   -2.1028   19.4735 C   0  0  0  0  0  0  0  0  0  0  0  0
    7.6600   -2.9588   20.4308 C   0  0  0  0  0  0  0  0  0  0  0  0
    8.8684   -2.6793   21.0436 C   0  0  0  0  0  0  0  0  0  0  0  0
    9.5913   -1.5335   20.7267 C   0  0  0  0  0  0  0  0  0  0  0  0
    9.0686   -0.6904   19.7486 C   0  0  0  0  0  0  0  0  0  0  0  0
    7.8560   -0.9651   19.1414 C   0  0  0  0  0  0  0  0  0  0  0  0
   10.8916   -1.3019   21.4455 C   0  0  0  0  0  0  0  0  0  0  0  0
   11.7006   -2.2101   21.3624 O   0  0  0  0  0  0  0  0  0  0  0  0
   11.2046   -0.1886   22.1536 N   0  0  0  0  0  0  0  0  0  0  0  0
   10.3551    0.9893   22.3086 C   0  0  0  0  0  0  0  0  0  0  0  0
   11.1696    2.2471   22.0871 C   0  0  0  0  0  0  0  0  0  0  0  0
   12.3469    2.2998   23.0528 C   0  0  0  0  0  0  0  0  0  0  0  0
   13.1846    1.0316   22.9060 C   0  0  0  0  0  0  0  0  0  0  0  0
   12.3179   -0.2088   23.0961 C   0  0  0  0  0  0  0  0  0  0  0  0
   13.1927    3.5407   22.8112 C   0  0  0  0  0  0  0  0  0  0  0  0
   14.3402    3.4069   22.3938 O   0  0  0  0  0  0  0  0  0  0  0  0
   12.6569    4.7697   23.0659 N   0  0  0  0  0  0  0  0  0  0  0  0
   13.2103    6.0147   22.9316 C   0  0  0  0  0  0  0  0  0  0  0  0
   13.9432    6.4671   21.9577 N   0  0  0  0  0  0  0  0  0  0  0  0
   14.2621    7.7850   22.2796 N   0  0  0  0  0  0  0  0  0  0  0  0
   13.7033    8.0282   23.4134 C   0  0  0  0  0  0  0  0  0  0  0  0
   13.0149    6.9536   23.8956 O   0  0  0  0  0  0  0  0  0  0  0  0
   13.7325    9.2782   24.1939 C   0  0  0  0  0  0  0  0  0  0  0  0
   13.3304    9.2822   25.5226 C   0  0  0  0  0  0  0  0  0  0  0  0
   13.3750   10.4795   26.2154 C   0  0  0  0  0  0  0  0  0  0  0  0
   13.8114   11.6198   25.5765 C   0  0  0  0  0  0  0  0  0  0  0  0
   14.1906   11.5211   24.2569 C   0  0  0  0  0  0  0  0  0  0  0  0
   14.1600   10.3791   23.5570 N   0  0  0  0  0  0  0  0  0  0  0  0
  1  2  1  0
  2  3  1  0
  2  4  1  0
  2  5  1  0
  5  6  2  0
  6  7  1  0
  7  8  2  0
  8  9  1  0
  9 10  2  0
  8 11  1  0
 11 12  2  0
 11 13  1  0
 13 14  1  0
 14 15  1  0
 15 16  1  0
 16 17  1  0
 17 18  1  0
 16 19  1  0
 19 20  2  0
 19 21  1  0
 21 22  1  0
 22 23  2  0
 23 24  1  0
 24 25  2  0
 25 26  1  0
 25 27  1  0
 27 28  2  0
 28 29  1  0
 29 30  2  0
 30 31  1  0
 31 32  2  0
 10  5  1  0
 18 13  1  0
 26 22  1  0
 32 27  1  0
M  END
