CVD-0003599|dock_bobby27042020.1|mol2|30|dock1
     RDKit          3D

 23 25  0  0  0  0  0  0  0  0999 V2000
   14.4733    5.5862   21.8516 C   0  0  0  0  0  0  0  0  0  0  0  0
   14.0205    4.7273   22.9435 N   0  0  0  0  0  0  0  0  0  0  0  0
   12.5725    4.9195   23.5938 S   0  0  0  0  0  0  0  0  0  0  0  0
   12.7655    5.4100   24.9253 O   0  0  0  0  0  0  0  0  0  0  0  0
   11.8027    5.7103   22.6812 O   0  0  0  0  0  0  0  0  0  0  0  0
   11.8114    3.3191   23.6812 C   0  0  0  0  0  0  0  0  0  0  0  0
   11.8395    2.5304   22.3710 C   0  0  0  0  0  0  0  0  0  0  0  0
   11.4036    1.0971   22.5575 C   0  0  0  0  0  0  0  0  0  0  0  0
   12.1969    0.1989   23.2579 C   0  0  0  0  0  0  0  0  0  0  0  0
   11.8126   -1.1192   23.4358 C   0  0  0  0  0  0  0  0  0  0  0  0
   10.6034   -1.5442   22.8968 C   0  0  0  0  0  0  0  0  0  0  0  0
    9.9803   -2.7678   22.9160 N   0  0  0  0  0  0  0  0  0  0  0  0
    8.7963   -2.6717   22.2365 C   0  0  0  0  0  0  0  0  0  0  0  0
    8.6185   -1.4048   21.7638 C   0  0  0  0  0  0  0  0  0  0  0  0
    7.4605   -0.8625   20.9674 C   0  0  0  0  0  0  0  0  0  0  0  0
    7.8868   -0.3211   19.6051 C   0  0  0  0  0  0  0  0  0  0  0  0
    6.6613    0.1524   18.8429 C   0  0  0  0  0  0  0  0  0  0  0  0
    5.9655    1.2033   19.5785 N   0  0  0  0  0  0  0  0  0  0  0  0
    4.8417    1.7210   18.7997 C   0  0  0  0  0  0  0  0  0  0  0  0
    5.5020    0.6556   20.8581 C   0  0  0  0  0  0  0  0  0  0  0  0
    6.6710    0.2001   21.7175 C   0  0  0  0  0  0  0  0  0  0  0  0
    9.7763   -0.6602   22.1808 C   0  0  0  0  0  0  0  0  0  0  0  0
   10.1977    0.6587   22.0230 C   0  0  0  0  0  0  0  0  0  0  0  0
  1  2  1  0
  2  3  1  0
  3  4  2  0
  3  5  2  0
  3  6  1  0
  6  7  1  0
  7  8  1  0
  8  9  2  0
  9 10  1  0
 10 11  2  0
 11 12  1  0
 12 13  1  0
 13 14  2  0
 14 15  1  0
 15 16  1  0
 16 17  1  0
 17 18  1  0
 18 19  1  0
 18 20  1  0
 20 21  1  0
 14 22  1  0
 22 23  2  0
 23  8  1  0
 22 11  1  0
 21 15  1  0
M  END
