CVD-0000974|dock_bobby27042020.11|mol2|15|dock3
     RDKit          3D

 30 33  0  0  0  0  0  0  0  0999 V2000
   13.0670    4.9181   21.5481 C   0  0  0  0  0  0  0  0  0  0  0  0
   11.9815    3.9949   21.5903 O   0  0  0  0  0  0  0  0  0  0  0  0
   12.1289    2.8992   22.3597 C   0  0  0  0  0  0  0  0  0  0  0  0
   10.9712    2.3542   22.8862 C   0  0  0  0  0  0  0  0  0  0  0  0
   11.0725    1.2121   23.6799 C   0  0  0  0  0  0  0  0  0  0  0  0
    9.9566    0.5837   24.2560 N   0  0  0  0  0  0  0  0  0  0  0  0
    9.7430   -0.7724   24.5495 C   0  0  0  0  0  0  0  0  0  0  0  0
    9.2738   -1.2035   25.7918 C   0  0  0  0  0  0  0  0  0  0  0  0
    9.0793   -2.5486   26.0482 C   0  0  0  0  0  0  0  0  0  0  0  0
    9.3216   -3.5128   25.0840 C   0  0  0  0  0  0  0  0  0  0  0  0
    9.7744   -3.1059   23.8407 C   0  0  0  0  0  0  0  0  0  0  0  0
    9.9889   -1.7602   23.5727 C   0  0  0  0  0  0  0  0  0  0  0  0
   10.5806   -1.3571   21.9488 S   0  0  0  0  0  0  0  0  0  0  0  0
    9.8544   -2.3184   20.8946 N   0  0  0  0  0  0  0  0  0  0  0  0
   11.9797   -1.6597   21.9019 O   0  0  0  0  0  0  0  0  0  0  0  0
   10.1568   -0.0195   21.6620 O   0  0  0  0  0  0  0  0  0  0  0  0
    9.1006   -4.9883   25.3853 C   0  0  0  0  0  0  0  0  0  0  0  0
    8.9868   -5.2735   26.8088 N   0  0  0  0  0  0  0  0  0  0  0  0
    7.8198   -5.8393   27.1713 C   0  0  0  0  0  0  0  0  0  0  0  0
    7.4906   -6.1502   28.3110 O   0  0  0  0  0  0  0  0  0  0  0  0
    7.0382   -6.0190   25.9279 C   0  0  0  0  0  0  0  0  0  0  0  0
    5.7791   -6.5774   25.7123 C   0  0  0  0  0  0  0  0  0  0  0  0
    5.2760   -6.6313   24.4206 C   0  0  0  0  0  0  0  0  0  0  0  0
    6.0115   -6.1389   23.3611 C   0  0  0  0  0  0  0  0  0  0  0  0
    7.2633   -5.5841   23.5786 C   0  0  0  0  0  0  0  0  0  0  0  0
    7.7810   -5.5234   24.8700 C   0  0  0  0  0  0  0  0  0  0  0  0
   12.3497    0.6789   23.9206 C   0  0  0  0  0  0  0  0  0  0  0  0
   12.5945   -0.5490   24.7590 C   0  0  0  0  0  0  0  0  0  0  0  0
   13.4266    1.3329   23.3354 C   0  0  0  0  0  0  0  0  0  0  0  0
   13.3394    2.4195   22.5639 N   0  0  0  0  0  0  0  0  0  0  0  0
  1  2  1  0
  2  3  1  0
  3  4  2  0
  4  5  1  0
  5  6  1  0
  6  7  1  0
  7  8  2  0
  8  9  1  0
  9 10  2  0
 10 11  1  0
 11 12  2  0
 12 13  1  0
 13 14  1  0
 13 15  2  0
 13 16  2  0
 10 17  1  0
 17 18  1  0
 18 19  1  0
 19 20  2  0
 19 21  1  0
 21 22  2  0
 22 23  1  0
 23 24  2  0
 24 25  1  0
 25 26  2  0
  5 27  2  0
 27 28  1  0
 27 29  1  0
 29 30  2  0
 30  3  1  0
 12  7  1  0
 26 17  1  0
 26 21  1  0
M  END
