CVD-0000944|dock_bobby27042020.68|mol2|37|dock3
     RDKit          3D

 15 16  0  0  0  0  0  0  0  0999 V2000
   14.1585   -1.5133   22.8224 O   0  0  0  0  0  0  0  0  0  0  0  0
   12.8700   -1.3212   22.7116 C   0  0  0  0  0  0  0  0  0  0  0  0
   12.0943   -2.2558   22.6304 O   0  0  0  0  0  0  0  0  0  0  0  0
   12.3947    0.0902   22.6891 C   0  0  0  0  0  0  0  0  0  0  0  0
   11.0448    0.2938   22.7192 C   0  0  0  0  0  0  0  0  0  0  0  0
   10.4747    1.4983   22.7043 N   0  0  0  0  0  0  0  0  0  0  0  0
   11.2289    2.6571   22.6562 C   0  0  0  0  0  0  0  0  0  0  0  0
   10.6187    3.9072   22.6412 C   0  0  0  0  0  0  0  0  0  0  0  0
   11.4206    5.0216   22.5930 C   0  0  0  0  0  0  0  0  0  0  0  0
   10.8213    6.2427   22.5784 F   0  0  0  0  0  0  0  0  0  0  0  0
   12.7874    4.9650   22.5589 C   0  0  0  0  0  0  0  0  0  0  0  0
   13.3926    3.7213   22.5737 C   0  0  0  0  0  0  0  0  0  0  0  0
   12.6284    2.5563   22.6223 C   0  0  0  0  0  0  0  0  0  0  0  0
   13.2827    1.2300   22.6380 C   0  0  0  0  0  0  0  0  0  0  0  0
   14.5068    1.1593   22.6079 O   0  0  0  0  0  0  0  0  0  0  0  0
  1  2  1  0
  2  3  2  0
  2  4  1  0
  4  5  2  0
  5  6  1  0
  6  7  1  0
  7  8  2  0
  8  9  1  0
  9 10  1  0
  9 11  2  0
 11 12  1  0
 12 13  2  0
 13 14  1  0
 14 15  2  0
 14  4  1  0
 13  7  1  0
M  END
