CVD-0002743|dock_bobby27042020.18|mol2|42|dock3
     RDKit          3D

 22 23  0  0  0  0  0  0  0  0999 V2000
    9.9097   -5.7122   26.9260 C   0  0  0  0  0  0  0  0  0  0  0  0
    9.6806   -4.3641   26.5433 O   0  0  0  0  0  0  0  0  0  0  0  0
    8.8763   -4.2244   25.3906 C   0  0  0  0  0  0  0  0  0  0  0  0
    8.6634   -2.7609   25.0783 C   0  0  0  0  0  0  0  0  0  0  0  0
    7.9109   -2.5406   23.7847 C   0  0  0  0  0  0  0  0  0  0  0  0
    6.5223   -2.6392   23.7998 C   0  0  0  0  0  0  0  0  0  0  0  0
    5.7716   -2.4501   22.6544 C   0  0  0  0  0  0  0  0  0  0  0  0
    6.4237   -2.1589   21.4778 C   0  0  0  0  0  0  0  0  0  0  0  0
    5.4985   -1.9153   20.0228 Cl  0  0  0  0  0  0  0  0  0  0  0  0
    7.7985   -2.0565   21.4300 C   0  0  0  0  0  0  0  0  0  0  0  0
    8.5606   -2.2460   22.5789 C   0  0  0  0  0  0  0  0  0  0  0  0
   10.0655   -2.1341   22.4990 C   0  0  0  0  0  0  0  0  0  0  0  0
   10.5811   -0.9128   23.1334 N   0  0  0  0  0  0  0  0  0  0  0  0
   12.0463   -0.8934   23.0933 C   0  0  0  0  0  0  0  0  0  0  0  0
   12.5743    0.3492   23.7857 C   0  0  0  0  0  0  0  0  0  0  0  0
   12.0348    1.5553   23.1539 N   0  0  0  0  0  0  0  0  0  0  0  0
   10.5690    1.5384   23.1244 C   0  0  0  0  0  0  0  0  0  0  0  0
   10.0698    0.2730   22.4508 C   0  0  0  0  0  0  0  0  0  0  0  0
   12.8176    2.5522   22.6935 C   0  0  0  0  0  0  0  0  0  0  0  0
   14.0380    2.5116   22.7847 O   0  0  0  0  0  0  0  0  0  0  0  0
   12.1090    3.7277   22.0496 C   0  0  0  0  0  0  0  0  0  0  0  0
   13.2481    4.9847   21.5497 Cl  0  0  0  0  0  0  0  0  0  0  0  0
  1  2  1  0
  2  3  1  0
  3  4  1  0
  4  5  1  0
  5  6  2  0
  6  7  1  0
  7  8  2  0
  8  9  1  0
  8 10  1  0
 10 11  2  0
 11 12  1  0
 12 13  1  0
 13 14  1  0
 14 15  1  0
 15 16  1  0
 16 17  1  0
 17 18  1  0
 16 19  1  0
 19 20  2  0
 19 21  1  0
 21 22  1  0
 11  5  1  0
 18 13  1  0
M  END
