CVD-0002871|dock_bobby27042020.47|mol2|9|dock2
     RDKit          3D

 22 24  0  0  0  0  0  0  0  0999 V2000
   14.3924   -2.2675   25.5553 C   0  0  0  0  0  0  0  0  0  0  0  0
   13.2870   -1.4048   25.0210 C   0  0  0  0  0  0  0  0  0  0  0  0
   13.1247   -0.2611   25.4326 O   0  0  0  0  0  0  0  0  0  0  0  0
   12.5354   -2.0058   24.0623 N   0  0  0  0  0  0  0  0  0  0  0  0
   11.4292   -1.5492   23.3032 C   0  0  0  0  0  0  0  0  0  0  0  0
   11.3965   -0.2049   22.9462 C   0  0  0  0  0  0  0  0  0  0  0  0
   10.3459    0.3100   22.2074 C   0  0  0  0  0  0  0  0  0  0  0  0
    9.3081   -0.5217   21.8146 C   0  0  0  0  0  0  0  0  0  0  0  0
    8.2732    0.0206   21.0843 O   0  0  0  0  0  0  0  0  0  0  0  0
    7.2045   -0.7294   20.6508 C   0  0  0  0  0  0  0  0  0  0  0  0
    6.2801    0.1656   19.9266 C   0  0  0  0  0  0  0  0  0  0  0  0
    5.0642    0.5214   20.5080 C   0  0  0  0  0  0  0  0  0  0  0  0
    4.1815    1.3657   19.8552 C   0  0  0  0  0  0  0  0  0  0  0  0
    4.4935    1.8747   18.6143 C   0  0  0  0  0  0  0  0  0  0  0  0
    5.6851    1.5273   18.0182 C   0  0  0  0  0  0  0  0  0  0  0  0
    6.5645    0.6712   18.6597 C   0  0  0  0  0  0  0  0  0  0  0  0
    7.1570   -2.0725   20.9324 C   0  0  0  0  0  0  0  0  0  0  0  0
    6.1889   -2.9003   20.5252 O   0  0  0  0  0  0  0  0  0  0  0  0
    8.2000   -2.7211   21.7120 C   0  0  0  0  0  0  0  0  0  0  0  0
    8.1343   -3.9170   21.9746 O   0  0  0  0  0  0  0  0  0  0  0  0
    9.3217   -1.8735   22.1577 C   0  0  0  0  0  0  0  0  0  0  0  0
   10.3842   -2.3818   22.9039 C   0  0  0  0  0  0  0  0  0  0  0  0
  1  2  1  0
  2  3  2  0
  2  4  1  0
  4  5  1  0
  5  6  2  0
  6  7  1  0
  7  8  2  0
  8  9  1  0
  9 10  1  0
 10 11  1  0
 11 12  2  0
 12 13  1  0
 13 14  2  0
 14 15  1  0
 15 16  2  0
 10 17  2  0
 17 18  1  0
 17 19  1  0
 19 20  2  0
 19 21  1  0
 21 22  2  0
 22  5  1  0
 21  8  1  0
 16 11  1  0
M  END
