CVD-0000735|dock_bobby27042020.40|mol2|33|dock2
     RDKit          3D

 23 25  0  0  0  0  0  0  0  0999 V2000
    9.3306    3.2507   23.0171 N   0  0  0  0  0  0  0  0  0  0  0  0
    8.9229    2.2714   22.2258 C   0  0  0  0  0  0  0  0  0  0  0  0
    8.4924    2.4779   21.0889 O   0  0  0  0  0  0  0  0  0  0  0  0
    9.0217    0.8802   22.8223 C   0  0  0  0  0  0  0  0  0  0  0  0
   10.4563    0.4107   22.7433 C   0  0  0  0  0  0  0  0  0  0  0  0
   11.1084    0.3304   23.9983 O   0  0  0  0  0  0  0  0  0  0  0  0
   10.3650   -0.9584   22.1131 C   0  0  0  0  0  0  0  0  0  0  0  0
   11.5871   -1.8163   21.8924 C   0  0  0  0  0  0  0  0  0  0  0  0
   12.5630   -1.8281   23.0471 C   0  0  0  0  0  0  0  0  0  0  0  0
   12.4273   -2.7203   24.0975 C   0  0  0  0  0  0  0  0  0  0  0  0
   13.3374   -2.7006   25.1398 C   0  0  0  0  0  0  0  0  0  0  0  0
   14.3611   -1.7816   25.0976 C   0  0  0  0  0  0  0  0  0  0  0  0
   14.5176   -0.9091   24.1009 N   0  0  0  0  0  0  0  0  0  0  0  0
   13.6264   -0.9470   23.1056 C   0  0  0  0  0  0  0  0  0  0  0  0
    9.1032   -1.2704   21.7945 C   0  0  0  0  0  0  0  0  0  0  0  0
    8.1383   -0.1936   22.2294 C   0  0  0  0  0  0  0  0  0  0  0  0
    7.2590    0.2712   21.0785 C   0  0  0  0  0  0  0  0  0  0  0  0
    7.7118    0.2158   19.7679 C   0  0  0  0  0  0  0  0  0  0  0  0
    6.9070    0.6367   18.7226 C   0  0  0  0  0  0  0  0  0  0  0  0
    5.6339    1.1193   18.9744 C   0  0  0  0  0  0  0  0  0  0  0  0
    5.1902    1.1703   20.2776 C   0  0  0  0  0  0  0  0  0  0  0  0
    3.5911    1.7744   20.6098 Cl  0  0  0  0  0  0  0  0  0  0  0  0
    5.9828    0.7538   21.3277 C   0  0  0  0  0  0  0  0  0  0  0  0
  1  2  1  0
  2  3  2  0
  4  2  1  0
  4  5  1  0
  5  6  1  0
  5  7  1  0
  7  8  1  0
  8  9  1  0
  9 10  2  0
 10 11  1  0
 11 12  2  0
 12 13  1  0
 13 14  2  0
  7 15  2  0
 15 16  1  0
 16 17  1  0
 17 18  2  0
 18 19  1  0
 19 20  2  0
 20 21  1  0
 21 22  1  0
 21 23  2  0
 16  4  1  0
 23 17  1  0
 14  9  1  0
M  END
