CVD-0001110|dock_bobby27042020.82|mol2|10|dock2
     RDKit          3D

 21 22  0  0  0  0  0  0  0  0999 V2000
    9.7341    6.6488   23.2327 C   0  0  0  0  0  0  0  0  0  0  0  0
   11.0966    6.0238   23.1671 C   0  0  0  0  0  0  0  0  0  0  0  0
   11.9207    6.1676   24.0648 O   0  0  0  0  0  0  0  0  0  0  0  0
   11.3661    5.3164   22.0682 N   0  0  0  0  0  0  0  0  0  0  0  0
   12.6493    4.6643   21.8494 C   0  0  0  0  0  0  0  0  0  0  0  0
   12.8846    3.5353   22.8330 C   0  0  0  0  0  0  0  0  0  0  0  0
   11.9485    2.3795   22.6340 C   0  0  0  0  0  0  0  0  0  0  0  0
   10.5906    2.4249   22.5124 C   0  0  0  0  0  0  0  0  0  0  0  0
   10.0833    1.1654   22.3432 N   0  0  0  0  0  0  0  0  0  0  0  0
   11.1246    0.2704   22.3528 C   0  0  0  0  0  0  0  0  0  0  0  0
   11.1003   -1.1206   22.2151 C   0  0  0  0  0  0  0  0  0  0  0  0
    9.8030   -1.8671   22.0259 C   0  0  0  0  0  0  0  0  0  0  0  0
    9.2049   -1.6618   20.7149 N   0  0  0  0  0  0  0  0  0  0  0  0
    7.9399   -1.2797   20.5623 C   0  0  0  0  0  0  0  0  0  0  0  0
    7.1887   -1.0737   21.5104 O   0  0  0  0  0  0  0  0  0  0  0  0
    7.4602   -1.1178   19.1367 C   0  0  0  0  0  0  0  0  0  0  0  0
    7.6808    0.5240   18.5176 Cl  0  0  0  0  0  0  0  0  0  0  0  0
   12.3242   -1.7827   22.2664 C   0  0  0  0  0  0  0  0  0  0  0  0
   13.5126   -1.0897   22.4440 C   0  0  0  0  0  0  0  0  0  0  0  0
   13.5180    0.2906   22.5776 C   0  0  0  0  0  0  0  0  0  0  0  0
   12.3163    0.9957   22.5341 C   0  0  0  0  0  0  0  0  0  0  0  0
  1  2  1  0
  2  3  2  0
  2  4  1  0
  4  5  1  0
  5  6  1  0
  6  7  1  0
  7  8  2  0
  8  9  1  0
  9 10  1  0
 10 11  2  0
 11 12  1  0
 12 13  1  0
 13 14  1  0
 14 15  2  0
 14 16  1  0
 16 17  1  0
 11 18  1  0
 18 19  2  0
 19 20  1  0
 20 21  2  0
 21  7  1  0
 21 10  1  0
M  END
