CVD-0001239|dock_bobby27042020.24|mol2|31|dock2
     RDKit          3D

 23 25  0  0  0  0  0  0  0  0999 V2000
    5.7258   -6.0163   22.0341 C   0  0  0  0  0  0  0  0  0  0  0  0
    6.3754   -5.1316   21.0167 C   0  0  0  0  0  0  0  0  0  0  0  0
    6.4695   -3.7598   21.4869 N   0  0  0  0  0  0  0  0  0  0  0  0
    6.1828   -2.7052   20.7057 C   0  0  0  0  0  0  0  0  0  0  0  0
    5.6988   -3.0036   19.4826 N   0  0  0  0  0  0  0  0  0  0  0  0
    5.5126   -2.0166   18.6005 C   0  0  0  0  0  0  0  0  0  0  0  0
    5.7518   -0.6789   18.8825 C   0  0  0  0  0  0  0  0  0  0  0  0
    6.1830   -0.3500   20.1615 C   0  0  0  0  0  0  0  0  0  0  0  0
    6.3749   -1.3576   21.1031 C   0  0  0  0  0  0  0  0  0  0  0  0
    6.7442   -0.9878   22.4437 N   0  0  0  0  0  0  0  0  0  0  0  0
    5.6862   -0.4667   23.3097 C   0  0  0  0  0  0  0  0  0  0  0  0
    8.0902   -1.0165   22.9275 C   0  0  0  0  0  0  0  0  0  0  0  0
    8.4042   -0.5992   24.2183 C   0  0  0  0  0  0  0  0  0  0  0  0
    9.7028   -0.6328   24.6997 C   0  0  0  0  0  0  0  0  0  0  0  0
   10.7465   -1.0780   23.8899 C   0  0  0  0  0  0  0  0  0  0  0  0
   12.0988   -1.1764   24.2066 N   0  0  0  0  0  0  0  0  0  0  0  0
   12.7800   -1.6255   23.2001 C   0  0  0  0  0  0  0  0  0  0  0  0
   14.2552   -1.8509   23.2269 C   0  0  0  0  0  0  0  0  0  0  0  0
   11.8679   -1.9902   21.7574 S   0  0  0  0  0  0  0  0  0  0  0  0
   10.4295   -1.4830   22.5918 C   0  0  0  0  0  0  0  0  0  0  0  0
    9.1282   -1.4564   22.1089 C   0  0  0  0  0  0  0  0  0  0  0  0
    5.5574    0.3428   17.8834 C   0  0  0  0  0  0  0  0  0  0  0  0
    5.4360    1.1503   17.0847 N   0  0  0  0  0  0  0  0  0  0  0  0
  1  2  1  0
  2  3  1  0
  3  4  1  0
  4  5  2  0
  5  6  1  0
  6  7  2  0
  7  8  1  0
  8  9  2  0
  9 10  1  0
 10 11  1  0
 10 12  1  0
 12 13  2  0
 13 14  1  0
 14 15  2  0
 15 16  1  0
 16 17  2  0
 17 18  1  0
 17 19  1  0
 19 20  1  0
 20 21  2  0
  7 22  1  0
 22 23  3  0
  9  4  1  0
 21 12  1  0
 20 15  1  0
M  END
