CVD-0000512|dock_bobby27042020.27|mol2|2|dock1
     RDKit          3D

 31 33  0  0  0  0  0  0  0  0999 V2000
    4.8816    0.8752   21.0863 C   0  0  0  0  0  0  0  0  0  0  0  0
    5.6892    0.8283   19.8143 C   0  0  0  0  0  0  0  0  0  0  0  0
    5.2027    1.5086   18.7021 C   0  0  0  0  0  0  0  0  0  0  0  0
    5.9194    1.5009   17.5272 C   0  0  0  0  0  0  0  0  0  0  0  0
    7.0765    0.8610   17.3893 N   0  0  0  0  0  0  0  0  0  0  0  0
    7.5457    0.1903   18.4460 C   0  0  0  0  0  0  0  0  0  0  0  0
    6.9135    0.1410   19.6901 C   0  0  0  0  0  0  0  0  0  0  0  0
    7.4131   -0.5517   20.8314 N   0  0  0  0  0  0  0  0  0  0  0  0
    8.7090   -0.6969   21.2723 C   0  0  0  0  0  0  0  0  0  0  0  0
    9.6651   -0.2093   20.6858 O   0  0  0  0  0  0  0  0  0  0  0  0
    8.9277   -1.4187   22.4235 N   0  0  0  0  0  0  0  0  0  0  0  0
    7.9680   -2.3650   23.0044 C   0  0  0  0  0  0  0  0  0  0  0  0
    7.6180   -3.5149   22.0740 C   0  0  0  0  0  0  0  0  0  0  0  0
    6.5001   -4.4179   22.5775 C   0  0  0  0  0  0  0  0  0  0  0  0
    6.1657   -5.8516   21.5870 S   0  0  0  0  0  0  0  0  0  0  0  0
    7.3297   -6.6847   21.6272 O   0  0  0  0  0  0  0  0  0  0  0  0
    5.6665   -5.4334   20.3126 O   0  0  0  0  0  0  0  0  0  0  0  0
    4.9851   -6.6749   22.3007 N   0  0  0  0  0  0  0  0  0  0  0  0
    3.9960   -6.0241   23.1684 C   0  0  0  0  0  0  0  0  0  0  0  0
    2.8187   -6.9425   23.4293 C   0  0  0  0  0  0  0  0  0  0  0  0
    1.9370   -7.0956   22.2293 C   0  0  0  0  0  0  0  0  0  0  0  0
    1.7863   -8.1158   21.3387 C   0  0  0  0  0  0  0  0  0  0  0  0
    0.8206   -7.6963   20.4297 C   0  0  0  0  0  0  0  0  0  0  0  0
    0.3815   -6.4790   20.7242 N   0  0  0  0  0  0  0  0  0  0  0  0
    1.0855   -6.1290   21.8393 N   0  0  0  0  0  0  0  0  0  0  0  0
   10.1848   -1.2705   23.1835 C   0  0  0  0  0  0  0  0  0  0  0  0
   10.4917    0.1903   23.4181 C   0  0  0  0  0  0  0  0  0  0  0  0
   11.8336    0.3623   24.1222 C   0  0  0  0  0  0  0  0  0  0  0  0
   12.9456   -0.3080   23.3583 C   0  0  0  0  0  0  0  0  0  0  0  0
   12.6358   -1.7640   23.1023 C   0  0  0  0  0  0  0  0  0  0  0  0
   11.2948   -1.9426   22.4033 C   0  0  0  0  0  0  0  0  0  0  0  0
  1  2  1  0
  2  3  2  0
  3  4  1  0
  4  5  2  0
  5  6  1  0
  6  7  2  0
  7  8  1  0
  8  9  1  0
  9 10  2  0
  9 11  1  0
 11 12  1  0
 12 13  1  0
 13 14  1  0
 14 15  1  0
 15 16  2  0
 15 17  2  0
 15 18  1  0
 18 19  1  0
 19 20  1  0
 20 21  1  0
 21 22  2  0
 22 23  1  0
 23 24  2  0
 24 25  1  0
 11 26  1  0
 26 27  1  0
 27 28  1  0
 28 29  1  0
 29 30  1  0
 30 31  1  0
  7  2  1  0
 25 21  1  0
 31 26  1  0
M  END
