CVD-0002034|dock_bobby27042020.50|mol2|29|dock3
     RDKit          3D

 26 28  0  0  0  0  0  0  0  0999 V2000
    6.4887   -5.2246   20.8453 C   0  0  0  0  0  0  0  0  0  0  0  0
    6.3837   -4.4387   22.1191 C   0  0  0  0  0  0  0  0  0  0  0  0
    5.9839   -4.9660   23.1514 O   0  0  0  0  0  0  0  0  0  0  0  0
    6.7504   -3.1366   21.9902 N   0  0  0  0  0  0  0  0  0  0  0  0
    6.7805   -2.0739   22.9350 C   0  0  0  0  0  0  0  0  0  0  0  0
    6.9752   -2.2589   24.3028 C   0  0  0  0  0  0  0  0  0  0  0  0
    6.9987   -1.2628   25.1921 N   0  0  0  0  0  0  0  0  0  0  0  0
    6.8273   -0.0250   24.7372 C   0  0  0  0  0  0  0  0  0  0  0  0
    6.6302    0.2800   23.4080 C   0  0  0  0  0  0  0  0  0  0  0  0
    6.6033   -0.7542   22.4714 C   0  0  0  0  0  0  0  0  0  0  0  0
    6.3976   -0.3822   21.0395 C   0  0  0  0  0  0  0  0  0  0  0  0
    5.1412    0.0146   20.7750 N   0  0  0  0  0  0  0  0  0  0  0  0
    4.8103    0.2832   19.5082 C   0  0  0  0  0  0  0  0  0  0  0  0
    5.6965    0.2102   18.4620 C   0  0  0  0  0  0  0  0  0  0  0  0
    7.0092   -0.1415   18.7214 C   0  0  0  0  0  0  0  0  0  0  0  0
    7.3991   -0.4347   20.0301 C   0  0  0  0  0  0  0  0  0  0  0  0
    8.7320   -0.7691   20.3937 N   0  0  0  0  0  0  0  0  0  0  0  0
    9.4290   -0.4603   21.5404 C   0  0  0  0  0  0  0  0  0  0  0  0
    8.9744    0.1893   22.4763 O   0  0  0  0  0  0  0  0  0  0  0  0
   10.7066   -0.9713   21.4993 N   0  0  0  0  0  0  0  0  0  0  0  0
   11.7658   -0.9003   22.4398 C   0  0  0  0  0  0  0  0  0  0  0  0
   11.8066    0.0090   23.4951 C   0  0  0  0  0  0  0  0  0  0  0  0
   12.8798    0.0124   24.3709 C   0  0  0  0  0  0  0  0  0  0  0  0
   13.9174   -0.8795   24.2115 C   0  0  0  0  0  0  0  0  0  0  0  0
   13.8868   -1.7822   23.1722 C   0  0  0  0  0  0  0  0  0  0  0  0
   12.8195   -1.7952   22.2905 C   0  0  0  0  0  0  0  0  0  0  0  0
  1  2  1  0
  2  3  2  0
  2  4  1  0
  4  5  1  0
  5  6  2  0
  6  7  1  0
  7  8  2  0
  8  9  1  0
  9 10  2  0
 10 11  1  0
 11 12  2  0
 12 13  1  0
 13 14  2  0
 14 15  1  0
 15 16  2  0
 16 17  1  0
 17 18  1  0
 18 19  2  0
 18 20  1  0
 20 21  1  0
 21 22  2  0
 22 23  1  0
 23 24  2  0
 24 25  1  0
 25 26  2  0
 10  5  1  0
 16 11  1  0
 26 21  1  0
M  END
