CVD-0000090|dock_bobby27042020.85|mol2|31|dock2
     RDKit          3D

 16 16  0  0  0  0  0  0  0  0999 V2000
    5.7363    0.6707   18.2517 C   0  0  0  0  0  0  0  0  0  0  0  0
    6.4168    0.5646   19.5969 C   0  0  0  0  0  0  0  0  0  0  0  0
    7.8044   -0.0408   19.4935 C   0  0  0  0  0  0  0  0  0  0  0  0
    8.3994   -0.3783   20.8387 C   0  0  0  0  0  0  0  0  0  0  0  0
    7.9242    0.0594   21.8819 O   0  0  0  0  0  0  0  0  0  0  0  0
    9.4676   -1.1782   20.8137 N   0  0  0  0  0  0  0  0  0  0  0  0
   10.1668   -1.6041   22.0263 C   0  0  0  0  0  0  0  0  0  0  0  0
    9.1714   -2.2303   22.9904 C   0  0  0  0  0  0  0  0  0  0  0  0
    8.2558   -3.2485   22.3403 C   0  0  0  0  0  0  0  0  0  0  0  0
   10.8955   -0.4060   22.6467 C   0  0  0  0  0  0  0  0  0  0  0  0
   12.0924   -0.7847   23.4847 C   0  0  0  0  0  0  0  0  0  0  0  0
   12.1839   -0.3881   24.8098 C   0  0  0  0  0  0  0  0  0  0  0  0
   13.2835   -0.7327   25.5780 C   0  0  0  0  0  0  0  0  0  0  0  0
   14.3052   -1.4776   25.0293 C   0  0  0  0  0  0  0  0  0  0  0  0
   14.2274   -1.8773   23.7125 C   0  0  0  0  0  0  0  0  0  0  0  0
   13.1276   -1.5324   22.9448 C   0  0  0  0  0  0  0  0  0  0  0  0
  1  2  1  0
  2  3  1  0
  3  4  1  0
  4  5  2  0
  4  6  1  0
  6  7  1  0
  7  8  1  0
  8  9  1  0
  7 10  1  0
 10 11  1  0
 11 12  2  0
 12 13  1  0
 13 14  2  0
 14 15  1  0
 15 16  2  0
 16 11  1  0
M  END
