CVD-0000159|dock_bobby27042020.14|mol2|3|dock1
     RDKit          3D

 18 18  0  0  0  0  0  0  0  0999 V2000
    8.0637    1.6735   22.2768 C   0  0  0  0  0  0  0  0  0  0  0  0
    9.1434    1.6061   23.3111 C   0  0  0  0  0  0  0  0  0  0  0  0
   10.4603    1.5330   22.6995 N   0  0  0  0  0  0  0  0  0  0  0  0
   11.3163    2.6069   22.5855 C   0  0  0  0  0  0  0  0  0  0  0  0
   10.8063    3.9009   22.4631 C   0  0  0  0  0  0  0  0  0  0  0  0
   11.6586    4.9796   22.3178 C   0  0  0  0  0  0  0  0  0  0  0  0
   13.0323    4.7859   22.2894 C   0  0  0  0  0  0  0  0  0  0  0  0
   13.5480    3.5010   22.4217 C   0  0  0  0  0  0  0  0  0  0  0  0
   12.7089    2.4012   22.5906 C   0  0  0  0  0  0  0  0  0  0  0  0
   13.3350    1.0319   22.7772 C   0  0  0  0  0  0  0  0  0  0  0  0
   12.9731    0.3571   24.0889 C   0  0  0  0  0  0  0  0  0  0  0  0
   13.7933   -0.8420   24.2982 N   0  0  0  0  0  0  0  0  0  0  0  0
   13.7011   -2.0576   23.2569 S   0  0  0  0  0  0  0  0  0  0  0  0
   12.0055   -2.3506   22.9316 C   0  0  0  0  0  0  0  0  0  0  0  0
   14.2333   -3.2121   23.9122 O   0  0  0  0  0  0  0  0  0  0  0  0
   14.3162   -1.6169   22.0430 O   0  0  0  0  0  0  0  0  0  0  0  0
   13.9248    5.9066   22.1243 C   0  0  0  0  0  0  0  0  0  0  0  0
   14.6172    6.8009   21.9641 N   0  0  0  0  0  0  0  0  0  0  0  0
  1  2  1  0
  2  3  1  0
  3  4  1  0
  4  5  2  0
  5  6  1  0
  6  7  2  0
  7  8  1  0
  8  9  2  0
  9 10  1  0
 10 11  1  0
 11 12  1  0
 12 13  1  0
 13 14  1  0
 13 15  2  0
 13 16  2  0
  7 17  1  0
 17 18  3  0
  9  4  1  0
M  END
