CVD-0003093|dock_bobby27042020.17|mol2|30|dock1
     RDKit          3D

 24 26  0  0  0  0  0  0  0  0999 V2000
    3.7974    2.2035   20.6052 C   0  0  0  0  0  0  0  0  0  0  0  0
    4.6976    1.7541   19.4830 C   0  0  0  0  0  0  0  0  0  0  0  0
    4.5184    2.3176   18.2231 C   0  0  0  0  0  0  0  0  0  0  0  0
    5.3234    1.9247   17.1775 C   0  0  0  0  0  0  0  0  0  0  0  0
    6.2857    1.0157   17.3042 N   0  0  0  0  0  0  0  0  0  0  0  0
    6.4666    0.4664   18.5094 C   0  0  0  0  0  0  0  0  0  0  0  0
    5.7109    0.7882   19.6373 C   0  0  0  0  0  0  0  0  0  0  0  0
    5.9006    0.2049   20.9215 N   0  0  0  0  0  0  0  0  0  0  0  0
    6.9985   -0.3694   21.4725 C   0  0  0  0  0  0  0  0  0  0  0  0
    8.0918   -0.4959   20.9320 O   0  0  0  0  0  0  0  0  0  0  0  0
    6.7619   -0.8687   22.8813 C   0  0  0  0  0  0  0  0  0  0  0  0
    7.8459   -1.8153   23.4166 C   0  0  0  0  0  0  0  0  0  0  0  0
    9.1999   -1.3174   23.0927 N   0  0  0  0  0  0  0  0  0  0  0  0
   10.0108   -2.2995   22.3686 C   0  0  0  0  0  0  0  0  0  0  0  0
   11.2988   -1.6833   21.8704 C   0  0  0  0  0  0  0  0  0  0  0  0
   12.1072   -1.0835   23.0012 C   0  0  0  0  0  0  0  0  0  0  0  0
   13.3058   -0.4413   22.5579 O   0  0  0  0  0  0  0  0  0  0  0  0
   11.2155   -0.1157   23.7695 C   0  0  0  0  0  0  0  0  0  0  0  0
    9.9373   -0.7880   24.2330 C   0  0  0  0  0  0  0  0  0  0  0  0
    7.6254   -3.2082   22.8985 C   0  0  0  0  0  0  0  0  0  0  0  0
    8.0511   -4.3947   23.5649 C   0  0  0  0  0  0  0  0  0  0  0  0
    7.7483   -5.5494   22.9085 C   0  0  0  0  0  0  0  0  0  0  0  0
    6.9354   -5.1956   21.4606 S   0  0  0  0  0  0  0  0  0  0  0  0
    6.9998   -3.5178   21.7258 C   0  0  0  0  0  0  0  0  0  0  0  0
  1  2  1  0
  2  3  2  0
  3  4  1  0
  4  5  2  0
  5  6  1  0
  6  7  2  0
  7  8  1  0
  8  9  1  0
  9 10  2  0
  9 11  1  0
 11 12  1  0
 12 13  1  0
 13 14  1  0
 14 15  1  0
 15 16  1  0
 16 17  1  0
 16 18  1  0
 18 19  1  0
 12 20  1  0
 20 21  1  0
 21 22  2  0
 22 23  1  0
 23 24  1  0
  7  2  1  0
 19 13  1  0
 24 20  2  0
M  END
