CVD-0002390|dock_bobby27042020.20|mol2|18|dock2
     RDKit          3D

 26 29  0  0  0  0  0  0  0  0999 V2000
    6.6247   -6.6373   23.0832 F   0  0  0  0  0  0  0  0  0  0  0  0
    7.1969   -5.4403   22.8196 C   0  0  0  0  0  0  0  0  0  0  0  0
    6.6173   -4.6098   21.8981 C   0  0  0  0  0  0  0  0  0  0  0  0
    7.2052   -3.3775   21.6148 C   0  0  0  0  0  0  0  0  0  0  0  0
    8.3933   -3.0058   22.2615 C   0  0  0  0  0  0  0  0  0  0  0  0
    8.9485   -3.8584   23.2149 C   0  0  0  0  0  0  0  0  0  0  0  0
    8.3511   -5.0755   23.4821 C   0  0  0  0  0  0  0  0  0  0  0  0
    9.0637   -6.1346   24.6546 Cl  0  0  0  0  0  0  0  0  0  0  0  0
    8.9728   -1.7584   21.9182 N   0  0  0  0  0  0  0  0  0  0  0  0
   10.2240   -1.3427   22.5110 C   0  0  0  0  0  0  0  0  0  0  0  0
   11.4327   -1.7555   21.9628 C   0  0  0  0  0  0  0  0  0  0  0  0
   12.6299   -1.3542   22.5314 C   0  0  0  0  0  0  0  0  0  0  0  0
   12.6342   -0.5422   23.6447 C   0  0  0  0  0  0  0  0  0  0  0  0
   11.4406   -0.1275   24.1942 C   0  0  0  0  0  0  0  0  0  0  0  0
   10.2375   -0.5228   23.6336 C   0  0  0  0  0  0  0  0  0  0  0  0
    8.3882   -0.8744   21.0060 C   0  0  0  0  0  0  0  0  0  0  0  0
    8.9153    0.1997   20.7605 O   0  0  0  0  0  0  0  0  0  0  0  0
    7.1887   -1.2734   20.3955 N   0  0  0  0  0  0  0  0  0  0  0  0
    6.5708   -0.3682   19.4430 C   0  0  0  0  0  0  0  0  0  0  0  0
    7.2399    0.0754   18.3136 C   0  0  0  0  0  0  0  0  0  0  0  0
    6.6897    0.9075   17.4258 N   0  0  0  0  0  0  0  0  0  0  0  0
    5.4444    1.2885   17.6876 C   0  0  0  0  0  0  0  0  0  0  0  0
    4.6998    0.9356   18.7295 N   0  0  0  0  0  0  0  0  0  0  0  0
    5.2793    0.1081   19.6029 C   0  0  0  0  0  0  0  0  0  0  0  0
    6.5460   -2.5035   20.6381 C   0  0  0  0  0  0  0  0  0  0  0  0
    5.5176   -2.8377   20.0744 O   0  0  0  0  0  0  0  0  0  0  0  0
  1  2  1  0
  2  3  2  0
  3  4  1  0
  4  5  2  0
  5  6  1  0
  6  7  2  0
  7  8  1  0
  5  9  1  0
  9 10  1  0
 10 11  2  0
 11 12  1  0
 12 13  2  0
 13 14  1  0
 14 15  2  0
  9 16  1  0
 16 17  2  0
 16 18  1  0
 18 19  1  0
 19 20  2  0
 20 21  1  0
 21 22  2  0
 22 23  1  0
 23 24  2  0
 18 25  1  0
 25 26  2  0
  7  2  1  0
 15 10  1  0
 24 19  1  0
 25  4  1  0
M  END
