CVD-0002465|dock_bobby27042020.63|mol2|16|dock3
     RDKit          3D

 28 31  0  0  0  0  0  0  0  0999 V2000
    9.1915   -5.3728   27.6557 C   0  0  0  0  0  0  0  0  0  0  0  0
    8.9868   -4.8327   26.3128 N   0  0  0  0  0  0  0  0  0  0  0  0
   10.2365   -4.8002   25.5887 C   0  0  0  0  0  0  0  0  0  0  0  0
   10.0611   -4.3315   24.1722 C   0  0  0  0  0  0  0  0  0  0  0  0
    9.3751   -3.0475   24.0818 N   0  0  0  0  0  0  0  0  0  0  0  0
    8.2171   -2.9699   24.9618 C   0  0  0  0  0  0  0  0  0  0  0  0
    8.4847   -3.4730   26.3500 C   0  0  0  0  0  0  0  0  0  0  0  0
    9.1954   -2.5354   22.8156 C   0  0  0  0  0  0  0  0  0  0  0  0
    8.3496   -3.2000   21.9245 C   0  0  0  0  0  0  0  0  0  0  0  0
    8.0068   -2.5901   20.7325 C   0  0  0  0  0  0  0  0  0  0  0  0
    8.4691   -1.3246   20.4208 C   0  0  0  0  0  0  0  0  0  0  0  0
    8.0156   -0.6111   19.1699 C   0  0  0  0  0  0  0  0  0  0  0  0
    6.8818    0.2966   19.3992 N   0  0  0  0  0  0  0  0  0  0  0  0
    5.7791   -0.4044   20.0679 C   0  0  0  0  0  0  0  0  0  0  0  0
    4.6184    0.5250   20.3639 C   0  0  0  0  0  0  0  0  0  0  0  0
    4.0922    1.2250   19.1168 C   0  0  0  0  0  0  0  0  0  0  0  0
    3.0828    2.2020   19.3844 O   0  0  0  0  0  0  0  0  0  0  0  0
    5.2715    1.8586   18.3871 C   0  0  0  0  0  0  0  0  0  0  0  0
    6.3981    0.8692   18.1400 C   0  0  0  0  0  0  0  0  0  0  0  0
    9.3609   -0.7289   21.2934 C   0  0  0  0  0  0  0  0  0  0  0  0
    9.8147   -1.3831   22.3957 N   0  0  0  0  0  0  0  0  0  0  0  0
   11.0131   -0.8992   23.1240 C   0  0  0  0  0  0  0  0  0  0  0  0
   10.9543    0.5192   23.2297 O   0  0  0  0  0  0  0  0  0  0  0  0
   12.2333    1.0678   23.0017 C   0  0  0  0  0  0  0  0  0  0  0  0
   13.2111   -0.0941   22.9678 C   0  0  0  0  0  0  0  0  0  0  0  0
   14.3272    0.2127   22.1310 O   0  0  0  0  0  0  0  0  0  0  0  0
   12.3296   -1.2259   22.4275 C   0  0  0  0  0  0  0  0  0  0  0  0
   12.0770   -1.1155   21.0305 O   0  0  0  0  0  0  0  0  0  0  0  0
  1  2  1  0
  2  3  1  0
  3  4  1  0
  4  5  1  0
  5  6  1  0
  6  7  1  0
  5  8  1  0
  8  9  2  0
  9 10  1  0
 10 11  2  0
 11 12  1  0
 12 13  1  0
 13 14  1  0
 14 15  1  0
 15 16  1  0
 16 17  1  0
 16 18  1  0
 18 19  1  0
 11 20  1  0
 20 21  2  0
 21 22  1  0
 22 23  1  0
 23 24  1  0
 24 25  1  0
 25 26  1  0
 25 27  1  0
 27 28  1  0
  7  2  1  0
 21  8  1  0
 27 22  1  0
 19 13  1  0
M  CHG  1  21   1
M  END
