CVD-0003035|dock_bobby27042020.75|mol2|11|dock2
     RDKit          3D

 53 55  0  0  0  0  0  0  0  0999 V2000
    4.7790    0.3428   19.3462 C   0  0  0  0  0  0  0  0  0  0  0  0
    6.1358    0.6487   18.7363 C   0  0  0  0  0  0  0  0  0  0  0  0
    5.9388    1.3742   17.4166 C   0  0  0  0  0  0  0  0  0  0  0  0
    6.9825   -0.6016   18.4962 C   0  0  0  0  0  0  0  0  0  0  0  0
    7.5146   -1.3948   19.7000 C   0  0  0  0  0  0  0  0  0  0  0  0
    6.5307   -2.4362   20.2046 C   0  0  0  0  0  0  0  0  0  0  0  0
    6.7846   -2.6307   21.5894 O   0  0  0  0  0  0  0  0  0  0  0  0
    7.6097   -3.7366   21.9446 C   0  0  0  0  0  0  0  0  0  0  0  0
    6.9179   -5.0630   21.7534 C   0  0  0  0  0  0  0  0  0  0  0  0
    7.2545   -6.2042   22.7223 C   0  0  0  0  0  0  0  0  0  0  0  0
    6.0135   -6.8876   23.0330 C   0  0  0  0  0  0  0  0  0  0  0  0
    4.8903   -6.1302   22.3012 C   0  0  0  0  0  0  0  0  0  0  0  0
    3.6345   -5.8327   23.0842 C   0  0  0  0  0  0  0  0  0  0  0  0
    2.7320   -6.9753   23.1465 N   0  0  0  0  0  0  0  0  0  0  0  0
    2.8675   -7.9383   24.0582 C   0  0  0  0  0  0  0  0  0  0  0  0
    3.7574   -7.9335   24.9073 O   0  0  0  0  0  0  0  0  0  0  0  0
    1.8755   -9.0409   24.0024 C   0  0  0  0  0  0  0  0  0  0  0  0
    1.7060  -10.1477   24.9154 C   0  0  0  0  0  0  0  0  0  0  0  0
    0.6609  -10.8547   24.3969 C   0  0  0  0  0  0  0  0  0  0  0  0
    0.2447  -10.2226   23.2896 N   0  0  0  0  0  0  0  0  0  0  0  0
   -0.8273  -10.6199   22.3850 C   0  0  0  0  0  0  0  0  0  0  0  0
    0.9714   -9.1071   23.0042 N   0  0  0  0  0  0  0  0  0  0  0  0
    5.4992   -4.9058   21.8800 O   0  0  0  0  0  0  0  0  0  0  0  0
    7.8746   -0.4567   20.8321 C   0  0  0  0  0  0  0  0  0  0  0  0
    7.0164    0.0445   21.5537 O   0  0  0  0  0  0  0  0  0  0  0  0
    9.1792   -0.2150   20.9892 N   0  0  0  0  0  0  0  0  0  0  0  0
    9.6782    0.6574   22.0404 C   0  0  0  0  0  0  0  0  0  0  0  0
   11.1220    1.0940   21.7463 C   0  0  0  0  0  0  0  0  0  0  0  0
   11.6181    2.1146   22.7484 C   0  0  0  0  0  0  0  0  0  0  0  0
   11.9654   -0.0581   21.7825 O   0  0  0  0  0  0  0  0  0  0  0  0
    9.6035   -0.0583   23.3847 C   0  0  0  0  0  0  0  0  0  0  0  0
   10.2064   -1.1126   23.5676 O   0  0  0  0  0  0  0  0  0  0  0  0
    8.8567    0.5242   24.3270 N   0  0  0  0  0  0  0  0  0  0  0  0
    8.6757   -0.0777   25.6378 C   0  0  0  0  0  0  0  0  0  0  0  0
    8.1057    0.9617   26.6171 C   0  0  0  0  0  0  0  0  0  0  0  0
    6.7458    1.4935   26.2339 C   0  0  0  0  0  0  0  0  0  0  0  0
    6.6096    2.7555   25.6768 C   0  0  0  0  0  0  0  0  0  0  0  0
    5.3620    3.2448   25.3276 C   0  0  0  0  0  0  0  0  0  0  0  0
    4.2355    2.4774   25.5321 C   0  0  0  0  0  0  0  0  0  0  0  0
    4.3568    1.2212   26.0861 C   0  0  0  0  0  0  0  0  0  0  0  0
    5.6047    0.7325   26.4351 C   0  0  0  0  0  0  0  0  0  0  0  0
    7.7568   -1.2937   25.5425 C   0  0  0  0  0  0  0  0  0  0  0  0
    7.2251   -1.5818   24.4735 O   0  0  0  0  0  0  0  0  0  0  0  0
    7.5740   -2.0113   26.6551 N   0  0  0  0  0  0  0  0  0  0  0  0
    6.7248   -3.1910   26.6705 C   0  0  0  0  0  0  0  0  0  0  0  0
    7.5741   -4.4532   26.8384 C   0  0  0  0  0  0  0  0  0  0  0  0
    8.9678   -4.3191   26.2315 C   0  0  0  0  0  0  0  0  0  0  0  0
    9.6249   -5.6567   25.9966 C   0  0  0  0  0  0  0  0  0  0  0  0
   10.6833   -5.6598   25.2017 N   0  0  0  0  0  0  0  0  0  0  0  0
    9.1867   -6.6828   26.5246 O   0  0  0  0  0  0  0  0  0  0  0  0
    5.7095   -3.0888   27.7974 C   0  0  0  0  0  0  0  0  0  0  0  0
    4.8513   -4.0770   27.8023 O   0  0  0  0  0  0  0  0  0  0  0  0
    5.7073   -2.1804   28.5989 O   0  0  0  0  0  0  0  0  0  0  0  0
  1  2  1  0
  2  3  1  0
  2  4  1  0
  4  5  1  0
  5  6  1  0
  6  7  1  0
  7  8  1  0
  9  8  1  0
  9 10  1  0
 10 11  1  0
 11 12  1  0
 12 13  1  0
 13 14  1  0
 14 15  1  0
 15 16  2  0
 15 17  1  0
 17 18  1  0
 18 19  2  0
 19 20  1  0
 20 21  1  0
 20 22  1  0
 12 23  1  0
  5 24  1  0
 24 25  2  0
 24 26  1  0
 26 27  1  0
 27 28  1  0
 28 29  1  0
 28 30  1  0
 27 31  1  0
 31 32  2  0
 31 33  1  0
 33 34  1  0
 34 35  1  0
 35 36  1  0
 36 37  2  0
 37 38  1  0
 38 39  2  0
 39 40  1  0
 40 41  2  0
 34 42  1  0
 42 43  2  0
 42 44  1  0
 44 45  1  0
 45 46  1  0
 46 47  1  0
 47 48  1  0
 48 49  1  0
 48 50  2  0
 45 51  1  0
 51 52  1  0
 51 53  2  0
 23  9  1  0
 41 36  1  0
 22 17  2  0
M  END
