CVD-0000550|dock_bobby27042020.84|mol2|2|dock1
     RDKit          3D

 29 31  0  0  0  0  0  0  0  0999 V2000
    5.8201   -6.4788   23.2267 N   0  0  0  0  0  0  0  0  0  0  0  0
    7.2852   -5.8392   23.1408 S   0  0  0  0  0  0  0  0  0  0  0  0
    7.9666   -6.4854   22.0595 O   0  0  0  0  0  0  0  0  0  0  0  0
    7.8533   -5.9042   24.4539 O   0  0  0  0  0  0  0  0  0  0  0  0
    7.1264   -4.1306   22.7185 C   0  0  0  0  0  0  0  0  0  0  0  0
    6.7466   -3.7734   21.4356 C   0  0  0  0  0  0  0  0  0  0  0  0
    6.6177   -2.4350   21.1107 C   0  0  0  0  0  0  0  0  0  0  0  0
    6.8654   -1.4620   22.0634 C   0  0  0  0  0  0  0  0  0  0  0  0
    6.7249   -0.1221   21.6973 O   0  0  0  0  0  0  0  0  0  0  0  0
    6.6446    0.2688   20.3585 C   0  0  0  0  0  0  0  0  0  0  0  0
    7.7426    0.1067   19.4971 C   0  0  0  0  0  0  0  0  0  0  0  0
    8.9119   -0.4847   20.0537 N   0  0  0  0  0  0  0  0  0  0  0  0
    9.4714   -0.3082   21.2999 C   0  0  0  0  0  0  0  0  0  0  0  0
    9.0190    0.4309   22.1674 O   0  0  0  0  0  0  0  0  0  0  0  0
   10.6081   -1.0701   21.4503 N   0  0  0  0  0  0  0  0  0  0  0  0
   11.4960   -1.2044   22.5480 C   0  0  0  0  0  0  0  0  0  0  0  0
   11.0022   -0.9928   23.8291 C   0  0  0  0  0  0  0  0  0  0  0  0
   11.8446   -1.1167   24.9197 C   0  0  0  0  0  0  0  0  0  0  0  0
   13.1608   -1.4495   24.7001 C   0  0  0  0  0  0  0  0  0  0  0  0
   13.6662   -1.6593   23.4847 N   0  0  0  0  0  0  0  0  0  0  0  0
   12.8448   -1.5373   22.4372 C   0  0  0  0  0  0  0  0  0  0  0  0
    7.6028    0.5345   18.1767 C   0  0  0  0  0  0  0  0  0  0  0  0
    6.4881    1.0888   17.6914 N   0  0  0  0  0  0  0  0  0  0  0  0
    5.4459    1.2247   18.5106 C   0  0  0  0  0  0  0  0  0  0  0  0
    5.4614    0.8266   19.8506 C   0  0  0  0  0  0  0  0  0  0  0  0
    4.2911    0.9837   20.6752 C   0  0  0  0  0  0  0  0  0  0  0  0
    3.3721    1.1411   21.3352 N   0  0  0  0  0  0  0  0  0  0  0  0
    7.2458   -1.8233   23.3469 C   0  0  0  0  0  0  0  0  0  0  0  0
    7.3749   -3.1612   23.6760 C   0  0  0  0  0  0  0  0  0  0  0  0
  1  2  1  0
  2  3  2  0
  2  4  2  0
  2  5  1  0
  5  6  2  0
  6  7  1  0
  7  8  2  0
  8  9  1  0
  9 10  1  0
 10 11  1  0
 11 12  1  0
 12 13  1  0
 13 14  2  0
 13 15  1  0
 15 16  1  0
 16 17  2  0
 17 18  1  0
 18 19  2  0
 19 20  1  0
 20 21  2  0
 11 22  2  0
 22 23  1  0
 23 24  2  0
 24 25  1  0
 25 26  1  0
 26 27  3  0
  8 28  1  0
 28 29  2  0
 29  5  1  0
 25 10  2  0
 21 16  1  0
M  END
