CVD-0001924|dock_bobby27042020.93|mol2|33|dock2
     RDKit          3D

 24 26  0  0  0  0  0  0  0  0999 V2000
    5.9969    2.8606   21.6947 N   0  0  0  0  0  0  0  0  0  0  0  0
    7.4445    2.8888   22.0025 C   0  0  0  0  0  0  0  0  0  0  0  0
    8.0716    1.5032   22.1067 C   0  0  0  0  0  0  0  0  0  0  0  0
    7.9869    1.1080   23.4706 O   0  0  0  0  0  0  0  0  0  0  0  0
    8.3413   -0.2733   23.6900 C   0  0  0  0  0  0  0  0  0  0  0  0
    7.1930   -1.1194   23.0774 C   0  0  0  0  0  0  0  0  0  0  0  0
    7.1058   -0.7790   21.6008 C   0  0  0  0  0  0  0  0  0  0  0  0
    6.6151   -1.7000   20.6627 C   0  0  0  0  0  0  0  0  0  0  0  0
    6.1617   -2.9365   21.0353 O   0  0  0  0  0  0  0  0  0  0  0  0
    6.4284   -1.3230   19.3336 C   0  0  0  0  0  0  0  0  0  0  0  0
    5.8702   -2.2103   18.4689 O   0  0  0  0  0  0  0  0  0  0  0  0
    6.7248   -0.0334   18.9186 C   0  0  0  0  0  0  0  0  0  0  0  0
    7.2085    0.8780   19.8374 C   0  0  0  0  0  0  0  0  0  0  0  0
    7.4037    0.5239   21.1726 C   0  0  0  0  0  0  0  0  0  0  0  0
    9.7115   -0.4795   23.0463 C   0  0  0  0  0  0  0  0  0  0  0  0
   10.2422   -1.9141   23.1860 C   0  0  0  0  0  0  0  0  0  0  0  0
   11.5482   -2.0906   22.4261 C   0  0  0  0  0  0  0  0  0  0  0  0
   12.6025   -1.0712   22.8443 C   0  0  0  0  0  0  0  0  0  0  0  0
   12.0370    0.3286   22.7064 C   0  0  0  0  0  0  0  0  0  0  0  0
   13.0731    1.3811   23.1007 C   0  0  0  0  0  0  0  0  0  0  0  0
   12.7586    2.8242   22.6972 C   0  0  0  0  0  0  0  0  0  0  0  0
   13.9009    3.7441   22.7854 C   0  0  0  0  0  0  0  0  0  0  0  0
   14.1447    4.4467   23.7204 O   0  0  0  0  0  0  0  0  0  0  0  0
   10.7771    0.5052   23.5565 C   0  0  0  0  0  0  0  0  0  0  0  0
  1  2  1  0
  2  3  1  0
  3  4  1  0
  4  5  1  0
  5  6  1  0
  6  7  1  0
  7  8  2  0
  8  9  1  0
  8 10  1  0
 10 11  1  0
 10 12  2  0
 12 13  1  0
 13 14  2  0
  5 15  1  0
 15 16  1  0
 16 17  1  0
 17 18  1  0
 18 19  1  0
 19 20  1  0
 20 21  1  0
 21 22  1  0
 22 23  2  0
 19 24  1  0
 14  3  1  0
 24 15  1  0
 14  7  1  0
M  END
