CVD-0000652|dock_bobby27042020.69|mol2|33|dock2
     RDKit          3D

 25 27  0  0  0  0  0  0  0  0999 V2000
    5.1365   -0.0266   19.6072 Cl  0  0  0  0  0  0  0  0  0  0  0  0
    5.0688    1.1935   20.8854 C   0  0  0  0  0  0  0  0  0  0  0  0
    6.4612    1.5358   21.3804 C   0  0  0  0  0  0  0  0  0  0  0  0
    6.9397    2.6396   21.1512 O   0  0  0  0  0  0  0  0  0  0  0  0
    7.1562    0.5988   22.0677 N   0  0  0  0  0  0  0  0  0  0  0  0
    8.5109    0.8204   22.5781 C   0  0  0  0  0  0  0  0  0  0  0  0
    9.4534   -0.2513   22.0627 C   0  0  0  0  0  0  0  0  0  0  0  0
    8.9749   -1.5797   22.4565 N   0  0  0  0  0  0  0  0  0  0  0  0
    9.9312   -2.6240   22.0514 C   0  0  0  0  0  0  0  0  0  0  0  0
   11.3539   -2.3364   22.4692 C   0  0  0  0  0  0  0  0  0  0  0  0
   12.2599   -1.7928   21.5722 C   0  0  0  0  0  0  0  0  0  0  0  0
   13.5651   -1.5323   21.9549 C   0  0  0  0  0  0  0  0  0  0  0  0
   13.9835   -1.8140   23.2445 C   0  0  0  0  0  0  0  0  0  0  0  0
   13.0791   -2.3554   24.1315 C   0  0  0  0  0  0  0  0  0  0  0  0
   13.5900   -2.7159   25.7568 Cl  0  0  0  0  0  0  0  0  0  0  0  0
   11.7763   -2.6194   23.7617 C   0  0  0  0  0  0  0  0  0  0  0  0
    7.6457   -1.7947   21.8906 C   0  0  0  0  0  0  0  0  0  0  0  0
    6.6708   -0.7457   22.3940 C   0  0  0  0  0  0  0  0  0  0  0  0
    7.1174   -3.1746   22.2269 C   0  0  0  0  0  0  0  0  0  0  0  0
    7.1803   -3.6631   23.5243 C   0  0  0  0  0  0  0  0  0  0  0  0
    6.7029   -4.9232   23.8385 C   0  0  0  0  0  0  0  0  0  0  0  0
    6.1577   -5.7007   22.8406 C   0  0  0  0  0  0  0  0  0  0  0  0
    5.5536   -7.2878   23.2263 Cl  0  0  0  0  0  0  0  0  0  0  0  0
    6.0819   -5.2449   21.5427 C   0  0  0  0  0  0  0  0  0  0  0  0
    6.5635   -3.9827   21.2440 C   0  0  0  0  0  0  0  0  0  0  0  0
  1  2  1  0
  2  3  1  0
  3  4  2  0
  3  5  1  0
  5  6  1  0
  6  7  1  0
  7  8  1  0
  8  9  1  0
  9 10  1  0
 10 11  2  0
 11 12  1  0
 12 13  2  0
 13 14  1  0
 14 15  1  0
 14 16  2  0
  8 17  1  0
 17 18  1  0
 17 19  1  0
 19 20  2  0
 20 21  1  0
 21 22  2  0
 22 23  1  0
 22 24  1  0
 24 25  2  0
 18  5  1  0
 25 19  1  0
 16 10  1  0
M  END
