CVD-0003199|dock_bobby27042020.74|mol2|34|dock3
     RDKit          3D

 24 25  0  0  0  0  0  0  0  0999 V2000
    8.4018   -5.7759   27.5119 C   0  0  0  0  0  0  0  0  0  0  0  0
   10.0281   -5.4662   26.9410 S   0  0  0  0  0  0  0  0  0  0  0  0
   10.4200   -6.5575   26.1037 O   0  0  0  0  0  0  0  0  0  0  0  0
   10.8425   -5.1469   28.0726 O   0  0  0  0  0  0  0  0  0  0  0  0
    9.9773   -4.1584   26.0149 N   0  0  0  0  0  0  0  0  0  0  0  0
    9.9978   -4.3019   24.5542 C   0  0  0  0  0  0  0  0  0  0  0  0
    9.2978   -3.1349   23.8868 C   0  0  0  0  0  0  0  0  0  0  0  0
    9.9968   -1.8259   24.1108 C   0  0  0  0  0  0  0  0  0  0  0  0
    9.6786   -0.8613   25.0219 C   0  0  0  0  0  0  0  0  0  0  0  0
   10.5475    0.1922   24.9281 N   0  0  0  0  0  0  0  0  0  0  0  0
   11.4569   -0.0812   23.9365 C   0  0  0  0  0  0  0  0  0  0  0  0
   12.5312    0.6819   23.4709 C   0  0  0  0  0  0  0  0  0  0  0  0
   12.8554    2.0384   24.0559 C   0  0  0  0  0  0  0  0  0  0  0  0
   12.2068    3.1750   23.2864 C   0  0  0  0  0  0  0  0  0  0  0  0
   12.7676    4.4668   23.7002 N   0  0  0  0  0  0  0  0  0  0  0  0
   14.1331    4.9865   23.0400 S   0  0  0  0  0  0  0  0  0  0  0  0
   13.9676    6.7077   22.7633 C   0  0  0  0  0  0  0  0  0  0  0  0
   14.2557    4.3424   21.7689 O   0  0  0  0  0  0  0  0  0  0  0  0
   15.1678    4.7900   24.0079 O   0  0  0  0  0  0  0  0  0  0  0  0
   13.3038    0.1609   22.4382 C   0  0  0  0  0  0  0  0  0  0  0  0
   13.0013   -1.0780   21.9047 C   0  0  0  0  0  0  0  0  0  0  0  0
   13.9873   -1.7046   20.6134 Cl  0  0  0  0  0  0  0  0  0  0  0  0
   11.9400   -1.8345   22.3648 C   0  0  0  0  0  0  0  0  0  0  0  0
   11.1442   -1.3417   23.3978 C   0  0  0  0  0  0  0  0  0  0  0  0
  1  2  1  0
  2  3  2  0
  2  4  2  0
  2  5  1  0
  5  6  1  0
  6  7  1  0
  7  8  1  0
  8  9  2  0
  9 10  1  0
 10 11  1  0
 11 12  2  0
 12 13  1  0
 13 14  1  0
 14 15  1  0
 15 16  1  0
 16 17  1  0
 16 18  2  0
 16 19  2  0
 12 20  1  0
 20 21  2  0
 21 22  1  0
 21 23  1  0
 23 24  2  0
 24  8  1  0
 24 11  1  0
M  END
