CVD-0003858|dock_bobby27042020.0|mol2|34|dock1
     RDKit          3D

 29 32  0  0  0  0  0  0  0  0999 V2000
    2.3997    5.1766   19.0339 N   0  0  0  0  0  0  0  0  0  0  0  0
    1.9874    3.6707   18.6796 S   0  0  0  0  0  0  0  0  0  0  0  0
    1.8938    3.5818   17.2533 O   0  0  0  0  0  0  0  0  0  0  0  0
    0.8369    3.3497   19.4697 O   0  0  0  0  0  0  0  0  0  0  0  0
    3.2949    2.5972   19.1906 C   0  0  0  0  0  0  0  0  0  0  0  0
    4.2905    2.2481   18.2965 C   0  0  0  0  0  0  0  0  0  0  0  0
    5.3125    1.4091   18.7038 C   0  0  0  0  0  0  0  0  0  0  0  0
    5.3556    0.8919   19.9954 C   0  0  0  0  0  0  0  0  0  0  0  0
    4.3359    1.2517   20.8720 C   0  0  0  0  0  0  0  0  0  0  0  0
    3.3160    2.1012   20.4814 C   0  0  0  0  0  0  0  0  0  0  0  0
    6.3844    0.0445   20.3941 N   0  0  0  0  0  0  0  0  0  0  0  0
    7.7824    0.2528   20.0053 C   0  0  0  0  0  0  0  0  0  0  0  0
    8.7217    0.0904   21.1667 C   0  0  0  0  0  0  0  0  0  0  0  0
    8.5510   -1.2835   21.8243 C   0  0  0  0  0  0  0  0  0  0  0  0
    9.4999   -1.4647   23.0033 C   0  0  0  0  0  0  0  0  0  0  0  0
   10.8914   -1.0661   22.7534 N   0  0  0  0  0  0  0  0  0  0  0  0
   11.6090   -2.0113   21.9121 C   0  0  0  0  0  0  0  0  0  0  0  0
   13.0360   -1.4724   21.5653 C   0  0  0  0  0  0  0  0  0  0  0  0
   13.8161   -1.0704   22.8295 C   0  0  0  0  0  0  0  0  0  0  0  0
   12.9590   -0.1570   23.7041 C   0  0  0  0  0  0  0  0  0  0  0  0
   11.6125   -0.8009   23.9964 C   0  0  0  0  0  0  0  0  0  0  0  0
   12.7303    1.1922   23.0514 C   0  0  0  0  0  0  0  0  0  0  0  0
   13.8020    1.9898   22.6750 C   0  0  0  0  0  0  0  0  0  0  0  0
   13.5928    3.2234   22.0814 C   0  0  0  0  0  0  0  0  0  0  0  0
   12.3099    3.6754   21.8574 C   0  0  0  0  0  0  0  0  0  0  0  0
   11.2360    2.8945   22.2272 C   0  0  0  0  0  0  0  0  0  0  0  0
   11.4444    1.6608   22.8208 C   0  0  0  0  0  0  0  0  0  0  0  0
    7.1043   -1.4577   22.2121 C   0  0  0  0  0  0  0  0  0  0  0  0
    6.1533   -1.2632   21.0505 C   0  0  0  0  0  0  0  0  0  0  0  0
  1  2  1  0
  2  3  2  0
  2  4  2  0
  2  5  1  0
  5  6  2  0
  6  7  1  0
  7  8  2  0
  8  9  1  0
  9 10  2  0
  8 11  1  0
 11 12  1  0
 12 13  1  0
 13 14  1  0
 14 15  1  0
 15 16  1  0
 16 17  1  0
 17 18  1  0
 18 19  1  0
 19 20  1  0
 20 21  1  0
 20 22  1  0
 22 23  2  0
 23 24  1  0
 24 25  2  0
 25 26  1  0
 26 27  2  0
 14 28  1  0
 28 29  1  0
 10  5  1  0
 29 11  1  0
 21 16  1  0
 27 22  1  0
M  END
