CVD-0000496|dock_bobby27042020.55|mol2|42|dock1
     RDKit          3D

 38 39  0  0  0  0  0  0  0  0999 V2000
   10.2162    3.0195   23.0565 C   0  0  0  0  0  0  0  0  0  0  0  0
    9.0626    3.8785   22.6069 C   0  0  0  0  0  0  0  0  0  0  0  0
    9.2714    5.2514   22.4964 C   0  0  0  0  0  0  0  0  0  0  0  0
    8.2924    6.0938   22.0031 C   0  0  0  0  0  0  0  0  0  0  0  0
    7.0762    5.5715   21.6040 C   0  0  0  0  0  0  0  0  0  0  0  0
    6.8069    4.2108   21.7257 C   0  0  0  0  0  0  0  0  0  0  0  0
    5.4703    3.6605   21.2891 C   0  0  0  0  0  0  0  0  0  0  0  0
    4.8953    2.7891   22.2475 O   0  0  0  0  0  0  0  0  0  0  0  0
    7.7955    3.3765   22.2676 C   0  0  0  0  0  0  0  0  0  0  0  0
    7.4339    1.9965   22.4393 N   0  0  0  0  0  0  0  0  0  0  0  0
    7.7644    0.9735   21.5839 C   0  0  0  0  0  0  0  0  0  0  0  0
    8.4173    1.1039   20.5521 O   0  0  0  0  0  0  0  0  0  0  0  0
    7.2935   -0.2227   22.0118 N   0  0  0  0  0  0  0  0  0  0  0  0
    7.4340   -1.4654   21.2606 C   0  0  0  0  0  0  0  0  0  0  0  0
    6.2705   -1.6778   20.2768 C   0  0  0  0  0  0  0  0  0  0  0  0
    6.0517   -0.5021   19.3559 C   0  0  0  0  0  0  0  0  0  0  0  0
    4.8377    0.1667   19.3342 C   0  0  0  0  0  0  0  0  0  0  0  0
    4.6293    1.2431   18.4902 C   0  0  0  0  0  0  0  0  0  0  0  0
    5.6449    1.6665   17.6482 C   0  0  0  0  0  0  0  0  0  0  0  0
    5.4461    2.7274   16.8137 O   0  0  0  0  0  0  0  0  0  0  0  0
    6.8632    1.0067   17.6580 C   0  0  0  0  0  0  0  0  0  0  0  0
    7.0579   -0.0682   18.5070 C   0  0  0  0  0  0  0  0  0  0  0  0
    7.5854   -2.6691   22.1996 C   0  0  0  0  0  0  0  0  0  0  0  0
    6.7447   -3.5477   22.1879 O   0  0  0  0  0  0  0  0  0  0  0  0
    8.6347   -2.7581   23.0463 N   0  0  0  0  0  0  0  0  0  0  0  0
    9.6835   -1.7347   23.1877 C   0  0  0  0  0  0  0  0  0  0  0  0
   11.0252   -2.1601   22.6164 C   0  0  0  0  0  0  0  0  0  0  0  0
   11.9665   -0.9786   22.4298 C   0  0  0  0  0  0  0  0  0  0  0  0
   13.3120   -1.3592   21.8635 C   0  0  0  0  0  0  0  0  0  0  0  0
   13.3418   -1.6679   20.5766 N   0  0  0  0  0  0  0  0  0  0  0  0
   14.3204   -1.3768   22.5753 O   0  0  0  0  0  0  0  0  0  0  0  0
    8.8004   -3.9401   23.9033 C   0  0  0  0  0  0  0  0  0  0  0  0
    8.0572   -3.8650   25.2238 C   0  0  0  0  0  0  0  0  0  0  0  0
    8.9817   -4.0138   26.3541 N   0  0  0  0  0  0  0  0  0  0  0  0
    9.5446   -5.5778   26.7616 S   0  0  0  0  0  0  0  0  0  0  0  0
    9.7222   -6.3978   25.4819 N   0  0  0  0  0  0  0  0  0  0  0  0
    8.5082   -6.2398   27.5822 O   0  0  0  0  0  0  0  0  0  0  0  0
   10.8724   -5.4379   27.3967 O   0  0  0  0  0  0  0  0  0  0  0  0
  1  2  1  0
  2  3  2  0
  3  4  1  0
  4  5  2  0
  5  6  1  0
  6  7  1  0
  7  8  1  0
  6  9  2  0
  9 10  1  0
 10 11  1  0
 11 12  2  0
 11 13  1  0
 13 14  1  0
 14 15  1  0
 15 16  1  0
 16 17  2  0
 17 18  1  0
 18 19  2  0
 19 20  1  0
 19 21  1  0
 21 22  2  0
 14 23  1  0
 23 24  2  0
 23 25  1  0
 25 26  1  0
 26 27  1  0
 27 28  1  0
 28 29  1  0
 29 30  1  0
 29 31  2  0
 25 32  1  0
 32 33  1  0
 33 34  1  0
 34 35  1  0
 35 36  1  0
 35 37  2  0
 35 38  2  0
  9  2  1  0
 22 16  1  0
M  END
