CVD-0001269|dock_bobby27042020.24|mol2|26|dock3
     RDKit          3D

 23 25  0  0  0  0  0  0  0  0999 V2000
   13.5982    5.6801   21.9372 Cl  0  0  0  0  0  0  0  0  0  0  0  0
   12.7144    5.8062   23.4636 C   0  0  0  0  0  0  0  0  0  0  0  0
   11.3095    5.2535   23.3236 C   0  0  0  0  0  0  0  0  0  0  0  0
   10.3234    5.9474   23.5372 O   0  0  0  0  0  0  0  0  0  0  0  0
   11.2060    3.9598   22.9581 N   0  0  0  0  0  0  0  0  0  0  0  0
   12.3186    3.0427   22.6917 C   0  0  0  0  0  0  0  0  0  0  0  0
   12.0957    1.7216   23.3808 C   0  0  0  0  0  0  0  0  0  0  0  0
   10.8153    1.1246   22.9667 N   0  0  0  0  0  0  0  0  0  0  0  0
    9.7477    2.0547   23.3377 C   0  0  0  0  0  0  0  0  0  0  0  0
    9.9079    3.3765   22.6252 C   0  0  0  0  0  0  0  0  0  0  0  0
   10.6101   -0.1971   23.6027 C   0  0  0  0  0  0  0  0  0  0  0  0
    9.3741   -0.8999   23.0087 C   0  0  0  0  0  0  0  0  0  0  0  0
    9.2977   -0.6689   21.5044 C   0  0  0  0  0  0  0  0  0  0  0  0
    8.0652   -1.3796   20.9583 C   0  0  0  0  0  0  0  0  0  0  0  0
    8.0844   -2.7626   21.2534 O   0  0  0  0  0  0  0  0  0  0  0  0
    8.0875   -2.9906   22.6626 C   0  0  0  0  0  0  0  0  0  0  0  0
    9.3273   -2.3891   23.3239 C   0  0  0  0  0  0  0  0  0  0  0  0
   11.8445   -1.0720   23.5300 C   0  0  0  0  0  0  0  0  0  0  0  0
   12.5554   -1.2026   22.3452 C   0  0  0  0  0  0  0  0  0  0  0  0
   13.6814   -2.0064   22.2806 C   0  0  0  0  0  0  0  0  0  0  0  0
   14.1096   -2.6896   23.3986 C   0  0  0  0  0  0  0  0  0  0  0  0
   13.4124   -2.5701   24.5817 C   0  0  0  0  0  0  0  0  0  0  0  0
   12.2863   -1.7667   24.6474 C   0  0  0  0  0  0  0  0  0  0  0  0
  1  2  1  0
  2  3  1  0
  3  4  2  0
  3  5  1  0
  5  6  1  0
  6  7  1  0
  7  8  1  0
  8  9  1  0
  9 10  1  0
  8 11  1  0
 11 12  1  0
 12 13  1  0
 13 14  1  0
 14 15  1  0
 15 16  1  0
 16 17  1  0
 11 18  1  0
 18 19  2  0
 19 20  1  0
 20 21  2  0
 21 22  1  0
 22 23  2  0
 10  5  1  0
 17 12  1  0
 23 18  1  0
M  END
