CVD-0001308|dock_bobby27042020.67|mol2|31|dock1
     RDKit          3D

 18 19  0  0  0  0  0  0  0  0999 V2000
   12.8473   -2.8295   26.0028 F   0  0  0  0  0  0  0  0  0  0  0  0
   14.1561   -2.5498   25.6754 C   0  0  0  0  0  0  0  0  0  0  0  0
   14.3229   -1.3212   24.4033 S   0  0  0  0  0  0  0  0  0  0  0  0
   13.2715   -1.8812   23.1085 C   0  0  0  0  0  0  0  0  0  0  0  0
   13.6638   -2.6609   22.2794 O   0  0  0  0  0  0  0  0  0  0  0  0
   11.8814   -1.2875   23.1515 C   0  0  0  0  0  0  0  0  0  0  0  0
   11.0007   -1.8843   22.0608 C   0  0  0  0  0  0  0  0  0  0  0  0
    9.6225   -1.2562   22.0862 C   0  0  0  0  0  0  0  0  0  0  0  0
    9.7313    0.1918   21.9289 N   0  0  0  0  0  0  0  0  0  0  0  0
   10.5231    0.8156   22.9836 C   0  0  0  0  0  0  0  0  0  0  0  0
   11.9315    0.2305   22.9936 C   0  0  0  0  0  0  0  0  0  0  0  0
    8.9808    0.9529   21.1046 C   0  0  0  0  0  0  0  0  0  0  0  0
    9.1993    2.1559   21.0186 O   0  0  0  0  0  0  0  0  0  0  0  0
    7.8767    0.4539   20.2431 C   0  0  0  0  0  0  0  0  0  0  0  0
    6.5022    0.7719   20.1979 C   0  0  0  0  0  0  0  0  0  0  0  0
    5.9124   -0.0114   19.1801 C   0  0  0  0  0  0  0  0  0  0  0  0
    6.8957   -0.7802   18.6395 C   0  0  0  0  0  0  0  0  0  0  0  0
    8.0754   -0.5070   19.2749 N   0  0  0  0  0  0  0  0  0  0  0  0
  1  2  1  0
  2  3  1  0
  3  4  1  0
  4  5  2  0
  4  6  1  0
  6  7  1  0
  7  8  1  0
  8  9  1  0
  9 10  1  0
 10 11  1  0
  9 12  1  0
 12 13  2  0
 12 14  1  0
 14 15  2  0
 15 16  1  0
 16 17  2  0
 17 18  1  0
 11  6  1  0
 18 14  1  0
M  END
