CVD-0002857|dock_bobby27042020.47|mol2|11|dock3
     RDKit          3D

 27 30  0  0  0  0  0  0  0  0999 V2000
    9.9415   -6.4665   25.4695 N   0  0  0  0  0  0  0  0  0  0  0  0
    8.9207   -5.5592   24.6344 S   0  0  0  0  0  0  0  0  0  0  0  0
    9.2676   -5.6945   23.2514 O   0  0  0  0  0  0  0  0  0  0  0  0
    7.5981   -5.9140   25.0536 O   0  0  0  0  0  0  0  0  0  0  0  0
    9.1800   -3.8689   25.0804 C   0  0  0  0  0  0  0  0  0  0  0  0
    8.9011   -3.4527   26.3713 C   0  0  0  0  0  0  0  0  0  0  0  0
    9.0805   -2.1233   26.6996 C   0  0  0  0  0  0  0  0  0  0  0  0
    9.5335   -1.2019   25.7624 C   0  0  0  0  0  0  0  0  0  0  0  0
    9.8104    0.2306   26.1500 C   0  0  0  0  0  0  0  0  0  0  0  0
    9.7249    1.1448   24.9455 C   0  0  0  0  0  0  0  0  0  0  0  0
   10.6153    0.6215   23.8325 C   0  0  0  0  0  0  0  0  0  0  0  0
   10.2044   -0.7257   23.4583 N   0  0  0  0  0  0  0  0  0  0  0  0
   10.5459   -1.1867   22.1123 C   0  0  0  0  0  0  0  0  0  0  0  0
    9.3240   -1.4439   21.2475 C   0  0  0  0  0  0  0  0  0  0  0  0
    8.8077   -0.1883   20.5910 C   0  0  0  0  0  0  0  0  0  0  0  0
    9.4183    0.8661   20.7167 O   0  0  0  0  0  0  0  0  0  0  0  0
    7.5843   -0.2401   19.8112 C   0  0  0  0  0  0  0  0  0  0  0  0
    7.3863   -0.8576   18.5948 C   0  0  0  0  0  0  0  0  0  0  0  0
    6.0941   -0.6869   18.1745 N   0  0  0  0  0  0  0  0  0  0  0  0
    5.4199    0.0458   19.1072 C   0  0  0  0  0  0  0  0  0  0  0  0
    4.1316    0.4257   19.0633 N   0  0  0  0  0  0  0  0  0  0  0  0
    3.6884    1.1456   20.1030 C   0  0  0  0  0  0  0  0  0  0  0  0
    4.4710    1.5019   21.1804 C   0  0  0  0  0  0  0  0  0  0  0  0
    5.7978    1.1026   21.2111 C   0  0  0  0  0  0  0  0  0  0  0  0
    6.3071    0.3519   20.1535 C   0  0  0  0  0  0  0  0  0  0  0  0
    9.8151   -1.6352   24.4495 C   0  0  0  0  0  0  0  0  0  0  0  0
    9.6334   -2.9772   24.1200 C   0  0  0  0  0  0  0  0  0  0  0  0
  1  2  1  0
  2  3  2  0
  2  4  2  0
  2  5  1  0
  5  6  2  0
  6  7  1  0
  7  8  2  0
  8  9  1  0
  9 10  1  0
 10 11  1  0
 11 12  1  0
 12 13  1  0
 13 14  1  0
 14 15  1  0
 15 16  2  0
 15 17  1  0
 17 18  2  0
 18 19  1  0
 19 20  1  0
 20 21  2  0
 21 22  1  0
 22 23  2  0
 23 24  1  0
 24 25  2  0
 12 26  1  0
 26 27  2  0
 27  5  1  0
 26  8  1  0
 25 17  1  0
 25 20  1  0
M  END
