CVD-0000853|dock_bobby27042020.83|mol2|10|dock2
     RDKit          3D

 22 24  0  0  0  0  0  0  0  0999 V2000
    6.2829   -1.3917   21.6447 C   0  0  0  0  0  0  0  0  0  0  0  0
    6.8223   -0.0310   21.2221 C   0  0  0  0  0  0  0  0  0  0  0  0
    8.1140   -0.0733   20.4525 C   0  0  0  0  0  0  0  0  0  0  0  0
    8.1141   -1.0432   19.3984 O   0  0  0  0  0  0  0  0  0  0  0  0
    7.3189   -0.6785   18.2713 C   0  0  0  0  0  0  0  0  0  0  0  0
    5.8168   -0.6714   18.5905 C   0  0  0  0  0  0  0  0  0  0  0  0
    5.3349    0.5752   19.3579 C   0  0  0  0  0  0  0  0  0  0  0  0
    4.5537    1.3635   18.8405 O   0  0  0  0  0  0  0  0  0  0  0  0
    5.7759    0.7984   20.5936 N   0  0  0  0  0  0  0  0  0  0  0  0
    5.1919    1.8492   21.4219 C   0  0  0  0  0  0  0  0  0  0  0  0
    9.3862   -0.1462   21.2686 C   0  0  0  0  0  0  0  0  0  0  0  0
   10.1201   -1.3147   21.4540 C   0  0  0  0  0  0  0  0  0  0  0  0
   11.2753   -1.3233   22.2146 C   0  0  0  0  0  0  0  0  0  0  0  0
   11.7029   -0.1442   22.7987 C   0  0  0  0  0  0  0  0  0  0  0  0
   11.0032    1.0360   22.6388 C   0  0  0  0  0  0  0  0  0  0  0  0
    9.8412    1.0218   21.8680 C   0  0  0  0  0  0  0  0  0  0  0  0
   11.6505    2.1570   23.3988 C   0  0  0  0  0  0  0  0  0  0  0  0
   11.2133    3.3084   23.4245 O   0  0  0  0  0  0  0  0  0  0  0  0
   12.7917    1.7724   24.0707 N   0  0  0  0  0  0  0  0  0  0  0  0
   13.1031    0.2462   23.7998 S   0  0  0  0  0  0  0  0  0  0  0  0
   12.9772   -0.6335   25.3166 C   0  0  0  0  0  0  0  0  0  0  0  0
   14.3777   -0.0507   23.1806 O   0  0  0  0  0  0  0  0  0  0  0  0
  2  1  1  0
  2  3  1  0
  3  4  1  0
  4  5  1  0
  5  6  1  0
  6  7  1  0
  7  8  2  0
  7  9  1  0
  9 10  1  0
  3 11  1  0
 11 12  2  0
 12 13  1  0
 13 14  2  0
 14 15  1  0
 15 16  2  0
 15 17  1  0
 17 18  2  0
 17 19  1  0
 19 20  2  0
 20 21  1  0
 20 22  2  0
  9  2  1  0
 16 11  1  0
 20 14  1  0
M  END
