CVD-0001294|dock_bobby27042020.67|mol2|33|dock2
     RDKit          3D

 18 19  0  0  0  0  0  0  0  0999 V2000
    4.1401   -6.5437   22.9790 C   0  0  0  0  0  0  0  0  0  0  0  0
    4.5943   -5.1653   22.9960 N   0  0  0  0  0  0  0  0  0  0  0  0
    5.7109   -4.8016   22.3853 C   0  0  0  0  0  0  0  0  0  0  0  0
    6.4542   -5.5350   21.7682 O   0  0  0  0  0  0  0  0  0  0  0  0
    5.9077   -3.4764   22.5456 O   0  0  0  0  0  0  0  0  0  0  0  0
    7.1647   -2.9000   22.0670 C   0  0  0  0  0  0  0  0  0  0  0  0
    7.1614   -1.3772   22.0081 C   0  0  0  0  0  0  0  0  0  0  0  0
    8.5153   -0.8027   21.6406 C   0  0  0  0  0  0  0  0  0  0  0  0
    9.5667   -1.2537   22.5603 N   0  0  0  0  0  0  0  0  0  0  0  0
   10.8607   -0.6423   22.2163 C   0  0  0  0  0  0  0  0  0  0  0  0
   11.9959   -0.9992   23.1483 C   0  0  0  0  0  0  0  0  0  0  0  0
   12.9242   -1.9669   22.7949 C   0  0  0  0  0  0  0  0  0  0  0  0
   13.9691   -2.2919   23.6436 C   0  0  0  0  0  0  0  0  0  0  0  0
   14.1005   -1.6515   24.8568 C   0  0  0  0  0  0  0  0  0  0  0  0
   13.1871   -0.6857   25.2204 C   0  0  0  0  0  0  0  0  0  0  0  0
   12.1423   -0.3614   24.3710 C   0  0  0  0  0  0  0  0  0  0  0  0
    9.6455   -2.7165   22.5250 C   0  0  0  0  0  0  0  0  0  0  0  0
    8.3277   -3.3448   22.9468 C   0  0  0  0  0  0  0  0  0  0  0  0
  1  2  1  0
  2  3  1  0
  3  4  2  0
  3  5  1  0
  5  6  1  0
  6  7  1  0
  7  8  1  0
  8  9  1  0
  9 10  1  0
 10 11  1  0
 11 12  2  0
 12 13  1  0
 13 14  2  0
 14 15  1  0
 15 16  2  0
  9 17  1  0
 17 18  1  0
 18  6  1  0
 16 11  1  0
M  END
