CVD-0001331|dock_bobby27042020.10|mol2|7|dock2
     RDKit          3D

 19 21  0  0  0  0  0  0  0  0999 V2000
    9.1777   -2.2672   20.8966 O   0  0  0  0  0  0  0  0  0  0  0  0
    9.1723   -1.1713   21.4509 C   0  0  0  0  0  0  0  0  0  0  0  0
   10.1602   -0.8720   22.5262 C   0  0  0  0  0  0  0  0  0  0  0  0
    9.9261    0.3406   23.3788 C   0  0  0  0  0  0  0  0  0  0  0  0
    9.3738    1.4836   22.5609 C   0  0  0  0  0  0  0  0  0  0  0  0
    8.0543    1.0940   21.9257 C   0  0  0  0  0  0  0  0  0  0  0  0
    8.1964   -0.1220   21.0529 C   0  0  0  0  0  0  0  0  0  0  0  0
    7.5522   -0.2960   19.8789 C   0  0  0  0  0  0  0  0  0  0  0  0
    6.5590    0.4946   19.2072 C   0  0  0  0  0  0  0  0  0  0  0  0
    5.4629    1.1478   19.6620 C   0  0  0  0  0  0  0  0  0  0  0  0
    4.8538    1.7660   18.5447 C   0  0  0  0  0  0  0  0  0  0  0  0
    5.5980    1.4636   17.4911 C   0  0  0  0  0  0  0  0  0  0  0  0
    6.6609    0.6813   17.8553 O   0  0  0  0  0  0  0  0  0  0  0  0
   11.2560   -1.6595   22.5799 C   0  0  0  0  0  0  0  0  0  0  0  0
   12.3836   -1.6689   23.4691 C   0  0  0  0  0  0  0  0  0  0  0  0
   13.5933   -2.2734   23.3898 C   0  0  0  0  0  0  0  0  0  0  0  0
   14.3064   -1.9321   24.5632 C   0  0  0  0  0  0  0  0  0  0  0  0
   13.5078   -1.1551   25.2801 C   0  0  0  0  0  0  0  0  0  0  0  0
   12.3111   -0.9678   24.6420 O   0  0  0  0  0  0  0  0  0  0  0  0
  1  2  2  0
  2  3  1  0
  3  4  1  0
  4  5  1  0
  5  6  1  0
  6  7  1  0
  7  8  2  0
  8  9  1  0
  9 10  2  0
 10 11  1  0
 11 12  2  0
 12 13  1  0
  3 14  2  0
 14 15  1  0
 15 16  2  0
 16 17  1  0
 17 18  2  0
 18 19  1  0
  7  2  1  0
 13  9  1  0
 19 15  1  0
M  END
