CVD-0003933|dock_bobby27042020.15|mol2|8|dock1
     RDKit          3D

 26 29  0  0  0  0  0  0  0  0999 V2000
   12.2395    3.7055   22.8533 C   0  0  0  0  0  0  0  0  0  0  0  0
   11.6533    2.3573   22.5956 C   0  0  0  0  0  0  0  0  0  0  0  0
   12.3648    1.2570   22.4783 N   0  0  0  0  0  0  0  0  0  0  0  0
   11.5512    0.1803   22.2350 C   0  0  0  0  0  0  0  0  0  0  0  0
   10.2170    0.4202   22.1562 C   0  0  0  0  0  0  0  0  0  0  0  0
    9.9491    2.1113   22.4043 S   0  0  0  0  0  0  0  0  0  0  0  0
    9.0521   -0.5271   21.9059 C   0  0  0  0  0  0  0  0  0  0  0  0
    9.5376   -1.9659   21.9807 C   0  0  0  0  0  0  0  0  0  0  0  0
    9.8905   -2.3739   23.4028 C   0  0  0  0  0  0  0  0  0  0  0  0
    8.7334   -2.1159   24.3513 C   0  0  0  0  0  0  0  0  0  0  0  0
    8.3129   -0.6587   24.3100 C   0  0  0  0  0  0  0  0  0  0  0  0
    7.9316   -0.2480   22.8858 C   0  0  0  0  0  0  0  0  0  0  0  0
    8.5420   -0.2989   20.5380 N   0  0  0  0  0  0  0  0  0  0  0  0
    7.2186   -0.5717   19.9419 C   0  0  0  0  0  0  0  0  0  0  0  0
    6.2172    0.5156   20.4058 C   0  0  0  0  0  0  0  0  0  0  0  0
    5.5574    1.0342   19.2292 C   0  0  0  0  0  0  0  0  0  0  0  0
    6.1083    0.4296   18.0244 C   0  0  0  0  0  0  0  0  0  0  0  0
    7.2311   -0.4662   18.4122 C   0  0  0  0  0  0  0  0  0  0  0  0
    6.7597   -1.8969   20.4052 C   0  0  0  0  0  0  0  0  0  0  0  0
    6.4691   -2.9667   20.8481 C   0  0  0  0  0  0  0  0  0  0  0  0
    6.1352   -4.2234   21.4648 C   0  0  0  0  0  0  0  0  0  0  0  0
    7.0578   -5.2647   21.4781 C   0  0  0  0  0  0  0  0  0  0  0  0
    6.6927   -6.4550   22.0823 C   0  0  0  0  0  0  0  0  0  0  0  0
    5.4421   -6.5764   22.6475 C   0  0  0  0  0  0  0  0  0  0  0  0
    4.5930   -5.4946   22.5883 C   0  0  0  0  0  0  0  0  0  0  0  0
    4.9093   -4.3266   22.0126 N   0  0  0  0  0  0  0  0  0  0  0  0
  1  2  1  0
  2  3  2  0
  3  4  1  0
  4  5  2  0
  5  6  1  0
  5  7  1  0
  7  8  1  0
  8  9  1  0
  9 10  1  0
 10 11  1  0
 11 12  1  0
  7 13  1  0
 13 14  1  0
 14 15  1  0
 15 16  1  0
 16 17  1  0
 17 18  1  0
 14 19  1  0
 19 20  3  0
 20 21  1  0
 21 22  2  0
 22 23  1  0
 23 24  2  0
 24 25  1  0
 25 26  2  0
  6  2  1  0
 12  7  1  0
 18 14  1  0
 26 21  1  0
M  END
