CVD-0003943|dock_bobby27042020.72|mol2|17|dock3
     RDKit          3D

 27 30  0  0  0  0  0  0  0  0999 V2000
    5.9745    0.0482   23.0279 O   0  0  0  0  0  0  0  0  0  0  0  0
    6.6492   -0.9767   22.2950 S   0  0  0  0  0  0  0  0  0  0  0  0
    6.2323   -2.3366   22.4352 O   0  0  0  0  0  0  0  0  0  0  0  0
    8.2163   -0.9078   22.6995 N   0  0  0  0  0  0  0  0  0  0  0  0
    9.1415   -1.7882   21.9647 C   0  0  0  0  0  0  0  0  0  0  0  0
   10.5609   -1.3572   22.2350 C   0  0  0  0  0  0  0  0  0  0  0  0
   10.8645   -1.4141   23.6686 N   0  0  0  0  0  0  0  0  0  0  0  0
    9.9479   -0.4927   24.3516 C   0  0  0  0  0  0  0  0  0  0  0  0
    8.5146   -0.9196   24.1387 C   0  0  0  0  0  0  0  0  0  0  0  0
   12.2522   -1.0385   23.9228 C   0  0  0  0  0  0  0  0  0  0  0  0
   13.2938   -1.9330   23.1919 C   0  0  0  0  0  0  0  0  0  0  0  0
   14.3460   -2.2789   24.1949 C   0  0  0  0  0  0  0  0  0  0  0  0
   13.9122   -1.7954   25.4985 C   0  0  0  0  0  0  0  0  0  0  0  0
   12.5945   -1.1404   25.4263 C   0  0  0  0  0  0  0  0  0  0  0  0
   12.3706    0.3695   23.4873 C   0  0  0  0  0  0  0  0  0  0  0  0
   12.6170    1.4903   23.1587 C   0  0  0  0  0  0  0  0  0  0  0  0
   12.8268    2.8514   22.7411 C   0  0  0  0  0  0  0  0  0  0  0  0
   11.7428    3.7057   22.5651 C   0  0  0  0  0  0  0  0  0  0  0  0
   11.9926    5.0060   22.1628 C   0  0  0  0  0  0  0  0  0  0  0  0
   13.2907    5.4155   21.9496 C   0  0  0  0  0  0  0  0  0  0  0  0
   14.3021    4.5030   22.1478 C   0  0  0  0  0  0  0  0  0  0  0  0
   14.1009    3.2367   22.5367 N   0  0  0  0  0  0  0  0  0  0  0  0
    6.5230   -0.5707   20.6069 C   0  0  0  0  0  0  0  0  0  0  0  0
    6.1166   -1.4733   19.5663 C   0  0  0  0  0  0  0  0  0  0  0  0
    6.0976   -0.8927   18.3280 C   0  0  0  0  0  0  0  0  0  0  0  0
    6.5665    0.7398   18.4025 S   0  0  0  0  0  0  0  0  0  0  0  0
    6.7800    0.6323   20.0806 C   0  0  0  0  0  0  0  0  0  0  0  0
  1  2  2  0
  2  3  2  0
  2  4  1  0
  4  5  1  0
  5  6  1  0
  6  7  1  0
  7  8  1  0
  8  9  1  0
  7 10  1  0
 10 11  1  0
 11 12  1  0
 12 13  1  0
 13 14  1  0
 10 15  1  0
 15 16  3  0
 16 17  1  0
 17 18  2  0
 18 19  1  0
 19 20  2  0
 20 21  1  0
 21 22  2  0
  2 23  1  0
 23 24  1  0
 24 25  2  0
 25 26  1  0
 26 27  1  0
  9  4  1  0
 14 10  1  0
 22 17  1  0
 27 23  2  0
M  END
