CVD-0001950|dock_bobby27042020.79|mol2|20|dock3
     RDKit          3D

 19 20  0  0  0  0  0  0  0  0999 V2000
   14.1352    6.3788   22.0691 C   0  0  0  0  0  0  0  0  0  0  0  0
   13.7678    4.9932   22.3726 N   0  0  0  0  0  0  0  0  0  0  0  0
   12.3417    4.6931   22.2067 C   0  0  0  0  0  0  0  0  0  0  0  0
   12.0439    3.2404   22.4702 C   0  0  0  0  0  0  0  0  0  0  0  0
   12.9886    2.2475   22.7749 C   0  0  0  0  0  0  0  0  0  0  0  0
   12.3346    1.0425   22.9486 C   0  0  0  0  0  0  0  0  0  0  0  0
   13.0039   -0.2402   23.2801 C   0  0  0  0  0  0  0  0  0  0  0  0
   13.0128   -1.2065   22.2722 C   0  0  0  0  0  0  0  0  0  0  0  0
   13.6500   -2.4227   22.4503 C   0  0  0  0  0  0  0  0  0  0  0  0
   14.2876   -2.7070   23.6367 C   0  0  0  0  0  0  0  0  0  0  0  0
   14.2673   -1.7861   24.6682 C   0  0  0  0  0  0  0  0  0  0  0  0
   13.6083   -0.5938   24.4809 C   0  0  0  0  0  0  0  0  0  0  0  0
   13.5583    0.2335   25.5467 F   0  0  0  0  0  0  0  0  0  0  0  0
   10.9762    1.2782   22.7698 N   0  0  0  0  0  0  0  0  0  0  0  0
    9.8323    0.3652   22.8861 C   0  0  0  0  0  0  0  0  0  0  0  0
   10.0075   -0.6718   23.9719 C   0  0  0  0  0  0  0  0  0  0  0  0
    8.6803   -1.2954   24.3451 C   0  0  0  0  0  0  0  0  0  0  0  0
   10.5731   -0.0449   25.1251 O   0  0  0  0  0  0  0  0  0  0  0  0
   10.8136    2.6026   22.4834 C   0  0  0  0  0  0  0  0  0  0  0  0
  1  2  1  0
  2  3  1  0
  3  4  1  0
  4  5  1  0
  5  6  2  0
  6  7  1  0
  7  8  2  0
  8  9  1  0
  9 10  2  0
 10 11  1  0
 11 12  2  0
 12 13  1  0
  6 14  1  0
 14 15  1  0
 15 16  1  0
 16 17  1  0
 16 18  1  0
 14 19  1  0
 19  4  2  0
 12  7  1  0
M  END
