CVD-0003113|dock_bobby27042020.17|mol2|27|dock1
     RDKit          3D

 17 18  0  0  0  0  0  0  0  0999 V2000
    5.9766   -1.0936   18.6463 C   0  0  0  0  0  0  0  0  0  0  0  0
    6.9458   -0.9773   19.7945 C   0  0  0  0  0  0  0  0  0  0  0  0
    6.9753   -2.1953   20.6140 N   0  0  0  0  0  0  0  0  0  0  0  0
    5.9040   -3.0421   20.5830 N   0  0  0  0  0  0  0  0  0  0  0  0
    6.2498   -4.0341   21.3940 C   0  0  0  0  0  0  0  0  0  0  0  0
    7.5167   -3.8625   21.9421 C   0  0  0  0  0  0  0  0  0  0  0  0
    7.9601   -2.6686   21.4130 C   0  0  0  0  0  0  0  0  0  0  0  0
    9.1463   -1.9564   21.5660 N   0  0  0  0  0  0  0  0  0  0  0  0
    9.5127   -1.2102   22.6919 C   0  0  0  0  0  0  0  0  0  0  0  0
    8.7882   -1.1194   23.6756 O   0  0  0  0  0  0  0  0  0  0  0  0
   10.7353   -0.5577   22.6862 N   0  0  0  0  0  0  0  0  0  0  0  0
   11.3139    0.2710   23.7482 C   0  0  0  0  0  0  0  0  0  0  0  0
   12.7931    0.5423   23.5557 C   0  0  0  0  0  0  0  0  0  0  0  0
   13.6631   -0.7163   23.4923 C   0  0  0  0  0  0  0  0  0  0  0  0
   13.7204   -1.3259   22.1044 C   0  0  0  0  0  0  0  0  0  0  0  0
   12.3855   -1.7926   21.5707 C   0  0  0  0  0  0  0  0  0  0  0  0
   11.4296   -0.6998   21.4809 O   0  0  0  0  0  0  0  0  0  0  0  0
  1  2  1  0
  2  3  1  0
  3  4  1  0
  4  5  2  0
  5  6  1  0
  6  7  2  0
  7  8  1  0
  8  9  1  0
  9 10  2  0
  9 11  1  0
 11 12  1  0
 12 13  1  0
 13 14  1  0
 14 15  1  0
 15 16  1  0
 16 17  1  0
  7  3  1  0
 17 11  1  0
M  END
