CVD-0002689|dock_bobby27042020.19|mol2|3|dock3
     RDKit          3D

 35 38  0  0  0  0  0  0  0  0999 V2000
   10.5254    0.4209   21.2836 O   0  0  0  0  0  0  0  0  0  0  0  0
   10.3022   -0.5665   21.9789 C   0  0  0  0  0  0  0  0  0  0  0  0
    9.1986   -1.3088   21.8526 N   0  0  0  0  0  0  0  0  0  0  0  0
    8.1745   -0.9927   20.8704 C   0  0  0  0  0  0  0  0  0  0  0  0
    7.7138    0.4669   21.0026 C   0  0  0  0  0  0  0  0  0  0  0  0
    6.5156    0.7940   20.1449 C   0  0  0  0  0  0  0  0  0  0  0  0
    6.6567    1.0096   18.7827 C   0  0  0  0  0  0  0  0  0  0  0  0
    5.5580    1.3130   17.9962 C   0  0  0  0  0  0  0  0  0  0  0  0
    4.3051    1.4053   18.5631 C   0  0  0  0  0  0  0  0  0  0  0  0
    4.1511    1.1946   19.9165 C   0  0  0  0  0  0  0  0  0  0  0  0
    5.2501    0.8911   20.7027 C   0  0  0  0  0  0  0  0  0  0  0  0
    6.9766   -1.9150   21.0732 C   0  0  0  0  0  0  0  0  0  0  0  0
    6.2488   -2.2399   20.1510 O   0  0  0  0  0  0  0  0  0  0  0  0
    6.7061   -2.4194   22.5040 C   0  0  0  0  0  0  0  0  0  0  0  0
    6.7812   -1.6632   23.4712 O   0  0  0  0  0  0  0  0  0  0  0  0
    6.3931   -3.7114   22.5902 N   0  0  0  0  0  0  0  0  0  0  0  0
    6.1065   -4.3552   23.8637 C   0  0  0  0  0  0  0  0  0  0  0  0
    7.2518   -5.1917   24.3807 C   0  0  0  0  0  0  0  0  0  0  0  0
    7.5149   -5.2710   25.7395 C   0  0  0  0  0  0  0  0  0  0  0  0
    8.5674   -6.0359   26.2140 C   0  0  0  0  0  0  0  0  0  0  0  0
    9.3702   -6.7300   25.3346 C   0  0  0  0  0  0  0  0  0  0  0  0
    9.1206   -6.6588   23.9810 C   0  0  0  0  0  0  0  0  0  0  0  0
    8.0678   -5.8938   23.5072 C   0  0  0  0  0  0  0  0  0  0  0  0
   11.2982   -1.0057   23.0474 C   0  0  0  0  0  0  0  0  0  0  0  0
   11.8744   -2.4137   22.7778 C   0  0  0  0  0  0  0  0  0  0  0  0
   13.3557   -2.2668   22.7116 C   0  0  0  0  0  0  0  0  0  0  0  0
   13.6629   -0.9802   23.4404 C   0  0  0  0  0  0  0  0  0  0  0  0
   12.5088   -0.1545   23.0900 N   0  0  0  0  0  0  0  0  0  0  0  0
   12.3704    1.0346   23.9402 C   0  0  0  0  0  0  0  0  0  0  0  0
   12.5246    2.3231   23.1687 C   0  0  0  0  0  0  0  0  0  0  0  0
   11.4466    3.1765   22.9929 C   0  0  0  0  0  0  0  0  0  0  0  0
   11.5887    4.3602   22.2880 C   0  0  0  0  0  0  0  0  0  0  0  0
   12.8112    4.7039   21.7518 C   0  0  0  0  0  0  0  0  0  0  0  0
   13.8913    3.8646   21.9207 C   0  0  0  0  0  0  0  0  0  0  0  0
   13.7488    2.6810   22.6257 C   0  0  0  0  0  0  0  0  0  0  0  0
  1  2  2  0
  2  3  1  0
  3  4  1  0
  4  5  1  0
  5  6  1  0
  6  7  2  0
  7  8  1  0
  8  9  2  0
  9 10  1  0
 10 11  2  0
  4 12  1  0
 12 13  2  0
 12 14  1  0
 14 15  2  0
 14 16  1  0
 16 17  1  0
 17 18  1  0
 18 19  2  0
 19 20  1  0
 20 21  2  0
 21 22  1  0
 22 23  2  0
  2 24  1  0
 24 25  1  0
 25 26  1  0
 26 27  1  0
 27 28  1  0
 28 29  1  0
 29 30  1  0
 30 31  2  0
 31 32  1  0
 32 33  2  0
 33 34  1  0
 34 35  2  0
 11  6  1  0
 23 18  1  0
 28 24  1  0
 35 30  1  0
M  END
