CVD-0000487|dock_bobby27042020.84|mol2|11|dock2
     RDKit          3D

 24 26  0  0  0  0  0  0  0  0999 V2000
   15.0967   -2.1564   23.7790 F   0  0  0  0  0  0  0  0  0  0  0  0
   13.7699   -2.2433   23.4625 C   0  0  0  0  0  0  0  0  0  0  0  0
   12.7560   -2.8385   24.2190 C   0  0  0  0  0  0  0  0  0  0  0  0
   11.4740   -2.6438   23.5390 C   0  0  0  0  0  0  0  0  0  0  0  0
   11.6834   -1.9671   22.3829 C   0  0  0  0  0  0  0  0  0  0  0  0
   13.1271   -1.6651   22.2882 C   0  0  0  0  0  0  0  0  0  0  0  0
   10.7196   -1.5858   21.4566 N   0  0  0  0  0  0  0  0  0  0  0  0
    9.5420   -0.8634   21.6804 C   0  0  0  0  0  0  0  0  0  0  0  0
    9.2163   -0.4644   22.7947 O   0  0  0  0  0  0  0  0  0  0  0  0
    8.8241   -0.6673   20.5255 N   0  0  0  0  0  0  0  0  0  0  0  0
    7.5941    0.0004   20.3007 C   0  0  0  0  0  0  0  0  0  0  0  0
    6.8729    0.6462   21.3007 C   0  0  0  0  0  0  0  0  0  0  0  0
    5.6778    1.2778   21.0055 C   0  0  0  0  0  0  0  0  0  0  0  0
    5.1607    1.2899   19.7153 C   0  0  0  0  0  0  0  0  0  0  0  0
    5.8865    0.6422   18.7188 C   0  0  0  0  0  0  0  0  0  0  0  0
    7.0819    0.0094   19.0093 C   0  0  0  0  0  0  0  0  0  0  0  0
    3.8569    1.9965   19.4713 C   0  0  0  0  0  0  0  0  0  0  0  0
    3.7228    2.6406   18.4350 O   0  0  0  0  0  0  0  0  0  0  0  0
    2.8525    1.9022   20.4129 N   0  0  0  0  0  0  0  0  0  0  0  0
    1.5780    2.5018   20.3281 C   0  0  0  0  0  0  0  0  0  0  0  0
    1.3290    3.7603   19.7813 C   0  0  0  0  0  0  0  0  0  0  0  0
    0.0383    4.0626   19.8371 N   0  0  0  0  0  0  0  0  0  0  0  0
   -0.5397    2.9941   20.4213 N   0  0  0  0  0  0  0  0  0  0  0  0
    0.3507    2.0448   20.7271 C   0  0  0  0  0  0  0  0  0  0  0  0
  1  2  1  0
  2  3  2  0
  3  4  1  0
  4  5  2  0
  5  6  1  0
  5  7  1  0
  7  8  1  0
  8  9  2  0
  8 10  1  0
 10 11  1  0
 11 12  2  0
 12 13  1  0
 13 14  2  0
 14 15  1  0
 15 16  2  0
 14 17  1  0
 17 18  2  0
 17 19  1  0
 19 20  1  0
 20 21  1  0
 21 22  2  0
 22 23  1  0
 23 24  1  0
  6  2  1  0
 16 11  1  0
 24 20  2  0
M  END
