CVD-0002799|dock_bobby27042020.18|mol2|34|dock2
     RDKit          3D

 15 16  0  0  0  0  0  0  0  0999 V2000
   10.7265   -1.6975   21.8996 C   0  0  0  0  0  0  0  0  0  0  0  0
   11.9559   -1.2472   22.6461 C   0  0  0  0  0  0  0  0  0  0  0  0
   12.9447   -2.1822   22.9374 C   0  0  0  0  0  0  0  0  0  0  0  0
   14.0676   -1.7942   23.6342 C   0  0  0  0  0  0  0  0  0  0  0  0
   14.2727   -0.5468   24.0486 N   0  0  0  0  0  0  0  0  0  0  0  0
   13.3416    0.3657   23.7532 C   0  0  0  0  0  0  0  0  0  0  0  0
   12.1566    0.0773   23.0766 C   0  0  0  0  0  0  0  0  0  0  0  0
   11.1631    1.0314   22.7978 N   0  0  0  0  0  0  0  0  0  0  0  0
   11.2182    2.4176   22.7623 C   0  0  0  0  0  0  0  0  0  0  0  0
   10.0542    3.1242   23.0638 C   0  0  0  0  0  0  0  0  0  0  0  0
   10.0960    4.5081   23.0382 C   0  0  0  0  0  0  0  0  0  0  0  0
   11.2733    5.1616   22.7205 C   0  0  0  0  0  0  0  0  0  0  0  0
   12.4079    4.3786   22.4301 C   0  0  0  0  0  0  0  0  0  0  0  0
   13.5859    4.9440   22.1136 N   0  0  0  0  0  0  0  0  0  0  0  0
   12.3693    3.0286   22.4549 N   0  0  0  0  0  0  0  0  0  0  0  0
  1  2  1  0
  2  3  2  0
  3  4  1  0
  4  5  2  0
  5  6  1  0
  6  7  2  0
  7  8  1  0
  8  9  1  0
  9 10  2  0
 10 11  1  0
 11 12  2  0
 12 13  1  0
 13 14  1  0
 13 15  2  0
  7  2  1  0
 15  9  1  0
M  END
