CVD-0001872|dock_bobby27042020.22|mol2|28|dock1
     RDKit          3D

 33 36  0  0  0  0  0  0  0  0999 V2000
    2.2055    3.7410   19.1050 C   0  0  0  0  0  0  0  0  0  0  0  0
    2.6970    2.5634   18.4676 O   0  0  0  0  0  0  0  0  0  0  0  0
    3.6120    1.7611   19.1027 C   0  0  0  0  0  0  0  0  0  0  0  0
    3.8392    1.8428   20.4661 C   0  0  0  0  0  0  0  0  0  0  0  0
    4.7725    1.0160   21.0664 C   0  0  0  0  0  0  0  0  0  0  0  0
    5.4935    0.0803   20.3193 C   0  0  0  0  0  0  0  0  0  0  0  0
    6.4554   -0.7973   20.8987 N   0  0  0  0  0  0  0  0  0  0  0  0
    6.5734   -1.2650   22.1736 C   0  0  0  0  0  0  0  0  0  0  0  0
    5.8123   -0.9840   23.0945 O   0  0  0  0  0  0  0  0  0  0  0  0
    7.7471   -2.2222   22.5032 C   0  0  0  0  0  0  0  0  0  0  0  0
    8.4466   -1.8005   23.7446 N   0  0  0  0  0  0  0  0  0  0  0  0
    8.0400   -2.1729   25.0288 C   0  0  0  0  0  0  0  0  0  0  0  0
    7.0480   -2.8900   25.1472 O   0  0  0  0  0  0  0  0  0  0  0  0
    8.6499   -1.8110   26.3512 C   0  0  0  0  0  0  0  0  0  0  0  0
    8.4960   -2.3816   27.5189 C   0  0  0  0  0  0  0  0  0  0  0  0
    9.6019   -0.9689   23.5436 C   0  0  0  0  0  0  0  0  0  0  0  0
    9.4631    0.4157   23.5269 C   0  0  0  0  0  0  0  0  0  0  0  0
   10.5469    1.2554   23.3273 C   0  0  0  0  0  0  0  0  0  0  0  0
   11.8263    0.7342   23.1369 C   0  0  0  0  0  0  0  0  0  0  0  0
   13.0174    1.4219   22.9174 N   0  0  0  0  0  0  0  0  0  0  0  0
   13.9973    0.5917   22.7894 C   0  0  0  0  0  0  0  0  0  0  0  0
   13.6224   -1.0971   22.9140 S   0  0  0  0  0  0  0  0  0  0  0  0
   11.9642   -0.6563   23.1654 C   0  0  0  0  0  0  0  0  0  0  0  0
   10.8793   -1.4975   23.3720 C   0  0  0  0  0  0  0  0  0  0  0  0
    7.5591   -3.7355   22.4192 C   0  0  0  0  0  0  0  0  0  0  0  0
    6.6199   -4.3215   21.5820 C   0  0  0  0  0  0  0  0  0  0  0  0
    6.4829   -5.6985   21.5536 C   0  0  0  0  0  0  0  0  0  0  0  0
    7.2907   -6.4561   22.3707 C   0  0  0  0  0  0  0  0  0  0  0  0
    8.1991   -5.9272   23.1914 N   0  0  0  0  0  0  0  0  0  0  0  0
    8.3136   -4.5959   23.2020 C   0  0  0  0  0  0  0  0  0  0  0  0
    5.2630    0.0000   18.9320 C   0  0  0  0  0  0  0  0  0  0  0  0
    5.9772   -0.9681   18.0236 C   0  0  0  0  0  0  0  0  0  0  0  0
    4.3241    0.8462   18.3497 C   0  0  0  0  0  0  0  0  0  0  0  0
  1  2  1  0
  2  3  1  0
  3  4  2  0
  4  5  1  0
  5  6  2  0
  6  7  1  0
  7  8  1  0
  8  9  2  0
  8 10  1  0
 10 11  1  0
 11 12  1  0
 12 13  2  0
 12 14  1  0
 14 15  2  0
 11 16  1  0
 16 17  2  0
 17 18  1  0
 18 19  2  0
 19 20  1  0
 20 21  2  0
 21 22  1  0
 22 23  1  0
 23 24  2  0
 10 25  1  0
 25 26  2  0
 26 27  1  0
 27 28  2  0
 28 29  1  0
 29 30  2  0
  6 31  1  0
 31 32  1  0
 31 33  2  0
 33  3  1  0
 24 16  1  0
 30 25  1  0
 23 19  1  0
M  END
