CVD-0003121|dock_bobby27042020.17|mol2|25|dock3
     RDKit          3D

 17 19  0  0  0  0  0  0  0  0999 V2000
   14.3420   -2.9125   23.9530 C   0  0  0  0  0  0  0  0  0  0  0  0
   13.7705   -1.5160   23.9077 C   0  0  0  0  0  0  0  0  0  0  0  0
   13.3505   -1.0584   22.5355 C   0  0  0  0  0  0  0  0  0  0  0  0
   12.2826    0.0034   22.8382 C   0  0  0  0  0  0  0  0  0  0  0  0
   11.7656   -0.4123   24.2098 C   0  0  0  0  0  0  0  0  0  0  0  0
   12.5651   -1.4982   24.6642 O   0  0  0  0  0  0  0  0  0  0  0  0
   12.8339    1.4151   22.8519 C   0  0  0  0  0  0  0  0  0  0  0  0
   14.0358    1.5991   22.8273 O   0  0  0  0  0  0  0  0  0  0  0  0
   11.9760    2.4520   22.8951 N   0  0  0  0  0  0  0  0  0  0  0  0
   10.5155    2.2498   22.9413 C   0  0  0  0  0  0  0  0  0  0  0  0
   10.0123    3.6678   22.9714 C   0  0  0  0  0  0  0  0  0  0  0  0
    8.7317    4.1809   23.1362 C   0  0  0  0  0  0  0  0  0  0  0  0
    8.5200    5.5409   22.9906 C   0  0  0  0  0  0  0  0  0  0  0  0
    9.6014    6.3395   22.6845 C   0  0  0  0  0  0  0  0  0  0  0  0
   10.8473    5.8721   22.5199 N   0  0  0  0  0  0  0  0  0  0  0  0
   11.0278    4.5521   22.6659 C   0  0  0  0  0  0  0  0  0  0  0  0
   12.3601    3.8559   22.6867 C   0  0  0  0  0  0  0  0  0  0  0  0
  2  1  1  0
  2  3  1  0
  3  4  1  0
  4  5  1  0
  5  6  1  0
  4  7  1  0
  7  8  2  0
  7  9  1  0
  9 10  1  0
 10 11  1  0
 11 12  2  0
 12 13  1  0
 13 14  2  0
 14 15  1  0
 15 16  2  0
 16 17  1  0
  6  2  1  0
 17  9  1  0
 16 11  1  0
M  END
