CVD-0003053|dock_bobby27042020.17|mol2|36|dock2
     RDKit          3D

 26 28  0  0  0  0  0  0  0  0999 V2000
   14.2970   -2.1427   25.9416 Cl  0  0  0  0  0  0  0  0  0  0  0  0
   12.8328   -2.3770   24.9782 C   0  0  0  0  0  0  0  0  0  0  0  0
   12.7461   -1.3506   23.8658 C   0  0  0  0  0  0  0  0  0  0  0  0
   13.5996   -0.4836   23.7269 O   0  0  0  0  0  0  0  0  0  0  0  0
   11.6830   -1.4517   23.0423 N   0  0  0  0  0  0  0  0  0  0  0  0
   11.5208   -0.5136   21.9364 C   0  0  0  0  0  0  0  0  0  0  0  0
   10.1914    0.2169   22.0616 C   0  0  0  0  0  0  0  0  0  0  0  0
    9.0091   -0.7581   22.1724 C   0  0  0  0  0  0  0  0  0  0  0  0
    9.2560   -1.7225   23.3485 C   0  0  0  0  0  0  0  0  0  0  0  0
    8.1332   -2.7526   23.5021 C   0  0  0  0  0  0  0  0  0  0  0  0
    7.5962   -3.3238   22.1908 C   0  0  0  0  0  0  0  0  0  0  0  0
    6.6300   -4.4654   22.3960 C   0  0  0  0  0  0  0  0  0  0  0  0
    5.3235   -4.2266   22.7937 C   0  0  0  0  0  0  0  0  0  0  0  0
    4.4358   -5.2734   22.9790 C   0  0  0  0  0  0  0  0  0  0  0  0
    4.8440   -6.5727   22.7678 C   0  0  0  0  0  0  0  0  0  0  0  0
    6.1395   -6.8246   22.3710 C   0  0  0  0  0  0  0  0  0  0  0  0
    7.0265   -5.7772   22.1860 C   0  0  0  0  0  0  0  0  0  0  0  0
   10.5991   -2.4276   23.1747 C   0  0  0  0  0  0  0  0  0  0  0  0
    7.6967   -0.0134   22.3361 C   0  0  0  0  0  0  0  0  0  0  0  0
    7.1732    0.0814   23.4299 O   0  0  0  0  0  0  0  0  0  0  0  0
    7.1009    0.5429   21.2568 N   0  0  0  0  0  0  0  0  0  0  0  0
    7.6449    0.5710   19.8977 C   0  0  0  0  0  0  0  0  0  0  0  0
    6.6757   -0.0672   18.9246 C   0  0  0  0  0  0  0  0  0  0  0  0
    5.3022    0.5979   19.0072 C   0  0  0  0  0  0  0  0  0  0  0  0
    4.7983    0.5936   20.4401 C   0  0  0  0  0  0  0  0  0  0  0  0
    5.8045    1.2201   21.3787 C   0  0  0  0  0  0  0  0  0  0  0  0
  1  2  1  0
  2  3  1  0
  3  4  2  0
  3  5  1  0
  5  6  1  0
  6  7  1  0
  7  8  1  0
  8  9  1  0
  9 10  1  0
 10 11  1  0
 11 12  1  0
 12 13  2  0
 13 14  1  0
 14 15  2  0
 15 16  1  0
 16 17  2  0
  9 18  1  0
  8 19  1  0
 19 20  2  0
 19 21  1  0
 21 22  1  0
 22 23  1  0
 23 24  1  0
 24 25  1  0
 25 26  1  0
 18  5  1  0
 26 21  1  0
 17 12  1  0
M  END
