CVD-0002974|dock_bobby27042020.32|mol2|27|dock2
     RDKit          3D

 24 26  0  0  0  0  0  0  0  0999 V2000
    4.2445    1.1062   20.4788 C   0  0  0  0  0  0  0  0  0  0  0  0
    5.5703    0.4434   20.1939 C   0  0  0  0  0  0  0  0  0  0  0  0
    6.2248    0.6526   18.9914 C   0  0  0  0  0  0  0  0  0  0  0  0
    7.4431    0.0472   18.7379 C   0  0  0  0  0  0  0  0  0  0  0  0
    8.0232   -0.7806   19.6839 C   0  0  0  0  0  0  0  0  0  0  0  0
    7.3838   -1.0131   20.8954 C   0  0  0  0  0  0  0  0  0  0  0  0
    6.1647   -0.3849   21.1338 C   0  0  0  0  0  0  0  0  0  0  0  0
    7.9786   -1.8749   21.8757 N   0  0  0  0  0  0  0  0  0  0  0  0
    9.0798   -1.3327   22.7069 C   0  0  0  0  0  0  0  0  0  0  0  0
   10.4151   -1.9515   22.3123 C   0  0  0  0  0  0  0  0  0  0  0  0
   11.5396   -1.3636   23.1397 C   0  0  0  0  0  0  0  0  0  0  0  0
   11.5731    0.0874   22.9763 N   0  0  0  0  0  0  0  0  0  0  0  0
   10.3319    0.7306   23.3934 C   0  0  0  0  0  0  0  0  0  0  0  0
    9.1633    0.1866   22.5784 C   0  0  0  0  0  0  0  0  0  0  0  0
   12.6801    0.8303   22.7500 C   0  0  0  0  0  0  0  0  0  0  0  0
   12.6043    2.0446   22.6112 O   0  0  0  0  0  0  0  0  0  0  0  0
   14.0217    0.1279   22.6635 C   0  0  0  0  0  0  0  0  0  0  0  0
   14.3734   -0.7898   24.1337 Cl  0  0  0  0  0  0  0  0  0  0  0  0
    7.5449   -3.1497   22.0758 C   0  0  0  0  0  0  0  0  0  0  0  0
    7.9716   -4.0084   23.0448 C   0  0  0  0  0  0  0  0  0  0  0  0
    7.3519   -5.2550   23.0024 C   0  0  0  0  0  0  0  0  0  0  0  0
    6.4597   -5.3399   21.9980 C   0  0  0  0  0  0  0  0  0  0  0  0
    5.4858   -6.6935   21.5973 Cl  0  0  0  0  0  0  0  0  0  0  0  0
    6.3467   -3.9038   21.0722 S   0  0  0  0  0  0  0  0  0  0  0  0
  1  2  1  0
  2  3  2  0
  3  4  1  0
  4  5  2  0
  5  6  1  0
  6  7  2  0
  6  8  1  0
  8  9  1  0
  9 10  1  0
 10 11  1  0
 11 12  1  0
 12 13  1  0
 13 14  1  0
 12 15  1  0
 15 16  2  0
 15 17  1  0
 17 18  1  0
  8 19  1  0
 19 20  2  0
 20 21  1  0
 21 22  2  0
 22 23  1  0
 22 24  1  0
  7  2  1  0
 14  9  1  0
 24 19  1  0
M  END
