CVD-0003791|dock_bobby27042020.58|mol2|34|dock1
     RDKit          3D

 24 26  0  0  0  0  0  0  0  0999 V2000
    3.8040   -6.9534   22.8590 C   0  0  0  0  0  0  0  0  0  0  0  0
    5.0745   -6.1427   22.7789 C   0  0  0  0  0  0  0  0  0  0  0  0
    5.0378   -4.7581   22.7430 C   0  0  0  0  0  0  0  0  0  0  0  0
    6.1976   -4.0068   22.6727 C   0  0  0  0  0  0  0  0  0  0  0  0
    7.4377   -4.6343   22.6364 C   0  0  0  0  0  0  0  0  0  0  0  0
    8.6172   -3.8985   22.5642 N   0  0  0  0  0  0  0  0  0  0  0  0
    8.7351   -2.5188   23.0248 C   0  0  0  0  0  0  0  0  0  0  0  0
   10.0704   -2.2719   23.7355 C   0  0  0  0  0  0  0  0  0  0  0  0
   10.1757   -0.8488   24.2061 C   0  0  0  0  0  0  0  0  0  0  0  0
    9.9976    0.1085   23.1102 N   0  0  0  0  0  0  0  0  0  0  0  0
    8.7287   -0.0855   22.3708 C   0  0  0  0  0  0  0  0  0  0  0  0
    8.5912   -1.5193   21.9048 C   0  0  0  0  0  0  0  0  0  0  0  0
   10.8277    1.2077   22.9266 C   0  0  0  0  0  0  0  0  0  0  0  0
   12.2151    1.0888   22.9196 C   0  0  0  0  0  0  0  0  0  0  0  0
   13.0289    2.1949   22.7493 C   0  0  0  0  0  0  0  0  0  0  0  0
   12.4607    3.4432   22.5718 C   0  0  0  0  0  0  0  0  0  0  0  0
   11.0851    3.5855   22.5620 C   0  0  0  0  0  0  0  0  0  0  0  0
   10.2802    2.4744   22.7398 C   0  0  0  0  0  0  0  0  0  0  0  0
   13.4949    4.8583   22.3464 S   0  0  0  0  0  0  0  0  0  0  0  0
   13.0429    5.9880   23.3870 N   0  0  0  0  0  0  0  0  0  0  0  0
   14.8296    4.4722   22.6936 O   0  0  0  0  0  0  0  0  0  0  0  0
   13.2420    5.3678   21.0320 O   0  0  0  0  0  0  0  0  0  0  0  0
    7.4835   -6.0224   22.6741 C   0  0  0  0  0  0  0  0  0  0  0  0
    6.3147   -6.7592   22.7447 C   0  0  0  0  0  0  0  0  0  0  0  0
  1  2  1  0
  2  3  2  0
  3  4  1  0
  4  5  2  0
  5  6  1  0
  6  7  1  0
  7  8  1  0
  8  9  1  0
  9 10  1  0
 10 11  1  0
 11 12  1  0
 10 13  1  0
 13 14  2  0
 14 15  1  0
 15 16  2  0
 16 17  1  0
 17 18  2  0
 16 19  1  0
 19 20  1  0
 19 21  2  0
 19 22  2  0
  5 23  1  0
 23 24  2  0
 24  2  1  0
 12  7  1  0
 18 13  1  0
M  END
