CVD-0002811|dock_bobby27042020.47|mol2|18|dock3
     RDKit          3D

 28 30  0  0  0  0  0  0  0  0999 V2000
    6.7936    0.7396   18.5873 C   0  0  0  0  0  0  0  0  0  0  0  0
    6.9908   -0.9363   19.0553 S   0  0  0  0  0  0  0  0  0  0  0  0
    7.4178   -1.6713   17.9050 O   0  0  0  0  0  0  0  0  0  0  0  0
    5.7990   -1.3525   19.7279 O   0  0  0  0  0  0  0  0  0  0  0  0
    8.1824   -1.0052   20.1257 N   0  0  0  0  0  0  0  0  0  0  0  0
    7.9691   -0.4867   21.4820 C   0  0  0  0  0  0  0  0  0  0  0  0
    8.9744    0.5811   21.8366 C   0  0  0  0  0  0  0  0  0  0  0  0
    8.5999    1.8880   21.9732 C   0  0  0  0  0  0  0  0  0  0  0  0
    9.5507    2.8782   22.3015 C   0  0  0  0  0  0  0  0  0  0  0  0
    9.2354    4.2472   22.4600 C   0  0  0  0  0  0  0  0  0  0  0  0
   10.2090    5.1438   22.7774 C   0  0  0  0  0  0  0  0  0  0  0  0
   11.5258    4.7436   22.9518 C   0  0  0  0  0  0  0  0  0  0  0  0
   12.5875    5.7491   23.3062 C   0  0  0  0  0  0  0  0  0  0  0  0
   13.8852    5.8206   22.0898 S   0  0  0  0  0  0  0  0  0  0  0  0
   14.6111    7.2420   22.2205 N   0  0  0  0  0  0  0  0  0  0  0  0
   14.8518    4.8137   22.4236 O   0  0  0  0  0  0  0  0  0  0  0  0
   13.2710    5.7709   20.7937 O   0  0  0  0  0  0  0  0  0  0  0  0
   11.8722    3.4248   22.8082 C   0  0  0  0  0  0  0  0  0  0  0  0
   10.8897    2.4620   22.4787 C   0  0  0  0  0  0  0  0  0  0  0  0
   11.2576    1.1496   22.3388 N   0  0  0  0  0  0  0  0  0  0  0  0
   10.3362    0.2559   22.0321 C   0  0  0  0  0  0  0  0  0  0  0  0
   10.8329   -1.1632   21.8946 C   0  0  0  0  0  0  0  0  0  0  0  0
   11.9999   -1.4643   22.8126 C   0  0  0  0  0  0  0  0  0  0  0  0
   13.0214   -2.3189   22.4327 C   0  0  0  0  0  0  0  0  0  0  0  0
   14.0715   -2.5650   23.2997 C   0  0  0  0  0  0  0  0  0  0  0  0
   14.0662   -1.9430   24.5275 C   0  0  0  0  0  0  0  0  0  0  0  0
   13.0980   -1.1145   24.9214 N   0  0  0  0  0  0  0  0  0  0  0  0
   12.0945   -0.8920   24.0671 C   0  0  0  0  0  0  0  0  0  0  0  0
  1  2  1  0
  2  3  2  0
  2  4  2  0
  2  5  1  0
  5  6  1  0
  6  7  1  0
  7  8  2  0
  8  9  1  0
  9 10  2  0
 10 11  1  0
 11 12  2  0
 12 13  1  0
 13 14  1  0
 14 15  1  0
 14 16  2  0
 14 17  2  0
 12 18  1  0
 18 19  2  0
 19 20  1  0
 20 21  2  0
 21 22  1  0
 22 23  1  0
 23 24  2  0
 24 25  1  0
 25 26  2  0
 26 27  1  0
 27 28  2  0
 21  7  1  0
 28 23  1  0
 19  9  1  0
M  END
