CVD-0001117|dock_bobby27042020.82|mol2|9|dock3
     RDKit          3D

 32 34  0  0  0  0  0  0  0  0999 V2000
   14.2596    6.9291   21.9599 C   0  0  0  0  0  0  0  0  0  0  0  0
   13.2911    5.8892   22.4418 C   0  0  0  0  0  0  0  0  0  0  0  0
   12.8461    5.8967   23.5852 O   0  0  0  0  0  0  0  0  0  0  0  0
   12.9289    4.9655   21.5494 N   0  0  0  0  0  0  0  0  0  0  0  0
   11.9847    3.9022   21.8600 C   0  0  0  0  0  0  0  0  0  0  0  0
   12.6112    2.7825   22.6687 C   0  0  0  0  0  0  0  0  0  0  0  0
   11.6878    1.6261   22.9237 C   0  0  0  0  0  0  0  0  0  0  0  0
   10.3482    1.6802   23.1161 C   0  0  0  0  0  0  0  0  0  0  0  0
    9.8268    0.4363   23.3146 N   0  0  0  0  0  0  0  0  0  0  0  0
    8.4095    0.2083   23.5841 C   0  0  0  0  0  0  0  0  0  0  0  0
    7.6577   -0.2841   22.3669 C   0  0  0  0  0  0  0  0  0  0  0  0
    6.6854   -1.0040   22.4460 O   0  0  0  0  0  0  0  0  0  0  0  0
    8.1936    0.1772   21.0269 C   0  0  0  0  0  0  0  0  0  0  0  0
    7.1695    0.0532   19.9215 C   0  0  0  0  0  0  0  0  0  0  0  0
    6.0651    0.8867   19.8640 C   0  0  0  0  0  0  0  0  0  0  0  0
    5.1496    0.7469   18.8357 C   0  0  0  0  0  0  0  0  0  0  0  0
    5.3707   -0.2289   17.8906 C   0  0  0  0  0  0  0  0  0  0  0  0
    6.4249   -1.0457   17.9180 N   0  0  0  0  0  0  0  0  0  0  0  0
    7.2954   -0.8917   18.9204 C   0  0  0  0  0  0  0  0  0  0  0  0
   10.8682   -0.4885   23.2610 C   0  0  0  0  0  0  0  0  0  0  0  0
   10.8722   -1.8905   23.4062 C   0  0  0  0  0  0  0  0  0  0  0  0
    9.6305   -2.7292   23.6419 C   0  0  0  0  0  0  0  0  0  0  0  0
    9.2860   -2.9528   25.1043 C   0  0  0  0  0  0  0  0  0  0  0  0
    9.9191   -4.1803   25.6013 N   0  0  0  0  0  0  0  0  0  0  0  0
    9.4111   -4.8346   26.9740 S   0  0  0  0  0  0  0  0  0  0  0  0
    8.7723   -6.4219   26.6011 C   0  0  0  0  0  0  0  0  0  0  0  0
   10.5604   -5.0034   27.8084 O   0  0  0  0  0  0  0  0  0  0  0  0
    8.3339   -4.0235   27.4513 O   0  0  0  0  0  0  0  0  0  0  0  0
   12.1124   -2.5261   23.3194 C   0  0  0  0  0  0  0  0  0  0  0  0
   13.2780   -1.8219   23.0668 C   0  0  0  0  0  0  0  0  0  0  0  0
   13.2530   -0.4480   22.9079 C   0  0  0  0  0  0  0  0  0  0  0  0
   12.0469    0.2407   23.0138 C   0  0  0  0  0  0  0  0  0  0  0  0
  1  2  1  0
  2  3  2  0
  2  4  1  0
  4  5  1  0
  5  6  1  0
  6  7  1  0
  7  8  2  0
  8  9  1  0
  9 10  1  0
 10 11  1  0
 11 12  2  0
 11 13  1  0
 13 14  1  0
 14 15  2  0
 15 16  1  0
 16 17  2  0
 17 18  1  0
 18 19  2  0
  9 20  1  0
 20 21  2  0
 21 22  1  0
 22 23  1  0
 23 24  1  0
 24 25  1  0
 25 26  1  0
 25 27  2  0
 25 28  2  0
 21 29  1  0
 29 30  2  0
 30 31  1  0
 31 32  2  0
 32  7  1  0
 19 14  1  0
 32 20  1  0
M  END
