CVD-0000146|dock_bobby27042020.99|mol2|31|dock2
     RDKit          3D

 20 22  0  0  0  0  0  0  0  0999 V2000
   10.1347   -1.9298   21.7272 O   0  0  0  0  0  0  0  0  0  0  0  0
   10.1328   -1.8298   22.9513 C   0  0  0  0  0  0  0  0  0  0  0  0
    9.0105   -1.7337   23.6638 N   0  0  0  0  0  0  0  0  0  0  0  0
    7.6925   -1.7394   23.0465 C   0  0  0  0  0  0  0  0  0  0  0  0
    7.3713   -3.0325   22.3369 C   0  0  0  0  0  0  0  0  0  0  0  0
    7.9477   -4.2331   22.7161 C   0  0  0  0  0  0  0  0  0  0  0  0
    7.6276   -5.3949   22.0357 C   0  0  0  0  0  0  0  0  0  0  0  0
    6.7358   -5.3168   20.9903 C   0  0  0  0  0  0  0  0  0  0  0  0
    6.1656   -4.1754   20.6011 N   0  0  0  0  0  0  0  0  0  0  0  0
    6.4899   -3.0664   21.2727 C   0  0  0  0  0  0  0  0  0  0  0  0
   11.4250   -1.8090   23.7441 C   0  0  0  0  0  0  0  0  0  0  0  0
   12.7126   -1.9987   22.9620 C   0  0  0  0  0  0  0  0  0  0  0  0
   13.7729   -1.7469   23.9893 C   0  0  0  0  0  0  0  0  0  0  0  0
   13.2024   -0.6894   24.9669 C   0  0  0  0  0  0  0  0  0  0  0  0
   11.7085   -0.5161   24.5666 C   0  0  0  0  0  0  0  0  0  0  0  0
   11.4002    0.7595   23.8153 C   0  0  0  0  0  0  0  0  0  0  0  0
   12.3300    1.4157   22.9573 C   0  0  0  0  0  0  0  0  0  0  0  0
   11.8514    2.5541   22.3818 C   0  0  0  0  0  0  0  0  0  0  0  0
   10.2540    2.8320   22.8877 S   0  0  0  0  0  0  0  0  0  0  0  0
   10.2192    1.4413   23.8648 C   0  0  0  0  0  0  0  0  0  0  0  0
  1  2  2  0
  2  3  1  0
  3  4  1  0
  4  5  1  0
  5  6  2  0
  6  7  1  0
  7  8  2  0
  8  9  1  0
  9 10  2  0
 11  2  1  0
 11 12  1  0
 12 13  1  0
 13 14  1  0
 14 15  1  0
 15 16  1  0
 16 17  1  0
 17 18  2  0
 18 19  1  0
 19 20  1  0
 10  5  1  0
 15 11  1  0
 20 16  2  0
M  END
