CVD-0001275|dock_bobby27042020.38|mol2|37|dock3
     RDKit          3D

 27 29  0  0  0  0  0  0  0  0999 V2000
   13.6155    5.5076   23.0458 O   0  0  0  0  0  0  0  0  0  0  0  0
   13.8705    4.5303   22.0531 C   0  0  0  0  0  0  0  0  0  0  0  0
   12.5785    3.9360   21.5237 C   0  0  0  0  0  0  0  0  0  0  0  0
   12.3212    4.0778   20.3349 O   0  0  0  0  0  0  0  0  0  0  0  0
   11.7474    3.2778   22.3597 N   0  0  0  0  0  0  0  0  0  0  0  0
   11.9909    3.0684   23.7928 C   0  0  0  0  0  0  0  0  0  0  0  0
   11.9321    1.5891   24.1483 C   0  0  0  0  0  0  0  0  0  0  0  0
   10.6187    0.9677   23.6923 C   0  0  0  0  0  0  0  0  0  0  0  0
   10.4102    1.2346   22.1993 C   0  0  0  0  0  0  0  0  0  0  0  0
   10.4940    2.7164   21.8672 C   0  0  0  0  0  0  0  0  0  0  0  0
   10.5631   -0.5521   23.9580 C   0  0  0  0  0  0  0  0  0  0  0  0
    9.5462   -1.2356   23.1201 N   0  0  0  0  0  0  0  0  0  0  0  0
    9.6640   -2.6990   23.2278 C   0  0  0  0  0  0  0  0  0  0  0  0
    8.6606   -3.3844   22.3370 C   0  0  0  0  0  0  0  0  0  0  0  0
    7.2986   -2.9464   22.6584 N   0  0  0  0  0  0  0  0  0  0  0  0
    7.1575   -1.4918   22.6310 C   0  0  0  0  0  0  0  0  0  0  0  0
    8.1922   -0.8644   23.5342 C   0  0  0  0  0  0  0  0  0  0  0  0
    6.2229   -3.7427   22.8210 C   0  0  0  0  0  0  0  0  0  0  0  0
    5.1193   -3.2913   23.1006 O   0  0  0  0  0  0  0  0  0  0  0  0
    6.4471   -5.2303   22.6336 C   0  0  0  0  0  0  0  0  0  0  0  0
    7.0397   -5.5934   21.0074 Cl  0  0  0  0  0  0  0  0  0  0  0  0
   11.9307   -1.1960   23.8389 C   0  0  0  0  0  0  0  0  0  0  0  0
   12.6744   -1.4685   24.9789 C   0  0  0  0  0  0  0  0  0  0  0  0
   13.9240   -2.0588   24.8873 C   0  0  0  0  0  0  0  0  0  0  0  0
   14.4470   -2.3855   23.6546 C   0  0  0  0  0  0  0  0  0  0  0  0
   13.7206   -2.1225   22.5133 C   0  0  0  0  0  0  0  0  0  0  0  0
   12.4710   -1.5322   22.6045 C   0  0  0  0  0  0  0  0  0  0  0  0
  1  2  1  0
  2  3  1  0
  3  4  2  0
  3  5  1  0
  5  6  1  0
  6  7  1  0
  7  8  1  0
  8  9  1  0
  9 10  1  0
  8 11  1  0
 11 12  1  0
 12 13  1  0
 13 14  1  0
 14 15  1  0
 15 16  1  0
 16 17  1  0
 15 18  1  0
 18 19  2  0
 18 20  1  0
 20 21  1  0
 11 22  1  0
 22 23  2  0
 23 24  1  0
 24 25  2  0
 25 26  1  0
 26 27  2  0
 10  5  1  0
 17 12  1  0
 27 22  1  0
M  END
