CVD-0002885|dock_bobby27042020.47|mol2|7|dock2
     RDKit          3D

 24 26  0  0  0  0  0  0  0  0999 V2000
   13.4748   -2.3963   20.9632 O   0  0  0  0  0  0  0  0  0  0  0  0
   13.1330   -1.6238   22.0345 C   0  0  0  0  0  0  0  0  0  0  0  0
   13.9120   -1.6477   23.1804 C   0  0  0  0  0  0  0  0  0  0  0  0
   13.5564   -0.8595   24.2618 C   0  0  0  0  0  0  0  0  0  0  0  0
   12.4312   -0.0553   24.1966 C   0  0  0  0  0  0  0  0  0  0  0  0
   11.6462   -0.0280   23.0527 C   0  0  0  0  0  0  0  0  0  0  0  0
   12.0055   -0.8175   21.9705 C   0  0  0  0  0  0  0  0  0  0  0  0
   10.4102    0.8603   22.9813 C   0  0  0  0  0  0  0  0  0  0  0  0
    9.5325    0.4639   21.8558 N   0  0  0  0  0  0  0  0  0  0  0  0
    8.4823    1.4683   21.6206 C   0  0  0  0  0  0  0  0  0  0  0  0
    7.6246    1.0813   20.4439 C   0  0  0  0  0  0  0  0  0  0  0  0
    7.0388   -0.2476   20.6451 N   0  0  0  0  0  0  0  0  0  0  0  0
    8.0451   -1.2624   20.9513 C   0  0  0  0  0  0  0  0  0  0  0  0
    8.8749   -0.8144   22.1308 C   0  0  0  0  0  0  0  0  0  0  0  0
    5.7508   -0.5908   20.4380 C   0  0  0  0  0  0  0  0  0  0  0  0
    5.3456   -1.7280   20.6436 O   0  0  0  0  0  0  0  0  0  0  0  0
    4.8252    0.4981   19.9312 C   0  0  0  0  0  0  0  0  0  0  0  0
    5.3713    1.1423   18.3775 Cl  0  0  0  0  0  0  0  0  0  0  0  0
   10.8410    2.3141   22.8418 C   0  0  0  0  0  0  0  0  0  0  0  0
   10.1037    3.3443   23.3987 C   0  0  0  0  0  0  0  0  0  0  0  0
   10.5910    4.6215   23.2047 C   0  0  0  0  0  0  0  0  0  0  0  0
   11.7062    4.8870   22.5240 N   0  0  0  0  0  0  0  0  0  0  0  0
   12.3290    3.8198   22.0349 C   0  0  0  0  0  0  0  0  0  0  0  0
   11.9639    2.5420   22.1514 N   0  0  0  0  0  0  0  0  0  0  0  0
  1  2  1  0
  2  3  2  0
  3  4  1  0
  4  5  2  0
  5  6  1  0
  6  7  2  0
  8  6  1  0
  8  9  1  0
  9 10  1  0
 10 11  1  0
 11 12  1  0
 12 13  1  0
 13 14  1  0
 12 15  1  0
 15 16  2  0
 15 17  1  0
 17 18  1  0
  8 19  1  0
 19 20  2  0
 20 21  1  0
 21 22  2  0
 22 23  1  0
 23 24  2  0
  7  2  1  0
 14  9  1  0
 24 19  1  0
M  END
