CVD-0000337|dock_bobby27042020.70|mol2|28|dock3
     RDKit          3D

 32 35  0  0  0  0  0  0  0  0999 V2000
    6.5648    0.9662   18.2299 C   0  0  0  0  0  0  0  0  0  0  0  0
    7.7850    0.1179   18.2543 C   0  0  0  0  0  0  0  0  0  0  0  0
    8.1990   -0.0441   19.6162 O   0  0  0  0  0  0  0  0  0  0  0  0
    7.7290   -1.0954   20.3659 C   0  0  0  0  0  0  0  0  0  0  0  0
    6.5481   -1.7695   20.1104 C   0  0  0  0  0  0  0  0  0  0  0  0
    6.0908   -2.7753   20.8640 N   0  0  0  0  0  0  0  0  0  0  0  0
    6.8115   -3.1618   21.9293 C   0  0  0  0  0  0  0  0  0  0  0  0
    8.0122   -2.5372   22.2500 C   0  0  0  0  0  0  0  0  0  0  0  0
    8.5066   -1.4999   21.4601 C   0  0  0  0  0  0  0  0  0  0  0  0
    9.8211   -0.9108   21.8574 C   0  0  0  0  0  0  0  0  0  0  0  0
   10.9160   -1.7544   22.0398 C   0  0  0  0  0  0  0  0  0  0  0  0
   12.1337   -1.2237   22.4090 C   0  0  0  0  0  0  0  0  0  0  0  0
   13.4906   -2.2917   22.6342 Cl  0  0  0  0  0  0  0  0  0  0  0  0
   12.3057    0.1302   22.6049 C   0  0  0  0  0  0  0  0  0  0  0  0
   11.2309    0.9929   22.4237 C   0  0  0  0  0  0  0  0  0  0  0  0
    9.9987    0.4617   22.0462 C   0  0  0  0  0  0  0  0  0  0  0  0
   11.4633    2.4609   22.6472 C   0  0  0  0  0  0  0  0  0  0  0  0
   10.5525    3.1410   23.1102 O   0  0  0  0  0  0  0  0  0  0  0  0
   12.6856    3.0152   22.3309 N   0  0  0  0  0  0  0  0  0  0  0  0
   13.0419    4.3317   22.4823 C   0  0  0  0  0  0  0  0  0  0  0  0
   12.9829    5.2339   23.5266 C   0  0  0  0  0  0  0  0  0  0  0  0
   13.5200    6.4357   23.0085 C   0  0  0  0  0  0  0  0  0  0  0  0
   13.8558    6.2044   21.7465 C   0  0  0  0  0  0  0  0  0  0  0  0
   13.5772    4.9144   21.3790 O   0  0  0  0  0  0  0  0  0  0  0  0
    6.2226   -4.2819   22.7159 C   0  0  0  0  0  0  0  0  0  0  0  0
    5.9522   -4.0238   24.0572 C   0  0  0  0  0  0  0  0  0  0  0  0
    5.4376   -4.9147   24.9109 N   0  0  0  0  0  0  0  0  0  0  0  0
    5.1875   -6.1097   24.4160 C   0  0  0  0  0  0  0  0  0  0  0  0
    4.5388   -7.2701   25.5366 Cl  0  0  0  0  0  0  0  0  0  0  0  0
    5.3970   -6.4928   23.1105 C   0  0  0  0  0  0  0  0  0  0  0  0
    5.9194   -5.5595   22.2192 C   0  0  0  0  0  0  0  0  0  0  0  0
    6.1128   -5.9745   20.7839 C   0  0  0  0  0  0  0  0  0  0  0  0
  1  2  1  0
  2  3  1  0
  3  4  1  0
  4  5  2  0
  5  6  1  0
  6  7  2  0
  7  8  1  0
  8  9  2  0
  9 10  1  0
 10 11  2  0
 11 12  1  0
 12 13  1  0
 12 14  2  0
 14 15  1  0
 15 16  2  0
 15 17  1  0
 17 18  2  0
 17 19  1  0
 19 20  1  0
 20 21  2  0
 21 22  1  0
 22 23  2  0
 23 24  1  0
  7 25  1  0
 25 26  2  0
 26 27  1  0
 27 28  2  0
 28 29  1  0
 28 30  1  0
 30 31  2  0
 31 32  1  0
  9  4  1  0
 16 10  1  0
 24 20  1  0
 31 25  1  0
M  END
