CVD-0004022|dock_bobby27042020.72|mol2|5|dock1
     RDKit          3D

 41 43  0  0  0  0  0  0  0  0999 V2000
   12.9383   -0.0893   23.1263 C   0  0  0  0  0  0  0  0  0  0  0  0
   12.4282   -1.4938   22.8481 C   0  0  0  0  0  0  0  0  0  0  0  0
   13.2002   -2.4956   23.6890 C   0  0  0  0  0  0  0  0  0  0  0  0
   10.9116   -1.6136   23.0327 C   0  0  0  0  0  0  0  0  0  0  0  0
    9.9688   -0.5012   22.5512 C   0  0  0  0  0  0  0  0  0  0  0  0
   10.1200    0.7179   23.3278 N   0  0  0  0  0  0  0  0  0  0  0  0
   10.0375    1.9285   22.7335 C   0  0  0  0  0  0  0  0  0  0  0  0
    9.9062    2.0543   21.5188 O   0  0  0  0  0  0  0  0  0  0  0  0
   10.1090    2.9893   23.5617 N   0  0  0  0  0  0  0  0  0  0  0  0
   10.0339    4.3533   23.0595 C   0  0  0  0  0  0  0  0  0  0  0  0
   11.3878    4.9761   22.8189 C   0  0  0  0  0  0  0  0  0  0  0  0
   11.8142    6.0588   23.5725 C   0  0  0  0  0  0  0  0  0  0  0  0
   13.0549    6.6324   23.3499 C   0  0  0  0  0  0  0  0  0  0  0  0
   13.8838    6.1304   22.3698 C   0  0  0  0  0  0  0  0  0  0  0  0
   13.4717    5.0552   21.6124 C   0  0  0  0  0  0  0  0  0  0  0  0
   12.2309    4.4821   21.8355 C   0  0  0  0  0  0  0  0  0  0  0  0
    8.5115   -0.9567   22.5152 C   0  0  0  0  0  0  0  0  0  0  0  0
    7.7980   -0.7741   23.4973 O   0  0  0  0  0  0  0  0  0  0  0  0
    8.1192   -1.5301   21.3680 N   0  0  0  0  0  0  0  0  0  0  0  0
    6.7886   -2.0508   21.0620 C   0  0  0  0  0  0  0  0  0  0  0  0
    6.1930   -1.4693   19.7709 C   0  0  0  0  0  0  0  0  0  0  0  0
    6.0101    0.0513   19.6460 C   0  0  0  0  0  0  0  0  0  0  0  0
    4.9688    0.6569   20.6083 C   0  0  0  0  0  0  0  0  0  0  0  0
    4.2189    1.7012   19.7916 C   0  0  0  0  0  0  0  0  0  0  0  0
    4.5124    1.3205   18.4231 N   0  0  0  0  0  0  0  0  0  0  0  0
    5.5257    0.4625   18.2801 C   0  0  0  0  0  0  0  0  0  0  0  0
    5.9603    0.0494   17.2084 O   0  0  0  0  0  0  0  0  0  0  0  0
    6.7116   -3.5777   21.1394 C   0  0  0  0  0  0  0  0  0  0  0  0
    6.4419   -4.2925   20.1899 O   0  0  0  0  0  0  0  0  0  0  0  0
    7.0135   -4.2250   22.5058 C   0  0  0  0  0  0  0  0  0  0  0  0
    8.1543   -4.2323   22.9641 O   0  0  0  0  0  0  0  0  0  0  0  0
    5.9049   -4.7512   23.0828 N   0  0  0  0  0  0  0  0  0  0  0  0
    5.7514   -5.4287   24.3219 C   0  0  0  0  0  0  0  0  0  0  0  0
    6.6227   -5.2870   25.4034 C   0  0  0  0  0  0  0  0  0  0  0  0
    6.3946   -5.9889   26.5768 C   0  0  0  0  0  0  0  0  0  0  0  0
    7.2385   -5.8557   27.6328 O   0  0  0  0  0  0  0  0  0  0  0  0
    5.2943   -6.8278   26.6574 C   0  0  0  0  0  0  0  0  0  0  0  0
    5.0888   -7.5041   27.8108 F   0  0  0  0  0  0  0  0  0  0  0  0
    4.4162   -6.9952   25.6215 C   0  0  0  0  0  0  0  0  0  0  0  0
    4.6691   -6.2878   24.4756 C   0  0  0  0  0  0  0  0  0  0  0  0
    3.8094   -6.4427   23.4422 F   0  0  0  0  0  0  0  0  0  0  0  0
  1  2  1  0
  2  3  1  0
  2  4  1  0
  5  4  1  0
  5  6  1  0
  6  7  1  0
  7  8  2  0
  7  9  1  0
  9 10  1  0
 10 11  1  0
 11 12  2  0
 12 13  1  0
 13 14  2  0
 14 15  1  0
 15 16  2  0
  5 17  1  0
 17 18  2  0
 17 19  1  0
 19 20  1  0
 20 21  1  0
 22 21  1  0
 22 23  1  0
 23 24  1  0
 24 25  1  0
 25 26  1  0
 26 27  2  0
 20 28  1  0
 28 29  2  0
 28 30  1  0
 30 31  2  0
 30 32  1  0
 32 33  1  0
 33 34  2  0
 34 35  1  0
 35 36  1  0
 35 37  2  0
 37 38  1  0
 37 39  1  0
 39 40  2  0
 40 41  1  0
 16 11  1  0
 26 22  1  0
 40 33  1  0
M  END
