CVD-0000115|dock_bobby27042020.14|mol2|10|dock1
     RDKit          3D

 17 19  0  0  0  0  0  0  0  0999 V2000
   14.5447   -0.8427   24.0103 F   0  0  0  0  0  0  0  0  0  0  0  0
   13.2978   -0.7333   23.4775 C   0  0  0  0  0  0  0  0  0  0  0  0
   12.5004    0.3012   23.8771 C   0  0  0  0  0  0  0  0  0  0  0  0
   11.2286    0.4047   23.3419 C   0  0  0  0  0  0  0  0  0  0  0  0
   10.7651   -0.5158   22.4038 C   0  0  0  0  0  0  0  0  0  0  0  0
   11.6233   -1.5431   22.0191 C   0  0  0  0  0  0  0  0  0  0  0  0
   12.8899   -1.6619   22.5627 C   0  0  0  0  0  0  0  0  0  0  0  0
    9.4434   -0.3950   21.8546 N   0  0  0  0  0  0  0  0  0  0  0  0
    8.4029   -1.9639   21.6690 Se  0  0  0  0  0  2  0  0  0  0  0  0
    7.6053   -0.9025   20.2616 C   0  0  0  0  0  0  0  0  0  0  0  0
    6.3636   -1.3343   19.5214 C   0  0  0  0  0  0  0  0  0  0  0  0
    5.5303   -0.4141   19.0368 C   0  0  0  0  0  0  0  0  0  0  0  0
    5.7807    0.9626   19.2223 C   0  0  0  0  0  0  0  0  0  0  0  0
    6.6645    1.3935   20.1242 C   0  0  0  0  0  0  0  0  0  0  0  0
    7.4110    0.4208   20.9952 C   0  0  0  0  0  0  0  0  0  0  0  0
    8.8314    0.7529   21.4166 C   0  0  0  0  0  0  0  0  0  0  0  0
    9.3318    1.8601   21.3667 O   0  0  0  0  0  0  0  0  0  0  0  0
  1  2  1  0
  2  3  2  0
  3  4  1  0
  4  5  2  0
  5  6  1  0
  6  7  2  0
  5  8  1  0
  8  9  1  0
  9 10  1  0
 10 11  1  0
 11 12  2  0
 12 13  1  0
 13 14  2  0
 14 15  1  0
 15 16  1  0
 16 17  2  0
  7  2  1  0
 16  8  1  0
 15 10  1  0
M  END
