CVD-0001140|dock_bobby27042020.82|mol2|5|dock3
     RDKit          3D

 20 21  0  0  0  0  0  0  0  0999 V2000
   14.3596   -2.3017   25.0894 C   0  0  0  0  0  0  0  0  0  0  0  0
   13.1391   -1.4468   24.9682 C   0  0  0  0  0  0  0  0  0  0  0  0
   13.0616   -0.3692   25.5135 O   0  0  0  0  0  0  0  0  0  0  0  0
   12.0227   -1.9853   24.1179 C   0  0  0  0  0  0  0  0  0  0  0  0
   12.0037   -1.4587   22.6849 C   0  0  0  0  0  0  0  0  0  0  0  0
   11.6402    0.0079   22.6149 C   0  0  0  0  0  0  0  0  0  0  0  0
   12.6627    0.9516   22.6661 C   0  0  0  0  0  0  0  0  0  0  0  0
   12.3884    2.3070   22.6046 C   0  0  0  0  0  0  0  0  0  0  0  0
   11.0847    2.7365   22.4897 C   0  0  0  0  0  0  0  0  0  0  0  0
   10.0564    1.8109   22.4393 C   0  0  0  0  0  0  0  0  0  0  0  0
   10.3141    0.4437   22.5055 C   0  0  0  0  0  0  0  0  0  0  0  0
    9.1649   -0.5381   22.4515 C   0  0  0  0  0  0  0  0  0  0  0  0
    8.7692   -0.9525   21.0489 C   0  0  0  0  0  0  0  0  0  0  0  0
    9.4527   -1.7434   20.4253 O   0  0  0  0  0  0  0  0  0  0  0  0
    7.5287   -0.3920   20.4378 C   0  0  0  0  0  0  0  0  0  0  0  0
    6.3315   -0.3272   21.1439 C   0  0  0  0  0  0  0  0  0  0  0  0
    5.1940    0.1973   20.5529 C   0  0  0  0  0  0  0  0  0  0  0  0
    5.2351    0.6624   19.2561 C   0  0  0  0  0  0  0  0  0  0  0  0
    6.4144    0.6047   18.5456 C   0  0  0  0  0  0  0  0  0  0  0  0
    7.5553    0.0813   19.1303 C   0  0  0  0  0  0  0  0  0  0  0  0
  1  2  1  0
  2  3  2  0
  2  4  1  0
  4  5  1  0
  5  6  1  0
  6  7  2  0
  7  8  1  0
  8  9  2  0
  9 10  1  0
 10 11  2  0
 11 12  1  0
 12 13  1  0
 13 14  2  0
 13 15  1  0
 15 16  2  0
 16 17  1  0
 17 18  2  0
 18 19  1  0
 19 20  2  0
 11  6  1  0
 20 15  1  0
M  END
