CVD-0002697|dock_bobby27042020.90|mol2|26|dock1
     RDKit          3D

 25 27  0  0  0  0  0  0  0  0999 V2000
    6.3914   -4.5585   18.7868 O   0  0  0  0  0  0  0  0  0  0  0  0
    6.6084   -3.6926   19.6293 C   0  0  0  0  0  0  0  0  0  0  0  0
    6.3551   -2.4104   19.3604 N   0  0  0  0  0  0  0  0  0  0  0  0
    5.8216   -1.9994   18.0799 C   0  0  0  0  0  0  0  0  0  0  0  0
    5.5158   -0.5369   18.0402 C   0  0  0  0  0  0  0  0  0  0  0  0
    5.9677    0.3417   17.2212 N   0  0  0  0  0  0  0  0  0  0  0  0
    5.3805    1.5176   17.6262 C   0  0  0  0  0  0  0  0  0  0  0  0
    4.5884    1.2803   18.6940 C   0  0  0  0  0  0  0  0  0  0  0  0
    4.6623   -0.0553   18.9831 O   0  0  0  0  0  0  0  0  0  0  0  0
    7.1636   -4.0679   20.9780 C   0  0  0  0  0  0  0  0  0  0  0  0
    6.7745   -5.3250   21.4525 C   0  0  0  0  0  0  0  0  0  0  0  0
    7.2104   -5.7994   22.6770 C   0  0  0  0  0  0  0  0  0  0  0  0
    8.0450   -5.0367   23.4592 C   0  0  0  0  0  0  0  0  0  0  0  0
    8.4510   -3.7898   23.0222 C   0  0  0  0  0  0  0  0  0  0  0  0
    8.0182   -3.2970   21.7948 C   0  0  0  0  0  0  0  0  0  0  0  0
    8.3956   -2.0635   21.3204 O   0  0  0  0  0  0  0  0  0  0  0  0
    9.4197   -1.3084   21.9856 C   0  0  0  0  0  0  0  0  0  0  0  0
    9.6963   -0.0467   21.2047 C   0  0  0  0  0  0  0  0  0  0  0  0
   11.0351    0.6110   21.5332 C   0  0  0  0  0  0  0  0  0  0  0  0
   11.1991    1.0932   22.9544 C   0  0  0  0  0  0  0  0  0  0  0  0
   12.6259    1.5696   23.1924 C   0  0  0  0  0  0  0  0  0  0  0  0
   13.5807    0.4005   22.9995 C   0  0  0  0  0  0  0  0  0  0  0  0
   13.3017   -0.4418   21.7858 C   0  0  0  0  0  0  0  0  0  0  0  0
   14.1540   -1.2227   21.3740 O   0  0  0  0  0  0  0  0  0  0  0  0
   12.1110   -0.3340   21.2002 N   0  0  0  0  0  0  0  0  0  0  0  0
  1  2  2  0
  2  3  1  0
  3  4  1  0
  4  5  1  0
  5  6  2  0
  6  7  1  0
  7  8  2  0
  8  9  1  0
  2 10  1  0
 10 11  2  0
 11 12  1  0
 12 13  2  0
 13 14  1  0
 14 15  2  0
 15 16  1  0
 16 17  1  0
 17 18  1  0
 18 19  1  0
 19 20  1  0
 20 21  1  0
 21 22  1  0
 22 23  1  0
 23 24  2  0
 23 25  1  0
  9  5  1  0
 15 10  1  0
 25 19  1  0
M  END
