CVD-0002962|dock_bobby27042020.4|mol2|1|dock3
     RDKit          3D

 40 45  0  0  0  0  0  0  0  0999 V2000
    5.7299   -7.6640   22.3864 O   0  0  0  0  0  0  0  0  0  0  0  0
    5.4474   -6.6417   22.9875 C   0  0  0  0  0  0  0  0  0  0  0  0
    4.2810   -6.5810   23.6721 N   0  0  0  0  0  0  0  0  0  0  0  0
    3.3591   -7.7180   23.7769 C   0  0  0  0  0  0  0  0  0  0  0  0
    1.9400   -7.2575   23.5127 C   0  0  0  0  0  0  0  0  0  0  0  0
    1.5576   -6.2044   24.3743 O   0  0  0  0  0  0  0  0  0  0  0  0
    2.4267   -5.0851   24.1989 C   0  0  0  0  0  0  0  0  0  0  0  0
    3.8617   -5.4511   24.5070 C   0  0  0  0  0  0  0  0  0  0  0  0
    6.4508   -5.5230   22.8882 C   0  0  0  0  0  0  0  0  0  0  0  0
    7.6284   -5.4222   23.6305 C   0  0  0  0  0  0  0  0  0  0  0  0
    8.4674   -4.3302   23.4934 C   0  0  0  0  0  0  0  0  0  0  0  0
    8.1860   -3.3161   22.5940 C   0  0  0  0  0  0  0  0  0  0  0  0
    9.1023   -2.1347   22.4485 C   0  0  0  0  0  0  0  0  0  0  0  0
    8.3420   -0.8962   22.5020 O   0  0  0  0  0  0  0  0  0  0  0  0
    9.0324    0.2411   22.5036 C   0  0  0  0  0  0  0  0  0  0  0  0
   10.3254    0.2882   22.5949 N   0  0  0  0  0  0  0  0  0  0  0  0
   10.9763    1.5059   22.5915 C   0  0  0  0  0  0  0  0  0  0  0  0
   12.2023    1.5033   22.7139 O   0  0  0  0  0  0  0  0  0  0  0  0
   10.1837    2.6754   22.4606 C   0  0  0  0  0  0  0  0  0  0  0  0
   10.4350    4.0587   22.3889 N   0  0  0  0  0  0  0  0  0  0  0  0
   11.7139    4.7353   22.3988 C   0  0  0  0  0  0  0  0  0  0  0  0
   12.7284    4.3428   21.5367 C   0  0  0  0  0  0  0  0  0  0  0  0
   13.9353    5.0192   21.5548 C   0  0  0  0  0  0  0  0  0  0  0  0
   14.0867    6.0694   22.4302 C   0  0  0  0  0  0  0  0  0  0  0  0
   13.1302    6.4608   23.2723 N   0  0  0  0  0  0  0  0  0  0  0  0
   11.9785    5.7823   23.2657 C   0  0  0  0  0  0  0  0  0  0  0  0
    9.2164    4.7390   22.2983 C   0  0  0  0  0  0  0  0  0  0  0  0
    9.0384    5.9493   22.2274 O   0  0  0  0  0  0  0  0  0  0  0  0
    8.2323    3.7766   22.2897 N   0  0  0  0  0  0  0  0  0  0  0  0
    8.8261    2.5541   22.3844 C   0  0  0  0  0  0  0  0  0  0  0  0
    8.2087    1.3319   22.4074 N   0  0  0  0  0  0  0  0  0  0  0  0
    6.7523    1.1859   22.3064 C   0  0  0  0  0  0  0  0  0  0  0  0
    6.2569    1.1507   20.8806 C   0  0  0  0  0  0  0  0  0  0  0  0
    4.9371    1.4516   20.5820 C   0  0  0  0  0  0  0  0  0  0  0  0
    4.4831    1.4221   19.2740 C   0  0  0  0  0  0  0  0  0  0  0  0
    5.3444    1.0920   18.2497 C   0  0  0  0  0  0  0  0  0  0  0  0
    6.6594    0.7918   18.5331 C   0  0  0  0  0  0  0  0  0  0  0  0
    7.1130    0.8214   19.8413 C   0  0  0  0  0  0  0  0  0  0  0  0
    7.0388   -3.4270   21.8279 C   0  0  0  0  0  0  0  0  0  0  0  0
    6.1886   -4.5086   21.9714 C   0  0  0  0  0  0  0  0  0  0  0  0
  1  2  2  0
  2  3  1  0
  3  4  1  0
  4  5  1  0
  5  6  1  0
  6  7  1  0
  7  8  1  0
  2  9  1  0
  9 10  2  0
 10 11  1  0
 11 12  2  0
 12 13  1  0
 13 14  1  0
 14 15  1  0
 15 16  2  0
 16 17  1  0
 17 18  2  0
 17 19  1  0
 19 20  1  0
 20 21  1  0
 21 22  2  0
 22 23  1  0
 23 24  2  0
 24 25  1  0
 25 26  2  0
 20 27  1  0
 27 28  2  0
 27 29  1  0
 29 30  1  0
 30 31  1  0
 31 32  1  0
 32 33  1  0
 33 34  2  0
 34 35  1  0
 35 36  2  0
 36 37  1  0
 37 38  2  0
 12 39  1  0
 39 40  2  0
  8  3  1  0
 40  9  1  0
 31 15  1  0
 38 33  1  0
 30 19  2  0
 26 21  1  0
M  END
