CVD-0002579|dock_bobby27042020.76|mol2|38|dock1
     RDKit          3D

 37 40  0  0  0  0  0  0  0  0999 V2000
    7.7412    6.4794   21.6947 C   0  0  0  0  0  0  0  0  0  0  0  0
    6.3640    6.0827   21.9994 N   0  0  0  0  0  0  0  0  0  0  0  0
    6.2488    4.9546   22.9298 C   0  0  0  0  0  0  0  0  0  0  0  0
    6.7361    3.6706   22.3114 C   0  0  0  0  0  0  0  0  0  0  0  0
    5.9597    2.7985   21.5295 C   0  0  0  0  0  0  0  0  0  0  0  0
    6.7149    1.7117   21.1228 C   0  0  0  0  0  0  0  0  0  0  0  0
    6.2481    0.5787   20.2772 C   0  0  0  0  0  0  0  0  0  0  0  0
    6.3836   -0.7467   20.6996 C   0  0  0  0  0  0  0  0  0  0  0  0
    5.9553   -1.8030   19.9132 C   0  0  0  0  0  0  0  0  0  0  0  0
    5.3922   -1.5732   18.6794 C   0  0  0  0  0  0  0  0  0  0  0  0
    5.2465   -0.2767   18.2242 C   0  0  0  0  0  0  0  0  0  0  0  0
    5.6659    0.7585   19.0259 C   0  0  0  0  0  0  0  0  0  0  0  0
    5.4766    2.0035   18.5320 F   0  0  0  0  0  0  0  0  0  0  0  0
    8.0075    1.9190   21.6873 N   0  0  0  0  0  0  0  0  0  0  0  0
    8.0004    3.1111   22.4009 C   0  0  0  0  0  0  0  0  0  0  0  0
    9.4507    1.0264   21.6498 S   0  0  0  0  0  0  0  0  0  0  0  0
   10.4457    1.9568   21.2150 O   0  0  0  0  0  0  0  0  0  0  0  0
    9.2107   -0.1471   20.8682 O   0  0  0  0  0  0  0  0  0  0  0  0
    9.8377    0.5879   23.3096 C   0  0  0  0  0  0  0  0  0  0  0  0
   10.8185    1.2645   24.0079 C   0  0  0  0  0  0  0  0  0  0  0  0
   11.1407    0.9641   25.2687 N   0  0  0  0  0  0  0  0  0  0  0  0
   10.4731   -0.0285   25.8650 C   0  0  0  0  0  0  0  0  0  0  0  0
    9.4752   -0.7476   25.2411 C   0  0  0  0  0  0  0  0  0  0  0  0
    8.8206   -1.7806   25.9474 O   0  0  0  0  0  0  0  0  0  0  0  0
    9.0272   -3.1042   25.7043 C   0  0  0  0  0  0  0  0  0  0  0  0
    9.7475   -3.5702   24.8364 O   0  0  0  0  0  0  0  0  0  0  0  0
    8.2462   -3.9745   26.6376 C   0  0  0  0  0  0  0  0  0  0  0  0
    6.9831   -3.6043   27.0901 C   0  0  0  0  0  0  0  0  0  0  0  0
    6.2716   -4.4193   27.9527 C   0  0  0  0  0  0  0  0  0  0  0  0
    6.8235   -5.6193   28.3700 C   0  0  0  0  0  0  0  0  0  0  0  0
    8.0798   -6.0052   27.9330 C   0  0  0  0  0  0  0  0  0  0  0  0
    8.7820   -5.1823   27.0707 C   0  0  0  0  0  0  0  0  0  0  0  0
    5.9218   -6.6611   29.4765 S   0  0  0  0  0  0  0  0  0  0  0  0
    5.9101   -8.1462   28.8787 N   0  0  0  0  0  0  0  0  0  0  0  0
    4.5662   -6.1993   29.4898 O   0  0  0  0  0  0  0  0  0  0  0  0
    6.6492   -6.7067   30.7094 O   0  0  0  0  0  0  0  0  0  0  0  0
    9.1477   -0.4416   23.9286 C   0  0  0  0  0  0  0  0  0  0  0  0
  1  2  1  0
  2  3  1  0
  3  4  1  0
  4  5  1  0
  5  6  2  0
  6  7  1  0
  7  8  2  0
  8  9  1  0
  9 10  2  0
 10 11  1  0
 11 12  2  0
 12 13  1  0
  6 14  1  0
 14 15  1  0
 14 16  1  0
 16 17  2  0
 16 18  2  0
 16 19  1  0
 19 20  2  0
 20 21  1  0
 21 22  2  0
 22 23  1  0
 23 24  1  0
 24 25  1  0
 25 26  2  0
 25 27  1  0
 27 28  2  0
 28 29  1  0
 29 30  2  0
 30 31  1  0
 31 32  2  0
 30 33  1  0
 33 34  1  0
 33 35  2  0
 33 36  2  0
 23 37  2  0
 15  4  2  0
 37 19  1  0
 12  7  1  0
 32 27  1  0
M  END
