CVD-0001605|dock_bobby27042020.80|mol2|33|dock1
     RDKit          3D

 18 19  0  0  0  0  0  0  0  0999 V2000
    9.7968    0.8134   23.1629 O   0  0  0  0  0  0  0  0  0  0  0  0
   11.0209    0.2196   23.5977 S   0  0  0  0  0  0  0  0  0  0  0  0
   11.2128    0.0923   25.0075 O   0  0  0  0  0  0  0  0  0  0  0  0
   12.3644    1.1310   22.9173 C   0  0  0  0  0  0  0  0  0  0  0  0
   13.7663    0.7640   23.3675 C   0  0  0  0  0  0  0  0  0  0  0  0
   14.2287   -0.4751   22.8279 O   0  0  0  0  0  0  0  0  0  0  0  0
   13.5889   -1.7039   23.1769 C   0  0  0  0  0  0  0  0  0  0  0  0
   12.2845   -2.0203   22.4820 C   0  0  0  0  0  0  0  0  0  0  0  0
   11.1047   -1.2645   22.9371 N   0  0  0  0  0  0  0  0  0  0  0  0
    9.7715   -1.8396   23.1381 C   0  0  0  0  0  0  0  0  0  0  0  0
    8.7873   -1.2858   22.2338 N   0  0  0  0  0  0  0  0  0  0  0  0
    9.2592   -1.3586   20.8576 C   0  0  0  0  0  0  0  0  0  0  0  0
    8.2647   -0.7307   19.9000 C   0  0  0  0  0  0  0  0  0  0  0  0
    6.9565   -1.3580   20.0437 N   0  0  0  0  0  0  0  0  0  0  0  0
    6.4878   -1.3378   21.4285 C   0  0  0  0  0  0  0  0  0  0  0  0
    7.5119   -1.9790   22.3432 C   0  0  0  0  0  0  0  0  0  0  0  0
    5.9796   -0.9560   19.2469 C   0  0  0  0  0  0  0  0  0  0  0  0
    5.1582   -0.6157   18.5230 N   0  0  0  0  0  0  0  0  0  0  0  0
  1  2  2  0
  2  3  2  0
  2  4  1  0
  4  5  1  0
  5  6  1  0
  6  7  1  0
  7  8  1  0
  8  9  1  0
  9 10  1  0
 10 11  1  0
 11 12  1  0
 12 13  1  0
 13 14  1  0
 14 15  1  0
 15 16  1  0
 14 17  1  0
 17 18  3  0
  9  2  1  0
 16 11  1  0
M  END
