CVD-0001304|dock_bobby27042020.24|mol2|21|dock2
     RDKit          3D

 18 19  0  0  0  0  0  0  0  0999 V2000
    4.9750   -0.5833   17.2744 F   0  0  0  0  0  0  0  0  0  0  0  0
    5.3970    0.5378   17.9557 C   0  0  0  0  0  0  0  0  0  0  0  0
    5.0898    0.4279   19.6999 S   0  0  0  0  0  0  0  0  0  0  0  0
    5.9271   -1.0687   20.0747 C   0  0  0  0  0  0  0  0  0  0  0  0
    5.7068   -2.1026   19.4989 O   0  0  0  0  0  0  0  0  0  0  0  0
    6.9300   -0.8782   21.1863 C   0  0  0  0  0  0  0  0  0  0  0  0
    8.2311   -0.2934   20.6512 C   0  0  0  0  0  0  0  0  0  0  0  0
    9.2451   -0.1418   21.7663 C   0  0  0  0  0  0  0  0  0  0  0  0
    9.4823   -1.4342   22.4037 N   0  0  0  0  0  0  0  0  0  0  0  0
    8.2716   -2.0095   22.9797 C   0  0  0  0  0  0  0  0  0  0  0  0
    7.2176   -2.2004   21.8941 C   0  0  0  0  0  0  0  0  0  0  0  0
   10.6903   -1.9497   22.7123 C   0  0  0  0  0  0  0  0  0  0  0  0
   10.7693   -3.0522   23.2192 O   0  0  0  0  0  0  0  0  0  0  0  0
   11.9526   -1.1577   22.4298 C   0  0  0  0  0  0  0  0  0  0  0  0
   13.2064   -1.8719   22.8357 C   0  0  0  0  0  0  0  0  0  0  0  0
   13.9655   -0.9729   23.6697 C   0  0  0  0  0  0  0  0  0  0  0  0
   13.2573    0.1766   23.9075 C   0  0  0  0  0  0  0  0  0  0  0  0
   11.9635    0.1352   23.2042 C   0  0  0  0  0  0  0  0  0  0  0  0
  1  2  1  0
  2  3  1  0
  3  4  1  0
  4  5  2  0
  4  6  1  0
  6  7  1  0
  7  8  1  0
  8  9  1  0
  9 10  1  0
 10 11  1  0
  9 12  1  0
 12 13  2  0
 12 14  1  0
 14 15  1  0
 15 16  1  0
 16 17  1  0
 17 18  1  0
 11  6  1  0
 18 14  1  0
M  END
