CVD-0003578|dock_bobby27042020.1|mol2|33|dock2
     RDKit          3D

 27 29  0  0  0  0  0  0  0  0999 V2000
   11.8191    6.4568   25.9932 C   0  0  0  0  0  0  0  0  0  0  0  0
   12.4979    6.4684   24.6551 C   0  0  0  0  0  0  0  0  0  0  0  0
   13.0090    7.4849   24.1952 O   0  0  0  0  0  0  0  0  0  0  0  0
   12.5282    5.3054   24.0016 N   0  0  0  0  0  0  0  0  0  0  0  0
   13.1651    5.1518   22.7015 C   0  0  0  0  0  0  0  0  0  0  0  0
   13.5474    3.7113   22.4258 C   0  0  0  0  0  0  0  0  0  0  0  0
   12.3619    2.7944   22.3487 C   0  0  0  0  0  0  0  0  0  0  0  0
   11.0544    3.1389   22.2717 C   0  0  0  0  0  0  0  0  0  0  0  0
   10.2576    2.0299   22.2233 N   0  0  0  0  0  0  0  0  0  0  0  0
    8.8058    2.0987   22.1057 C   0  0  0  0  0  0  0  0  0  0  0  0
   11.0693    0.9022   22.2586 C   0  0  0  0  0  0  0  0  0  0  0  0
   10.7688   -0.4726   22.2292 C   0  0  0  0  0  0  0  0  0  0  0  0
    9.3508   -0.9925   22.1592 C   0  0  0  0  0  0  0  0  0  0  0  0
    8.6082   -0.8320   23.4179 N   0  0  0  0  0  0  0  0  0  0  0  0
    7.2484   -1.3624   23.2822 C   0  0  0  0  0  0  0  0  0  0  0  0
    6.4736   -1.1570   24.5705 C   0  0  0  0  0  0  0  0  0  0  0  0
    7.1603   -1.8058   25.6896 N   0  0  0  0  0  0  0  0  0  0  0  0
    8.5449   -1.3397   25.8151 C   0  0  0  0  0  0  0  0  0  0  0  0
    9.2868   -1.5327   24.5051 C   0  0  0  0  0  0  0  0  0  0  0  0
    6.5551   -2.6956   26.5023 C   0  0  0  0  0  0  0  0  0  0  0  0
    5.3809   -3.0111   26.3564 O   0  0  0  0  0  0  0  0  0  0  0  0
    7.4051   -3.2926   27.6067 C   0  0  0  0  0  0  0  0  0  0  0  0
    6.4688   -4.4257   28.5898 Cl  0  0  0  0  0  0  0  0  0  0  0  0
   11.8348   -1.3676   22.2696 C   0  0  0  0  0  0  0  0  0  0  0  0
   13.1456   -0.9266   22.3486 C   0  0  0  0  0  0  0  0  0  0  0  0
   13.4318    0.4282   22.3861 C   0  0  0  0  0  0  0  0  0  0  0  0
   12.3975    1.3618   22.3379 C   0  0  0  0  0  0  0  0  0  0  0  0
  1  2  1  0
  2  3  2  0
  2  4  1  0
  4  5  1  0
  5  6  1  0
  6  7  1  0
  7  8  2  0
  8  9  1  0
  9 10  1  0
  9 11  1  0
 11 12  2  0
 12 13  1  0
 13 14  1  0
 14 15  1  0
 15 16  1  0
 16 17  1  0
 17 18  1  0
 18 19  1  0
 17 20  1  0
 20 21  2  0
 20 22  1  0
 22 23  1  0
 12 24  1  0
 24 25  2  0
 25 26  1  0
 26 27  2  0
 27  7  1  0
 27 11  1  0
 19 14  1  0
M  END
