CVD-0001323|dock_bobby27042020.53|mol2|8|dock2
     RDKit          3D

 21 23  0  0  0  0  0  0  0  0999 V2000
    9.0990    0.5896   22.9902 O   0  0  0  0  0  0  0  0  0  0  0  0
    9.7281   -0.4042   22.6805 C   0  0  0  0  0  0  0  0  0  0  0  0
    9.0702   -1.5075   21.8462 C   0  0  0  0  0  0  0  0  0  0  0  0
    8.6712   -2.8038   22.5967 C   0  0  0  0  0  0  0  0  0  0  0  0
    7.2219   -3.1080   22.2940 C   0  0  0  0  0  0  0  0  0  0  0  0
    6.6711   -1.9515   21.4716 C   0  0  0  0  0  0  0  0  0  0  0  0
    7.8125   -1.0547   21.2362 N   0  0  0  0  0  0  0  0  0  0  0  0
    7.7760    0.1160   20.5537 C   0  0  0  0  0  0  0  0  0  0  0  0
    8.8062    0.7554   20.4254 O   0  0  0  0  0  0  0  0  0  0  0  0
    6.5442    0.6974   19.9126 C   0  0  0  0  0  0  0  0  0  0  0  0
    5.3414    0.9516   20.5731 C   0  0  0  0  0  0  0  0  0  0  0  0
    4.2472    1.4549   19.8886 C   0  0  0  0  0  0  0  0  0  0  0  0
    4.3349    1.7434   18.5451 C   0  0  0  0  0  0  0  0  0  0  0  0
    5.5223    1.5300   17.8823 C   0  0  0  0  0  0  0  0  0  0  0  0
    6.6148    1.0136   18.5581 C   0  0  0  0  0  0  0  0  0  0  0  0
   11.0109   -0.5603   23.0610 N   0  0  0  0  0  0  0  0  0  0  0  0
   11.7794    0.4996   23.7240 C   0  0  0  0  0  0  0  0  0  0  0  0
   13.1486    0.6198   23.0862 C   0  0  0  0  0  0  0  0  0  0  0  0
   13.8477   -0.6084   23.1010 O   0  0  0  0  0  0  0  0  0  0  0  0
   13.1118   -1.6019   22.3868 C   0  0  0  0  0  0  0  0  0  0  0  0
   11.7494   -1.8255   23.0048 C   0  0  0  0  0  0  0  0  0  0  0  0
  1  2  2  0
  2  3  1  0
  3  4  1  0
  4  5  1  0
  5  6  1  0
  6  7  1  0
  7  8  1  0
  8  9  2  0
  8 10  1  0
 10 11  2  0
 11 12  1  0
 12 13  2  0
 13 14  1  0
 14 15  2  0
  2 16  1  0
 16 17  1  0
 17 18  1  0
 18 19  1  0
 19 20  1  0
 20 21  1  0
  7  3  1  0
 15 10  1  0
 21 16  1  0
M  END
