CVD-0002127|dock_bobby27042020.92|mol2|36|dock1
     RDKit          3D

 28 30  0  0  0  0  0  0  0  0999 V2000
   13.7943   -1.7562   21.2605 C   0  0  0  0  0  0  0  0  0  0  0  0
   12.5169   -1.5432   22.0078 C   0  0  0  0  0  0  0  0  0  0  0  0
   11.3077   -1.7288   21.4033 N   0  0  0  0  0  0  0  0  0  0  0  0
   10.2729   -1.4777   22.2697 C   0  0  0  0  0  0  0  0  0  0  0  0
    8.9246   -1.6293   21.7703 C   0  0  0  0  0  0  0  0  0  0  0  0
    8.1822   -2.5433   22.0473 O   0  0  0  0  0  0  0  0  0  0  0  0
    8.2043   -0.4835   20.6756 S   0  0  0  0  0  0  0  0  0  0  0  0
    8.4429   -0.9659   19.1871 N   0  0  0  0  0  0  0  0  0  0  0  0
    6.8049   -0.4738   20.9519 O   0  0  0  0  0  0  0  0  0  0  0  0
    8.9526    0.7184   20.8482 O   0  0  0  0  0  0  0  0  0  0  0  0
   10.8551   -1.1137   23.5027 C   0  0  0  0  0  0  0  0  0  0  0  0
   10.2197   -0.7263   24.8136 C   0  0  0  0  0  0  0  0  0  0  0  0
    9.4016   -1.8001   25.4736 C   0  0  0  0  0  0  0  0  0  0  0  0
    9.4365   -3.1379   25.2395 C   0  0  0  0  0  0  0  0  0  0  0  0
    8.5400   -3.8885   26.0258 C   0  0  0  0  0  0  0  0  0  0  0  0
    8.3830   -5.3875   25.9712 C   0  0  0  0  0  0  0  0  0  0  0  0
    7.4811   -5.8596   24.9181 N   0  0  0  0  0  0  0  0  0  0  0  0
    8.1730   -5.9155   23.6248 C   0  0  0  0  0  0  0  0  0  0  0  0
    7.2746   -6.4533   22.5284 C   0  0  0  0  0  0  0  0  0  0  0  0
    5.9852   -5.6549   22.3798 C   0  0  0  0  0  0  0  0  0  0  0  0
    5.0630   -6.2152   21.4411 O   0  0  0  0  0  0  0  0  0  0  0  0
    5.3385   -5.5253   23.7544 C   0  0  0  0  0  0  0  0  0  0  0  0
    6.3046   -4.9942   24.8004 C   0  0  0  0  0  0  0  0  0  0  0  0
    7.8328   -3.0784   26.8610 C   0  0  0  0  0  0  0  0  0  0  0  0
    8.2552   -1.4290   26.6780 S   0  0  0  0  0  0  0  0  0  0  0  0
   12.2675   -1.1578   23.3168 C   0  0  0  0  0  0  0  0  0  0  0  0
   13.2546   -0.8508   24.3308 C   0  0  0  0  0  0  0  0  0  0  0  0
   14.2502   -1.5017   24.5788 O   0  0  0  0  0  0  0  0  0  0  0  0
  1  2  1  0
  2  3  1  0
  3  4  1  0
  4  5  1  0
  5  6  2  0
  5  7  1  0
  7  8  1  0
  7  9  2  0
  7 10  2  0
  4 11  2  0
 11 12  1  0
 12 13  1  0
 13 14  2  0
 14 15  1  0
 15 16  1  0
 16 17  1  0
 17 18  1  0
 18 19  1  0
 19 20  1  0
 20 21  1  0
 20 22  1  0
 22 23  1  0
 15 24  2  0
 24 25  1  0
 11 26  1  0
 26 27  1  0
 27 28  2  0
 26  2  2  0
 25 13  1  0
 23 17  1  0
M  END
