CVD-0001244|dock_bobby27042020.53|mol2|20|dock2
     RDKit          3D

 24 26  0  0  0  0  0  0  0  0999 V2000
   13.9329    4.2444   21.3964 C   0  0  0  0  0  0  0  0  0  0  0  0
   13.3953    5.4439   22.1122 C   0  0  0  0  0  0  0  0  0  0  0  0
   11.9722    5.3113   22.3773 N   0  0  0  0  0  0  0  0  0  0  0  0
   11.4313    5.5162   23.5899 C   0  0  0  0  0  0  0  0  0  0  0  0
   12.2252    6.1183   24.4989 N   0  0  0  0  0  0  0  0  0  0  0  0
   11.7120    6.4504   25.6881 C   0  0  0  0  0  0  0  0  0  0  0  0
   10.4052    6.1751   26.0671 C   0  0  0  0  0  0  0  0  0  0  0  0
    9.5939    5.4980   25.1652 C   0  0  0  0  0  0  0  0  0  0  0  0
   10.1050    5.1420   23.9205 C   0  0  0  0  0  0  0  0  0  0  0  0
    9.2616    4.3892   23.0243 N   0  0  0  0  0  0  0  0  0  0  0  0
    8.1146    5.0951   22.4575 C   0  0  0  0  0  0  0  0  0  0  0  0
    9.4957    3.1088   22.6412 C   0  0  0  0  0  0  0  0  0  0  0  0
   10.5782    2.4843   23.0459 N   0  0  0  0  0  0  0  0  0  0  0  0
   10.5852    1.1992   22.5141 C   0  0  0  0  0  0  0  0  0  0  0  0
    9.5251    0.8835   21.7284 C   0  0  0  0  0  0  0  0  0  0  0  0
    8.4378    2.1992   21.6055 S   0  0  0  0  0  0  0  0  0  0  0  0
   11.7078    0.3033   22.8325 C   0  0  0  0  0  0  0  0  0  0  0  0
   11.9945   -0.7894   22.0219 C   0  0  0  0  0  0  0  0  0  0  0  0
   13.0521   -1.6309   22.3244 C   0  0  0  0  0  0  0  0  0  0  0  0
   13.8329   -1.3925   23.4350 C   0  0  0  0  0  0  0  0  0  0  0  0
   13.5590   -0.3124   24.2467 C   0  0  0  0  0  0  0  0  0  0  0  0
   12.5029    0.5327   23.9498 C   0  0  0  0  0  0  0  0  0  0  0  0
    9.9009    6.5745   27.3577 C   0  0  0  0  0  0  0  0  0  0  0  0
    9.5322    6.8878   28.3925 N   0  0  0  0  0  0  0  0  0  0  0  0
  1  2  1  0
  2  3  1  0
  3  4  1  0
  4  5  2  0
  5  6  1  0
  6  7  2  0
  7  8  1  0
  8  9  2  0
  9 10  1  0
 10 11  1  0
 10 12  1  0
 12 13  2  0
 13 14  1  0
 14 15  2  0
 15 16  1  0
 14 17  1  0
 17 18  2  0
 18 19  1  0
 19 20  2  0
 20 21  1  0
 21 22  2  0
  7 23  1  0
 23 24  3  0
  9  4  1  0
 16 12  1  0
 22 17  1  0
M  END
