CVD-0003435|dock_bobby27042020.88|mol2|5|dock1
     RDKit          3D

 19 20  0  0  0  0  0  0  0  0999 V2000
    3.8002    1.7839   20.1464 C   0  0  0  0  0  0  0  0  0  0  0  0
    4.7975    0.9256   20.7485 N   0  0  0  0  0  0  0  0  0  0  0  0
    5.7260    0.2138   20.0334 C   0  0  0  0  0  0  0  0  0  0  0  0
    5.4550   -0.2683   18.7598 C   0  0  0  0  0  0  0  0  0  0  0  0
    6.3356   -0.9620   18.0354 N   0  0  0  0  0  0  0  0  0  0  0  0
    7.5205   -1.1974   18.5682 C   0  0  0  0  0  0  0  0  0  0  0  0
    8.5789   -2.1070   17.5352 Cl  0  0  0  0  0  0  0  0  0  0  0  0
    7.9348   -0.7755   19.8425 C   0  0  0  0  0  0  0  0  0  0  0  0
    9.2409   -1.0895   20.3144 N   0  0  0  0  0  0  0  0  0  0  0  0
    9.8024   -0.8703   21.5532 C   0  0  0  0  0  0  0  0  0  0  0  0
    9.2258   -0.3383   22.4956 O   0  0  0  0  0  0  0  0  0  0  0  0
   11.1009   -1.3265   21.6009 N   0  0  0  0  0  0  0  0  0  0  0  0
   12.0521   -1.3129   22.6530 C   0  0  0  0  0  0  0  0  0  0  0  0
   12.0416   -0.3909   23.6981 C   0  0  0  0  0  0  0  0  0  0  0  0
   13.0095   -0.4480   24.6875 C   0  0  0  0  0  0  0  0  0  0  0  0
   13.9919   -1.4129   24.6522 C   0  0  0  0  0  0  0  0  0  0  0  0
   14.0114   -2.3286   23.6240 C   0  0  0  0  0  0  0  0  0  0  0  0
   13.0492   -2.2816   22.6296 C   0  0  0  0  0  0  0  0  0  0  0  0
    6.9828   -0.0524   20.5643 C   0  0  0  0  0  0  0  0  0  0  0  0
  1  2  1  0
  2  3  1  0
  3  4  2  0
  4  5  1  0
  5  6  2  0
  6  7  1  0
  6  8  1  0
  8  9  1  0
  9 10  1  0
 10 11  2  0
 10 12  1  0
 12 13  1  0
 13 14  2  0
 14 15  1  0
 15 16  2  0
 16 17  1  0
 17 18  2  0
  8 19  2  0
 19  3  1  0
 18 13  1  0
M  END
