CVD-0002644|dock_bobby27042020.19|mol2|11|dock2
     RDKit          3D

 25 27  0  0  0  0  0  0  0  0999 V2000
   13.4204   -1.1962   23.0124 C   0  0  0  0  0  0  0  0  0  0  0  0
   12.2306   -0.3204   22.6337 C   0  0  0  0  0  0  0  0  0  0  0  0
   11.9216    0.6664   23.7580 C   0  0  0  0  0  0  0  0  0  0  0  0
   10.7248    1.5489   23.4840 C   0  0  0  0  0  0  0  0  0  0  0  0
    9.4742    1.0797   23.8714 C   0  0  0  0  0  0  0  0  0  0  0  0
    8.3598    1.8540   23.6355 C   0  0  0  0  0  0  0  0  0  0  0  0
    8.4104    3.0463   23.0476 N   0  0  0  0  0  0  0  0  0  0  0  0
    9.6085    3.5042   22.6716 C   0  0  0  0  0  0  0  0  0  0  0  0
   10.8014    2.8068   22.8592 C   0  0  0  0  0  0  0  0  0  0  0  0
   12.0774    3.2910   22.4587 N   0  0  0  0  0  0  0  0  0  0  0  0
   12.6164    4.5369   22.5135 C   0  0  0  0  0  0  0  0  0  0  0  0
   14.0086    4.6182   21.9596 C   0  0  0  0  0  0  0  0  0  0  0  0
   12.0545    5.5354   22.9504 O   0  0  0  0  0  0  0  0  0  0  0  0
   11.0157   -1.2073   22.3574 C   0  0  0  0  0  0  0  0  0  0  0  0
    9.9345   -0.5081   21.6704 N   0  0  0  0  0  0  0  0  0  0  0  0
    8.6796   -0.9222   21.4304 C   0  0  0  0  0  0  0  0  0  0  0  0
    8.0902    0.0877   20.7343 C   0  0  0  0  0  0  0  0  0  0  0  0
    9.0145    1.0731   20.5714 N   0  0  0  0  0  0  0  0  0  0  0  0
   10.1440    0.7044   21.1326 N   0  0  0  0  0  0  0  0  0  0  0  0
    6.6932    0.1510   20.2208 C   0  0  0  0  0  0  0  0  0  0  0  0
    5.9536    1.3126   20.8426 C   0  0  0  0  0  0  0  0  0  0  0  0
    4.5510    1.4452   20.2584 C   0  0  0  0  0  0  0  0  0  0  0  0
    4.5896    1.5697   18.7576 C   0  0  0  0  0  0  0  0  0  0  0  0
    5.3458    0.4223   18.1308 C   0  0  0  0  0  0  0  0  0  0  0  0
    6.7456    0.2819   18.7132 C   0  0  0  0  0  0  0  0  0  0  0  0
  1  2  1  0
  2  3  1  0
  3  4  1  0
  4  5  2  0
  5  6  1  0
  6  7  2  0
  7  8  1  0
  8  9  2  0
  9 10  1  0
 10 11  1  0
 11 12  1  0
 11 13  2  0
  2 14  1  0
 14 15  1  0
 15 16  1  0
 16 17  2  0
 17 18  1  0
 18 19  2  0
 17 20  1  0
 20 21  1  0
 21 22  1  0
 22 23  1  0
 23 24  1  0
 24 25  1  0
  9  4  1  0
 19 15  1  0
 25 20  1  0
M  END
