CVD-0001470|dock_bobby27042020.67|mol2|5|dock2
     RDKit          3D

 35 38  0  0  0  0  0  0  0  0999 V2000
   11.2914    0.2943   26.9432 F   0  0  0  0  0  0  0  0  0  0  0  0
   10.1086    0.1196   26.3108 C   0  0  0  0  0  0  0  0  0  0  0  0
    9.0494   -0.3287   27.0635 C   0  0  0  0  0  0  0  0  0  0  0  0
    7.8224   -0.5141   26.4479 C   0  0  0  0  0  0  0  0  0  0  0  0
    7.6598   -0.2509   25.0975 C   0  0  0  0  0  0  0  0  0  0  0  0
    8.7339    0.2038   24.3424 C   0  0  0  0  0  0  0  0  0  0  0  0
    8.6744    0.4937   23.0016 O   0  0  0  0  0  0  0  0  0  0  0  0
    7.4194    0.4070   22.3098 C   0  0  0  0  0  0  0  0  0  0  0  0
    7.6690    0.5350   20.8264 C   0  0  0  0  0  0  0  0  0  0  0  0
    7.8510   -0.8018   20.1353 C   0  0  0  0  0  0  0  0  0  0  0  0
    9.0463   -1.4801   20.6088 N   0  0  0  0  0  0  0  0  0  0  0  0
    9.1188   -2.1654   21.7829 C   0  0  0  0  0  0  0  0  0  0  0  0
   10.3338   -2.3403   22.4449 C   0  0  0  0  0  0  0  0  0  0  0  0
   10.3405   -3.0463   23.6342 C   0  0  0  0  0  0  0  0  0  0  0  0
    9.1514   -3.5604   24.1383 C   0  0  0  0  0  0  0  0  0  0  0  0
    7.9909   -3.3335   23.4048 C   0  0  0  0  0  0  0  0  0  0  0  0
    7.9665   -2.6532   22.2533 N   0  0  0  0  0  0  0  0  0  0  0  0
    9.1215   -4.3012   25.3752 C   0  0  0  0  0  0  0  0  0  0  0  0
    9.1260   -4.8727   26.3643 N   0  0  0  0  0  0  0  0  0  0  0  0
    9.9957    0.3926   24.9458 C   0  0  0  0  0  0  0  0  0  0  0  0
   11.3484    0.9689   23.9150 S   0  0  0  0  0  0  0  0  0  0  0  0
   11.1184    0.6171   22.5484 O   0  0  0  0  0  0  0  0  0  0  0  0
   12.5794    0.6158   24.5513 O   0  0  0  0  0  0  0  0  0  0  0  0
   11.2253    2.5925   23.9994 N   0  0  0  0  0  0  0  0  0  0  0  0
   12.1444    3.3911   23.1639 C   0  0  0  0  0  0  0  0  0  0  0  0
   11.6619    4.8285   23.2892 C   0  0  0  0  0  0  0  0  0  0  0  0
   12.3405    5.7185   24.3291 C   0  0  0  0  0  0  0  0  0  0  0  0
   11.4048    5.7675   25.4461 N   0  0  0  0  0  0  0  0  0  0  0  0
   10.0946    5.2990   25.1197 C   0  0  0  0  0  0  0  0  0  0  0  0
   10.2003    4.6916   23.7266 C   0  0  0  0  0  0  0  0  0  0  0  0
    9.9169    3.1991   23.7111 C   0  0  0  0  0  0  0  0  0  0  0  0
   11.6445    6.3783   26.6325 C   0  0  0  0  0  0  0  0  0  0  0  0
   10.7586    6.3376   27.4848 O   0  0  0  0  0  0  0  0  0  0  0  0
   12.9096    7.0919   26.9975 C   0  0  0  0  0  0  0  0  0  0  0  0
   13.3365    7.3735   28.2038 C   0  0  0  0  0  0  0  0  0  0  0  0
  1  2  1  0
  2  3  2  0
  3  4  1  0
  4  5  2  0
  5  6  1  0
  6  7  1  0
  7  8  1  0
  8  9  1  0
  9 10  1  0
 10 11  1  0
 11 12  1  0
 12 13  2  0
 13 14  1  0
 14 15  2  0
 15 16  1  0
 16 17  2  0
 15 18  1  0
 18 19  3  0
  6 20  2  0
 20 21  1  0
 21 22  2  0
 21 23  2  0
 21 24  1  0
 24 25  1  0
 26 25  1  0
 26 27  1  0
 27 28  1  0
 28 29  1  0
 30 29  1  0
 30 31  1  0
 28 32  1  0
 32 33  2  0
 32 34  1  0
 34 35  2  0
 20  2  1  0
 31 24  1  0
 17 12  1  0
 30 26  1  0
M  END
