CVD-0002680|dock_bobby27042020.62|mol2|18|dock3
     RDKit          3D

 31 33  0  0  0  0  0  0  0  0999 V2000
    9.3683   -6.9379   26.3609 N   0  0  0  0  0  0  0  0  0  0  0  0
    8.4153   -6.0571   26.0850 C   0  0  0  0  0  0  0  0  0  0  0  0
    7.4698   -5.8170   26.8445 O   0  0  0  0  0  0  0  0  0  0  0  0
    8.5652   -5.3459   24.7426 C   0  0  0  0  0  0  0  0  0  0  0  0
    9.0542   -5.9265   23.7890 O   0  0  0  0  0  0  0  0  0  0  0  0
    8.0806   -3.9025   24.6483 C   0  0  0  0  0  0  0  0  0  0  0  0
    6.5652   -3.8893   24.3954 C   0  0  0  0  0  0  0  0  0  0  0  0
    6.1312   -4.8575   23.3218 C   0  0  0  0  0  0  0  0  0  0  0  0
    5.3016   -5.9261   23.6246 C   0  0  0  0  0  0  0  0  0  0  0  0
    4.9006   -6.8129   22.6393 C   0  0  0  0  0  0  0  0  0  0  0  0
    5.3241   -6.6405   21.3391 C   0  0  0  0  0  0  0  0  0  0  0  0
    6.1480   -5.5815   21.0242 C   0  0  0  0  0  0  0  0  0  0  0  0
    6.5487   -4.6950   22.0099 C   0  0  0  0  0  0  0  0  0  0  0  0
    8.7885   -3.2318   23.5701 N   0  0  0  0  0  0  0  0  0  0  0  0
    8.6836   -1.9142   23.3752 C   0  0  0  0  0  0  0  0  0  0  0  0
    7.9668   -1.1932   24.0642 O   0  0  0  0  0  0  0  0  0  0  0  0
    9.5093   -1.3269   22.2352 C   0  0  0  0  0  0  0  0  0  0  0  0
    8.8960    0.0090   21.7696 C   0  0  0  0  0  0  0  0  0  0  0  0
    7.6751   -0.1693   20.9002 C   0  0  0  0  0  0  0  0  0  0  0  0
    6.4110    0.1318   21.3831 C   0  0  0  0  0  0  0  0  0  0  0  0
    5.2905   -0.0323   20.5859 C   0  0  0  0  0  0  0  0  0  0  0  0
    5.4213   -0.5000   19.2960 C   0  0  0  0  0  0  0  0  0  0  0  0
    6.6723   -0.8035   18.8035 C   0  0  0  0  0  0  0  0  0  0  0  0
    7.7924   -0.6391   19.6011 C   0  0  0  0  0  0  0  0  0  0  0  0
   10.9115   -1.1931   22.6622 N   0  0  0  0  0  0  0  0  0  0  0  0
   11.9076   -1.8060   21.9353 C   0  0  0  0  0  0  0  0  0  0  0  0
   13.2020   -1.6942   22.2924 C   0  0  0  0  0  0  0  0  0  0  0  0
   13.5483   -0.9389   23.4240 C   0  0  0  0  0  0  0  0  0  0  0  0
   12.5765   -0.3150   24.1522 C   0  0  0  0  0  0  0  0  0  0  0  0
   11.1928   -0.4113   23.7913 C   0  0  0  0  0  0  0  0  0  0  0  0
   10.2886    0.1457   24.4120 O   0  0  0  0  0  0  0  0  0  0  0  0
  1  2  1  0
  2  3  2  0
  2  4  1  0
  4  5  2  0
  4  6  1  0
  6  7  1  0
  7  8  1  0
  8  9  2  0
  9 10  1  0
 10 11  2  0
 11 12  1  0
 12 13  2  0
  6 14  1  0
 14 15  1  0
 15 16  2  0
 15 17  1  0
 17 18  1  0
 18 19  1  0
 19 20  2  0
 20 21  1  0
 21 22  2  0
 22 23  1  0
 23 24  2  0
 17 25  1  0
 25 26  1  0
 26 27  2  0
 27 28  1  0
 28 29  2  0
 29 30  1  0
 30 31  2  0
 13  8  1  0
 24 19  1  0
 30 25  1  0
M  END
