CVD-0003001|dock_bobby27042020.46|mol2|37|dock1
     RDKit          3D

 43 45  0  0  0  0  0  0  0  0999 V2000
    5.5840    0.2666   23.3968 C   0  0  0  0  0  0  0  0  0  0  0  0
    6.0153    1.5705   22.7640 C   0  0  0  0  0  0  0  0  0  0  0  0
    5.4166    1.6476   21.4618 O   0  0  0  0  0  0  0  0  0  0  0  0
    4.2851    2.4909   21.1020 C   0  0  0  0  0  0  0  0  0  0  0  0
    3.0479    1.9534   21.7912 C   0  0  0  0  0  0  0  0  0  0  0  0
    4.4893    3.9484   21.4626 C   0  0  0  0  0  0  0  0  0  0  0  0
    4.1208    2.3807   19.6001 C   0  0  0  0  0  0  0  0  0  0  0  0
    7.5456    1.6477   22.6537 C   0  0  0  0  0  0  0  0  0  0  0  0
    7.9570    2.9132   22.0667 N   0  0  0  0  0  0  0  0  0  0  0  0
    8.0995    4.0123   22.8258 C   0  0  0  0  0  0  0  0  0  0  0  0
    7.9049    4.0527   24.0225 O   0  0  0  0  0  0  0  0  0  0  0  0
    8.4841    5.0562   22.0631 O   0  0  0  0  0  0  0  0  0  0  0  0
    8.8178    6.3003   22.7371 C   0  0  0  0  0  0  0  0  0  0  0  0
   10.0485    6.1171   23.5779 C   0  0  0  0  0  0  0  0  0  0  0  0
   11.2643    5.7995   22.9929 C   0  0  0  0  0  0  0  0  0  0  0  0
   12.4001    5.6337   23.7679 C   0  0  0  0  0  0  0  0  0  0  0  0
   12.3323    5.7847   25.1363 C   0  0  0  0  0  0  0  0  0  0  0  0
   11.1294    6.1018   25.7298 C   0  0  0  0  0  0  0  0  0  0  0  0
    9.9937    6.2676   24.9548 C   0  0  0  0  0  0  0  0  0  0  0  0
    8.0762    0.4972   21.8051 C   0  0  0  0  0  0  0  0  0  0  0  0
    8.2504    0.6377   20.5975 O   0  0  0  0  0  0  0  0  0  0  0  0
    8.3326   -0.6458   22.4477 N   0  0  0  0  0  0  0  0  0  0  0  0
    8.8280   -1.8200   21.7484 C   0  0  0  0  0  0  0  0  0  0  0  0
   10.3175   -1.6480   21.4327 C   0  0  0  0  0  0  0  0  0  0  0  0
   11.2312   -1.2776   22.6030 C   0  0  0  0  0  0  0  0  0  0  0  0
   12.6575   -1.8256   22.3916 C   0  0  0  0  0  0  0  0  0  0  0  0
   13.6129   -1.4108   23.5089 C   0  0  0  0  0  0  0  0  0  0  0  0
   13.6221    0.1006   23.6981 C   0  0  0  0  0  0  0  0  0  0  0  0
   12.2165    0.6326   23.9380 C   0  0  0  0  0  0  0  0  0  0  0  0
   11.2786    0.2474   22.7985 C   0  0  0  0  0  0  0  0  0  0  0  0
    8.5596   -3.0897   22.5524 C   0  0  0  0  0  0  0  0  0  0  0  0
    9.4274   -3.5503   23.2894 O   0  0  0  0  0  0  0  0  0  0  0  0
    7.3530   -3.6456   22.4026 N   0  0  0  0  0  0  0  0  0  0  0  0
    6.9403   -4.8610   23.1015 C   0  0  0  0  0  0  0  0  0  0  0  0
    6.1287   -4.5006   24.3489 C   0  0  0  0  0  0  0  0  0  0  0  0
    6.9586   -4.2104   25.6057 C   0  0  0  0  0  0  0  0  0  0  0  0
    7.7176   -5.4267   26.1725 C   0  0  0  0  0  0  0  0  0  0  0  0
    7.5855   -5.3197   27.6861 C   0  0  0  0  0  0  0  0  0  0  0  0
    6.4603   -4.4199   27.8545 N   0  0  0  0  0  0  0  0  0  0  0  0
    6.1111   -3.7406   26.7592 C   0  0  0  0  0  0  0  0  0  0  0  0
    5.2172   -2.9005   26.6997 O   0  0  0  0  0  0  0  0  0  0  0  0
    6.1243   -5.7117   22.1488 C   0  0  0  0  0  0  0  0  0  0  0  0
    6.4819   -6.7652   21.7114 O   0  0  0  0  0  0  0  0  0  0  0  0
  1  2  1  0
  2  3  1  0
  3  4  1  0
  4  5  1  0
  4  6  1  0
  4  7  1  0
  2  8  1  0
  8  9  1  0
  9 10  1  0
 10 11  2  0
 10 12  1  0
 12 13  1  0
 13 14  1  0
 14 15  2  0
 15 16  1  0
 16 17  2  0
 17 18  1  0
 18 19  2  0
  8 20  1  0
 20 21  2  0
 20 22  1  0
 22 23  1  0
 23 24  1  0
 24 25  1  0
 25 26  1  0
 26 27  1  0
 27 28  1  0
 28 29  1  0
 29 30  1  0
 23 31  1  0
 31 32  2  0
 31 33  1  0
 33 34  1  0
 34 35  1  0
 36 35  1  0
 36 37  1  0
 37 38  1  0
 38 39  1  0
 39 40  1  0
 40 41  2  0
 34 42  1  0
 42 43  2  0
 19 14  1  0
 30 25  1  0
 40 36  1  0
M  END
