CVD-0001412|dock_bobby27042020.24|mol2|3|dock2
     RDKit          3D

 42 47  0  0  0  0  0  0  0  0999 V2000
   12.5934    4.8747   23.4160 C   0  0  0  0  0  0  0  0  0  0  0  0
   12.3849    3.3960   23.4397 C   0  0  0  0  0  0  0  0  0  0  0  0
   11.3171    2.5985   23.3135 C   0  0  0  0  0  0  0  0  0  0  0  0
   11.7892    1.2601   23.4311 C   0  0  0  0  0  0  0  0  0  0  0  0
   13.1213    1.3231   23.6226 C   0  0  0  0  0  0  0  0  0  0  0  0
   13.5177    2.6343   23.6323 O   0  0  0  0  0  0  0  0  0  0  0  0
   10.9657    0.0322   23.3561 C   0  0  0  0  0  0  0  0  0  0  0  0
   11.0882   -0.8398   22.2811 C   0  0  0  0  0  0  0  0  0  0  0  0
   10.3124   -1.9844   22.2224 C   0  0  0  0  0  0  0  0  0  0  0  0
    9.4112   -2.2643   23.2358 C   0  0  0  0  0  0  0  0  0  0  0  0
    9.2709   -1.4093   24.3202 C   0  0  0  0  0  0  0  0  0  0  0  0
   10.0559   -0.2643   24.3647 C   0  0  0  0  0  0  0  0  0  0  0  0
    8.2691   -1.7404   25.4229 C   0  0  0  0  0  0  0  0  0  0  0  0
    6.8600   -1.4545   25.0231 C   0  0  0  0  0  0  0  0  0  0  0  0
    5.9322   -1.6570   26.1631 N   0  0  0  0  0  0  0  0  0  0  0  0
    6.0671   -2.9036   26.9421 C   0  0  0  0  0  0  0  0  0  0  0  0
    7.3350   -3.7150   26.6550 C   0  0  0  0  0  0  0  0  0  0  0  0
    7.4215   -5.0143   27.1670 C   0  0  0  0  0  0  0  0  0  0  0  0
    8.5724   -5.7640   26.9481 C   0  0  0  0  0  0  0  0  0  0  0  0
    9.6259   -5.2306   26.2290 C   0  0  0  0  0  0  0  0  0  0  0  0
    9.5224   -3.9452   25.7307 C   0  0  0  0  0  0  0  0  0  0  0  0
    8.3858   -3.1573   25.9267 C   0  0  0  0  0  0  0  0  0  0  0  0
    6.2543   -5.6223   27.9226 C   0  0  0  0  0  0  0  0  0  0  0  0
    5.4696   -6.7451   27.2149 C   0  0  0  0  0  0  0  0  0  0  0  0
    5.4240   -7.5282   28.5546 C   0  0  0  0  0  0  0  0  0  0  0  0
    4.2376   -7.3442   29.2358 F   0  0  0  0  0  0  0  0  0  0  0  0
    5.7425   -8.8688   28.4839 F   0  0  0  0  0  0  0  0  0  0  0  0
    6.5390   -6.5971   29.0925 C   0  0  0  0  0  0  0  0  0  0  0  0
    4.9801   -0.7252   26.3947 C   0  0  0  0  0  0  0  0  0  0  0  0
    4.8419    0.2747   25.7006 O   0  0  0  0  0  0  0  0  0  0  0  0
    4.0710   -0.9766   27.5817 C   0  0  0  0  0  0  0  0  0  0  0  0
    2.7309    0.1766   27.6174 Cl  0  0  0  0  0  0  0  0  0  0  0  0
    6.4274   -2.1994   23.7710 C   0  0  0  0  0  0  0  0  0  0  0  0
    6.2935   -1.5123   22.5711 C   0  0  0  0  0  0  0  0  0  0  0  0
    5.8897   -2.2442   21.4561 C   0  0  0  0  0  0  0  0  0  0  0  0
    5.7268   -1.6376   20.1975 N   0  0  0  0  0  0  0  0  0  0  0  0
    5.3479   -2.0926   18.9673 C   0  0  0  0  0  0  0  0  0  0  0  0
    5.3022   -1.2119   17.9677 N   0  0  0  0  0  0  0  0  0  0  0  0
    5.0582   -3.2845   18.7953 O   0  0  0  0  0  0  0  0  0  0  0  0
    5.6382   -3.5555   21.5291 N   0  0  0  0  0  0  0  0  0  0  0  0
    5.8000   -4.1030   22.7351 C   0  0  0  0  0  0  0  0  0  0  0  0
    6.1791   -3.5096   23.8673 N   0  0  0  0  0  0  0  0  0  0  0  0
  1  2  1  0
  2  3  2  0
  3  4  1  0
  4  5  2  0
  5  6  1  0
  4  7  1  0
  7  8  2  0
  8  9  1  0
  9 10  2  0
 10 11  1  0
 11 12  2  0
 13 11  1  0
 13 14  1  0
 14 15  1  0
 15 16  1  0
 16 17  1  0
 17 18  2  0
 18 19  1  0
 19 20  2  0
 20 21  1  0
 21 22  2  0
 18 23  1  0
 23 24  1  0
 24 25  1  0
 25 26  1  0
 25 27  1  0
 25 28  1  0
 15 29  1  0
 29 30  2  0
 29 31  1  0
 31 32  1  0
 14 33  1  0
 33 34  2  0
 34 35  1  0
 35 36  1  0
 36 37  1  0
 37 38  1  0
 37 39  2  0
 35 40  2  0
 40 41  1  0
 41 42  2  0
  6  2  1  0
 12  7  1  0
 22 13  1  0
 28 23  1  0
 42 33  1  0
 22 17  1  0
M  END
