CVD-0001738|dock_bobby27042020.66|mol2|15|dock3
     RDKit          3D

 27 29  0  0  0  0  0  0  0  0999 V2000
    9.1011   -0.5337   20.1625 O   0  0  0  0  0  0  0  0  0  0  0  0
    8.1839   -1.1501   20.6882 C   0  0  0  0  0  0  0  0  0  0  0  0
    6.8713   -0.9339   20.3280 N   0  0  0  0  0  0  0  0  0  0  0  0
    6.3212   -0.0446   19.3675 C   0  0  0  0  0  0  0  0  0  0  0  0
    5.1177    0.6454   19.4958 C   0  0  0  0  0  0  0  0  0  0  0  0
    4.7024    1.4839   18.4756 C   0  0  0  0  0  0  0  0  0  0  0  0
    5.4924    1.6132   17.3572 C   0  0  0  0  0  0  0  0  0  0  0  0
    6.6474    0.9673   17.2033 N   0  0  0  0  0  0  0  0  0  0  0  0
    7.0387    0.1611   18.1941 C   0  0  0  0  0  0  0  0  0  0  0  0
    8.4963   -2.1024   21.6700 N   0  0  0  0  0  0  0  0  0  0  0  0
    9.9068   -2.2752   22.0667 C   0  0  0  0  0  0  0  0  0  0  0  0
   10.3512   -1.1561   22.9945 C   0  0  0  0  0  0  0  0  0  0  0  0
   11.7506   -1.2896   23.4207 N   0  0  0  0  0  0  0  0  0  0  0  0
   12.0877   -2.4815   24.2283 C   0  0  0  0  0  0  0  0  0  0  0  0
   13.0729   -2.1904   25.3507 C   0  0  0  0  0  0  0  0  0  0  0  0
   14.5567   -2.3774   24.9842 C   0  0  0  0  0  0  0  0  0  0  0  0
   14.8003   -1.9667   23.6346 O   0  0  0  0  0  0  0  0  0  0  0  0
   14.1909   -0.7451   23.2308 C   0  0  0  0  0  0  0  0  0  0  0  0
   12.8706   -0.9532   22.5290 C   0  0  0  0  0  0  0  0  0  0  0  0
    7.5290   -2.9590   22.3118 C   0  0  0  0  0  0  0  0  0  0  0  0
    6.5890   -2.4458   23.2018 C   0  0  0  0  0  0  0  0  0  0  0  0
    5.6660   -3.2735   23.8195 C   0  0  0  0  0  0  0  0  0  0  0  0
    5.6538   -4.6301   23.5529 C   0  0  0  0  0  0  0  0  0  0  0  0
    6.5791   -5.1589   22.6623 C   0  0  0  0  0  0  0  0  0  0  0  0
    7.5136   -4.3273   22.0495 C   0  0  0  0  0  0  0  0  0  0  0  0
    6.5777   -6.5708   22.3689 C   0  0  0  0  0  0  0  0  0  0  0  0
    6.5890   -7.6951   22.1670 N   0  0  0  0  0  0  0  0  0  0  0  0
  1  2  2  0
  2  3  1  0
  3  4  1  0
  4  5  2  0
  5  6  1  0
  6  7  2  0
  7  8  1  0
  8  9  2  0
  2 10  1  0
 10 11  1  0
 11 12  1  0
 12 13  1  0
 13 14  1  0
 14 15  1  0
 15 16  1  0
 16 17  1  0
 17 18  1  0
 18 19  1  0
 10 20  1  0
 20 21  2  0
 21 22  1  0
 22 23  2  0
 23 24  1  0
 24 25  2  0
 24 26  1  0
 26 27  3  0
  9  4  1  0
 19 13  1  0
 25 20  1  0
M  END
