CVD-0001245|dock_bobby27042020.38|mol2|42|dock3
     RDKit          3D

 23 24  0  0  0  0  0  0  0  0999 V2000
   13.2433   -1.5360   22.2891 C   0  0  0  0  0  0  0  0  0  0  0  0
   12.8564   -1.1013   23.6681 C   0  0  0  0  0  0  0  0  0  0  0  0
   11.8154   -0.0872   23.6308 N   0  0  0  0  0  0  0  0  0  0  0  0
   12.0170    1.1544   23.1580 C   0  0  0  0  0  0  0  0  0  0  0  0
   13.3034    1.5020   22.9483 N   0  0  0  0  0  0  0  0  0  0  0  0
   13.5874    2.7609   22.6000 C   0  0  0  0  0  0  0  0  0  0  0  0
   12.6231    3.7385   22.3990 C   0  0  0  0  0  0  0  0  0  0  0  0
   11.2896    3.3768   22.5435 C   0  0  0  0  0  0  0  0  0  0  0  0
   10.9656    2.0692   22.8956 C   0  0  0  0  0  0  0  0  0  0  0  0
    9.5772    1.6959   22.9631 N   0  0  0  0  0  0  0  0  0  0  0  0
    8.8960    1.8785   24.2451 C   0  0  0  0  0  0  0  0  0  0  0  0
    8.8715    1.0804   21.8815 C   0  0  0  0  0  0  0  0  0  0  0  0
    7.7891    1.7183   21.2812 C   0  0  0  0  0  0  0  0  0  0  0  0
    7.1029    1.1245   20.2364 C   0  0  0  0  0  0  0  0  0  0  0  0
    7.4945   -0.1206   19.7773 C   0  0  0  0  0  0  0  0  0  0  0  0
    8.5701   -0.7705   20.3557 C   0  0  0  0  0  0  0  0  0  0  0  0
    9.2541   -0.1654   21.3948 C   0  0  0  0  0  0  0  0  0  0  0  0
    6.6109   -0.8881   18.4531 S   0  0  0  0  0  0  0  0  0  0  0  0
    5.3253   -1.6237   19.0605 N   0  0  0  0  0  0  0  0  0  0  0  0
    7.4595   -1.9028   17.9043 O   0  0  0  0  0  0  0  0  0  0  0  0
    6.1358    0.1552   17.5947 O   0  0  0  0  0  0  0  0  0  0  0  0
   12.9881    5.0888   22.0477 C   0  0  0  0  0  0  0  0  0  0  0  0
   13.2991    6.1583   21.7946 N   0  0  0  0  0  0  0  0  0  0  0  0
  1  2  1  0
  2  3  1  0
  3  4  1  0
  4  5  2  0
  5  6  1  0
  6  7  2  0
  7  8  1  0
  8  9  2  0
  9 10  1  0
 10 11  1  0
 10 12  1  0
 12 13  2  0
 13 14  1  0
 14 15  2  0
 15 16  1  0
 16 17  2  0
 15 18  1  0
 18 19  1  0
 18 20  2  0
 18 21  2  0
  7 22  1  0
 22 23  3  0
  9  4  1  0
 17 12  1  0
M  END
