CVD-0000625|dock_bobby27042020.69|mol2|37|dock3
     RDKit          3D

 25 27  0  0  0  0  0  0  0  0999 V2000
   10.4822   -5.9580   26.2204 N   0  0  0  0  0  0  0  0  0  0  0  0
    9.0907   -5.3742   25.6859 S   0  0  0  0  0  0  0  0  0  0  0  0
    8.8267   -5.9979   24.4240 O   0  0  0  0  0  0  0  0  0  0  0  0
    8.1358   -5.5210   26.7431 O   0  0  0  0  0  0  0  0  0  0  0  0
    9.2868   -3.6433   25.3884 C   0  0  0  0  0  0  0  0  0  0  0  0
    8.4968   -2.7385   26.0758 C   0  0  0  0  0  0  0  0  0  0  0  0
    8.6586   -1.3885   25.8235 C   0  0  0  0  0  0  0  0  0  0  0  0
    9.5966   -0.9588   24.9007 C   0  0  0  0  0  0  0  0  0  0  0  0
   10.4004   -1.8617   24.2097 C   0  0  0  0  0  0  0  0  0  0  0  0
   10.2277   -3.2207   24.4610 C   0  0  0  0  0  0  0  0  0  0  0  0
   11.4530   -1.3911   23.1984 C   0  0  0  0  0  0  0  0  0  0  0  0
   10.7807   -1.5149   21.8066 C   0  0  0  0  0  0  0  0  0  0  0  0
    9.5038   -0.7237   21.6104 C   0  0  0  0  0  0  0  0  0  0  0  0
    8.9787   -0.1186   22.5389 O   0  0  0  0  0  0  0  0  0  0  0  0
    9.0373   -0.7653   20.3386 N   0  0  0  0  0  0  0  0  0  0  0  0
    7.8979   -0.1747   19.7371 C   0  0  0  0  0  0  0  0  0  0  0  0
    7.3466    0.9612   20.3156 C   0  0  0  0  0  0  0  0  0  0  0  0
    6.2341    1.5513   19.7421 C   0  0  0  0  0  0  0  0  0  0  0  0
    5.7032    0.9885   18.6049 C   0  0  0  0  0  0  0  0  0  0  0  0
    6.2084   -0.1007   18.0257 N   0  0  0  0  0  0  0  0  0  0  0  0
    7.2831   -0.6638   18.5866 C   0  0  0  0  0  0  0  0  0  0  0  0
   11.9596    0.0593   23.4412 C   0  0  0  0  0  0  0  0  0  0  0  0
   13.4489    0.0219   23.3274 C   0  0  0  0  0  0  0  0  0  0  0  0
   13.8636   -1.3689   23.2043 C   0  0  0  0  0  0  0  0  0  0  0  0
   12.7116   -2.2867   23.2411 C   0  0  0  0  0  0  0  0  0  0  0  0
  1  2  1  0
  2  3  2  0
  2  4  2  0
  2  5  1  0
  5  6  2  0
  6  7  1  0
  7  8  2  0
  8  9  1  0
  9 10  2  0
  9 11  1  0
 11 12  1  0
 12 13  1  0
 13 14  2  0
 13 15  1  0
 15 16  1  0
 16 17  2  0
 17 18  1  0
 18 19  2  0
 19 20  1  0
 20 21  2  0
 11 22  1  0
 22 23  1  0
 23 24  1  0
 24 25  1  0
 10  5  1  0
 25 11  1  0
 21 16  1  0
M  END
