CVD-0000792|dock_bobby27042020.26|mol2|14|dock1
     RDKit          3D

 29 32  0  0  0  0  0  0  0  0999 V2000
    4.4339   -5.7866   22.5379 C   0  0  0  0  0  0  0  0  0  0  0  0
    5.6435   -6.1881   21.7344 C   0  0  0  0  0  0  0  0  0  0  0  0
    6.8154   -5.2384   21.8886 C   0  0  0  0  0  0  0  0  0  0  0  0
    7.1031   -4.2964   20.9147 C   0  0  0  0  0  0  0  0  0  0  0  0
    8.1679   -3.4176   21.0398 C   0  0  0  0  0  0  0  0  0  0  0  0
    8.4382   -2.5500   20.0159 O   0  0  0  0  0  0  0  0  0  0  0  0
    7.6953   -1.3132   19.8727 C   0  0  0  0  0  0  0  0  0  0  0  0
    6.1812   -1.5831   19.7536 C   0  0  0  0  0  0  0  0  0  0  0  0
    5.3770   -0.3041   19.5286 C   0  0  0  0  0  0  0  0  0  0  0  0
    5.8975    0.4743   18.3272 C   0  0  0  0  0  0  0  0  0  0  0  0
    7.3850    0.7658   18.4644 C   0  0  0  0  0  0  0  0  0  0  0  0
    8.1845   -0.5197   18.6491 C   0  0  0  0  0  0  0  0  0  0  0  0
    8.9717   -3.4118   22.1991 C   0  0  0  0  0  0  0  0  0  0  0  0
   10.0494   -2.6450   22.7074 N   0  0  0  0  0  0  0  0  0  0  0  0
   10.4419   -3.2379   23.9005 C   0  0  0  0  0  0  0  0  0  0  0  0
    9.6642   -4.2974   24.2092 C   0  0  0  0  0  0  0  0  0  0  0  0
    9.7722   -5.1935   25.4152 C   0  0  0  0  0  0  0  0  0  0  0  0
    8.6374   -5.0658   26.3356 N   0  0  0  0  0  0  0  0  0  0  0  0
    8.5439   -3.6992   26.8362 C   0  0  0  0  0  0  0  0  0  0  0  0
    8.7790   -5.9879   27.4570 C   0  0  0  0  0  0  0  0  0  0  0  0
    8.6982   -4.4083   23.1628 C   0  0  0  0  0  0  0  0  0  0  0  0
    7.6344   -5.2922   23.0020 C   0  0  0  0  0  0  0  0  0  0  0  0
   10.6190   -1.4809   22.1224 C   0  0  0  0  0  0  0  0  0  0  0  0
   10.2693   -1.0998   21.0161 O   0  0  0  0  0  0  0  0  0  0  0  0
   11.6590   -0.6078   22.7515 C   0  0  0  0  0  0  0  0  0  0  0  0
   11.7954   -0.2678   24.0570 C   0  0  0  0  0  0  0  0  0  0  0  0
   12.9564    0.5854   24.2207 C   0  0  0  0  0  0  0  0  0  0  0  0
   13.5264    0.7712   22.9829 C   0  0  0  0  0  0  0  0  0  0  0  0
   12.7301    0.0285   21.9949 C   0  0  0  0  0  0  0  0  0  0  0  0
  1  2  1  0
  2  3  1  0
  3  4  2  0
  4  5  1  0
  5  6  1  0
  6  7  1  0
  7  8  1  0
  8  9  1  0
  9 10  1  0
 10 11  1  0
 11 12  1  0
  5 13  2  0
 13 14  1  0
 14 15  1  0
 15 16  2  0
 16 17  1  0
 17 18  1  0
 18 19  1  0
 18 20  1  0
 16 21  1  0
 21 22  2  0
 14 23  1  0
 23 24  2  0
 23 25  1  0
 25 26  2  0
 26 27  1  0
 27 28  2  0
 28 29  1  0
 22  3  1  0
 29 25  1  0
 12  7  1  0
 21 13  1  0
M  END
