CVD-0000956|dock_bobby27042020.97|mol2|2|dock2
     RDKit          3D

 24 26  0  0  0  0  0  0  0  0999 V2000
    6.7229    1.3570   20.5942 C   0  0  0  0  0  0  0  0  0  0  0  0
    6.1582    0.3560   19.6286 C   0  0  0  0  0  0  0  0  0  0  0  0
    5.4926    0.7116   18.4946 C   0  0  0  0  0  0  0  0  0  0  0  0
    4.9593   -0.6294   17.5991 S   0  0  0  0  0  0  0  0  0  0  0  0
    5.6184   -1.7069   18.7386 C   0  0  0  0  0  0  0  0  0  0  0  0
    6.2263   -1.0626   19.7718 C   0  0  0  0  0  0  0  0  0  0  0  0
    6.9129   -1.7361   20.9461 C   0  0  0  0  0  0  0  0  0  0  0  0
    8.3472   -1.6043   20.8212 N   0  0  0  0  0  0  0  0  0  0  0  0
    9.1133   -1.1194   21.8263 C   0  0  0  0  0  0  0  0  0  0  0  0
    8.6389   -0.6963   22.8769 O   0  0  0  0  0  0  0  0  0  0  0  0
   10.4519   -1.1617   21.5215 N   0  0  0  0  0  0  0  0  0  0  0  0
   11.5812   -0.7591   22.2769 C   0  0  0  0  0  0  0  0  0  0  0  0
   11.5203    0.0819   23.3837 C   0  0  0  0  0  0  0  0  0  0  0  0
   12.6889    0.4109   24.0488 C   0  0  0  0  0  0  0  0  0  0  0  0
   13.8802   -0.1055   23.5937 C   0  0  0  0  0  0  0  0  0  0  0  0
   13.9699   -0.9130   22.5372 N   0  0  0  0  0  0  0  0  0  0  0  0
   12.8364   -1.2246   21.9021 C   0  0  0  0  0  0  0  0  0  0  0  0
    6.4516   -3.1125   21.0925 N   0  0  0  0  0  0  0  0  0  0  0  0
    7.3432   -4.0839   20.4540 C   0  0  0  0  0  0  0  0  0  0  0  0
    6.7265   -5.4647   20.4405 C   0  0  0  0  0  0  0  0  0  0  0  0
    6.3711   -5.9333   21.8355 C   0  0  0  0  0  0  0  0  0  0  0  0
    5.7329   -7.2130   21.8543 O   0  0  0  0  0  0  0  0  0  0  0  0
    5.4963   -4.8719   22.4913 C   0  0  0  0  0  0  0  0  0  0  0  0
    6.1630   -3.5097   22.4648 C   0  0  0  0  0  0  0  0  0  0  0  0
  1  2  1  0
  2  3  2  0
  3  4  1  0
  4  5  1  0
  5  6  2  0
  6  7  1  0
  7  8  1  0
  8  9  1  0
  9 10  2  0
  9 11  1  0
 11 12  1  0
 12 13  2  0
 13 14  1  0
 14 15  2  0
 15 16  1  0
 16 17  2  0
  7 18  1  0
 18 19  1  0
 19 20  1  0
 20 21  1  0
 21 22  1  0
 21 23  1  0
 23 24  1  0
  6  2  1  0
 17 12  1  0
 24 18  1  0
M  END
