CVD-0002184|dock_bobby27042020.64|mol2|20|dock1
     RDKit          3D

 31 34  0  0  0  0  0  0  0  0999 V2000
   13.4083    3.6472   21.6810 F   0  0  0  0  0  0  0  0  0  0  0  0
   12.6270    4.5367   22.3510 C   0  0  0  0  0  0  0  0  0  0  0  0
   13.2437    5.5195   23.0798 C   0  0  0  0  0  0  0  0  0  0  0  0
   12.4609    6.4311   23.7664 C   0  0  0  0  0  0  0  0  0  0  0  0
   11.0767    6.3198   23.6943 C   0  0  0  0  0  0  0  0  0  0  0  0
   10.0796    7.0728   24.2642 N   0  0  0  0  0  0  0  0  0  0  0  0
    8.8680    6.5586   23.8900 C   0  0  0  0  0  0  0  0  0  0  0  0
    9.0423    5.4754   23.0801 C   0  0  0  0  0  0  0  0  0  0  0  0
    7.9770    4.6244   22.4533 C   0  0  0  0  0  0  0  0  0  0  0  0
    7.7181    3.3412   23.2174 C   0  0  0  0  0  0  0  0  0  0  0  0
    7.0736    2.3348   22.3858 N   0  0  0  0  0  0  0  0  0  0  0  0
    7.6880    1.8307   21.3094 C   0  0  0  0  0  0  0  0  0  0  0  0
    8.8591    2.1342   21.1009 O   0  0  0  0  0  0  0  0  0  0  0  0
    6.9482    0.9035   20.3733 C   0  0  0  0  0  0  0  0  0  0  0  0
    5.6656    1.2781   19.9577 C   0  0  0  0  0  0  0  0  0  0  0  0
    4.9227    0.4707   19.1189 C   0  0  0  0  0  0  0  0  0  0  0  0
    5.4503   -0.7091   18.6554 C   0  0  0  0  0  0  0  0  0  0  0  0
    6.7236   -1.1029   19.0239 C   0  0  0  0  0  0  0  0  0  0  0  0
    7.4905   -0.3211   19.8945 C   0  0  0  0  0  0  0  0  0  0  0  0
    8.7937   -0.7150   20.3163 N   0  0  0  0  0  0  0  0  0  0  0  0
    9.4206   -0.5747   21.5363 C   0  0  0  0  0  0  0  0  0  0  0  0
    8.9238   -0.0509   22.5275 O   0  0  0  0  0  0  0  0  0  0  0  0
   10.6937   -1.0990   21.5052 N   0  0  0  0  0  0  0  0  0  0  0  0
   11.6918   -1.1745   22.5103 C   0  0  0  0  0  0  0  0  0  0  0  0
   12.7732   -2.0220   22.3054 C   0  0  0  0  0  0  0  0  0  0  0  0
   13.7636   -2.1180   23.2669 C   0  0  0  0  0  0  0  0  0  0  0  0
   13.6464   -1.3626   24.4099 C   0  0  0  0  0  0  0  0  0  0  0  0
   12.6226   -0.5401   24.6377 N   0  0  0  0  0  0  0  0  0  0  0  0
   11.6705   -0.4539   23.7033 C   0  0  0  0  0  0  0  0  0  0  0  0
   10.4601    5.3035   22.9405 C   0  0  0  0  0  0  0  0  0  0  0  0
   11.2632    4.3933   22.2549 C   0  0  0  0  0  0  0  0  0  0  0  0
  1  2  1  0
  2  3  2  0
  3  4  1  0
  4  5  2  0
  5  6  1  0
  6  7  1  0
  7  8  2  0
  8  9  1  0
  9 10  1  0
 10 11  1  0
 11 12  1  0
 12 13  2  0
 12 14  1  0
 14 15  2  0
 15 16  1  0
 16 17  2  0
 17 18  1  0
 18 19  2  0
 19 20  1  0
 20 21  1  0
 21 22  2  0
 21 23  1  0
 23 24  1  0
 24 25  2  0
 25 26  1  0
 26 27  2  0
 27 28  1  0
 28 29  2  0
  8 30  1  0
 30 31  2  0
 31  2  1  0
 30  5  1  0
 19 14  1  0
 29 24  1  0
M  END
