CVD-0000397|dock_bobby27042020.56|mol2|13|dock1
     RDKit          3D

 29 31  0  0  0  0  0  0  0  0999 V2000
   14.0378    5.9500   22.1476 C   0  0  0  0  0  0  0  0  0  0  0  0
   14.0204    4.4879   22.4073 C   0  0  0  0  0  0  0  0  0  0  0  0
   12.6579    4.1045   22.6185 O   0  0  0  0  0  0  0  0  0  0  0  0
   12.3834    2.7810   22.7137 C   0  0  0  0  0  0  0  0  0  0  0  0
   11.1125    2.3971   22.3237 C   0  0  0  0  0  0  0  0  0  0  0  0
   10.7681    1.0513   22.4296 C   0  0  0  0  0  0  0  0  0  0  0  0
    9.4835    0.5450   22.0974 N   0  0  0  0  0  0  0  0  0  0  0  0
    8.4326    0.1604   22.8827 C   0  0  0  0  0  0  0  0  0  0  0  0
    8.4474   -0.0731   24.2213 C   0  0  0  0  0  0  0  0  0  0  0  0
    6.9255   -0.5396   24.8184 S   0  0  0  0  0  0  0  0  0  0  0  0
    6.2103   -0.4541   23.2786 C   0  0  0  0  0  0  0  0  0  0  0  0
    7.0962   -0.0667   22.3233 C   0  0  0  0  0  0  0  0  0  0  0  0
    6.7230    0.0955   20.8741 C   0  0  0  0  0  0  0  0  0  0  0  0
    5.2915    0.5051   20.5764 C   0  0  0  0  0  0  0  0  0  0  0  0
    5.2124    0.3982   19.0847 C   0  0  0  0  0  0  0  0  0  0  0  0
    6.1543   -0.7599   18.6713 C   0  0  0  0  0  0  0  0  0  0  0  0
    6.9191   -1.1566   19.9673 C   0  0  0  0  0  0  0  0  0  0  0  0
    6.4514   -2.4512   20.6084 C   0  0  0  0  0  0  0  0  0  0  0  0
    5.4120   -3.0137   20.2719 O   0  0  0  0  0  0  0  0  0  0  0  0
    7.2775   -2.9318   21.5793 N   0  0  0  0  0  0  0  0  0  0  0  0
    7.1350   -4.0725   22.3395 C   0  0  0  0  0  0  0  0  0  0  0  0
    6.1760   -4.8494   22.2245 O   0  0  0  0  0  0  0  0  0  0  0  0
    8.2275   -4.2988   23.3127 C   0  0  0  0  0  0  0  0  0  0  0  0
    8.4943   -5.4816   23.7997 C   0  0  0  0  0  0  0  0  0  0  0  0
   11.7553    0.1543   22.8826 C   0  0  0  0  0  0  0  0  0  0  0  0
   13.0128    0.6657   23.2267 C   0  0  0  0  0  0  0  0  0  0  0  0
   13.3195    1.9643   23.1569 N   0  0  0  0  0  0  0  0  0  0  0  0
   11.5151   -1.2604   23.0081 C   0  0  0  0  0  0  0  0  0  0  0  0
   11.3125   -2.3826   23.0752 N   0  0  0  0  0  0  0  0  0  0  0  0
  1  2  1  0
  2  3  1  0
  3  4  1  0
  4  5  2  0
  5  6  1  0
  6  7  1  0
  7  8  1  0
  8  9  2  0
  9 10  1  0
 10 11  1  0
 11 12  2  0
 13 12  1  0
 13 14  1  0
 14 15  1  0
 15 16  1  0
 16 17  1  0
 17 18  1  0
 18 19  2  0
 18 20  1  0
 20 21  1  0
 21 22  2  0
 21 23  1  0
 23 24  2  0
  6 25  2  0
 25 26  1  0
 26 27  2  0
 25 28  1  0
 28 29  3  0
 27  4  1  0
 12  8  1  0
 17 13  1  0
M  END
