CVD-0001600|dock_bobby27042020.52|mol2|11|dock3
     RDKit          3D

 17 18  0  0  0  0  0  0  0  0999 V2000
    5.7774   -3.7314   20.6036 O   0  0  0  0  0  0  0  0  0  0  0  0
    6.6771   -2.9189   20.7495 C   0  0  0  0  0  0  0  0  0  0  0  0
    6.8302   -1.9453   19.7952 N   0  0  0  0  0  0  0  0  0  0  0  0
    6.1145   -2.0514   18.5219 C   0  0  0  0  0  0  0  0  0  0  0  0
    5.2835   -0.8134   18.2981 C   0  0  0  0  0  0  0  0  0  0  0  0
    6.1498    0.3636   18.3351 N   0  0  0  0  0  0  0  0  0  0  0  0
    6.8137    0.5014   19.6363 C   0  0  0  0  0  0  0  0  0  0  0  0
    7.6508   -0.7339   19.8891 C   0  0  0  0  0  0  0  0  0  0  0  0
    5.7850    1.4098   17.6118 C   0  0  0  0  0  0  0  0  0  0  0  0
    5.4389    2.3250   17.0141 N   0  0  0  0  0  0  0  0  0  0  0  0
    7.4489   -3.0640   21.8736 N   0  0  0  0  0  0  0  0  0  0  0  0
    6.8527   -3.9134   22.9070 C   0  0  0  0  0  0  0  0  0  0  0  0
    7.4830   -5.2854   23.0280 C   0  0  0  0  0  0  0  0  0  0  0  0
    8.7082   -5.2405   23.9046 C   0  0  0  0  0  0  0  0  0  0  0  0
    9.7853   -4.4023   23.4935 O   0  0  0  0  0  0  0  0  0  0  0  0
    9.5169   -3.0086   23.3502 C   0  0  0  0  0  0  0  0  0  0  0  0
    8.8276   -2.6059   22.0679 C   0  0  0  0  0  0  0  0  0  0  0  0
  1  2  2  0
  2  3  1  0
  3  4  1  0
  4  5  1  0
  5  6  1  0
  6  7  1  0
  7  8  1  0
  6  9  1  0
  9 10  3  0
  2 11  1  0
 11 12  1  0
 12 13  1  0
 13 14  1  0
 14 15  1  0
 15 16  1  0
 16 17  1  0
  8  3  1  0
 17 11  1  0
M  END
