CVD-0002117|dock_bobby27042020.64|mol2|33|dock3
     RDKit          3D

 30 34  0  0  0  0  0  0  0  0999 V2000
    8.7254   -0.1013   21.2524 C   0  0  0  0  0  0  0  0  0  0  0  0
    9.9349   -0.8881   21.0603 N   0  0  0  0  0  0  0  0  0  0  0  0
   10.8501   -1.0722   22.0185 C   0  0  0  0  0  0  0  0  0  0  0  0
   10.7666   -0.5689   23.2367 N   0  0  0  0  0  0  0  0  0  0  0  0
   11.9231   -1.0168   23.8696 C   0  0  0  0  0  0  0  0  0  0  0  0
   12.3825   -0.8043   25.1688 C   0  0  0  0  0  0  0  0  0  0  0  0
   13.5875   -1.3741   25.5521 C   0  0  0  0  0  0  0  0  0  0  0  0
   14.3278   -2.1398   24.6723 C   0  0  0  0  0  0  0  0  0  0  0  0
   13.8860   -2.3611   23.3776 C   0  0  0  0  0  0  0  0  0  0  0  0
   12.6787   -1.7907   22.9924 C   0  0  0  0  0  0  0  0  0  0  0  0
   11.9661   -1.8100   21.8097 N   0  0  0  0  0  0  0  0  0  0  0  0
    7.7001   -0.3062   20.1648 C   0  0  0  0  0  0  0  0  0  0  0  0
    7.4747    0.6676   19.1966 C   0  0  0  0  0  0  0  0  0  0  0  0
    6.5352    0.4740   18.1991 C   0  0  0  0  0  0  0  0  0  0  0  0
    5.8094   -0.6965   18.1566 C   0  0  0  0  0  0  0  0  0  0  0  0
    6.0162   -1.6816   19.1083 C   0  0  0  0  0  0  0  0  0  0  0  0
    6.9603   -1.4887   20.1117 C   0  0  0  0  0  0  0  0  0  0  0  0
    7.2468   -2.3952   21.1026 O   0  0  0  0  0  0  0  0  0  0  0  0
    6.2125   -3.2726   21.5552 C   0  0  0  0  0  0  0  0  0  0  0  0
    6.7822   -4.1672   22.6573 C   0  0  0  0  0  0  0  0  0  0  0  0
    8.0316   -4.9423   22.1499 C   0  0  0  0  0  0  0  0  0  0  0  0
    7.6118   -6.3641   21.9631 C   0  0  0  0  0  0  0  0  0  0  0  0
    6.2594   -6.5140   22.4827 C   0  0  0  0  0  0  0  0  0  0  0  0
    5.7418   -5.2475   23.0295 C   0  0  0  0  0  0  0  0  0  0  0  0
    7.0596   -3.2528   23.8195 C   0  0  0  0  0  0  0  0  0  0  0  0
    8.2443   -2.5403   23.9172 C   0  0  0  0  0  0  0  0  0  0  0  0
    8.4296   -1.7153   25.0132 C   0  0  0  0  0  0  0  0  0  0  0  0
    7.4425   -1.6224   25.9699 C   0  0  0  0  0  0  0  0  0  0  0  0
    6.2976   -2.3648   25.7915 C   0  0  0  0  0  0  0  0  0  0  0  0
    6.0932   -3.1701   24.7409 N   0  0  0  0  0  0  0  0  0  0  0  0
  1  2  1  0
  2  3  1  0
  3  4  2  0
  4  5  1  0
  5  6  2  0
  6  7  1  0
  7  8  2  0
  8  9  1  0
  9 10  2  0
 10 11  1  0
  1 12  1  0
 12 13  2  0
 13 14  1  0
 14 15  2  0
 15 16  1  0
 16 17  2  0
 17 18  1  0
 18 19  1  0
 19 20  1  0
 20 21  1  0
 21 22  1  0
 22 23  1  0
 23 24  1  0
 20 25  1  0
 25 26  2  0
 26 27  1  0
 27 28  2  0
 28 29  1  0
 29 30  2  0
 11  3  1  0
 17 12  1  0
 24 20  1  0
 30 25  1  0
 10  5  1  0
M  END
