CVD-0000451|dock_bobby27042020.56|mol2|5|dock2
     RDKit          3D

 33 37  0  0  0  0  0  0  0  0999 V2000
    5.3467   -2.2585   25.4948 C   0  0  0  0  0  0  0  0  0  0  0  0
    6.7945   -2.7027   25.6419 C   0  0  0  0  0  0  0  0  0  0  0  0
    7.5723   -2.2830   24.4085 C   0  0  0  0  0  0  0  0  0  0  0  0
    7.1590   -3.0824   23.2516 N   0  0  0  0  0  0  0  0  0  0  0  0
    7.7782   -2.6560   21.9874 C   0  0  0  0  0  0  0  0  0  0  0  0
    7.5021   -1.2146   21.6131 C   0  0  0  0  0  0  0  0  0  0  0  0
    6.3506   -0.8686   20.9556 C   0  0  0  0  0  0  0  0  0  0  0  0
    6.0833    0.4460   20.6108 C   0  0  0  0  0  0  0  0  0  0  0  0
    6.9629    1.4403   20.9209 C   0  0  0  0  0  0  0  0  0  0  0  0
    8.1676    1.1422   21.6019 C   0  0  0  0  0  0  0  0  0  0  0  0
    9.1179    2.1222   21.9599 C   0  0  0  0  0  0  0  0  0  0  0  0
   10.2709    1.7948   22.6132 C   0  0  0  0  0  0  0  0  0  0  0  0
   11.2193    2.9122   23.0105 C   0  0  0  0  0  0  0  0  0  0  0  0
   12.6914    2.6883   22.8681 C   0  0  0  0  0  0  0  0  0  0  0  0
   11.9759    3.6099   21.9169 C   0  0  0  0  0  0  0  0  0  0  0  0
   11.9317    5.0665   22.1054 N   0  0  0  0  0  0  0  0  0  0  0  0
   10.4740    0.3950   22.8768 C   0  0  0  0  0  0  0  0  0  0  0  0
    9.5980   -0.5409   22.5973 N   0  0  0  0  0  0  0  0  0  0  0  0
    8.4476   -0.1973   21.9498 C   0  0  0  0  0  0  0  0  0  0  0  0
   11.6302   -0.0934   23.4580 N   0  0  0  0  0  0  0  0  0  0  0  0
   11.6163   -0.2398   24.9092 C   0  0  0  0  0  0  0  0  0  0  0  0
   12.9190   -0.7503   25.4560 C   0  0  0  0  0  0  0  0  0  0  0  0
   13.3361   -1.9782   24.8191 N   0  0  0  0  0  0  0  0  0  0  0  0
   14.5610   -2.4812   25.4384 C   0  0  0  0  0  0  0  0  0  0  0  0
   13.5264   -1.6810   23.4128 C   0  0  0  0  0  0  0  0  0  0  0  0
   12.2373   -1.2348   22.7874 C   0  0  0  0  0  0  0  0  0  0  0  0
    7.4200   -4.4925   23.5288 C   0  0  0  0  0  0  0  0  0  0  0  0
    6.6477   -4.9520   24.7522 C   0  0  0  0  0  0  0  0  0  0  0  0
    6.9962   -4.1277   25.9136 N   0  0  0  0  0  0  0  0  0  0  0  0
    7.4329   -4.6292   27.1039 C   0  0  0  0  0  0  0  0  0  0  0  0
    7.7112   -3.9492   28.0832 O   0  0  0  0  0  0  0  0  0  0  0  0
    7.5771   -6.1342   27.2270 C   0  0  0  0  0  0  0  0  0  0  0  0
    8.0856   -6.6036   28.8544 Cl  0  0  0  0  0  0  0  0  0  0  0  0
  2  1  1  0
  2  3  1  0
  3  4  1  0
  4  5  1  0
  5  6  1  0
  6  7  2  0
  7  8  1  0
  8  9  2  0
  9 10  1  0
 10 11  2  0
 11 12  1  0
 13 12  1  0
 13 14  1  0
 14 15  1  0
 15 16  1  0
 12 17  2  0
 17 18  1  0
 18 19  2  0
 17 20  1  0
 20 21  1  0
 21 22  1  0
 22 23  1  0
 23 24  1  0
 23 25  1  0
 25 26  1  0
  4 27  1  0
 27 28  1  0
 28 29  1  0
 29 30  1  0
 30 31  2  0
 30 32  1  0
 32 33  1  0
 29  2  1  0
 19  6  1  0
 26 20  1  0
 19 10  1  0
 15 13  1  0
M  END
