CVD-0001021|dock_bobby27042020.54|mol2|5|dock3
     RDKit          3D

 24 26  0  0  0  0  0  0  0  0999 V2000
   14.3710    6.6555   22.0789 C   0  0  0  0  0  0  0  0  0  0  0  0
   13.0822    6.3243   22.5925 O   0  0  0  0  0  0  0  0  0  0  0  0
   12.6450    5.0232   22.5780 C   0  0  0  0  0  0  0  0  0  0  0  0
   13.5186    3.9505   22.6682 C   0  0  0  0  0  0  0  0  0  0  0  0
   13.0322    2.6545   22.6495 C   0  0  0  0  0  0  0  0  0  0  0  0
   11.6654    2.4039   22.5393 C   0  0  0  0  0  0  0  0  0  0  0  0
   11.0757    1.1124   22.5108 N   0  0  0  0  0  0  0  0  0  0  0  0
   11.3753   -0.0239   23.2251 C   0  0  0  0  0  0  0  0  0  0  0  0
   12.2539   -0.0450   24.0768 O   0  0  0  0  0  0  0  0  0  0  0  0
   10.6771   -1.1809   22.9867 N   0  0  0  0  0  0  0  0  0  0  0  0
    9.3655   -1.2694   22.3373 C   0  0  0  0  0  0  0  0  0  0  0  0
    8.3913   -2.0477   23.1987 C   0  0  0  0  0  0  0  0  0  0  0  0
    8.9385   -3.4148   23.6036 C   0  0  0  0  0  0  0  0  0  0  0  0
    8.0069   -4.1668   24.5624 C   0  0  0  0  0  0  0  0  0  0  0  0
    6.7043   -4.6133   23.9443 C   0  0  0  0  0  0  0  0  0  0  0  0
    6.6392   -5.7742   23.1892 C   0  0  0  0  0  0  0  0  0  0  0  0
    5.4434   -6.1857   22.6247 C   0  0  0  0  0  0  0  0  0  0  0  0
    4.2984   -5.4414   22.8095 C   0  0  0  0  0  0  0  0  0  0  0  0
    4.3489   -4.2859   23.5591 C   0  0  0  0  0  0  0  0  0  0  0  0
    5.5449   -3.8747   24.1235 C   0  0  0  0  0  0  0  0  0  0  0  0
   10.3385   -3.2606   24.1836 C   0  0  0  0  0  0  0  0  0  0  0  0
   11.2626   -2.4862   23.2700 C   0  0  0  0  0  0  0  0  0  0  0  0
   10.8056    3.4918   22.4503 C   0  0  0  0  0  0  0  0  0  0  0  0
   11.2870    4.7880   22.4691 C   0  0  0  0  0  0  0  0  0  0  0  0
  1  2  1  0
  2  3  1  0
  3  4  2  0
  4  5  1  0
  5  6  2  0
  6  7  1  0
  7  8  1  0
  8  9  2  0
  8 10  1  0
 10 11  1  0
 11 12  1  0
 12 13  1  0
 13 14  1  0
 14 15  1  0
 15 16  2  0
 16 17  1  0
 17 18  2  0
 18 19  1  0
 19 20  2  0
 13 21  1  0
 21 22  1  0
  6 23  1  0
 23 24  2  0
 24  3  1  0
 22 10  1  0
 20 15  1  0
M  END
