CVD-0002312|dock_bobby27042020.77|mol2|40|dock3
     RDKit          3D

 29 32  0  0  0  0  0  0  0  0999 V2000
   13.3772   -0.9069   22.6176 C   0  0  0  0  0  0  0  0  0  0  0  0
   12.2545   -0.4718   23.5142 C   0  0  0  0  0  0  0  0  0  0  0  0
   12.4137    0.4536   24.3022 O   0  0  0  0  0  0  0  0  0  0  0  0
   11.0496   -1.0963   23.4428 N   0  0  0  0  0  0  0  0  0  0  0  0
   10.7024   -2.2109   22.5558 C   0  0  0  0  0  0  0  0  0  0  0  0
    9.3758   -1.9640   21.8857 C   0  0  0  0  0  0  0  0  0  0  0  0
    8.3177   -1.7417   22.8849 N   0  0  0  0  0  0  0  0  0  0  0  0
    8.6903   -0.5684   23.6767 C   0  0  0  0  0  0  0  0  0  0  0  0
    9.9922   -0.7976   24.4066 C   0  0  0  0  0  0  0  0  0  0  0  0
    7.0195   -1.5483   22.2451 C   0  0  0  0  0  0  0  0  0  0  0  0
    6.6103   -2.8093   21.4702 C   0  0  0  0  0  0  0  0  0  0  0  0
    6.3032   -2.7433   20.2956 O   0  0  0  0  0  0  0  0  0  0  0  0
    6.6057   -3.9812   22.1356 N   0  0  0  0  0  0  0  0  0  0  0  0
    6.3995   -5.2704   21.4720 C   0  0  0  0  0  0  0  0  0  0  0  0
    5.2621   -6.0292   22.1299 C   0  0  0  0  0  0  0  0  0  0  0  0
    5.5442   -6.2321   23.5539 N   0  0  0  0  0  0  0  0  0  0  0  0
    4.4685   -6.9983   24.1849 C   0  0  0  0  0  0  0  0  0  0  0  0
    3.1251   -6.3727   23.9584 C   0  0  0  0  0  0  0  0  0  0  0  0
    2.4994   -5.4325   24.7486 C   0  0  0  0  0  0  0  0  0  0  0  0
    1.2368   -5.0759   24.2162 C   0  0  0  0  0  0  0  0  0  0  0  0
    0.9342   -5.7225   23.0783 C   0  0  0  0  0  0  0  0  0  0  0  0
    2.1761   -6.7937   22.6071 S   0  0  0  0  0  0  0  0  0  0  0  0
    5.6926   -4.9309   24.2005 C   0  0  0  0  0  0  0  0  0  0  0  0
    6.8315   -4.1462   23.5749 C   0  0  0  0  0  0  0  0  0  0  0  0
    7.0178   -0.3224   21.3677 C   0  0  0  0  0  0  0  0  0  0  0  0
    7.4715   -0.2902   20.0172 C   0  0  0  0  0  0  0  0  0  0  0  0
    7.3669    0.9320   19.4240 C   0  0  0  0  0  0  0  0  0  0  0  0
    6.7101    2.0532   20.5181 S   0  0  0  0  0  0  0  0  0  0  0  0
    6.5705    0.9036   21.7627 C   0  0  0  0  0  0  0  0  0  0  0  0
  1  2  1  0
  2  3  2  0
  2  4  1  0
  4  5  1  0
  5  6  1  0
  6  7  1  0
  7  8  1  0
  8  9  1  0
  7 10  1  0
 10 11  1  0
 11 12  2  0
 11 13  1  0
 13 14  1  0
 14 15  1  0
 15 16  1  0
 16 17  1  0
 17 18  1  0
 18 19  2  0
 19 20  1  0
 20 21  2  0
 21 22  1  0
 16 23  1  0
 23 24  1  0
 10 25  1  0
 25 26  1  0
 26 27  2  0
 27 28  1  0
 28 29  1  0
  9  4  1  0
 24 13  1  0
 29 25  2  0
 22 18  1  0
M  END
