CVD-0003704|dock_bobby27042020.59|mol2|3|dock1
     RDKit          3D

 24 25  0  0  0  0  0  0  0  0999 V2000
   10.6976    6.2994   23.0165 N   0  0  0  0  0  0  0  0  0  0  0  0
   11.8895    6.0685   23.5439 C   0  0  0  0  0  0  0  0  0  0  0  0
   12.2603    6.5857   24.6016 O   0  0  0  0  0  0  0  0  0  0  0  0
   12.7890    5.1285   22.7802 C   0  0  0  0  0  0  0  0  0  0  0  0
   12.5939    3.6638   23.1453 C   0  0  0  0  0  0  0  0  0  0  0  0
   11.3346    3.0604   22.5385 C   0  0  0  0  0  0  0  0  0  0  0  0
   11.0426    1.6369   22.9828 C   0  0  0  0  0  0  0  0  0  0  0  0
   12.3933    0.5486   22.5048 Cl  0  0  0  0  0  0  0  0  0  0  0  0
    9.7670    1.1038   22.3129 C   0  0  0  0  0  0  0  0  0  0  0  0
    9.3429    1.6540   21.3147 O   0  0  0  0  0  0  0  0  0  0  0  0
    9.1457    0.0378   22.8516 N   0  0  0  0  0  0  0  0  0  0  0  0
    7.8237   -0.4158   22.4140 C   0  0  0  0  0  0  0  0  0  0  0  0
    7.8669   -1.8834   22.0307 C   0  0  0  0  0  0  0  0  0  0  0  0
    8.3298   -2.6902   23.1637 N   0  0  0  0  0  0  0  0  0  0  0  0
    8.3356   -4.1172   22.8103 C   0  0  0  0  0  0  0  0  0  0  0  0
    6.9527   -4.7154   22.7078 C   0  0  0  0  0  0  0  0  0  0  0  0
    6.6819   -5.7205   21.7923 C   0  0  0  0  0  0  0  0  0  0  0  0
    5.4149   -6.2722   21.6982 C   0  0  0  0  0  0  0  0  0  0  0  0
    4.3963   -5.8250   22.5228 C   0  0  0  0  0  0  0  0  0  0  0  0
    4.6865   -4.8333   23.4193 C   0  0  0  0  0  0  0  0  0  0  0  0
    3.6958   -4.3840   24.2363 F   0  0  0  0  0  0  0  0  0  0  0  0
    5.9319   -4.2668   23.5361 C   0  0  0  0  0  0  0  0  0  0  0  0
    9.6701   -2.2522   23.5447 C   0  0  0  0  0  0  0  0  0  0  0  0
    9.6635   -0.7885   23.9466 C   0  0  0  0  0  0  0  0  0  0  0  0
  1  2  1  0
  2  3  2  0
  2  4  1  0
  4  5  1  0
  5  6  1  0
  6  7  1  0
  7  8  1  0
  7  9  1  0
  9 10  2  0
  9 11  1  0
 11 12  1  0
 12 13  1  0
 13 14  1  0
 14 15  1  0
 15 16  1  0
 16 17  2  0
 17 18  1  0
 18 19  2  0
 19 20  1  0
 20 21  1  0
 20 22  2  0
 14 23  1  0
 23 24  1  0
 24 11  1  0
 22 16  1  0
M  END
