CVD-0001427|dock_bobby27042020.95|mol2|21|dock1
     RDKit          3D

 25 27  0  0  0  0  0  0  0  0999 V2000
    9.8968   -5.9304   27.1633 C   0  0  0  0  0  0  0  0  0  0  0  0
    8.9731   -4.7848   26.8700 C   0  0  0  0  0  0  0  0  0  0  0  0
    8.0213   -4.5157   27.5962 O   0  0  0  0  0  0  0  0  0  0  0  0
    9.2568   -4.0652   25.7826 N   0  0  0  0  0  0  0  0  0  0  0  0
    8.4511   -2.9248   25.4032 C   0  0  0  0  0  0  0  0  0  0  0  0
    8.8389   -2.3864   24.0670 C   0  0  0  0  0  0  0  0  0  0  0  0
    8.6941   -2.9014   22.8153 C   0  0  0  0  0  0  0  0  0  0  0  0
    9.2307   -1.9923   21.9089 C   0  0  0  0  0  0  0  0  0  0  0  0
    9.7173   -0.8766   22.6279 C   0  0  0  0  0  0  0  0  0  0  0  0
    9.4562   -1.1704   23.9450 N   0  0  0  0  0  0  0  0  0  0  0  0
   10.3912    0.3966   22.2662 C   0  0  0  0  0  0  0  0  0  0  0  0
    9.7150    1.1325   21.5563 O   0  0  0  0  0  0  0  0  0  0  0  0
   11.6561    0.7407   22.6831 N   0  0  0  0  0  0  0  0  0  0  0  0
   12.5720   -0.2337   23.2423 C   0  0  0  0  0  0  0  0  0  0  0  0
   12.9173   -1.3624   22.5044 C   0  0  0  0  0  0  0  0  0  0  0  0
   13.7913   -2.3025   23.0245 C   0  0  0  0  0  0  0  0  0  0  0  0
   14.3360   -2.1313   24.2775 C   0  0  0  0  0  0  0  0  0  0  0  0
   14.0013   -1.0202   25.0187 C   0  0  0  0  0  0  0  0  0  0  0  0
   13.1207   -0.0791   24.5122 C   0  0  0  0  0  0  0  0  0  0  0  0
   12.1703    2.0896   22.6302 C   0  0  0  0  0  0  0  0  0  0  0  0
   11.3200    3.1868   22.6260 C   0  0  0  0  0  0  0  0  0  0  0  0
   11.8584    4.4608   22.5851 C   0  0  0  0  0  0  0  0  0  0  0  0
   13.2273    4.5954   22.5522 C   0  0  0  0  0  0  0  0  0  0  0  0
   14.0644    3.5574   22.5593 N   0  0  0  0  0  0  0  0  0  0  0  0
   13.5340    2.3311   22.5995 C   0  0  0  0  0  0  0  0  0  0  0  0
  1  2  1  0
  2  3  2  0
  2  4  1  0
  4  5  1  0
  5  6  1  0
  6  7  2  0
  7  8  1  0
  8  9  2  0
  9 10  1  0
  9 11  1  0
 11 12  2  0
 11 13  1  0
 13 14  1  0
 14 15  2  0
 15 16  1  0
 16 17  2  0
 17 18  1  0
 18 19  2  0
 13 20  1  0
 20 21  2  0
 21 22  1  0
 22 23  2  0
 23 24  1  0
 24 25  2  0
 10  6  1  0
 19 14  1  0
 25 20  1  0
M  END
