CVD-0001740|dock_bobby27042020.37|mol2|18|dock3
     RDKit          3D

 25 27  0  0  0  0  0  0  0  0999 V2000
    9.4180    2.1253   21.5797 O   0  0  0  0  0  0  0  0  0  0  0  0
   10.0974    1.3822   22.2748 C   0  0  0  0  0  0  0  0  0  0  0  0
   11.2681    1.8168   22.8552 N   0  0  0  0  0  0  0  0  0  0  0  0
   11.9101    3.0828   22.8025 C   0  0  0  0  0  0  0  0  0  0  0  0
   11.1054    4.2150   22.8349 C   0  0  0  0  0  0  0  0  0  0  0  0
   11.6787    5.4733   22.7875 C   0  0  0  0  0  0  0  0  0  0  0  0
   13.0477    5.5694   22.7086 C   0  0  0  0  0  0  0  0  0  0  0  0
   13.8501    4.5062   22.6750 N   0  0  0  0  0  0  0  0  0  0  0  0
   13.2867    3.2947   22.7200 C   0  0  0  0  0  0  0  0  0  0  0  0
    9.6574    0.0614   22.4580 N   0  0  0  0  0  0  0  0  0  0  0  0
   10.4347   -0.9220   23.2158 C   0  0  0  0  0  0  0  0  0  0  0  0
   11.8305   -0.9747   22.8253 N   0  0  0  0  0  0  0  0  0  0  0  0
   12.6214   -1.6387   23.8639 C   0  0  0  0  0  0  0  0  0  0  0  0
   14.0715   -1.7598   23.4523 C   0  0  0  0  0  0  0  0  0  0  0  0
   14.2131   -2.4866   22.1820 N   0  0  0  0  0  0  0  0  0  0  0  0
   13.3888   -1.8494   21.1419 C   0  0  0  0  0  0  0  0  0  0  0  0
   11.9527   -1.7261   21.5788 C   0  0  0  0  0  0  0  0  0  0  0  0
    8.3936   -0.4055   21.9395 C   0  0  0  0  0  0  0  0  0  0  0  0
    7.5370   -1.1709   22.7266 C   0  0  0  0  0  0  0  0  0  0  0  0
    6.3263   -1.6255   22.2309 C   0  0  0  0  0  0  0  0  0  0  0  0
    5.9474   -1.3316   20.9342 C   0  0  0  0  0  0  0  0  0  0  0  0
    6.7892   -0.5709   20.1332 C   0  0  0  0  0  0  0  0  0  0  0  0
    8.0025   -0.1063   20.6359 C   0  0  0  0  0  0  0  0  0  0  0  0
    6.4106   -0.2571   18.7775 C   0  0  0  0  0  0  0  0  0  0  0  0
    6.0985    0.0206   17.7143 N   0  0  0  0  0  0  0  0  0  0  0  0
  1  2  2  0
  2  3  1  0
  3  4  1  0
  4  5  2  0
  5  6  1  0
  6  7  2  0
  7  8  1  0
  8  9  2  0
  2 10  1  0
 10 11  1  0
 11 12  1  0
 12 13  1  0
 13 14  1  0
 14 15  1  0
 15 16  1  0
 16 17  1  0
 10 18  1  0
 18 19  2  0
 19 20  1  0
 20 21  2  0
 21 22  1  0
 22 23  2  0
 22 24  1  0
 24 25  3  0
  9  4  1  0
 17 12  1  0
 23 18  1  0
M  END
