CVD-0001357|dock_bobby27042020.24|mol2|13|dock3
     RDKit          3D

 41 45  0  0  0  0  0  0  0  0999 V2000
   14.5118    5.9698   22.0592 C   0  0  0  0  0  0  0  0  0  0  0  0
   13.8246    4.9340   22.8004 O   0  0  0  0  0  0  0  0  0  0  0  0
   12.8462    4.3078   22.1522 C   0  0  0  0  0  0  0  0  0  0  0  0
   12.6259    4.4427   20.9765 O   0  0  0  0  0  0  0  0  0  0  0  0
   12.0512    3.4103   23.0788 C   0  0  0  0  0  0  0  0  0  0  0  0
   12.7884    2.1497   23.4058 C   0  0  0  0  0  0  0  0  0  0  0  0
   11.9786    1.1939   24.2667 C   0  0  0  0  0  0  0  0  0  0  0  0
   10.6793    0.9500   23.6599 N   0  0  0  0  0  0  0  0  0  0  0  0
    9.8982    2.1502   23.3859 C   0  0  0  0  0  0  0  0  0  0  0  0
   10.6968    3.0768   22.4734 C   0  0  0  0  0  0  0  0  0  0  0  0
   10.0422   -0.5467   23.5543 S   0  0  0  0  0  0  0  0  0  0  0  0
    9.1594   -0.6911   24.6700 O   0  0  0  0  0  0  0  0  0  0  0  0
   11.1428   -1.4456   23.3956 O   0  0  0  0  0  0  0  0  0  0  0  0
    9.0772   -0.6000   22.0840 C   0  0  0  0  0  0  0  0  0  0  0  0
    9.7035   -0.7092   20.8535 C   0  0  0  0  0  0  0  0  0  0  0  0
    8.9361   -0.7450   19.7027 C   0  0  0  0  0  0  0  0  0  0  0  0
    7.5530   -0.6715   19.7597 C   0  0  0  0  0  0  0  0  0  0  0  0
    6.7270   -0.7152   18.5012 C   0  0  0  0  0  0  0  0  0  0  0  0
    5.5744   -2.1257   18.5203 S   0  0  0  0  0  0  0  0  0  0  0  0
    6.2586   -3.0609   19.8061 C   0  0  0  0  0  0  0  0  0  0  0  0
    7.4912   -3.3023   20.0859 N   0  0  0  0  0  0  0  0  0  0  0  0
    7.4735   -4.1090   21.2226 N   0  0  0  0  0  0  0  0  0  0  0  0
    6.2419   -4.2905   21.5303 C   0  0  0  0  0  0  0  0  0  0  0  0
    5.3915   -3.6514   20.6758 O   0  0  0  0  0  0  0  0  0  0  0  0
    5.6356   -5.0661   22.6581 C   0  0  0  0  0  0  0  0  0  0  0  0
    4.3028   -4.5179   23.0618 C   0  0  0  0  0  0  0  0  0  0  0  0
    3.6276   -5.3376   24.1491 C   0  0  0  0  0  0  0  0  0  0  0  0
    3.5705   -6.7379   23.7595 N   0  0  0  0  0  0  0  0  0  0  0  0
    4.8588   -7.3311   23.4223 C   0  0  0  0  0  0  0  0  0  0  0  0
    5.5018   -6.5353   22.2900 C   0  0  0  0  0  0  0  0  0  0  0  0
    2.2227   -7.6346   23.9532 S   0  0  0  0  0  0  0  0  0  0  0  0
    1.4279   -6.9639   24.9347 O   0  0  0  0  0  0  0  0  0  0  0  0
    2.6587   -8.9765   24.1858 O   0  0  0  0  0  0  0  0  0  0  0  0
    1.3467   -7.6018   22.4277 C   0  0  0  0  0  0  0  0  0  0  0  0
    1.6221   -8.5541   21.4599 C   0  0  0  0  0  0  0  0  0  0  0  0
    0.9239   -8.5228   20.2643 C   0  0  0  0  0  0  0  0  0  0  0  0
   -0.0341   -7.5569   20.0407 C   0  0  0  0  0  0  0  0  0  0  0  0
   -0.3033   -6.6144   21.0100 C   0  0  0  0  0  0  0  0  0  0  0  0
    0.3842   -6.6288   22.2122 C   0  0  0  0  0  0  0  0  0  0  0  0
    6.9469   -0.5617   21.0016 C   0  0  0  0  0  0  0  0  0  0  0  0
    7.6966   -0.5242   22.1639 C   0  0  0  0  0  0  0  0  0  0  0  0
  1  2  1  0
  2  3  1  0
  3  4  2  0
  3  5  1  0
  5  6  1  0
  6  7  1  0
  7  8  1  0
  8  9  1  0
  9 10  1  0
  8 11  1  0
 11 12  2  0
 11 13  2  0
 11 14  1  0
 14 15  2  0
 15 16  1  0
 16 17  2  0
 17 18  1  0
 18 19  1  0
 19 20  1  0
 20 21  2  0
 21 22  1  0
 22 23  2  0
 23 24  1  0
 23 25  1  0
 25 26  1  0
 26 27  1  0
 27 28  1  0
 28 29  1  0
 29 30  1  0
 28 31  1  0
 31 32  2  0
 31 33  2  0
 31 34  1  0
 34 35  2  0
 35 36  1  0
 36 37  2  0
 37 38  1  0
 38 39  2  0
 17 40  1  0
 40 41  2  0
 10  5  1  0
 41 14  1  0
 24 20  1  0
 30 25  1  0
 39 34  1  0
M  END
