CVD-0000250|dock_bobby27042020.71|mol2|3|dock2
     RDKit          3D

 26 28  0  0  0  0  0  0  0  0999 V2000
    5.6286    1.3911   17.2536 C   0  0  0  0  0  0  0  0  0  0  0  0
    5.1945    1.3478   18.6949 C   0  0  0  0  0  0  0  0  0  0  0  0
    4.0753    2.0737   19.0982 C   0  0  0  0  0  0  0  0  0  0  0  0
    3.6457    2.0629   20.4132 C   0  0  0  0  0  0  0  0  0  0  0  0
    4.3345    1.3218   21.3470 C   0  0  0  0  0  0  0  0  0  0  0  0
    5.4489    0.5962   20.9621 C   0  0  0  0  0  0  0  0  0  0  0  0
    5.8974    0.5952   19.6432 C   0  0  0  0  0  0  0  0  0  0  0  0
    7.1172   -0.2196   19.2889 C   0  0  0  0  0  0  0  0  0  0  0  0
    7.8282   -0.7270   20.4465 N   0  0  0  0  0  0  0  0  0  0  0  0
    7.6411   -2.0027   20.9355 C   0  0  0  0  0  0  0  0  0  0  0  0
    6.4039   -2.6321   20.7881 C   0  0  0  0  0  0  0  0  0  0  0  0
    6.1960   -3.8839   21.3369 C   0  0  0  0  0  0  0  0  0  0  0  0
    7.2034   -4.5182   22.0241 C   0  0  0  0  0  0  0  0  0  0  0  0
    8.4480   -3.9284   22.1520 C   0  0  0  0  0  0  0  0  0  0  0  0
    8.6928   -2.6719   21.5940 C   0  0  0  0  0  0  0  0  0  0  0  0
    9.9795   -2.0725   21.6743 N   0  0  0  0  0  0  0  0  0  0  0  0
   11.0203   -2.3397   22.5021 C   0  0  0  0  0  0  0  0  0  0  0  0
   11.0424   -3.1948   23.3830 O   0  0  0  0  0  0  0  0  0  0  0  0
   12.2574   -1.4753   22.2954 C   0  0  0  0  0  0  0  0  0  0  0  0
   12.9797   -1.9490   21.1688 O   0  0  0  0  0  0  0  0  0  0  0  0
   13.1223   -1.5112   23.5405 C   0  0  0  0  0  0  0  0  0  0  0  0
   13.0133   -0.5424   24.5262 C   0  0  0  0  0  0  0  0  0  0  0  0
   13.8229   -0.6074   25.6469 C   0  0  0  0  0  0  0  0  0  0  0  0
   14.7223   -1.6447   25.7475 C   0  0  0  0  0  0  0  0  0  0  0  0
   14.8530   -2.5918   24.8169 N   0  0  0  0  0  0  0  0  0  0  0  0
   14.0613   -2.5089   23.7435 C   0  0  0  0  0  0  0  0  0  0  0  0
  1  2  1  0
  2  3  2  0
  3  4  1  0
  4  5  2  0
  5  6  1  0
  6  7  2  0
  7  8  1  0
  8  9  1  0
  9 10  1  0
 10 11  2  0
 11 12  1  0
 12 13  2  0
 13 14  1  0
 14 15  2  0
 15 16  1  0
 16 17  1  0
 17 18  2  0
 17 19  1  0
 19 20  1  0
 19 21  1  0
 21 22  2  0
 22 23  1  0
 23 24  2  0
 24 25  1  0
 25 26  2  0
  7  2  1  0
 15 10  1  0
 26 21  1  0
M  END
