CVD-0004028|dock_bobby27042020.14|mol2|36|dock3
     RDKit          3D

 23 24  0  0  0  0  0  0  0  0999 V2000
    8.5664   -5.7447   26.7774 C   0  0  0  0  0  0  0  0  0  0  0  0
    9.9456   -4.6714   26.6642 S   0  0  0  0  0  0  0  0  0  0  0  0
   10.9169   -5.0941   27.6254 O   0  0  0  0  0  0  0  0  0  0  0  0
    9.4664   -3.3251   26.7240 O   0  0  0  0  0  0  0  0  0  0  0  0
   10.6006   -4.8729   25.2149 N   0  0  0  0  0  0  0  0  0  0  0  0
   10.9248   -3.6994   24.3960 C   0  0  0  0  0  0  0  0  0  0  0  0
    9.7199   -3.1467   23.6435 C   0  0  0  0  0  0  0  0  0  0  0  0
   10.0143   -2.1602   22.4986 C   0  0  0  0  0  0  0  0  0  0  0  0
   11.0465   -1.0880   22.9252 C   0  0  0  0  0  0  0  0  0  0  0  0
   10.5886   -0.2088   24.0887 C   0  0  0  0  0  0  0  0  0  0  0  0
   11.6584    0.8155   24.4662 C   0  0  0  0  0  0  0  0  0  0  0  0
   12.0497    1.6669   23.2741 C   0  0  0  0  0  0  0  0  0  0  0  0
   12.4948    0.8136   22.1041 C   0  0  0  0  0  0  0  0  0  0  0  0
   11.4357   -0.2175   21.7279 C   0  0  0  0  0  0  0  0  0  0  0  0
    8.7462   -1.5341   21.9364 C   0  0  0  0  0  0  0  0  0  0  0  0
    7.7853   -1.2751   22.6524 O   0  0  0  0  0  0  0  0  0  0  0  0
    8.7842   -1.3298   20.5950 N   0  0  0  0  0  0  0  0  0  0  0  0
    7.8194   -0.8064   19.6977 C   0  0  0  0  0  0  0  0  0  0  0  0
    6.4741   -0.9207   20.0236 C   0  0  0  0  0  0  0  0  0  0  0  0
    5.5145   -0.4162   19.1637 C   0  0  0  0  0  0  0  0  0  0  0  0
    5.9268    0.1897   18.0000 C   0  0  0  0  0  0  0  0  0  0  0  0
    7.2090    0.3151   17.6579 N   0  0  0  0  0  0  0  0  0  0  0  0
    8.1289   -0.1765   18.4940 C   0  0  0  0  0  0  0  0  0  0  0  0
  1  2  1  0
  2  3  2  0
  2  4  2  0
  2  5  1  0
  5  6  1  0
  6  7  1  0
  7  8  1  0
  8  9  1  0
  9 10  1  0
 10 11  1  0
 11 12  1  0
 12 13  1  0
 13 14  1  0
  8 15  1  0
 15 16  2  0
 15 17  1  0
 17 18  1  0
 18 19  2  0
 19 20  1  0
 20 21  2  0
 21 22  1  0
 22 23  2  0
 14  9  1  0
 23 18  1  0
M  END
