CVD-0001789|dock_bobby27042020.37|mol2|11|dock1
     RDKit          3D

 32 35  0  0  0  0  0  0  0  0999 V2000
    6.3203   -5.7418   21.8334 C   0  0  0  0  0  0  0  0  0  0  0  0
    6.1765   -4.6815   20.7802 C   0  0  0  0  0  0  0  0  0  0  0  0
    6.2966   -4.9753   19.5960 O   0  0  0  0  0  0  0  0  0  0  0  0
    5.9014   -3.3980   21.1389 N   0  0  0  0  0  0  0  0  0  0  0  0
    5.7386   -3.0141   22.5334 C   0  0  0  0  0  0  0  0  0  0  0  0
    7.0028   -2.5644   23.2445 C   0  0  0  0  0  0  0  0  0  0  0  0
    7.6436   -1.3629   22.6390 N   0  0  0  0  0  0  0  0  0  0  0  0
    7.5131   -0.1473   23.4572 C   0  0  0  0  0  0  0  0  0  0  0  0
    8.7498    0.7217   23.4411 C   0  0  0  0  0  0  0  0  0  0  0  0
   10.0012    0.1415   23.6364 C   0  0  0  0  0  0  0  0  0  0  0  0
   11.1456    0.8798   23.6267 C   0  0  0  0  0  0  0  0  0  0  0  0
   11.1122    2.2787   23.4172 C   0  0  0  0  0  0  0  0  0  0  0  0
   12.2882    3.0632   23.4000 C   0  0  0  0  0  0  0  0  0  0  0  0
   12.2141    4.4094   23.1970 C   0  0  0  0  0  0  0  0  0  0  0  0
   10.9960    5.0402   23.0004 C   0  0  0  0  0  0  0  0  0  0  0  0
    9.8418    4.3171   23.0103 C   0  0  0  0  0  0  0  0  0  0  0  0
    9.8523    2.9127   23.2182 C   0  0  0  0  0  0  0  0  0  0  0  0
    8.6905    2.0788   23.2443 C   0  0  0  0  0  0  0  0  0  0  0  0
    6.9989    2.8943   22.9975 Br  0  0  0  0  0  0  0  0  0  0  0  0
   13.7003    5.3655   23.1739 S   0  0  0  0  0  0  0  0  0  0  0  0
   14.0578    5.7106   21.6521 N   0  0  0  0  0  0  0  0  0  0  0  0
   14.7517    4.5338   23.6779 O   0  0  0  0  0  0  0  0  0  0  0  0
   13.4216    6.6050   23.8350 O   0  0  0  0  0  0  0  0  0  0  0  0
    7.5146   -0.8123   21.2549 C   0  0  0  0  0  0  0  0  0  0  0  0
    6.1112   -0.9717   20.6945 C   0  0  0  0  0  0  0  0  0  0  0  0
    5.7253   -2.3345   20.1536 C   0  0  0  0  0  0  0  0  0  0  0  0
    5.9356    0.0145   19.5563 C   0  0  0  0  0  0  0  0  0  0  0  0
    4.9040    0.9413   19.5703 C   0  0  0  0  0  0  0  0  0  0  0  0
    4.7587    1.8331   18.5222 C   0  0  0  0  0  0  0  0  0  0  0  0
    5.6559    1.7731   17.4804 C   0  0  0  0  0  0  0  0  0  0  0  0
    6.6591    0.8959   17.4330 N   0  0  0  0  0  0  0  0  0  0  0  0
    6.7782    0.0454   18.4568 C   0  0  0  0  0  0  0  0  0  0  0  0
  1  2  1  0
  2  3  2  0
  2  4  1  0
  4  5  1  0
  5  6  1  0
  6  7  1  0
  7  8  1  0
  8  9  1  0
  9 10  2  0
 10 11  1  0
 11 12  2  0
 12 13  1  0
 13 14  2  0
 14 15  1  0
 15 16  2  0
 16 17  1  0
 17 18  2  0
 18 19  1  0
 14 20  1  0
 20 21  1  0
 20 22  2  0
 20 23  2  0
  7 24  1  0
 24 25  1  0
 25 26  1  0
 25 27  1  0
 27 28  2  0
 28 29  1  0
 29 30  2  0
 30 31  1  0
 31 32  2  0
 26  4  1  0
 32 27  1  0
 18  9  1  0
 17 12  1  0
M  END
