CVD-0003041|dock_bobby27042020.89|mol2|16|dock3
     RDKit          3D

 28 30  0  0  0  0  0  0  0  0999 V2000
    7.9179   -6.5233   28.9428 N   0  0  0  0  0  0  0  0  0  0  0  0
    7.3193   -5.1782   28.3140 S   0  0  0  0  0  0  0  0  0  0  0  0
    8.4285   -4.3865   27.8737 O   0  0  0  0  0  0  0  0  0  0  0  0
    6.4148   -4.6264   29.2774 O   0  0  0  0  0  0  0  0  0  0  0  0
    6.3724   -5.6018   26.8831 C   0  0  0  0  0  0  0  0  0  0  0  0
    5.1279   -6.1892   27.0370 C   0  0  0  0  0  0  0  0  0  0  0  0
    4.4199   -6.5615   25.9113 C   0  0  0  0  0  0  0  0  0  0  0  0
    4.9319   -6.3580   24.6350 C   0  0  0  0  0  0  0  0  0  0  0  0
    4.1134   -6.6798   23.4081 C   0  0  0  0  0  0  0  0  0  0  0  0
    5.0058   -6.9246   22.2092 C   0  0  0  0  0  0  0  0  0  0  0  0
    5.9617   -5.7591   22.0265 C   0  0  0  0  0  0  0  0  0  0  0  0
    6.7773   -5.5915   23.2225 N   0  0  0  0  0  0  0  0  0  0  0  0
    8.0677   -4.9183   23.0720 C   0  0  0  0  0  0  0  0  0  0  0  0
    7.9849   -3.4101   23.2277 C   0  0  0  0  0  0  0  0  0  0  0  0
    9.2814   -2.7236   22.8326 C   0  0  0  0  0  0  0  0  0  0  0  0
    9.4903   -1.3074   23.3611 C   0  0  0  0  0  0  0  0  0  0  0  0
   10.7769   -0.5643   22.9942 C   0  0  0  0  0  0  0  0  0  0  0  0
   12.0194   -1.4199   23.2139 C   0  0  0  0  0  0  0  0  0  0  0  0
   13.2828   -0.6015   22.9470 C   0  0  0  0  0  0  0  0  0  0  0  0
   13.2907    0.6838   23.7440 C   0  0  0  0  0  0  0  0  0  0  0  0
   12.0872    1.4556   23.4579 N   0  0  0  0  0  0  0  0  0  0  0  0
   10.8567    0.7397   23.7821 C   0  0  0  0  0  0  0  0  0  0  0  0
   12.0301    2.6667   22.8677 C   0  0  0  0  0  0  0  0  0  0  0  0
   10.9673    3.2433   22.6743 O   0  0  0  0  0  0  0  0  0  0  0  0
   13.3531    3.2838   22.4585 C   0  0  0  0  0  0  0  0  0  0  0  0
   13.1059    4.8085   21.5976 Cl  0  0  0  0  0  0  0  0  0  0  0  0
    6.2007   -5.7589   24.4878 C   0  0  0  0  0  0  0  0  0  0  0  0
    6.9136   -5.3839   25.6251 C   0  0  0  0  0  0  0  0  0  0  0  0
  1  2  1  0
  2  3  2  0
  2  4  2  0
  2  5  1  0
  5  6  2  0
  6  7  1  0
  7  8  2  0
  8  9  1  0
  9 10  1  0
 10 11  1  0
 11 12  1  0
 12 13  1  0
 13 14  1  0
 14 15  1  0
 15 16  1  0
 16 17  1  0
 17 18  1  0
 18 19  1  0
 19 20  1  0
 20 21  1  0
 21 22  1  0
 21 23  1  0
 23 24  2  0
 23 25  1  0
 25 26  1  0
 12 27  1  0
 27 28  2  0
 28  5  1  0
 27  8  1  0
 22 17  1  0
M  END
