CVD-0002698|dock_bobby27042020.76|mol2|19|dock3
     RDKit          3D

 35 36  0  0  0  0  0  0  0  0999 V2000
    7.5990   -2.8179   27.6772 C   0  0  0  0  0  0  0  0  0  0  0  0
    6.7554   -3.9553   28.2123 C   0  0  0  0  0  0  0  0  0  0  0  0
    5.7948   -3.4434   29.1377 O   0  0  0  0  0  0  0  0  0  0  0  0
    6.0226   -4.7044   27.0876 C   0  0  0  0  0  0  0  0  0  0  0  0
    5.3886   -5.9155   27.5857 N   0  0  0  0  0  0  0  0  0  0  0  0
    4.4935   -6.5929   26.8585 C   0  0  0  0  0  0  0  0  0  0  0  0
    3.9389   -7.8366   27.4889 C   0  0  0  0  0  0  0  0  0  0  0  0
    4.1564   -6.2287   25.7363 O   0  0  0  0  0  0  0  0  0  0  0  0
    6.9921   -5.0530   25.9635 C   0  0  0  0  0  0  0  0  0  0  0  0
    7.6287   -6.1029   25.9911 O   0  0  0  0  0  0  0  0  0  0  0  0
    7.0968   -4.1604   24.9743 N   0  0  0  0  0  0  0  0  0  0  0  0
    7.9946   -4.3422   23.8523 C   0  0  0  0  0  0  0  0  0  0  0  0
    8.5092   -3.0609   23.4152 N   0  0  0  0  0  0  0  0  0  0  0  0
    7.7345   -2.2170   22.7108 C   0  0  0  0  0  0  0  0  0  0  0  0
    6.5846   -2.5266   22.4228 O   0  0  0  0  0  0  0  0  0  0  0  0
    8.2723   -0.9539   22.3083 N   0  0  0  0  0  0  0  0  0  0  0  0
    7.2863    0.0240   21.8209 C   0  0  0  0  0  0  0  0  0  0  0  0
    7.5403    0.4358   20.3703 C   0  0  0  0  0  0  0  0  0  0  0  0
    6.5150    1.4472   19.8624 C   0  0  0  0  0  0  0  0  0  0  0  0
    5.8128    0.8465   18.8501 C   0  0  0  0  0  0  0  0  0  0  0  0
    4.6538    1.4264   18.0874 C   0  0  0  0  0  0  0  0  0  0  0  0
    6.4192   -0.4671   18.6905 C   0  0  0  0  0  0  0  0  0  0  0  0
    7.3990   -0.7380   19.4748 N   0  0  0  0  0  0  0  0  0  0  0  0
    9.6500   -0.5559   22.3546 C   0  0  0  0  0  0  0  0  0  0  0  0
   10.5015   -1.4319   22.4214 O   0  0  0  0  0  0  0  0  0  0  0  0
    9.9799    0.7823   22.3282 N   0  0  0  0  0  0  0  0  0  0  0  0
   11.2499    1.4169   22.3672 C   0  0  0  0  0  0  0  0  0  0  0  0
   12.4621    0.7645   22.5928 C   0  0  0  0  0  0  0  0  0  0  0  0
   13.6478    1.4806   22.6149 C   0  0  0  0  0  0  0  0  0  0  0  0
   13.6492    2.8427   22.4120 C   0  0  0  0  0  0  0  0  0  0  0  0
   12.4598    3.4975   22.1849 C   0  0  0  0  0  0  0  0  0  0  0  0
   11.2686    2.7924   22.1621 C   0  0  0  0  0  0  0  0  0  0  0  0
    7.2821   -5.0015   22.7417 C   0  0  0  0  0  0  0  0  0  0  0  0
    6.7265   -5.4804   21.8226 C   0  0  0  0  0  0  0  0  0  0  0  0
    5.8249   -6.1894   20.4342 Br  0  0  0  0  0  0  0  0  0  0  0  0
  2  1  1  0
  2  3  1  0
  2  4  1  0
  4  5  1  0
  5  6  1  0
  6  7  1  0
  6  8  2  0
  4  9  1  0
  9 10  2  0
  9 11  1  0
 11 12  1  0
 12 13  1  0
 13 14  1  0
 14 15  2  0
 14 16  1  0
 16 17  1  0
 17 18  1  0
 18 19  1  0
 19 20  2  0
 20 21  1  0
 20 22  1  0
 22 23  2  0
 16 24  1  0
 24 25  2  0
 24 26  1  0
 26 27  1  0
 27 28  2  0
 28 29  1  0
 29 30  2  0
 30 31  1  0
 31 32  2  0
 12 33  1  0
 33 34  3  0
 34 35  1  0
 23 18  1  0
 32 27  1  0
M  END
