CVD-0003572|dock_bobby27042020.87|mol2|28|dock1
     RDKit          3D

 23 25  0  0  0  0  0  0  0  0999 V2000
    7.0607    7.0299   21.2715 Cl  0  0  0  0  0  0  0  0  0  0  0  0
    7.6744    5.7780   22.3593 C   0  0  0  0  0  0  0  0  0  0  0  0
    9.1661    5.9307   22.5823 C   0  0  0  0  0  0  0  0  0  0  0  0
    9.8054    6.8316   22.0540 O   0  0  0  0  0  0  0  0  0  0  0  0
    9.7476    5.0192   23.3875 N   0  0  0  0  0  0  0  0  0  0  0  0
   11.1812    5.0239   23.6873 C   0  0  0  0  0  0  0  0  0  0  0  0
   11.7933    3.6721   23.3703 C   0  0  0  0  0  0  0  0  0  0  0  0
   11.1196    2.6183   24.1347 N   0  0  0  0  0  0  0  0  0  0  0  0
   11.7356    1.3104   23.8613 C   0  0  0  0  0  0  0  0  0  0  0  0
   10.9497    0.1386   24.4097 C   0  0  0  0  0  0  0  0  0  0  0  0
   10.5307    0.2366   25.7356 C   0  0  0  0  0  0  0  0  0  0  0  0
    9.7469   -0.7333   26.3244 C   0  0  0  0  0  0  0  0  0  0  0  0
    9.3673   -1.8306   25.5810 C   0  0  0  0  0  0  0  0  0  0  0  0
    9.7607   -1.9724   24.2537 C   0  0  0  0  0  0  0  0  0  0  0  0
    9.2317   -3.1415   23.4690 C   0  0  0  0  0  0  0  0  0  0  0  0
    8.2559   -2.7620   22.3549 C   0  0  0  0  0  0  0  0  0  0  0  0
    8.6930   -1.5293   21.5676 C   0  0  0  0  0  0  0  0  0  0  0  0
   10.1289   -1.5121   21.3087 N   0  0  0  0  0  0  0  0  0  0  0  0
   11.0464   -1.1773   22.2203 C   0  0  0  0  0  0  0  0  0  0  0  0
   12.2035   -1.1563   21.8198 O   0  0  0  0  0  0  0  0  0  0  0  0
   10.5629   -0.9892   23.6364 C   0  0  0  0  0  0  0  0  0  0  0  0
    9.7035    2.6014   23.7773 C   0  0  0  0  0  0  0  0  0  0  0  0
    9.0535    3.9365   24.0919 C   0  0  0  0  0  0  0  0  0  0  0  0
  1  2  1  0
  2  3  1  0
  3  4  2  0
  3  5  1  0
  5  6  1  0
  6  7  1  0
  7  8  1  0
  8  9  1  0
  9 10  1  0
 10 11  2  0
 11 12  1  0
 12 13  2  0
 13 14  1  0
 14 15  1  0
 15 16  1  0
 16 17  1  0
 17 18  1  0
 18 19  1  0
 19 20  2  0
 19 21  1  0
  8 22  1  0
 22 23  1  0
 23  5  1  0
 21 10  1  0
 21 14  2  0
M  END
