CVD-0001814|dock_bobby27042020.66|mol2|4|dock3
     RDKit          3D

 21 23  0  0  0  0  0  0  0  0999 V2000
   11.9602   -2.3581   21.3121 O   0  0  0  0  0  0  0  0  0  0  0  0
   13.3266   -2.0401   21.5139 C   0  0  0  0  0  0  0  0  0  0  0  0
   13.6597   -1.7661   22.9620 C   0  0  0  0  0  0  0  0  0  0  0  0
   14.5183   -2.6256   23.6428 C   0  0  0  0  0  0  0  0  0  0  0  0
   14.8430   -2.3595   24.9570 C   0  0  0  0  0  0  0  0  0  0  0  0
   14.3797   -1.3094   25.6322 N   0  0  0  0  0  0  0  0  0  0  0  0
   13.5449   -0.4938   24.9829 C   0  0  0  0  0  0  0  0  0  0  0  0
   13.1396   -0.6603   23.6591 C   0  0  0  0  0  0  0  0  0  0  0  0
   12.1936    0.3556   23.1141 C   0  0  0  0  0  0  0  0  0  0  0  0
   10.9075    0.0059   22.7127 C   0  0  0  0  0  0  0  0  0  0  0  0
   10.0465    0.9700   22.2059 C   0  0  0  0  0  0  0  0  0  0  0  0
    8.6503    0.6027   21.7650 C   0  0  0  0  0  0  0  0  0  0  0  0
    8.5913   -0.7562   21.0715 C   0  0  0  0  0  0  0  0  0  0  0  0
    7.3680   -0.9120   20.2087 C   0  0  0  0  0  0  0  0  0  0  0  0
    6.0119   -0.7395   20.5716 C   0  0  0  0  0  0  0  0  0  0  0  0
    5.2061   -0.9707   19.5430 N   0  0  0  0  0  0  0  0  0  0  0  0
    6.0295   -1.2930   18.5235 N   0  0  0  0  0  0  0  0  0  0  0  0
    7.3176   -1.2697   18.8837 C   0  0  0  0  0  0  0  0  0  0  0  0
   10.5121    2.2705   22.1144 C   0  0  0  0  0  0  0  0  0  0  0  0
   11.7986    2.5462   22.5292 C   0  0  0  0  0  0  0  0  0  0  0  0
   12.6354    1.6232   23.0204 N   0  0  0  0  0  0  0  0  0  0  0  0
  1  2  1  0
  2  3  1  0
  3  4  2  0
  4  5  1  0
  5  6  2  0
  6  7  1  0
  7  8  2  0
  8  9  1  0
  9 10  2  0
 10 11  1  0
 11 12  1  0
 12 13  1  0
 13 14  1  0
 14 15  1  0
 15 16  2  0
 16 17  1  0
 17 18  1  0
 11 19  2  0
 19 20  1  0
 20 21  2  0
  8  3  1  0
 21  9  1  0
 18 14  2  0
M  END
