CVD-0001458|dock_bobby27042020.38|mol2|8|dock2
     RDKit          3D

 32 36  0  0  0  0  0  0  0  0999 V2000
    4.7809   -7.3038   29.2944 C   0  0  0  0  0  0  0  0  0  0  0  0
    4.8785   -6.6979   28.1407 C   0  0  0  0  0  0  0  0  0  0  0  0
    4.3173   -7.3111   26.9040 C   0  0  0  0  0  0  0  0  0  0  0  0
    3.8603   -8.4527   26.9317 O   0  0  0  0  0  0  0  0  0  0  0  0
    4.3196   -6.5942   25.7578 N   0  0  0  0  0  0  0  0  0  0  0  0
    3.7847   -7.1558   24.5263 C   0  0  0  0  0  0  0  0  0  0  0  0
    3.8718   -6.0266   23.5004 C   0  0  0  0  0  0  0  0  0  0  0  0
    4.8683   -6.2496   22.3827 C   0  0  0  0  0  0  0  0  0  0  0  0
    5.2978   -4.9012   22.0352 N   0  0  0  0  0  0  0  0  0  0  0  0
    6.4918   -4.9152   21.1761 C   0  0  0  0  0  0  0  0  0  0  0  0
    6.9645   -3.5275   20.8132 C   0  0  0  0  0  0  0  0  0  0  0  0
    6.2879   -2.7695   19.8614 C   0  0  0  0  0  0  0  0  0  0  0  0
    6.7126   -1.4928   19.5238 C   0  0  0  0  0  0  0  0  0  0  0  0
    7.8276   -0.9311   20.1276 C   0  0  0  0  0  0  0  0  0  0  0  0
    8.5349   -1.6536   21.0875 C   0  0  0  0  0  0  0  0  0  0  0  0
    9.6948   -1.4027   21.8948 C   0  0  0  0  0  0  0  0  0  0  0  0
   10.5218   -0.1504   21.8968 C   0  0  0  0  0  0  0  0  0  0  0  0
    9.8056    1.0315   22.5192 C   0  0  0  0  0  0  0  0  0  0  0  0
   10.5629    2.2658   22.3691 N   0  0  0  0  0  0  0  0  0  0  0  0
   11.5172    2.6180   23.2316 C   0  0  0  0  0  0  0  0  0  0  0  0
   11.8068    1.9169   24.2000 O   0  0  0  0  0  0  0  0  0  0  0  0
   12.2431    3.8903   23.0100 C   0  0  0  0  0  0  0  0  0  0  0  0
   12.8286    4.4482   21.8538 C   0  0  0  0  0  0  0  0  0  0  0  0
   13.3916    5.6923   22.2199 C   0  0  0  0  0  0  0  0  0  0  0  0
   13.1517    5.8728   23.5471 C   0  0  0  0  0  0  0  0  0  0  0  0
   12.4622    4.7930   24.0257 N   0  0  0  0  0  0  0  0  0  0  0  0
    9.8865   -2.5229   22.6493 C   0  0  0  0  0  0  0  0  0  0  0  0
    8.9269   -3.4578   22.3700 N   0  0  0  0  0  0  0  0  0  0  0  0
    8.0854   -2.9462   21.4131 C   0  0  0  0  0  0  0  0  0  0  0  0
    5.6276   -4.3848   23.3631 C   0  0  0  0  0  0  0  0  0  0  0  0
    4.4506   -4.8056   24.2297 C   0  0  0  0  0  0  0  0  0  0  0  0
    4.8530   -5.2734   25.6232 C   0  0  0  0  0  0  0  0  0  0  0  0
  1  2  2  0
  2  3  1  0
  3  4  2  0
  3  5  1  0
  5  6  1  0
  7  6  1  0
  7  8  1  0
  8  9  1  0
  9 10  1  0
 10 11  1  0
 11 12  2  0
 12 13  1  0
 13 14  2  0
 14 15  1  0
 15 16  1  0
 16 17  1  0
 17 18  1  0
 18 19  1  0
 19 20  1  0
 20 21  2  0
 20 22  1  0
 22 23  2  0
 23 24  1  0
 24 25  2  0
 25 26  1  0
 16 27  2  0
 27 28  1  0
 28 29  1  0
  9 30  1  0
 31 30  1  0
 31 32  1  0
 32  5  1  0
 31  7  1  0
 29 11  1  0
 29 15  2  0
 26 22  1  0
M  END
