CVD-0002047|dock_bobby27042020.21|mol2|42|dock2
     RDKit          3D

 26 28  0  0  0  0  0  0  0  0999 V2000
    5.7962   -0.9563   18.7294 C   0  0  0  0  0  0  0  0  0  0  0  0
    5.9316   -2.3913   19.1468 C   0  0  0  0  0  0  0  0  0  0  0  0
    5.4029   -3.2864   18.4968 O   0  0  0  0  0  0  0  0  0  0  0  0
    6.6590   -2.5635   20.2817 N   0  0  0  0  0  0  0  0  0  0  0  0
    7.0074   -3.7325   21.0117 C   0  0  0  0  0  0  0  0  0  0  0  0
    6.4397   -4.9820   20.7674 C   0  0  0  0  0  0  0  0  0  0  0  0
    6.7720   -6.0936   21.4275 N   0  0  0  0  0  0  0  0  0  0  0  0
    7.7007   -5.9922   22.3726 C   0  0  0  0  0  0  0  0  0  0  0  0
    8.3220   -4.8103   22.7122 C   0  0  0  0  0  0  0  0  0  0  0  0
    7.9781   -3.6385   22.0339 C   0  0  0  0  0  0  0  0  0  0  0  0
    8.6796   -2.3925   22.4620 C   0  0  0  0  0  0  0  0  0  0  0  0
    8.5808   -1.9197   23.7625 C   0  0  0  0  0  0  0  0  0  0  0  0
    9.2441   -0.7595   24.1175 C   0  0  0  0  0  0  0  0  0  0  0  0
   10.0026   -0.0733   23.1784 C   0  0  0  0  0  0  0  0  0  0  0  0
   10.6709    1.1131   23.5739 N   0  0  0  0  0  0  0  0  0  0  0  0
   11.2575    2.1067   22.8237 C   0  0  0  0  0  0  0  0  0  0  0  0
   11.2939    2.1166   21.5979 O   0  0  0  0  0  0  0  0  0  0  0  0
   11.7973    3.0860   23.6264 N   0  0  0  0  0  0  0  0  0  0  0  0
   12.4880    4.2798   23.2969 C   0  0  0  0  0  0  0  0  0  0  0  0
   13.2859    4.4259   22.1637 C   0  0  0  0  0  0  0  0  0  0  0  0
   13.9278    5.6279   21.9139 C   0  0  0  0  0  0  0  0  0  0  0  0
   13.7867    6.6908   22.7785 C   0  0  0  0  0  0  0  0  0  0  0  0
   13.0004    6.5568   23.9010 C   0  0  0  0  0  0  0  0  0  0  0  0
   12.3539    5.3605   24.1614 C   0  0  0  0  0  0  0  0  0  0  0  0
   10.0460   -0.6177   21.8974 C   0  0  0  0  0  0  0  0  0  0  0  0
    9.4091   -1.7390   21.5408 N   0  0  0  0  0  0  0  0  0  0  0  0
  1  2  1  0
  2  3  2  0
  2  4  1  0
  4  5  1  0
  5  6  2  0
  6  7  1  0
  7  8  2  0
  8  9  1  0
  9 10  2  0
 10 11  1  0
 11 12  2  0
 12 13  1  0
 13 14  2  0
 14 15  1  0
 15 16  1  0
 16 17  2  0
 16 18  1  0
 18 19  1  0
 19 20  2  0
 20 21  1  0
 21 22  2  0
 22 23  1  0
 23 24  2  0
 14 25  1  0
 25 26  2  0
 10  5  1  0
 26 11  1  0
 24 19  1  0
M  END
