CVD-0003329|dock_bobby27042020.2|mol2|24|dock1
     RDKit          3D

 28 30  0  0  0  0  0  0  0  0999 V2000
   14.1899   -2.2763   24.3422 C   0  0  0  0  0  0  0  0  0  0  0  0
   13.0388   -1.3334   24.1568 C   0  0  0  0  0  0  0  0  0  0  0  0
   11.9849   -1.1117   24.9727 C   0  0  0  0  0  0  0  0  0  0  0  0
   11.0838   -0.1605   24.4989 C   0  0  0  0  0  0  0  0  0  0  0  0
   11.4201    0.3499   23.2812 C   0  0  0  0  0  0  0  0  0  0  0  0
   12.9237   -0.3364   22.7548 S   0  0  0  0  0  0  0  0  0  0  0  0
   10.7571    1.3093   22.4748 N   0  0  0  0  0  0  0  0  0  0  0  0
    9.6922    1.1847   21.4872 C   0  0  0  0  0  0  0  0  0  0  0  0
    9.4351    2.2084   20.8721 O   0  0  0  0  0  0  0  0  0  0  0  0
    8.9710    0.0414   21.1486 N   0  0  0  0  0  0  0  0  0  0  0  0
    7.9072    0.0007   20.1359 C   0  0  0  0  0  0  0  0  0  0  0  0
    6.6678    0.8047   20.4733 C   0  0  0  0  0  0  0  0  0  0  0  0
    6.6566    1.6090   21.3807 O   0  0  0  0  0  0  0  0  0  0  0  0
    5.4549    0.5185   19.6274 C   0  0  0  0  0  0  0  0  0  0  0  0
    5.6974    0.9276   17.9241 Cl  0  0  0  0  0  0  0  0  0  0  0  0
    9.1852   -1.1772   21.8908 C   0  0  0  0  0  0  0  0  0  0  0  0
    8.2260   -1.6527   22.7775 C   0  0  0  0  0  0  0  0  0  0  0  0
    8.4615   -2.8171   23.4868 C   0  0  0  0  0  0  0  0  0  0  0  0
    9.6528   -3.4752   23.2920 C   0  0  0  0  0  0  0  0  0  0  0  0
   10.5903   -3.0459   22.4479 N   0  0  0  0  0  0  0  0  0  0  0  0
   10.3466   -1.9251   21.7614 C   0  0  0  0  0  0  0  0  0  0  0  0
   11.1475    2.6870   22.6803 C   0  0  0  0  0  0  0  0  0  0  0  0
   10.2021    3.6469   23.0214 C   0  0  0  0  0  0  0  0  0  0  0  0
   10.5833    4.9642   23.2155 C   0  0  0  0  0  0  0  0  0  0  0  0
   11.9078    5.3402   23.0719 C   0  0  0  0  0  0  0  0  0  0  0  0
   12.8371    4.3820   22.7332 C   0  0  0  0  0  0  0  0  0  0  0  0
   14.5064    4.8432   22.5497 Cl  0  0  0  0  0  0  0  0  0  0  0  0
   12.4793    3.0643   22.5354 C   0  0  0  0  0  0  0  0  0  0  0  0
  1  2  1  0
  2  3  2  0
  3  4  1  0
  4  5  2  0
  5  6  1  0
  5  7  1  0
  7  8  1  0
  8  9  2  0
  8 10  1  0
 10 11  1  0
 11 12  1  0
 12 13  2  0
 12 14  1  0
 14 15  1  0
 10 16  1  0
 16 17  2  0
 17 18  1  0
 18 19  2  0
 19 20  1  0
 20 21  2  0
  7 22  1  0
 22 23  2  0
 23 24  1  0
 24 25  2  0
 25 26  1  0
 26 27  1  0
 26 28  2  0
  6  2  1  0
 21 16  1  0
 28 22  1  0
M  END
