CVD-0000497|dock_bobby27042020.41|mol2|19|dock3
     RDKit          3D

 38 39  0  0  0  0  0  0  0  0999 V2000
   12.0349    4.6642   22.3866 N   0  0  0  0  0  0  0  0  0  0  0  0
   10.9225    4.1547   22.8917 C   0  0  0  0  0  0  0  0  0  0  0  0
   10.1456    4.8135   23.5890 O   0  0  0  0  0  0  0  0  0  0  0  0
   10.6430    2.7072   22.5706 C   0  0  0  0  0  0  0  0  0  0  0  0
    9.3846    2.1660   23.2345 C   0  0  0  0  0  0  0  0  0  0  0  0
    9.1302    0.7080   22.8927 C   0  0  0  0  0  0  0  0  0  0  0  0
   10.0870   -0.2054   23.5315 N   0  0  0  0  0  0  0  0  0  0  0  0
   11.2628   -0.5517   22.7225 C   0  0  0  0  0  0  0  0  0  0  0  0
   11.2909   -1.9959   22.2630 C   0  0  0  0  0  0  0  0  0  0  0  0
   12.1012   -2.1306   21.0469 N   0  0  0  0  0  0  0  0  0  0  0  0
   13.8059   -2.0628   21.1839 S   0  0  0  0  0  0  0  0  0  0  0  0
   14.2056   -2.3308   22.6364 N   0  0  0  0  0  0  0  0  0  0  0  0
   14.3770   -3.1423   20.3506 O   0  0  0  0  0  0  0  0  0  0  0  0
   14.2403   -0.6916   20.8425 O   0  0  0  0  0  0  0  0  0  0  0  0
    9.9470   -0.6736   24.7891 C   0  0  0  0  0  0  0  0  0  0  0  0
   10.7891   -1.4066   25.2713 O   0  0  0  0  0  0  0  0  0  0  0  0
    8.7385   -0.2911   25.6493 C   0  0  0  0  0  0  0  0  0  0  0  0
    7.6375   -1.3600   25.5495 C   0  0  0  0  0  0  0  0  0  0  0  0
    8.1326   -2.7840   25.6250 C   0  0  0  0  0  0  0  0  0  0  0  0
    8.2090   -3.5664   24.4831 C   0  0  0  0  0  0  0  0  0  0  0  0
    8.6515   -4.8760   24.5405 C   0  0  0  0  0  0  0  0  0  0  0  0
    9.0255   -5.4245   25.7564 C   0  0  0  0  0  0  0  0  0  0  0  0
    9.4614   -6.7157   25.8213 O   0  0  0  0  0  0  0  0  0  0  0  0
    8.9543   -4.6547   26.9062 C   0  0  0  0  0  0  0  0  0  0  0  0
    8.5128   -3.3453   26.8339 C   0  0  0  0  0  0  0  0  0  0  0  0
    9.1911   -0.1701   27.0254 N   0  0  0  0  0  0  0  0  0  0  0  0
    8.4814    0.5469   27.9241 C   0  0  0  0  0  0  0  0  0  0  0  0
    7.4802    1.1722   27.5884 O   0  0  0  0  0  0  0  0  0  0  0  0
    9.0250    0.4864   29.1853 N   0  0  0  0  0  0  0  0  0  0  0  0
    8.5365    1.1400   30.3689 C   0  0  0  0  0  0  0  0  0  0  0  0
    7.2202    1.5069   30.6301 C   0  0  0  0  0  0  0  0  0  0  0  0
    6.2389    1.1563   29.7695 F   0  0  0  0  0  0  0  0  0  0  0  0
    6.8335    2.2065   31.7452 C   0  0  0  0  0  0  0  0  0  0  0  0
    7.8052    2.4915   32.6709 C   0  0  0  0  0  0  0  0  0  0  0  0
    7.4504    3.1845   33.7863 F   0  0  0  0  0  0  0  0  0  0  0  0
    9.1151    2.1109   32.5305 C   0  0  0  0  0  0  0  0  0  0  0  0
    9.4364    1.4426   31.3778 C   0  0  0  0  0  0  0  0  0  0  0  0
   10.7190    1.0510   31.2004 F   0  0  0  0  0  0  0  0  0  0  0  0
  1  2  1  0
  2  3  2  0
  2  4  1  0
  4  5  1  0
  5  6  1  0
  6  7  1  0
  7  8  1  0
  8  9  1  0
  9 10  1  0
 10 11  1  0
 11 12  1  0
 11 13  2  0
 11 14  2  0
  7 15  1  0
 15 16  2  0
 15 17  1  0
 17 18  1  0
 18 19  1  0
 19 20  2  0
 20 21  1  0
 21 22  2  0
 22 23  1  0
 22 24  1  0
 24 25  2  0
 17 26  1  0
 26 27  1  0
 27 28  2  0
 27 29  1  0
 29 30  1  0
 30 31  2  0
 31 32  1  0
 31 33  1  0
 33 34  2  0
 34 35  1  0
 34 36  1  0
 36 37  2  0
 37 38  1  0
 25 19  1  0
 37 30  1  0
M  END
