CVD-0002322|dock_bobby27042020.34|mol2|39|dock1
     RDKit          3D

 29 32  0  0  0  0  0  0  0  0999 V2000
    5.7785    0.4582   17.8605 C   0  0  0  0  0  0  0  0  0  0  0  0
    5.3160    0.6464   19.2754 C   0  0  0  0  0  0  0  0  0  0  0  0
    4.1555    0.9477   19.5312 O   0  0  0  0  0  0  0  0  0  0  0  0
    6.2203    0.4587   20.2677 N   0  0  0  0  0  0  0  0  0  0  0  0
    7.6305    0.0952   20.0978 C   0  0  0  0  0  0  0  0  0  0  0  0
    8.0108   -1.0165   21.0409 C   0  0  0  0  0  0  0  0  0  0  0  0
    7.7328   -0.6375   22.4361 N   0  0  0  0  0  0  0  0  0  0  0  0
    6.2981   -0.3706   22.5494 C   0  0  0  0  0  0  0  0  0  0  0  0
    5.8870    0.7748   21.6553 C   0  0  0  0  0  0  0  0  0  0  0  0
    8.1417   -1.6898   23.3602 C   0  0  0  0  0  0  0  0  0  0  0  0
    9.6717   -1.7617   23.4311 C   0  0  0  0  0  0  0  0  0  0  0  0
   10.2474   -2.8073   23.1984 O   0  0  0  0  0  0  0  0  0  0  0  0
   10.3307   -0.6330   23.7527 N   0  0  0  0  0  0  0  0  0  0  0  0
   11.7921   -0.5553   23.8089 C   0  0  0  0  0  0  0  0  0  0  0  0
   12.2966    0.5781   22.9351 C   0  0  0  0  0  0  0  0  0  0  0  0
   11.7050    1.8496   23.3616 N   0  0  0  0  0  0  0  0  0  0  0  0
   12.2189    2.9519   22.5473 C   0  0  0  0  0  0  0  0  0  0  0  0
   12.0056    4.3106   23.1649 C   0  0  0  0  0  0  0  0  0  0  0  0
   10.8371    5.0962   23.0093 C   0  0  0  0  0  0  0  0  0  0  0  0
   10.8648    6.2888   23.6668 C   0  0  0  0  0  0  0  0  0  0  0  0
   12.3412    6.4544   24.4894 S   0  0  0  0  0  0  0  0  0  0  0  0
   12.9121    4.9425   23.9611 C   0  0  0  0  0  0  0  0  0  0  0  0
   10.2517    1.7620   23.2451 C   0  0  0  0  0  0  0  0  0  0  0  0
    9.7089    0.6439   24.1166 C   0  0  0  0  0  0  0  0  0  0  0  0
    7.5813   -3.0519   23.0225 C   0  0  0  0  0  0  0  0  0  0  0  0
    6.4369   -3.6365   23.5529 C   0  0  0  0  0  0  0  0  0  0  0  0
    6.2224   -4.9242   23.0049 C   0  0  0  0  0  0  0  0  0  0  0  0
    7.1571   -5.2902   22.1117 C   0  0  0  0  0  0  0  0  0  0  0  0
    8.3439   -4.0830   21.8957 S   0  0  0  0  0  0  0  0  0  0  0  0
  1  2  1  0
  2  3  2  0
  2  4  1  0
  4  5  1  0
  5  6  1  0
  6  7  1  0
  7  8  1  0
  8  9  1  0
  7 10  1  0
 10 11  1  0
 11 12  2  0
 11 13  1  0
 13 14  1  0
 14 15  1  0
 15 16  1  0
 16 17  1  0
 17 18  1  0
 18 19  1  0
 19 20  2  0
 20 21  1  0
 21 22  1  0
 16 23  1  0
 23 24  1  0
 10 25  1  0
 25 26  2  0
 26 27  1  0
 27 28  2  0
 28 29  1  0
  9  4  1  0
 24 13  1  0
 29 25  1  0
 22 18  2  0
M  END
