CVD-0001823|dock_bobby27042020.37|mol2|6|dock1
     RDKit          3D

 25 28  0  0  0  0  0  0  0  0999 V2000
    4.2478    3.1042   18.5898 O   0  0  0  0  0  0  0  0  0  0  0  0
    4.8510    2.0458   18.7375 C   0  0  0  0  0  0  0  0  0  0  0  0
    5.2824    1.0481   17.7516 C   0  0  0  0  0  0  0  0  0  0  0  0
    6.3314    0.1811   18.4441 C   0  0  0  0  0  0  0  0  0  0  0  0
    6.1336    0.4886   19.9312 C   0  0  0  0  0  0  0  0  0  0  0  0
    5.2121    1.6071   19.9422 N   0  0  0  0  0  0  0  0  0  0  0  0
    7.4475    0.8245   20.5871 C   0  0  0  0  0  0  0  0  0  0  0  0
    7.8407    2.0613   20.7846 N   0  0  0  0  0  0  0  0  0  0  0  0
    9.0786    2.0093   21.4166 N   0  0  0  0  0  0  0  0  0  0  0  0
    9.3837    0.7394   21.5733 C   0  0  0  0  0  0  0  0  0  0  0  0
   10.5649    0.3674   22.1815 N   0  0  0  0  0  0  0  0  0  0  0  0
   11.4654    1.3787   22.7165 C   0  0  0  0  0  0  0  0  0  0  0  0
   12.1547    0.8950   23.9726 C   0  0  0  0  0  0  0  0  0  0  0  0
   12.8445   -0.3669   23.7228 N   0  0  0  0  0  0  0  0  0  0  0  0
   12.1678   -1.3711   23.1239 C   0  0  0  0  0  0  0  0  0  0  0  0
   12.5111   -2.5433   23.2427 O   0  0  0  0  0  0  0  0  0  0  0  0
   10.9530   -1.0311   22.2879 C   0  0  0  0  0  0  0  0  0  0  0  0
    8.3789   -0.0592   21.0568 N   0  0  0  0  0  0  0  0  0  0  0  0
    8.2289   -1.5221   21.0102 C   0  0  0  0  0  0  0  0  0  0  0  0
    7.5245   -2.0630   22.2431 C   0  0  0  0  0  0  0  0  0  0  0  0
    7.4311   -3.5650   22.2578 C   0  0  0  0  0  0  0  0  0  0  0  0
    8.0785   -4.4179   23.1860 C   0  0  0  0  0  0  0  0  0  0  0  0
    7.8383   -5.7463   23.0053 C   0  0  0  0  0  0  0  0  0  0  0  0
    6.8022   -5.9639   21.6783 S   0  0  0  0  0  0  0  0  0  0  0  0
    6.6925   -4.2945   21.3755 C   0  0  0  0  0  0  0  0  0  0  0  0
  1  2  2  0
  2  3  1  0
  3  4  1  0
  4  5  1  0
  5  6  1  0
  5  7  1  0
  7  8  2  0
  8  9  1  0
  9 10  2  0
 10 11  1  0
 11 12  1  0
 12 13  1  0
 13 14  1  0
 14 15  1  0
 15 16  2  0
 15 17  1  0
 10 18  1  0
 18 19  1  0
 19 20  1  0
 20 21  1  0
 21 22  1  0
 22 23  2  0
 23 24  1  0
 24 25  1  0
  6  2  1  0
 18  7  1  0
 25 21  2  0
 17 11  1  0
M  END
