CVD-0001978|dock_bobby27042020.79|mol2|16|dock3
     RDKit          3D

 11 11  0  0  0  0  0  0  0  0999 V2000
    9.3614   -2.4972   23.1801 C   0  0  0  0  0  0  0  0  0  0  0  0
    9.8254   -1.1063   22.7636 C   0  0  0  0  0  0  0  0  0  0  0  0
    9.6151   -0.9358   21.2630 C   0  0  0  0  0  0  0  0  0  0  0  0
   11.3024   -0.8897   23.1509 C   0  0  0  0  0  0  0  0  0  0  0  0
   12.2631   -2.0083   22.7227 C   0  0  0  0  0  0  0  0  0  0  0  0
   13.7104   -1.6530   23.0609 C   0  0  0  0  0  0  0  0  0  0  0  0
   13.9130   -1.3979   24.5388 C   0  0  0  0  0  0  0  0  0  0  0  0
   13.7555   -2.6579   25.3834 C   0  0  0  0  0  0  0  0  0  0  0  0
   12.9476   -0.3041   24.9918 C   0  0  0  0  0  0  0  0  0  0  0  0
   11.5226   -0.6108   24.6337 C   0  0  0  0  0  0  0  0  0  0  0  0
   10.6519   -0.6516   25.4754 O   0  0  0  0  0  0  0  0  0  0  0  0
  1  2  1  0
  2  3  1  0
  2  4  1  0
  4  5  1  0
  5  6  1  0
  6  7  1  0
  7  8  1  0
  7  9  1  0
  9 10  1  0
 10 11  2  0
 10  4  1  0
M  END
