CVD-0000485|dock_bobby27042020.12|mol2|44|dock3
     RDKit          3D

 24 26  0  0  0  0  0  0  0  0999 V2000
   14.1584   -0.4777   26.0572 F   0  0  0  0  0  0  0  0  0  0  0  0
   13.8076   -1.0678   24.8753 C   0  0  0  0  0  0  0  0  0  0  0  0
   14.3670   -2.2137   24.3021 C   0  0  0  0  0  0  0  0  0  0  0  0
   13.6453   -2.5336   23.0690 C   0  0  0  0  0  0  0  0  0  0  0  0
   12.6792   -1.6041   22.8667 C   0  0  0  0  0  0  0  0  0  0  0  0
   12.7197   -0.6531   23.9974 C   0  0  0  0  0  0  0  0  0  0  0  0
   11.7808   -1.5575   21.8109 N   0  0  0  0  0  0  0  0  0  0  0  0
   10.4871   -1.0320   21.8539 C   0  0  0  0  0  0  0  0  0  0  0  0
   10.0314   -0.5485   22.8862 O   0  0  0  0  0  0  0  0  0  0  0  0
    9.8309   -1.1246   20.6507 N   0  0  0  0  0  0  0  0  0  0  0  0
    8.5261   -0.7173   20.2759 C   0  0  0  0  0  0  0  0  0  0  0  0
    7.7839    0.2288   20.9781 C   0  0  0  0  0  0  0  0  0  0  0  0
    6.5143    0.5782   20.5523 C   0  0  0  0  0  0  0  0  0  0  0  0
    5.9482    0.0047   19.4256 C   0  0  0  0  0  0  0  0  0  0  0  0
    4.5611    0.3905   18.9718 C   0  0  0  0  0  0  0  0  0  0  0  0
    4.2974    1.8146   19.0361 N   0  0  0  0  0  0  0  0  0  0  0  0
    3.0675    2.3429   19.3813 C   0  0  0  0  0  0  0  0  0  0  0  0
    2.4804    3.3051   18.5680 C   0  0  0  0  0  0  0  0  0  0  0  0
    1.2488    3.8437   18.9005 C   0  0  0  0  0  0  0  0  0  0  0  0
    0.5942    3.4308   20.0405 C   0  0  0  0  0  0  0  0  0  0  0  0
    1.1685    2.4772   20.8526 C   0  0  0  0  0  0  0  0  0  0  0  0
    2.3997    1.9312   20.5301 C   0  0  0  0  0  0  0  0  0  0  0  0
    6.6888   -0.9368   18.7307 C   0  0  0  0  0  0  0  0  0  0  0  0
    7.9588   -1.2946   19.1460 C   0  0  0  0  0  0  0  0  0  0  0  0
  1  2  1  0
  2  3  2  0
  3  4  1  0
  4  5  2  0
  5  6  1  0
  5  7  1  0
  7  8  1  0
  8  9  2  0
  8 10  1  0
 10 11  1  0
 11 12  2  0
 12 13  1  0
 13 14  2  0
 14 15  1  0
 15 16  1  0
 16 17  1  0
 17 18  2  0
 18 19  1  0
 19 20  2  0
 20 21  1  0
 21 22  2  0
 14 23  1  0
 23 24  2  0
  6  2  1  0
 24 11  1  0
 22 17  1  0
M  END
