CVD-0001607|dock_bobby27042020.52|mol2|10|dock3
     RDKit          3D

 17 18  0  0  0  0  0  0  0  0999 V2000
   14.5391   -2.7554   25.6791 Cl  0  0  0  0  0  0  0  0  0  0  0  0
   13.2694   -1.6467   25.1443 C   0  0  0  0  0  0  0  0  0  0  0  0
   12.7760   -2.0033   23.7550 C   0  0  0  0  0  0  0  0  0  0  0  0
   13.2656   -2.9517   23.1544 O   0  0  0  0  0  0  0  0  0  0  0  0
   11.7967   -1.2483   23.2035 N   0  0  0  0  0  0  0  0  0  0  0  0
   11.2506   -1.5069   21.8693 C   0  0  0  0  0  0  0  0  0  0  0  0
    9.7409   -1.6462   21.9323 C   0  0  0  0  0  0  0  0  0  0  0  0
    9.1427   -0.4333   22.4980 N   0  0  0  0  0  0  0  0  0  0  0  0
    7.6831   -0.5466   22.5243 C   0  0  0  0  0  0  0  0  0  0  0  0
    7.0758   -0.4445   21.1573 C   0  0  0  0  0  0  0  0  0  0  0  0
    6.6182   -1.4713   20.3626 C   0  0  0  0  0  0  0  0  0  0  0  0
    6.1061   -1.0488   19.1380 C   0  0  0  0  0  0  0  0  0  0  0  0
    6.1724    0.2888   18.9998 C   0  0  0  0  0  0  0  0  0  0  0  0
    5.6068    1.3015   17.5309 Br  0  0  0  0  0  0  0  0  0  0  0  0
    6.8620    1.0734   20.3603 S   0  0  0  0  0  0  0  0  0  0  0  0
    9.6644   -0.2291   23.8469 C   0  0  0  0  0  0  0  0  0  0  0  0
   11.1740   -0.0737   23.8219 C   0  0  0  0  0  0  0  0  0  0  0  0
  1  2  1  0
  2  3  1  0
  3  4  2  0
  3  5  1  0
  5  6  1  0
  6  7  1  0
  7  8  1  0
  8  9  1  0
  9 10  1  0
 10 11  2  0
 11 12  1  0
 12 13  2  0
 13 14  1  0
 13 15  1  0
  8 16  1  0
 16 17  1  0
 17  5  1  0
 15 10  1  0
M  END
