CVD-0002749|dock_bobby27042020.33|mol2|12|dock3
     RDKit          3D

 23 25  0  0  0  0  0  0  0  0999 V2000
   13.8456    5.5764   21.7642 Cl  0  0  0  0  0  0  0  0  0  0  0  0
   13.8036    3.9325   22.4144 C   0  0  0  0  0  0  0  0  0  0  0  0
   12.3739    3.4505   22.5649 C   0  0  0  0  0  0  0  0  0  0  0  0
   11.4228    4.1670   22.2794 O   0  0  0  0  0  0  0  0  0  0  0  0
   12.2078    2.1973   23.0337 N   0  0  0  0  0  0  0  0  0  0  0  0
   10.8891    1.5914   23.2306 C   0  0  0  0  0  0  0  0  0  0  0  0
   10.8002    0.2655   22.4982 C   0  0  0  0  0  0  0  0  0  0  0  0
   11.8504   -0.6440   22.9659 N   0  0  0  0  0  0  0  0  0  0  0  0
   11.7445   -1.9390   22.2905 C   0  0  0  0  0  0  0  0  0  0  0  0
   10.3449   -2.4776   22.2870 C   0  0  0  0  0  0  0  0  0  0  0  0
    9.8897   -3.2455   23.2385 N   0  0  0  0  0  0  0  0  0  0  0  0
    8.5882   -3.5968   22.9851 C   0  0  0  0  0  0  0  0  0  0  0  0
    8.0283   -3.1136   21.8502 C   0  0  0  0  0  0  0  0  0  0  0  0
    6.6434   -3.3179   21.3070 C   0  0  0  0  0  0  0  0  0  0  0  0
    6.0754   -2.1014   20.6115 C   0  0  0  0  0  0  0  0  0  0  0  0
    5.8981   -0.9107   21.2990 C   0  0  0  0  0  0  0  0  0  0  0  0
    5.3808    0.2046   20.6613 C   0  0  0  0  0  0  0  0  0  0  0  0
    5.0356    0.1420   19.3284 C   0  0  0  0  0  0  0  0  0  0  0  0
    5.2082   -1.0355   18.6331 C   0  0  0  0  0  0  0  0  0  0  0  0
    5.7255   -2.1505   19.2710 C   0  0  0  0  0  0  0  0  0  0  0  0
    9.1971   -2.1469   21.0234 S   0  0  0  0  0  0  0  0  0  0  0  0
   13.1545   -0.0383   22.7092 C   0  0  0  0  0  0  0  0  0  0  0  0
   13.2844    1.2874   23.4370 C   0  0  0  0  0  0  0  0  0  0  0  0
  1  2  1  0
  2  3  1  0
  3  4  2  0
  3  5  1  0
  5  6  1  0
  6  7  1  0
  7  8  1  0
  8  9  1  0
  9 10  1  0
 10 11  2  0
 11 12  1  0
 12 13  2  0
 13 14  1  0
 14 15  1  0
 15 16  2  0
 16 17  1  0
 17 18  2  0
 18 19  1  0
 19 20  2  0
 13 21  1  0
  8 22  1  0
 22 23  1  0
 23  5  1  0
 21 10  1  0
 20 15  1  0
M  END
