CVD-0002560|dock_bobby27042020.77|mol2|2|dock1
     RDKit          3D

 29 32  0  0  0  0  0  0  0  0999 V2000
    5.8005   -0.4233   24.1654 N   0  0  0  0  0  0  0  0  0  0  0  0
    6.3605   -1.6024   24.8625 C   0  0  0  0  0  0  0  0  0  0  0  0
    7.6970   -1.3107   25.5320 C   0  0  0  0  0  0  0  0  0  0  0  0
    8.4579   -0.5106   24.6349 O   0  0  0  0  0  0  0  0  0  0  0  0
    9.0124   -1.2559   23.5310 C   0  0  0  0  0  0  0  0  0  0  0  0
   10.1287   -2.1532   24.1294 C   0  0  0  0  0  0  0  0  0  0  0  0
    9.4879   -3.0585   25.1655 C   0  0  0  0  0  0  0  0  0  0  0  0
   10.0361   -4.3088   25.4886 C   0  0  0  0  0  0  0  0  0  0  0  0
   11.1291   -4.8082   24.8356 O   0  0  0  0  0  0  0  0  0  0  0  0
    9.5108   -5.0625   26.5367 C   0  0  0  0  0  0  0  0  0  0  0  0
   10.0701   -6.2654   26.8288 O   0  0  0  0  0  0  0  0  0  0  0  0
    8.4379   -4.5885   27.2764 C   0  0  0  0  0  0  0  0  0  0  0  0
    7.8929   -3.3583   26.9640 C   0  0  0  0  0  0  0  0  0  0  0  0
    8.4021   -2.5868   25.9193 C   0  0  0  0  0  0  0  0  0  0  0  0
    9.4839   -0.2289   22.5012 C   0  0  0  0  0  0  0  0  0  0  0  0
    9.9675   -0.9653   21.2669 C   0  0  0  0  0  0  0  0  0  0  0  0
    8.8162   -1.6036   20.5005 C   0  0  0  0  0  0  0  0  0  0  0  0
    7.7722   -0.5594   20.1080 C   0  0  0  0  0  0  0  0  0  0  0  0
    6.5831   -1.1609   19.3360 C   0  0  0  0  0  0  0  0  0  0  0  0
    5.5324   -0.1015   19.0593 C   0  0  0  0  0  0  0  0  0  0  0  0
    6.1509    0.9121   18.1429 C   0  0  0  0  0  0  0  0  0  0  0  0
    7.1100    0.7077   17.4591 O   0  0  0  0  0  0  0  0  0  0  0  0
    5.0359    0.5230   20.3112 N   0  0  0  0  0  0  0  0  0  0  0  0
    3.9336    1.4694   20.1081 C   0  0  0  0  0  0  0  0  0  0  0  0
    2.9250    1.5293   21.2330 C   0  0  0  0  0  0  0  0  0  0  0  0
    1.8309    2.3813   20.9366 O   0  0  0  0  0  0  0  0  0  0  0  0
    6.1493    1.1565   21.0355 C   0  0  0  0  0  0  0  0  0  0  0  0
    7.2204    0.1280   21.3751 C   0  0  0  0  0  0  0  0  0  0  0  0
    8.3615    0.7521   22.1783 C   0  0  0  0  0  0  0  0  0  0  0  0
  1  2  1  0
  2  3  1  0
  3  4  1  0
  4  5  1  0
  5  6  1  0
  6  7  1  0
  7  8  2  0
  8  9  1  0
  8 10  1  0
 10 11  1  0
 10 12  2  0
 12 13  1  0
 13 14  2  0
  5 15  1  0
 15 16  1  0
 16 17  1  0
 17 18  1  0
 18 19  1  0
 19 20  1  0
 20 21  1  0
 21 22  2  0
 20 23  1  0
 23 24  1  0
 24 25  1  0
 25 26  1  0
 23 27  1  0
 27 28  1  0
 28 29  1  0
 14  3  1  0
 29 15  1  0
 14  7  1  0
 28 18  1  0
M  END
