CVD-0002207|dock_bobby27042020.64|mol2|16|dock2
     RDKit          3D

 22 24  0  0  0  0  0  0  0  0999 V2000
    5.7583    0.5961   18.2382 C   0  0  0  0  0  0  0  0  0  0  0  0
    6.3616   -0.6984   18.7320 C   0  0  0  0  0  0  0  0  0  0  0  0
    6.1897   -0.8834   20.2272 C   0  0  0  0  0  0  0  0  0  0  0  0
    6.7681   -2.1551   20.7907 C   0  0  0  0  0  0  0  0  0  0  0  0
    6.0446   -3.2722   20.6173 N   0  0  0  0  0  0  0  0  0  0  0  0
    6.5235   -4.4220   21.1063 C   0  0  0  0  0  0  0  0  0  0  0  0
    7.7333   -4.5198   21.7864 C   0  0  0  0  0  0  0  0  0  0  0  0
    8.4795   -3.3590   21.9648 C   0  0  0  0  0  0  0  0  0  0  0  0
    8.0069   -2.1501   21.4685 C   0  0  0  0  0  0  0  0  0  0  0  0
    8.7974   -0.8662   21.6425 C   0  0  0  0  0  0  0  0  0  0  0  0
   10.1375   -1.0468   22.3265 C   0  0  0  0  0  0  0  0  0  0  0  0
   11.2069   -1.6242   21.6543 C   0  0  0  0  0  0  0  0  0  0  0  0
   12.4346   -1.7954   22.2740 C   0  0  0  0  0  0  0  0  0  0  0  0
   12.6071   -1.3850   23.5915 C   0  0  0  0  0  0  0  0  0  0  0  0
   13.8119   -1.4524   24.4840 C   0  0  0  0  0  0  0  0  0  0  0  0
   13.3043   -0.8496   25.6973 N   0  0  0  0  0  0  0  0  0  0  0  0
   12.0146   -0.4708   25.6355 C   0  0  0  0  0  0  0  0  0  0  0  0
   11.3911    0.0644   26.5466 O   0  0  0  0  0  0  0  0  0  0  0  0
   11.5500   -0.8086   24.2724 C   0  0  0  0  0  0  0  0  0  0  0  0
   10.3173   -0.6386   23.6445 C   0  0  0  0  0  0  0  0  0  0  0  0
    8.2050   -5.7846   22.2937 C   0  0  0  0  0  0  0  0  0  0  0  0
    8.5523   -6.7876   22.7160 N   0  0  0  0  0  0  0  0  0  0  0  0
  1  2  1  0
  2  3  1  0
  3  4  1  0
  4  5  2  0
  5  6  1  0
  6  7  2  0
  7  8  1  0
  8  9  2  0
  9 10  1  0
 10 11  1  0
 11 12  2  0
 12 13  1  0
 13 14  2  0
 14 15  1  0
 15 16  1  0
 16 17  1  0
 17 18  2  0
 17 19  1  0
 19 20  2  0
  7 21  1  0
 21 22  3  0
  9  4  1  0
 20 11  1  0
 19 14  1  0
M  END
