CVD-0002402|dock_bobby27042020.63|mol2|25|dock2
     RDKit          3D

 27 30  0  0  0  0  0  0  0  0999 V2000
    8.3042   -1.5726   18.2035 C   0  0  0  0  0  0  0  0  0  0  0  0
    7.2636   -0.6122   18.7002 C   0  0  0  0  0  0  0  0  0  0  0  0
    6.6614    0.1345   17.7740 N   0  0  0  0  0  0  0  0  0  0  0  0
    5.7735    1.0577   18.1610 C   0  0  0  0  0  0  0  0  0  0  0  0
    5.4322    1.2736   19.4747 C   0  0  0  0  0  0  0  0  0  0  0  0
    6.0242    0.4883   20.4484 C   0  0  0  0  0  0  0  0  0  0  0  0
    6.9426   -0.4830   20.0557 C   0  0  0  0  0  0  0  0  0  0  0  0
    7.5394   -1.3288   21.0701 N   0  0  0  0  0  0  0  0  0  0  0  0
    8.8633   -1.0653   21.4367 C   0  0  0  0  0  0  0  0  0  0  0  0
    9.4886   -0.1520   20.9202 O   0  0  0  0  0  0  0  0  0  0  0  0
    9.4294   -1.8875   22.4157 N   0  0  0  0  0  0  0  0  0  0  0  0
   10.7853   -1.5798   22.8117 C   0  0  0  0  0  0  0  0  0  0  0  0
   11.8529   -1.9011   21.9815 C   0  0  0  0  0  0  0  0  0  0  0  0
   13.1496   -1.6012   22.3643 C   0  0  0  0  0  0  0  0  0  0  0  0
   13.3936   -0.9812   23.5704 C   0  0  0  0  0  0  0  0  0  0  0  0
   12.3413   -0.6580   24.3992 C   0  0  0  0  0  0  0  0  0  0  0  0
   11.0407   -0.9533   24.0260 C   0  0  0  0  0  0  0  0  0  0  0  0
    8.7263   -2.9701   23.0064 C   0  0  0  0  0  0  0  0  0  0  0  0
    9.3104   -3.8272   23.9384 C   0  0  0  0  0  0  0  0  0  0  0  0
    8.5642   -4.8431   24.5049 C   0  0  0  0  0  0  0  0  0  0  0  0
    9.2985   -5.8852   25.6792 Cl  0  0  0  0  0  0  0  0  0  0  0  0
    7.2468   -5.0237   24.1360 C   0  0  0  0  0  0  0  0  0  0  0  0
    6.5235   -6.0160   24.7036 F   0  0  0  0  0  0  0  0  0  0  0  0
    6.6566   -4.2154   23.2018 C   0  0  0  0  0  0  0  0  0  0  0  0
    7.3933   -3.1848   22.6190 C   0  0  0  0  0  0  0  0  0  0  0  0
    6.7395   -2.3518   21.6034 C   0  0  0  0  0  0  0  0  0  0  0  0
    5.5862   -2.5218   21.2460 O   0  0  0  0  0  0  0  0  0  0  0  0
  1  2  1  0
  2  3  2  0
  3  4  1  0
  4  5  2  0
  5  6  1  0
  6  7  2  0
  7  8  1  0
  8  9  1  0
  9 10  2  0
  9 11  1  0
 11 12  1  0
 12 13  2  0
 13 14  1  0
 14 15  2  0
 15 16  1  0
 16 17  2  0
 11 18  1  0
 18 19  2  0
 19 20  1  0
 20 21  1  0
 20 22  2  0
 22 23  1  0
 22 24  1  0
 24 25  2  0
 25 26  1  0
 26 27  2  0
  7  2  1  0
 26  8  1  0
 17 12  1  0
 25 18  1  0
M  END
