CVD-0000261|dock_bobby27042020.99|mol2|14|dock1
     RDKit          3D

 25 27  0  0  0  0  0  0  0  0999 V2000
    5.5103   -0.1254   21.4543 C   0  0  0  0  0  0  0  0  0  0  0  0
    6.7412   -0.5517   22.2197 C   0  0  0  0  0  0  0  0  0  0  0  0
    8.0237   -0.3120   21.4367 C   0  0  0  0  0  0  0  0  0  0  0  0
    9.1576   -0.7926   22.2358 N   0  0  0  0  0  0  0  0  0  0  0  0
   10.4326   -0.6074   21.5275 C   0  0  0  0  0  0  0  0  0  0  0  0
   11.6446   -0.6557   22.4325 C   0  0  0  0  0  0  0  0  0  0  0  0
   12.3090   -1.8715   22.5712 C   0  0  0  0  0  0  0  0  0  0  0  0
   13.4355   -1.9864   23.3619 C   0  0  0  0  0  0  0  0  0  0  0  0
   13.9091   -0.8828   24.0313 C   0  0  0  0  0  0  0  0  0  0  0  0
   13.2641    0.3383   23.9257 C   0  0  0  0  0  0  0  0  0  0  0  0
   12.1237    0.4725   23.1270 C   0  0  0  0  0  0  0  0  0  0  0  0
   11.4254    1.7061   22.9909 N   0  0  0  0  0  0  0  0  0  0  0  0
   11.9131    2.9889   22.9086 C   0  0  0  0  0  0  0  0  0  0  0  0
   13.0924    3.3280   22.9378 O   0  0  0  0  0  0  0  0  0  0  0  0
   10.9296    3.9018   22.7820 N   0  0  0  0  0  0  0  0  0  0  0  0
   11.2389    5.3113   22.6767 C   0  0  0  0  0  0  0  0  0  0  0  0
   11.5282    5.9205   24.0234 C   0  0  0  0  0  0  0  0  0  0  0  0
   10.6126    6.5907   24.8736 C   0  0  0  0  0  0  0  0  0  0  0  0
   11.0961    7.0389   26.0206 N   0  0  0  0  0  0  0  0  0  0  0  0
   12.7104    6.6601   26.1204 S   0  0  0  0  0  0  0  0  0  0  0  0
   12.7546    5.8910   24.6226 C   0  0  0  0  0  0  0  0  0  0  0  0
    8.9732   -2.2080   22.5477 C   0  0  0  0  0  0  0  0  0  0  0  0
    7.6840   -2.4208   23.2922 C   0  0  0  0  0  0  0  0  0  0  0  0
    7.3886   -3.8693   23.5983 C   0  0  0  0  0  0  0  0  0  0  0  0
    6.5857   -1.9340   22.5145 O   0  0  0  0  0  0  0  0  0  0  0  0
  1  2  1  0
  2  3  1  0
  3  4  1  0
  4  5  1  0
  5  6  1  0
  6  7  2  0
  7  8  1  0
  8  9  2  0
  9 10  1  0
 10 11  2  0
 11 12  1  0
 12 13  1  0
 13 14  2  0
 13 15  1  0
 15 16  1  0
 16 17  1  0
 17 18  1  0
 18 19  2  0
 19 20  1  0
 20 21  1  0
  4 22  1  0
 22 23  1  0
 23 24  1  0
 23 25  1  0
 25  2  1  0
 11  6  1  0
 21 17  2  0
M  END
