CVD-0004072|dock_bobby27042020.85|mol2|46|dock2
     RDKit          3D

 22 24  0  0  0  0  0  0  0  0999 V2000
   13.9421   -2.2263   24.6833 C   0  0  0  0  0  0  0  0  0  0  0  0
   13.2059   -2.3252   23.4659 O   0  0  0  0  0  0  0  0  0  0  0  0
   12.4047   -1.2879   23.0587 C   0  0  0  0  0  0  0  0  0  0  0  0
   12.6936    0.0266   23.3896 C   0  0  0  0  0  0  0  0  0  0  0  0
   11.8286    0.9997   22.9341 C   0  0  0  0  0  0  0  0  0  0  0  0
   10.7392    0.7483   22.1994 N   0  0  0  0  0  0  0  0  0  0  0  0
   10.4709   -0.5232   21.8867 C   0  0  0  0  0  0  0  0  0  0  0  0
    9.3200   -0.7694   21.1127 N   0  0  0  0  0  0  0  0  0  0  0  0
    8.4574    0.0304   20.4316 C   0  0  0  0  0  0  0  0  0  0  0  0
    8.6000    1.2488   20.4058 O   0  0  0  0  0  0  0  0  0  0  0  0
    7.2964   -0.6093   19.6939 C   0  0  0  0  0  0  0  0  0  0  0  0
    6.1896    0.3770   19.3969 C   0  0  0  0  0  0  0  0  0  0  0  0
    6.2021    1.1032   18.2151 C   0  0  0  0  0  0  0  0  0  0  0  0
    5.2174    1.9962   17.9188 C   0  0  0  0  0  0  0  0  0  0  0  0
    4.1415    2.2137   18.8116 C   0  0  0  0  0  0  0  0  0  0  0  0
    3.0930    3.1288   18.5543 C   0  0  0  0  0  0  0  0  0  0  0  0
    2.0813    3.2959   19.4531 C   0  0  0  0  0  0  0  0  0  0  0  0
    2.0574    2.5783   20.6310 C   0  0  0  0  0  0  0  0  0  0  0  0
    3.0451    1.6851   20.9237 C   0  0  0  0  0  0  0  0  0  0  0  0
    4.1161    1.4768   20.0225 C   0  0  0  0  0  0  0  0  0  0  0  0
    5.1618    0.5617   20.2837 C   0  0  0  0  0  0  0  0  0  0  0  0
   11.2828   -1.5793   22.2987 C   0  0  0  0  0  0  0  0  0  0  0  0
  1  2  1  0
  2  3  1  0
  3  4  2  0
  4  5  1  0
  5  6  2  0
  6  7  1  0
  7  8  1  0
  8  9  1  0
  9 10  2  0
  9 11  1  0
 11 12  1  0
 12 13  2  0
 13 14  1  0
 14 15  2  0
 15 16  1  0
 16 17  2  0
 17 18  1  0
 18 19  2  0
 19 20  1  0
 20 21  2  0
  7 22  2  0
 22  3  1  0
 21 12  1  0
 20 15  1  0
M  END
