CVD-0001843|dock_bobby27042020.51|mol2|14|dock3
     RDKit          3D

 25 27  0  0  0  0  0  0  0  0999 V2000
    6.2007    3.2803   21.7103 C   0  0  0  0  0  0  0  0  0  0  0  0
    7.1596    2.1777   21.3935 C   0  0  0  0  0  0  0  0  0  0  0  0
    8.2947    2.1796   21.8130 O   0  0  0  0  0  0  0  0  0  0  0  0
    6.6324    1.0592   20.5319 C   0  0  0  0  0  0  0  0  0  0  0  0
    7.5709   -0.1506   20.3830 C   0  0  0  0  0  0  0  0  0  0  0  0
    7.9103   -0.7014   21.7650 C   0  0  0  0  0  0  0  0  0  0  0  0
    7.0949   -0.6851   22.6613 O   0  0  0  0  0  0  0  0  0  0  0  0
    9.2954   -1.2617   21.9738 C   0  0  0  0  0  0  0  0  0  0  0  0
   10.3729   -0.2135   22.2359 C   0  0  0  0  0  0  0  0  0  0  0  0
   11.7279   -0.8384   22.5688 C   0  0  0  0  0  0  0  0  0  0  0  0
   12.7156    0.1183   23.2422 C   0  0  0  0  0  0  0  0  0  0  0  0
   14.0892   -0.2396   22.6730 C   0  0  0  0  0  0  0  0  0  0  0  0
   14.9777    0.8393   22.5708 F   0  0  0  0  0  0  0  0  0  0  0  0
   13.7285   -0.8400   21.3240 C   0  0  0  0  0  0  0  0  0  0  0  0
   14.5144   -1.0552   20.4052 O   0  0  0  0  0  0  0  0  0  0  0  0
   12.4327   -1.1577   21.3339 N   0  0  0  0  0  0  0  0  0  0  0  0
    6.9301   -1.2229   19.5318 C   0  0  0  0  0  0  0  0  0  0  0  0
    6.4190   -1.0715   18.2760 C   0  0  0  0  0  0  0  0  0  0  0  0
    5.9219   -2.2587   17.8068 N   0  0  0  0  0  0  0  0  0  0  0  0
    6.1051   -3.2138   18.7626 C   0  0  0  0  0  0  0  0  0  0  0  0
    5.7652   -4.5121   18.7041 N   0  0  0  0  0  0  0  0  0  0  0  0
    6.0683   -5.2083   19.8026 C   0  0  0  0  0  0  0  0  0  0  0  0
    6.6501   -4.7666   20.9154 N   0  0  0  0  0  0  0  0  0  0  0  0
    6.9705   -3.4688   20.9340 C   0  0  0  0  0  0  0  0  0  0  0  0
    6.7286   -2.6070   19.8643 C   0  0  0  0  0  0  0  0  0  0  0  0
  1  2  1  0
  2  3  2  0
  2  4  1  0
  4  5  1  0
  5  6  1  0
  6  7  2  0
  6  8  1  0
  8  9  1  0
  9 10  1  0
 10 11  1  0
 11 12  1  0
 12 13  1  0
 12 14  1  0
 14 15  2  0
 14 16  1  0
  5 17  1  0
 17 18  2  0
 18 19  1  0
 19 20  1  0
 20 21  2  0
 21 22  1  0
 22 23  2  0
 23 24  1  0
 24 25  2  0
 16 10  1  0
 25 17  1  0
 25 20  1  0
M  END
