CVD-0000108|dock_bobby27042020.28|mol2|25|dock1
     RDKit          3D

 17 19  0  0  0  0  0  0  0  0999 V2000
    5.5110    0.2203   17.9058 O   0  0  0  0  0  0  0  0  0  0  0  0
    6.5016    0.0490   18.8282 C   0  0  0  0  0  0  0  0  0  0  0  0
    6.7168    1.0032   19.8066 C   0  0  0  0  0  0  0  0  0  0  0  0
    7.7282    0.8341   20.7356 C   0  0  0  0  0  0  0  0  0  0  0  0
    8.5403   -0.2980   20.7171 C   0  0  0  0  0  0  0  0  0  0  0  0
    8.2991   -1.2548   19.7341 C   0  0  0  0  0  0  0  0  0  0  0  0
    7.2995   -1.0806   18.7938 C   0  0  0  0  0  0  0  0  0  0  0  0
    9.5840   -0.4605   21.6906 N   0  0  0  0  0  0  0  0  0  0  0  0
   11.0461   -1.5647   21.2461 Se  0  0  0  0  0  2  0  0  0  0  0  0
   11.3006   -1.6812   23.1641 C   0  0  0  0  0  0  0  0  0  0  0  0
   12.7117   -2.0487   23.5591 C   0  0  0  0  0  0  0  0  0  0  0  0
   13.6528   -1.1147   23.6854 C   0  0  0  0  0  0  0  0  0  0  0  0
   13.3566    0.2466   23.4748 C   0  0  0  0  0  0  0  0  0  0  0  0
   12.0965    0.6770   23.4375 C   0  0  0  0  0  0  0  0  0  0  0  0
   10.9439   -0.2686   23.6405 C   0  0  0  0  0  0  0  0  0  0  0  0
    9.6443    0.0963   22.9386 C   0  0  0  0  0  0  0  0  0  0  0  0
    8.7790    0.7885   23.4390 O   0  0  0  0  0  0  0  0  0  0  0  0
  1  2  1  0
  2  3  2  0
  3  4  1  0
  4  5  2  0
  5  6  1  0
  6  7  2  0
  5  8  1  0
  8  9  1  0
  9 10  1  0
 10 11  1  0
 11 12  2  0
 12 13  1  0
 13 14  2  0
 14 15  1  0
 15 16  1  0
 16 17  2  0
  7  2  1  0
 16  8  1  0
 15 10  1  0
M  END
