CVD-0001234|dock_bobby27042020.96|mol2|4|dock3
     RDKit          3D

 22 24  0  0  0  0  0  0  0  0999 V2000
   11.7789   -1.8754   21.6284 C   0  0  0  0  0  0  0  0  0  0  0  0
   10.7394   -1.1175   22.3057 N   0  0  0  0  0  0  0  0  0  0  0  0
   11.0072   -0.6941   23.6718 C   0  0  0  0  0  0  0  0  0  0  0  0
   11.9585    0.4856   23.7747 C   0  0  0  0  0  0  0  0  0  0  0  0
   12.9786    0.4012   24.4500 O   0  0  0  0  0  0  0  0  0  0  0  0
   11.5530    1.5630   23.0584 N   0  0  0  0  0  0  0  0  0  0  0  0
   12.1612    2.8386   22.8925 C   0  0  0  0  0  0  0  0  0  0  0  0
   13.5343    3.0386   22.7475 C   0  0  0  0  0  0  0  0  0  0  0  0
   14.1042    4.2375   22.5904 N   0  0  0  0  0  0  0  0  0  0  0  0
   13.3080    5.3025   22.5722 C   0  0  0  0  0  0  0  0  0  0  0  0
   11.9402    5.2209   22.7069 C   0  0  0  0  0  0  0  0  0  0  0  0
   11.3349    3.9787   22.8718 C   0  0  0  0  0  0  0  0  0  0  0  0
    9.8354    3.9227   23.0129 C   0  0  0  0  0  0  0  0  0  0  0  0
    9.5539   -0.8073   21.6911 C   0  0  0  0  0  0  0  0  0  0  0  0
    8.4886   -0.1149   22.1742 C   0  0  0  0  0  0  0  0  0  0  0  0
    7.5142   -0.0766   21.1266 C   0  0  0  0  0  0  0  0  0  0  0  0
    6.2295    0.4729   20.9946 C   0  0  0  0  0  0  0  0  0  0  0  0
    5.5277    0.3286   19.8095 C   0  0  0  0  0  0  0  0  0  0  0  0
    6.0837   -0.3561   18.7476 C   0  0  0  0  0  0  0  0  0  0  0  0
    7.3505   -0.9112   18.8445 C   0  0  0  0  0  0  0  0  0  0  0  0
    8.0591   -0.7684   20.0338 C   0  0  0  0  0  0  0  0  0  0  0  0
    9.3165   -1.2112   20.4010 N   0  0  0  0  0  0  0  0  0  0  0  0
  1  2  1  0
  2  3  1  0
  3  4  1  0
  4  5  2  0
  4  6  1  0
  6  7  1  0
  7  8  2  0
  8  9  1  0
  9 10  2  0
 10 11  1  0
 11 12  2  0
 12 13  1  0
  2 14  1  0
 14 15  2  0
 15 16  1  0
 16 17  2  0
 17 18  1  0
 18 19  2  0
 19 20  1  0
 20 21  2  0
 21 22  1  0
 12  7  1  0
 22 14  1  0
 21 16  1  0
M  END
