CVD-0001721|dock_bobby27042020.8|mol2|35|dock2
     RDKit          3D

 24 26  0  0  0  0  0  0  0  0999 V2000
   13.6129    5.5437   22.0326 Cl  0  0  0  0  0  0  0  0  0  0  0  0
   12.1946    4.6965   22.5831 C   0  0  0  0  0  0  0  0  0  0  0  0
   11.0824    5.4171   22.9515 C   0  0  0  0  0  0  0  0  0  0  0  0
    9.9668    4.7287   23.3921 C   0  0  0  0  0  0  0  0  0  0  0  0
    9.9736    3.3455   23.4636 C   0  0  0  0  0  0  0  0  0  0  0  0
   11.0961    2.6163   23.0809 C   0  0  0  0  0  0  0  0  0  0  0  0
   12.2154    3.3182   22.6374 C   0  0  0  0  0  0  0  0  0  0  0  0
   11.1075    1.1740   23.1309 N   0  0  0  0  0  0  0  0  0  0  0  0
   12.1048    0.5974   24.0324 C   0  0  0  0  0  0  0  0  0  0  0  0
   12.5956   -0.6767   23.5524 N   0  0  0  0  0  0  0  0  0  0  0  0
   13.5791   -1.2483   24.4764 C   0  0  0  0  0  0  0  0  0  0  0  0
   14.0612   -2.5608   23.9521 C   0  0  0  0  0  0  0  0  0  0  0  0
   14.6644   -2.4241   22.6706 O   0  0  0  0  0  0  0  0  0  0  0  0
   13.7299   -1.8654   21.7623 C   0  0  0  0  0  0  0  0  0  0  0  0
   13.2151   -0.5390   22.2353 C   0  0  0  0  0  0  0  0  0  0  0  0
   10.1978    0.3874   22.4053 C   0  0  0  0  0  0  0  0  0  0  0  0
   10.2082   -0.8219   22.5918 O   0  0  0  0  0  0  0  0  0  0  0  0
    9.3178    0.9655   21.5168 N   0  0  0  0  0  0  0  0  0  0  0  0
    8.3200    0.3787   20.6933 C   0  0  0  0  0  0  0  0  0  0  0  0
    7.2225    1.1611   20.3553 C   0  0  0  0  0  0  0  0  0  0  0  0
    6.2222    0.6408   19.5536 C   0  0  0  0  0  0  0  0  0  0  0  0
    6.3439   -0.6537   19.1072 C   0  0  0  0  0  0  0  0  0  0  0  0
    7.3809   -1.4329   19.4121 N   0  0  0  0  0  0  0  0  0  0  0  0
    8.3408   -0.9223   20.1897 C   0  0  0  0  0  0  0  0  0  0  0  0
  1  2  1  0
  2  3  2  0
  3  4  1  0
  4  5  2  0
  5  6  1  0
  6  7  2  0
  6  8  1  0
  8  9  1  0
  9 10  1  0
 10 11  1  0
 11 12  1  0
 12 13  1  0
 13 14  1  0
 14 15  1  0
  8 16  1  0
 16 17  2  0
 16 18  1  0
 18 19  1  0
 19 20  2  0
 20 21  1  0
 21 22  2  0
 22 23  1  0
 23 24  2  0
  7  2  1  0
 15 10  1  0
 24 19  1  0
M  END
