CVD-0002124|dock_bobby27042020.50|mol2|12|dock2
     RDKit          3D

 21 22  0  0  0  0  0  0  0  0999 V2000
   14.5296   -2.1182   24.2043 N   0  0  0  0  0  0  0  0  0  0  0  0
   13.0086   -2.0986   24.7321 S   0  0  0  0  0  0  0  0  0  0  0  0
   13.0008   -1.7362   26.1185 O   0  0  0  0  0  0  0  0  0  0  0  0
   12.3672   -3.3051   24.3002 O   0  0  0  0  0  0  0  0  0  0  0  0
   12.1617   -0.7996   23.8993 C   0  0  0  0  0  0  0  0  0  0  0  0
   10.8770   -0.7849   24.2516 O   0  0  0  0  0  0  0  0  0  0  0  0
   10.0613   -0.8763   23.1314 C   0  0  0  0  0  0  0  0  0  0  0  0
    9.1140   -2.0254   23.4363 C   0  0  0  0  0  0  0  0  0  0  0  0
    8.0752   -2.5478   22.0476 S   0  0  0  0  0  0  0  0  0  0  0  0
    6.5931   -1.5012   22.1889 C   0  0  0  0  0  0  0  0  0  0  0  0
    6.5501   -0.4279   21.2015 N   0  0  0  0  0  0  0  0  0  0  0  0
    6.5211   -0.9730   19.8389 C   0  0  0  0  0  0  0  0  0  0  0  0
    6.5309    0.1245   18.7931 C   0  0  0  0  0  0  0  0  0  0  0  0
    5.3854    1.1142   18.9680 C   0  0  0  0  0  0  0  0  0  0  0  0
    5.4434    2.2297   18.0748 O   0  0  0  0  0  0  0  0  0  0  0  0
    5.3759    1.5878   20.4172 C   0  0  0  0  0  0  0  0  0  0  0  0
    5.3809    0.4319   21.4036 C   0  0  0  0  0  0  0  0  0  0  0  0
   10.8750   -0.9474   21.9622 C   0  0  0  0  0  0  0  0  0  0  0  0
   10.6166   -2.1872   21.3095 O   0  0  0  0  0  0  0  0  0  0  0  0
   12.2686   -0.8685   22.4179 C   0  0  0  0  0  0  0  0  0  0  0  0
   13.0111   -2.0063   21.9903 O   0  0  0  0  0  0  0  0  0  0  0  0
  1  2  1  0
  2  3  2  0
  2  4  2  0
  2  5  1  0
  5  6  1  0
  6  7  1  0
  7  8  1  0
  8  9  1  0
  9 10  1  0
 10 11  1  0
 11 12  1  0
 12 13  1  0
 13 14  1  0
 14 15  1  0
 14 16  1  0
 16 17  1  0
  7 18  1  0
 18 19  1  0
 18 20  1  0
 20 21  1  0
 20  5  1  0
 17 11  1  0
M  END
