CVD-0001247|dock_bobby27042020.53|mol2|19|dock3
     RDKit          3D

 22 24  0  0  0  0  0  0  0  0999 V2000
    5.7290    0.3579   18.5012 C   0  0  0  0  0  0  0  0  0  0  0  0
    6.2800   -0.9960   18.8224 C   0  0  0  0  0  0  0  0  0  0  0  0
    6.1024   -1.3231   20.2272 N   0  0  0  0  0  0  0  0  0  0  0  0
    6.6569   -2.4053   20.7983 C   0  0  0  0  0  0  0  0  0  0  0  0
    6.0449   -3.5851   20.5737 N   0  0  0  0  0  0  0  0  0  0  0  0
    6.5730   -4.6816   21.1289 C   0  0  0  0  0  0  0  0  0  0  0  0
    7.7139   -4.6680   21.9221 C   0  0  0  0  0  0  0  0  0  0  0  0
    8.3358   -3.4453   22.1472 C   0  0  0  0  0  0  0  0  0  0  0  0
    7.8195   -2.2825   21.5875 C   0  0  0  0  0  0  0  0  0  0  0  0
    8.5131   -0.9577   21.8510 C   0  0  0  0  0  0  0  0  0  0  0  0
    9.9025   -1.0901   22.4404 C   0  0  0  0  0  0  0  0  0  0  0  0
   10.9358   -1.6587   21.7072 C   0  0  0  0  0  0  0  0  0  0  0  0
   12.2081   -1.7857   22.2417 C   0  0  0  0  0  0  0  0  0  0  0  0
   12.4628   -1.3384   23.5338 C   0  0  0  0  0  0  0  0  0  0  0  0
   13.7291   -1.3550   24.3393 C   0  0  0  0  0  0  0  0  0  0  0  0
   13.2934   -0.7342   25.5714 N   0  0  0  0  0  0  0  0  0  0  0  0
   11.9935   -0.3873   25.5928 C   0  0  0  0  0  0  0  0  0  0  0  0
   11.4227    0.1556   26.5333 O   0  0  0  0  0  0  0  0  0  0  0  0
   11.4423   -0.7701   24.2746 C   0  0  0  0  0  0  0  0  0  0  0  0
   10.1645   -0.6449   23.7323 C   0  0  0  0  0  0  0  0  0  0  0  0
    8.2407   -5.8814   22.4965 C   0  0  0  0  0  0  0  0  0  0  0  0
    8.6380   -6.8600   22.9315 N   0  0  0  0  0  0  0  0  0  0  0  0
  1  2  1  0
  2  3  1  0
  3  4  1  0
  4  5  2  0
  5  6  1  0
  6  7  2  0
  7  8  1  0
  8  9  2  0
  9 10  1  0
 10 11  1  0
 11 12  2  0
 12 13  1  0
 13 14  2  0
 14 15  1  0
 15 16  1  0
 16 17  1  0
 17 18  2  0
 17 19  1  0
 19 20  2  0
  7 21  1  0
 21 22  3  0
  9  4  1  0
 20 11  1  0
 19 14  1  0
M  END
