CVD-0003728|dock_bobby27042020.87|mol2|5|dock2
     RDKit          3D

 26 28  0  0  0  0  0  0  0  0999 V2000
    6.0351   -4.7616   21.2862 N   0  0  0  0  0  0  0  0  0  0  0  0
    6.6894   -5.6501   22.0230 C   0  0  0  0  0  0  0  0  0  0  0  0
    7.2098   -6.6566   21.5322 O   0  0  0  0  0  0  0  0  0  0  0  0
    6.7065   -5.2491   23.5151 C   0  0  0  0  0  0  0  0  0  0  0  0
    6.1910   -6.0616   24.2744 O   0  0  0  0  0  0  0  0  0  0  0  0
    7.2347   -4.0988   23.9891 N   0  0  0  0  0  0  0  0  0  0  0  0
    7.1876   -3.6656   25.3923 C   0  0  0  0  0  0  0  0  0  0  0  0
    6.8041   -2.2020   25.4732 C   0  0  0  0  0  0  0  0  0  0  0  0
    7.7676   -1.3506   24.6564 C   0  0  0  0  0  0  0  0  0  0  0  0
    7.8141   -1.8578   23.2265 C   0  0  0  0  0  0  0  0  0  0  0  0
    8.1705   -3.3348   23.1585 C   0  0  0  0  0  0  0  0  0  0  0  0
    8.7694   -1.0847   22.4087 N   0  0  0  0  0  0  0  0  0  0  0  0
    8.2623    0.1910   21.8818 C   0  0  0  0  0  0  0  0  0  0  0  0
    7.0428    0.0699   20.9748 C   0  0  0  0  0  0  0  0  0  0  0  0
    7.2743   -0.9777   19.8666 C   0  0  0  0  0  0  0  0  0  0  0  0
    6.0974   -1.0707   18.8972 C   0  0  0  0  0  0  0  0  0  0  0  0
    5.7543    0.2919   18.3092 C   0  0  0  0  0  0  0  0  0  0  0  0
    5.4956    1.3143   19.4065 C   0  0  0  0  0  0  0  0  0  0  0  0
    6.6911    1.4292   20.3467 C   0  0  0  0  0  0  0  0  0  0  0  0
   10.1738   -1.0519   22.8592 C   0  0  0  0  0  0  0  0  0  0  0  0
   10.5166    0.2812   23.5165 C   0  0  0  0  0  0  0  0  0  0  0  0
   11.9636    0.2496   24.0153 C   0  0  0  0  0  0  0  0  0  0  0  0
   12.9537   -0.0805   22.9151 C   0  0  0  0  0  0  0  0  0  0  0  0
   14.2966   -0.1412   23.4075 O   0  0  0  0  0  0  0  0  0  0  0  0
   12.5624   -1.3828   22.2345 C   0  0  0  0  0  0  0  0  0  0  0  0
   11.1219   -1.3585   21.7107 C   0  0  0  0  0  0  0  0  0  0  0  0
  1  2  1  0
  2  3  2  0
  2  4  1  0
  4  5  2  0
  4  6  1  0
  6  7  1  0
  7  8  1  0
  8  9  1  0
  9 10  1  0
 10 11  1  0
 10 12  1  0
 12 13  1  0
 13 14  1  0
 14 15  1  0
 15 16  1  0
 16 17  1  0
 17 18  1  0
 18 19  1  0
 12 20  1  0
 20 21  1  0
 21 22  1  0
 22 23  1  0
 23 24  1  0
 23 25  1  0
 25 26  1  0
 11  6  1  0
 19 14  1  0
 26 20  1  0
M  END
