CVD-0000812|dock_bobby27042020.40|mol2|22|dock3
     RDKit          3D

 19 21  0  0  0  0  0  0  0  0999 V2000
    5.5942    0.5383   18.4268 C   0  0  0  0  0  0  0  0  0  0  0  0
    6.4370   -0.1739   19.3808 N   0  0  0  0  0  0  0  0  0  0  0  0
    5.5996   -0.9542   20.2846 C   0  0  0  0  0  0  0  0  0  0  0  0
    7.2658    0.7674   20.1415 C   0  0  0  0  0  0  0  0  0  0  0  0
    8.5091    0.1381   20.7134 C   0  0  0  0  0  0  0  0  0  0  0  0
    8.8881   -1.1660   20.6233 C   0  0  0  0  0  0  0  0  0  0  0  0
   10.0765   -1.3614   21.2710 N   0  0  0  0  0  0  0  0  0  0  0  0
   10.4971   -0.1692   21.8160 C   0  0  0  0  0  0  0  0  0  0  0  0
   11.6312    0.1659   22.5864 C   0  0  0  0  0  0  0  0  0  0  0  0
   11.7967    1.5077   22.9449 C   0  0  0  0  0  0  0  0  0  0  0  0
   10.8469    2.4274   22.5727 C   0  0  0  0  0  0  0  0  0  0  0  0
   11.0371    3.7227   22.9423 F   0  0  0  0  0  0  0  0  0  0  0  0
    9.7188    2.1253   21.8541 C   0  0  0  0  0  0  0  0  0  0  0  0
    9.5364    0.8024   21.4620 C   0  0  0  0  0  0  0  0  0  0  0  0
   12.6642   -0.8142   23.0441 C   0  0  0  0  0  0  0  0  0  0  0  0
   13.1661   -1.8821   22.3760 C   0  0  0  0  0  0  0  0  0  0  0  0
   14.1621   -2.5460   23.1943 C   0  0  0  0  0  0  0  0  0  0  0  0
   14.2546   -1.8674   24.3871 C   0  0  0  0  0  0  0  0  0  0  0  0
   13.3086   -0.7425   24.3495 C   0  0  0  0  0  0  0  0  0  0  0  0
  1  2  1  0
  2  3  1  0
  2  4  1  0
  4  5  1  0
  5  6  2  0
  6  7  1  0
  7  8  1  0
  8  9  2  0
  9 10  1  0
 10 11  2  0
 11 12  1  0
 11 13  1  0
 13 14  2  0
  9 15  1  0
 15 16  2  0
 16 17  1  0
 17 18  2  0
 18 19  1  0
 14  5  1  0
 19 15  1  0
 14  8  1  0
M  END
