CVD-0000119|dock_bobby27042020.57|mol2|14|dock1
     RDKit          3D

 15 16  0  0  0  0  0  0  0  0999 V2000
   13.3811   -0.2791   24.6298 C   0  0  0  0  0  0  0  0  0  0  0  0
   12.9556   -1.5901   23.9694 C   0  0  0  0  0  0  0  0  0  0  0  0
   13.9696   -1.9468   22.8813 C   0  0  0  0  0  0  0  0  0  0  0  0
   12.9787   -2.6905   25.0389 C   0  0  0  0  0  0  0  0  0  0  0  0
   14.2332   -2.8637   25.6872 O   0  0  0  0  0  0  0  0  0  0  0  0
   11.5877   -1.4200   23.3863 N   0  0  0  0  0  0  0  0  0  0  0  0
   11.2481   -1.7473   21.5624 Se  0  0  0  0  0  2  0  0  0  0  0  0
    9.7160   -0.5953   21.8560 C   0  0  0  0  0  0  0  0  0  0  0  0
    8.6150   -0.8025   20.8421 C   0  0  0  0  0  0  0  0  0  0  0  0
    7.6849   -1.7393   21.0185 C   0  0  0  0  0  0  0  0  0  0  0  0
    7.6850   -2.5551   22.1671 C   0  0  0  0  0  0  0  0  0  0  0  0
    8.4150   -2.2366   23.2346 C   0  0  0  0  0  0  0  0  0  0  0  0
    9.2497   -0.9850   23.2649 C   0  0  0  0  0  0  0  0  0  0  0  0
   10.5050   -1.0418   24.1223 C   0  0  0  0  0  0  0  0  0  0  0  0
   10.5510   -0.7891   25.3107 O   0  0  0  0  0  0  0  0  0  0  0  0
  1  2  1  0
  2  3  1  0
  2  4  1  0
  4  5  1  0
  2  6  1  0
  6  7  1  0
  7  8  1  0
  8  9  1  0
  9 10  2  0
 10 11  1  0
 11 12  2  0
 12 13  1  0
 13 14  1  0
 14 15  2  0
 14  6  1  0
 13  8  1  0
M  END
