CVD-0002951|dock_bobby27042020.89|mol2|30|dock1
     RDKit          3D

 28 30  0  0  0  0  0  0  0  0999 V2000
   10.0953   -5.3368   27.1250 Cl  0  0  0  0  0  0  0  0  0  0  0  0
    8.9054   -4.0973   26.7067 C   0  0  0  0  0  0  0  0  0  0  0  0
    8.1376   -4.4726   25.4540 C   0  0  0  0  0  0  0  0  0  0  0  0
    7.0074   -4.9391   25.5244 O   0  0  0  0  0  0  0  0  0  0  0  0
    8.7511   -4.2673   24.2671 N   0  0  0  0  0  0  0  0  0  0  0  0
   10.1129   -3.7632   24.1814 C   0  0  0  0  0  0  0  0  0  0  0  0
   10.1509   -2.2808   23.9834 C   0  0  0  0  0  0  0  0  0  0  0  0
   10.3900   -1.5491   22.8589 C   0  0  0  0  0  0  0  0  0  0  0  0
   10.2958   -0.2666   23.2461 N   0  0  0  0  0  0  0  0  0  0  0  0
   10.4861    0.9408   22.4556 C   0  0  0  0  0  0  0  0  0  0  0  0
    9.2113    1.3337   21.7290 C   0  0  0  0  0  0  0  0  0  0  0  0
    8.5959    2.3441   22.0523 O   0  0  0  0  0  0  0  0  0  0  0  0
    8.8636    0.4691   20.7453 N   0  0  0  0  0  0  0  0  0  0  0  0
    7.7642    0.4631   19.8515 C   0  0  0  0  0  0  0  0  0  0  0  0
    6.5586    1.0163   20.2635 C   0  0  0  0  0  0  0  0  0  0  0  0
    5.4760    1.0179   19.4019 C   0  0  0  0  0  0  0  0  0  0  0  0
    5.6291    0.4659   18.1515 C   0  0  0  0  0  0  0  0  0  0  0  0
    6.7722   -0.0724   17.7264 N   0  0  0  0  0  0  0  0  0  0  0  0
    7.8126   -0.0697   18.5654 C   0  0  0  0  0  0  0  0  0  0  0  0
   10.0304   -0.1864   24.5607 N   0  0  0  0  0  0  0  0  0  0  0  0
    9.9301   -1.4182   25.0087 N   0  0  0  0  0  0  0  0  0  0  0  0
    8.0714   -4.5469   22.9907 C   0  0  0  0  0  0  0  0  0  0  0  0
    7.6608   -6.0151   22.8141 C   0  0  0  0  0  0  0  0  0  0  0  0
    6.6828   -6.0663   21.6503 C   0  0  0  0  0  0  0  0  0  0  0  0
    5.7229   -4.5527   21.7469 S   0  0  0  0  0  0  0  0  0  0  0  0
    4.4705   -4.7951   22.4106 O   0  0  0  0  0  0  0  0  0  0  0  0
    5.6881   -3.9257   20.4533 O   0  0  0  0  0  0  0  0  0  0  0  0
    6.8385   -3.6795   22.8516 C   0  0  0  0  0  0  0  0  0  0  0  0
  1  2  1  0
  2  3  1  0
  3  4  2  0
  3  5  1  0
  5  6  1  0
  6  7  1  0
  7  8  2  0
  8  9  1  0
  9 10  1  0
 10 11  1  0
 11 12  2  0
 11 13  1  0
 13 14  1  0
 14 15  2  0
 15 16  1  0
 16 17  2  0
 17 18  1  0
 18 19  2  0
  9 20  1  0
 20 21  2  0
  5 22  1  0
 22 23  1  0
 23 24  1  0
 24 25  1  0
 25 26  2  0
 25 27  2  0
 25 28  1  0
 21  7  1  0
 28 22  1  0
 19 14  1  0
M  END
