CVD-0002399|dock_bobby27042020.6|mol2|7|dock2
     RDKit          3D

 27 30  0  0  0  0  0  0  0  0999 V2000
    5.0140    0.4436   17.5089 C   0  0  0  0  0  0  0  0  0  0  0  0
    6.1127    0.4263   18.5282 C   0  0  0  0  0  0  0  0  0  0  0  0
    6.0607    1.2300   19.6589 C   0  0  0  0  0  0  0  0  0  0  0  0
    7.0962    1.1842   20.5730 C   0  0  0  0  0  0  0  0  0  0  0  0
    8.1767    0.3393   20.3539 C   0  0  0  0  0  0  0  0  0  0  0  0
    8.1484   -0.4226   19.1956 C   0  0  0  0  0  0  0  0  0  0  0  0
    7.1499   -0.3901   18.3042 N   0  0  0  0  0  0  0  0  0  0  0  0
    9.2822    0.2577   21.2918 N   0  0  0  0  0  0  0  0  0  0  0  0
    9.9556    1.4454   21.6172 C   0  0  0  0  0  0  0  0  0  0  0  0
    9.6563    2.5180   21.1152 O   0  0  0  0  0  0  0  0  0  0  0  0
   11.0119    1.3599   22.5290 N   0  0  0  0  0  0  0  0  0  0  0  0
   11.7058    2.5920   22.8292 C   0  0  0  0  0  0  0  0  0  0  0  0
   13.0867    2.6742   22.6924 C   0  0  0  0  0  0  0  0  0  0  0  0
   13.7469    3.8575   22.9788 C   0  0  0  0  0  0  0  0  0  0  0  0
   13.0417    4.9635   23.4011 C   0  0  0  0  0  0  0  0  0  0  0  0
   11.6726    4.8911   23.5385 C   0  0  0  0  0  0  0  0  0  0  0  0
   11.0023    3.7129   23.2547 C   0  0  0  0  0  0  0  0  0  0  0  0
   11.4159    0.1396   23.1268 C   0  0  0  0  0  0  0  0  0  0  0  0
   12.4386    0.0647   24.0715 C   0  0  0  0  0  0  0  0  0  0  0  0
   12.8133   -1.1620   24.5857 C   0  0  0  0  0  0  0  0  0  0  0  0
   14.1012   -1.2429   25.7428 Cl  0  0  0  0  0  0  0  0  0  0  0  0
   12.1647   -2.3101   24.1789 C   0  0  0  0  0  0  0  0  0  0  0  0
   12.5473   -3.5071   24.6798 F   0  0  0  0  0  0  0  0  0  0  0  0
   11.1365   -2.2601   23.2761 C   0  0  0  0  0  0  0  0  0  0  0  0
   10.7416   -1.0311   22.7487 C   0  0  0  0  0  0  0  0  0  0  0  0
    9.6137   -1.0099   21.8106 C   0  0  0  0  0  0  0  0  0  0  0  0
    9.0069   -2.0271   21.5205 O   0  0  0  0  0  0  0  0  0  0  0  0
  1  2  1  0
  2  3  2  0
  3  4  1  0
  4  5  2  0
  5  6  1  0
  6  7  2  0
  5  8  1  0
  8  9  1  0
  9 10  2  0
  9 11  1  0
 11 12  1  0
 12 13  2  0
 13 14  1  0
 14 15  2  0
 15 16  1  0
 16 17  2  0
 11 18  1  0
 18 19  2  0
 19 20  1  0
 20 21  1  0
 20 22  2  0
 22 23  1  0
 22 24  1  0
 24 25  2  0
 25 26  1  0
 26 27  2  0
  7  2  1  0
 26  8  1  0
 17 12  1  0
 25 18  1  0
M  END
