CVD-0002380|dock_bobby27042020.63|mol2|29|dock3
     RDKit          3D

 38 42  0  0  0  0  0  0  0  0999 V2000
    5.0365    0.7031   17.8959 C   0  0  0  0  0  0  0  0  0  0  0  0
    5.3681    0.0248   19.1516 N   0  0  0  0  0  0  0  0  0  0  0  0
    5.9534   -1.3098   18.9847 C   0  0  0  0  0  0  0  0  0  0  0  0
    6.5205   -1.8350   20.2773 C   0  0  0  0  0  0  0  0  0  0  0  0
    7.2606   -1.0801   21.2053 C   0  0  0  0  0  0  0  0  0  0  0  0
    7.6194   -1.8758   22.2764 C   0  0  0  0  0  0  0  0  0  0  0  0
    8.3979   -1.4468   23.4624 C   0  0  0  0  0  0  0  0  0  0  0  0
    7.6855   -1.2771   24.6495 C   0  0  0  0  0  0  0  0  0  0  0  0
    8.3199   -0.8262   25.7931 C   0  0  0  0  0  0  0  0  0  0  0  0
    9.6672   -0.5436   25.7734 C   0  0  0  0  0  0  0  0  0  0  0  0
   10.4109   -0.7374   24.6218 C   0  0  0  0  0  0  0  0  0  0  0  0
    9.7907   -1.2179   23.4689 C   0  0  0  0  0  0  0  0  0  0  0  0
   10.5557   -1.4983   22.3001 N   0  0  0  0  0  0  0  0  0  0  0  0
   12.1722   -1.2983   22.1827 S   0  0  0  0  0  0  0  0  0  0  0  0
   12.7489   -1.9674   23.3086 O   0  0  0  0  0  0  0  0  0  0  0  0
   12.5532   -1.6893   20.8600 O   0  0  0  0  0  0  0  0  0  0  0  0
   12.4897    0.4248   22.3562 C   0  0  0  0  0  0  0  0  0  0  0  0
   13.7945    0.8848   22.3446 C   0  0  0  0  0  0  0  0  0  0  0  0
   14.0268    2.2352   22.5085 C   0  0  0  0  0  0  0  0  0  0  0  0
   12.9814    3.1343   22.6834 C   0  0  0  0  0  0  0  0  0  0  0  0
   13.2476    4.6138   22.8201 C   0  0  0  0  0  0  0  0  0  0  0  0
   12.1255    5.3003   23.5709 C   0  0  0  0  0  0  0  0  0  0  0  0
   10.7885    4.9598   22.9373 C   0  0  0  0  0  0  0  0  0  0  0  0
   10.5922    3.5151   22.9227 N   0  0  0  0  0  0  0  0  0  0  0  0
    9.2156    3.0337   22.9356 C   0  0  0  0  0  0  0  0  0  0  0  0
   11.6527    2.6573   22.6941 C   0  0  0  0  0  0  0  0  0  0  0  0
   11.4211    1.2914   22.5281 C   0  0  0  0  0  0  0  0  0  0  0  0
    7.1070   -3.1711   21.9941 N   0  0  0  0  0  0  0  0  0  0  0  0
    6.4369   -3.1266   20.7778 C   0  0  0  0  0  0  0  0  0  0  0  0
    7.2036   -4.6393   22.8392 S   0  0  0  0  0  0  0  0  0  0  0  0
    7.9983   -4.3521   23.9928 O   0  0  0  0  0  0  0  0  0  0  0  0
    7.6467   -5.6390   21.9182 O   0  0  0  0  0  0  0  0  0  0  0  0
    5.5785   -5.0152   23.3993 C   0  0  0  0  0  0  0  0  0  0  0  0
    5.1615   -4.6144   24.6572 C   0  0  0  0  0  0  0  0  0  0  0  0
    3.8765   -4.9348   25.0600 C   0  0  0  0  0  0  0  0  0  0  0  0
    3.0676   -5.6382   24.1964 C   0  0  0  0  0  0  0  0  0  0  0  0
    3.4565   -6.0322   22.9829 N   0  0  0  0  0  0  0  0  0  0  0  0
    4.6981   -5.7197   22.6006 C   0  0  0  0  0  0  0  0  0  0  0  0
  1  2  1  0
  2  3  1  0
  3  4  1  0
  4  5  1  0
  5  6  2  0
  6  7  1  0
  7  8  2  0
  8  9  1  0
  9 10  2  0
 10 11  1  0
 11 12  2  0
 12 13  1  0
 13 14  1  0
 14 15  2  0
 14 16  2  0
 14 17  1  0
 17 18  2  0
 18 19  1  0
 19 20  2  0
 20 21  1  0
 21 22  1  0
 22 23  1  0
 23 24  1  0
 24 25  1  0
 24 26  1  0
 26 27  2  0
  6 28  1  0
 28 29  1  0
 28 30  1  0
 30 31  2  0
 30 32  2  0
 30 33  1  0
 33 34  2  0
 34 35  1  0
 35 36  2  0
 36 37  1  0
 37 38  2  0
 29  4  2  0
 38 33  1  0
 12  7  1  0
 27 17  1  0
 26 20  1  0
M  END
