CVD-0001724|dock_bobby27042020.66|mol2|17|dock2
     RDKit          3D

 25 27  0  0  0  0  0  0  0  0999 V2000
    5.2576   -6.6204   22.3438 Cl  0  0  0  0  0  0  0  0  0  0  0  0
    5.7179   -5.0253   22.8693 C   0  0  0  0  0  0  0  0  0  0  0  0
    5.1379   -4.4963   23.9997 C   0  0  0  0  0  0  0  0  0  0  0  0
    5.5137   -3.2281   24.4055 C   0  0  0  0  0  0  0  0  0  0  0  0
    6.4532   -2.5088   23.6855 C   0  0  0  0  0  0  0  0  0  0  0  0
    7.0352   -3.0464   22.5429 C   0  0  0  0  0  0  0  0  0  0  0  0
    6.6560   -4.3233   22.1408 C   0  0  0  0  0  0  0  0  0  0  0  0
    8.0191   -2.2830   21.8206 N   0  0  0  0  0  0  0  0  0  0  0  0
    9.4222   -2.5170   22.2001 C   0  0  0  0  0  0  0  0  0  0  0  0
    9.9958   -1.3511   22.9914 C   0  0  0  0  0  0  0  0  0  0  0  0
   11.2578   -1.6647   23.7948 C   0  0  0  0  0  0  0  0  0  0  0  0
   11.7232   -0.4366   24.6036 C   0  0  0  0  0  0  0  0  0  0  0  0
   13.0240   -0.6962   25.3610 C   0  0  0  0  0  0  0  0  0  0  0  0
   14.1201   -1.1927   24.4271 C   0  0  0  0  0  0  0  0  0  0  0  0
   13.6676   -2.4235   23.6547 C   0  0  0  0  0  0  0  0  0  0  0  0
   12.3899   -2.1437   22.8701 C   0  0  0  0  0  0  0  0  0  0  0  0
    7.8380   -1.3321   20.8129 C   0  0  0  0  0  0  0  0  0  0  0  0
    8.8433   -0.8499   20.3077 O   0  0  0  0  0  0  0  0  0  0  0  0
    6.5693   -0.9625   20.4389 N   0  0  0  0  0  0  0  0  0  0  0  0
    6.1402   -0.0210   19.4678 C   0  0  0  0  0  0  0  0  0  0  0  0
    5.0532    0.8380   19.6095 C   0  0  0  0  0  0  0  0  0  0  0  0
    4.7360    1.7074   18.5799 C   0  0  0  0  0  0  0  0  0  0  0  0
    5.5098    1.7022   17.4428 C   0  0  0  0  0  0  0  0  0  0  0  0
    6.5591    0.8974   17.2793 N   0  0  0  0  0  0  0  0  0  0  0  0
    6.8547    0.0604   18.2777 C   0  0  0  0  0  0  0  0  0  0  0  0
  1  2  1  0
  2  3  2  0
  3  4  1  0
  4  5  2  0
  5  6  1  0
  6  7  2  0
  6  8  1  0
  8  9  1  0
  9 10  1  0
 10 11  1  0
 11 12  1  0
 12 13  1  0
 13 14  1  0
 14 15  1  0
 15 16  1  0
  8 17  1  0
 17 18  2  0
 17 19  1  0
 19 20  1  0
 20 21  2  0
 21 22  1  0
 22 23  2  0
 23 24  1  0
 24 25  2  0
  7  2  1  0
 16 11  1  0
 25 20  1  0
M  END
