CVD-0002951|dock_bobby27042020.4|mol2|3|dock3
     RDKit          3D

 28 30  0  0  0  0  0  0  0  0999 V2000
    6.5153   -4.7287   22.1322 Cl  0  0  0  0  0  0  0  0  0  0  0  0
    6.9222   -3.0578   22.5443 C   0  0  0  0  0  0  0  0  0  0  0  0
    6.5153   -2.1073   21.4345 C   0  0  0  0  0  0  0  0  0  0  0  0
    5.7695   -2.4775   20.5365 O   0  0  0  0  0  0  0  0  0  0  0  0
    6.9904   -0.8414   21.4631 N   0  0  0  0  0  0  0  0  0  0  0  0
    7.9153   -0.4486   22.5174 C   0  0  0  0  0  0  0  0  0  0  0  0
    9.3208   -0.8761   22.2321 C   0  0  0  0  0  0  0  0  0  0  0  0
   10.4869   -0.5045   22.8319 C   0  0  0  0  0  0  0  0  0  0  0  0
   11.4494   -1.1811   22.1844 N   0  0  0  0  0  0  0  0  0  0  0  0
   12.8844   -1.1841   22.4290 C   0  0  0  0  0  0  0  0  0  0  0  0
   13.3789    0.1917   22.8414 C   0  0  0  0  0  0  0  0  0  0  0  0
   14.2851    0.3103   23.6594 O   0  0  0  0  0  0  0  0  0  0  0  0
   12.7250    1.2073   22.2275 N   0  0  0  0  0  0  0  0  0  0  0  0
   12.8785    2.6113   22.3361 C   0  0  0  0  0  0  0  0  0  0  0  0
   11.8145    3.5073   22.3557 C   0  0  0  0  0  0  0  0  0  0  0  0
   12.0737    4.8626   22.4653 C   0  0  0  0  0  0  0  0  0  0  0  0
   13.3807    5.2838   22.5519 C   0  0  0  0  0  0  0  0  0  0  0  0
   14.4200    4.4492   22.5358 N   0  0  0  0  0  0  0  0  0  0  0  0
   14.1594    3.1431   22.4297 C   0  0  0  0  0  0  0  0  0  0  0  0
   10.9185   -1.9638   21.2305 N   0  0  0  0  0  0  0  0  0  0  0  0
    9.6188   -1.7679   21.2527 N   0  0  0  0  0  0  0  0  0  0  0  0
    6.5985    0.1479   20.4374 C   0  0  0  0  0  0  0  0  0  0  0  0
    5.1136    0.5313   20.4963 C   0  0  0  0  0  0  0  0  0  0  0  0
    4.8087    1.3241   19.2344 C   0  0  0  0  0  0  0  0  0  0  0  0
    5.8107    0.5906   17.9381 S   0  0  0  0  0  0  0  0  0  0  0  0
    6.5091    1.6298   17.2308 O   0  0  0  0  0  0  0  0  0  0  0  0
    5.0333   -0.3422   17.1679 O   0  0  0  0  0  0  0  0  0  0  0  0
    6.9276   -0.2985   19.0288 C   0  0  0  0  0  0  0  0  0  0  0  0
  1  2  1  0
  2  3  1  0
  3  4  2  0
  3  5  1  0
  5  6  1  0
  6  7  1  0
  7  8  2  0
  8  9  1  0
  9 10  1  0
 10 11  1  0
 11 12  2  0
 11 13  1  0
 13 14  1  0
 14 15  2  0
 15 16  1  0
 16 17  2  0
 17 18  1  0
 18 19  2  0
  9 20  1  0
 20 21  2  0
  5 22  1  0
 22 23  1  0
 23 24  1  0
 24 25  1  0
 25 26  2  0
 25 27  2  0
 25 28  1  0
 21  7  1  0
 28 22  1  0
 19 14  1  0
M  END
