CVD-0002105|dock_bobby27042020.93|mol2|1|dock1
     RDKit          3D

 22 24  0  0  0  0  0  0  0  0999 V2000
   14.2202   -2.4406   24.4854 C   0  0  0  0  0  0  0  0  0  0  0  0
   12.9039   -2.0673   23.8530 C   0  0  0  0  0  0  0  0  0  0  0  0
   11.9192   -1.4928   24.7862 N   0  0  0  0  0  0  0  0  0  0  0  0
   12.3034   -0.1567   25.2147 C   0  0  0  0  0  0  0  0  0  0  0  0
   12.2328    0.8504   24.0198 C   0  0  0  0  0  0  0  0  0  0  0  0
   10.8638    0.8074   23.3184 C   0  0  0  0  0  0  0  0  0  0  0  0
   10.4907   -0.6368   22.9885 C   0  0  0  0  0  0  0  0  0  0  0  0
   10.5673   -1.5095   24.2319 C   0  0  0  0  0  0  0  0  0  0  0  0
    9.1021   -0.7202   22.3565 C   0  0  0  0  0  0  0  0  0  0  0  0
    9.1088   -0.3964   20.8872 C   0  0  0  0  0  0  0  0  0  0  0  0
    7.7508   -0.0191   20.3550 C   0  0  0  0  0  0  0  0  0  0  0  0
    7.5329    0.1496   18.9782 C   0  0  0  0  0  0  0  0  0  0  0  0
    8.5213   -0.0612   18.0553 O   0  0  0  0  0  0  0  0  0  0  0  0
    6.2566    0.4412   18.4971 C   0  0  0  0  0  0  0  0  0  0  0  0
    6.0623    0.5424   17.1565 O   0  0  0  0  0  0  0  0  0  0  0  0
    5.1885    0.5677   19.3734 C   0  0  0  0  0  0  0  0  0  0  0  0
    5.4056    0.4011   20.7281 C   0  0  0  0  0  0  0  0  0  0  0  0
    6.6771    0.1090   21.2244 C   0  0  0  0  0  0  0  0  0  0  0  0
    6.8869    0.0237   22.7193 C   0  0  0  0  0  0  0  0  0  0  0  0
    6.0829    1.0517   23.5031 C   0  0  0  0  0  0  0  0  0  0  0  0
    6.0635    2.3800   22.8509 N   0  0  0  0  0  0  0  0  0  0  0  0
    8.2630    0.2043   23.0644 O   0  0  0  0  0  0  0  0  0  0  0  0
  1  2  1  0
  2  3  1  0
  3  4  1  0
  4  5  1  0
  5  6  1  0
  6  7  1  0
  7  8  1  0
  7  9  1  0
  9 10  1  0
 10 11  1  0
 11 12  2  0
 12 13  1  0
 12 14  1  0
 14 15  1  0
 14 16  2  0
 16 17  1  0
 17 18  2  0
 18 19  1  0
 19 20  1  0
 20 21  1  0
 19 22  1  0
  8  3  1  0
 22  9  1  0
 18 11  1  0
M  END
