CVD-0002950|dock_bobby27042020.18|mol2|12|dock1
     RDKit          3D

 36 40  0  0  0  0  0  0  0  0999 V2000
    4.8652    0.5680   17.7367 Br  0  0  0  0  0  0  0  0  0  0  0  0
    5.1979    1.5756   19.3120 C   0  0  0  0  0  0  0  0  0  0  0  0
    4.1715    2.3047   19.8692 C   0  0  0  0  0  0  0  0  0  0  0  0
    4.4340    3.0413   21.0097 C   0  0  0  0  0  0  0  0  0  0  0  0
    5.7006    3.0427   21.5698 C   0  0  0  0  0  0  0  0  0  0  0  0
    6.7349    2.2875   21.0171 C   0  0  0  0  0  0  0  0  0  0  0  0
    6.4610    1.5538   19.8644 C   0  0  0  0  0  0  0  0  0  0  0  0
    8.1057    2.2409   21.6033 C   0  0  0  0  0  0  0  0  0  0  0  0
    8.8181    1.0778   21.6074 C   0  0  0  0  0  0  0  0  0  0  0  0
   10.0750    0.8921   22.0956 N   0  0  0  0  0  0  0  0  0  0  0  0
   10.6445    1.9549   22.6026 C   0  0  0  0  0  0  0  0  0  0  0  0
   11.8829    1.8892   23.0859 O   0  0  0  0  0  0  0  0  0  0  0  0
   12.3809    0.5820   23.4846 C   0  0  0  0  0  0  0  0  0  0  0  0
   11.2955   -0.2111   24.1556 C   0  0  0  0  0  0  0  0  0  0  0  0
   10.7719   -1.3467   23.5621 C   0  0  0  0  0  0  0  0  0  0  0  0
    9.7650   -2.0704   24.1749 C   0  0  0  0  0  0  0  0  0  0  0  0
    9.2399   -1.6861   25.4055 C   0  0  0  0  0  0  0  0  0  0  0  0
    9.7957   -0.5597   26.0127 C   0  0  0  0  0  0  0  0  0  0  0  0
   10.7940    0.1682   25.3890 C   0  0  0  0  0  0  0  0  0  0  0  0
    8.1296   -2.5269   25.9772 C   0  0  0  0  0  0  0  0  0  0  0  0
    7.0236   -2.0147   25.9935 O   0  0  0  0  0  0  0  0  0  0  0  0
    8.2695   -3.7783   26.4718 N   0  0  0  0  0  0  0  0  0  0  0  0
    9.5447   -4.5044   26.4520 C   0  0  0  0  0  0  0  0  0  0  0  0
    9.3235   -5.9216   25.9640 C   0  0  0  0  0  0  0  0  0  0  0  0
    8.3564   -6.6019   26.7383 O   0  0  0  0  0  0  0  0  0  0  0  0
    7.1070   -5.9132   26.6806 C   0  0  0  0  0  0  0  0  0  0  0  0
    7.2325   -4.5029   27.2128 C   0  0  0  0  0  0  0  0  0  0  0  0
   10.0629    3.2115   22.6893 N   0  0  0  0  0  0  0  0  0  0  0  0
   10.7508    4.3437   23.2825 C   0  0  0  0  0  0  0  0  0  0  0  0
   10.1691    5.1019   24.2913 C   0  0  0  0  0  0  0  0  0  0  0  0
   10.8620    6.1729   24.8275 C   0  0  0  0  0  0  0  0  0  0  0  0
   12.1165    6.4552   24.3396 C   0  0  0  0  0  0  0  0  0  0  0  0
   12.6990    5.7457   23.3730 N   0  0  0  0  0  0  0  0  0  0  0  0
   12.0198    4.7136   22.8631 C   0  0  0  0  0  0  0  0  0  0  0  0
    8.7412    3.4183   22.1997 C   0  0  0  0  0  0  0  0  0  0  0  0
    8.2171    4.5196   22.3205 O   0  0  0  0  0  0  0  0  0  0  0  0
  1  2  1  0
  2  3  2  0
  3  4  1  0
  4  5  2  0
  5  6  1  0
  6  7  2  0
  6  8  1  0
  8  9  2  0
  9 10  1  0
 10 11  2  0
 11 12  1  0
 12 13  1  0
 13 14  1  0
 14 15  2  0
 15 16  1  0
 16 17  2  0
 17 18  1  0
 18 19  2  0
 17 20  1  0
 20 21  2  0
 20 22  1  0
 22 23  1  0
 23 24  1  0
 24 25  1  0
 25 26  1  0
 26 27  1  0
 11 28  1  0
 28 29  1  0
 29 30  2  0
 30 31  1  0
 31 32  2  0
 32 33  1  0
 33 34  2  0
 28 35  1  0
 35 36  2  0
  7  2  1  0
 35  8  1  0
 19 14  1  0
 27 22  1  0
 34 29  1  0
M  END
