CVD-0001696|dock_bobby27042020.66|mol2|21|dock1
     RDKit          3D

 24 25  0  0  0  0  0  0  0  0999 V2000
    9.9143   -0.3161   21.8457 C   0  0  0  0  0  0  0  0  0  0  0  0
   10.7456    0.3325   22.9539 C   0  0  0  0  0  0  0  0  0  0  0  0
   10.7266    1.8416   22.8978 C   0  0  0  0  0  0  0  0  0  0  0  0
    9.5791    2.5245   22.9227 N   0  0  0  0  0  0  0  0  0  0  0  0
    8.2327    1.9992   23.0019 C   0  0  0  0  0  0  0  0  0  0  0  0
    7.4002    2.3104   21.7733 C   0  0  0  0  0  0  0  0  0  0  0  0
    7.3725    3.4426   21.3008 O   0  0  0  0  0  0  0  0  0  0  0  0
    6.7219    1.2874   21.2492 N   0  0  0  0  0  0  0  0  0  0  0  0
    5.8973    1.4391   20.0530 C   0  0  0  0  0  0  0  0  0  0  0  0
    6.6650    0.9558   18.8178 C   0  0  0  0  0  0  0  0  0  0  0  0
    6.6126   -0.5671   18.8493 C   0  0  0  0  0  0  0  0  0  0  0  0
    5.5514   -1.2211   19.3954 C   0  0  0  0  0  0  0  0  0  0  0  0
    4.4633   -0.5678   19.9523 N   0  0  0  0  0  0  0  0  0  0  0  0
    4.5890    0.7176   20.2095 C   0  0  0  0  0  0  0  0  0  0  0  0
   11.9863    2.3014   22.8177 C   0  0  0  0  0  0  0  0  0  0  0  0
   12.4256    3.7035   22.7024 C   0  0  0  0  0  0  0  0  0  0  0  0
   12.4340    4.4980   21.6630 C   0  0  0  0  0  0  0  0  0  0  0  0
   12.9223    1.1629   22.8390 C   0  0  0  0  0  0  0  0  0  0  0  0
   14.2472    1.3085   22.7324 O   0  0  0  0  0  0  0  0  0  0  0  0
   12.2257    0.0007   22.9127 C   0  0  0  0  0  0  0  0  0  0  0  0
   12.8387   -1.4139   22.9478 C   0  0  0  0  0  0  0  0  0  0  0  0
   13.9030   -1.5044   24.0454 C   0  0  0  0  0  0  0  0  0  0  0  0
   13.5108   -1.7079   21.6035 C   0  0  0  0  0  0  0  0  0  0  0  0
   11.8040   -2.5181   23.1891 C   0  0  0  0  0  0  0  0  0  0  0  0
  1  2  1  0
  2  3  1  0
  3  4  1  0
  4  5  1  0
  5  6  1  0
  6  7  2  0
  6  8  1  0
  8  9  1  0
  9 10  1  0
 10 11  1  0
 11 12  2  0
 12 13  1  0
 13 14  2  0
  3 15  2  0
 15 16  1  0
 16 17  2  0
 15 18  1  0
 18 19  1  0
 18 20  2  0
 20 21  1  0
 21 22  1  0
 21 23  1  0
 21 24  1  0
 20  2  1  0
 14  9  1  0
M  END
