CVD-0001598|dock_bobby27042020.80|mol2|34|dock3
     RDKit          3D

 18 20  0  0  0  0  0  0  0  0999 V2000
    9.1961   -5.8672   27.8184 N   0  0  0  0  0  0  0  0  0  0  0  0
    8.9877   -5.0907   27.0009 C   0  0  0  0  0  0  0  0  0  0  0  0
    8.7758   -4.2206   26.0268 N   0  0  0  0  0  0  0  0  0  0  0  0
    8.6021   -4.5925   24.6214 C   0  0  0  0  0  0  0  0  0  0  0  0
    9.2310   -3.5702   23.7066 C   0  0  0  0  0  0  0  0  0  0  0  0
    8.6927   -2.2395   23.9823 N   0  0  0  0  0  0  0  0  0  0  0  0
    9.0340   -1.8880   25.3570 C   0  0  0  0  0  0  0  0  0  0  0  0
    8.3786   -2.8414   26.3204 C   0  0  0  0  0  0  0  0  0  0  0  0
    9.1840   -1.2439   23.0199 C   0  0  0  0  0  0  0  0  0  0  0  0
    8.2366   -0.1685   22.5342 C   0  0  0  0  0  0  0  0  0  0  0  0
    8.5537   -1.3243   21.6379 C   0  0  0  0  0  0  0  0  0  0  0  0
   10.6434   -1.0782   23.0910 N   0  0  0  0  0  0  0  0  0  0  0  0
   11.4947   -1.6614   22.0318 C   0  0  0  0  0  0  0  0  0  0  0  0
   12.7942   -2.2513   22.5593 C   0  0  0  0  0  0  0  0  0  0  0  0
   13.9906   -1.2823   22.5840 C   0  0  0  0  0  0  0  0  0  0  0  0
   13.5633    0.0405   22.9261 O   0  0  0  0  0  0  0  0  0  0  0  0
   12.6357    0.1420   24.0013 C   0  0  0  0  0  0  0  0  0  0  0  0
   11.2020    0.2080   23.5337 C   0  0  0  0  0  0  0  0  0  0  0  0
  1  2  3  0
  2  3  1  0
  3  4  1  0
  4  5  1  0
  5  6  1  0
  6  7  1  0
  7  8  1  0
  6  9  1  0
  9 10  1  0
 10 11  1  0
  9 12  1  0
 12 13  1  0
 13 14  1  0
 14 15  1  0
 15 16  1  0
 16 17  1  0
 17 18  1  0
  8  3  1  0
 11  9  1  0
 18 12  1  0
M  END
