CVD-0002174|dock_bobby27042020.21|mol2|17|dock2
     RDKit          3D

 26 28  0  0  0  0  0  0  0  0999 V2000
    9.7501    0.3014   23.1032 O   0  0  0  0  0  0  0  0  0  0  0  0
   10.1087   -0.3523   22.1294 C   0  0  0  0  0  0  0  0  0  0  0  0
    9.3954   -0.4552   20.9568 N   0  0  0  0  0  0  0  0  0  0  0  0
    8.1541    0.1139   20.5738 C   0  0  0  0  0  0  0  0  0  0  0  0
    7.2845   -0.4642   19.6516 C   0  0  0  0  0  0  0  0  0  0  0  0
    6.0899    0.1567   19.3313 C   0  0  0  0  0  0  0  0  0  0  0  0
    5.7243    1.3606   19.9104 C   0  0  0  0  0  0  0  0  0  0  0  0
    4.4172    2.0275   19.5564 C   0  0  0  0  0  0  0  0  0  0  0  0
    3.2468    1.3056   20.0154 N   0  0  0  0  0  0  0  0  0  0  0  0
    1.9938    1.8373   20.0529 C   0  0  0  0  0  0  0  0  0  0  0  0
    1.6300    2.8975   19.2228 C   0  0  0  0  0  0  0  0  0  0  0  0
    0.3410    3.3913   19.3109 C   0  0  0  0  0  0  0  0  0  0  0  0
   -0.5538    2.8279   20.2132 C   0  0  0  0  0  0  0  0  0  0  0  0
   -0.0969    1.7736   20.9980 C   0  0  0  0  0  0  0  0  0  0  0  0
    1.1459    1.2839   20.9257 N   0  0  0  0  0  0  0  0  0  0  0  0
   -1.9051    3.3177   20.3316 C   0  0  0  0  0  0  0  0  0  0  0  0
   -2.9804    3.6979   20.3933 N   0  0  0  0  0  0  0  0  0  0  0  0
    6.5901    1.9320   20.8277 C   0  0  0  0  0  0  0  0  0  0  0  0
    7.7870    1.3214   21.1561 C   0  0  0  0  0  0  0  0  0  0  0  0
   11.2766   -1.0779   22.0685 N   0  0  0  0  0  0  0  0  0  0  0  0
   12.3057   -1.2603   23.0271 C   0  0  0  0  0  0  0  0  0  0  0  0
   13.2187   -2.2890   22.8328 C   0  0  0  0  0  0  0  0  0  0  0  0
   14.2331   -2.4904   23.7520 C   0  0  0  0  0  0  0  0  0  0  0  0
   14.3077   -1.6562   24.8427 C   0  0  0  0  0  0  0  0  0  0  0  0
   13.4484   -0.6605   25.0587 N   0  0  0  0  0  0  0  0  0  0  0  0
   12.4717   -0.4735   24.1654 C   0  0  0  0  0  0  0  0  0  0  0  0
  1  2  2  0
  2  3  1  0
  3  4  1  0
  4  5  2  0
  5  6  1  0
  6  7  2  0
  7  8  1  0
  8  9  1  0
  9 10  1  0
 10 11  2  0
 11 12  1  0
 12 13  2  0
 13 14  1  0
 14 15  2  0
 13 16  1  0
 16 17  3  0
  7 18  1  0
 18 19  2  0
  2 20  1  0
 20 21  1  0
 21 22  2  0
 22 23  1  0
 23 24  2  0
 24 25  1  0
 25 26  2  0
 19  4  1  0
 26 21  1  0
 15 10  1  0
M  END
