CVD-0000712|dock_bobby27042020.69|mol2|24|dock1
     RDKit          3D

 20 22  0  0  0  0  0  0  0  0999 V2000
    9.1650   -0.3457   20.6364 O   0  0  0  0  0  0  0  0  0  0  0  0
    8.3973   -0.4953   21.5810 C   0  0  0  0  0  0  0  0  0  0  0  0
    8.8852   -1.0697   22.8961 C   0  0  0  0  0  0  0  0  0  0  0  0
   10.3891   -1.2596   22.9446 C   0  0  0  0  0  0  0  0  0  0  0  0
   10.9485   -2.5234   23.0570 C   0  0  0  0  0  0  0  0  0  0  0  0
   12.2605   -2.7773   23.1090 N   0  0  0  0  0  0  0  0  0  0  0  0
   13.0881   -1.7497   23.0504 C   0  0  0  0  0  0  0  0  0  0  0  0
   12.6750   -0.4017   22.9367 C   0  0  0  0  0  0  0  0  0  0  0  0
   13.5722    0.6908   22.8754 C   0  0  0  0  0  0  0  0  0  0  0  0
   13.1018    1.9661   22.7662 C   0  0  0  0  0  0  0  0  0  0  0  0
   11.7460    2.2170   22.7134 C   0  0  0  0  0  0  0  0  0  0  0  0
   10.8444    1.1956   22.7688 C   0  0  0  0  0  0  0  0  0  0  0  0
   11.2753   -0.1509   22.8823 C   0  0  0  0  0  0  0  0  0  0  0  0
    7.0760   -0.1933   21.5802 N   0  0  0  0  0  0  0  0  0  0  0  0
    6.2356    0.3388   20.5707 C   0  0  0  0  0  0  0  0  0  0  0  0
    6.6546    0.5453   19.2583 C   0  0  0  0  0  0  0  0  0  0  0  0
    5.7779    1.0698   18.3226 C   0  0  0  0  0  0  0  0  0  0  0  0
    4.4863    1.3923   18.6767 C   0  0  0  0  0  0  0  0  0  0  0  0
    4.0630    1.1918   19.9718 C   0  0  0  0  0  0  0  0  0  0  0  0
    4.9298    0.6683   20.9161 C   0  0  0  0  0  0  0  0  0  0  0  0
  1  2  2  0
  2  3  1  0
  3  4  1  0
  4  5  2  0
  5  6  1  0
  6  7  2  0
  7  8  1  0
  8  9  2  0
  9 10  1  0
 10 11  2  0
 11 12  1  0
 12 13  2  0
  2 14  1  0
 14 15  1  0
 15 16  2  0
 16 17  1  0
 17 18  2  0
 18 19  1  0
 19 20  2  0
 13  4  1  0
 20 15  1  0
 13  8  1  0
M  END
