CVD-0001038|dock_bobby27042020.96|mol2|34|dock1
     RDKit          3D

 31 34  0  0  0  0  0  0  0  0999 V2000
   11.2364    6.4126   26.0294 C   0  0  0  0  0  0  0  0  0  0  0  0
   10.5861    5.4600   25.1461 N   0  0  0  0  0  0  0  0  0  0  0  0
    9.1724    5.2157   25.3776 C   0  0  0  0  0  0  0  0  0  0  0  0
   11.2250    4.9246   24.0666 C   0  0  0  0  0  0  0  0  0  0  0  0
   10.7271    3.7412   23.6729 N   0  0  0  0  0  0  0  0  0  0  0  0
   11.2986    3.1473   22.6094 C   0  0  0  0  0  0  0  0  0  0  0  0
   10.7474    1.9283   22.2397 N   0  0  0  0  0  0  0  0  0  0  0  0
    9.5165    1.4128   22.4780 C   0  0  0  0  0  0  0  0  0  0  0  0
    8.6260    1.9820   23.1044 O   0  0  0  0  0  0  0  0  0  0  0  0
    9.2943    0.0302   21.9010 C   0  0  0  0  0  0  0  0  0  0  0  0
    7.8397   -0.3059   21.7968 C   0  0  0  0  0  0  0  0  0  0  0  0
    7.5907   -1.7202   21.2986 C   0  0  0  0  0  0  0  0  0  0  0  0
    8.3370   -2.6746   22.1036 N   0  0  0  0  0  0  0  0  0  0  0  0
    9.7711   -2.4222   22.1768 C   0  0  0  0  0  0  0  0  0  0  0  0
   10.0111   -1.0215   22.7330 C   0  0  0  0  0  0  0  0  0  0  0  0
    7.6677   -4.0592   22.6443 S   0  0  0  0  0  0  0  0  0  0  0  0
    6.3053   -3.7563   22.9556 O   0  0  0  0  0  0  0  0  0  0  0  0
    7.9703   -5.0627   21.6716 O   0  0  0  0  0  0  0  0  0  0  0  0
    8.4882   -4.4849   24.1414 C   0  0  0  0  0  0  0  0  0  0  0  0
    8.5004   -3.5858   25.1954 C   0  0  0  0  0  0  0  0  0  0  0  0
    9.1419   -3.9238   26.3736 C   0  0  0  0  0  0  0  0  0  0  0  0
    9.7480   -5.1476   26.4606 C   0  0  0  0  0  0  0  0  0  0  0  0
   10.3788   -5.4785   27.6195 F   0  0  0  0  0  0  0  0  0  0  0  0
    9.7488   -6.0540   25.4353 C   0  0  0  0  0  0  0  0  0  0  0  0
    9.1080   -5.7187   24.2558 C   0  0  0  0  0  0  0  0  0  0  0  0
   12.3293    3.6138   21.8884 N   0  0  0  0  0  0  0  0  0  0  0  0
   12.8053    4.7888   22.3082 C   0  0  0  0  0  0  0  0  0  0  0  0
   13.8378    5.5180   21.7972 N   0  0  0  0  0  0  0  0  0  0  0  0
   13.9330    6.6237   22.5643 C   0  0  0  0  0  0  0  0  0  0  0  0
   13.0460    6.6789   23.5368 N   0  0  0  0  0  0  0  0  0  0  0  0
   12.3166    5.5091   23.3826 C   0  0  0  0  0  0  0  0  0  0  0  0
  1  2  1  0
  2  3  1  0
  2  4  1  0
  4  5  2  0
  5  6  1  0
  6  7  1  0
  7  8  1  0
  8  9  2  0
  8 10  1  0
 10 11  1  0
 11 12  1  0
 12 13  1  0
 13 14  1  0
 14 15  1  0
 13 16  1  0
 16 17  2  0
 16 18  2  0
 16 19  1  0
 19 20  2  0
 20 21  1  0
 21 22  2  0
 22 23  1  0
 22 24  1  0
 24 25  2  0
  6 26  2  0
 26 27  1  0
 27 28  1  0
 28 29  1  0
 29 30  2  0
 30 31  1  0
 31  4  1  0
 15 10  1  0
 25 19  1  0
 31 27  2  0
M  END
