CVD-0003440|dock_bobby27042020.16|mol2|33|dock1
     RDKit          3D

 21 23  0  0  0  0  0  0  0  0999 V2000
    8.6504   -0.4802   18.2583 F   0  0  0  0  0  0  0  0  0  0  0  0
    7.5161    0.1770   18.5401 C   0  0  0  0  0  0  0  0  0  0  0  0
    6.9781    0.7367   17.4862 N   0  0  0  0  0  0  0  0  0  0  0  0
    5.7988    1.3013   17.6239 C   0  0  0  0  0  0  0  0  0  0  0  0
    5.0938    1.3648   18.8439 C   0  0  0  0  0  0  0  0  0  0  0  0
    3.8584    1.9554   18.8825 N   0  0  0  0  0  0  0  0  0  0  0  0
    3.2430    1.9983   20.0512 C   0  0  0  0  0  0  0  0  0  0  0  0
    3.7545    1.4924   21.2263 C   0  0  0  0  0  0  0  0  0  0  0  0
    4.9807    0.8981   21.2084 C   0  0  0  0  0  0  0  0  0  0  0  0
    5.7063    0.8084   19.9941 C   0  0  0  0  0  0  0  0  0  0  0  0
    6.9941    0.2145   19.8277 C   0  0  0  0  0  0  0  0  0  0  0  0
    7.6177   -0.2930   21.0016 N   0  0  0  0  0  0  0  0  0  0  0  0
    8.8223    0.0729   21.5058 C   0  0  0  0  0  0  0  0  0  0  0  0
    9.5823    0.9096   21.0301 O   0  0  0  0  0  0  0  0  0  0  0  0
    9.1792   -0.6582   22.7813 C   0  0  0  0  0  0  0  0  0  0  0  0
   10.6843   -0.6967   23.0637 C   0  0  0  0  0  0  0  0  0  0  0  0
   10.9768   -1.3248   24.4418 C   0  0  0  0  0  0  0  0  0  0  0  0
   12.4736   -1.4439   24.7221 C   0  0  0  0  0  0  0  0  0  0  0  0
   13.1887   -2.1960   23.6071 C   0  0  0  0  0  0  0  0  0  0  0  0
   12.9227   -1.5538   22.2531 C   0  0  0  0  0  0  0  0  0  0  0  0
   11.4272   -1.4746   21.9641 C   0  0  0  0  0  0  0  0  0  0  0  0
  1  2  1  0
  2  3  2  0
  3  4  1  0
  4  5  2  0
  5  6  1  0
  6  7  2  0
  7  8  1  0
  8  9  2  0
  9 10  1  0
 10 11  2  0
 11 12  1  0
 12 13  1  0
 13 14  2  0
 13 15  1  0
 15 16  1  0
 16 17  1  0
 17 18  1  0
 18 19  1  0
 19 20  1  0
 20 21  1  0
 11  2  1  0
 21 16  1  0
 10  5  1  0
M  END
