CVD-0000890|dock_bobby27042020.40|mol2|10|dock3
     RDKit          3D

 32 36  0  0  0  0  0  0  0  0999 V2000
   11.1377    1.8213   23.4617 Cl  0  0  0  0  0  0  0  0  0  0  0  0
    9.5896    2.3838   22.8181 C   0  0  0  0  0  0  0  0  0  0  0  0
    9.0654    1.4426   21.7512 C   0  0  0  0  0  0  0  0  0  0  0  0
    9.1099    1.7456   20.5654 O   0  0  0  0  0  0  0  0  0  0  0  0
    8.5546    0.2622   22.1651 N   0  0  0  0  0  0  0  0  0  0  0  0
    8.5426   -0.1899   23.5781 C   0  0  0  0  0  0  0  0  0  0  0  0
    9.0549   -1.5858   23.6806 C   0  0  0  0  0  0  0  0  0  0  0  0
   10.5335   -1.6390   23.3349 C   0  0  0  0  0  0  0  0  0  0  0  0
   11.4963   -1.3308   24.2861 C   0  0  0  0  0  0  0  0  0  0  0  0
   12.8439   -1.3819   23.9711 C   0  0  0  0  0  0  0  0  0  0  0  0
   13.2454   -1.7422   22.7027 C   0  0  0  0  0  0  0  0  0  0  0  0
   12.3001   -2.0519   21.7485 C   0  0  0  0  0  0  0  0  0  0  0  0
   10.9523   -2.0011   22.0623 C   0  0  0  0  0  0  0  0  0  0  0  0
    8.2089   -2.5224   22.8555 C   0  0  0  0  0  0  0  0  0  0  0  0
    7.9314   -3.8306   23.2523 C   0  0  0  0  0  0  0  0  0  0  0  0
    7.1670   -4.6801   22.4736 C   0  0  0  0  0  0  0  0  0  0  0  0
    6.6614   -4.2304   21.2714 C   0  0  0  0  0  0  0  0  0  0  0  0
    6.9249   -2.9361   20.8594 C   0  0  0  0  0  0  0  0  0  0  0  0
    7.6946   -2.0787   21.6418 C   0  0  0  0  0  0  0  0  0  0  0  0
    8.0059   -0.6598   21.1549 C   0  0  0  0  0  0  0  0  0  0  0  0
    6.7918    0.0019   20.5119 C   0  0  0  0  0  0  0  0  0  0  0  0
    6.5744   -0.0496   19.1431 C   0  0  0  0  0  0  0  0  0  0  0  0
    5.4611    0.5578   18.5927 C   0  0  0  0  0  0  0  0  0  0  0  0
    4.5546    1.2265   19.3977 C   0  0  0  0  0  0  0  0  0  0  0  0
    4.7493    1.2940   20.7749 C   0  0  0  0  0  0  0  0  0  0  0  0
    5.8755    0.6706   21.3103 C   0  0  0  0  0  0  0  0  0  0  0  0
    3.7975    1.9944   21.5990 N   0  0  0  0  0  0  0  0  0  0  0  0
    4.2172    2.7293   22.7947 C   0  0  0  0  0  0  0  0  0  0  0  0
    2.9431    3.3347   23.3305 C   0  0  0  0  0  0  0  0  0  0  0  0
    1.8043    2.7562   22.5294 C   0  0  0  0  0  0  0  0  0  0  0  0
    2.4350    1.9647   21.4231 C   0  0  0  0  0  0  0  0  0  0  0  0
    1.8877    1.3709   20.5037 O   0  0  0  0  0  0  0  0  0  0  0  0
  1  2  1  0
  2  3  1  0
  3  4  2  0
  3  5  1  0
  5  6  1  0
  6  7  1  0
  7  8  1  0
  8  9  2  0
  9 10  1  0
 10 11  2  0
 11 12  1  0
 12 13  2  0
  7 14  1  0
 14 15  2  0
 15 16  1  0
 16 17  2  0
 17 18  1  0
 18 19  2  0
 19 20  1  0
 20 21  1  0
 21 22  2  0
 22 23  1  0
 23 24  2  0
 24 25  1  0
 25 26  2  0
 25 27  1  0
 27 28  1  0
 28 29  1  0
 29 30  1  0
 30 31  1  0
 31 32  2  0
 20  5  1  0
 26 21  1  0
 31 27  1  0
 13  8  1  0
 19 14  1  0
M  END
