CVD-0003882|dock_bobby27042020.58|mol2|21|dock2
     RDKit          3D

 22 24  0  0  0  0  0  0  0  0999 V2000
    9.5480   -5.7372   24.6495 N   0  0  0  0  0  0  0  0  0  0  0  0
    9.6239   -4.5443   25.7146 S   0  0  0  0  0  0  0  0  0  0  0  0
    8.2824   -4.2575   26.1255 O   0  0  0  0  0  0  0  0  0  0  0  0
   10.5852   -4.9230   26.7064 O   0  0  0  0  0  0  0  0  0  0  0  0
   10.2455   -3.1047   24.8997 C   0  0  0  0  0  0  0  0  0  0  0  0
   11.2020   -3.2328   23.9083 C   0  0  0  0  0  0  0  0  0  0  0  0
   11.6835   -2.1026   23.2719 C   0  0  0  0  0  0  0  0  0  0  0  0
   11.2185   -0.8345   23.6068 C   0  0  0  0  0  0  0  0  0  0  0  0
   10.2529   -0.7311   24.6036 C   0  0  0  0  0  0  0  0  0  0  0  0
    9.7680   -1.8544   25.2497 C   0  0  0  0  0  0  0  0  0  0  0  0
   11.7045    0.2962   22.9639 N   0  0  0  0  0  0  0  0  0  0  0  0
   13.1272    0.5103   22.7505 C   0  0  0  0  0  0  0  0  0  0  0  0
   13.4992    1.9434   23.0939 C   0  0  0  0  0  0  0  0  0  0  0  0
   12.6456    2.9536   22.3933 C   0  0  0  0  0  0  0  0  0  0  0  0
   11.1762    2.6515   22.6408 C   0  0  0  0  0  0  0  0  0  0  0  0
   10.8335    1.2181   22.2448 C   0  0  0  0  0  0  0  0  0  0  0  0
   12.9779    4.3580   22.8123 C   0  0  0  0  0  0  0  0  0  0  0  0
   13.7183    5.2946   22.1051 C   0  0  0  0  0  0  0  0  0  0  0  0
   13.8481    6.5120   22.7688 C   0  0  0  0  0  0  0  0  0  0  0  0
   13.2190    6.5061   23.9600 C   0  0  0  0  0  0  0  0  0  0  0  0
   13.1262    7.9141   25.1895 Br  0  0  0  0  0  0  0  0  0  0  0  0
   12.4450    5.0165   24.3174 S   0  0  0  0  0  0  0  0  0  0  0  0
  1  2  1  0
  2  3  2  0
  2  4  2  0
  2  5  1  0
  5  6  2  0
  6  7  1  0
  7  8  2  0
  8  9  1  0
  9 10  2  0
  8 11  1  0
 11 12  1  0
 12 13  1  0
 13 14  1  0
 14 15  1  0
 15 16  1  0
 14 17  1  0
 17 18  2  0
 18 19  1  0
 19 20  2  0
 20 21  1  0
 20 22  1  0
 10  5  1  0
 16 11  1  0
 22 17  1  0
M  END
