CVD-0001608|dock_bobby27042020.37|mol2|37|dock1
     RDKit          3D

 17 18  0  0  0  0  0  0  0  0999 V2000
   13.4135   -2.4800   26.2758 F   0  0  0  0  0  0  0  0  0  0  0  0
   14.4528   -1.9551   25.5308 C   0  0  0  0  0  0  0  0  0  0  0  0
   14.0476   -1.9770   24.0737 C   0  0  0  0  0  0  0  0  0  0  0  0
   14.6587   -2.6453   23.2495 O   0  0  0  0  0  0  0  0  0  0  0  0
   12.9856   -1.2206   23.7298 N   0  0  0  0  0  0  0  0  0  0  0  0
   12.4761   -1.1432   22.3589 C   0  0  0  0  0  0  0  0  0  0  0  0
   10.9957   -1.4749   22.3241 C   0  0  0  0  0  0  0  0  0  0  0  0
   10.2504   -0.5602   23.1938 N   0  0  0  0  0  0  0  0  0  0  0  0
    8.8162   -0.8506   23.1331 C   0  0  0  0  0  0  0  0  0  0  0  0
    8.2310   -0.6348   21.7686 C   0  0  0  0  0  0  0  0  0  0  0  0
    8.4193    0.4360   20.9232 C   0  0  0  0  0  0  0  0  0  0  0  0
    7.7296    0.3307   19.7174 C   0  0  0  0  0  0  0  0  0  0  0  0
    7.0208   -0.8112   19.6419 C   0  0  0  0  0  0  0  0  0  0  0  0
    5.9459   -1.3814   18.2199 Br  0  0  0  0  0  0  0  0  0  0  0  0
    7.1743   -1.7918   21.0406 S   0  0  0  0  0  0  0  0  0  0  0  0
   10.7424   -0.6964   24.5622 C   0  0  0  0  0  0  0  0  0  0  0  0
   12.2207   -0.3605   24.6380 C   0  0  0  0  0  0  0  0  0  0  0  0
  1  2  1  0
  2  3  1  0
  3  4  2  0
  3  5  1  0
  5  6  1  0
  6  7  1  0
  7  8  1  0
  8  9  1  0
  9 10  1  0
 10 11  2  0
 11 12  1  0
 12 13  2  0
 13 14  1  0
 13 15  1  0
  8 16  1  0
 16 17  1  0
 17  5  1  0
 15 10  1  0
M  END
