CVD-0001952|dock_bobby27042020.50|mol2|41|dock1
     RDKit          3D

 27 29  0  0  0  0  0  0  0  0999 V2000
   13.9665    5.5279   21.7033 C   0  0  0  0  0  0  0  0  0  0  0  0
   13.1973    5.0502   22.8552 N   0  0  0  0  0  0  0  0  0  0  0  0
   11.8327    4.6169   22.5364 C   0  0  0  0  0  0  0  0  0  0  0  0
   11.6917    3.1193   22.6126 C   0  0  0  0  0  0  0  0  0  0  0  0
   12.7198    2.2085   22.9068 C   0  0  0  0  0  0  0  0  0  0  0  0
   12.2097    0.9220   22.8932 C   0  0  0  0  0  0  0  0  0  0  0  0
   12.9594   -0.3374   23.1561 C   0  0  0  0  0  0  0  0  0  0  0  0
   13.1408   -1.3016   22.1579 C   0  0  0  0  0  0  0  0  0  0  0  0
   13.8231   -2.4799   22.4113 C   0  0  0  0  0  0  0  0  0  0  0  0
   14.3651   -2.7226   23.6521 C   0  0  0  0  0  0  0  0  0  0  0  0
   14.2246   -1.7844   24.6569 C   0  0  0  0  0  0  0  0  0  0  0  0
   13.5290   -0.6287   24.3916 C   0  0  0  0  0  0  0  0  0  0  0  0
   13.4111    0.2432   25.4192 F   0  0  0  0  0  0  0  0  0  0  0  0
   10.8578    1.0327   22.5901 N   0  0  0  0  0  0  0  0  0  0  0  0
    9.8203   -0.0043   22.4841 C   0  0  0  0  0  0  0  0  0  0  0  0
    8.9758   -0.1065   23.7423 C   0  0  0  0  0  0  0  0  0  0  0  0
    9.7865   -0.3726   24.9951 C   0  0  0  0  0  0  0  0  0  0  0  0
    9.3523   -1.5795   25.6840 N   0  0  0  0  0  0  0  0  0  0  0  0
    9.6348   -2.7954   25.2073 C   0  0  0  0  0  0  0  0  0  0  0  0
   10.2728   -2.9336   24.1680 O   0  0  0  0  0  0  0  0  0  0  0  0
    9.1682   -4.0156   25.9487 C   0  0  0  0  0  0  0  0  0  0  0  0
    8.0200   -4.0322   26.7379 C   0  0  0  0  0  0  0  0  0  0  0  0
    7.6367   -5.1876   27.3989 C   0  0  0  0  0  0  0  0  0  0  0  0
    8.3869   -6.3379   27.2856 C   0  0  0  0  0  0  0  0  0  0  0  0
    9.5249   -6.3367   26.5093 C   0  0  0  0  0  0  0  0  0  0  0  0
    9.9137   -5.1854   25.8456 C   0  0  0  0  0  0  0  0  0  0  0  0
   10.5524    2.3523   22.4313 C   0  0  0  0  0  0  0  0  0  0  0  0
  1  2  1  0
  2  3  1  0
  3  4  1  0
  4  5  1  0
  5  6  2  0
  6  7  1  0
  7  8  2  0
  8  9  1  0
  9 10  2  0
 10 11  1  0
 11 12  2  0
 12 13  1  0
  6 14  1  0
 14 15  1  0
 15 16  1  0
 16 17  1  0
 17 18  1  0
 18 19  1  0
 19 20  2  0
 19 21  1  0
 21 22  2  0
 22 23  1  0
 23 24  2  0
 24 25  1  0
 25 26  2  0
 14 27  1  0
 27  4  2  0
 12  7  1  0
 26 21  1  0
M  END
