CVD-0002778|dock_bobby27042020.18|mol2|37|dock3
     RDKit          3D

 37 41  0  0  0  0  0  0  0  0999 V2000
   11.2139    0.7403   25.8343 N   0  0  0  0  0  0  0  0  0  0  0  0
   11.3770    0.1980   24.4807 C   0  0  0  0  0  0  0  0  0  0  0  0
   12.7137    0.5589   23.8637 C   0  0  0  0  0  0  0  0  0  0  0  0
   12.8494   -0.0331   22.4666 C   0  0  0  0  0  0  0  0  0  0  0  0
   11.7061    0.3872   21.5628 C   0  0  0  0  0  0  0  0  0  0  0  0
   10.3651    0.0342   22.1874 C   0  0  0  0  0  0  0  0  0  0  0  0
   10.2319    0.6556   23.5876 C   0  0  0  0  0  0  0  0  0  0  0  0
    9.1938    0.4495   21.3232 C   0  0  0  0  0  0  0  0  0  0  0  0
    8.3755    1.2833   21.7022 O   0  0  0  0  0  0  0  0  0  0  0  0
    9.1135   -0.1472   20.1341 N   0  0  0  0  0  0  0  0  0  0  0  0
    8.0488    0.1372   19.1805 C   0  0  0  0  0  0  0  0  0  0  0  0
    7.2182   -1.0950   18.8644 C   0  0  0  0  0  0  0  0  0  0  0  0
    5.7977   -1.0138   18.3726 C   0  0  0  0  0  0  0  0  0  0  0  0
    6.0733   -1.2221   19.8279 C   0  0  0  0  0  0  0  0  0  0  0  0
    5.8040   -2.5939   20.4336 C   0  0  0  0  0  0  0  0  0  0  0  0
    5.3719   -3.4268   19.6600 O   0  0  0  0  0  0  0  0  0  0  0  0
    6.0097   -2.9770   21.7973 N   0  0  0  0  0  0  0  0  0  0  0  0
    6.5056   -2.0772   22.8157 C   0  0  0  0  0  0  0  0  0  0  0  0
    6.5200   -0.8732   22.5897 O   0  0  0  0  0  0  0  0  0  0  0  0
    6.9563   -2.5760   24.0194 N   0  0  0  0  0  0  0  0  0  0  0  0
    7.4025   -1.8458   25.1550 C   0  0  0  0  0  0  0  0  0  0  0  0
    6.8370   -0.6134   25.4919 C   0  0  0  0  0  0  0  0  0  0  0  0
    7.2283    0.0483   26.6417 C   0  0  0  0  0  0  0  0  0  0  0  0
    8.1674   -0.5061   27.4778 C   0  0  0  0  0  0  0  0  0  0  0  0
    8.7599   -1.7116   27.1526 C   0  0  0  0  0  0  0  0  0  0  0  0
    8.4271   -2.3844   25.9732 C   0  0  0  0  0  0  0  0  0  0  0  0
    9.2047   -3.6098   25.6890 C   0  0  0  0  0  0  0  0  0  0  0  0
    9.7239   -4.1058   24.5528 C   0  0  0  0  0  0  0  0  0  0  0  0
   10.3618   -5.2783   24.8342 O   0  0  0  0  0  0  0  0  0  0  0  0
   10.1899   -5.4192   26.1513 C   0  0  0  0  0  0  0  0  0  0  0  0
    9.5232   -4.4797   26.7187 N   0  0  0  0  0  0  0  0  0  0  0  0
    5.7242   -4.3168   22.2462 C   0  0  0  0  0  0  0  0  0  0  0  0
    6.4546   -5.4013   21.7865 C   0  0  0  0  0  0  0  0  0  0  0  0
    6.1327   -6.6669   22.2439 C   0  0  0  0  0  0  0  0  0  0  0  0
    5.0950   -6.7985   23.1389 C   0  0  0  0  0  0  0  0  0  0  0  0
    4.3790   -5.7671   23.5902 N   0  0  0  0  0  0  0  0  0  0  0  0
    4.6961   -4.5481   23.1432 C   0  0  0  0  0  0  0  0  0  0  0  0
  2  1  1  0
  2  3  1  0
  3  4  1  0
  4  5  1  0
  5  6  1  0
  6  7  1  0
  6  8  1  0
  8  9  2  0
  8 10  1  0
 10 11  1  0
 12 11  1  0
 12 13  1  0
 13 14  1  0
 14 15  1  0
 15 16  2  0
 15 17  1  0
 17 18  1  0
 18 19  2  0
 18 20  1  0
 20 21  1  0
 21 22  2  0
 22 23  1  0
 23 24  2  0
 24 25  1  0
 25 26  2  0
 26 27  1  0
 27 28  2  0
 28 29  1  0
 29 30  1  0
 30 31  2  0
 17 32  1  0
 32 33  2  0
 33 34  1  0
 34 35  2  0
 35 36  1  0
 36 37  2  0
  7  2  1  0
 14 12  1  0
 26 21  1  0
 31 27  1  0
 37 32  1  0
M  END
