CVD-0001383|dock_bobby27042020.38|mol2|21|dock1
     RDKit          3D

  7  6  0  0  0  0  0  0  0  0999 V2000
   10.2646   -1.4125   21.6007 N   0  0  0  0  0  0  0  0  0  0  0  0
   11.3184   -1.8696   22.5338 C   0  0  0  0  0  0  0  0  0  0  0  0
   12.6842   -1.2517   22.2286 C   0  0  0  0  0  0  0  0  0  0  0  0
   13.3083   -1.9626   21.0954 N   0  0  0  0  0  0  0  0  0  0  0  0
   13.6464   -1.3473   23.4324 C   0  0  0  0  0  0  0  0  0  0  0  0
   14.1540   -2.5299   23.6683 O   0  0  0  0  0  0  0  0  0  0  0  0
   13.8726   -0.3485   24.0795 O   0  0  0  0  0  0  0  0  0  0  0  0
  1  2  1  0
  2  3  1  0
  3  4  1  0
  3  5  1  0
  5  6  1  0
  5  7  2  0
M  END
