CVD-0000114|dock_bobby27042020.28|mol2|24|dock1
     RDKit          3D

 20 22  0  0  0  0  0  0  0  0999 V2000
   13.4940   -1.9845   20.9330 N   0  0  0  0  0  0  0  0  0  0  0  0
   13.1172   -1.5355   22.4228 S   0  0  0  0  0  0  0  0  0  0  0  0
   14.3242   -1.0823   23.0465 O   0  0  0  0  0  0  0  0  0  0  0  0
   12.3934   -2.6171   23.0208 O   0  0  0  0  0  0  0  0  0  0  0  0
   12.0198   -0.1534   22.3304 C   0  0  0  0  0  0  0  0  0  0  0  0
   12.4156    1.0690   22.8408 C   0  0  0  0  0  0  0  0  0  0  0  0
   11.5405    2.1358   22.7586 C   0  0  0  0  0  0  0  0  0  0  0  0
   10.2962    1.9875   22.1687 C   0  0  0  0  0  0  0  0  0  0  0  0
    9.8900    0.7569   21.6558 C   0  0  0  0  0  0  0  0  0  0  0  0
   10.7700   -0.3205   21.7540 C   0  0  0  0  0  0  0  0  0  0  0  0
    8.5950    0.6161   21.0496 N   0  0  0  0  0  0  0  0  0  0  0  0
    8.1315   -1.0673   20.3221 Se  0  0  0  0  0  2  0  0  0  0  0  0
    7.0665    0.0720   19.1772 C   0  0  0  0  0  0  0  0  0  0  0  0
    6.0551   -0.4811   18.2035 C   0  0  0  0  0  0  0  0  0  0  0  0
    4.9698    0.2312   17.9021 C   0  0  0  0  0  0  0  0  0  0  0  0
    4.7396    1.4906   18.4964 C   0  0  0  0  0  0  0  0  0  0  0  0
    5.4087    1.8780   19.5836 C   0  0  0  0  0  0  0  0  0  0  0  0
    6.4188    0.9688   20.2278 C   0  0  0  0  0  0  0  0  0  0  0  0
    7.6298    1.5823   20.9084 C   0  0  0  0  0  0  0  0  0  0  0  0
    7.7072    2.7389   21.2749 O   0  0  0  0  0  0  0  0  0  0  0  0
  1  2  1  0
  2  3  2  0
  2  4  2  0
  2  5  1  0
  5  6  2  0
  6  7  1  0
  7  8  2  0
  8  9  1  0
  9 10  2  0
  9 11  1  0
 11 12  1  0
 12 13  1  0
 13 14  1  0
 14 15  2  0
 15 16  1  0
 16 17  2  0
 17 18  1  0
 18 19  1  0
 19 20  2  0
 10  5  1  0
 19 11  1  0
 18 13  1  0
M  END
