CVD-0003924|dock_bobby27042020.43|mol2|37|dock3
     RDKit          3D

 30 33  0  0  0  0  0  0  0  0999 V2000
    5.3101   -4.4074   23.8622 O   0  0  0  0  0  0  0  0  0  0  0  0
    6.1303   -3.3597   23.3381 C   0  0  0  0  0  0  0  0  0  0  0  0
    7.2092   -3.8950   22.4166 C   0  0  0  0  0  0  0  0  0  0  0  0
    8.1229   -2.7924   21.8752 C   0  0  0  0  0  0  0  0  0  0  0  0
    8.7362   -2.0201   23.0388 C   0  0  0  0  0  0  0  0  0  0  0  0
    7.6594   -1.4232   23.9311 C   0  0  0  0  0  0  0  0  0  0  0  0
    6.7579   -2.5454   24.4585 C   0  0  0  0  0  0  0  0  0  0  0  0
    9.6787   -0.9642   22.5567 N   0  0  0  0  0  0  0  0  0  0  0  0
    9.2765   -0.0131   21.6351 C   0  0  0  0  0  0  0  0  0  0  0  0
   10.0738    0.7684   21.1430 O   0  0  0  0  0  0  0  0  0  0  0  0
    7.8773    0.1978   21.1180 C   0  0  0  0  0  0  0  0  0  0  0  0
    6.8798    0.9166   21.7751 C   0  0  0  0  0  0  0  0  0  0  0  0
    5.6198    1.0622   21.2190 C   0  0  0  0  0  0  0  0  0  0  0  0
    5.3323    0.5058   19.9924 C   0  0  0  0  0  0  0  0  0  0  0  0
    6.3082   -0.1951   19.3193 C   0  0  0  0  0  0  0  0  0  0  0  0
    7.5678   -0.3455   19.8748 C   0  0  0  0  0  0  0  0  0  0  0  0
   11.1205   -0.8987   23.0424 C   0  0  0  0  0  0  0  0  0  0  0  0
   11.3407   -1.4236   24.4607 C   0  0  0  0  0  0  0  0  0  0  0  0
   12.7923   -1.2794   24.8821 C   0  0  0  0  0  0  0  0  0  0  0  0
   13.7279   -1.9554   23.9011 C   0  0  0  0  0  0  0  0  0  0  0  0
   13.5184   -1.4273   22.4915 C   0  0  0  0  0  0  0  0  0  0  0  0
   12.0684   -1.5731   22.0561 C   0  0  0  0  0  0  0  0  0  0  0  0
   11.3333    0.5667   23.0371 C   0  0  0  0  0  0  0  0  0  0  0  0
   11.6548    1.7163   23.0406 C   0  0  0  0  0  0  0  0  0  0  0  0
   12.1246    3.0764   23.0171 C   0  0  0  0  0  0  0  0  0  0  0  0
   11.2594    4.1223   23.3221 C   0  0  0  0  0  0  0  0  0  0  0  0
   11.7554    5.4137   23.2867 C   0  0  0  0  0  0  0  0  0  0  0  0
   13.0754    5.6275   22.9548 C   0  0  0  0  0  0  0  0  0  0  0  0
   13.8599    4.5335   22.6675 C   0  0  0  0  0  0  0  0  0  0  0  0
   13.4169    3.2690   22.6909 N   0  0  0  0  0  0  0  0  0  0  0  0
  1  2  1  0
  2  3  1  0
  3  4  1  0
  4  5  1  0
  5  6  1  0
  6  7  1  0
  5  8  1  0
  8  9  1  0
  9 10  2  0
  9 11  1  0
 11 12  2  0
 12 13  1  0
 13 14  2  0
 14 15  1  0
 15 16  2  0
  8 17  1  0
 17 18  1  0
 18 19  1  0
 19 20  1  0
 20 21  1  0
 21 22  1  0
 17 23  1  0
 23 24  3  0
 24 25  1  0
 25 26  2  0
 26 27  1  0
 27 28  2  0
 28 29  1  0
 29 30  2  0
  7  2  1  0
 16 11  1  0
 22 17  1  0
 30 25  1  0
M  END
