CVD-0002952|dock_bobby27042020.75|mol2|24|dock2
     RDKit          3D

 26 28  0  0  0  0  0  0  0  0999 V2000
    6.7435   -4.1823   22.3450 Cl  0  0  0  0  0  0  0  0  0  0  0  0
    7.2427   -2.5017   22.5762 C   0  0  0  0  0  0  0  0  0  0  0  0
    6.9190   -1.6803   21.3428 C   0  0  0  0  0  0  0  0  0  0  0  0
    6.1505   -2.1364   20.5055 O   0  0  0  0  0  0  0  0  0  0  0  0
    7.4549   -0.4505   21.1464 N   0  0  0  0  0  0  0  0  0  0  0  0
    8.4167    0.0537   22.1126 C   0  0  0  0  0  0  0  0  0  0  0  0
    9.7810   -0.5243   21.9252 C   0  0  0  0  0  0  0  0  0  0  0  0
   10.2274   -1.5460   21.1400 C   0  0  0  0  0  0  0  0  0  0  0  0
   11.5592   -1.7035   21.3206 N   0  0  0  0  0  0  0  0  0  0  0  0
   11.9712   -0.8186   22.2002 N   0  0  0  0  0  0  0  0  0  0  0  0
   10.8917   -0.0893   22.5581 N   0  0  0  0  0  0  0  0  0  0  0  0
   11.0382    0.9746   23.5523 C   0  0  0  0  0  0  0  0  0  0  0  0
   11.8329    2.1502   23.0369 C   0  0  0  0  0  0  0  0  0  0  0  0
   11.2148    3.3620   22.7707 C   0  0  0  0  0  0  0  0  0  0  0  0
   11.9354    4.4431   22.2952 C   0  0  0  0  0  0  0  0  0  0  0  0
   13.2896    4.3047   22.0844 C   0  0  0  0  0  0  0  0  0  0  0  0
   14.2057    5.6595   21.4866 Cl  0  0  0  0  0  0  0  0  0  0  0  0
   13.9315    3.1127   22.3385 C   0  0  0  0  0  0  0  0  0  0  0  0
   13.1966    2.0410   22.8138 C   0  0  0  0  0  0  0  0  0  0  0  0
    7.1869    0.4741   20.0253 C   0  0  0  0  0  0  0  0  0  0  0  0
    5.9912    1.4219   20.1917 C   0  0  0  0  0  0  0  0  0  0  0  0
    4.7642    0.6839   19.6784 C   0  0  0  0  0  0  0  0  0  0  0  0
    5.3295   -0.3067   18.2923 S   0  0  0  0  0  0  0  0  0  0  0  0
    4.8787   -1.6653   18.4292 O   0  0  0  0  0  0  0  0  0  0  0  0
    5.0353    0.3779   17.0624 O   0  0  0  0  0  0  0  0  0  0  0  0
    7.0815   -0.2058   18.6768 C   0  0  0  0  0  0  0  0  0  0  0  0
  1  2  1  0
  2  3  1  0
  3  4  2  0
  3  5  1  0
  5  6  1  0
  6  7  1  0
  7  8  2  0
  8  9  1  0
  9 10  2  0
 10 11  1  0
 11 12  1  0
 12 13  1  0
 13 14  2  0
 14 15  1  0
 15 16  2  0
 16 17  1  0
 16 18  1  0
 18 19  2  0
  5 20  1  0
 20 21  1  0
 21 22  1  0
 22 23  1  0
 23 24  2  0
 23 25  2  0
 23 26  1  0
 11  7  1  0
 19 13  1  0
 26 20  1  0
M  END
