CVD-0002939|dock_bobby27042020.75|mol2|26|dock2
     RDKit          3D

 21 22  0  0  0  0  0  0  0  0999 V2000
   13.8074   -1.9228   20.9604 C   0  0  0  0  0  0  0  0  0  0  0  0
   13.9561   -2.0438   22.4494 C   0  0  0  0  0  0  0  0  0  0  0  0
   13.9305   -3.0892   23.0408 O   0  0  0  0  0  0  0  0  0  0  0  0
   14.1973   -0.4925   23.2469 S   0  0  0  0  0  0  0  0  0  0  0  0
   12.6579   -0.3361   24.2076 C   0  0  0  0  0  0  0  0  0  0  0  0
   11.4515   -0.4049   23.3092 C   0  0  0  0  0  0  0  0  0  0  0  0
   10.9060    0.7452   22.7607 C   0  0  0  0  0  0  0  0  0  0  0  0
    9.7990    0.6822   21.9331 C   0  0  0  0  0  0  0  0  0  0  0  0
    9.2043   -0.5339   21.6293 C   0  0  0  0  0  0  0  0  0  0  0  0
    9.7526   -1.6848   22.1769 C   0  0  0  0  0  0  0  0  0  0  0  0
   10.8597   -1.6206   23.0044 C   0  0  0  0  0  0  0  0  0  0  0  0
    8.0000   -0.6035   20.7250 C   0  0  0  0  0  0  0  0  0  0  0  0
    6.6918   -0.2633   21.4006 C   0  0  0  0  0  0  0  0  0  0  0  0
    5.5798   -0.3161   20.3759 C   0  0  0  0  0  0  0  0  0  0  0  0
    5.9152    0.5662   19.2394 N   0  0  0  0  0  0  0  0  0  0  0  0
    7.2045    0.2468   18.6331 C   0  0  0  0  0  0  0  0  0  0  0  0
    8.2226    0.2753   19.6086 O   0  0  0  0  0  0  0  0  0  0  0  0
    5.1031    1.5639   18.8239 C   0  0  0  0  0  0  0  0  0  0  0  0
    5.4145    2.2779   17.8791 O   0  0  0  0  0  0  0  0  0  0  0  0
    3.7969    1.7862   19.5621 C   0  0  0  0  0  0  0  0  0  0  0  0
    2.8841    3.1045   18.8163 Cl  0  0  0  0  0  0  0  0  0  0  0  0
  1  2  1  0
  2  3  2  0
  2  4  1  0
  4  5  1  0
  5  6  1  0
  6  7  2  0
  7  8  1  0
  8  9  2  0
  9 10  1  0
 10 11  2  0
  9 12  1  0
 12 13  1  0
 13 14  1  0
 14 15  1  0
 15 16  1  0
 16 17  1  0
 15 18  1  0
 18 19  2  0
 18 20  1  0
 20 21  1  0
 11  6  1  0
 17 12  1  0
M  END
