CVD-0000835|dock_bobby27042020.69|mol2|6|dock3
     RDKit          3D

 22 23  0  0  0  0  0  0  0  0999 V2000
    6.9187   -6.5533   22.1535 C   0  0  0  0  0  0  0  0  0  0  0  0
    6.8279   -5.5460   21.0504 C   0  0  0  0  0  0  0  0  0  0  0  0
    6.1263   -4.3480   21.4805 N   0  0  0  0  0  0  0  0  0  0  0  0
    6.2712   -3.1599   20.8709 C   0  0  0  0  0  0  0  0  0  0  0  0
    5.6834   -3.0231   19.6667 N   0  0  0  0  0  0  0  0  0  0  0  0
    5.8150   -1.8593   19.0198 C   0  0  0  0  0  0  0  0  0  0  0  0
    6.5231   -0.7922   19.5346 C   0  0  0  0  0  0  0  0  0  0  0  0
    6.6569    0.3986   18.8644 O   0  0  0  0  0  0  0  0  0  0  0  0
    5.6396    0.8446   17.9696 C   0  0  0  0  0  0  0  0  0  0  0  0
    7.1180   -0.9363   20.7749 C   0  0  0  0  0  0  0  0  0  0  0  0
    7.0071   -2.1266   21.4836 C   0  0  0  0  0  0  0  0  0  0  0  0
    7.6644   -2.2360   22.8405 C   0  0  0  0  0  0  0  0  0  0  0  0
    8.9986   -1.6207   22.8831 N   0  0  0  0  0  0  0  0  0  0  0  0
    9.8663   -2.2065   21.8571 C   0  0  0  0  0  0  0  0  0  0  0  0
   11.2290   -1.5394   21.8782 C   0  0  0  0  0  0  0  0  0  0  0  0
   11.8449   -1.6758   23.1999 N   0  0  0  0  0  0  0  0  0  0  0  0
   10.9739   -1.1524   24.2569 C   0  0  0  0  0  0  0  0  0  0  0  0
    9.6111   -1.8177   24.1945 C   0  0  0  0  0  0  0  0  0  0  0  0
   13.0756   -2.1965   23.3831 C   0  0  0  0  0  0  0  0  0  0  0  0
   13.7591   -2.5833   22.4435 O   0  0  0  0  0  0  0  0  0  0  0  0
   13.5778   -2.2753   24.8117 C   0  0  0  0  0  0  0  0  0  0  0  0
   13.7709   -0.6620   25.5100 Cl  0  0  0  0  0  0  0  0  0  0  0  0
  1  2  1  0
  2  3  1  0
  3  4  1  0
  4  5  2  0
  5  6  1  0
  6  7  2  0
  7  8  1  0
  8  9  1  0
  7 10  1  0
 10 11  2  0
 11 12  1  0
 12 13  1  0
 13 14  1  0
 14 15  1  0
 15 16  1  0
 16 17  1  0
 17 18  1  0
 16 19  1  0
 19 20  2  0
 19 21  1  0
 21 22  1  0
 11  4  1  0
 18 13  1  0
M  END
