CVD-0000665|dock_bobby27042020.83|mol2|38|dock1
     RDKit          3D

 23 24  0  0  0  0  0  0  0  0999 V2000
   13.4489    4.1449   22.7086 C   0  0  0  0  0  0  0  0  0  0  0  0
   12.0332    4.5107   23.0746 C   0  0  0  0  0  0  0  0  0  0  0  0
   11.7543    5.8328   23.4080 C   0  0  0  0  0  0  0  0  0  0  0  0
   10.4709    6.1957   23.7495 C   0  0  0  0  0  0  0  0  0  0  0  0
    9.4571    5.3357   23.7808 N   0  0  0  0  0  0  0  0  0  0  0  0
    9.7127    4.0625   23.4636 C   0  0  0  0  0  0  0  0  0  0  0  0
   10.9728    3.5844   23.1031 C   0  0  0  0  0  0  0  0  0  0  0  0
   11.2456    2.2292   22.7661 N   0  0  0  0  0  0  0  0  0  0  0  0
   10.5772    1.0906   23.0773 C   0  0  0  0  0  0  0  0  0  0  0  0
    9.5518    1.0171   23.7477 O   0  0  0  0  0  0  0  0  0  0  0  0
   11.2371   -0.1621   22.4974 C   0  0  0  0  0  0  0  0  0  0  0  0
   10.1667   -1.2355   22.2566 C   0  0  0  0  0  0  0  0  0  0  0  0
    9.4623   -1.0789   20.9796 N   0  0  0  0  0  0  0  0  0  0  0  0
    8.2665   -0.0186   20.8508 S   0  0  0  0  0  0  0  0  0  0  0  0
    7.5531   -0.2120   19.2632 C   0  0  0  0  0  0  0  0  0  0  0  0
    8.8529    1.2843   20.9181 O   0  0  0  0  0  0  0  0  0  0  0  0
    7.2829   -0.3760   21.8257 O   0  0  0  0  0  0  0  0  0  0  0  0
   12.3076   -0.6534   23.4589 C   0  0  0  0  0  0  0  0  0  0  0  0
   12.3945   -0.1416   24.7461 C   0  0  0  0  0  0  0  0  0  0  0  0
   13.3715   -0.5874   25.6205 C   0  0  0  0  0  0  0  0  0  0  0  0
   14.2736   -1.5492   25.2190 C   0  0  0  0  0  0  0  0  0  0  0  0
   14.1998   -2.0656   23.9430 C   0  0  0  0  0  0  0  0  0  0  0  0
   13.2232   -1.6204   23.0678 C   0  0  0  0  0  0  0  0  0  0  0  0
  1  2  1  0
  2  3  2  0
  3  4  1  0
  4  5  2  0
  5  6  1  0
  6  7  2  0
  7  8  1  0
  8  9  1  0
  9 10  2  0
  9 11  1  0
 11 12  1  0
 12 13  1  0
 13 14  1  0
 14 15  1  0
 14 16  2  0
 14 17  2  0
 11 18  1  0
 18 19  2  0
 19 20  1  0
 20 21  2  0
 21 22  1  0
 22 23  2  0
  7  2  1  0
 23 18  1  0
M  END
