CVD-0001484|dock_bobby27042020.67|mol2|3|dock2
     RDKit          3D

 23 25  0  0  0  0  0  0  0  0999 V2000
    6.7110   -6.5767   22.3476 C   0  0  0  0  0  0  0  0  0  0  0  0
    6.7894   -5.5774   21.2361 C   0  0  0  0  0  0  0  0  0  0  0  0
    6.2701   -4.2839   21.6482 N   0  0  0  0  0  0  0  0  0  0  0  0
    6.2960   -3.2004   20.8543 C   0  0  0  0  0  0  0  0  0  0  0  0
    5.7611   -3.3425   19.6252 N   0  0  0  0  0  0  0  0  0  0  0  0
    5.7799   -2.2855   18.8064 C   0  0  0  0  0  0  0  0  0  0  0  0
    6.3172   -1.0535   19.1579 C   0  0  0  0  0  0  0  0  0  0  0  0
    6.8604   -0.9193   20.4303 C   0  0  0  0  0  0  0  0  0  0  0  0
    6.8615   -1.9925   21.3144 C   0  0  0  0  0  0  0  0  0  0  0  0
    7.4538   -1.8021   22.6922 C   0  0  0  0  0  0  0  0  0  0  0  0
    8.6627   -0.9663   22.6858 N   0  0  0  0  0  0  0  0  0  0  0  0
    9.3281   -0.9688   23.9821 C   0  0  0  0  0  0  0  0  0  0  0  0
   10.6771   -0.3477   23.6885 C   0  0  0  0  0  0  0  0  0  0  0  0
   11.8207   -0.8319   24.5790 C   0  0  0  0  0  0  0  0  0  0  0  0
   12.6962   -1.5892   23.6972 N   0  0  0  0  0  0  0  0  0  0  0  0
   12.1955   -1.7565   22.3673 C   0  0  0  0  0  0  0  0  0  0  0  0
   10.9761   -0.8481   22.2679 C   0  0  0  0  0  0  0  0  0  0  0  0
    9.7041   -1.5751   21.8593 C   0  0  0  0  0  0  0  0  0  0  0  0
   13.8649   -2.1054   24.1468 C   0  0  0  0  0  0  0  0  0  0  0  0
   14.2372   -1.8582   25.5792 C   0  0  0  0  0  0  0  0  0  0  0  0
   14.5973   -2.7423   23.3980 O   0  0  0  0  0  0  0  0  0  0  0  0
    6.3140    0.0550   18.2355 C   0  0  0  0  0  0  0  0  0  0  0  0
    6.3181    0.9119   17.4801 N   0  0  0  0  0  0  0  0  0  0  0  0
  1  2  1  0
  2  3  1  0
  3  4  1  0
  4  5  2  0
  5  6  1  0
  6  7  2  0
  7  8  1  0
  8  9  2  0
  9 10  1  0
 10 11  1  0
 11 12  1  0
 13 12  1  0
 13 14  1  0
 14 15  1  0
 15 16  1  0
 17 16  1  0
 17 18  1  0
 15 19  1  0
 19 20  1  0
 19 21  2  0
  7 22  1  0
 22 23  3  0
  9  4  1  0
 18 11  1  0
 17 13  1  0
M  END
