CVD-0002999|dock_bobby27042020.75|mol2|17|dock3
     RDKit          3D

 32 35  0  0  0  0  0  0  0  0999 V2000
    1.3617   -9.4920   27.1369 O   0  0  0  0  0  0  0  0  0  0  0  0
    1.5996   -8.5509   26.0867 C   0  0  0  0  0  0  0  0  0  0  0  0
    2.9218   -7.8043   26.2160 C   0  0  0  0  0  0  0  0  0  0  0  0
    3.2113   -6.9154   25.0225 C   0  0  0  0  0  0  0  0  0  0  0  0
    3.1980   -7.6710   23.7642 N   0  0  0  0  0  0  0  0  0  0  0  0
    3.5315   -6.8038   22.6325 C   0  0  0  0  0  0  0  0  0  0  0  0
    4.8780   -6.1353   22.7490 C   0  0  0  0  0  0  0  0  0  0  0  0
    6.0616   -6.8069   22.6674 C   0  0  0  0  0  0  0  0  0  0  0  0
    7.4370   -5.7970   22.8266 S   0  0  0  0  0  0  0  0  0  0  0  0
    6.4009   -4.4189   23.0031 C   0  0  0  0  0  0  0  0  0  0  0  0
    6.9337   -3.1696   23.1812 N   0  0  0  0  0  0  0  0  0  0  0  0
    8.5229   -2.7375   23.2599 S   0  0  0  0  0  0  0  0  0  0  0  0
    9.2880   -3.9464   23.3274 O   0  0  0  0  0  0  0  0  0  0  0  0
    8.6239   -1.7862   24.3254 O   0  0  0  0  0  0  0  0  0  0  0  0
    8.8727   -1.9005   21.7240 C   0  0  0  0  0  0  0  0  0  0  0  0
    9.2661   -0.4453   21.8533 C   0  0  0  0  0  0  0  0  0  0  0  0
    8.3872    0.5876   21.5203 C   0  0  0  0  0  0  0  0  0  0  0  0
    8.7749    1.9103   21.6462 C   0  0  0  0  0  0  0  0  0  0  0  0
   10.0434    2.2114   22.1056 C   0  0  0  0  0  0  0  0  0  0  0  0
   10.9411    1.2044   22.4451 C   0  0  0  0  0  0  0  0  0  0  0  0
   12.3236    1.5470   22.9230 C   0  0  0  0  0  0  0  0  0  0  0  0
   13.2718    0.4004   22.6587 C   0  0  0  0  0  0  0  0  0  0  0  0
   12.7361   -0.8340   23.2420 N   0  0  0  0  0  0  0  0  0  0  0  0
   11.4710   -1.2807   22.6649 C   0  0  0  0  0  0  0  0  0  0  0  0
   10.5509   -0.1282   22.3184 C   0  0  0  0  0  0  0  0  0  0  0  0
   13.3808   -1.3892   24.2958 C   0  0  0  0  0  0  0  0  0  0  0  0
   14.3961   -0.8883   24.7628 O   0  0  0  0  0  0  0  0  0  0  0  0
   12.8110   -2.6561   24.9051 C   0  0  0  0  0  0  0  0  0  0  0  0
   13.9037   -3.3137   26.1302 Cl  0  0  0  0  0  0  0  0  0  0  0  0
    5.0722   -4.7532   22.9408 C   0  0  0  0  0  0  0  0  0  0  0  0
    1.8827   -8.2920   23.5865 C   0  0  0  0  0  0  0  0  0  0  0  0
    1.5693   -9.2438   24.7289 C   0  0  0  0  0  0  0  0  0  0  0  0
  1  2  1  0
  2  3  1  0
  3  4  1  0
  4  5  1  0
  5  6  1  0
  6  7  1  0
  7  8  2  0
  8  9  1  0
  9 10  1  0
 10 11  1  0
 11 12  1  0
 12 13  2  0
 12 14  2  0
 12 15  1  0
 15 16  1  0
 16 17  2  0
 17 18  1  0
 18 19  2  0
 19 20  1  0
 20 21  1  0
 21 22  1  0
 22 23  1  0
 23 24  1  0
 24 25  1  0
 23 26  1  0
 26 27  2  0
 26 28  1  0
 28 29  1  0
 10 30  2  0
  5 31  1  0
 31 32  1  0
 32  2  1  0
 30  7  1  0
 25 16  1  0
 25 20  2  0
M  END
