CVD-0000594|dock_bobby27042020.41|mol2|5|dock3
     RDKit          3D

 23 25  0  0  0  0  0  0  0  0999 V2000
   13.9577   -0.7044   23.6988 Cl  0  0  0  0  0  0  0  0  0  0  0  0
   12.4809   -0.0081   23.0932 C   0  0  0  0  0  0  0  0  0  0  0  0
   12.3508    1.3638   23.0699 C   0  0  0  0  0  0  0  0  0  0  0  0
   11.1706    1.9014   22.5836 C   0  0  0  0  0  0  0  0  0  0  0  0
   10.9720    3.2830   22.5387 O   0  0  0  0  0  0  0  0  0  0  0  0
   12.0157    4.2072   22.4605 C   0  0  0  0  0  0  0  0  0  0  0  0
   12.0506    5.2423   23.3790 C   0  0  0  0  0  0  0  0  0  0  0  0
   13.0716    6.1762   23.3195 C   0  0  0  0  0  0  0  0  0  0  0  0
   14.0483    6.0802   22.3518 C   0  0  0  0  0  0  0  0  0  0  0  0
   14.0096    5.0502   21.4368 C   0  0  0  0  0  0  0  0  0  0  0  0
   12.9946    4.1093   21.4845 C   0  0  0  0  0  0  0  0  0  0  0  0
   10.1492    1.0786   22.1380 C   0  0  0  0  0  0  0  0  0  0  0  0
   10.2883   -0.3069   22.1649 C   0  0  0  0  0  0  0  0  0  0  0  0
   11.4785   -0.8474   22.6522 C   0  0  0  0  0  0  0  0  0  0  0  0
    9.1360   -1.1373   21.6625 C   0  0  0  0  0  0  0  0  0  0  0  0
    8.5319   -0.7225   20.6792 O   0  0  0  0  0  0  0  0  0  0  0  0
    8.8169   -2.2943   22.3082 N   0  0  0  0  0  0  0  0  0  0  0  0
    7.8064   -3.2549   22.0436 C   0  0  0  0  0  0  0  0  0  0  0  0
    7.8828   -4.4819   22.6906 C   0  0  0  0  0  0  0  0  0  0  0  0
    6.9166   -5.4447   22.4587 C   0  0  0  0  0  0  0  0  0  0  0  0
    5.8962   -5.1553   21.5838 C   0  0  0  0  0  0  0  0  0  0  0  0
    5.7925   -3.9893   20.9466 N   0  0  0  0  0  0  0  0  0  0  0  0
    6.7307   -3.0653   21.1769 C   0  0  0  0  0  0  0  0  0  0  0  0
  1  2  1  0
  2  3  2  0
  3  4  1  0
  4  5  1  0
  5  6  1  0
  6  7  2  0
  7  8  1  0
  8  9  2  0
  9 10  1  0
 10 11  2  0
  4 12  2  0
 12 13  1  0
 13 14  2  0
 13 15  1  0
 15 16  2  0
 15 17  1  0
 17 18  1  0
 18 19  2  0
 19 20  1  0
 20 21  2  0
 21 22  1  0
 22 23  2  0
 14  2  1  0
 23 18  1  0
 11  6  1  0
M  END
