CVD-0002963|dock_bobby27042020.89|mol2|28|dock3
     RDKit          3D

 41 46  0  0  0  0  0  0  0  0999 V2000
    3.1713    2.8112   18.6814 Cl  0  0  0  0  0  0  0  0  0  0  0  0
    4.5755    1.9038   19.1683 C   0  0  0  0  0  0  0  0  0  0  0  0
    5.2488    1.1493   18.2329 C   0  0  0  0  0  0  0  0  0  0  0  0
    6.3636    0.4318   18.6327 C   0  0  0  0  0  0  0  0  0  0  0  0
    6.7875    0.4776   19.9504 C   0  0  0  0  0  0  0  0  0  0  0  0
    6.1067    1.2395   20.8871 C   0  0  0  0  0  0  0  0  0  0  0  0
    6.5664    1.2876   22.3244 C   0  0  0  0  0  0  0  0  0  0  0  0
    8.0216    1.4158   22.4607 N   0  0  0  0  0  0  0  0  0  0  0  0
    8.8191    0.3220   22.6717 C   0  0  0  0  0  0  0  0  0  0  0  0
    8.1084   -0.8020   22.7124 O   0  0  0  0  0  0  0  0  0  0  0  0
    8.8272   -2.0321   23.0037 C   0  0  0  0  0  0  0  0  0  0  0  0
    7.8761   -3.1940   23.0481 C   0  0  0  0  0  0  0  0  0  0  0  0
    7.1557   -3.5689   21.9274 C   0  0  0  0  0  0  0  0  0  0  0  0
    6.2706   -4.6308   21.9721 C   0  0  0  0  0  0  0  0  0  0  0  0
    6.0690   -5.3606   23.1406 C   0  0  0  0  0  0  0  0  0  0  0  0
    6.8263   -4.9997   24.2559 C   0  0  0  0  0  0  0  0  0  0  0  0
    7.6992   -3.9268   24.2092 C   0  0  0  0  0  0  0  0  0  0  0  0
    5.0620   -6.4793   23.0920 C   0  0  0  0  0  0  0  0  0  0  0  0
    5.3539   -7.4268   22.3825 O   0  0  0  0  0  0  0  0  0  0  0  0
    3.8830   -6.4934   23.7575 N   0  0  0  0  0  0  0  0  0  0  0  0
    3.4741   -5.4239   24.6754 C   0  0  0  0  0  0  0  0  0  0  0  0
    2.9296   -6.0235   25.9560 C   0  0  0  0  0  0  0  0  0  0  0  0
    1.8676   -6.9226   25.7083 O   0  0  0  0  0  0  0  0  0  0  0  0
    2.3128   -7.9914   24.8726 C   0  0  0  0  0  0  0  0  0  0  0  0
    2.8156   -7.4752   23.5427 C   0  0  0  0  0  0  0  0  0  0  0  0
   10.1070    0.3554   22.8229 N   0  0  0  0  0  0  0  0  0  0  0  0
   10.7788    1.5608   22.7765 C   0  0  0  0  0  0  0  0  0  0  0  0
   11.9982    1.5466   22.9528 O   0  0  0  0  0  0  0  0  0  0  0  0
   10.0133    2.7327   22.5445 C   0  0  0  0  0  0  0  0  0  0  0  0
   10.2908    4.1067   22.4138 N   0  0  0  0  0  0  0  0  0  0  0  0
   11.5787    4.7650   22.4515 C   0  0  0  0  0  0  0  0  0  0  0  0
   12.6059    4.3575   21.6115 C   0  0  0  0  0  0  0  0  0  0  0  0
   13.8217    5.0166   21.6558 C   0  0  0  0  0  0  0  0  0  0  0  0
   13.9691    6.0650   22.5341 C   0  0  0  0  0  0  0  0  0  0  0  0
   13.0003    6.4703   23.3553 N   0  0  0  0  0  0  0  0  0  0  0  0
   11.8394    5.8084   23.3238 C   0  0  0  0  0  0  0  0  0  0  0  0
    9.0894    4.7984   22.2293 C   0  0  0  0  0  0  0  0  0  0  0  0
    8.9351    6.0059   22.0880 O   0  0  0  0  0  0  0  0  0  0  0  0
    8.0909    3.8510   22.2223 N   0  0  0  0  0  0  0  0  0  0  0  0
    8.6592    2.6267   22.4073 C   0  0  0  0  0  0  0  0  0  0  0  0
    4.9882    1.9573   20.4839 C   0  0  0  0  0  0  0  0  0  0  0  0
  1  2  1  0
  2  3  2  0
  3  4  1  0
  4  5  2  0
  5  6  1  0
  6  7  1  0
  7  8  1  0
  8  9  1  0
  9 10  1  0
 10 11  1  0
 11 12  1  0
 12 13  2  0
 13 14  1  0
 14 15  2  0
 15 16  1  0
 16 17  2  0
 15 18  1  0
 18 19  2  0
 18 20  1  0
 20 21  1  0
 21 22  1  0
 22 23  1  0
 23 24  1  0
 24 25  1  0
  9 26  2  0
 26 27  1  0
 27 28  2  0
 27 29  1  0
 29 30  1  0
 30 31  1  0
 31 32  2  0
 32 33  1  0
 33 34  2  0
 34 35  1  0
 35 36  2  0
 30 37  1  0
 37 38  2  0
 37 39  1  0
 39 40  1  0
  6 41  2  0
 41  2  1  0
 40  8  1  0
 17 12  1  0
 25 20  1  0
 40 29  2  0
 36 31  1  0
M  END
