CVD-0003654|dock_bobby27042020.16|mol2|1|dock2
     RDKit          3D

 25 26  0  0  0  0  0  0  0  0999 V2000
    8.6496   -1.1187   20.9419 C   0  0  0  0  0  0  0  0  0  0  0  0
    9.8987   -0.4463   21.2284 O   0  0  0  0  0  0  0  0  0  0  0  0
    9.8003    0.7192   21.8680 C   0  0  0  0  0  0  0  0  0  0  0  0
    8.7422    1.2293   22.1526 O   0  0  0  0  0  0  0  0  0  0  0  0
   11.1415    1.2844   22.1717 C   0  0  0  0  0  0  0  0  0  0  0  0
   11.3394    2.9956   21.9636 S   0  0  0  0  0  0  0  0  0  0  0  0
   12.9864    2.8316   22.4698 C   0  0  0  0  0  0  0  0  0  0  0  0
   13.8811    3.8040   22.5798 N   0  0  0  0  0  0  0  0  0  0  0  0
   13.5087    5.3643   22.2285 S   0  0  0  0  0  0  0  0  0  0  0  0
   14.6862    6.1370   22.4816 O   0  0  0  0  0  0  0  0  0  0  0  0
   12.9222    5.3651   20.9232 O   0  0  0  0  0  0  0  0  0  0  0  0
   12.2741    5.8445   23.3881 C   0  0  0  0  0  0  0  0  0  0  0  0
   10.9868    6.1109   22.9499 C   0  0  0  0  0  0  0  0  0  0  0  0
   10.0215    6.4834   23.8684 C   0  0  0  0  0  0  0  0  0  0  0  0
   10.3277    6.5917   25.2153 C   0  0  0  0  0  0  0  0  0  0  0  0
    9.2913    6.9866   26.1880 C   0  0  0  0  0  0  0  0  0  0  0  0
    9.6515    7.2005   27.5037 F   0  0  0  0  0  0  0  0  0  0  0  0
   11.6188    6.3187   25.6374 C   0  0  0  0  0  0  0  0  0  0  0  0
   12.5961    5.9450   24.7321 C   0  0  0  0  0  0  0  0  0  0  0  0
   13.3473    1.6116   22.7647 N   0  0  0  0  0  0  0  0  0  0  0  0
   12.3190    0.7165   22.6036 C   0  0  0  0  0  0  0  0  0  0  0  0
   12.6658   -0.7303   22.9296 C   0  0  0  0  0  0  0  0  0  0  0  0
   13.9322   -0.7530   23.7904 C   0  0  0  0  0  0  0  0  0  0  0  0
   12.9457   -1.5259   21.6507 C   0  0  0  0  0  0  0  0  0  0  0  0
   11.5381   -1.3960   23.7249 C   0  0  0  0  0  0  0  0  0  0  0  0
  1  2  1  0
  2  3  1  0
  3  4  2  0
  3  5  1  0
  5  6  1  0
  6  7  1  0
  7  8  1  0
  8  9  1  0
  9 10  2  0
  9 11  2  0
  9 12  1  0
 12 13  2  0
 13 14  1  0
 14 15  2  0
 15 16  1  0
 16 17  1  0
 15 18  1  0
 18 19  2  0
  7 20  2  0
 20 21  1  0
 21 22  1  0
 22 23  1  0
 22 24  1  0
 22 25  1  0
 21  5  2  0
 19 12  1  0
M  END
