CVD-0003983|dock_bobby27042020.72|mol2|11|dock1
     RDKit          3D

 14 13  0  0  0  0  0  0  0  0999 V2000
    8.4506   -0.6903   18.5539 O   0  0  0  0  0  0  0  0  0  0  0  0
    8.0875    0.2967   19.3304 C   0  0  0  0  0  0  0  0  0  0  0  0
    8.8272    0.8225   20.1416 O   0  0  0  0  0  0  0  0  0  0  0  0
    6.6217    0.7260   19.1114 C   0  0  0  0  0  0  0  0  0  0  0  0
    6.2732    1.8462   19.4721 O   0  0  0  0  0  0  0  0  0  0  0  0
    5.6099   -0.2308   18.4523 C   0  0  0  0  0  0  0  0  0  0  0  0
    4.6009    0.1984   17.9009 O   0  0  0  0  0  0  0  0  0  0  0  0
    5.8501   -1.7532   18.4750 C   0  0  0  0  0  0  0  0  0  0  0  0
    5.7812   -2.4739   17.4802 O   0  0  0  0  0  0  0  0  0  0  0  0
    6.1556   -2.2622   19.7253 N   0  0  0  0  0  0  0  0  0  0  0  0
    6.4548   -3.8201   20.0439 S   0  0  0  0  0  0  0  0  0  0  0  0
    7.8727   -3.8789   20.1000 O   0  0  0  0  0  0  0  0  0  0  0  0
    5.9051   -4.5455   18.9516 O   0  0  0  0  0  0  0  0  0  0  0  0
    5.8313   -4.0792   21.2950 O   0  0  0  0  0  0  0  0  0  0  0  0
  1  2  1  0
  2  3  2  0
  2  4  1  0
  4  5  2  0
  4  6  1  0
  6  7  2  0
  6  8  1  0
  8  9  2  0
  8 10  1  0
 10 11  1  0
 11 12  1  0
 11 13  2  0
 11 14  2  0
M  END
