CVD-0001621|dock_bobby27042020.52|mol2|8|dock2
     RDKit          3D

 17 18  0  0  0  0  0  0  0  0999 V2000
    9.6537    1.3484   23.7417 F   0  0  0  0  0  0  0  0  0  0  0  0
   10.6322    1.4315   22.8095 C   0  0  0  0  0  0  0  0  0  0  0  0
   10.0355    1.0992   21.6406 F   0  0  0  0  0  0  0  0  0  0  0  0
   11.6650    0.4376   23.1095 N   0  0  0  0  0  0  0  0  0  0  0  0
   12.1878    0.5931   24.4655 C   0  0  0  0  0  0  0  0  0  0  0  0
   13.3427   -0.3508   24.6959 C   0  0  0  0  0  0  0  0  0  0  0  0
   12.9547   -1.7359   24.4227 N   0  0  0  0  0  0  0  0  0  0  0  0
   12.2956   -1.9139   23.1263 C   0  0  0  0  0  0  0  0  0  0  0  0
   11.1692   -0.9277   22.9683 C   0  0  0  0  0  0  0  0  0  0  0  0
   13.3933   -2.7762   25.1127 C   0  0  0  0  0  0  0  0  0  0  0  0
   13.7856   -3.6510   25.7416 N   0  0  0  0  0  0  0  0  0  0  0  0
   11.2183    2.8241   22.7538 C   0  0  0  0  0  0  0  0  0  0  0  0
   10.6472    4.0118   23.1353 C   0  0  0  0  0  0  0  0  0  0  0  0
   11.4715    5.1192   22.9502 C   0  0  0  0  0  0  0  0  0  0  0  0
   12.6650    4.7755   22.4316 C   0  0  0  0  0  0  0  0  0  0  0  0
   14.0862    5.9193   22.0139 Br  0  0  0  0  0  0  0  0  0  0  0  0
   12.8183    3.0899   22.1537 S   0  0  0  0  0  0  0  0  0  0  0  0
  1  2  1  0
  2  3  1  0
  2  4  1  0
  4  5  1  0
  5  6  1  0
  6  7  1  0
  7  8  1  0
  8  9  1  0
  7 10  1  0
 10 11  3  0
  2 12  1  0
 12 13  2  0
 13 14  1  0
 14 15  2  0
 15 16  1  0
 15 17  1  0
  9  4  1  0
 17 12  1  0
M  END
