CVD-0000850|dock_bobby27042020.26|mol2|5|dock2
     RDKit          3D

 19 21  0  0  0  0  0  0  0  0999 V2000
    9.3626    0.4066   20.9592 O   0  0  0  0  0  0  0  0  0  0  0  0
    8.7156   -0.4786   21.4857 C   0  0  0  0  0  0  0  0  0  0  0  0
    9.2608   -1.1744   22.7187 C   0  0  0  0  0  0  0  0  0  0  0  0
    8.6968   -2.5740   22.9577 C   0  0  0  0  0  0  0  0  0  0  0  0
    7.2015   -2.4194   22.9690 C   0  0  0  0  0  0  0  0  0  0  0  0
    6.6913   -1.9641   21.6252 C   0  0  0  0  0  0  0  0  0  0  0  0
    7.4598   -0.8127   21.0615 N   0  0  0  0  0  0  0  0  0  0  0  0
    6.9165   -0.1169   19.9217 C   0  0  0  0  0  0  0  0  0  0  0  0
    5.7163    0.5826   19.9813 C   0  0  0  0  0  0  0  0  0  0  0  0
    5.2491    1.2398   18.8569 C   0  0  0  0  0  0  0  0  0  0  0  0
    5.9840    1.1656   17.6975 C   0  0  0  0  0  0  0  0  0  0  0  0
    7.1290    0.4908   17.6059 N   0  0  0  0  0  0  0  0  0  0  0  0
    7.5815   -0.1220   18.7043 C   0  0  0  0  0  0  0  0  0  0  0  0
   10.7774   -1.2139   22.6184 C   0  0  0  0  0  0  0  0  0  0  0  0
   11.5699   -0.7463   23.6575 C   0  0  0  0  0  0  0  0  0  0  0  0
   12.9513   -0.7805   23.5646 C   0  0  0  0  0  0  0  0  0  0  0  0
   13.5570   -1.2818   22.4325 C   0  0  0  0  0  0  0  0  0  0  0  0
   12.7823   -1.7487   21.3923 C   0  0  0  0  0  0  0  0  0  0  0  0
   11.4008   -1.7150   21.4841 C   0  0  0  0  0  0  0  0  0  0  0  0
  1  2  2  0
  2  3  1  0
  3  4  1  0
  4  5  1  0
  5  6  1  0
  6  7  1  0
  7  8  1  0
  8  9  2  0
  9 10  1  0
 10 11  2  0
 11 12  1  0
 12 13  2  0
  3 14  1  0
 14 15  2  0
 15 16  1  0
 16 17  2  0
 17 18  1  0
 18 19  2  0
  7  2  1  0
 13  8  1  0
 19 14  1  0
M  END
