CVD-0002988|dock_bobby27042020.32|mol2|25|dock2
     RDKit          3D

 21 23  0  0  0  0  0  0  0  0999 V2000
   12.6760   -0.6666   25.6245 N   0  0  0  0  0  0  0  0  0  0  0  0
   12.5229   -1.0578   24.3151 C   0  0  0  0  0  0  0  0  0  0  0  0
   13.6297   -1.4105   23.5415 C   0  0  0  0  0  0  0  0  0  0  0  0
   13.4576   -1.8051   22.2264 C   0  0  0  0  0  0  0  0  0  0  0  0
   12.1898   -1.8490   21.6711 C   0  0  0  0  0  0  0  0  0  0  0  0
   11.0698   -1.4957   22.4144 C   0  0  0  0  0  0  0  0  0  0  0  0
   11.2547   -1.1090   23.7362 C   0  0  0  0  0  0  0  0  0  0  0  0
    9.6814   -1.5343   21.7783 C   0  0  0  0  0  0  0  0  0  0  0  0
    8.7870   -2.5113   22.4664 C   0  0  0  0  0  0  0  0  0  0  0  0
    7.4584   -2.5685   21.8084 N   0  0  0  0  0  0  0  0  0  0  0  0
    6.8192   -1.2923   21.4349 C   0  0  0  0  0  0  0  0  0  0  0  0
    7.6730   -0.0406   21.6576 C   0  0  0  0  0  0  0  0  0  0  0  0
    7.0892    1.2209   21.6049 C   0  0  0  0  0  0  0  0  0  0  0  0
    7.8621    2.3653   21.6867 C   0  0  0  0  0  0  0  0  0  0  0  0
    9.2293    2.2552   21.8226 C   0  0  0  0  0  0  0  0  0  0  0  0
    9.8113    1.0015   21.8752 C   0  0  0  0  0  0  0  0  0  0  0  0
    9.0513   -0.1646   21.7946 C   0  0  0  0  0  0  0  0  0  0  0  0
    6.8221   -3.6988   21.4293 C   0  0  0  0  0  0  0  0  0  0  0  0
    5.7259   -3.6569   20.8850 O   0  0  0  0  0  0  0  0  0  0  0  0
    7.5080   -5.0265   21.6889 C   0  0  0  0  0  0  0  0  0  0  0  0
    6.4525   -6.3730   21.2412 Cl  0  0  0  0  0  0  0  0  0  0  0  0
  1  2  1  0
  2  3  2  0
  3  4  1  0
  4  5  2  0
  5  6  1  0
  6  7  2  0
  6  8  1  0
  8  9  1  0
  9 10  1  0
 10 11  1  0
 11 12  1  0
 12 13  2  0
 13 14  1  0
 14 15  2  0
 15 16  1  0
 16 17  2  0
 10 18  1  0
 18 19  2  0
 18 20  1  0
 20 21  1  0
  7  2  1  0
 17  8  1  0
 17 12  1  0
M  END
