CVD-0001612|dock_bobby27042020.80|mol2|32|dock1
     RDKit          3D

 18 19  0  0  0  0  0  0  0  0999 V2000
    8.2282   -3.2613   23.5379 C   0  0  0  0  0  0  0  0  0  0  0  0
    8.3505   -2.5112   22.2209 C   0  0  0  0  0  0  0  0  0  0  0  0
    6.9718   -2.0168   21.8243 C   0  0  0  0  0  0  0  0  0  0  0  0
    7.0282   -1.3235   20.5354 N   0  0  0  0  0  0  0  0  0  0  0  0
    8.0060   -0.2311   20.5536 C   0  0  0  0  0  0  0  0  0  0  0  0
    9.3677   -0.7497   20.9792 C   0  0  0  0  0  0  0  0  0  0  0  0
    9.2914   -1.3893   22.2900 N   0  0  0  0  0  0  0  0  0  0  0  0
   10.6396   -1.7658   22.7462 C   0  0  0  0  0  0  0  0  0  0  0  0
   11.5822   -0.5993   22.7325 C   0  0  0  0  0  0  0  0  0  0  0  0
   12.9145   -0.6000   22.3862 C   0  0  0  0  0  0  0  0  0  0  0  0
   13.5196    0.6514   22.4771 C   0  0  0  0  0  0  0  0  0  0  0  0
   12.6562    1.5986   22.8892 C   0  0  0  0  0  0  0  0  0  0  0  0
   13.0164    3.4158   23.1558 Br  0  0  0  0  0  0  0  0  0  0  0  0
   11.0781    0.9918   23.1789 S   0  0  0  0  0  0  0  0  0  0  0  0
    6.2382   -1.6700   19.4911 C   0  0  0  0  0  0  0  0  0  0  0  0
    5.4257   -2.5827   19.5734 O   0  0  0  0  0  0  0  0  0  0  0  0
    6.3838   -0.9003   18.1922 C   0  0  0  0  0  0  0  0  0  0  0  0
    5.8692    0.7802   18.3880 Cl  0  0  0  0  0  0  0  0  0  0  0  0
  1  2  1  0
  2  3  1  0
  3  4  1  0
  4  5  1  0
  5  6  1  0
  6  7  1  0
  7  8  1  0
  8  9  1  0
  9 10  2  0
 10 11  1  0
 11 12  2  0
 12 13  1  0
 12 14  1  0
  4 15  1  0
 15 16  2  0
 15 17  1  0
 17 18  1  0
  7  2  1  0
 14  9  1  0
M  END
