CVD-0002869|dock_bobby27042020.75|mol2|36|dock2
     RDKit          3D

 30 33  0  0  0  0  0  0  0  0999 V2000
   12.0530    2.5904   24.4153 N   0  0  0  0  0  0  0  0  0  0  0  0
   12.3828    1.4849   23.6668 C   0  0  0  0  0  0  0  0  0  0  0  0
   13.5245    1.4818   22.8650 C   0  0  0  0  0  0  0  0  0  0  0  0
   13.8502    0.3702   22.1114 C   0  0  0  0  0  0  0  0  0  0  0  0
   13.0467   -0.7632   22.1361 C   0  0  0  0  0  0  0  0  0  0  0  0
   13.4246   -1.8119   21.3590 O   0  0  0  0  0  0  0  0  0  0  0  0
   11.8913   -0.7878   22.9429 C   0  0  0  0  0  0  0  0  0  0  0  0
   11.5791    0.3453   23.6981 C   0  0  0  0  0  0  0  0  0  0  0  0
   11.0248   -2.0251   23.0034 C   0  0  0  0  0  0  0  0  0  0  0  0
   11.5319   -3.0430   23.4431 O   0  0  0  0  0  0  0  0  0  0  0  0
    9.7320   -2.0779   22.6090 N   0  0  0  0  0  0  0  0  0  0  0  0
    9.0806   -0.8947   22.0714 C   0  0  0  0  0  0  0  0  0  0  0  0
    8.4426   -1.1974   20.7522 C   0  0  0  0  0  0  0  0  0  0  0  0
    7.5181   -2.3282   20.9152 N   0  0  0  0  0  0  0  0  0  0  0  0
    8.2121   -3.5374   21.3824 C   0  0  0  0  0  0  0  0  0  0  0  0
    8.8572   -3.2507   22.7060 C   0  0  0  0  0  0  0  0  0  0  0  0
    6.3412   -2.4946   19.7994 S   0  0  0  0  0  0  0  0  0  0  0  0
    6.9551   -3.0648   18.6406 O   0  0  0  0  0  0  0  0  0  0  0  0
    5.2622   -3.1752   20.4453 O   0  0  0  0  0  0  0  0  0  0  0  0
    5.7832   -0.8614   19.3758 C   0  0  0  0  0  0  0  0  0  0  0  0
    5.7014   -0.5498   18.0470 C   0  0  0  0  0  0  0  0  0  0  0  0
    5.2758    0.6969   17.6223 C   0  0  0  0  0  0  0  0  0  0  0  0
    4.9199    1.6606   18.5303 C   0  0  0  0  0  0  0  0  0  0  0  0
    4.5017    2.8878   18.1324 O   0  0  0  0  0  0  0  0  0  0  0  0
    4.9867    1.3790   19.9213 C   0  0  0  0  0  0  0  0  0  0  0  0
    4.6235    2.3626   20.7962 N   0  0  0  0  0  0  0  0  0  0  0  0
    4.6889    2.0872   22.0875 C   0  0  0  0  0  0  0  0  0  0  0  0
    5.0967    0.8803   22.6143 C   0  0  0  0  0  0  0  0  0  0  0  0
    5.4647   -0.1172   21.7618 C   0  0  0  0  0  0  0  0  0  0  0  0
    5.4211    0.1054   20.3635 C   0  0  0  0  0  0  0  0  0  0  0  0
  1  2  1  0
  2  3  2  0
  3  4  1  0
  4  5  2  0
  5  6  1  0
  5  7  1  0
  7  8  2  0
  7  9  1  0
  9 10  2  0
  9 11  1  0
 11 12  1  0
 12 13  1  0
 13 14  1  0
 14 15  1  0
 15 16  1  0
 14 17  1  0
 17 18  2  0
 17 19  2  0
 17 20  1  0
 20 21  2  0
 21 22  1  0
 22 23  2  0
 23 24  1  0
 23 25  1  0
 25 26  2  0
 26 27  1  0
 27 28  2  0
 28 29  1  0
 29 30  2  0
  8  2  1  0
 16 11  1  0
 30 20  1  0
 30 25  1  0
M  END
