CVD-0003044|dock_bobby27042020.46|mol2|30|dock3
     RDKit          3D

 26 28  0  0  0  0  0  0  0  0999 V2000
    4.1408    0.6389   19.5610 Cl  0  0  0  0  0  0  0  0  0  0  0  0
    4.9570   -0.0274   18.1406 C   0  0  0  0  0  0  0  0  0  0  0  0
    6.4487    0.2448   18.1801 C   0  0  0  0  0  0  0  0  0  0  0  0
    6.9632    1.0702   17.4360 O   0  0  0  0  0  0  0  0  0  0  0  0
    7.1797   -0.4547   19.0729 N   0  0  0  0  0  0  0  0  0  0  0  0
    6.6701   -1.4550   20.0161 C   0  0  0  0  0  0  0  0  0  0  0  0
    7.2358   -1.2241   21.3933 C   0  0  0  0  0  0  0  0  0  0  0  0
    8.7076   -1.2354   21.3635 N   0  0  0  0  0  0  0  0  0  0  0  0
    9.1447   -0.1616   20.4701 C   0  0  0  0  0  0  0  0  0  0  0  0
    8.6396   -0.3856   19.0647 C   0  0  0  0  0  0  0  0  0  0  0  0
    9.2731   -1.0567   22.7234 C   0  0  0  0  0  0  0  0  0  0  0  0
    8.9868   -2.2737   23.6124 C   0  0  0  0  0  0  0  0  0  0  0  0
    9.8410   -2.3118   24.8788 C   0  0  0  0  0  0  0  0  0  0  0  0
    9.5535   -3.5120   25.7483 C   0  0  0  0  0  0  0  0  0  0  0  0
   10.2551   -4.6957   25.5787 C   0  0  0  0  0  0  0  0  0  0  0  0
    9.9896   -5.7980   26.3739 C   0  0  0  0  0  0  0  0  0  0  0  0
    9.0176   -5.7302   27.3487 C   0  0  0  0  0  0  0  0  0  0  0  0
    8.3114   -4.5602   27.5274 C   0  0  0  0  0  0  0  0  0  0  0  0
    8.5777   -3.4586   26.7316 C   0  0  0  0  0  0  0  0  0  0  0  0
   10.7654   -0.7922   22.7072 C   0  0  0  0  0  0  0  0  0  0  0  0
   11.6477   -1.7429   22.2137 C   0  0  0  0  0  0  0  0  0  0  0  0
   13.0111   -1.5010   22.1958 C   0  0  0  0  0  0  0  0  0  0  0  0
   13.5118   -0.3010   22.6716 C   0  0  0  0  0  0  0  0  0  0  0  0
   12.6301    0.6387   23.1587 C   0  0  0  0  0  0  0  0  0  0  0  0
   13.2453    2.1528   23.7600 Cl  0  0  0  0  0  0  0  0  0  0  0  0
   11.2694    0.4094   23.1820 C   0  0  0  0  0  0  0  0  0  0  0  0
  1  2  1  0
  2  3  1  0
  3  4  2  0
  3  5  1  0
  5  6  1  0
  6  7  1  0
  7  8  1  0
  8  9  1  0
  9 10  1  0
  8 11  1  0
 11 12  1  0
 12 13  1  0
 13 14  1  0
 14 15  2  0
 15 16  1  0
 16 17  2  0
 17 18  1  0
 18 19  2  0
 11 20  1  0
 20 21  2  0
 21 22  1  0
 22 23  2  0
 23 24  1  0
 24 25  1  0
 24 26  2  0
 10  5  1  0
 19 14  1  0
 26 20  1  0
M  END
