CVD-0000983|dock_bobby27042020.68|mol2|30|dock1
     RDKit          3D

 36 40  0  0  0  0  0  0  0  0999 V2000
   14.3078    6.7133   21.8477 C   0  0  0  0  0  0  0  0  0  0  0  0
   13.1705    6.4229   22.6579 O   0  0  0  0  0  0  0  0  0  0  0  0
   12.6938    5.1387   22.7445 C   0  0  0  0  0  0  0  0  0  0  0  0
   11.3583    4.9513   23.0502 C   0  0  0  0  0  0  0  0  0  0  0  0
   10.8336    3.6748   23.1485 C   0  0  0  0  0  0  0  0  0  0  0  0
   11.6335    2.5503   22.9520 C   0  0  0  0  0  0  0  0  0  0  0  0
   12.9735    2.7623   22.6403 C   0  0  0  0  0  0  0  0  0  0  0  0
   13.5056    4.0352   22.5358 C   0  0  0  0  0  0  0  0  0  0  0  0
   11.1508    1.1551   23.0512 C   0  0  0  0  0  0  0  0  0  0  0  0
   12.0292    0.1752   23.1951 N   0  0  0  0  0  0  0  0  0  0  0  0
   11.2607   -0.9750   23.2613 C   0  0  0  0  0  0  0  0  0  0  0  0
   11.5426   -2.3176   23.4051 C   0  0  0  0  0  0  0  0  0  0  0  0
   13.1750   -2.8868   23.5472 Cl  0  0  0  0  0  0  0  0  0  0  0  0
   10.5966   -3.2421   23.4431 N   0  0  0  0  0  0  0  0  0  0  0  0
    9.3242   -2.8138   23.3358 C   0  0  0  0  0  0  0  0  0  0  0  0
    8.3162   -3.7670   23.3762 N   0  0  0  0  0  0  0  0  0  0  0  0
    7.6228   -4.2679   24.4276 C   0  0  0  0  0  0  0  0  0  0  0  0
    7.7824   -3.9387   25.6004 O   0  0  0  0  0  0  0  0  0  0  0  0
    6.5920   -5.3070   24.0417 C   0  0  0  0  0  0  0  0  0  0  0  0
    5.9613   -5.9871   25.2544 C   0  0  0  0  0  0  0  0  0  0  0  0
    4.9843   -7.0516   24.7860 C   0  0  0  0  0  0  0  0  0  0  0  0
    3.9301   -6.4646   23.9649 N   0  0  0  0  0  0  0  0  0  0  0  0
    2.9346   -7.4826   23.5919 C   0  0  0  0  0  0  0  0  0  0  0  0
    1.8569   -6.9972   22.6496 C   0  0  0  0  0  0  0  0  0  0  0  0
    1.2544   -5.7626   22.8385 C   0  0  0  0  0  0  0  0  0  0  0  0
    0.2715   -5.3047   21.9791 C   0  0  0  0  0  0  0  0  0  0  0  0
   -0.1097   -6.0952   20.9165 C   0  0  0  0  0  0  0  0  0  0  0  0
   -1.4588   -5.4781   19.7303 Br  0  0  0  0  0  0  0  0  0  0  0  0
    0.4717   -7.3258   20.7000 C   0  0  0  0  0  0  0  0  0  0  0  0
    1.4529   -7.7676   21.5695 C   0  0  0  0  0  0  0  0  0  0  0  0
    4.5388   -5.8711   22.7694 C   0  0  0  0  0  0  0  0  0  0  0  0
    5.5000   -4.7521   23.1391 C   0  0  0  0  0  0  0  0  0  0  0  0
    8.9099   -1.5431   23.1910 N   0  0  0  0  0  0  0  0  0  0  0  0
    9.9226   -0.6732   23.1581 C   0  0  0  0  0  0  0  0  0  0  0  0
    9.8493    0.6909   23.0159 N   0  0  0  0  0  0  0  0  0  0  0  0
    8.5741    1.3926   22.9011 C   0  0  0  0  0  0  0  0  0  0  0  0
  1  2  1  0
  2  3  1  0
  3  4  2  0
  4  5  1  0
  5  6  2  0
  6  7  1  0
  7  8  2  0
  6  9  1  0
  9 10  2  0
 10 11  1  0
 11 12  2  0
 12 13  1  0
 12 14  1  0
 14 15  2  0
 15 16  1  0
 16 17  1  0
 17 18  2  0
 17 19  1  0
 19 20  1  0
 20 21  1  0
 21 22  1  0
 22 23  1  0
 23 24  1  0
 24 25  2  0
 25 26  1  0
 26 27  2  0
 27 28  1  0
 27 29  1  0
 29 30  2  0
 22 31  1  0
 31 32  1  0
 15 33  1  0
 33 34  2  0
 34 35  1  0
 35 36  1  0
  8  3  1  0
 35  9  1  0
 34 11  1  0
 32 19  1  0
 30 24  1  0
M  END
