CVD-0002489|dock_bobby27042020.63|mol2|12|dock1
     RDKit          3D

 32 34  0  0  0  0  0  0  0  0999 V2000
   13.8941   -1.4694   21.4556 C   0  0  0  0  0  0  0  0  0  0  0  0
   12.5646   -1.0158   22.0513 C   0  0  0  0  0  0  0  0  0  0  0  0
   12.3220   -1.6332   23.4272 C   0  0  0  0  0  0  0  0  0  0  0  0
   11.1494   -1.0937   24.0888 N   0  0  0  0  0  0  0  0  0  0  0  0
    9.8621   -1.3310   23.6437 C   0  0  0  0  0  0  0  0  0  0  0  0
    9.4345   -2.6108   23.2997 C   0  0  0  0  0  0  0  0  0  0  0  0
    8.1410   -2.8380   22.8532 C   0  0  0  0  0  0  0  0  0  0  0  0
    7.6863   -4.2295   22.4861 C   0  0  0  0  0  0  0  0  0  0  0  0
    7.2726   -1.7618   22.7566 C   0  0  0  0  0  0  0  0  0  0  0  0
    7.6707   -0.4752   23.0918 C   0  0  0  0  0  0  0  0  0  0  0  0
    6.7059    0.6808   22.9809 C   0  0  0  0  0  0  0  0  0  0  0  0
    5.7690    0.5403   21.8577 N   0  0  0  0  0  0  0  0  0  0  0  0
    6.4674    0.7223   20.5818 C   0  0  0  0  0  0  0  0  0  0  0  0
    5.5039    0.5354   19.4244 C   0  0  0  0  0  0  0  0  0  0  0  0
    4.3886    1.4787   19.5298 N   0  0  0  0  0  0  0  0  0  0  0  0
    3.7053    1.3628   20.8219 C   0  0  0  0  0  0  0  0  0  0  0  0
    4.6970    1.5271   21.9592 C   0  0  0  0  0  0  0  0  0  0  0  0
    4.0421    2.3159   18.5310 C   0  0  0  0  0  0  0  0  0  0  0  0
    4.6402    2.3317   17.4625 O   0  0  0  0  0  0  0  0  0  0  0  0
    2.8742    3.2442   18.8003 C   0  0  0  0  0  0  0  0  0  0  0  0
    2.4882    4.2128   17.3720 Cl  0  0  0  0  0  0  0  0  0  0  0  0
    8.9695   -0.2707   23.5358 C   0  0  0  0  0  0  0  0  0  0  0  0
   12.5182    0.4950   22.2108 C   0  0  0  0  0  0  0  0  0  0  0  0
   11.3432    1.1984   21.9853 C   0  0  0  0  0  0  0  0  0  0  0  0
   11.2918    2.5739   22.1253 C   0  0  0  0  0  0  0  0  0  0  0  0
   12.4355    3.2620   22.4956 C   0  0  0  0  0  0  0  0  0  0  0  0
   13.6195    2.5816   22.7271 C   0  0  0  0  0  0  0  0  0  0  0  0
   13.6508    1.2060   22.5820 C   0  0  0  0  0  0  0  0  0  0  0  0
   12.3810    5.0183   22.6840 S   0  0  0  0  0  0  0  0  0  0  0  0
   13.6150    5.6527   21.8854 N   0  0  0  0  0  0  0  0  0  0  0  0
   11.1833    5.4796   22.0486 O   0  0  0  0  0  0  0  0  0  0  0  0
   12.5824    5.3059   24.0724 O   0  0  0  0  0  0  0  0  0  0  0  0
  1  2  1  0
  2  3  1  0
  3  4  1  0
  4  5  1  0
  5  6  2  0
  6  7  1  0
  7  8  1  0
  7  9  2  0
  9 10  1  0
 10 11  1  0
 11 12  1  0
 12 13  1  0
 13 14  1  0
 14 15  1  0
 15 16  1  0
 16 17  1  0
 15 18  1  0
 18 19  2  0
 18 20  1  0
 20 21  1  0
 10 22  2  0
  2 23  1  0
 23 24  2  0
 24 25  1  0
 25 26  2  0
 26 27  1  0
 27 28  2  0
 26 29  1  0
 29 30  1  0
 29 31  2  0
 29 32  2  0
 22  5  1  0
 28 23  1  0
 17 12  1  0
M  END
