CVD-0003384|dock_bobby27042020.16|mol2|41|dock3
     RDKit          3D

 20 22  0  0  0  0  0  0  0  0999 V2000
   14.0791   -2.1322   25.2209 C   0  0  0  0  0  0  0  0  0  0  0  0
   13.4919   -1.4388   24.0757 N   0  0  0  0  0  0  0  0  0  0  0  0
   12.7066   -0.2847   24.5228 C   0  0  0  0  0  0  0  0  0  0  0  0
   12.1335    0.4551   23.3283 C   0  0  0  0  0  0  0  0  0  0  0  0
   11.3017   -0.4412   22.5223 N   0  0  0  0  0  0  0  0  0  0  0  0
   12.0424   -1.6372   22.1090 C   0  0  0  0  0  0  0  0  0  0  0  0
   12.6259   -2.3409   23.3208 C   0  0  0  0  0  0  0  0  0  0  0  0
   10.0251   -0.1569   22.1950 C   0  0  0  0  0  0  0  0  0  0  0  0
    9.4824    0.8835   22.5452 O   0  0  0  0  0  0  0  0  0  0  0  0
    9.2756   -1.1802   21.3606 C   0  0  0  0  0  0  0  0  0  0  0  0
    7.8439   -0.8153   21.0971 C   0  0  0  0  0  0  0  0  0  0  0  0
    6.7768   -0.7884   21.9703 C   0  0  0  0  0  0  0  0  0  0  0  0
    6.7391   -1.1629   23.6406 Cl  0  0  0  0  0  0  0  0  0  0  0  0
    5.6415   -0.4032   21.3424 N   0  0  0  0  0  0  0  0  0  0  0  0
    5.9367   -0.1652   20.0291 C   0  0  0  0  0  0  0  0  0  0  0  0
    5.0909    0.2353   19.0656 N   0  0  0  0  0  0  0  0  0  0  0  0
    5.6629    0.3879   17.8680 C   0  0  0  0  0  0  0  0  0  0  0  0
    6.9382    0.1921   17.5385 N   0  0  0  0  0  0  0  0  0  0  0  0
    7.7458   -0.2059   18.5270 C   0  0  0  0  0  0  0  0  0  0  0  0
    7.3032   -0.4109   19.8332 C   0  0  0  0  0  0  0  0  0  0  0  0
  1  2  1  0
  2  3  1  0
  3  4  1  0
  4  5  1  0
  5  6  1  0
  6  7  1  0
  5  8  1  0
  8  9  2  0
  8 10  1  0
 10 11  1  0
 11 12  2  0
 12 13  1  0
 12 14  1  0
 14 15  1  0
 15 16  2  0
 16 17  1  0
 17 18  2  0
 18 19  1  0
 19 20  2  0
  7  2  1  0
 20 11  1  0
 20 15  1  0
M  END
