CVD-0001652|dock_bobby27042020.9|mol2|7|dock3
     RDKit          3D

 16 17  0  0  0  0  0  0  0  0999 V2000
   10.7951    5.5956   22.5235 Cl  0  0  0  0  0  0  0  0  0  0  0  0
   11.8822    4.2534   22.6671 C   0  0  0  0  0  0  0  0  0  0  0  0
   11.3751    2.9974   22.9285 C   0  0  0  0  0  0  0  0  0  0  0  0
   12.2616    1.9305   23.0445 C   0  0  0  0  0  0  0  0  0  0  0  0
   13.6153    2.2054   22.8981 C   0  0  0  0  0  0  0  0  0  0  0  0
   14.1153    3.4195   22.6308 N   0  0  0  0  0  0  0  0  0  0  0  0
   13.2519    4.4455   22.5190 C   0  0  0  0  0  0  0  0  0  0  0  0
   13.7934    5.7576   22.2394 C   0  0  0  0  0  0  0  0  0  0  0  0
   14.2388    6.7777   21.9825 N   0  0  0  0  0  0  0  0  0  0  0  0
   11.7924    0.6484   23.3002 N   0  0  0  0  0  0  0  0  0  0  0  0
   12.5278   -0.2596   24.1879 C   0  0  0  0  0  0  0  0  0  0  0  0
   13.5043   -1.1875   23.4299 C   0  0  0  0  0  0  0  0  0  0  0  0
   12.7360   -2.2943   22.6741 C   0  0  0  0  0  0  0  0  0  0  0  0
   11.8556   -1.6704   21.7395 O   0  0  0  0  0  0  0  0  0  0  0  0
   10.5833   -1.2849   22.2612 C   0  0  0  0  0  0  0  0  0  0  0  0
   10.5484    0.2118   22.6468 C   0  0  0  0  0  0  0  0  0  0  0  0
  1  2  1  0
  2  3  2  0
  3  4  1  0
  4  5  2  0
  5  6  1  0
  6  7  2  0
  7  8  1  0
  8  9  3  0
  4 10  1  0
 10 11  1  0
 11 12  1  0
 12 13  1  0
 13 14  1  0
 14 15  1  0
 15 16  1  0
  7  2  1  0
 16 10  1  0
M  END
