CVD-0001096|dock_bobby27042020.25|mol2|9|dock2
     RDKit          3D

 23 24  0  0  0  0  0  0  0  0999 V2000
   12.9805   -1.4712   21.6410 C   0  0  0  0  0  0  0  0  0  0  0  0
   12.6840   -0.0158   21.8967 C   0  0  0  0  0  0  0  0  0  0  0  0
   13.6764    0.7728   22.4713 C   0  0  0  0  0  0  0  0  0  0  0  0
   13.4352    2.1065   22.7138 C   0  0  0  0  0  0  0  0  0  0  0  0
   12.2811    2.7002   22.4234 N   0  0  0  0  0  0  0  0  0  0  0  0
   11.3205    1.9534   21.8701 C   0  0  0  0  0  0  0  0  0  0  0  0
   11.4550    0.5953   21.5807 C   0  0  0  0  0  0  0  0  0  0  0  0
   10.4330   -0.2000   20.9910 N   0  0  0  0  0  0  0  0  0  0  0  0
    9.0840   -0.1399   21.1184 C   0  0  0  0  0  0  0  0  0  0  0  0
    8.4602    0.6610   21.8082 O   0  0  0  0  0  0  0  0  0  0  0  0
    8.3618   -1.2044   20.2900 C   0  0  0  0  0  0  0  0  0  0  0  0
    8.2364   -2.4921   21.1158 C   0  0  0  0  0  0  0  0  0  0  0  0
    7.8489   -3.6598   20.3172 N   0  0  0  0  0  0  0  0  0  0  0  0
    6.3157   -4.1267   20.2757 S   0  0  0  0  0  0  0  0  0  0  0  0
    6.1836   -5.5997   21.2137 C   0  0  0  0  0  0  0  0  0  0  0  0
    5.5508   -3.1121   20.9326 O   0  0  0  0  0  0  0  0  0  0  0  0
    6.0094   -4.4388   18.9138 O   0  0  0  0  0  0  0  0  0  0  0  0
    6.9970   -0.6758   19.8777 C   0  0  0  0  0  0  0  0  0  0  0  0
    6.6517   -0.5716   18.5374 C   0  0  0  0  0  0  0  0  0  0  0  0
    5.4097   -0.0873   18.1622 C   0  0  0  0  0  0  0  0  0  0  0  0
    4.4985    0.2991   19.1215 C   0  0  0  0  0  0  0  0  0  0  0  0
    4.8283    0.2021   20.4564 C   0  0  0  0  0  0  0  0  0  0  0  0
    6.0701   -0.2820   20.8327 C   0  0  0  0  0  0  0  0  0  0  0  0
  1  2  1  0
  2  3  2  0
  3  4  1  0
  4  5  2  0
  5  6  1  0
  6  7  2  0
  7  8  1  0
  8  9  1  0
  9 10  2  0
  9 11  1  0
 11 12  1  0
 12 13  1  0
 13 14  1  0
 14 15  1  0
 14 16  2  0
 14 17  2  0
 11 18  1  0
 18 19  2  0
 19 20  1  0
 20 21  2  0
 21 22  1  0
 22 23  2  0
  7  2  1  0
 23 18  1  0
M  END
