CVD-0000348|dock_bobby27042020.13|mol2|18|dock3
     RDKit          3D

 30 32  0  0  0  0  0  0  0  0999 V2000
   10.4071   -2.1543   23.4772 C   0  0  0  0  0  0  0  0  0  0  0  0
    9.8330   -1.9795   22.0796 C   0  0  0  0  0  0  0  0  0  0  0  0
    8.4850   -1.2696   22.1226 C   0  0  0  0  0  0  0  0  0  0  0  0
    7.7262   -1.3338   20.8166 C   0  0  0  0  0  0  0  0  0  0  0  0
    7.8371   -0.3233   19.8782 C   0  0  0  0  0  0  0  0  0  0  0  0
    8.6406    0.7247   20.1364 F   0  0  0  0  0  0  0  0  0  0  0  0
    7.1486   -0.3613   18.6909 C   0  0  0  0  0  0  0  0  0  0  0  0
    7.2933    0.6510   17.8053 F   0  0  0  0  0  0  0  0  0  0  0  0
    6.3172   -1.4107   18.3928 C   0  0  0  0  0  0  0  0  0  0  0  0
    6.1918   -2.4345   19.3137 C   0  0  0  0  0  0  0  0  0  0  0  0
    6.8919   -2.4240   20.5227 C   0  0  0  0  0  0  0  0  0  0  0  0
    6.7654   -3.5572   21.5234 C   0  0  0  0  0  0  0  0  0  0  0  0
    5.6650   -3.3923   22.5355 C   0  0  0  0  0  0  0  0  0  0  0  0
    5.6508   -4.5451   23.4345 N   0  0  0  0  0  0  0  0  0  0  0  0
    5.6145   -5.8255   22.7308 C   0  0  0  0  0  0  0  0  0  0  0  0
    6.7079   -5.8773   21.7054 C   0  0  0  0  0  0  0  0  0  0  0  0
    6.6429   -4.7795   20.8106 O   0  0  0  0  0  0  0  0  0  0  0  0
    5.7482   -4.3514   24.7828 C   0  0  0  0  0  0  0  0  0  0  0  0
    5.8438   -3.2088   25.2283 O   0  0  0  0  0  0  0  0  0  0  0  0
    5.7445   -5.4452   25.8051 C   0  0  0  0  0  0  0  0  0  0  0  0
    6.3963   -5.4387   26.9400 C   0  0  0  0  0  0  0  0  0  0  0  0
   10.7837   -1.2250   21.2473 N   0  0  0  0  0  0  0  0  0  0  0  0
   11.5205   -0.1679   21.6940 C   0  0  0  0  0  0  0  0  0  0  0  0
   12.8066   -0.3516   22.2009 C   0  0  0  0  0  0  0  0  0  0  0  0
   13.5064    0.7580   22.6392 C   0  0  0  0  0  0  0  0  0  0  0  0
   12.9205    2.0165   22.5663 C   0  0  0  0  0  0  0  0  0  0  0  0
   11.6327    2.0970   22.0450 C   0  0  0  0  0  0  0  0  0  0  0  0
   10.9418    1.0347   21.6167 N   0  0  0  0  0  0  0  0  0  0  0  0
   13.6210    3.1948   23.0140 C   0  0  0  0  0  0  0  0  0  0  0  0
   14.1620    4.1245   23.3987 N   0  0  0  0  0  0  0  0  0  0  0  0
  2  1  1  0
  2  3  1  0
  3  4  1  0
  4  5  2  0
  5  6  1  0
  5  7  1  0
  7  8  1  0
  7  9  2  0
  9 10  1  0
 10 11  2  0
 12 11  1  0
 12 13  1  0
 13 14  1  0
 14 15  1  0
 15 16  1  0
 16 17  1  0
 14 18  1  0
 18 19  2  0
 18 20  1  0
 20 21  2  0
  2 22  1  0
 22 23  1  0
 23 24  2  0
 24 25  1  0
 25 26  2  0
 26 27  1  0
 27 28  2  0
 26 29  1  0
 29 30  3  0
 11  4  1  0
 17 12  1  0
 28 23  1  0
M  END
