CVD-0001967|dock_bobby27042020.36|mol2|22|dock3
     RDKit          3D

 19 20  0  0  0  0  0  0  0  0999 V2000
    7.8632   -0.4208   18.9191 C   0  0  0  0  0  0  0  0  0  0  0  0
    8.3134   -1.5006   19.8011 N   0  0  0  0  0  0  0  0  0  0  0  0
    8.1770   -1.2120   21.2327 C   0  0  0  0  0  0  0  0  0  0  0  0
    9.3653   -0.4543   21.7640 C   0  0  0  0  0  0  0  0  0  0  0  0
    9.5005    0.9425   21.8181 C   0  0  0  0  0  0  0  0  0  0  0  0
   10.7268    1.2762   22.3673 C   0  0  0  0  0  0  0  0  0  0  0  0
   11.1811    2.6757   22.5647 C   0  0  0  0  0  0  0  0  0  0  0  0
   12.5299    2.9236   22.3020 C   0  0  0  0  0  0  0  0  0  0  0  0
   13.0758    4.1841   22.4767 C   0  0  0  0  0  0  0  0  0  0  0  0
   12.2913    5.2282   22.9114 C   0  0  0  0  0  0  0  0  0  0  0  0
   10.9456    5.0235   23.1552 C   0  0  0  0  0  0  0  0  0  0  0  0
   10.4204    3.7680   22.9593 C   0  0  0  0  0  0  0  0  0  0  0  0
    9.0929    3.6330   23.1606 F   0  0  0  0  0  0  0  0  0  0  0  0
   11.3860    0.0723   22.6560 N   0  0  0  0  0  0  0  0  0  0  0  0
   10.5479   -0.9547   22.2791 C   0  0  0  0  0  0  0  0  0  0  0  0
   12.7248   -0.1990   23.1878 C   0  0  0  0  0  0  0  0  0  0  0  0
   12.8293   -1.3424   24.1722 C   0  0  0  0  0  0  0  0  0  0  0  0
   13.7474   -0.2992   22.1668 N   0  0  0  0  0  0  0  0  0  0  0  0
   13.6834   -1.4908   21.3174 C   0  0  0  0  0  0  0  0  0  0  0  0
  1  2  1  0
  2  3  1  0
  3  4  1  0
  4  5  1  0
  5  6  2  0
  6  7  1  0
  7  8  2  0
  8  9  1  0
  9 10  2  0
 10 11  1  0
 11 12  2  0
 12 13  1  0
  6 14  1  0
 14 15  1  0
 14 16  1  0
 16 17  1  0
 16 18  1  0
 18 19  1  0
 15  4  2  0
 12  7  1  0
M  END
