CVD-0000259|dock_bobby27042020.28|mol2|2|dock1
     RDKit          3D

 25 27  0  0  0  0  0  0  0  0999 V2000
    7.2978    1.4270   21.2000 C   0  0  0  0  0  0  0  0  0  0  0  0
    6.9951    0.0652   20.5796 C   0  0  0  0  0  0  0  0  0  0  0  0
    6.5494    0.2516   19.1292 C   0  0  0  0  0  0  0  0  0  0  0  0
    5.3376    1.0604   18.9846 N   0  0  0  0  0  0  0  0  0  0  0  0
    4.3177    1.1675   19.8882 C   0  0  0  0  0  0  0  0  0  0  0  0
    3.4287    2.0302   19.3502 C   0  0  0  0  0  0  0  0  0  0  0  0
    3.8721    2.4728   18.1326 N   0  0  0  0  0  0  0  0  0  0  0  0
    5.0262    1.8688   17.9548 C   0  0  0  0  0  0  0  0  0  0  0  0
    8.2405   -0.7922   20.6112 C   0  0  0  0  0  0  0  0  0  0  0  0
    8.7918   -1.1462   19.5724 O   0  0  0  0  0  0  0  0  0  0  0  0
    8.6940   -1.1335   21.8207 N   0  0  0  0  0  0  0  0  0  0  0  0
    9.8835   -1.9565   22.0243 C   0  0  0  0  0  0  0  0  0  0  0  0
    9.6133   -2.9072   23.1971 C   0  0  0  0  0  0  0  0  0  0  0  0
    8.5768   -3.9221   22.8785 C   0  0  0  0  0  0  0  0  0  0  0  0
    7.7457   -3.9538   21.8947 N   0  0  0  0  0  0  0  0  0  0  0  0
    7.0587   -5.1161   22.1254 C   0  0  0  0  0  0  0  0  0  0  0  0
    5.9707   -5.5993   21.2307 C   0  0  0  0  0  0  0  0  0  0  0  0
    7.4344   -5.7759   23.1738 N   0  0  0  0  0  0  0  0  0  0  0  0
    8.4739   -4.9708   23.7024 O   0  0  0  0  0  0  0  0  0  0  0  0
   11.1107   -1.1065   22.2880 C   0  0  0  0  0  0  0  0  0  0  0  0
   12.3343   -1.4313   21.7192 C   0  0  0  0  0  0  0  0  0  0  0  0
   13.4556   -0.6556   21.9623 C   0  0  0  0  0  0  0  0  0  0  0  0
   13.3674    0.4529   22.7769 C   0  0  0  0  0  0  0  0  0  0  0  0
   12.1586    0.7865   23.3492 C   0  0  0  0  0  0  0  0  0  0  0  0
   11.0366    0.0116   23.1069 C   0  0  0  0  0  0  0  0  0  0  0  0
  1  2  1  0
  2  3  1  0
  3  4  1  0
  4  5  1  0
  5  6  2  0
  6  7  1  0
  7  8  2  0
  2  9  1  0
  9 10  2  0
  9 11  1  0
 11 12  1  0
 12 13  1  0
 13 14  1  0
 14 15  2  0
 15 16  1  0
 16 17  1  0
 16 18  2  0
 18 19  1  0
 12 20  1  0
 20 21  2  0
 21 22  1  0
 22 23  2  0
 23 24  1  0
 24 25  2  0
  8  4  1  0
 19 14  1  0
 25 20  1  0
M  END
