CVD-0001225|dock_bobby27042020.24|mol2|33|dock2
     RDKit          3D

 23 25  0  0  0  0  0  0  0  0999 V2000
    9.7835    3.5342   22.6009 C   0  0  0  0  0  0  0  0  0  0  0  0
   11.2824    3.6673   22.6841 C   0  0  0  0  0  0  0  0  0  0  0  0
   11.8333    4.9439   22.7421 C   0  0  0  0  0  0  0  0  0  0  0  0
   13.1993    5.0963   22.8216 C   0  0  0  0  0  0  0  0  0  0  0  0
   14.0441    4.0696   22.8475 N   0  0  0  0  0  0  0  0  0  0  0  0
   13.5268    2.8382   22.7939 C   0  0  0  0  0  0  0  0  0  0  0  0
   12.1608    2.5667   22.7118 C   0  0  0  0  0  0  0  0  0  0  0  0
   11.6081    1.2567   22.6548 N   0  0  0  0  0  0  0  0  0  0  0  0
   12.2164    0.0545   22.5021 C   0  0  0  0  0  0  0  0  0  0  0  0
   13.4168   -0.1372   22.3414 O   0  0  0  0  0  0  0  0  0  0  0  0
   11.2608   -1.1224   22.5385 C   0  0  0  0  0  0  0  0  0  0  0  0
   10.3643   -1.1615   21.4035 N   0  0  0  0  0  0  0  0  0  0  0  0
    9.0946   -0.7735   21.5256 C   0  0  0  0  0  0  0  0  0  0  0  0
    8.6413   -0.3718   22.5963 O   0  0  0  0  0  0  0  0  0  0  0  0
    8.2217   -0.8198   20.3133 C   0  0  0  0  0  0  0  0  0  0  0  0
    8.5608   -1.4292   19.1866 N   0  0  0  0  0  0  0  0  0  0  0  0
    7.5148   -1.2877   18.2775 N   0  0  0  0  0  0  0  0  0  0  0  0
    6.5662   -0.5806   18.8662 C   0  0  0  0  0  0  0  0  0  0  0  0
    5.3039   -0.1418   18.4094 C   0  0  0  0  0  0  0  0  0  0  0  0
    4.5138    0.5994   19.2402 C   0  0  0  0  0  0  0  0  0  0  0  0
    4.9468    0.9275   20.5362 C   0  0  0  0  0  0  0  0  0  0  0  0
    6.1481    0.5106   20.9849 C   0  0  0  0  0  0  0  0  0  0  0  0
    6.9597   -0.2488   20.1586 N   0  0  0  0  0  0  0  0  0  0  0  0
  1  2  1  0
  2  3  2  0
  3  4  1  0
  4  5  2  0
  5  6  1  0
  6  7  2  0
  7  8  1  0
  8  9  1  0
  9 10  2  0
  9 11  1  0
 11 12  1  0
 12 13  1  0
 13 14  2  0
 13 15  1  0
 15 16  2  0
 16 17  1  0
 17 18  2  0
 18 19  1  0
 19 20  2  0
 20 21  1  0
 21 22  2  0
 22 23  1  0
  7  2  1  0
 23 15  1  0
 23 18  1  0
M  END
