CVD-0002996|dock_bobby27042020.18|mol2|5|dock2
     RDKit          3D

 32 35  0  0  0  0  0  0  0  0999 V2000
    6.0190   -1.5321   19.2314 C   0  0  0  0  0  0  0  0  0  0  0  0
    5.8094   -3.0184   19.2591 C   0  0  0  0  0  0  0  0  0  0  0  0
    4.8705   -3.5132   18.6453 O   0  0  0  0  0  0  0  0  0  0  0  0
    6.6551   -3.8078   19.9762 N   0  0  0  0  0  0  0  0  0  0  0  0
    6.4284   -5.2567   19.9875 C   0  0  0  0  0  0  0  0  0  0  0  0
    5.9978   -5.7002   21.3666 C   0  0  0  0  0  0  0  0  0  0  0  0
    6.9865   -5.2331   22.3977 C   0  0  0  0  0  0  0  0  0  0  0  0
    7.1073   -5.9020   23.6115 C   0  0  0  0  0  0  0  0  0  0  0  0
    8.0221   -5.4929   24.5636 C   0  0  0  0  0  0  0  0  0  0  0  0
    8.8339   -4.4007   24.3111 C   0  0  0  0  0  0  0  0  0  0  0  0
    8.7367   -3.7083   23.1024 C   0  0  0  0  0  0  0  0  0  0  0  0
    9.6074   -2.5089   22.7982 C   0  0  0  0  0  0  0  0  0  0  0  0
   11.0976   -2.3789   23.7702 S   0  0  0  0  0  0  0  0  0  0  0  0
   11.8636   -3.5808   23.6295 O   0  0  0  0  0  0  0  0  0  0  0  0
   10.7425   -1.9256   25.0813 O   0  0  0  0  0  0  0  0  0  0  0  0
   11.9719   -1.1598   23.0866 N   0  0  0  0  0  0  0  0  0  0  0  0
   12.0610    0.1475   23.4856 C   0  0  0  0  0  0  0  0  0  0  0  0
   12.7985    1.1410   22.8952 C   0  0  0  0  0  0  0  0  0  0  0  0
   12.6418    2.3684   23.5905 C   0  0  0  0  0  0  0  0  0  0  0  0
   13.3037    3.4717   23.1445 N   0  0  0  0  0  0  0  0  0  0  0  0
   13.3226    4.8189   23.5483 C   0  0  0  0  0  0  0  0  0  0  0  0
   13.7922    5.8271   22.7078 C   0  0  0  0  0  0  0  0  0  0  0  0
   13.7853    7.1332   23.1628 C   0  0  0  0  0  0  0  0  0  0  0  0
   13.3157    7.4235   24.4386 C   0  0  0  0  0  0  0  0  0  0  0  0
   12.8679    6.3504   25.2028 C   0  0  0  0  0  0  0  0  0  0  0  0
   12.8682    5.0823   24.7770 N   0  0  0  0  0  0  0  0  0  0  0  0
   13.3010    8.7780   24.9295 C   0  0  0  0  0  0  0  0  0  0  0  0
   13.2890    9.8990   25.2906 C   0  0  0  0  0  0  0  0  0  0  0  0
   11.8122    2.2744   24.6599 C   0  0  0  0  0  0  0  0  0  0  0  0
   11.1833    0.6950   24.8733 S   0  0  0  0  0  0  0  0  0  0  0  0
    7.8049   -4.1321   22.1434 C   0  0  0  0  0  0  0  0  0  0  0  0
    7.7401   -3.3560   20.8437 C   0  0  0  0  0  0  0  0  0  0  0  0
  1  2  1  0
  2  3  2  0
  2  4  1  0
  4  5  1  0
  5  6  1  0
  6  7  1  0
  7  8  2  0
  8  9  1  0
  9 10  2  0
 10 11  1  0
 11 12  1  0
 12 13  1  0
 13 14  2  0
 13 15  2  0
 13 16  1  0
 16 17  1  0
 17 18  2  0
 18 19  1  0
 19 20  1  0
 20 21  1  0
 21 22  2  0
 22 23  1  0
 23 24  2  0
 24 25  1  0
 25 26  2  0
 24 27  1  0
 27 28  3  0
 19 29  2  0
 29 30  1  0
 11 31  2  0
 31 32  1  0
 32  4  1  0
 31  7  1  0
 30 17  1  0
 26 21  1  0
M  END
