CVD-0002473|dock_bobby27042020.48|mol2|26|dock2
     RDKit          3D

 22 24  0  0  0  0  0  0  0  0999 V2000
    3.1621    2.5590   19.4423 C   0  0  0  0  0  0  0  0  0  0  0  0
    4.2826    1.7056   19.9848 C   0  0  0  0  0  0  0  0  0  0  0  0
    4.7267    1.8517   21.2893 C   0  0  0  0  0  0  0  0  0  0  0  0
    5.7556    1.0730   21.7884 C   0  0  0  0  0  0  0  0  0  0  0  0
    6.3767    0.1189   20.9946 C   0  0  0  0  0  0  0  0  0  0  0  0
    5.9346   -0.0276   19.6872 C   0  0  0  0  0  0  0  0  0  0  0  0
    4.9053    0.7538   19.1932 C   0  0  0  0  0  0  0  0  0  0  0  0
    7.4936   -0.7373   21.5343 C   0  0  0  0  0  0  0  0  0  0  0  0
    7.3229   -0.8293   22.9627 O   0  0  0  0  0  0  0  0  0  0  0  0
    8.2564   -1.7226   23.5732 C   0  0  0  0  0  0  0  0  0  0  0  0
    8.0894   -3.0393   23.1421 O   0  0  0  0  0  0  0  0  0  0  0  0
    9.6756   -1.2208   23.3064 C   0  0  0  0  0  0  0  0  0  0  0  0
   10.6800   -2.1386   23.8173 N   0  0  0  0  0  0  0  0  0  0  0  0
   11.9170   -1.8383   24.2115 C   0  0  0  0  0  0  0  0  0  0  0  0
   12.8254   -2.8306   24.7002 C   0  0  0  0  0  0  0  0  0  0  0  0
   14.0352   -2.3091   25.0484 C   0  0  0  0  0  0  0  0  0  0  0  0
   14.0556   -0.6325   24.7805 S   0  0  0  0  0  0  0  0  0  0  0  0
   12.4578   -0.6002   24.2023 C   0  0  0  0  0  0  0  0  0  0  0  0
    9.9644   -0.9890   21.8347 C   0  0  0  0  0  0  0  0  0  0  0  0
   10.0240   -2.2447   21.1621 O   0  0  0  0  0  0  0  0  0  0  0  0
    8.8506   -0.1229   21.2179 C   0  0  0  0  0  0  0  0  0  0  0  0
    8.8509    1.1938   21.7615 O   0  0  0  0  0  0  0  0  0  0  0  0
  1  2  1  0
  2  3  2  0
  3  4  1  0
  4  5  2  0
  5  6  1  0
  6  7  2  0
  5  8  1  0
  8  9  1  0
  9 10  1  0
 10 11  1  0
 10 12  1  0
 12 13  1  0
 13 14  1  0
 14 15  1  0
 15 16  2  0
 16 17  1  0
 17 18  1  0
 12 19  1  0
 19 20  1  0
 19 21  1  0
 21 22  1  0
  7  2  1  0
 21  8  1  0
 18 14  2  0
M  END
