CVD-0000892|dock_bobby27042020.11|mol2|28|dock3
     RDKit          3D

 18 19  0  0  0  0  0  0  0  0999 V2000
   14.7576   -1.8350   24.8861 Cl  0  0  0  0  0  0  0  0  0  0  0  0
   13.9099   -2.0939   23.3558 C   0  0  0  0  0  0  0  0  0  0  0  0
   12.4366   -1.7608   23.4932 C   0  0  0  0  0  0  0  0  0  0  0  0
   11.5832   -2.6263   23.3442 O   0  0  0  0  0  0  0  0  0  0  0  0
   12.0941   -0.4843   23.7756 N   0  0  0  0  0  0  0  0  0  0  0  0
   13.0821    0.5819   23.9549 C   0  0  0  0  0  0  0  0  0  0  0  0
   12.7747    1.7494   23.0358 C   0  0  0  0  0  0  0  0  0  0  0  0
   11.4256    2.2597   23.2978 N   0  0  0  0  0  0  0  0  0  0  0  0
   11.1385    3.4122   22.4407 C   0  0  0  0  0  0  0  0  0  0  0  0
   12.1495    4.5170   22.5558 C   0  0  0  0  0  0  0  0  0  0  0  0
   13.5022    4.6172   21.4909 S   0  0  0  0  0  0  0  0  0  0  0  0
   14.0752    6.0332   22.2536 C   0  0  0  0  0  0  0  0  0  0  0  0
   13.2735    6.4219   23.2803 C   0  0  0  0  0  0  0  0  0  0  0  0
   12.1587    5.5497   23.4598 C   0  0  0  0  0  0  0  0  0  0  0  0
   11.1607    5.7294   24.4687 C   0  0  0  0  0  0  0  0  0  0  0  0
   10.3705    5.9134   25.2757 N   0  0  0  0  0  0  0  0  0  0  0  0
   10.4577    1.1920   23.0604 C   0  0  0  0  0  0  0  0  0  0  0  0
   10.7276    0.0090   23.9724 C   0  0  0  0  0  0  0  0  0  0  0  0
  1  2  1  0
  2  3  1  0
  3  4  2  0
  3  5  1  0
  5  6  1  0
  6  7  1  0
  7  8  1  0
  8  9  1  0
  9 10  1  0
 10 11  1  0
 11 12  1  0
 12 13  2  0
 13 14  1  0
 14 15  1  0
 15 16  3  0
  8 17  1  0
 17 18  1  0
 18  5  1  0
 14 10  2  0
M  END
