CVD-0002146|dock_bobby27042020.21|mol2|22|dock3
     RDKit          3D

 16 16  0  0  0  0  0  0  0  0999 V2000
   14.2969   -1.2745   24.1361 C   0  0  0  0  0  0  0  0  0  0  0  0
   13.1321   -1.9668   23.0269 S   0  0  0  0  0  0  0  0  0  0  0  0
   12.0399   -2.4826   23.7930 O   0  0  0  0  0  0  0  0  0  0  0  0
   13.8284   -2.8529   22.1459 O   0  0  0  0  0  0  0  0  0  0  0  0
   12.5473   -0.7610   22.1210 N   0  0  0  0  0  0  0  0  0  0  0  0
   11.1929   -0.2471   22.3133 C   0  0  0  0  0  0  0  0  0  0  0  0
   11.1854    0.7956   23.4414 C   0  0  0  0  0  0  0  0  0  0  0  0
   11.8035    2.1129   23.0402 C   0  0  0  0  0  0  0  0  0  0  0  0
   13.1795    2.2494   22.9416 C   0  0  0  0  0  0  0  0  0  0  0  0
   13.7467    3.4570   22.5704 C   0  0  0  0  0  0  0  0  0  0  0  0
   12.9440    4.5424   22.2923 C   0  0  0  0  0  0  0  0  0  0  0  0
   11.5743    4.4199   22.3852 C   0  0  0  0  0  0  0  0  0  0  0  0
   11.0076    3.2119   22.7565 C   0  0  0  0  0  0  0  0  0  0  0  0
   10.2246   -1.3544   22.6361 C   0  0  0  0  0  0  0  0  0  0  0  0
    9.9729   -2.2460   21.6786 N   0  0  0  0  0  0  0  0  0  0  0  0
    9.6470   -1.4634   23.7671 N   0  0  0  0  0  0  0  0  0  0  0  0
  1  2  1  0
  2  3  2  0
  2  4  2  0
  2  5  1  0
  5  6  1  0
  6  7  1  0
  7  8  1  0
  8  9  2  0
  9 10  1  0
 10 11  2  0
 11 12  1  0
 12 13  2  0
  6 14  1  0
 14 15  1  0
 14 16  2  0
 13  8  1  0
M  END
