CVD-0002770|dock_bobby27042020.33|mol2|9|dock1
     RDKit          3D

 23 24  0  0  0  0  0  0  0  0999 V2000
   13.0604    6.3413   23.3978 C   0  0  0  0  0  0  0  0  0  0  0  0
   13.4263    5.6481   22.1228 C   0  0  0  0  0  0  0  0  0  0  0  0
   12.6932    4.3978   21.9617 N   0  0  0  0  0  0  0  0  0  0  0  0
   12.9669    3.3151   22.6946 C   0  0  0  0  0  0  0  0  0  0  0  0
   13.8841    3.3291   23.5100 O   0  0  0  0  0  0  0  0  0  0  0  0
   12.1715    2.0518   22.5144 C   0  0  0  0  0  0  0  0  0  0  0  0
   12.9287    0.8817   22.5605 C   0  0  0  0  0  0  0  0  0  0  0  0
   12.3394   -0.3472   22.3243 C   0  0  0  0  0  0  0  0  0  0  0  0
   10.9985   -0.4143   21.9905 C   0  0  0  0  0  0  0  0  0  0  0  0
   10.2224    0.7427   21.9384 C   0  0  0  0  0  0  0  0  0  0  0  0
    8.8113    0.5251   21.4662 C   0  0  0  0  0  0  0  0  0  0  0  0
    7.8909    1.0979   22.0416 O   0  0  0  0  0  0  0  0  0  0  0  0
    8.5671   -0.3046   20.4425 N   0  0  0  0  0  0  0  0  0  0  0  0
    7.2209   -0.5431   19.9338 C   0  0  0  0  0  0  0  0  0  0  0  0
    6.6084    0.5523   19.2206 C   0  0  0  0  0  0  0  0  0  0  0  0
    7.1237   -0.6342   18.4711 C   0  0  0  0  0  0  0  0  0  0  0  0
    8.2758   -0.4536   17.6866 F   0  0  0  0  0  0  0  0  0  0  0  0
   10.7796    1.9764   22.3221 C   0  0  0  0  0  0  0  0  0  0  0  0
    9.6763    3.4848   22.6258 Br  0  0  0  0  0  0  0  0  0  0  0  0
   13.3011   -1.8259   22.4303 S   0  0  0  0  0  0  0  0  0  0  0  0
   13.6577   -2.3067   20.9454 N   0  0  0  0  0  0  0  0  0  0  0  0
   12.4701   -2.8357   23.0142 O   0  0  0  0  0  0  0  0  0  0  0  0
   14.5351   -1.4883   23.0739 O   0  0  0  0  0  0  0  0  0  0  0  0
  1  2  1  0
  2  3  1  0
  3  4  1  0
  4  5  2  0
  4  6  1  0
  6  7  2  0
  7  8  1  0
  8  9  2  0
  9 10  1  0
 10 11  1  0
 11 12  2  0
 11 13  1  0
 14 13  1  0
 14 15  1  0
 15 16  1  0
 16 17  1  0
 10 18  2  0
 18 19  1  0
  8 20  1  0
 20 21  1  0
 20 22  2  0
 20 23  2  0
 18  6  1  0
 16 14  1  0
M  END
