CVD-0002714|dock_bobby27042020.47|mol2|32|dock1
     RDKit          3D

 32 35  0  0  0  0  0  0  0  0999 V2000
   13.3100    5.6033   23.5352 Cl  0  0  0  0  0  0  0  0  0  0  0  0
   13.4217    3.8720   23.1922 C   0  0  0  0  0  0  0  0  0  0  0  0
   12.5027    3.0658   24.0903 C   0  0  0  0  0  0  0  0  0  0  0  0
   11.7551    3.6148   24.8898 O   0  0  0  0  0  0  0  0  0  0  0  0
   12.5399    1.7228   23.9648 N   0  0  0  0  0  0  0  0  0  0  0  0
   11.6940    0.8274   24.7570 C   0  0  0  0  0  0  0  0  0  0  0  0
   10.9109   -0.1028   23.8494 C   0  0  0  0  0  0  0  0  0  0  0  0
   11.8260   -0.8817   23.0099 N   0  0  0  0  0  0  0  0  0  0  0  0
   11.0744   -1.8128   22.1572 C   0  0  0  0  0  0  0  0  0  0  0  0
   10.4747   -2.9646   22.9274 C   0  0  0  0  0  0  0  0  0  0  0  0
   11.2253   -3.6542   23.8652 C   0  0  0  0  0  0  0  0  0  0  0  0
   10.6721   -4.7111   24.5660 C   0  0  0  0  0  0  0  0  0  0  0  0
    9.3607   -5.0895   24.3346 C   0  0  0  0  0  0  0  0  0  0  0  0
    8.5887   -4.4128   23.3973 C   0  0  0  0  0  0  0  0  0  0  0  0
    7.2531   -4.8470   23.2047 N   0  0  0  0  0  0  0  0  0  0  0  0
    6.3695   -5.4328   24.0536 C   0  0  0  0  0  0  0  0  0  0  0  0
    6.5892   -5.7116   25.2306 O   0  0  0  0  0  0  0  0  0  0  0  0
    5.0451   -5.7468   23.4818 C   0  0  0  0  0  0  0  0  0  0  0  0
    4.1743   -5.0335   22.7171 C   0  0  0  0  0  0  0  0  0  0  0  0
    3.0098   -5.6680   22.3655 N   0  0  0  0  0  0  0  0  0  0  0  0
    2.9838   -6.8759   22.8598 C   0  0  0  0  0  0  0  0  0  0  0  0
    1.8487   -7.8369   22.6671 C   0  0  0  0  0  0  0  0  0  0  0  0
    0.9683   -7.4863   21.4889 C   0  0  0  0  0  0  0  0  0  0  0  0
    0.2179   -6.3206   21.4874 C   0  0  0  0  0  0  0  0  0  0  0  0
   -0.5910   -6.0009   20.4097 C   0  0  0  0  0  0  0  0  0  0  0  0
   -0.6596   -6.8440   19.3214 C   0  0  0  0  0  0  0  0  0  0  0  0
    0.0805   -8.0067   19.3110 C   0  0  0  0  0  0  0  0  0  0  0  0
    0.8893   -8.3260   20.3888 C   0  0  0  0  0  0  0  0  0  0  0  0
    4.3837   -7.3160   23.7932 S   0  0  0  0  0  0  0  0  0  0  0  0
    9.1598   -3.3501   22.6989 C   0  0  0  0  0  0  0  0  0  0  0  0
   12.6190    0.0333   22.1931 C   0  0  0  0  0  0  0  0  0  0  0  0
   13.4266    0.9736   23.0691 C   0  0  0  0  0  0  0  0  0  0  0  0
  1  2  1  0
  2  3  1  0
  3  4  2  0
  3  5  1  0
  5  6  1  0
  6  7  1  0
  7  8  1  0
  8  9  1  0
  9 10  1  0
 10 11  2  0
 11 12  1  0
 12 13  2  0
 13 14  1  0
 14 15  1  0
 15 16  1  0
 16 17  2  0
 16 18  1  0
 18 19  2  0
 19 20  1  0
 20 21  2  0
 21 22  1  0
 22 23  1  0
 23 24  2  0
 24 25  1  0
 25 26  2  0
 26 27  1  0
 27 28  2  0
 21 29  1  0
 14 30  2  0
  8 31  1  0
 31 32  1  0
 32  5  1  0
 30 10  1  0
 29 18  1  0
 28 23  1  0
M  END
