CVD-0003114|dock_bobby27042020.74|mol2|47|dock2
     RDKit          3D

 16 17  0  0  0  0  0  0  0  0999 V2000
    7.9986   -1.7841   24.1208 C   0  0  0  0  0  0  0  0  0  0  0  0
    8.3555   -2.0386   22.6643 C   0  0  0  0  0  0  0  0  0  0  0  0
    7.1868   -2.4230   21.7299 C   0  0  0  0  0  0  0  0  0  0  0  0
    6.7007   -1.0979   21.1594 C   0  0  0  0  0  0  0  0  0  0  0  0
    5.8915   -0.4568   22.1492 O   0  0  0  0  0  0  0  0  0  0  0  0
    8.0010   -0.3386   20.9115 C   0  0  0  0  0  0  0  0  0  0  0  0
    8.9002   -0.8353   21.9614 N   0  0  0  0  0  0  0  0  0  0  0  0
   10.0896   -0.2426   22.1578 C   0  0  0  0  0  0  0  0  0  0  0  0
   10.4123    0.7484   21.5312 O   0  0  0  0  0  0  0  0  0  0  0  0
   11.0295   -0.8286   23.1953 C   0  0  0  0  0  0  0  0  0  0  0  0
   12.0031   -1.8207   22.5673 C   0  0  0  0  0  0  0  0  0  0  0  0
   12.8931   -2.4249   23.6565 C   0  0  0  0  0  0  0  0  0  0  0  0
   13.6359   -1.3712   24.4553 C   0  0  0  0  0  0  0  0  0  0  0  0
   14.4860   -1.9907   25.5596 C   0  0  0  0  0  0  0  0  0  0  0  0
   12.6536   -0.3598   25.0251 C   0  0  0  0  0  0  0  0  0  0  0  0
   11.7692    0.2698   23.9426 C   0  0  0  0  0  0  0  0  0  0  0  0
  2  1  1  0
  2  3  1  0
  3  4  1  0
  4  5  1  0
  4  6  1  0
  6  7  1  0
  7  8  1  0
  8  9  2  0
 10  8  1  0
 10 11  1  0
 11 12  1  0
 12 13  1  0
 13 14  1  0
 13 15  1  0
 15 16  1  0
  7  2  1  0
 16 10  1  0
M  END
