CVD-0002492|dock_bobby27042020.20|mol2|2|dock1
     RDKit          3D

 20 21  0  0  0  0  0  0  0  0999 V2000
    8.0409   -1.8991   23.7655 C   0  0  0  0  0  0  0  0  0  0  0  0
    8.7548   -1.5800   22.4624 C   0  0  0  0  0  0  0  0  0  0  0  0
    7.9761   -0.5451   21.6522 C   0  0  0  0  0  0  0  0  0  0  0  0
    6.7241   -1.1120   20.9856 C   0  0  0  0  0  0  0  0  0  0  0  0
    5.9601   -0.0837   20.1869 C   0  0  0  0  0  0  0  0  0  0  0  0
    6.2930    0.1806   18.8673 C   0  0  0  0  0  0  0  0  0  0  0  0
    5.5905    1.1216   18.1332 C   0  0  0  0  0  0  0  0  0  0  0  0
    4.5450    1.8098   18.7101 C   0  0  0  0  0  0  0  0  0  0  0  0
    4.2022    1.5562   20.0207 C   0  0  0  0  0  0  0  0  0  0  0  0
    4.9054    0.6150   20.7539 C   0  0  0  0  0  0  0  0  0  0  0  0
   10.1581   -1.1481   22.6625 N   0  0  0  0  0  0  0  0  0  0  0  0
   11.0412   -2.3015   22.9007 C   0  0  0  0  0  0  0  0  0  0  0  0
   12.4728   -1.8576   23.0543 C   0  0  0  0  0  0  0  0  0  0  0  0
   12.5968   -0.8746   24.1351 N   0  0  0  0  0  0  0  0  0  0  0  0
   11.6837    0.2551   23.9718 C   0  0  0  0  0  0  0  0  0  0  0  0
   10.2704   -0.2534   23.8154 C   0  0  0  0  0  0  0  0  0  0  0  0
   13.5276   -0.8765   25.1122 C   0  0  0  0  0  0  0  0  0  0  0  0
   13.5464   -0.0153   25.9827 O   0  0  0  0  0  0  0  0  0  0  0  0
   14.5577   -1.9889   25.0840 C   0  0  0  0  0  0  0  0  0  0  0  0
   13.8263   -3.5316   25.5450 Cl  0  0  0  0  0  0  0  0  0  0  0  0
  1  2  1  0
  2  3  1  0
  3  4  1  0
  4  5  1  0
  5  6  2  0
  6  7  1  0
  7  8  2  0
  8  9  1  0
  9 10  2  0
  2 11  1  0
 11 12  1  0
 12 13  1  0
 13 14  1  0
 14 15  1  0
 15 16  1  0
 14 17  1  0
 17 18  2  0
 17 19  1  0
 19 20  1  0
 10  5  1  0
 16 11  1  0
M  END
