CVD-0000439|dock_bobby27042020.41|mol2|28|dock1
     RDKit          3D

 27 28  0  0  0  0  0  0  0  0999 V2000
   13.4922   -1.7801   23.0105 C   0  0  0  0  0  0  0  0  0  0  0  0
   13.6074   -0.6029   23.9276 C   0  0  0  0  0  0  0  0  0  0  0  0
   13.7475    0.6385   23.1848 N   0  0  0  0  0  0  0  0  0  0  0  0
   12.7279    1.5157   22.9740 C   0  0  0  0  0  0  0  0  0  0  0  0
   12.9753    2.8572   22.6861 C   0  0  0  0  0  0  0  0  0  0  0  0
   11.8894    3.6885   22.4842 C   0  0  0  0  0  0  0  0  0  0  0  0
   10.6323    3.1441   22.5791 C   0  0  0  0  0  0  0  0  0  0  0  0
    9.5559    3.9400   22.3845 F   0  0  0  0  0  0  0  0  0  0  0  0
   10.4371    1.8076   22.8674 C   0  0  0  0  0  0  0  0  0  0  0  0
    9.0667    1.1832   22.9752 C   0  0  0  0  0  0  0  0  0  0  0  0
    8.3937    0.8316   21.6611 C   0  0  0  0  0  0  0  0  0  0  0  0
    7.3326    1.6016   21.1956 C   0  0  0  0  0  0  0  0  0  0  0  0
    6.6931    1.3054   20.0017 C   0  0  0  0  0  0  0  0  0  0  0  0
    5.6509    2.1042   19.5976 O   0  0  0  0  0  0  0  0  0  0  0  0
    4.6072    1.5855   18.7780 C   0  0  0  0  0  0  0  0  0  0  0  0
    3.4001    2.4904   18.7943 C   0  0  0  0  0  0  0  0  0  0  0  0
    3.3316    3.3893   17.9634 O   0  0  0  0  0  0  0  0  0  0  0  0
    2.4652    2.1954   19.7510 N   0  0  0  0  0  0  0  0  0  0  0  0
    1.2350    2.6942   20.1417 C   0  0  0  0  0  0  0  0  0  0  0  0
    0.7579    3.6662   19.5388 O   0  0  0  0  0  0  0  0  0  0  0  0
    0.4858    2.0871   21.2711 C   0  0  0  0  0  0  0  0  0  0  0  0
   -0.6636    2.5141   21.7239 C   0  0  0  0  0  0  0  0  0  0  0  0
    7.1125    0.2243   19.2408 C   0  0  0  0  0  0  0  0  0  0  0  0
    8.1631   -0.5556   19.6881 C   0  0  0  0  0  0  0  0  0  0  0  0
    8.7877   -0.2479   20.8835 C   0  0  0  0  0  0  0  0  0  0  0  0
   10.0996   -1.2506   21.4102 Cl  0  0  0  0  0  0  0  0  0  0  0  0
   11.4929    1.0052   23.0616 N   0  0  0  0  0  0  0  0  0  0  0  0
  1  2  1  0
  2  3  1  0
  3  4  1  0
  4  5  2  0
  5  6  1  0
  6  7  2  0
  7  8  1  0
  7  9  1  0
  9 10  1  0
 10 11  1  0
 11 12  2  0
 12 13  1  0
 13 14  1  0
 14 15  1  0
 15 16  1  0
 16 17  2  0
 16 18  1  0
 18 19  1  0
 19 20  2  0
 19 21  1  0
 21 22  2  0
 13 23  2  0
 23 24  1  0
 24 25  2  0
 25 26  1  0
  9 27  2  0
 27  4  1  0
 25 11  1  0
M  END
