CVD-0000573|dock_bobby27042020.41|mol2|8|dock3
     RDKit          3D

 25 27  0  0  0  0  0  0  0  0999 V2000
    8.0293   -1.7453   18.0224 C   0  0  0  0  0  0  0  0  0  0  0  0
    7.1287   -0.9811   18.9588 C   0  0  0  0  0  0  0  0  0  0  0  0
    5.8751   -0.5897   18.4982 C   0  0  0  0  0  0  0  0  0  0  0  0
    5.0304    0.1124   19.3279 C   0  0  0  0  0  0  0  0  0  0  0  0
    5.3510    0.4467   20.5743 N   0  0  0  0  0  0  0  0  0  0  0  0
    6.5528    0.0770   21.0277 C   0  0  0  0  0  0  0  0  0  0  0  0
    7.4884   -0.6356   20.2762 C   0  0  0  0  0  0  0  0  0  0  0  0
    8.7713   -1.0330   20.7495 N   0  0  0  0  0  0  0  0  0  0  0  0
    9.2080   -1.2297   22.0389 C   0  0  0  0  0  0  0  0  0  0  0  0
    8.5301   -1.0885   23.0523 O   0  0  0  0  0  0  0  0  0  0  0  0
   10.5079   -1.6086   22.0838 N   0  0  0  0  0  0  0  0  0  0  0  0
   11.2683   -1.8944   23.2894 C   0  0  0  0  0  0  0  0  0  0  0  0
   11.3571   -0.5602   24.0257 C   0  0  0  0  0  0  0  0  0  0  0  0
   12.2261    0.4235   23.2679 C   0  0  0  0  0  0  0  0  0  0  0  0
   13.6164   -0.1413   23.0192 C   0  0  0  0  0  0  0  0  0  0  0  0
   13.5382   -1.4761   22.2960 C   0  0  0  0  0  0  0  0  0  0  0  0
   12.6570   -2.4678   23.0448 C   0  0  0  0  0  0  0  0  0  0  0  0
   10.5503   -2.8134   24.1964 C   0  0  0  0  0  0  0  0  0  0  0  0
    9.9597   -3.4770   24.9983 C   0  0  0  0  0  0  0  0  0  0  0  0
    9.3033   -4.3405   25.9262 C   0  0  0  0  0  0  0  0  0  0  0  0
    7.9667   -4.5433   26.1334 C   0  0  0  0  0  0  0  0  0  0  0  0
    7.8715   -5.4629   27.1352 N   0  0  0  0  0  0  0  0  0  0  0  0
    6.6353   -6.0133   27.6932 C   0  0  0  0  0  0  0  0  0  0  0  0
    9.1337   -5.7848   27.4791 C   0  0  0  0  0  0  0  0  0  0  0  0
   10.0441   -5.1311   26.7841 N   0  0  0  0  0  0  0  0  0  0  0  0
  1  2  1  0
  2  3  2  0
  3  4  1  0
  4  5  2  0
  5  6  1  0
  6  7  2  0
  7  8  1  0
  8  9  1  0
  9 10  2  0
  9 11  1  0
 11 12  1  0
 12 13  1  0
 13 14  1  0
 14 15  1  0
 15 16  1  0
 16 17  1  0
 12 18  1  0
 18 19  3  0
 19 20  1  0
 20 21  2  0
 21 22  1  0
 22 23  1  0
 22 24  1  0
 24 25  2  0
  7  2  1  0
 17 12  1  0
 25 20  1  0
M  END
