CVD-0000344|dock_bobby27042020.70|mol2|27|dock2
     RDKit          3D

 32 35  0  0  0  0  0  0  0  0999 V2000
    6.1515   -6.5739   22.3078 C   0  0  0  0  0  0  0  0  0  0  0  0
    6.1398   -5.2314   21.6730 C   0  0  0  0  0  0  0  0  0  0  0  0
    7.0922   -4.3877   22.3845 O   0  0  0  0  0  0  0  0  0  0  0  0
    7.4468   -3.1906   21.8416 C   0  0  0  0  0  0  0  0  0  0  0  0
    6.7167   -2.4615   20.9533 C   0  0  0  0  0  0  0  0  0  0  0  0
    7.1920   -1.2214   20.4553 C   0  0  0  0  0  0  0  0  0  0  0  0
    8.4217   -0.8023   20.8899 C   0  0  0  0  0  0  0  0  0  0  0  0
    9.1945   -1.5128   21.7866 N   0  0  0  0  0  0  0  0  0  0  0  0
   10.4739   -0.9389   22.1528 C   0  0  0  0  0  0  0  0  0  0  0  0
   11.5586   -1.7847   22.3541 C   0  0  0  0  0  0  0  0  0  0  0  0
   12.7815   -1.2449   22.6883 C   0  0  0  0  0  0  0  0  0  0  0  0
   14.1357   -2.3104   22.9398 Cl  0  0  0  0  0  0  0  0  0  0  0  0
   12.9642    0.1142   22.8286 C   0  0  0  0  0  0  0  0  0  0  0  0
   11.8832    0.9734   22.6402 C   0  0  0  0  0  0  0  0  0  0  0  0
   10.6407    0.4349   22.3141 C   0  0  0  0  0  0  0  0  0  0  0  0
   11.9878    2.4690   22.7738 C   0  0  0  0  0  0  0  0  0  0  0  0
   10.9885    3.0895   23.1258 O   0  0  0  0  0  0  0  0  0  0  0  0
   13.1908    3.0938   22.4996 N   0  0  0  0  0  0  0  0  0  0  0  0
   13.4939    4.4345   22.5596 C   0  0  0  0  0  0  0  0  0  0  0  0
   14.2575    5.2443   21.7415 C   0  0  0  0  0  0  0  0  0  0  0  0
   14.1945    6.5332   22.3208 C   0  0  0  0  0  0  0  0  0  0  0  0
   13.4350    6.4391   23.4031 C   0  0  0  0  0  0  0  0  0  0  0  0
   12.9815    5.1601   23.5878 O   0  0  0  0  0  0  0  0  0  0  0  0
    8.7577   -2.7402   22.3344 C   0  0  0  0  0  0  0  0  0  0  0  0
    9.3845   -3.3936   23.1607 O   0  0  0  0  0  0  0  0  0  0  0  0
    6.3515   -0.4554   19.4925 C   0  0  0  0  0  0  0  0  0  0  0  0
    6.7061   -0.5098   18.1385 C   0  0  0  0  0  0  0  0  0  0  0  0
    6.0764    0.1372   17.1550 N   0  0  0  0  0  0  0  0  0  0  0  0
    5.0499    0.9066   17.5063 C   0  0  0  0  0  0  0  0  0  0  0  0
    4.5989    1.0211   18.8038 C   0  0  0  0  0  0  0  0  0  0  0  0
    5.2240    0.3186   19.8318 C   0  0  0  0  0  0  0  0  0  0  0  0
    4.6265    0.4325   21.2104 C   0  0  0  0  0  0  0  0  0  0  0  0
  1  2  1  0
  2  3  1  0
  3  4  1  0
  4  5  2  0
  5  6  1  0
  6  7  2  0
  7  8  1  0
  8  9  1  0
  9 10  2  0
 10 11  1  0
 11 12  1  0
 11 13  2  0
 13 14  1  0
 14 15  2  0
 14 16  1  0
 16 17  2  0
 16 18  1  0
 18 19  1  0
 19 20  2  0
 20 21  1  0
 21 22  2  0
 22 23  1  0
  8 24  1  0
 24 25  2  0
  6 26  1  0
 26 27  2  0
 27 28  1  0
 28 29  2  0
 29 30  1  0
 30 31  2  0
 31 32  1  0
 24  4  1  0
 31 26  1  0
 15  9  1  0
 23 19  1  0
M  END
