CVD-0000762|dock_bobby27042020.55|mol2|3|dock2
     RDKit          3D

 17 18  0  0  0  0  0  0  0  0999 V2000
    9.5034   -0.5890   22.8853 O   0  0  0  0  0  0  0  0  0  0  0  0
    9.9658   -1.0413   21.8415 C   0  0  0  0  0  0  0  0  0  0  0  0
    9.2565   -0.9796   20.6387 N   0  0  0  0  0  0  0  0  0  0  0  0
    8.0161   -0.4623   20.3519 C   0  0  0  0  0  0  0  0  0  0  0  0
    6.8579   -0.3521   21.0981 C   0  0  0  0  0  0  0  0  0  0  0  0
    5.9227    0.2632   20.2695 C   0  0  0  0  0  0  0  0  0  0  0  0
    6.5293    0.4956   19.0904 C   0  0  0  0  0  0  0  0  0  0  0  0
    7.8302    0.0562   19.1106 O   0  0  0  0  0  0  0  0  0  0  0  0
    6.0805    1.0892   17.8819 C   0  0  0  0  0  0  0  0  0  0  0  0
    5.6909    1.5560   16.9125 N   0  0  0  0  0  0  0  0  0  0  0  0
   11.1914   -1.6466   21.7075 N   0  0  0  0  0  0  0  0  0  0  0  0
   12.1999   -1.9030   22.6693 C   0  0  0  0  0  0  0  0  0  0  0  0
   11.9448   -2.2665   23.9878 C   0  0  0  0  0  0  0  0  0  0  0  0
   13.0079   -2.4937   24.8448 C   0  0  0  0  0  0  0  0  0  0  0  0
   14.2896   -2.3528   24.3652 C   0  0  0  0  0  0  0  0  0  0  0  0
   14.5650   -2.0059   23.1080 N   0  0  0  0  0  0  0  0  0  0  0  0
   13.5321   -1.7888   22.2888 C   0  0  0  0  0  0  0  0  0  0  0  0
  1  2  2  0
  2  3  1  0
  3  4  1  0
  4  5  2  0
  5  6  1  0
  6  7  2  0
  7  8  1  0
  7  9  1  0
  9 10  3  0
  2 11  1  0
 11 12  1  0
 12 13  2  0
 13 14  1  0
 14 15  2  0
 15 16  1  0
 16 17  2  0
  8  4  1  0
 17 12  1  0
M  END
