CVD-0002755|dock_bobby27042020.47|mol2|26|dock1
     RDKit          3D

 23 26  0  0  0  0  0  0  0  0999 V2000
    5.7097    0.2861   22.8562 N   0  0  0  0  0  0  0  0  0  0  0  0
    6.1745    0.8467   21.7505 C   0  0  0  0  0  0  0  0  0  0  0  0
    6.9719    1.7873   21.7756 O   0  0  0  0  0  0  0  0  0  0  0  0
    5.6668    0.2763   20.4400 C   0  0  0  0  0  0  0  0  0  0  0  0
    5.7754    1.3552   19.3502 C   0  0  0  0  0  0  0  0  0  0  0  0
    6.5373    0.7067   18.1960 C   0  0  0  0  0  0  0  0  0  0  0  0
    5.7132    0.6251   17.0300 O   0  0  0  0  0  0  0  0  0  0  0  0
    6.9197   -0.5401   18.5856 C   0  0  0  0  0  0  0  0  0  0  0  0
    6.4677   -0.9568   19.8968 C   0  0  0  0  0  0  0  0  0  0  0  0
    7.5553   -1.4359   20.8277 C   0  0  0  0  0  0  0  0  0  0  0  0
    7.4880   -2.5818   21.5601 C   0  0  0  0  0  0  0  0  0  0  0  0
    8.8970   -2.8227   22.5026 S   0  0  0  0  0  0  0  0  0  0  0  0
    9.6305   -1.3792   21.9325 C   0  0  0  0  0  0  0  0  0  0  0  0
    8.7892   -0.7604   21.0513 C   0  0  0  0  0  0  0  0  0  0  0  0
   10.9728   -0.9157   22.3590 C   0  0  0  0  0  0  0  0  0  0  0  0
   11.9178   -1.9062   22.6487 C   0  0  0  0  0  0  0  0  0  0  0  0
   13.2051   -1.5897   23.0567 C   0  0  0  0  0  0  0  0  0  0  0  0
   13.6096   -0.2738   23.1947 C   0  0  0  0  0  0  0  0  0  0  0  0
   12.6909    0.7284   22.9133 C   0  0  0  0  0  0  0  0  0  0  0  0
   12.8152    2.0950   22.9633 N   0  0  0  0  0  0  0  0  0  0  0  0
   11.6205    2.6608   22.5915 C   0  0  0  0  0  0  0  0  0  0  0  0
   10.7145    1.6963   22.2984 C   0  0  0  0  0  0  0  0  0  0  0  0
   11.3781    0.4349   22.4974 C   0  0  0  0  0  0  0  0  0  0  0  0
  1  2  1  0
  2  3  2  0
  4  2  1  0
  4  5  1  0
  5  6  1  0
  6  7  1  0
  6  8  1  0
  8  9  1  0
  9 10  1  0
 10 11  2  0
 11 12  1  0
 12 13  1  0
 13 14  2  0
 13 15  1  0
 15 16  2  0
 16 17  1  0
 17 18  2  0
 18 19  1  0
 19 20  1  0
 20 21  1  0
 21 22  2  0
 22 23  1  0
  9  4  1  0
 14 10  1  0
 23 15  1  0
 23 19  2  0
M  END
