CVD-0003255|dock_bobby27042020.74|mol2|26|dock1
     RDKit          3D

 29 31  0  0  0  0  0  0  0  0999 V2000
   12.3673   -1.8563   21.2426 O   0  0  0  0  0  0  0  0  0  0  0  0
   12.2127   -0.7153   21.9631 C   0  0  0  0  0  0  0  0  0  0  0  0
   13.2757   -0.2153   22.7051 C   0  0  0  0  0  0  0  0  0  0  0  0
   13.1163    0.9489   23.4382 C   0  0  0  0  0  0  0  0  0  0  0  0
   11.9058    1.6095   23.4308 C   0  0  0  0  0  0  0  0  0  0  0  0
   10.8461    1.1109   22.6910 C   0  0  0  0  0  0  0  0  0  0  0  0
   10.9815   -0.0578   21.9474 C   0  0  0  0  0  0  0  0  0  0  0  0
    9.8141   -0.5848   21.1430 C   0  0  0  0  0  0  0  0  0  0  0  0
    9.3199   -1.9304   21.6714 C   0  0  0  0  0  0  0  0  0  0  0  0
    8.2559   -1.8014   22.7584 C   0  0  0  0  0  0  0  0  0  0  0  0
    6.8626   -1.5315   22.2103 C   0  0  0  0  0  0  0  0  0  0  0  0
    6.3438   -2.7065   21.5342 N   0  0  0  0  0  0  0  0  0  0  0  0
    6.2828   -3.8701   22.4179 C   0  0  0  0  0  0  0  0  0  0  0  0
    7.6436   -4.2016   22.9437 C   0  0  0  0  0  0  0  0  0  0  0  0
    8.1958   -3.0201   23.5954 N   0  0  0  0  0  0  0  0  0  0  0  0
    9.3271   -3.2132   24.7513 S   0  0  0  0  0  0  0  0  0  0  0  0
   10.3262   -4.0836   24.2135 O   0  0  0  0  0  0  0  0  0  0  0  0
    9.6857   -1.9042   25.2015 O   0  0  0  0  0  0  0  0  0  0  0  0
    8.5594   -4.0482   26.0963 C   0  0  0  0  0  0  0  0  0  0  0  0
    7.2630   -3.7190   26.4572 C   0  0  0  0  0  0  0  0  0  0  0  0
    6.6594   -4.3801   27.5121 C   0  0  0  0  0  0  0  0  0  0  0  0
    7.3592   -5.3572   28.1859 C   0  0  0  0  0  0  0  0  0  0  0  0
    6.5975   -6.1873   29.5138 Cl  0  0  0  0  0  0  0  0  0  0  0  0
    8.6480   -5.6921   27.8325 C   0  0  0  0  0  0  0  0  0  0  0  0
    9.2551   -5.0334   26.7781 C   0  0  0  0  0  0  0  0  0  0  0  0
    6.0543   -2.8034   20.2199 C   0  0  0  0  0  0  0  0  0  0  0  0
    5.6642   -3.8507   19.7193 O   0  0  0  0  0  0  0  0  0  0  0  0
    6.2404   -1.5525   19.3830 C   0  0  0  0  0  0  0  0  0  0  0  0
    5.8022   -1.8313   17.6924 Cl  0  0  0  0  0  0  0  0  0  0  0  0
  1  2  1  0
  2  3  2  0
  3  4  1  0
  4  5  2  0
  5  6  1  0
  6  7  2  0
  7  8  1  0
  8  9  1  0
 10  9  1  0
 10 11  1  0
 11 12  1  0
 12 13  1  0
 13 14  1  0
 14 15  1  0
 15 16  1  0
 16 17  2  0
 16 18  2  0
 16 19  1  0
 19 20  2  0
 20 21  1  0
 21 22  2  0
 22 23  1  0
 22 24  1  0
 24 25  2  0
 12 26  1  0
 26 27  2  0
 26 28  1  0
 28 29  1  0
  7  2  1  0
 15 10  1  0
 25 19  1  0
M  END
