CVD-0002367|dock_bobby27042020.49|mol2|9|dock1
     RDKit          3D

 38 42  0  0  0  0  0  0  0  0999 V2000
    6.3149    7.7643   21.5204 C   0  0  0  0  0  0  0  0  0  0  0  0
    7.0763    6.5194   21.3880 N   0  0  0  0  0  0  0  0  0  0  0  0
    6.8038    5.5270   22.4331 C   0  0  0  0  0  0  0  0  0  0  0  0
    7.3855    4.1811   22.0885 C   0  0  0  0  0  0  0  0  0  0  0  0
    6.7479    3.1950   21.3143 C   0  0  0  0  0  0  0  0  0  0  0  0
    7.5643    2.0859   21.2003 C   0  0  0  0  0  0  0  0  0  0  0  0
    7.2353    0.8406   20.4660 C   0  0  0  0  0  0  0  0  0  0  0  0
    7.7258   -0.3537   20.9965 C   0  0  0  0  0  0  0  0  0  0  0  0
    7.4266   -1.5978   20.4434 C   0  0  0  0  0  0  0  0  0  0  0  0
    6.6302   -1.6294   19.3038 C   0  0  0  0  0  0  0  0  0  0  0  0
    6.1734   -0.4598   18.7262 C   0  0  0  0  0  0  0  0  0  0  0  0
    6.5012    0.7454   19.2949 C   0  0  0  0  0  0  0  0  0  0  0  0
    6.0919    1.8605   18.6518 F   0  0  0  0  0  0  0  0  0  0  0  0
    7.9332   -2.8018   21.0173 N   0  0  0  0  0  0  0  0  0  0  0  0
    7.1675   -4.0686   20.9449 C   0  0  0  0  0  0  0  0  0  0  0  0
    6.8283   -4.5579   22.2070 C   0  0  0  0  0  0  0  0  0  0  0  0
    7.6216   -4.2730   23.3810 C   0  0  0  0  0  0  0  0  0  0  0  0
    8.9274   -3.6059   23.0692 C   0  0  0  0  0  0  0  0  0  0  0  0
   10.0293   -3.7595   23.9046 C   0  0  0  0  0  0  0  0  0  0  0  0
   11.2533   -3.2026   23.5952 C   0  0  0  0  0  0  0  0  0  0  0  0
   11.3718   -2.4771   22.4231 C   0  0  0  0  0  0  0  0  0  0  0  0
   10.2908   -2.3063   21.5693 C   0  0  0  0  0  0  0  0  0  0  0  0
    9.0579   -2.8736   21.8922 C   0  0  0  0  0  0  0  0  0  0  0  0
   12.8920   -1.6544   22.0549 S   0  0  0  0  0  0  0  0  0  0  0  0
   13.2198   -1.8657   20.5022 N   0  0  0  0  0  0  0  0  0  0  0  0
   13.9246   -2.3111   22.7988 O   0  0  0  0  0  0  0  0  0  0  0  0
   12.6792   -0.2526   22.2559 O   0  0  0  0  0  0  0  0  0  0  0  0
    8.7566    2.4025   21.9071 N   0  0  0  0  0  0  0  0  0  0  0  0
    8.6281    3.6773   22.4448 C   0  0  0  0  0  0  0  0  0  0  0  0
   10.1977    1.5419   22.1536 S   0  0  0  0  0  0  0  0  0  0  0  0
   10.0464    0.7633   23.3431 O   0  0  0  0  0  0  0  0  0  0  0  0
   10.4502    0.8778   20.9127 O   0  0  0  0  0  0  0  0  0  0  0  0
   11.4612    2.7476   22.3724 C   0  0  0  0  0  0  0  0  0  0  0  0
   12.0223    3.3814   21.2769 C   0  0  0  0  0  0  0  0  0  0  0  0
   13.0163    4.3197   21.4951 C   0  0  0  0  0  0  0  0  0  0  0  0
   13.4061    4.5831   22.7889 C   0  0  0  0  0  0  0  0  0  0  0  0
   12.8756    3.9793   23.8532 N   0  0  0  0  0  0  0  0  0  0  0  0
   11.9168    3.0744   23.6356 C   0  0  0  0  0  0  0  0  0  0  0  0
  1  2  1  0
  2  3  1  0
  3  4  1  0
  4  5  1  0
  5  6  2  0
  6  7  1  0
  7  8  2  0
  8  9  1  0
  9 10  2  0
 10 11  1  0
 11 12  2  0
 12 13  1  0
  9 14  1  0
 14 15  1  0
 15 16  1  0
 16 17  1  0
 17 18  1  0
 18 19  2  0
 19 20  1  0
 20 21  2  0
 21 22  1  0
 22 23  2  0
 21 24  1  0
 24 25  1  0
 24 26  2  0
 24 27  2  0
  6 28  1  0
 28 29  1  0
 28 30  1  0
 30 31  2  0
 30 32  2  0
 30 33  1  0
 33 34  2  0
 34 35  1  0
 35 36  2  0
 36 37  1  0
 37 38  2  0
 29  4  2  0
 38 33  1  0
 12  7  1  0
 23 14  1  0
 23 18  1  0
M  END
