CVD-0002359|dock_bobby27042020.63|mol2|32|dock2
     RDKit          3D

 38 42  0  0  0  0  0  0  0  0999 V2000
    5.5949   -6.6017   22.3295 C   0  0  0  0  0  0  0  0  0  0  0  0
    5.8411   -5.3391   21.6282 N   0  0  0  0  0  0  0  0  0  0  0  0
    7.1382   -4.7222   21.9258 C   0  0  0  0  0  0  0  0  0  0  0  0
    6.9803   -3.3213   22.4557 C   0  0  0  0  0  0  0  0  0  0  0  0
    6.4433   -2.9821   23.7099 C   0  0  0  0  0  0  0  0  0  0  0  0
    6.4313   -1.6081   23.8721 C   0  0  0  0  0  0  0  0  0  0  0  0
    5.9369   -0.8640   25.0610 C   0  0  0  0  0  0  0  0  0  0  0  0
    4.8295   -0.0157   24.9769 C   0  0  0  0  0  0  0  0  0  0  0  0
    4.3830    0.6943   26.0791 C   0  0  0  0  0  0  0  0  0  0  0  0
    5.0064    0.5586   27.2982 C   0  0  0  0  0  0  0  0  0  0  0  0
    6.0892   -0.2910   27.4248 C   0  0  0  0  0  0  0  0  0  0  0  0
    6.5282   -0.9732   26.3149 C   0  0  0  0  0  0  0  0  0  0  0  0
    7.5995   -1.7804   26.4921 F   0  0  0  0  0  0  0  0  0  0  0  0
    6.9899   -1.0801   22.6726 N   0  0  0  0  0  0  0  0  0  0  0  0
    7.3130   -2.1324   21.8251 C   0  0  0  0  0  0  0  0  0  0  0  0
    7.2876    0.4839   22.2375 S   0  0  0  0  0  0  0  0  0  0  0  0
    6.3130    1.2049   23.0265 O   0  0  0  0  0  0  0  0  0  0  0  0
    8.7560    1.2436   22.3185 C   0  0  0  0  0  0  0  0  0  0  0  0
    9.7987    0.8000   22.9877 N   0  0  0  0  0  0  0  0  0  0  0  0
    9.6039   -0.3642   23.8264 C   0  0  0  0  0  0  0  0  0  0  0  0
   10.4141   -1.4939   23.4662 C   0  0  0  0  0  0  0  0  0  0  0  0
   11.5886   -1.3084   22.5658 C   0  0  0  0  0  0  0  0  0  0  0  0
   12.0746    0.0940   22.5771 C   0  0  0  0  0  0  0  0  0  0  0  0
   13.4280    0.3957   22.4660 C   0  0  0  0  0  0  0  0  0  0  0  0
   13.8921    1.6927   22.5316 C   0  0  0  0  0  0  0  0  0  0  0  0
   12.9765    2.7129   22.7130 C   0  0  0  0  0  0  0  0  0  0  0  0
   11.6177    2.4530   22.8281 C   0  0  0  0  0  0  0  0  0  0  0  0
   11.1567    1.1367   22.7604 C   0  0  0  0  0  0  0  0  0  0  0  0
   13.5319    4.3905   22.7253 S   0  0  0  0  0  0  0  0  0  0  0  0
   12.6900    5.1956   23.8235 N   0  0  0  0  0  0  0  0  0  0  0  0
   13.2127    4.9560   21.4488 O   0  0  0  0  0  0  0  0  0  0  0  0
   14.8971    4.3858   23.1580 O   0  0  0  0  0  0  0  0  0  0  0  0
    6.6705    0.6685   20.5829 C   0  0  0  0  0  0  0  0  0  0  0  0
    5.3408    0.9729   20.3412 C   0  0  0  0  0  0  0  0  0  0  0  0
    4.9173    1.0821   19.0278 C   0  0  0  0  0  0  0  0  0  0  0  0
    5.8283    0.8762   18.0170 C   0  0  0  0  0  0  0  0  0  0  0  0
    7.1079    0.5706   18.2341 N   0  0  0  0  0  0  0  0  0  0  0  0
    7.5105    0.4671   19.5039 C   0  0  0  0  0  0  0  0  0  0  0  0
  1  2  1  0
  2  3  1  0
  3  4  1  0
  4  5  1  0
  5  6  2  0
  6  7  1  0
  7  8  2  0
  8  9  1  0
  9 10  2  0
 10 11  1  0
 11 12  2  0
 12 13  1  0
  6 14  1  0
 14 15  1  0
 14 16  1  0
 16 17  2  0
 16 18  2  0
 18 19  1  0
 19 20  1  0
 20 21  1  0
 21 22  1  0
 22 23  1  0
 23 24  2  0
 24 25  1  0
 25 26  2  0
 26 27  1  0
 27 28  2  0
 26 29  1  0
 29 30  1  0
 29 31  2  0
 29 32  2  0
 16 33  1  0
 33 34  2  0
 34 35  1  0
 35 36  2  0
 36 37  1  0
 37 38  2  0
 15  4  2  0
 28 19  1  0
 38 33  1  0
 12  7  1  0
 28 23  1  0
M  END
