CVD-0003592|dock_bobby27042020.1|mol2|31|dock1
     RDKit          3D

 13 13  0  0  0  0  0  0  0  0999 V2000
   12.6082    4.3270   21.3397 C   0  0  0  0  0  0  0  0  0  0  0  0
   11.9859    3.8895   22.4021 C   0  0  0  0  0  0  0  0  0  0  0  0
   11.1350    2.6677   22.3425 C   0  0  0  0  0  0  0  0  0  0  0  0
   10.1054    2.6662   21.6697 O   0  0  0  0  0  0  0  0  0  0  0  0
   11.5073    1.5676   23.0355 N   0  0  0  0  0  0  0  0  0  0  0  0
   10.7034    0.3441   23.0750 C   0  0  0  0  0  0  0  0  0  0  0  0
   11.5381   -0.8522   22.6571 C   0  0  0  0  0  0  0  0  0  0  0  0
   12.7070   -0.9858   23.5317 N   0  0  0  0  0  0  0  0  0  0  0  0
   13.4940   -2.1609   23.1579 C   0  0  0  0  0  0  0  0  0  0  0  0
   13.9745   -2.1646   21.7735 C   0  0  0  0  0  0  0  0  0  0  0  0
   14.3560   -2.1245   20.6628 C   0  0  0  0  0  0  0  0  0  0  0  0
   13.5174    0.2253   23.4322 C   0  0  0  0  0  0  0  0  0  0  0  0
   12.7170    1.4440   23.8546 C   0  0  0  0  0  0  0  0  0  0  0  0
  1  2  2  0
  2  3  1  0
  3  4  2  0
  3  5  1  0
  5  6  1  0
  6  7  1  0
  7  8  1  0
  8  9  1  0
  9 10  1  0
 10 11  3  0
  8 12  1  0
 12 13  1  0
 13  5  1  0
M  END
