CVD-0000137|dock_bobby27042020.85|mol2|24|dock1
     RDKit          3D

 18 19  0  0  0  0  0  0  0  0999 V2000
    8.6360    0.1320   22.3734 O   0  0  0  0  0  0  0  0  0  0  0  0
    9.1387   -0.4230   21.4021 C   0  0  0  0  0  0  0  0  0  0  0  0
   10.3655   -1.0471   21.4118 N   0  0  0  0  0  0  0  0  0  0  0  0
   11.3144   -1.2128   22.4526 C   0  0  0  0  0  0  0  0  0  0  0  0
   11.0305   -1.0090   23.8017 C   0  0  0  0  0  0  0  0  0  0  0  0
   12.0102   -1.1907   24.7623 C   0  0  0  0  0  0  0  0  0  0  0  0
   13.2942   -1.5795   24.3987 C   0  0  0  0  0  0  0  0  0  0  0  0
   13.5816   -1.7840   23.0546 C   0  0  0  0  0  0  0  0  0  0  0  0
   12.6009   -1.6018   22.0964 C   0  0  0  0  0  0  0  0  0  0  0  0
   14.3131   -1.7681   25.4017 C   0  0  0  0  0  0  0  0  0  0  0  0
   15.1325   -1.8874   26.1886 N   0  0  0  0  0  0  0  0  0  0  0  0
    8.5481   -0.5018   20.1614 N   0  0  0  0  0  0  0  0  0  0  0  0
    7.3033   -0.0089   19.6941 C   0  0  0  0  0  0  0  0  0  0  0  0
    7.2333    0.4991   18.4032 C   0  0  0  0  0  0  0  0  0  0  0  0
    6.0318    0.9869   17.9207 C   0  0  0  0  0  0  0  0  0  0  0  0
    4.9304    0.9536   18.7435 C   0  0  0  0  0  0  0  0  0  0  0  0
    4.9634    0.4733   19.9864 N   0  0  0  0  0  0  0  0  0  0  0  0
    6.1285    0.0042   20.4438 C   0  0  0  0  0  0  0  0  0  0  0  0
  1  2  2  0
  2  3  1  0
  3  4  1  0
  4  5  2  0
  5  6  1  0
  6  7  2  0
  7  8  1  0
  8  9  2  0
  7 10  1  0
 10 11  3  0
  2 12  1  0
 12 13  1  0
 13 14  2  0
 14 15  1  0
 15 16  2  0
 16 17  1  0
 17 18  2  0
  9  4  1  0
 18 13  1  0
M  END
