CVD-0004069|dock_bobby27042020.28|mol2|44|dock2
     RDKit          3D

 25 29  0  0  0  0  0  0  0  0999 V2000
    5.7341    0.8495   18.7231 C   0  0  0  0  0  0  0  0  0  0  0  0
    6.9560    0.4938   19.5161 C   0  0  0  0  0  0  0  0  0  0  0  0
    7.6436    1.2593   20.3655 C   0  0  0  0  0  0  0  0  0  0  0  0
    8.7391    0.6589   20.9608 N   0  0  0  0  0  0  0  0  0  0  0  0
    9.7625    0.9407   21.8579 C   0  0  0  0  0  0  0  0  0  0  0  0
   10.4804   -0.2395   21.9436 C   0  0  0  0  0  0  0  0  0  0  0  0
    9.9297   -1.1917   21.1034 N   0  0  0  0  0  0  0  0  0  0  0  0
    8.8910   -0.6302   20.5377 C   0  0  0  0  0  0  0  0  0  0  0  0
    7.6529   -1.0792   19.3944 S   0  0  0  0  0  0  0  0  0  0  0  0
   11.6567   -0.6448   22.7417 C   0  0  0  0  0  0  0  0  0  0  0  0
   12.4265   -1.7271   22.3291 C   0  0  0  0  0  0  0  0  0  0  0  0
   13.5339   -2.1341   23.0516 C   0  0  0  0  0  0  0  0  0  0  0  0
   13.8559   -1.4468   24.1895 C   0  0  0  0  0  0  0  0  0  0  0  0
   14.9466   -1.8389   24.9017 F   0  0  0  0  0  0  0  0  0  0  0  0
   13.1260   -0.3818   24.6410 C   0  0  0  0  0  0  0  0  0  0  0  0
   12.0183    0.0134   23.9122 C   0  0  0  0  0  0  0  0  0  0  0  0
    9.8591    2.2893   22.4631 C   0  0  0  0  0  0  0  0  0  0  0  0
    8.6949    2.9286   22.8921 C   0  0  0  0  0  0  0  0  0  0  0  0
    8.7866    4.1710   23.4951 C   0  0  0  0  0  0  0  0  0  0  0  0
    9.9363    4.8286   23.7042 N   0  0  0  0  0  0  0  0  0  0  0  0
   11.0505    4.2317   23.2486 C   0  0  0  0  0  0  0  0  0  0  0  0
   12.3315    4.6998   23.2973 N   0  0  0  0  0  0  0  0  0  0  0  0
   13.1538    3.7780   22.6887 C   0  0  0  0  0  0  0  0  0  0  0  0
   12.4352    2.7136   22.2525 C   0  0  0  0  0  0  0  0  0  0  0  0
   11.0757    2.9843   22.6198 C   0  0  0  0  0  0  0  0  0  0  0  0
  1  2  1  0
  2  3  2  0
  3  4  1  0
  4  5  1  0
  5  6  2  0
  6  7  1  0
  7  8  2  0
  8  9  1  0
  6 10  1  0
 10 11  2  0
 11 12  1  0
 12 13  2  0
 13 14  1  0
 13 15  1  0
 15 16  2  0
  5 17  1  0
 17 18  2  0
 18 19  1  0
 19 20  2  0
 20 21  1  0
 21 22  1  0
 22 23  1  0
 23 24  2  0
 24 25  1  0
  9  2  1  0
 16 10  1  0
 25 17  1  0
  8  4  1  0
 25 21  2  0
M  END
