CVD-0001031|dock_bobby27042020.96|mol2|35|dock2
     RDKit          3D

 39 43  0  0  0  0  0  0  0  0999 V2000
    5.3389   -9.5688   34.5594 C   0  0  0  0  0  0  0  0  0  0  0  0
    4.7755   -8.5983   33.6793 O   0  0  0  0  0  0  0  0  0  0  0  0
    5.4927   -8.1470   32.5995 C   0  0  0  0  0  0  0  0  0  0  0  0
    5.2485   -6.8654   32.1449 C   0  0  0  0  0  0  0  0  0  0  0  0
    5.9498   -6.3738   31.0603 C   0  0  0  0  0  0  0  0  0  0  0  0
    6.9112   -7.1360   30.3963 C   0  0  0  0  0  0  0  0  0  0  0  0
    7.5713   -6.4653   29.2562 C   0  0  0  0  0  0  0  0  0  0  0  0
    8.5398   -6.9740   28.5499 N   0  0  0  0  0  0  0  0  0  0  0  0
    8.8344   -5.9986   27.6035 C   0  0  0  0  0  0  0  0  0  0  0  0
    9.7677   -5.9455   26.5712 C   0  0  0  0  0  0  0  0  0  0  0  0
    9.8315   -4.8145   25.7709 C   0  0  0  0  0  0  0  0  0  0  0  0
    8.9772   -3.7287   25.9815 C   0  0  0  0  0  0  0  0  0  0  0  0
    9.0064   -2.5535   25.1895 N   0  0  0  0  0  0  0  0  0  0  0  0
    9.6519   -2.2691   24.0313 C   0  0  0  0  0  0  0  0  0  0  0  0
   10.3839   -3.0329   23.4090 O   0  0  0  0  0  0  0  0  0  0  0  0
    9.3946   -0.8650   23.5273 C   0  0  0  0  0  0  0  0  0  0  0  0
   10.0106    0.1697   24.4608 C   0  0  0  0  0  0  0  0  0  0  0  0
    9.7821    1.5696   23.9291 C   0  0  0  0  0  0  0  0  0  0  0  0
   10.3392    1.6892   22.5842 N   0  0  0  0  0  0  0  0  0  0  0  0
    9.7398    0.7523   21.6402 C   0  0  0  0  0  0  0  0  0  0  0  0
    9.9550   -0.6796   22.1190 C   0  0  0  0  0  0  0  0  0  0  0  0
   11.1056    2.7141   22.1333 C   0  0  0  0  0  0  0  0  0  0  0  0
   11.4870    2.7220   20.9754 O   0  0  0  0  0  0  0  0  0  0  0  0
   11.5500    3.8904   22.9576 C   0  0  0  0  0  0  0  0  0  0  0  0
   12.8768    4.2865   23.1071 C   0  0  0  0  0  0  0  0  0  0  0  0
   13.2132    5.3854   23.8777 C   0  0  0  0  0  0  0  0  0  0  0  0
   12.2367    6.1160   24.5412 C   0  0  0  0  0  0  0  0  0  0  0  0
   10.9143    5.7145   24.4118 C   0  0  0  0  0  0  0  0  0  0  0  0
   10.5783    4.6194   23.6357 C   0  0  0  0  0  0  0  0  0  0  0  0
   12.5996    7.3068   25.3693 C   0  0  0  0  0  0  0  0  0  0  0  0
   13.2063    8.2567   24.6667 F   0  0  0  0  0  0  0  0  0  0  0  0
   13.4239    7.0081   26.3670 F   0  0  0  0  0  0  0  0  0  0  0  0
   11.5434    7.8856   25.9293 F   0  0  0  0  0  0  0  0  0  0  0  0
    8.0459   -3.7877   27.0154 C   0  0  0  0  0  0  0  0  0  0  0  0
    8.0038   -4.9251   27.7968 C   0  0  0  0  0  0  0  0  0  0  0  0
    7.1767   -5.2080   28.8644 O   0  0  0  0  0  0  0  0  0  0  0  0
    7.1390   -8.4292   30.8764 C   0  0  0  0  0  0  0  0  0  0  0  0
    8.4011   -9.6242   30.1161 Br  0  0  0  0  0  0  0  0  0  0  0  0
    6.4427   -8.9321   31.9618 C   0  0  0  0  0  0  0  0  0  0  0  0
  1  2  1  0
  2  3  1  0
  3  4  2  0
  4  5  1  0
  5  6  2  0
  6  7  1  0
  7  8  2  0
  8  9  1  0
  9 10  2  0
 10 11  1  0
 11 12  2  0
 12 13  1  0
 13 14  1  0
 14 15  2  0
 14 16  1  0
 16 17  1  0
 17 18  1  0
 18 19  1  0
 19 20  1  0
 20 21  1  0
 19 22  1  0
 22 23  2  0
 22 24  1  0
 24 25  2  0
 25 26  1  0
 26 27  2  0
 27 28  1  0
 28 29  2  0
 27 30  1  0
 30 31  1  0
 30 32  1  0
 30 33  1  0
 12 34  1  0
 34 35  2  0
 35 36  1  0
  6 37  1  0
 37 38  1  0
 37 39  2  0
 39  3  1  0
 36  7  1  0
 35  9  1  0
 21 16  1  0
 29 24  1  0
M  END
