CVD-0003473|dock_bobby27042020.45|mol2|15|dock2
     RDKit          3D

 27 29  0  0  0  0  0  0  0  0999 V2000
   10.9135    2.1958   23.0919 C   0  0  0  0  0  0  0  0  0  0  0  0
   11.3670    0.8537   22.7593 N   0  0  0  0  0  0  0  0  0  0  0  0
   12.8226    0.6923   22.8244 C   0  0  0  0  0  0  0  0  0  0  0  0
   13.2575   -0.3331   23.8437 C   0  0  0  0  0  0  0  0  0  0  0  0
   13.7987   -1.5484   23.4591 C   0  0  0  0  0  0  0  0  0  0  0  0
   14.1896   -2.4630   24.4212 C   0  0  0  0  0  0  0  0  0  0  0  0
   14.0258   -2.1293   25.7465 C   0  0  0  0  0  0  0  0  0  0  0  0
   13.5091   -0.9670   26.1478 N   0  0  0  0  0  0  0  0  0  0  0  0
   13.1390   -0.0995   25.2008 C   0  0  0  0  0  0  0  0  0  0  0  0
   10.5644   -0.2190   22.4338 C   0  0  0  0  0  0  0  0  0  0  0  0
   11.0839   -1.3173   22.5531 O   0  0  0  0  0  0  0  0  0  0  0  0
    9.2685   -0.1223   22.0030 N   0  0  0  0  0  0  0  0  0  0  0  0
    8.3780   -1.2676   22.0951 C   0  0  0  0  0  0  0  0  0  0  0  0
    7.7339   -1.5426   20.7728 C   0  0  0  0  0  0  0  0  0  0  0  0
    7.0479   -0.3273   20.3120 N   0  0  0  0  0  0  0  0  0  0  0  0
    7.9810    0.7972   20.1480 C   0  0  0  0  0  0  0  0  0  0  0  0
    8.6352    1.0864   21.4665 C   0  0  0  0  0  0  0  0  0  0  0  0
    5.8613   -0.5146   19.2097 S   0  0  0  0  0  0  0  0  0  0  0  0
    5.2278   -1.7626   19.5030 O   0  0  0  0  0  0  0  0  0  0  0  0
    6.4611   -0.3039   17.9289 O   0  0  0  0  0  0  0  0  0  0  0  0
    4.6898    0.7696   19.4817 C   0  0  0  0  0  0  0  0  0  0  0  0
    4.0515    0.8715   20.7067 C   0  0  0  0  0  0  0  0  0  0  0  0
    3.1284    1.8824   20.9068 C   0  0  0  0  0  0  0  0  0  0  0  0
    2.8262    2.7946   19.9081 C   0  0  0  0  0  0  0  0  0  0  0  0
    1.8201    3.8955   20.1409 C   0  0  0  0  0  0  0  0  0  0  0  0
    3.4781    2.6708   18.6913 C   0  0  0  0  0  0  0  0  0  0  0  0
    4.4051    1.6684   18.4671 C   0  0  0  0  0  0  0  0  0  0  0  0
  1  2  1  0
  2  3  1  0
  3  4  1  0
  4  5  2  0
  5  6  1  0
  6  7  2  0
  7  8  1  0
  8  9  2  0
  2 10  1  0
 10 11  2  0
 10 12  1  0
 12 13  1  0
 13 14  1  0
 14 15  1  0
 15 16  1  0
 16 17  1  0
 15 18  1  0
 18 19  2  0
 18 20  2  0
 18 21  1  0
 21 22  2  0
 22 23  1  0
 23 24  2  0
 24 25  1  0
 24 26  1  0
 26 27  2  0
  9  4  1  0
 17 12  1  0
 27 21  1  0
M  END
