CVD-0002392|dock_bobby27042020.91|mol2|32|dock1
     RDKit          3D

 26 29  0  0  0  0  0  0  0  0999 V2000
    6.5160   -6.4940   23.2544 F   0  0  0  0  0  0  0  0  0  0  0  0
    7.1578   -5.3558   22.9047 C   0  0  0  0  0  0  0  0  0  0  0  0
    6.5622   -4.4946   22.0229 C   0  0  0  0  0  0  0  0  0  0  0  0
    7.2137   -3.3151   21.6639 C   0  0  0  0  0  0  0  0  0  0  0  0
    8.4605   -3.0035   22.2275 C   0  0  0  0  0  0  0  0  0  0  0  0
    9.0587   -3.9150   23.0981 C   0  0  0  0  0  0  0  0  0  0  0  0
    8.4000   -5.0812   23.4386 C   0  0  0  0  0  0  0  0  0  0  0  0
    9.1486   -6.1916   24.5390 Cl  0  0  0  0  0  0  0  0  0  0  0  0
    9.0653   -1.7692   21.8737 N   0  0  0  0  0  0  0  0  0  0  0  0
   10.3130   -1.3796   22.4765 C   0  0  0  0  0  0  0  0  0  0  0  0
   10.3623   -0.3820   23.4449 C   0  0  0  0  0  0  0  0  0  0  0  0
   11.5975   -0.0622   23.9825 C   0  0  0  0  0  0  0  0  0  0  0  0
   12.7259   -0.7266   23.5551 C   0  0  0  0  0  0  0  0  0  0  0  0
   12.5775   -1.6991   22.5940 C   0  0  0  0  0  0  0  0  0  0  0  0
   11.3988   -2.0333   22.0533 N   0  0  0  0  0  0  0  0  0  0  0  0
    8.4824   -0.8857   20.9586 C   0  0  0  0  0  0  0  0  0  0  0  0
    9.0253    0.1759   20.6938 O   0  0  0  0  0  0  0  0  0  0  0  0
    7.2541   -1.2507   20.3855 N   0  0  0  0  0  0  0  0  0  0  0  0
    6.6511   -0.3427   19.4260 C   0  0  0  0  0  0  0  0  0  0  0  0
    5.3678    0.1572   19.6098 C   0  0  0  0  0  0  0  0  0  0  0  0
    4.8288    1.0223   18.6740 C   0  0  0  0  0  0  0  0  0  0  0  0
    5.5888    1.3637   17.5798 C   0  0  0  0  0  0  0  0  0  0  0  0
    6.8214    0.8994   17.3763 N   0  0  0  0  0  0  0  0  0  0  0  0
    7.3296    0.0622   18.2860 C   0  0  0  0  0  0  0  0  0  0  0  0
    6.5597   -2.4377   20.6877 C   0  0  0  0  0  0  0  0  0  0  0  0
    5.4950   -2.7355   20.1730 O   0  0  0  0  0  0  0  0  0  0  0  0
  1  2  1  0
  2  3  2  0
  3  4  1  0
  4  5  2  0
  5  6  1  0
  6  7  2  0
  7  8  1  0
  5  9  1  0
  9 10  1  0
 10 11  2  0
 11 12  1  0
 12 13  2  0
 13 14  1  0
 14 15  2  0
  9 16  1  0
 16 17  2  0
 16 18  1  0
 18 19  1  0
 19 20  2  0
 20 21  1  0
 21 22  2  0
 22 23  1  0
 23 24  2  0
 18 25  1  0
 25 26  2  0
  7  2  1  0
 15 10  1  0
 24 19  1  0
 25  4  1  0
M  END
