CVD-0001134|dock_bobby27042020.68|mol2|6|dock2
     RDKit          3D

 23 25  0  0  0  0  0  0  0  0999 V2000
   13.9976   -1.7433   24.2063 C   0  0  0  0  0  0  0  0  0  0  0  0
   12.9163   -1.9782   23.2008 C   0  0  0  0  0  0  0  0  0  0  0  0
   12.4606   -3.0816   23.0020 O   0  0  0  0  0  0  0  0  0  0  0  0
   12.4100   -0.7657   22.4627 C   0  0  0  0  0  0  0  0  0  0  0  0
   11.4967    0.1430   23.2915 C   0  0  0  0  0  0  0  0  0  0  0  0
   10.4187   -0.6927   23.9189 C   0  0  0  0  0  0  0  0  0  0  0  0
    9.5512   -1.2720   22.8288 C   0  0  0  0  0  0  0  0  0  0  0  0
    9.1364   -0.2268   21.8754 N   0  0  0  0  0  0  0  0  0  0  0  0
    9.7797    0.9366   21.7486 C   0  0  0  0  0  0  0  0  0  0  0  0
    9.3498    1.7615   20.9575 O   0  0  0  0  0  0  0  0  0  0  0  0
   10.8657    1.1917   22.4775 N   0  0  0  0  0  0  0  0  0  0  0  0
   11.4353    2.5046   22.5575 C   0  0  0  0  0  0  0  0  0  0  0  0
   10.6315    3.6363   22.6200 C   0  0  0  0  0  0  0  0  0  0  0  0
   11.2169    4.8876   22.6988 C   0  0  0  0  0  0  0  0  0  0  0  0
   12.5896    4.9713   22.7133 C   0  0  0  0  0  0  0  0  0  0  0  0
   13.3850    3.9033   22.6554 N   0  0  0  0  0  0  0  0  0  0  0  0
   12.8072    2.7004   22.5798 C   0  0  0  0  0  0  0  0  0  0  0  0
    7.9382   -0.5286   21.1307 C   0  0  0  0  0  0  0  0  0  0  0  0
    8.0066   -0.9807   19.8182 C   0  0  0  0  0  0  0  0  0  0  0  0
    6.8420   -1.2676   19.1284 C   0  0  0  0  0  0  0  0  0  0  0  0
    5.6375   -1.0833   19.7646 C   0  0  0  0  0  0  0  0  0  0  0  0
    5.5390   -0.6456   21.0190 N   0  0  0  0  0  0  0  0  0  0  0  0
    6.6716   -0.3929   21.6824 C   0  0  0  0  0  0  0  0  0  0  0  0
  1  2  1  0
  2  3  2  0
  2  4  1  0
  4  5  1  0
  5  6  1  0
  6  7  1  0
  7  8  1  0
  8  9  1  0
  9 10  2  0
  9 11  1  0
 11 12  1  0
 12 13  2  0
 13 14  1  0
 14 15  2  0
 15 16  1  0
 16 17  2  0
  8 18  1  0
 18 19  2  0
 19 20  1  0
 20 21  2  0
 21 22  1  0
 22 23  2  0
 11  5  1  0
 17 12  1  0
 23 18  1  0
M  END
