CVD-0001271|dock_bobby27042020.95|mol2|46|dock2
     RDKit          3D

 23 25  0  0  0  0  0  0  0  0999 V2000
    6.1179   -6.5447   21.7739 Cl  0  0  0  0  0  0  0  0  0  0  0  0
    7.1144   -5.2934   22.5277 C   0  0  0  0  0  0  0  0  0  0  0  0
    7.1617   -4.0299   21.6898 C   0  0  0  0  0  0  0  0  0  0  0  0
    6.6628   -4.0162   20.5714 O   0  0  0  0  0  0  0  0  0  0  0  0
    7.7575   -2.9310   22.2102 N   0  0  0  0  0  0  0  0  0  0  0  0
    8.3931   -2.8316   23.5277 C   0  0  0  0  0  0  0  0  0  0  0  0
    9.7357   -2.1563   23.4212 C   0  0  0  0  0  0  0  0  0  0  0  0
    9.6056   -0.8272   22.8018 N   0  0  0  0  0  0  0  0  0  0  0  0
    9.0443   -1.0112   21.4625 C   0  0  0  0  0  0  0  0  0  0  0  0
    7.6728   -1.6397   21.5307 C   0  0  0  0  0  0  0  0  0  0  0  0
   10.9181   -0.1341   22.7364 C   0  0  0  0  0  0  0  0  0  0  0  0
   10.8519    1.3530   23.1577 C   0  0  0  0  0  0  0  0  0  0  0  0
   12.2061    2.0637   23.0008 C   0  0  0  0  0  0  0  0  0  0  0  0
   12.1062    3.5265   23.4192 C   0  0  0  0  0  0  0  0  0  0  0  0
   11.0768    4.1928   22.6241 N   0  0  0  0  0  0  0  0  0  0  0  0
    9.7593    3.6073   22.8733 C   0  0  0  0  0  0  0  0  0  0  0  0
    9.7580    2.1465   22.4277 C   0  0  0  0  0  0  0  0  0  0  0  0
   12.0750   -0.9254   23.3226 C   0  0  0  0  0  0  0  0  0  0  0  0
   12.4603   -0.8372   24.6550 C   0  0  0  0  0  0  0  0  0  0  0  0
   13.5069   -1.5986   25.1477 C   0  0  0  0  0  0  0  0  0  0  0  0
   14.1965   -2.4517   24.3141 C   0  0  0  0  0  0  0  0  0  0  0  0
   13.8383   -2.5421   22.9870 C   0  0  0  0  0  0  0  0  0  0  0  0
   12.7871   -1.7853   22.4970 C   0  0  0  0  0  0  0  0  0  0  0  0
  1  2  1  0
  2  3  1  0
  3  4  2  0
  3  5  1  0
  5  6  1  0
  6  7  1  0
  7  8  1  0
  8  9  1  0
  9 10  1  0
  8 11  1  0
 11 12  1  0
 12 13  1  0
 13 14  1  0
 14 15  1  0
 15 16  1  0
 16 17  1  0
 11 18  1  0
 18 19  2  0
 19 20  1  0
 20 21  2  0
 21 22  1  0
 22 23  2  0
 10  5  1  0
 17 12  1  0
 23 18  1  0
M  END
