CVD-0002170|dock_bobby27042020.78|mol2|22|dock3
     RDKit          3D

 25 27  0  0  0  0  0  0  0  0999 V2000
    9.5690    0.2045   22.7984 O   0  0  0  0  0  0  0  0  0  0  0  0
    9.9562   -0.4473   21.8343 C   0  0  0  0  0  0  0  0  0  0  0  0
   11.1421   -1.1444   21.7896 N   0  0  0  0  0  0  0  0  0  0  0  0
   12.1661   -1.2964   22.7588 C   0  0  0  0  0  0  0  0  0  0  0  0
   12.3191   -0.4585   23.8619 C   0  0  0  0  0  0  0  0  0  0  0  0
   13.3479   -0.6753   24.7639 C   0  0  0  0  0  0  0  0  0  0  0  0
   14.2300   -1.7179   24.5839 C   0  0  0  0  0  0  0  0  0  0  0  0
   14.0875   -2.5516   23.4971 C   0  0  0  0  0  0  0  0  0  0  0  0
   13.0633   -2.3450   22.5888 C   0  0  0  0  0  0  0  0  0  0  0  0
    9.2575   -0.5746   20.6558 N   0  0  0  0  0  0  0  0  0  0  0  0
    8.0063   -0.0347   20.2647 C   0  0  0  0  0  0  0  0  0  0  0  0
    7.2117    0.7797   21.0654 C   0  0  0  0  0  0  0  0  0  0  0  0
    6.0044    1.2531   20.5823 C   0  0  0  0  0  0  0  0  0  0  0  0
    5.6049    0.9025   19.2940 C   0  0  0  0  0  0  0  0  0  0  0  0
    4.3922    1.3843   18.8226 N   0  0  0  0  0  0  0  0  0  0  0  0
    3.2699    1.9405   19.4221 C   0  0  0  0  0  0  0  0  0  0  0  0
    2.3976    2.8300   18.7875 C   0  0  0  0  0  0  0  0  0  0  0  0
    1.3127    3.3138   19.4971 C   0  0  0  0  0  0  0  0  0  0  0  0
    1.1076    2.9147   20.8120 C   0  0  0  0  0  0  0  0  0  0  0  0
    2.0272    2.0275   21.3596 C   0  0  0  0  0  0  0  0  0  0  0  0
    3.0804    1.5509   20.6876 N   0  0  0  0  0  0  0  0  0  0  0  0
   -0.0134    3.4011   21.5777 C   0  0  0  0  0  0  0  0  0  0  0  0
   -0.9220    3.7744   22.1609 N   0  0  0  0  0  0  0  0  0  0  0  0
    6.3561    0.1220   18.5136 N   0  0  0  0  0  0  0  0  0  0  0  0
    7.5195   -0.3262   18.9968 C   0  0  0  0  0  0  0  0  0  0  0  0
  1  2  2  0
  2  3  1  0
  3  4  1  0
  4  5  2  0
  5  6  1  0
  6  7  2  0
  7  8  1  0
  8  9  2  0
  2 10  1  0
 10 11  1  0
 11 12  2  0
 12 13  1  0
 13 14  2  0
 14 15  1  0
 15 16  1  0
 16 17  2  0
 17 18  1  0
 18 19  2  0
 19 20  1  0
 20 21  2  0
 19 22  1  0
 22 23  3  0
 14 24  1  0
 24 25  2  0
  9  4  1  0
 25 11  1  0
 21 16  1  0
M  END
