CVD-0002764|dock_bobby27042020.18|mol2|39|dock1
     RDKit          3D

 23 26  0  0  0  0  0  0  0  0999 V2000
    5.7742    0.1093   22.8811 N   0  0  0  0  0  0  0  0  0  0  0  0
    6.0152    0.8609   21.8184 C   0  0  0  0  0  0  0  0  0  0  0  0
    6.6206    1.9330   21.8843 O   0  0  0  0  0  0  0  0  0  0  0  0
    5.5071    0.3311   20.4931 C   0  0  0  0  0  0  0  0  0  0  0  0
    5.6518    1.3822   19.3804 C   0  0  0  0  0  0  0  0  0  0  0  0
    6.3747    0.6784   18.2336 C   0  0  0  0  0  0  0  0  0  0  0  0
    5.5330    0.5224   17.0879 O   0  0  0  0  0  0  0  0  0  0  0  0
    6.7070   -0.5756   18.6455 C   0  0  0  0  0  0  0  0  0  0  0  0
    6.2496   -0.9460   19.9687 C   0  0  0  0  0  0  0  0  0  0  0  0
    7.3186   -1.5012   20.8789 C   0  0  0  0  0  0  0  0  0  0  0  0
    7.1836   -2.6426   21.6109 C   0  0  0  0  0  0  0  0  0  0  0  0
    8.5833   -2.9956   22.5334 S   0  0  0  0  0  0  0  0  0  0  0  0
    9.4029   -1.6044   21.9504 C   0  0  0  0  0  0  0  0  0  0  0  0
    8.5994   -0.9113   21.0788 C   0  0  0  0  0  0  0  0  0  0  0  0
   10.7714   -1.2581   22.3636 C   0  0  0  0  0  0  0  0  0  0  0  0
   11.6371   -2.2431   22.7414 C   0  0  0  0  0  0  0  0  0  0  0  0
   13.1974   -1.6883   23.1971 S   0  0  0  0  0  0  0  0  0  0  0  0
   12.7288   -0.0490   22.8858 C   0  0  0  0  0  0  0  0  0  0  0  0
   13.5462    1.0670   23.0448 C   0  0  0  0  0  0  0  0  0  0  0  0
   13.0474    2.3237   22.7607 C   0  0  0  0  0  0  0  0  0  0  0  0
   11.7497    2.4609   22.3238 C   0  0  0  0  0  0  0  0  0  0  0  0
   10.9319    1.3537   22.1638 C   0  0  0  0  0  0  0  0  0  0  0  0
   11.3917    0.0603   22.4388 C   0  0  0  0  0  0  0  0  0  0  0  0
  1  2  1  0
  2  3  2  0
  4  2  1  0
  4  5  1  0
  5  6  1  0
  6  7  1  0
  6  8  1  0
  8  9  1  0
  9 10  1  0
 10 11  2  0
 11 12  1  0
 12 13  1  0
 13 14  2  0
 13 15  1  0
 15 16  2  0
 16 17  1  0
 17 18  1  0
 18 19  2  0
 19 20  1  0
 20 21  2  0
 21 22  1  0
 22 23  2  0
  9  4  1  0
 14 10  1  0
 23 15  1  0
 23 18  1  0
M  END
