CVD-0004016|dock_bobby27042020.0|mol2|11|dock2
     RDKit          3D

 42 44  0  0  0  0  0  0  0  0999 V2000
    8.8063    6.1840   24.2724 C   0  0  0  0  0  0  0  0  0  0  0  0
   10.1462    6.2004   23.7836 O   0  0  0  0  0  0  0  0  0  0  0  0
   10.7442    5.0454   23.3439 C   0  0  0  0  0  0  0  0  0  0  0  0
   12.1223    4.9649   23.4422 C   0  0  0  0  0  0  0  0  0  0  0  0
   12.7760    3.8239   23.0138 C   0  0  0  0  0  0  0  0  0  0  0  0
   12.0582    2.7649   22.4883 C   0  0  0  0  0  0  0  0  0  0  0  0
   10.6747    2.8381   22.3864 C   0  0  0  0  0  0  0  0  0  0  0  0
    9.9886    1.7254   21.8409 N   0  0  0  0  0  0  0  0  0  0  0  0
    9.1163    0.9498   21.1572 C   0  0  0  0  0  0  0  0  0  0  0  0
    8.1979    1.3724   20.4562 O   0  0  0  0  0  0  0  0  0  0  0  0
    9.3699   -0.5604   21.3296 C   0  0  0  0  0  0  0  0  0  0  0  0
    9.0939   -1.3434   20.4373 O   0  0  0  0  0  0  0  0  0  0  0  0
    9.9779   -1.0222   22.6502 C   0  0  0  0  0  0  0  0  0  0  0  0
   11.4469   -1.4045   22.4647 C   0  0  0  0  0  0  0  0  0  0  0  0
   12.0992   -2.0185   23.7098 C   0  0  0  0  0  0  0  0  0  0  0  0
   12.1800   -1.0757   24.9270 C   0  0  0  0  0  0  0  0  0  0  0  0
   13.5462   -1.3316   25.5500 C   0  0  0  0  0  0  0  0  0  0  0  0
   14.2806   -1.9755   24.4775 N   0  0  0  0  0  0  0  0  0  0  0  0
   13.5296   -2.4251   23.4690 C   0  0  0  0  0  0  0  0  0  0  0  0
   13.9489   -3.0348   22.4887 O   0  0  0  0  0  0  0  0  0  0  0  0
    9.2213   -2.1624   23.1409 N   0  0  0  0  0  0  0  0  0  0  0  0
    8.6613   -2.1629   24.3540 C   0  0  0  0  0  0  0  0  0  0  0  0
    8.7449   -1.2140   25.1290 O   0  0  0  0  0  0  0  0  0  0  0  0
    7.8930   -3.4203   24.7521 C   0  0  0  0  0  0  0  0  0  0  0  0
    6.6377   -3.6292   23.8923 C   0  0  0  0  0  0  0  0  0  0  0  0
    6.3614   -4.9720   23.2059 C   0  0  0  0  0  0  0  0  0  0  0  0
    4.9013   -5.1362   22.8180 C   0  0  0  0  0  0  0  0  0  0  0  0
    7.2469   -5.2137   21.9947 C   0  0  0  0  0  0  0  0  0  0  0  0
    7.5817   -3.4152   26.1720 N   0  0  0  0  0  0  0  0  0  0  0  0
    7.3056   -4.5672   26.8218 C   0  0  0  0  0  0  0  0  0  0  0  0
    7.2388   -5.6343   26.2197 O   0  0  0  0  0  0  0  0  0  0  0  0
    7.1377   -4.3755   28.1726 N   0  0  0  0  0  0  0  0  0  0  0  0
    6.8498   -5.3781   29.1620 C   0  0  0  0  0  0  0  0  0  0  0  0
    5.9657   -5.0693   30.1841 C   0  0  0  0  0  0  0  0  0  0  0  0
    5.3856   -3.8476   30.1559 F   0  0  0  0  0  0  0  0  0  0  0  0
    5.6472   -5.9157   31.2179 C   0  0  0  0  0  0  0  0  0  0  0  0
    6.2351   -7.1637   31.2558 C   0  0  0  0  0  0  0  0  0  0  0  0
    7.1014   -7.5489   30.2426 C   0  0  0  0  0  0  0  0  0  0  0  0
    7.6756   -8.7796   30.2701 O   0  0  0  0  0  0  0  0  0  0  0  0
    7.3706   -6.6733   29.2044 C   0  0  0  0  0  0  0  0  0  0  0  0
    8.1546   -7.1520   28.2228 F   0  0  0  0  0  0  0  0  0  0  0  0
   10.0100    3.9884   22.8177 C   0  0  0  0  0  0  0  0  0  0  0  0
  1  2  1  0
  2  3  1  0
  3  4  2  0
  4  5  1  0
  5  6  2  0
  6  7  1  0
  7  8  1  0
  8  9  1  0
  9 10  2  0
  9 11  1  0
 11 12  2  0
 11 13  1  0
 13 14  1  0
 15 14  1  0
 15 16  1  0
 16 17  1  0
 17 18  1  0
 18 19  1  0
 19 20  2  0
 13 21  1  0
 21 22  1  0
 22 23  2  0
 22 24  1  0
 24 25  1  0
 25 26  1  0
 26 27  1  0
 26 28  1  0
 24 29  1  0
 29 30  1  0
 30 31  2  0
 30 32  1  0
 32 33  1  0
 33 34  2  0
 34 35  1  0
 34 36  1  0
 36 37  2  0
 37 38  1  0
 38 39  1  0
 38 40  2  0
 40 41  1  0
  7 42  2  0
 42  3  1  0
 19 15  1  0
 40 33  1  0
M  END
