CVD-0003569|dock_bobby27042020.30|mol2|29|dock1
     RDKit          3D

 27 29  0  0  0  0  0  0  0  0999 V2000
    4.5975    0.4405   19.1255 Cl  0  0  0  0  0  0  0  0  0  0  0  0
    5.6871   -0.6281   18.2322 C   0  0  0  0  0  0  0  0  0  0  0  0
    5.7071   -2.0145   18.8453 C   0  0  0  0  0  0  0  0  0  0  0  0
    5.2872   -2.9914   18.2379 O   0  0  0  0  0  0  0  0  0  0  0  0
    6.2074   -2.1101   20.0935 N   0  0  0  0  0  0  0  0  0  0  0  0
    6.2977   -3.3797   20.8179 C   0  0  0  0  0  0  0  0  0  0  0  0
    7.7175   -3.6159   21.2986 C   0  0  0  0  0  0  0  0  0  0  0  0
    8.1528   -2.5108   22.1575 N   0  0  0  0  0  0  0  0  0  0  0  0
    9.5135   -2.7539   22.6584 C   0  0  0  0  0  0  0  0  0  0  0  0
    9.9329   -1.7931   23.7453 C   0  0  0  0  0  0  0  0  0  0  0  0
    9.2111   -1.6960   24.9243 C   0  0  0  0  0  0  0  0  0  0  0  0
    9.6038   -0.8148   25.9173 C   0  0  0  0  0  0  0  0  0  0  0  0
   10.7249   -0.0225   25.7368 C   0  0  0  0  0  0  0  0  0  0  0  0
   11.4624   -0.1018   24.5660 C   0  0  0  0  0  0  0  0  0  0  0  0
   12.6879    0.7561   24.3641 C   0  0  0  0  0  0  0  0  0  0  0  0
   12.3785    2.1651   24.1702 N   0  0  0  0  0  0  0  0  0  0  0  0
   13.1193    2.9100   23.3305 C   0  0  0  0  0  0  0  0  0  0  0  0
   14.0349    2.4027   22.6941 O   0  0  0  0  0  0  0  0  0  0  0  0
   12.8640    4.2410   23.1749 N   0  0  0  0  0  0  0  0  0  0  0  0
   13.3224    5.0091   22.0115 C   0  0  0  0  0  0  0  0  0  0  0  0
   13.9363    6.3174   22.4665 C   0  0  0  0  0  0  0  0  0  0  0  0
   13.0436    7.0715   23.2612 O   0  0  0  0  0  0  0  0  0  0  0  0
   12.6714    6.3289   24.4226 C   0  0  0  0  0  0  0  0  0  0  0  0
   11.9912    5.0305   24.0491 C   0  0  0  0  0  0  0  0  0  0  0  0
   11.0556   -0.9920   23.5803 C   0  0  0  0  0  0  0  0  0  0  0  0
    8.1034   -1.2662   21.3946 C   0  0  0  0  0  0  0  0  0  0  0  0
    6.6929   -0.9904   20.9063 C   0  0  0  0  0  0  0  0  0  0  0  0
  1  2  1  0
  2  3  1  0
  3  4  2  0
  3  5  1  0
  5  6  1  0
  6  7  1  0
  7  8  1  0
  8  9  1  0
  9 10  1  0
 10 11  2  0
 11 12  1  0
 12 13  2  0
 13 14  1  0
 14 15  1  0
 15 16  1  0
 16 17  1  0
 17 18  2  0
 17 19  1  0
 19 20  1  0
 20 21  1  0
 21 22  1  0
 22 23  1  0
 23 24  1  0
 14 25  2  0
  8 26  1  0
 26 27  1  0
 27  5  1  0
 25 10  1  0
 24 19  1  0
M  END
