CVD-0002113|dock_bobby27042020.21|mol2|29|dock3
     RDKit          3D

 32 36  0  0  0  0  0  0  0  0999 V2000
   10.9233   -0.4018   25.7255 C   0  0  0  0  0  0  0  0  0  0  0  0
   11.1134    0.1867   24.3352 C   0  0  0  0  0  0  0  0  0  0  0  0
   10.6527   -0.8580   23.2661 C   0  0  0  0  0  0  0  0  0  0  0  0
   11.6553   -2.0180   23.1338 C   0  0  0  0  0  0  0  0  0  0  0  0
   13.0696   -1.4685   22.9547 C   0  0  0  0  0  0  0  0  0  0  0  0
   13.4114   -0.4899   24.0677 C   0  0  0  0  0  0  0  0  0  0  0  0
   12.4732    0.6304   24.0700 N   0  0  0  0  0  0  0  0  0  0  0  0
   12.6450    1.4067   22.8341 C   0  0  0  0  0  0  0  0  0  0  0  0
   12.0848    2.8056   22.9362 C   0  0  0  0  0  0  0  0  0  0  0  0
   10.7688    3.0653   22.5858 C   0  0  0  0  0  0  0  0  0  0  0  0
   10.2514    4.3468   22.6752 C   0  0  0  0  0  0  0  0  0  0  0  0
   11.0447    5.3844   23.1152 C   0  0  0  0  0  0  0  0  0  0  0  0
   12.3553    5.1404   23.4649 C   0  0  0  0  0  0  0  0  0  0  0  0
   12.8724    3.8588   23.3752 C   0  0  0  0  0  0  0  0  0  0  0  0
    9.3631   -1.3554   23.6868 O   0  0  0  0  0  0  0  0  0  0  0  0
    8.6664   -2.2562   22.9224 C   0  0  0  0  0  0  0  0  0  0  0  0
    8.8967   -3.6267   22.9108 C   0  0  0  0  0  0  0  0  0  0  0  0
    8.1362   -4.4493   22.0964 C   0  0  0  0  0  0  0  0  0  0  0  0
    7.1513   -3.9126   21.2958 C   0  0  0  0  0  0  0  0  0  0  0  0
    6.9211   -2.5478   21.3050 C   0  0  0  0  0  0  0  0  0  0  0  0
    7.6716   -1.7014   22.1157 C   0  0  0  0  0  0  0  0  0  0  0  0
    7.4277   -0.2125   22.1265 C   0  0  0  0  0  0  0  0  0  0  0  0
    6.8432    0.2851   20.8900 N   0  0  0  0  0  0  0  0  0  0  0  0
    5.6735    0.9325   20.8399 C   0  0  0  0  0  0  0  0  0  0  0  0
    4.9196    1.1937   21.8925 N   0  0  0  0  0  0  0  0  0  0  0  0
    3.8226    1.8700   21.3655 C   0  0  0  0  0  0  0  0  0  0  0  0
    2.6961    2.3956   21.9971 C   0  0  0  0  0  0  0  0  0  0  0  0
    1.7350    3.0325   21.2264 C   0  0  0  0  0  0  0  0  0  0  0  0
    1.8795    3.1502   19.8575 C   0  0  0  0  0  0  0  0  0  0  0  0
    2.9927    2.6336   19.2137 C   0  0  0  0  0  0  0  0  0  0  0  0
    3.9564    1.9952   19.9851 C   0  0  0  0  0  0  0  0  0  0  0  0
    5.1550    1.3841   19.6736 N   0  0  0  0  0  0  0  0  0  0  0  0
  1  2  1  0
  2  3  1  0
  3  4  1  0
  4  5  1  0
  5  6  1  0
  6  7  1  0
  7  8  1  0
  8  9  1  0
  9 10  2  0
 10 11  1  0
 11 12  2  0
 12 13  1  0
 13 14  2  0
  3 15  1  0
 15 16  1  0
 16 17  2  0
 17 18  1  0
 18 19  2  0
 19 20  1  0
 20 21  2  0
 21 22  1  0
 22 23  1  0
 23 24  1  0
 24 25  2  0
 25 26  1  0
 26 27  2  0
 27 28  1  0
 28 29  2  0
 29 30  1  0
 30 31  2  0
 31 32  1  0
  7  2  1  0
 14  9  1  0
 21 16  1  0
 32 24  1  0
 31 26  1  0
M  END
