CVD-0001009|dock_bobby27042020.25|mol2|22|dock2
     RDKit          3D

 13 14  0  0  0  0  0  0  0  0999 V2000
   11.0007    1.4156   22.8610 C   0  0  0  0  0  0  0  0  0  0  0  0
   11.9966    0.3388   22.7573 N   0  0  0  0  0  0  0  0  0  0  0  0
   11.3490   -0.9115   22.3537 C   0  0  0  0  0  0  0  0  0  0  0  0
   12.3442   -2.0489   22.2988 C   0  0  0  0  0  0  0  0  0  0  0  0
   13.0210   -2.2367   23.5907 N   0  0  0  0  0  0  0  0  0  0  0  0
   13.6402   -0.9733   24.0238 C   0  0  0  0  0  0  0  0  0  0  0  0
   12.6348    0.1476   24.0570 C   0  0  0  0  0  0  0  0  0  0  0  0
   11.6105    2.7960   22.8124 C   0  0  0  0  0  0  0  0  0  0  0  0
   10.8399    3.9199   23.0667 C   0  0  0  0  0  0  0  0  0  0  0  0
   11.3999    5.1859   23.0253 C   0  0  0  0  0  0  0  0  0  0  0  0
   12.7372    5.3419   22.7298 C   0  0  0  0  0  0  0  0  0  0  0  0
   13.5146    4.2323   22.4762 C   0  0  0  0  0  0  0  0  0  0  0  0
   12.9543    2.9664   22.5177 C   0  0  0  0  0  0  0  0  0  0  0  0
  1  2  1  0
  2  3  1  0
  3  4  1  0
  4  5  1  0
  5  6  1  0
  6  7  1  0
  1  8  1  0
  8  9  2  0
  9 10  1  0
 10 11  2  0
 11 12  1  0
 12 13  2  0
  7  2  1  0
 13  8  1  0
M  END
