CVD-0002866|dock_bobby27042020.18|mol2|24|dock1
     RDKit          3D

 18 19  0  0  0  0  0  0  0  0999 V2000
   13.8442   -1.7923   20.7638 N   0  0  0  0  0  0  0  0  0  0  0  0
   13.4182   -1.1030   21.9824 C   0  0  0  0  0  0  0  0  0  0  0  0
   12.3184   -1.8533   22.7131 C   0  0  0  0  0  0  0  0  0  0  0  0
   11.0389   -1.0540   22.7667 C   0  0  0  0  0  0  0  0  0  0  0  0
   10.6518   -0.5257   23.8045 O   0  0  0  0  0  0  0  0  0  0  0  0
   10.3652   -0.9635   21.6233 N   0  0  0  0  0  0  0  0  0  0  0  0
    9.1123   -0.2319   21.5020 C   0  0  0  0  0  0  0  0  0  0  0  0
    7.9248   -1.1636   21.3627 C   0  0  0  0  0  0  0  0  0  0  0  0
    6.6183   -0.4347   21.2461 C   0  0  0  0  0  0  0  0  0  0  0  0
    5.6254   -0.3588   22.1779 C   0  0  0  0  0  0  0  0  0  0  0  0
    4.5872    0.3975   21.7066 N   0  0  0  0  0  0  0  0  0  0  0  0
    4.8935    0.8324   20.4403 C   0  0  0  0  0  0  0  0  0  0  0  0
    4.1773    1.6204   19.5464 C   0  0  0  0  0  0  0  0  0  0  0  0
    4.7341    1.9106   18.3130 C   0  0  0  0  0  0  0  0  0  0  0  0
    5.9743    1.4105   18.0145 C   0  0  0  0  0  0  0  0  0  0  0  0
    6.5098    1.7034   16.7988 F   0  0  0  0  0  0  0  0  0  0  0  0
    6.7132    0.6286   18.8703 C   0  0  0  0  0  0  0  0  0  0  0  0
    6.1667    0.3270   20.1168 C   0  0  0  0  0  0  0  0  0  0  0  0
  1  2  1  0
  2  3  1  0
  3  4  1  0
  4  5  2  0
  4  6  1  0
  6  7  1  0
  7  8  1  0
  8  9  1  0
  9 10  2  0
 10 11  1  0
 11 12  1  0
 12 13  2  0
 13 14  1  0
 14 15  2  0
 15 16  1  0
 15 17  1  0
 17 18  2  0
 18  9  1  0
 18 12  1  0
M  END
