CVD-0001385|dock_bobby27042020.95|mol2|29|dock2
     RDKit          3D

 13 14  0  0  0  0  0  0  0  0999 V2000
   13.6878   -1.8750   20.8156 C   0  0  0  0  0  0  0  0  0  0  0  0
   13.8377   -1.7743   22.2907 C   0  0  0  0  0  0  0  0  0  0  0  0
   14.6118   -2.5898   22.9962 N   0  0  0  0  0  0  0  0  0  0  0  0
   14.4693   -2.2130   24.3097 C   0  0  0  0  0  0  0  0  0  0  0  0
   13.6203   -1.1687   24.4159 C   0  0  0  0  0  0  0  0  0  0  0  0
   13.2167   -0.8623   23.1227 N   0  0  0  0  0  0  0  0  0  0  0  0
   12.2949    0.2081   22.8199 C   0  0  0  0  0  0  0  0  0  0  0  0
   12.7865    1.5044   22.8727 C   0  0  0  0  0  0  0  0  0  0  0  0
   12.0312    2.5890   22.6770 N   0  0  0  0  0  0  0  0  0  0  0  0
   10.7378    2.3924   22.4305 C   0  0  0  0  0  0  0  0  0  0  0  0
   10.1693    1.1417   22.3138 C   0  0  0  0  0  0  0  0  0  0  0  0
   10.9574    0.0048   22.4714 C   0  0  0  0  0  0  0  0  0  0  0  0
   10.3337   -1.3450   22.2335 C   0  0  0  0  0  0  0  0  0  0  0  0
  1  2  1  0
  2  3  2  0
  3  4  1  0
  4  5  2  0
  5  6  1  0
  6  7  1  0
  7  8  2  0
  8  9  1  0
  9 10  2  0
 10 11  1  0
 11 12  2  0
 12 13  1  0
  6  2  1  0
 12  7  1  0
M  END
