CVD-0000525|dock_bobby27042020.41|mol2|15|dock3
     RDKit          3D

 21 22  0  0  0  0  0  0  0  0999 V2000
   13.6963   -1.8879   20.8604 N   0  0  0  0  0  0  0  0  0  0  0  0
   13.5093   -1.6284   22.4291 S   0  0  0  0  0  0  0  0  0  0  0  0
   14.5180   -0.6929   22.8268 O   0  0  0  0  0  0  0  0  0  0  0  0
   13.4636   -2.9094   23.0678 O   0  0  0  0  0  0  0  0  0  0  0  0
   11.9413   -0.8545   22.6856 C   0  0  0  0  0  0  0  0  0  0  0  0
   11.8702    0.5189   22.8502 C   0  0  0  0  0  0  0  0  0  0  0  0
   10.6332    1.1061   23.0555 C   0  0  0  0  0  0  0  0  0  0  0  0
    9.4879    0.3284   23.0957 C   0  0  0  0  0  0  0  0  0  0  0  0
    9.5561   -1.0463   22.9320 C   0  0  0  0  0  0  0  0  0  0  0  0
    8.3087   -1.8952   22.9800 C   0  0  0  0  0  0  0  0  0  0  0  0
    7.9650   -2.5122   21.6264 C   0  0  0  0  0  0  0  0  0  0  0  0
    7.7536   -1.4719   20.5536 C   0  0  0  0  0  0  0  0  0  0  0  0
    8.6706   -1.1387   19.8106 O   0  0  0  0  0  0  0  0  0  0  0  0
    6.4911   -0.9805   20.5183 N   0  0  0  0  0  0  0  0  0  0  0  0
    5.8867   -0.0093   19.6818 C   0  0  0  0  0  0  0  0  0  0  0  0
    4.7468    0.6465   20.1286 C   0  0  0  0  0  0  0  0  0  0  0  0
    4.1440    1.5976   19.3245 C   0  0  0  0  0  0  0  0  0  0  0  0
    4.6983    1.8666   18.0947 C   0  0  0  0  0  0  0  0  0  0  0  0
    5.7907    1.2550   17.6372 N   0  0  0  0  0  0  0  0  0  0  0  0
    6.3664    0.3377   18.4208 C   0  0  0  0  0  0  0  0  0  0  0  0
   10.7969   -1.6361   22.7274 C   0  0  0  0  0  0  0  0  0  0  0  0
  1  2  1  0
  2  3  2  0
  2  4  2  0
  2  5  1  0
  5  6  2  0
  6  7  1  0
  7  8  2  0
  8  9  1  0
  9 10  1  0
 10 11  1  0
 11 12  1  0
 12 13  2  0
 12 14  1  0
 14 15  1  0
 15 16  2  0
 16 17  1  0
 17 18  2  0
 18 19  1  0
 19 20  2  0
  9 21  2  0
 21  5  1  0
 20 15  1  0
M  END
