CVD-0003030|dock_bobby27042020.46|mol2|32|dock3
     RDKit          3D

 24 26  0  0  0  0  0  0  0  0999 V2000
   14.1371   -1.9787   20.4433 C   0  0  0  0  0  0  0  0  0  0  0  0
   13.2304   -1.1826   21.2616 N   0  0  0  0  0  0  0  0  0  0  0  0
   13.4832   -0.6370   22.4601 C   0  0  0  0  0  0  0  0  0  0  0  0
   12.3662    0.0439   22.8449 C   0  0  0  0  0  0  0  0  0  0  0  0
   12.1907    0.8166   24.1250 C   0  0  0  0  0  0  0  0  0  0  0  0
   12.7681    2.2246   24.0915 C   0  0  0  0  0  0  0  0  0  0  0  0
   11.9247    3.2065   23.2887 C   0  0  0  0  0  0  0  0  0  0  0  0
   12.4921    4.6049   23.2516 C   0  0  0  0  0  0  0  0  0  0  0  0
   13.2057    5.0522   22.1503 C   0  0  0  0  0  0  0  0  0  0  0  0
   13.7238    6.3361   22.1144 C   0  0  0  0  0  0  0  0  0  0  0  0
   13.5336    7.1893   23.1798 C   0  0  0  0  0  0  0  0  0  0  0  0
   12.8250    6.7584   24.2806 C   0  0  0  0  0  0  0  0  0  0  0  0
   12.3073    5.4743   24.3156 C   0  0  0  0  0  0  0  0  0  0  0  0
   11.4426   -0.1457   21.7468 C   0  0  0  0  0  0  0  0  0  0  0  0
   11.9893   -0.8950   20.7841 N   0  0  0  0  0  0  0  0  0  0  0  0
   10.0622    0.3731   21.6038 C   0  0  0  0  0  0  0  0  0  0  0  0
    9.5697    1.1286   22.4404 O   0  0  0  0  0  0  0  0  0  0  0  0
    9.4101   -0.0371   20.5169 N   0  0  0  0  0  0  0  0  0  0  0  0
    8.0445    0.3778   20.2224 C   0  0  0  0  0  0  0  0  0  0  0  0
    7.5843   -0.0740   18.8576 C   0  0  0  0  0  0  0  0  0  0  0  0
    6.1908    0.4290   18.5045 C   0  0  0  0  0  0  0  0  0  0  0  0
    5.4670   -0.7713   18.1165 C   0  0  0  0  0  0  0  0  0  0  0  0
    6.2220   -1.9153   18.4848 C   0  0  0  0  0  0  0  0  0  0  0  0
    7.5152   -1.5152   18.8255 O   0  0  0  0  0  0  0  0  0  0  0  0
  1  2  1  0
  2  3  1  0
  3  4  2  0
  4  5  1  0
  5  6  1  0
  6  7  1  0
  7  8  1  0
  8  9  2  0
  9 10  1  0
 10 11  2  0
 11 12  1  0
 12 13  2  0
  4 14  1  0
 14 15  2  0
 14 16  1  0
 16 17  2  0
 16 18  1  0
 18 19  1  0
 20 19  1  0
 20 21  1  0
 21 22  1  0
 22 23  1  0
 23 24  1  0
 15  2  1  0
 24 20  1  0
 13  8  1  0
M  END
