CVD-0002583|dock_bobby27042020.5|mol2|13|dock1
     RDKit          3D

 37 40  0  0  0  0  0  0  0  0999 V2000
    9.4664   -5.6355   27.2108 C   0  0  0  0  0  0  0  0  0  0  0  0
    9.7210   -5.1040   25.8693 N   0  0  0  0  0  0  0  0  0  0  0  0
    8.5146   -4.8837   25.0645 C   0  0  0  0  0  0  0  0  0  0  0  0
    8.7520   -3.8776   23.9691 C   0  0  0  0  0  0  0  0  0  0  0  0
    7.7689   -3.3819   23.0944 C   0  0  0  0  0  0  0  0  0  0  0  0
    8.3284   -2.4606   22.2297 C   0  0  0  0  0  0  0  0  0  0  0  0
    7.5981   -1.7203   21.1731 C   0  0  0  0  0  0  0  0  0  0  0  0
    8.2967   -1.4357   19.9985 C   0  0  0  0  0  0  0  0  0  0  0  0
    7.7079   -0.7084   18.9778 C   0  0  0  0  0  0  0  0  0  0  0  0
    6.4133   -0.2554   19.1019 C   0  0  0  0  0  0  0  0  0  0  0  0
    5.6835   -0.5514   20.2392 C   0  0  0  0  0  0  0  0  0  0  0  0
    6.2788   -1.2950   21.2305 C   0  0  0  0  0  0  0  0  0  0  0  0
    5.5124   -1.6255   22.2919 F   0  0  0  0  0  0  0  0  0  0  0  0
    9.7100   -2.3979   22.5635 N   0  0  0  0  0  0  0  0  0  0  0  0
    9.9457   -3.2575   23.6298 C   0  0  0  0  0  0  0  0  0  0  0  0
   11.0159   -1.5250   21.9203 S   0  0  0  0  0  0  0  0  0  0  0  0
   10.4866   -0.2331   21.6108 O   0  0  0  0  0  0  0  0  0  0  0  0
   11.5918   -2.3151   20.8768 O   0  0  0  0  0  0  0  0  0  0  0  0
   12.2133   -1.2904   23.2147 C   0  0  0  0  0  0  0  0  0  0  0  0
   13.1089   -2.3193   23.4657 C   0  0  0  0  0  0  0  0  0  0  0  0
   14.0443   -2.1526   24.4720 C   0  0  0  0  0  0  0  0  0  0  0  0
   14.0467   -0.9745   25.1814 C   0  0  0  0  0  0  0  0  0  0  0  0
   13.1942    0.0320   24.9530 N   0  0  0  0  0  0  0  0  0  0  0  0
   12.3063   -0.1217   23.9859 C   0  0  0  0  0  0  0  0  0  0  0  0
   11.4004    0.9034   23.6954 O   0  0  0  0  0  0  0  0  0  0  0  0
   11.7833    2.0320   23.0343 C   0  0  0  0  0  0  0  0  0  0  0  0
   12.8965    2.2602   22.5889 O   0  0  0  0  0  0  0  0  0  0  0  0
   10.6638    3.0136   22.8880 C   0  0  0  0  0  0  0  0  0  0  0  0
   10.8974    4.3847   22.8814 C   0  0  0  0  0  0  0  0  0  0  0  0
    9.8532    5.2829   22.7487 C   0  0  0  0  0  0  0  0  0  0  0  0
    8.5584    4.8092   22.6166 C   0  0  0  0  0  0  0  0  0  0  0  0
    8.3040    3.4477   22.6197 C   0  0  0  0  0  0  0  0  0  0  0  0
    9.3564    2.5598   22.7544 C   0  0  0  0  0  0  0  0  0  0  0  0
    7.2195    5.9509   22.4532 S   0  0  0  0  0  0  0  0  0  0  0  0
    7.2328    6.5387   20.9641 N   0  0  0  0  0  0  0  0  0  0  0  0
    7.4783    7.0435   23.3421 O   0  0  0  0  0  0  0  0  0  0  0  0
    6.0038    5.2090   22.6047 O   0  0  0  0  0  0  0  0  0  0  0  0
  1  2  1  0
  2  3  1  0
  3  4  1  0
  4  5  1  0
  5  6  2  0
  6  7  1  0
  7  8  2  0
  8  9  1  0
  9 10  2  0
 10 11  1  0
 11 12  2  0
 12 13  1  0
  6 14  1  0
 14 15  1  0
 14 16  1  0
 16 17  2  0
 16 18  2  0
 16 19  1  0
 19 20  2  0
 20 21  1  0
 21 22  2  0
 22 23  1  0
 23 24  2  0
 24 25  1  0
 25 26  1  0
 26 27  2  0
 26 28  1  0
 28 29  2  0
 29 30  1  0
 30 31  2  0
 31 32  1  0
 32 33  2  0
 31 34  1  0
 34 35  1  0
 34 36  2  0
 34 37  2  0
 15  4  2  0
 24 19  1  0
 33 28  1  0
 12  7  1  0
M  END
