CVD-0000774|dock_bobby27042020.83|mol2|22|dock1
     RDKit          3D

 30 33  0  0  0  0  0  0  0  0999 V2000
   13.0265   -2.1960   22.6106 C   0  0  0  0  0  0  0  0  0  0  0  0
   11.8066   -1.7330   22.0340 O   0  0  0  0  0  0  0  0  0  0  0  0
   11.4026   -0.4267   22.1697 C   0  0  0  0  0  0  0  0  0  0  0  0
   10.0525   -0.0964   22.1036 C   0  0  0  0  0  0  0  0  0  0  0  0
    9.6206    1.1992   22.2357 C   0  0  0  0  0  0  0  0  0  0  0  0
    8.1101    1.4471   22.1424 C   0  0  0  0  0  0  0  0  0  0  0  0
    7.5104    1.5159   23.5074 C   0  0  0  0  0  0  0  0  0  0  0  0
    7.5566    0.1949   24.1819 N   0  0  0  0  0  0  0  0  0  0  0  0
    7.0753   -0.9772   23.4232 C   0  0  0  0  0  0  0  0  0  0  0  0
    6.8841   -0.7431   21.9216 C   0  0  0  0  0  0  0  0  0  0  0  0
    6.2274   -1.6959   21.1490 C   0  0  0  0  0  0  0  0  0  0  0  0
    6.0664   -1.5223   19.7863 C   0  0  0  0  0  0  0  0  0  0  0  0
    6.5626   -0.3895   19.1813 C   0  0  0  0  0  0  0  0  0  0  0  0
    7.2169    0.5631   19.9428 C   0  0  0  0  0  0  0  0  0  0  0  0
    7.3907    0.4086   21.3190 C   0  0  0  0  0  0  0  0  0  0  0  0
    8.0389   -0.0015   25.4332 C   0  0  0  0  0  0  0  0  0  0  0  0
    8.4730    0.9251   26.1063 O   0  0  0  0  0  0  0  0  0  0  0  0
    8.0265   -1.4060   26.0063 C   0  0  0  0  0  0  0  0  0  0  0  0
    9.4045   -2.3355   25.4028 Cl  0  0  0  0  0  0  0  0  0  0  0  0
   10.5636    2.2536   22.4510 C   0  0  0  0  0  0  0  0  0  0  0  0
   10.2230    3.6245   22.6054 C   0  0  0  0  0  0  0  0  0  0  0  0
   11.1730    4.5797   22.8036 C   0  0  0  0  0  0  0  0  0  0  0  0
   12.5110    4.2273   22.8636 C   0  0  0  0  0  0  0  0  0  0  0  0
   12.9028    2.9296   22.7241 C   0  0  0  0  0  0  0  0  0  0  0  0
   11.9447    1.9107   22.5160 C   0  0  0  0  0  0  0  0  0  0  0  0
   12.3300    0.5588   22.3712 C   0  0  0  0  0  0  0  0  0  0  0  0
   13.7307    5.4812   23.1147 S   0  0  0  0  0  0  0  0  0  0  0  0
   14.0032    6.2111   21.7161 N   0  0  0  0  0  0  0  0  0  0  0  0
   14.9461    4.8256   23.4941 O   0  0  0  0  0  0  0  0  0  0  0  0
   13.1658    6.4565   23.9984 O   0  0  0  0  0  0  0  0  0  0  0  0
  1  2  1  0
  2  3  1  0
  3  4  2  0
  4  5  1  0
  6  5  1  0
  6  7  1  0
  7  8  1  0
  8  9  1  0
  9 10  1  0
 10 11  2  0
 11 12  1  0
 12 13  2  0
 13 14  1  0
 14 15  2  0
  8 16  1  0
 16 17  2  0
 16 18  1  0
 18 19  1  0
  5 20  2  0
 20 21  1  0
 21 22  2  0
 22 23  1  0
 23 24  2  0
 24 25  1  0
 25 26  2  0
 23 27  1  0
 27 28  1  0
 27 29  2  0
 27 30  2  0
 26  3  1  0
 15  6  1  0
 25 20  1  0
 15 10  1  0
M  END
