CVD-0003155|dock_bobby27042020.3|mol2|7|dock1
     RDKit          3D

 26 28  0  0  0  0  0  0  0  0999 V2000
   13.5977    4.7599   22.4866 C   0  0  0  0  0  0  0  0  0  0  0  0
   12.4053    5.3442   23.0962 N   0  0  0  0  0  0  0  0  0  0  0  0
   12.6620    6.5945   23.8057 C   0  0  0  0  0  0  0  0  0  0  0  0
   11.1572    4.8196   23.0940 C   0  0  0  0  0  0  0  0  0  0  0  0
   10.2732    5.4592   23.6616 O   0  0  0  0  0  0  0  0  0  0  0  0
   10.7875    3.5229   22.4690 C   0  0  0  0  0  0  0  0  0  0  0  0
    9.7347    2.7698   22.7809 C   0  0  0  0  0  0  0  0  0  0  0  0
    9.4933    1.4971   22.0622 C   0  0  0  0  0  0  0  0  0  0  0  0
    9.6835    1.4295   20.8488 O   0  0  0  0  0  0  0  0  0  0  0  0
    9.0607    0.3972   22.7263 N   0  0  0  0  0  0  0  0  0  0  0  0
    8.8115   -0.8903   22.0321 C   0  0  0  0  0  0  0  0  0  0  0  0
    9.4631   -2.0168   22.7599 C   0  0  0  0  0  0  0  0  0  0  0  0
   10.9768   -1.8956   22.6729 C   0  0  0  0  0  0  0  0  0  0  0  0
   11.6418   -2.1925   21.4916 C   0  0  0  0  0  0  0  0  0  0  0  0
   13.0199   -2.0858   21.4085 C   0  0  0  0  0  0  0  0  0  0  0  0
   13.7548   -1.6801   22.5095 C   0  0  0  0  0  0  0  0  0  0  0  0
   13.0888   -1.3879   23.6794 C   0  0  0  0  0  0  0  0  0  0  0  0
   13.9994   -0.8766   25.0729 Cl  0  0  0  0  0  0  0  0  0  0  0  0
   11.7159   -1.4904   23.7744 C   0  0  0  0  0  0  0  0  0  0  0  0
    8.9516   -2.0944   24.1756 C   0  0  0  0  0  0  0  0  0  0  0  0
    8.7794   -3.3059   24.8470 C   0  0  0  0  0  0  0  0  0  0  0  0
    8.3084   -3.3612   26.1462 C   0  0  0  0  0  0  0  0  0  0  0  0
    7.9964   -2.1930   26.8077 C   0  0  0  0  0  0  0  0  0  0  0  0
    8.1588   -0.9803   26.1629 C   0  0  0  0  0  0  0  0  0  0  0  0
    8.6327   -0.9258   24.8562 C   0  0  0  0  0  0  0  0  0  0  0  0
    8.8824    0.4292   24.1900 C   0  0  0  0  0  0  0  0  0  0  0  0
  1  2  1  0
  2  3  1  0
  2  4  1  0
  4  5  2  0
  4  6  1  0
  6  7  2  0
  7  8  1  0
  8  9  2  0
  8 10  1  0
 10 11  1  0
 11 12  1  0
 12 13  1  0
 13 14  2  0
 14 15  1  0
 15 16  2  0
 16 17  1  0
 17 18  1  0
 17 19  2  0
 12 20  1  0
 20 21  2  0
 21 22  1  0
 22 23  2  0
 23 24  1  0
 24 25  2  0
 25 26  1  0
 26 10  1  0
 19 13  1  0
 25 20  1  0
M  END
