CVD-0003786|dock_bobby27042020.29|mol2|40|dock2
     RDKit          3D

 20 21  0  0  0  0  0  0  0  0999 V2000
    9.3878   -5.5013   27.1556 C   0  0  0  0  0  0  0  0  0  0  0  0
    9.9079   -5.5534   25.7655 C   0  0  0  0  0  0  0  0  0  0  0  0
    9.8255   -4.3197   25.0590 O   0  0  0  0  0  0  0  0  0  0  0  0
    8.6296   -3.9874   24.3580 C   0  0  0  0  0  0  0  0  0  0  0  0
    8.7284   -2.6684   23.6195 C   0  0  0  0  0  0  0  0  0  0  0  0
    8.6683   -1.4760   24.5807 C   0  0  0  0  0  0  0  0  0  0  0  0
    8.7645   -0.1760   23.8337 C   0  0  0  0  0  0  0  0  0  0  0  0
    9.9731   -0.1033   23.0074 N   0  0  0  0  0  0  0  0  0  0  0  0
   10.0996   -1.2379   22.0633 C   0  0  0  0  0  0  0  0  0  0  0  0
    9.9842   -2.5598   22.7919 C   0  0  0  0  0  0  0  0  0  0  0  0
   10.7930    1.0163   22.9684 C   0  0  0  0  0  0  0  0  0  0  0  0
   12.1776    0.8905   23.0277 C   0  0  0  0  0  0  0  0  0  0  0  0
   12.9997    2.0026   22.9868 C   0  0  0  0  0  0  0  0  0  0  0  0
   12.4401    3.2640   22.8883 C   0  0  0  0  0  0  0  0  0  0  0  0
   11.0659    3.4142   22.8316 C   0  0  0  0  0  0  0  0  0  0  0  0
   10.2531    2.2952   22.8687 C   0  0  0  0  0  0  0  0  0  0  0  0
   13.4839    4.6893   22.8448 S   0  0  0  0  0  0  0  0  0  0  0  0
   13.1800    5.4997   21.4979 N   0  0  0  0  0  0  0  0  0  0  0  0
   13.1047    5.5306   23.9400 O   0  0  0  0  0  0  0  0  0  0  0  0
   14.8368    4.2264   22.7643 O   0  0  0  0  0  0  0  0  0  0  0  0
  1  2  1  0
  2  3  1  0
  3  4  1  0
  4  5  1  0
  5  6  1  0
  6  7  1  0
  7  8  1  0
  8  9  1  0
  9 10  1  0
  8 11  1  0
 11 12  2  0
 12 13  1  0
 13 14  2  0
 14 15  1  0
 15 16  2  0
 14 17  1  0
 17 18  1  0
 17 19  2  0
 17 20  2  0
 10  5  1  0
 16 11  1  0
M  END
