CVD-0000155|dock_bobby27042020.71|mol2|17|dock3
     RDKit          3D

 12 12  0  0  0  0  0  0  0  0999 V2000
    9.1631   -2.2325   21.7727 C   0  0  0  0  0  0  0  0  0  0  0  0
   10.4310   -2.1652   22.5724 C   0  0  0  0  0  0  0  0  0  0  0  0
   10.4387   -2.3115   23.7907 O   0  0  0  0  0  0  0  0  0  0  0  0
   11.5475   -1.9205   21.8839 N   0  0  0  0  0  0  0  0  0  0  0  0
   12.8528   -1.8085   22.5189 C   0  0  0  0  0  0  0  0  0  0  0  0
   12.8735   -0.7255   23.5825 C   0  0  0  0  0  0  0  0  0  0  0  0
   12.6527    0.6554   23.0142 C   0  0  0  0  0  0  0  0  0  0  0  0
   11.3712    1.1564   22.8439 C   0  0  0  0  0  0  0  0  0  0  0  0
   11.1680    2.4219   22.3195 C   0  0  0  0  0  0  0  0  0  0  0  0
   12.2448    3.2023   21.9577 C   0  0  0  0  0  0  0  0  0  0  0  0
   13.5243    2.7166   22.1201 C   0  0  0  0  0  0  0  0  0  0  0  0
   13.7264    1.4509   22.6446 C   0  0  0  0  0  0  0  0  0  0  0  0
  1  2  1  0
  2  3  2  0
  2  4  1  0
  4  5  1  0
  5  6  1  0
  6  7  1  0
  7  8  2  0
  8  9  1  0
  9 10  2  0
 10 11  1  0
 11 12  2  0
 12  7  1  0
M  END
