CVD-0003973|dock_bobby27042020.15|mol2|2|dock3
     RDKit          3D

 21 21  0  0  0  0  0  0  0  0999 V2000
   14.2706   -2.3970   25.8266 C   0  0  0  0  0  0  0  0  0  0  0  0
   14.0779   -1.6099   24.5633 C   0  0  0  0  0  0  0  0  0  0  0  0
   14.6108   -0.5436   24.3579 O   0  0  0  0  0  0  0  0  0  0  0  0
   13.0575   -2.3024   23.3223 S   0  0  0  0  0  0  0  0  0  0  0  0
   12.2921   -3.3466   23.9402 O   0  0  0  0  0  0  0  0  0  0  0  0
   13.9091   -2.6327   22.2167 O   0  0  0  0  0  0  0  0  0  0  0  0
   11.9793   -0.9690   22.8992 C   0  0  0  0  0  0  0  0  0  0  0  0
   10.9372   -1.3320   21.8533 C   0  0  0  0  0  0  0  0  0  0  0  0
    9.8028   -2.1580   22.4146 C   0  0  0  0  0  0  0  0  0  0  0  0
    9.9059   -2.7216   23.4995 O   0  0  0  0  0  0  0  0  0  0  0  0
    8.6575   -2.2686   21.6698 N   0  0  0  0  0  0  0  0  0  0  0  0
    7.4695   -2.9277   21.8844 C   0  0  0  0  0  0  0  0  0  0  0  0
    7.2311   -3.5915   22.8906 O   0  0  0  0  0  0  0  0  0  0  0  0
    6.4362   -2.7698   20.7523 C   0  0  0  0  0  0  0  0  0  0  0  0
    5.8287   -3.7907   20.4487 O   0  0  0  0  0  0  0  0  0  0  0  0
    6.1287   -1.5047   20.0182 C   0  0  0  0  0  0  0  0  0  0  0  0
    5.7467   -1.6089   18.6834 C   0  0  0  0  0  0  0  0  0  0  0  0
    5.4477   -0.4849   17.9324 C   0  0  0  0  0  0  0  0  0  0  0  0
    5.5239    0.7671   18.4995 C   0  0  0  0  0  0  0  0  0  0  0  0
    5.8978    0.8930   19.8189 C   0  0  0  0  0  0  0  0  0  0  0  0
    6.1968   -0.2276   20.5763 C   0  0  0  0  0  0  0  0  0  0  0  0
  1  2  1  0
  2  3  2  0
  2  4  1  0
  4  5  2  0
  4  6  2  0
  4  7  1  0
  7  8  1  0
  8  9  1  0
  9 10  2  0
  9 11  1  0
 11 12  1  0
 12 13  2  0
 12 14  1  0
 14 15  2  0
 14 16  1  0
 16 17  2  0
 17 18  1  0
 18 19  2  0
 19 20  1  0
 20 21  2  0
 21 16  1  0
M  END
