CVD-0000022|dock_bobby27042020.57|mol2|30|dock3
     RDKit          3D

 33 35  0  0  0  0  0  0  0  0999 V2000
    7.5749   -0.6155   25.3445 C   0  0  0  0  0  0  0  0  0  0  0  0
    6.9075   -1.1161   24.1384 N   0  0  0  0  0  0  0  0  0  0  0  0
    6.3113   -0.2183   23.2756 C   0  0  0  0  0  0  0  0  0  0  0  0
    6.4220    0.9882   23.4462 O   0  0  0  0  0  0  0  0  0  0  0  0
    5.5571   -0.6787   22.2233 N   0  0  0  0  0  0  0  0  0  0  0  0
    4.9919    0.1894   21.2318 C   0  0  0  0  0  0  0  0  0  0  0  0
    5.4102    0.2050   19.8877 C   0  0  0  0  0  0  0  0  0  0  0  0
    6.3646   -0.8315   19.3095 C   0  0  0  0  0  0  0  0  0  0  0  0
    7.8247   -0.4125   19.2652 C   0  0  0  0  0  0  0  0  0  0  0  0
    8.4526   -0.5026   20.5759 N   0  0  0  0  0  0  0  0  0  0  0  0
    9.0726    0.5231   21.1534 C   0  0  0  0  0  0  0  0  0  0  0  0
    9.1702    1.6311   20.6354 O   0  0  0  0  0  0  0  0  0  0  0  0
    9.6585    0.2411   22.5264 C   0  0  0  0  0  0  0  0  0  0  0  0
   11.1120    0.0668   22.5265 N   0  0  0  0  0  0  0  0  0  0  0  0
   11.4600   -1.2773   22.0599 C   0  0  0  0  0  0  0  0  0  0  0  0
   12.9547   -1.5023   22.1086 C   0  0  0  0  0  0  0  0  0  0  0  0
   13.4877   -1.2954   23.4633 N   0  0  0  0  0  0  0  0  0  0  0  0
   13.1075    0.0385   23.9565 C   0  0  0  0  0  0  0  0  0  0  0  0
   11.6174    0.2458   23.8852 C   0  0  0  0  0  0  0  0  0  0  0  0
    4.8888    1.2192   19.0681 C   0  0  0  0  0  0  0  0  0  0  0  0
    5.3245    1.4478   17.6439 C   0  0  0  0  0  0  0  0  0  0  0  0
    3.9133    2.0518   19.6013 C   0  0  0  0  0  0  0  0  0  0  0  0
    3.4165    1.9698   20.8386 N   0  0  0  0  0  0  0  0  0  0  0  0
    3.9652    1.0530   21.6564 C   0  0  0  0  0  0  0  0  0  0  0  0
    3.4673    0.9826   23.0064 C   0  0  0  0  0  0  0  0  0  0  0  0
    3.0172    0.9330   24.0937 C   0  0  0  0  0  0  0  0  0  0  0  0
    6.9851   -2.5403   23.9772 C   0  0  0  0  0  0  0  0  0  0  0  0
    6.8853   -3.4486   25.0312 C   0  0  0  0  0  0  0  0  0  0  0  0
    6.9358   -4.8100   24.7706 C   0  0  0  0  0  0  0  0  0  0  0  0
    6.8102   -5.8179   25.8870 C   0  0  0  0  0  0  0  0  0  0  0  0
    7.0999   -5.2169   23.4583 C   0  0  0  0  0  0  0  0  0  0  0  0
    7.2122   -4.2586   22.4746 C   0  0  0  0  0  0  0  0  0  0  0  0
    7.1634   -2.9434   22.7155 N   0  0  0  0  0  0  0  0  0  0  0  0
  1  2  1  0
  2  3  1  0
  3  4  2  0
  3  5  1  0
  5  6  1  0
  6  7  1  0
  7  8  1  0
  8  9  1  0
  9 10  1  0
 10 11  1  0
 11 12  2  0
 11 13  1  0
 13 14  1  0
 14 15  1  0
 15 16  1  0
 16 17  1  0
 17 18  1  0
 18 19  1  0
  7 20  2  0
 20 21  1  0
 20 22  1  0
 22 23  2  0
 23 24  1  0
 24 25  1  0
 25 26  3  0
  2 27  1  0
 27 28  2  0
 28 29  1  0
 29 30  1  0
 29 31  2  0
 31 32  1  0
 32 33  2  0
 24  6  2  0
 33 27  1  0
 19 14  1  0
M  END
