CVD-0003901|dock_bobby27042020.72|mol2|23|dock2
     RDKit          3D

 24 26  0  0  0  0  0  0  0  0999 V2000
    9.5288    3.1306   22.7623 C   0  0  0  0  0  0  0  0  0  0  0  0
   10.9292    2.5689   22.7260 C   0  0  0  0  0  0  0  0  0  0  0  0
   12.0017    3.3612   22.3459 C   0  0  0  0  0  0  0  0  0  0  0  0
   13.2611    2.8155   22.3289 C   0  0  0  0  0  0  0  0  0  0  0  0
   14.3040    3.6042   21.9536 F   0  0  0  0  0  0  0  0  0  0  0  0
   13.5182    1.5120   22.6728 C   0  0  0  0  0  0  0  0  0  0  0  0
   12.4532    0.7076   23.0553 C   0  0  0  0  0  0  0  0  0  0  0  0
   12.6824   -0.7322   23.4470 C   0  0  0  0  0  0  0  0  0  0  0  0
   12.2901   -1.7252   22.3333 C   0  0  0  0  0  0  0  0  0  0  0  0
   10.7990   -1.9407   22.2395 C   0  0  0  0  0  0  0  0  0  0  0  0
   10.1761   -2.9582   22.9416 C   0  0  0  0  0  0  0  0  0  0  0  0
    8.8104   -3.1097   22.8220 C   0  0  0  0  0  0  0  0  0  0  0  0
    8.0422   -2.3222   22.0595 N   0  0  0  0  0  0  0  0  0  0  0  0
    8.6387   -1.3354   21.3830 C   0  0  0  0  0  0  0  0  0  0  0  0
    7.8779   -0.4998   20.5774 N   0  0  0  0  0  0  0  0  0  0  0  0
    6.5604   -0.0321   20.7201 C   0  0  0  0  0  0  0  0  0  0  0  0
    5.8920    0.0451   21.9418 C   0  0  0  0  0  0  0  0  0  0  0  0
    4.6278    0.4584   22.0755 N   0  0  0  0  0  0  0  0  0  0  0  0
    3.9892    0.8559   20.9782 C   0  0  0  0  0  0  0  0  0  0  0  0
    4.5630    0.8441   19.7261 C   0  0  0  0  0  0  0  0  0  0  0  0
    5.8697    0.3918   19.5698 C   0  0  0  0  0  0  0  0  0  0  0  0
    6.4711    0.3692   18.1880 C   0  0  0  0  0  0  0  0  0  0  0  0
   10.0142   -1.1141   21.4458 C   0  0  0  0  0  0  0  0  0  0  0  0
   11.1740    1.2495   23.0776 C   0  0  0  0  0  0  0  0  0  0  0  0
  1  2  1  0
  2  3  2  0
  3  4  1  0
  4  5  1  0
  4  6  2  0
  6  7  1  0
  7  8  1  0
  8  9  1  0
  9 10  1  0
 10 11  2  0
 11 12  1  0
 12 13  2  0
 13 14  1  0
 14 15  1  0
 15 16  1  0
 16 17  2  0
 17 18  1  0
 18 19  2  0
 19 20  1  0
 20 21  2  0
 21 22  1  0
 14 23  2  0
  7 24  2  0
 24  2  1  0
 23 10  1  0
 21 16  1  0
M  END
