CVD-0001401|dock_bobby27042020.24|mol2|5|dock3
     RDKit          3D

 23 26  0  0  0  0  0  0  0  0999 V2000
   13.2419   -1.9992   20.6551 Cl  0  0  0  0  0  0  0  0  0  0  0  0
   13.7048   -2.1364   22.3563 C   0  0  0  0  0  0  0  0  0  0  0  0
   12.5319   -1.8125   23.2606 C   0  0  0  0  0  0  0  0  0  0  0  0
   11.8755   -2.6960   23.7974 O   0  0  0  0  0  0  0  0  0  0  0  0
   12.2537   -0.5048   23.4385 N   0  0  0  0  0  0  0  0  0  0  0  0
   11.1336   -0.0063   24.2746 C   0  0  0  0  0  0  0  0  0  0  0  0
   10.3698    1.0617   23.5659 C   0  0  0  0  0  0  0  0  0  0  0  0
    9.6953    0.5242   22.3251 C   0  0  0  0  0  0  0  0  0  0  0  0
    8.7636    1.1672   21.6939 N   0  0  0  0  0  0  0  0  0  0  0  0
    8.3186    0.4495   20.5866 C   0  0  0  0  0  0  0  0  0  0  0  0
    7.3285    0.8258   19.6768 C   0  0  0  0  0  0  0  0  0  0  0  0
    7.0062   -0.0148   18.6223 C   0  0  0  0  0  0  0  0  0  0  0  0
    7.6493   -1.2232   18.4543 C   0  0  0  0  0  0  0  0  0  0  0  0
    8.6341   -1.6185   19.3425 C   0  0  0  0  0  0  0  0  0  0  0  0
    8.9624   -0.7794   20.4030 C   0  0  0  0  0  0  0  0  0  0  0  0
   10.1470   -1.0257   21.6516 S   0  0  0  0  0  0  0  0  0  0  0  0
   11.2899    2.1981   23.1979 C   0  0  0  0  0  0  0  0  0  0  0  0
   10.8483    3.5207   23.2098 C   0  0  0  0  0  0  0  0  0  0  0  0
   11.6911    4.5668   22.8792 C   0  0  0  0  0  0  0  0  0  0  0  0
   12.9973    4.3024   22.5296 C   0  0  0  0  0  0  0  0  0  0  0  0
   13.4530    2.9959   22.5123 C   0  0  0  0  0  0  0  0  0  0  0  0
   12.6122    1.9380   22.8432 C   0  0  0  0  0  0  0  0  0  0  0  0
   13.1344    0.4985   22.8084 C   0  0  0  0  0  0  0  0  0  0  0  0
  1  2  1  0
  2  3  1  0
  3  4  2  0
  3  5  1  0
  5  6  1  0
  6  7  1  0
  7  8  1  0
  8  9  2  0
  9 10  1  0
 10 11  2  0
 11 12  1  0
 12 13  2  0
 13 14  1  0
 14 15  2  0
 15 16  1  0
  7 17  1  0
 17 18  2  0
 18 19  1  0
 19 20  2  0
 20 21  1  0
 21 22  2  0
 22 23  1  0
 23  5  1  0
 16  8  1  0
 22 17  1  0
 15 10  1  0
M  END
