CVD-0002188|dock_bobby27042020.92|mol2|24|dock1
     RDKit          3D

 31 34  0  0  0  0  0  0  0  0999 V2000
    7.8815   -5.3745   28.9365 F   0  0  0  0  0  0  0  0  0  0  0  0
    8.2272   -5.5244   27.6293 C   0  0  0  0  0  0  0  0  0  0  0  0
    9.5578   -5.4936   27.3039 C   0  0  0  0  0  0  0  0  0  0  0  0
    9.9236   -5.6449   25.9778 C   0  0  0  0  0  0  0  0  0  0  0  0
    8.9305   -5.8229   25.0210 C   0  0  0  0  0  0  0  0  0  0  0  0
    9.0080   -5.9943   23.6606 N   0  0  0  0  0  0  0  0  0  0  0  0
    7.7421   -6.1286   23.1587 C   0  0  0  0  0  0  0  0  0  0  0  0
    6.8228   -6.0491   24.1630 C   0  0  0  0  0  0  0  0  0  0  0  0
    5.3302   -6.1464   24.0430 C   0  0  0  0  0  0  0  0  0  0  0  0
    4.8250   -5.8158   22.6528 C   0  0  0  0  0  0  0  0  0  0  0  0
    5.3777   -4.5632   22.1578 N   0  0  0  0  0  0  0  0  0  0  0  0
    5.9059   -4.4687   20.9341 C   0  0  0  0  0  0  0  0  0  0  0  0
    5.9399   -5.4405   20.1852 O   0  0  0  0  0  0  0  0  0  0  0  0
    6.4683   -3.1591   20.4596 C   0  0  0  0  0  0  0  0  0  0  0  0
    5.9963   -2.6306   19.2646 C   0  0  0  0  0  0  0  0  0  0  0  0
    6.4835   -1.4279   18.7854 C   0  0  0  0  0  0  0  0  0  0  0  0
    7.4500   -0.7309   19.4897 C   0  0  0  0  0  0  0  0  0  0  0  0
    7.9383   -1.2407   20.6905 C   0  0  0  0  0  0  0  0  0  0  0  0
    8.9268   -0.5930   21.4747 N   0  0  0  0  0  0  0  0  0  0  0  0
    9.4261    0.6886   21.4182 C   0  0  0  0  0  0  0  0  0  0  0  0
    9.0627    1.5397   20.6133 O   0  0  0  0  0  0  0  0  0  0  0  0
   10.3870    0.8929   22.3823 N   0  0  0  0  0  0  0  0  0  0  0  0
   11.1604    2.0405   22.6920 C   0  0  0  0  0  0  0  0  0  0  0  0
   11.4919    2.9141   21.6640 C   0  0  0  0  0  0  0  0  0  0  0  0
   12.2456    4.0419   21.9369 C   0  0  0  0  0  0  0  0  0  0  0  0
   12.6485    4.2665   23.2325 C   0  0  0  0  0  0  0  0  0  0  0  0
   12.3477    3.4488   24.2412 N   0  0  0  0  0  0  0  0  0  0  0  0
   11.6193    2.3618   23.9681 C   0  0  0  0  0  0  0  0  0  0  0  0
    7.4406   -2.4515   21.1629 C   0  0  0  0  0  0  0  0  0  0  0  0
    7.5680   -5.8520   25.3734 C   0  0  0  0  0  0  0  0  0  0  0  0
    7.2166   -5.6981   26.7137 C   0  0  0  0  0  0  0  0  0  0  0  0
  1  2  1  0
  2  3  2  0
  3  4  1  0
  4  5  2  0
  5  6  1  0
  6  7  1  0
  7  8  2  0
  8  9  1  0
  9 10  1  0
 10 11  1  0
 11 12  1  0
 12 13  2  0
 12 14  1  0
 14 15  2  0
 15 16  1  0
 16 17  2  0
 17 18  1  0
 18 19  1  0
 19 20  1  0
 20 21  2  0
 20 22  1  0
 22 23  1  0
 23 24  2  0
 24 25  1  0
 25 26  2  0
 26 27  1  0
 27 28  2  0
 18 29  2  0
  8 30  1  0
 30 31  2  0
 31  2  1  0
 30  5  1  0
 29 14  1  0
 28 23  1  0
M  END
