CVD-0000134|dock_bobby27042020.28|mol2|21|dock1
     RDKit          3D

 16 17  0  0  0  0  0  0  0  0999 V2000
   13.9157   -1.0756   24.2533 C   0  0  0  0  0  0  0  0  0  0  0  0
   12.4817   -1.1778   23.9888 N   0  0  0  0  0  0  0  0  0  0  0  0
   11.9763    0.1173   23.5091 C   0  0  0  0  0  0  0  0  0  0  0  0
   10.4938    0.0438   23.2147 C   0  0  0  0  0  0  0  0  0  0  0  0
   10.2386   -0.9552   22.1865 N   0  0  0  0  0  0  0  0  0  0  0  0
   10.7160   -2.2514   22.6668 C   0  0  0  0  0  0  0  0  0  0  0  0
   12.1959   -2.1977   22.9728 C   0  0  0  0  0  0  0  0  0  0  0  0
    8.8678   -1.0032   21.6712 C   0  0  0  0  0  0  0  0  0  0  0  0
    8.7298   -1.9822   20.6706 O   0  0  0  0  0  0  0  0  0  0  0  0
    8.4424    0.3238   21.0746 C   0  0  0  0  0  0  0  0  0  0  0  0
    7.3073    0.1671   20.0920 C   0  0  0  0  0  0  0  0  0  0  0  0
    6.0170   -0.1320   20.4857 C   0  0  0  0  0  0  0  0  0  0  0  0
    4.9974   -0.2776   19.6358 N   0  0  0  0  0  0  0  0  0  0  0  0
    5.2981   -0.1157   18.3517 C   0  0  0  0  0  0  0  0  0  0  0  0
    6.4900    0.1710   17.8395 N   0  0  0  0  0  0  0  0  0  0  0  0
    7.4777    0.3071   18.7279 C   0  0  0  0  0  0  0  0  0  0  0  0
  1  2  1  0
  2  3  1  0
  3  4  1  0
  4  5  1  0
  5  6  1  0
  6  7  1  0
  5  8  1  0
  8  9  1  0
  8 10  1  0
 10 11  1  0
 11 12  2  0
 12 13  1  0
 13 14  2  0
 14 15  1  0
 15 16  2  0
  7  2  1  0
 16 11  1  0
M  END
