CVD-0000785|dock_bobby27042020.26|mol2|15|dock3
     RDKit          3D

 26 29  0  0  0  0  0  0  0  0999 V2000
    9.0594   -0.8937   28.1349 C   0  0  0  0  0  0  0  0  0  0  0  0
    8.9883   -0.3189   26.8317 O   0  0  0  0  0  0  0  0  0  0  0  0
    8.6841   -1.1136   25.7555 C   0  0  0  0  0  0  0  0  0  0  0  0
    8.9894   -0.5951   24.5065 C   0  0  0  0  0  0  0  0  0  0  0  0
    8.7362   -1.2881   23.3506 C   0  0  0  0  0  0  0  0  0  0  0  0
    9.1127   -0.6142   22.0265 C   0  0  0  0  0  0  0  0  0  0  0  0
   10.4048   -1.1562   21.5141 C   0  0  0  0  0  0  0  0  0  0  0  0
   11.5362   -0.7479   22.3832 N   0  0  0  0  0  0  0  0  0  0  0  0
   11.6252    0.6754   22.7645 C   0  0  0  0  0  0  0  0  0  0  0  0
   10.3815    1.5134   22.4543 C   0  0  0  0  0  0  0  0  0  0  0  0
   10.4417    2.9003   22.5447 C   0  0  0  0  0  0  0  0  0  0  0  0
    9.3249    3.6798   22.3053 C   0  0  0  0  0  0  0  0  0  0  0  0
    8.1333    3.0753   21.9720 C   0  0  0  0  0  0  0  0  0  0  0  0
    8.0677    1.6964   21.8805 C   0  0  0  0  0  0  0  0  0  0  0  0
    9.1821    0.8892   22.1178 C   0  0  0  0  0  0  0  0  0  0  0  0
   12.4539   -1.6053   22.8773 C   0  0  0  0  0  0  0  0  0  0  0  0
   12.4230   -2.8044   22.6302 O   0  0  0  0  0  0  0  0  0  0  0  0
   13.5320   -1.0133   23.7640 C   0  0  0  0  0  0  0  0  0  0  0  0
   14.7610   -2.2248   24.1499 Cl  0  0  0  0  0  0  0  0  0  0  0  0
    8.1427   -2.5884   23.4164 C   0  0  0  0  0  0  0  0  0  0  0  0
    7.8417   -3.3971   22.2875 C   0  0  0  0  0  0  0  0  0  0  0  0
    7.2705   -4.6268   22.4272 C   0  0  0  0  0  0  0  0  0  0  0  0
    6.9687   -5.1266   23.6755 C   0  0  0  0  0  0  0  0  0  0  0  0
    7.2369   -4.3994   24.7959 C   0  0  0  0  0  0  0  0  0  0  0  0
    7.8284   -3.1169   24.7023 C   0  0  0  0  0  0  0  0  0  0  0  0
    8.1115   -2.3543   25.8588 C   0  0  0  0  0  0  0  0  0  0  0  0
  1  2  1  0
  2  3  1  0
  3  4  2  0
  4  5  1  0
  6  5  1  0
  6  7  1  0
  7  8  1  0
  8  9  1  0
  9 10  1  0
 10 11  2  0
 11 12  1  0
 12 13  2  0
 13 14  1  0
 14 15  2  0
  8 16  1  0
 16 17  2  0
 16 18  1  0
 18 19  1  0
  5 20  2  0
 20 21  1  0
 21 22  2  0
 22 23  1  0
 23 24  2  0
 24 25  1  0
 25 26  2  0
 26  3  1  0
 15  6  1  0
 25 20  1  0
 15 10  1  0
M  END
