CVD-0003557|dock_bobby27042020.1|mol2|36|dock2
     RDKit          3D

 26 28  0  0  0  0  0  0  0  0999 V2000
    4.2696    1.8005   19.1383 C   0  0  0  0  0  0  0  0  0  0  0  0
    5.5684    0.6580   18.8650 S   0  0  0  0  0  0  0  0  0  0  0  0
    5.6262    0.3787   17.4633 O   0  0  0  0  0  0  0  0  0  0  0  0
    6.7426    1.1579   19.5108 O   0  0  0  0  0  0  0  0  0  0  0  0
    5.1744   -0.7108   19.6009 N   0  0  0  0  0  0  0  0  0  0  0  0
    5.5835   -0.9411   20.9822 C   0  0  0  0  0  0  0  0  0  0  0  0
    7.0864   -1.0458   21.0686 C   0  0  0  0  0  0  0  0  0  0  0  0
    7.9445   -1.3778   20.0616 C   0  0  0  0  0  0  0  0  0  0  0  0
    9.2363   -1.3704   20.5140 N   0  0  0  0  0  0  0  0  0  0  0  0
    9.2306   -1.0274   21.8438 C   0  0  0  0  0  0  0  0  0  0  0  0
   10.3000   -0.8890   22.7329 C   0  0  0  0  0  0  0  0  0  0  0  0
   11.7302   -1.1177   22.3001 C   0  0  0  0  0  0  0  0  0  0  0  0
   12.7012   -0.1111   22.8843 C   0  0  0  0  0  0  0  0  0  0  0  0
   13.7158   -0.4587   23.4808 O   0  0  0  0  0  0  0  0  0  0  0  0
   12.3589    1.1813   22.6847 N   0  0  0  0  0  0  0  0  0  0  0  0
   12.3558    2.5966   22.6848 C   0  0  0  0  0  0  0  0  0  0  0  0
   11.1589    3.2743   22.8768 C   0  0  0  0  0  0  0  0  0  0  0  0
   11.1700    4.6548   22.8745 C   0  0  0  0  0  0  0  0  0  0  0  0
   12.2696    5.3872   22.6977 N   0  0  0  0  0  0  0  0  0  0  0  0
   13.4120    4.7247   22.5143 C   0  0  0  0  0  0  0  0  0  0  0  0
   13.5140    3.3473   22.4984 C   0  0  0  0  0  0  0  0  0  0  0  0
   10.0095   -0.5249   24.0429 C   0  0  0  0  0  0  0  0  0  0  0  0
    8.6989   -0.3202   24.4073 C   0  0  0  0  0  0  0  0  0  0  0  0
    8.4436    0.0343   25.6957 F   0  0  0  0  0  0  0  0  0  0  0  0
    7.6302   -0.4514   23.5512 C   0  0  0  0  0  0  0  0  0  0  0  0
    7.8952   -0.8143   22.2311 C   0  0  0  0  0  0  0  0  0  0  0  0
  1  2  1  0
  2  3  2  0
  2  4  2  0
  2  5  1  0
  5  6  1  0
  6  7  1  0
  7  8  2  0
  8  9  1  0
  9 10  1  0
 10 11  2  0
 11 12  1  0
 12 13  1  0
 13 14  2  0
 13 15  1  0
 15 16  1  0
 16 17  2  0
 17 18  1  0
 18 19  2  0
 19 20  1  0
 20 21  2  0
 11 22  1  0
 22 23  2  0
 23 24  1  0
 23 25  1  0
 25 26  2  0
 26  7  1  0
 26 10  1  0
 21 16  1  0
M  END
