CVD-0000813|dock_bobby27042020.26|mol2|11|dock2
     RDKit          3D

 18 19  0  0  0  0  0  0  0  0999 V2000
   13.4326   -2.0209   21.6735 C   0  0  0  0  0  0  0  0  0  0  0  0
   14.0149   -1.1812   22.7869 C   0  0  0  0  0  0  0  0  0  0  0  0
   12.9574   -0.6960   23.7593 C   0  0  0  0  0  0  0  0  0  0  0  0
   11.9670    0.2713   23.1500 C   0  0  0  0  0  0  0  0  0  0  0  0
   12.2157    1.6395   23.1712 C   0  0  0  0  0  0  0  0  0  0  0  0
   11.3276    2.5556   22.6160 C   0  0  0  0  0  0  0  0  0  0  0  0
   11.6288    4.0410   22.6610 C   0  0  0  0  0  0  0  0  0  0  0  0
   12.5477    4.5021   21.5598 C   0  0  0  0  0  0  0  0  0  0  0  0
   10.1571    2.0919   22.0239 C   0  0  0  0  0  0  0  0  0  0  0  0
    9.8644    0.7297   21.9769 C   0  0  0  0  0  0  0  0  0  0  0  0
    8.7828   -0.0576   21.4577 C   0  0  0  0  0  0  0  0  0  0  0  0
    7.5571    0.4644   20.7530 C   0  0  0  0  0  0  0  0  0  0  0  0
    6.9357   -0.5078   19.8467 N   0  0  0  0  0  0  0  0  0  0  0  0
    5.6770    0.0086   19.3196 C   0  0  0  0  0  0  0  0  0  0  0  0
    7.8338   -0.8025   18.7360 C   0  0  0  0  0  0  0  0  0  0  0  0
    9.0945   -1.3582   21.7301 C   0  0  0  0  0  0  0  0  0  0  0  0
   10.2944   -1.4382   22.3841 N   0  0  0  0  0  0  0  0  0  0  0  0
   10.7852   -0.1665   22.5467 C   0  0  0  0  0  0  0  0  0  0  0  0
  1  2  1  0
  2  3  1  0
  3  4  1  0
  4  5  2  0
  5  6  1  0
  6  7  1  0
  7  8  1  0
  6  9  2  0
  9 10  1  0
 10 11  1  0
 11 12  1  0
 12 13  1  0
 13 14  1  0
 13 15  1  0
 11 16  2  0
 16 17  1  0
 17 18  1  0
 18  4  1  0
 18 10  2  0
M  END
