CVD-0000097|dock_bobby27042020.85|mol2|30|dock1
     RDKit          3D

 29 31  0  0  0  0  0  0  0  0999 V2000
    3.4425    2.3630   19.0388 C   0  0  0  0  0  0  0  0  0  0  0  0
    4.5256    1.4083   18.6564 C   0  0  0  0  0  0  0  0  0  0  0  0
    4.9951    0.2679   19.1748 C   0  0  0  0  0  0  0  0  0  0  0  0
    6.0315   -0.1311   18.3245 C   0  0  0  0  0  0  0  0  0  0  0  0
    6.9022   -1.3425   18.4349 C   0  0  0  0  0  0  0  0  0  0  0  0
    7.5751   -1.4269   19.7195 N   0  0  0  0  0  0  0  0  0  0  0  0
    6.8465   -2.2231   20.7119 C   0  0  0  0  0  0  0  0  0  0  0  0
    7.4028   -3.5640   20.7933 N   0  0  0  0  0  0  0  0  0  0  0  0
    6.4965   -4.8944   20.6880 S   0  0  0  0  0  0  0  0  0  0  0  0
    7.3719   -5.9729   20.3287 O   0  0  0  0  0  0  0  0  0  0  0  0
    5.3941   -4.5869   19.8227 O   0  0  0  0  0  0  0  0  0  0  0  0
    5.8380   -5.2470   22.2752 C   0  0  0  0  0  0  0  0  0  0  0  0
    4.9322   -4.1492   22.8330 C   0  0  0  0  0  0  0  0  0  0  0  0
    4.4059   -4.5143   24.2208 C   0  0  0  0  0  0  0  0  0  0  0  0
    3.6822   -5.8465   24.2017 C   0  0  0  0  0  0  0  0  0  0  0  0
    4.5586   -6.9469   23.6396 C   0  0  0  0  0  0  0  0  0  0  0  0
    5.0953   -6.5851   22.2584 C   0  0  0  0  0  0  0  0  0  0  0  0
    8.7814   -0.8197   19.9002 C   0  0  0  0  0  0  0  0  0  0  0  0
    9.2292   -0.0853   19.0281 O   0  0  0  0  0  0  0  0  0  0  0  0
    9.4562   -1.0447   21.0430 N   0  0  0  0  0  0  0  0  0  0  0  0
   10.7871   -0.4879   21.2591 C   0  0  0  0  0  0  0  0  0  0  0  0
   10.9634    0.9659   21.5889 C   0  0  0  0  0  0  0  0  0  0  0  0
   11.1945   -0.0898   22.6669 C   0  0  0  0  0  0  0  0  0  0  0  0
   12.5726   -0.3766   23.0958 N   0  0  0  0  0  0  0  0  0  0  0  0
   13.1856    0.6200   23.9810 C   0  0  0  0  0  0  0  0  0  0  0  0
   13.5880    1.8605   23.2711 C   0  0  0  0  0  0  0  0  0  0  0  0
   13.0994    3.0493   23.4591 C   0  0  0  0  0  0  0  0  0  0  0  0
    6.1941    0.7062   17.3436 N   0  0  0  0  0  0  0  0  0  0  0  0
    5.2207    1.7157   17.5446 O   0  0  0  0  0  0  0  0  0  0  0  0
  1  2  1  0
  2  3  2  0
  3  4  1  0
  4  5  1  0
  5  6  1  0
  6  7  1  0
  7  8  1  0
  8  9  1  0
  9 10  2  0
  9 11  2  0
  9 12  1  0
 12 13  1  0
 13 14  1  0
 14 15  1  0
 15 16  1  0
 16 17  1  0
  6 18  1  0
 18 19  2  0
 18 20  1  0
 21 20  1  0
 21 22  1  0
 22 23  1  0
 23 24  1  0
 24 25  1  0
 25 26  1  0
 26 27  2  0
  4 28  2  0
 28 29  1  0
 29  2  1  0
 17 12  1  0
 23 21  1  0
M  END
