CVD-0001924|dock_bobby27042020.36|mol2|30|dock1
     RDKit          3D

 24 26  0  0  0  0  0  0  0  0999 V2000
   13.3972   -1.4971   23.8253 N   0  0  0  0  0  0  0  0  0  0  0  0
   12.4637   -0.5046   24.4027 C   0  0  0  0  0  0  0  0  0  0  0  0
   11.4227    0.0685   23.4458 C   0  0  0  0  0  0  0  0  0  0  0  0
   10.1127   -0.1283   23.9649 O   0  0  0  0  0  0  0  0  0  0  0  0
    9.0873    0.5443   23.2049 C   0  0  0  0  0  0  0  0  0  0  0  0
    9.2740    2.0624   23.4709 C   0  0  0  0  0  0  0  0  0  0  0  0
   10.6681    2.4455   23.0097 C   0  0  0  0  0  0  0  0  0  0  0  0
   10.9731    3.7475   22.5850 C   0  0  0  0  0  0  0  0  0  0  0  0
   10.0217    4.7284   22.5209 O   0  0  0  0  0  0  0  0  0  0  0  0
   12.2878    4.1069   22.2933 C   0  0  0  0  0  0  0  0  0  0  0  0
   12.5583    5.3907   21.9405 O   0  0  0  0  0  0  0  0  0  0  0  0
   13.3140    3.1827   22.4182 C   0  0  0  0  0  0  0  0  0  0  0  0
   13.0207    1.8988   22.8358 C   0  0  0  0  0  0  0  0  0  0  0  0
   11.7127    1.5166   23.1331 C   0  0  0  0  0  0  0  0  0  0  0  0
    9.2633    0.1018   21.7523 C   0  0  0  0  0  0  0  0  0  0  0  0
    9.2693   -1.4311   21.6377 C   0  0  0  0  0  0  0  0  0  0  0  0
    7.9006   -2.0045   21.9946 C   0  0  0  0  0  0  0  0  0  0  0  0
    6.8098   -1.4108   21.1061 C   0  0  0  0  0  0  0  0  0  0  0  0
    6.8090    0.1074   21.1482 C   0  0  0  0  0  0  0  0  0  0  0  0
    5.7006    0.7221   20.2948 C   0  0  0  0  0  0  0  0  0  0  0  0
    5.8515    0.5494   18.7809 C   0  0  0  0  0  0  0  0  0  0  0  0
    5.7327   -0.8346   18.3013 C   0  0  0  0  0  0  0  0  0  0  0  0
    6.4704   -1.3582   17.5211 O   0  0  0  0  0  0  0  0  0  0  0  0
    8.1931    0.6860   20.8338 C   0  0  0  0  0  0  0  0  0  0  0  0
  1  2  1  0
  2  3  1  0
  3  4  1  0
  4  5  1  0
  5  6  1  0
  6  7  1  0
  7  8  2  0
  8  9  1  0
  8 10  1  0
 10 11  1  0
 10 12  2  0
 12 13  1  0
 13 14  2  0
  5 15  1  0
 15 16  1  0
 16 17  1  0
 17 18  1  0
 18 19  1  0
 19 20  1  0
 20 21  1  0
 21 22  1  0
 22 23  2  0
 19 24  1  0
 14  3  1  0
 24 15  1  0
 14  7  1  0
M  END
