CVD-0001012|dock_bobby27042020.82|mol2|25|dock1
     RDKit          3D

 19 20  0  0  0  0  0  0  0  0999 V2000
   12.1949   -2.4897   23.1139 C   0  0  0  0  0  0  0  0  0  0  0  0
   12.5959   -1.0725   23.5409 C   0  0  0  0  0  0  0  0  0  0  0  0
   14.0422   -0.8550   23.0871 C   0  0  0  0  0  0  0  0  0  0  0  0
   12.5778   -0.9284   25.0677 C   0  0  0  0  0  0  0  0  0  0  0  0
   11.7215   -0.0030   22.8541 C   0  0  0  0  0  0  0  0  0  0  0  0
   12.3042    0.8510   22.2138 O   0  0  0  0  0  0  0  0  0  0  0  0
   10.3728    0.0418   22.9136 N   0  0  0  0  0  0  0  0  0  0  0  0
    9.5185   -0.8897   23.6572 C   0  0  0  0  0  0  0  0  0  0  0  0
    8.4553   -1.4811   22.7538 C   0  0  0  0  0  0  0  0  0  0  0  0
    7.6533   -0.4076   22.0211 C   0  0  0  0  0  0  0  0  0  0  0  0
    6.6471   -0.9953   21.0241 C   0  0  0  0  0  0  0  0  0  0  0  0
    5.8882    0.0340   20.2222 C   0  0  0  0  0  0  0  0  0  0  0  0
    6.2570    0.3298   18.9191 C   0  0  0  0  0  0  0  0  0  0  0  0
    5.5588    1.2718   18.1819 C   0  0  0  0  0  0  0  0  0  0  0  0
    4.4831    1.9285   18.7396 C   0  0  0  0  0  0  0  0  0  0  0  0
    4.1050    1.6428   20.0339 C   0  0  0  0  0  0  0  0  0  0  0  0
    4.8034    0.7008   20.7705 C   0  0  0  0  0  0  0  0  0  0  0  0
    8.6010    0.5783   21.3498 C   0  0  0  0  0  0  0  0  0  0  0  0
    9.6279    1.1398   22.3084 C   0  0  0  0  0  0  0  0  0  0  0  0
  1  2  1  0
  2  3  1  0
  2  4  1  0
  2  5  1  0
  5  6  2  0
  5  7  1  0
  7  8  1  0
  8  9  1  0
  9 10  1  0
 10 11  1  0
 11 12  1  0
 12 13  2  0
 13 14  1  0
 14 15  2  0
 15 16  1  0
 16 17  2  0
 10 18  1  0
 18 19  1  0
 19  7  1  0
 17 12  1  0
M  END
