CVD-0002093|dock_bobby27042020.7|mol2|26|dock2
     RDKit          3D

 19 19  0  0  0  0  0  0  0  0999 V2000
   14.8385    5.8303   21.4881 O   0  0  0  0  0  0  0  0  0  0  0  0
   14.2695    5.0981   22.2642 C   0  0  0  0  0  0  0  0  0  0  0  0
   12.7076    5.3663   23.0341 S   0  0  0  0  0  0  0  0  0  0  0  0
   12.1996    3.6859   23.4956 C   0  0  0  0  0  0  0  0  0  0  0  0
   11.8241    2.8444   22.2925 C   0  0  0  0  0  0  0  0  0  0  0  0
   11.5902    1.4516   22.6458 N   0  0  0  0  0  0  0  0  0  0  0  0
   12.5781    0.5867   22.8592 C   0  0  0  0  0  0  0  0  0  0  0  0
   13.7613    0.9008   22.7734 O   0  0  0  0  0  0  0  0  0  0  0  0
   12.1561   -0.8181   23.2155 C   0  0  0  0  0  0  0  0  0  0  0  0
   11.8754   -1.6673   21.9916 C   0  0  0  0  0  0  0  0  0  0  0  0
   10.5227   -1.4659   21.4688 N   0  0  0  0  0  0  0  0  0  0  0  0
    9.4946   -2.2220   22.1868 C   0  0  0  0  0  0  0  0  0  0  0  0
    8.2014   -1.4315   22.2761 C   0  0  0  0  0  0  0  0  0  0  0  0
    7.5237   -1.2699   20.9369 C   0  0  0  0  0  0  0  0  0  0  0  0
    7.8630   -0.2250   20.0913 C   0  0  0  0  0  0  0  0  0  0  0  0
    7.2438   -0.0781   18.8613 C   0  0  0  0  0  0  0  0  0  0  0  0
    6.2776   -0.9756   18.4611 C   0  0  0  0  0  0  0  0  0  0  0  0
    5.9312   -2.0200   19.2912 C   0  0  0  0  0  0  0  0  0  0  0  0
    6.5510   -2.1660   20.5210 C   0  0  0  0  0  0  0  0  0  0  0  0
  1  2  2  0
  2  3  1  0
  3  4  1  0
  4  5  1  0
  5  6  1  0
  6  7  1  0
  7  8  2  0
  7  9  1  0
  9 10  1  0
 10 11  1  0
 11 12  1  0
 12 13  1  0
 13 14  1  0
 14 15  2  0
 15 16  1  0
 16 17  2  0
 17 18  1  0
 18 19  2  0
 19 14  1  0
M  END
