CVD-0000135|dock_bobby27042020.14|mol2|7|dock1
     RDKit          3D

 16 17  0  0  0  0  0  0  0  0999 V2000
    5.0924    1.4691   17.8546 C   0  0  0  0  0  0  0  0  0  0  0  0
    5.9316    0.5813   18.7193 C   0  0  0  0  0  0  0  0  0  0  0  0
    6.6196    1.3402   19.7503 N   0  0  0  0  0  0  0  0  0  0  0  0
    7.7609    0.9172   20.3585 C   0  0  0  0  0  0  0  0  0  0  0  0
    8.0843   -0.4350   20.4103 C   0  0  0  0  0  0  0  0  0  0  0  0
    9.2573   -0.8088   21.0401 C   0  0  0  0  0  0  0  0  0  0  0  0
   10.0920    0.1475   21.6178 C   0  0  0  0  0  0  0  0  0  0  0  0
    9.6689    1.4679   21.5073 C   0  0  0  0  0  0  0  0  0  0  0  0
    8.5440    1.8550   20.8951 N   0  0  0  0  0  0  0  0  0  0  0  0
   11.3535   -0.1904   22.3092 C   0  0  0  0  0  0  0  0  0  0  0  0
   11.7204    0.3543   23.5113 C   0  0  0  0  0  0  0  0  0  0  0  0
   12.9365   -0.0166   24.1080 C   0  0  0  0  0  0  0  0  0  0  0  0
   13.7725   -0.9163   23.5134 C   0  0  0  0  0  0  0  0  0  0  0  0
   13.4246   -1.5072   22.2594 C   0  0  0  0  0  0  0  0  0  0  0  0
   14.1127   -2.3321   21.6417 O   0  0  0  0  0  0  0  0  0  0  0  0
   12.2164   -1.1003   21.7275 N   0  0  0  0  0  0  0  0  0  0  0  0
  1  2  1  0
  2  3  1  0
  3  4  1  0
  4  5  2  0
  5  6  1  0
  6  7  2  0
  7  8  1  0
  8  9  2  0
  7 10  1  0
 10 11  2  0
 11 12  1  0
 12 13  2  0
 13 14  1  0
 14 15  2  0
 14 16  1  0
  9  4  1  0
 16 10  1  0
M  END
