CVD-0000482|dock_bobby27042020.55|mol2|44|dock1
     RDKit          3D

 17 18  0  0  0  0  0  0  0  0999 V2000
    4.9217    1.4590   19.6582 C   0  0  0  0  0  0  0  0  0  0  0  0
    6.2577    0.9002   20.0711 C   0  0  0  0  0  0  0  0  0  0  0  0
    7.0416    1.5606   21.0125 C   0  0  0  0  0  0  0  0  0  0  0  0
    8.2737    1.0716   21.4085 C   0  0  0  0  0  0  0  0  0  0  0  0
    8.7620   -0.1127   20.8621 C   0  0  0  0  0  0  0  0  0  0  0  0
   10.0122   -0.6799   21.2149 N   0  0  0  0  0  0  0  0  0  0  0  0
   10.7243   -0.6240   22.3884 C   0  0  0  0  0  0  0  0  0  0  0  0
   10.3776   -0.0322   23.4058 O   0  0  0  0  0  0  0  0  0  0  0  0
   11.9289   -1.3301   22.3188 N   0  0  0  0  0  0  0  0  0  0  0  0
   12.8981   -1.4801   23.3356 C   0  0  0  0  0  0  0  0  0  0  0  0
   13.8967   -2.4519   23.4365 C   0  0  0  0  0  0  0  0  0  0  0  0
   14.6262   -2.2807   24.5314 N   0  0  0  0  0  0  0  0  0  0  0  0
   14.0952   -1.1983   25.1330 N   0  0  0  0  0  0  0  0  0  0  0  0
   13.0639   -0.6977   24.4460 C   0  0  0  0  0  0  0  0  0  0  0  0
    7.9860   -0.7794   19.9191 C   0  0  0  0  0  0  0  0  0  0  0  0
    6.7462   -0.2922   19.5152 C   0  0  0  0  0  0  0  0  0  0  0  0
    5.9422   -1.0513   18.4930 C   0  0  0  0  0  0  0  0  0  0  0  0
  1  2  1  0
  2  3  2  0
  3  4  1  0
  4  5  2  0
  5  6  1  0
  6  7  1  0
  7  8  2  0
  7  9  1  0
  9 10  1  0
 10 11  1  0
 11 12  2  0
 12 13  1  0
 13 14  1  0
  5 15  1  0
 15 16  2  0
 16 17  1  0
 16  2  1  0
 14 10  2  0
M  END
