CVD-0003606|dock_bobby27042020.1|mol2|29|dock2
     RDKit          3D

 22 23  0  0  0  0  0  0  0  0999 V2000
    6.0829   -3.7548   21.5561 C   0  0  0  0  0  0  0  0  0  0  0  0
    7.0502   -2.9196   22.3350 C   0  0  0  0  0  0  0  0  0  0  0  0
    6.6549   -1.5210   22.3462 N   0  0  0  0  0  0  0  0  0  0  0  0
    6.5379   -0.7960   21.2198 C   0  0  0  0  0  0  0  0  0  0  0  0
    5.2842   -0.3666   20.9781 N   0  0  0  0  0  0  0  0  0  0  0  0
    5.0579    0.3032   19.8458 C   0  0  0  0  0  0  0  0  0  0  0  0
    6.0510    0.6047   18.9245 C   0  0  0  0  0  0  0  0  0  0  0  0
    7.3556    0.2016   19.1898 C   0  0  0  0  0  0  0  0  0  0  0  0
    7.6261   -0.5122   20.3587 C   0  0  0  0  0  0  0  0  0  0  0  0
    8.9349   -0.9480   20.7068 N   0  0  0  0  0  0  0  0  0  0  0  0
    9.5306   -1.0195   21.9476 C   0  0  0  0  0  0  0  0  0  0  0  0
    8.9817   -0.6959   22.9955 O   0  0  0  0  0  0  0  0  0  0  0  0
   10.8217   -1.4931   21.8564 N   0  0  0  0  0  0  0  0  0  0  0  0
   11.7837   -1.7140   22.8841 C   0  0  0  0  0  0  0  0  0  0  0  0
   11.4801   -1.8863   24.2360 C   0  0  0  0  0  0  0  0  0  0  0  0
   12.3928   -2.0868   25.1917 N   0  0  0  0  0  0  0  0  0  0  0  0
   13.6707   -2.1306   24.8277 C   0  0  0  0  0  0  0  0  0  0  0  0
   14.0844   -1.9773   23.5239 C   0  0  0  0  0  0  0  0  0  0  0  0
   13.1441   -1.7646   22.5203 C   0  0  0  0  0  0  0  0  0  0  0  0
   13.6377   -1.5954   21.1061 C   0  0  0  0  0  0  0  0  0  0  0  0
    5.7423    1.3251   17.7140 C   0  0  0  0  0  0  0  0  0  0  0  0
    5.5300    1.8948   16.7470 N   0  0  0  0  0  0  0  0  0  0  0  0
  1  2  1  0
  2  3  1  0
  3  4  1  0
  4  5  2  0
  5  6  1  0
  6  7  2  0
  7  8  1  0
  8  9  2  0
  9 10  1  0
 10 11  1  0
 11 12  2  0
 11 13  1  0
 13 14  1  0
 14 15  2  0
 15 16  1  0
 16 17  2  0
 17 18  1  0
 18 19  2  0
 19 20  1  0
  7 21  1  0
 21 22  3  0
  9  4  1  0
 19 14  1  0
M  END
