CVD-0003099|dock_bobby27042020.32|mol2|8|dock3
     RDKit          3D

 20 21  0  0  0  0  0  0  0  0999 V2000
   13.6660    2.4218   22.6687 C   0  0  0  0  0  0  0  0  0  0  0  0
   12.9439    1.1065   22.8317 C   0  0  0  0  0  0  0  0  0  0  0  0
   11.5928    1.0658   23.1352 C   0  0  0  0  0  0  0  0  0  0  0  0
   10.9187   -0.1332   23.2874 C   0  0  0  0  0  0  0  0  0  0  0  0
   11.6057   -1.3287   23.1337 C   0  0  0  0  0  0  0  0  0  0  0  0
   10.9877   -2.5472   23.2732 O   0  0  0  0  0  0  0  0  0  0  0  0
    9.6055   -2.6908   22.9632 C   0  0  0  0  0  0  0  0  0  0  0  0
    9.2643   -1.9371   21.7025 C   0  0  0  0  0  0  0  0  0  0  0  0
   10.1395   -1.7522   20.8618 O   0  0  0  0  0  0  0  0  0  0  0  0
    7.9786   -1.5188   21.6108 N   0  0  0  0  0  0  0  0  0  0  0  0
    7.3187   -0.8022   20.5983 C   0  0  0  0  0  0  0  0  0  0  0  0
    5.9701   -0.4604   20.6885 C   0  0  0  0  0  0  0  0  0  0  0  0
    5.3930    0.2462   19.6490 C   0  0  0  0  0  0  0  0  0  0  0  0
    6.1602    0.5989   18.5452 C   0  0  0  0  0  0  0  0  0  0  0  0
    7.4972    0.2138   18.5447 C   0  0  0  0  0  0  0  0  0  0  0  0
    8.0691   -0.4697   19.5424 N   0  0  0  0  0  0  0  0  0  0  0  0
    5.5928    1.3355   17.4428 C   0  0  0  0  0  0  0  0  0  0  0  0
    5.1463    1.9470   16.5875 N   0  0  0  0  0  0  0  0  0  0  0  0
   12.9560   -1.3071   22.8303 C   0  0  0  0  0  0  0  0  0  0  0  0
   13.6113   -0.0980   22.6824 C   0  0  0  0  0  0  0  0  0  0  0  0
  1  2  1  0
  2  3  2  0
  3  4  1  0
  4  5  2  0
  5  6  1  0
  6  7  1  0
  7  8  1  0
  8  9  2  0
  8 10  1  0
 10 11  1  0
 11 12  2  0
 12 13  1  0
 13 14  2  0
 14 15  1  0
 15 16  2  0
 14 17  1  0
 17 18  3  0
  5 19  1  0
 19 20  2  0
 20  2  1  0
 16 11  1  0
M  END
