CVD-0003861|dock_bobby27042020.58|mol2|24|dock1
     RDKit          3D

 29 32  0  0  0  0  0  0  0  0999 V2000
   13.1167    6.1347   23.3654 N   0  0  0  0  0  0  0  0  0  0  0  0
   13.5907    5.0012   22.3391 S   0  0  0  0  0  0  0  0  0  0  0  0
   14.9531    4.6896   22.6519 O   0  0  0  0  0  0  0  0  0  0  0  0
   13.2718    5.4629   21.0214 O   0  0  0  0  0  0  0  0  0  0  0  0
   12.6351    3.5441   22.6335 C   0  0  0  0  0  0  0  0  0  0  0  0
   11.2547    3.6197   22.6696 C   0  0  0  0  0  0  0  0  0  0  0  0
   10.5122    2.4730   22.8886 C   0  0  0  0  0  0  0  0  0  0  0  0
   11.1245    1.2388   23.0873 C   0  0  0  0  0  0  0  0  0  0  0  0
   12.5153    1.1920   23.0513 C   0  0  0  0  0  0  0  0  0  0  0  0
   13.2689    2.3290   22.8192 C   0  0  0  0  0  0  0  0  0  0  0  0
   10.3691    0.0927   23.3134 N   0  0  0  0  0  0  0  0  0  0  0  0
    9.2789    0.0385   24.2919 C   0  0  0  0  0  0  0  0  0  0  0  0
    8.0540   -0.6309   23.7361 C   0  0  0  0  0  0  0  0  0  0  0  0
    8.3806   -2.0385   23.2246 C   0  0  0  0  0  0  0  0  0  0  0  0
    7.1463   -2.7323   22.6598 C   0  0  0  0  0  0  0  0  0  0  0  0
    5.9994   -2.8052   23.5730 N   0  0  0  0  0  0  0  0  0  0  0  0
    4.8754   -3.4668   22.9285 C   0  0  0  0  0  0  0  0  0  0  0  0
    5.1878   -4.9802   22.6861 C   0  0  0  0  0  0  0  0  0  0  0  0
    5.6467   -5.6813   23.9767 C   0  0  0  0  0  0  0  0  0  0  0  0
    6.7606   -4.8747   24.6418 C   0  0  0  0  0  0  0  0  0  0  0  0
    6.3284   -3.4316   24.8514 C   0  0  0  0  0  0  0  0  0  0  0  0
    7.1855   -5.4892   25.9462 C   0  0  0  0  0  0  0  0  0  0  0  0
    8.4786   -5.7382   26.3846 C   0  0  0  0  0  0  0  0  0  0  0  0
    8.5318   -6.3202   27.6487 C   0  0  0  0  0  0  0  0  0  0  0  0
    7.3033   -6.5123   28.1668 C   0  0  0  0  0  0  0  0  0  0  0  0
    6.8897   -7.2607   29.8316 Br  0  0  0  0  0  0  0  0  0  0  0  0
    6.0361   -5.9911   27.1335 S   0  0  0  0  0  0  0  0  0  0  0  0
    9.5010   -1.9402   22.2203 C   0  0  0  0  0  0  0  0  0  0  0  0
   10.7253   -1.2375   22.7673 C   0  0  0  0  0  0  0  0  0  0  0  0
  1  2  1  0
  2  3  2  0
  2  4  2  0
  2  5  1  0
  5  6  2  0
  6  7  1  0
  7  8  2  0
  8  9  1  0
  9 10  2  0
  8 11  1  0
 11 12  1  0
 12 13  1  0
 13 14  1  0
 14 15  1  0
 15 16  1  0
 16 17  1  0
 17 18  1  0
 18 19  1  0
 19 20  1  0
 20 21  1  0
 20 22  1  0
 22 23  2  0
 23 24  1  0
 24 25  2  0
 25 26  1  0
 25 27  1  0
 14 28  1  0
 28 29  1  0
 10  5  1  0
 29 11  1  0
 21 16  1  0
 27 22  1  0
M  END
