CVD-0001404|dock_bobby27042020.81|mol2|13|dock3
     RDKit          3D

 24 26  0  0  0  0  0  0  0  0999 V2000
   13.7804    1.6708   22.4654 F   0  0  0  0  0  0  0  0  0  0  0  0
   13.0018    0.5628   22.5948 C   0  0  0  0  0  0  0  0  0  0  0  0
   13.5102   -0.6409   22.1890 C   0  0  0  0  0  0  0  0  0  0  0  0
   12.7150   -1.7664   22.3230 C   0  0  0  0  0  0  0  0  0  0  0  0
   11.4400   -1.6659   22.8543 C   0  0  0  0  0  0  0  0  0  0  0  0
   10.9659   -0.4256   23.2501 C   0  0  0  0  0  0  0  0  0  0  0  0
   11.7452    0.7151   23.1273 C   0  0  0  0  0  0  0  0  0  0  0  0
    9.3496   -0.2895   23.9317 S   0  0  0  0  0  0  0  0  0  0  0  0
    9.1527    1.0668   24.3397 O   0  0  0  0  0  0  0  0  0  0  0  0
    9.1751   -1.3499   24.8751 O   0  0  0  0  0  0  0  0  0  0  0  0
    8.2911   -0.5669   22.7234 N   0  0  0  0  0  0  0  0  0  0  0  0
    7.7220   -1.9186   22.6265 C   0  0  0  0  0  0  0  0  0  0  0  0
    6.4444   -1.8555   21.8500 C   0  0  0  0  0  0  0  0  0  0  0  0
    6.6652   -1.2461   20.5489 N   0  0  0  0  0  0  0  0  0  0  0  0
    7.3099    0.0696   20.6060 C   0  0  0  0  0  0  0  0  0  0  0  0
    8.5821   -0.0011   21.3977 C   0  0  0  0  0  0  0  0  0  0  0  0
    6.2544   -1.8707   19.4269 C   0  0  0  0  0  0  0  0  0  0  0  0
    5.6968   -2.9607   19.4519 O   0  0  0  0  0  0  0  0  0  0  0  0
    6.5063   -1.1559   18.1009 C   0  0  0  0  0  0  0  0  0  0  0  0
    5.7800    0.1037   18.0310 N   0  0  0  0  0  0  0  0  0  0  0  0
    4.8214    0.5448   18.8644 C   0  0  0  0  0  0  0  0  0  0  0  0
    4.4064    1.7579   18.3955 C   0  0  0  0  0  0  0  0  0  0  0  0
    5.1665    1.9772   17.2543 C   0  0  0  0  0  0  0  0  0  0  0  0
    6.0037    0.9758   17.0145 N   0  0  0  0  0  0  0  0  0  0  0  0
  1  2  1  0
  2  3  2  0
  3  4  1  0
  4  5  2  0
  5  6  1  0
  6  7  2  0
  6  8  1  0
  8  9  2  0
  8 10  2  0
  8 11  1  0
 11 12  1  0
 12 13  1  0
 13 14  1  0
 14 15  1  0
 15 16  1  0
 14 17  1  0
 17 18  2  0
 17 19  1  0
 19 20  1  0
 20 21  1  0
 21 22  2  0
 22 23  1  0
 23 24  2  0
  7  2  1  0
 16 11  1  0
 24 20  1  0
M  END
