CVD-0000174|dock_bobby27042020.57|mol2|5|dock2
     RDKit          3D

 26 28  0  0  0  0  0  0  0  0999 V2000
   13.7400    4.1525   23.0599 C   0  0  0  0  0  0  0  0  0  0  0  0
   14.0778    2.7809   22.8628 O   0  0  0  0  0  0  0  0  0  0  0  0
   13.1106    1.8758   22.5031 C   0  0  0  0  0  0  0  0  0  0  0  0
   11.8524    2.3510   22.1797 C   0  0  0  0  0  0  0  0  0  0  0  0
   10.8495    1.4711   21.8146 C   0  0  0  0  0  0  0  0  0  0  0  0
   11.0726    0.0986   21.7568 C   0  0  0  0  0  0  0  0  0  0  0  0
   12.3469   -0.3568   22.0836 C   0  0  0  0  0  0  0  0  0  0  0  0
   13.3577    0.5122   22.4555 C   0  0  0  0  0  0  0  0  0  0  0  0
    9.9909   -0.8439   21.3611 C   0  0  0  0  0  0  0  0  0  0  0  0
    9.7686   -2.0231   22.0678 C   0  0  0  0  0  0  0  0  0  0  0  0
    8.7639   -2.9019   21.6982 C   0  0  0  0  0  0  0  0  0  0  0  0
    7.9502   -2.6220   20.6143 C   0  0  0  0  0  0  0  0  0  0  0  0
    8.1595   -1.4506   19.9070 C   0  0  0  0  0  0  0  0  0  0  0  0
    9.1678   -0.5699   20.2672 C   0  0  0  0  0  0  0  0  0  0  0  0
    7.1415   -1.0730   18.5226 S   0  0  0  0  0  0  0  0  0  0  0  0
    7.9509   -0.4184   17.5421 O   0  0  0  0  0  0  0  0  0  0  0  0
    6.4134   -2.2528   18.1724 O   0  0  0  0  0  0  0  0  0  0  0  0
    6.0383    0.0203   19.0184 N   0  0  0  0  0  0  0  0  0  0  0  0
    5.0553   -0.4236   20.0169 C   0  0  0  0  0  0  0  0  0  0  0  0
    4.4972    0.7747   20.7182 C   0  0  0  0  0  0  0  0  0  0  0  0
    3.9380    1.7146   19.7606 N   0  0  0  0  0  0  0  0  0  0  0  0
    4.8687    2.1135   18.7002 C   0  0  0  0  0  0  0  0  0  0  0  0
    5.4328    0.9056   18.0125 C   0  0  0  0  0  0  0  0  0  0  0  0
    2.6715    2.1740   19.9132 C   0  0  0  0  0  0  0  0  0  0  0  0
    2.1447    3.1305   18.8843 C   0  0  0  0  0  0  0  0  0  0  0  0
    1.9789    1.8099   20.8569 O   0  0  0  0  0  0  0  0  0  0  0  0
  1  2  1  0
  2  3  1  0
  3  4  2  0
  4  5  1  0
  5  6  2  0
  6  7  1  0
  7  8  2  0
  6  9  1  0
  9 10  2  0
 10 11  1  0
 11 12  2  0
 12 13  1  0
 13 14  2  0
 13 15  1  0
 15 16  2  0
 15 17  2  0
 15 18  1  0
 18 19  1  0
 19 20  1  0
 20 21  1  0
 21 22  1  0
 22 23  1  0
 21 24  1  0
 24 25  1  0
 24 26  2  0
  8  3  1  0
 14  9  1  0
 23 18  1  0
M  END
