CVD-0001862|dock_bobby27042020.79|mol2|36|dock2
     RDKit          3D

 17 18  0  0  0  0  0  0  0  0999 V2000
    5.3409   -6.7501   21.7289 Cl  0  0  0  0  0  0  0  0  0  0  0  0
    6.7186   -5.8750   22.4097 C   0  0  0  0  0  0  0  0  0  0  0  0
    6.9173   -4.5214   21.7637 C   0  0  0  0  0  0  0  0  0  0  0  0
    6.1677   -4.1426   20.8699 O   0  0  0  0  0  0  0  0  0  0  0  0
    7.9707   -3.8316   22.2654 N   0  0  0  0  0  0  0  0  0  0  0  0
    8.4983   -2.5564   21.9429 C   0  0  0  0  0  0  0  0  0  0  0  0
    7.7759   -1.5954   21.2446 C   0  0  0  0  0  0  0  0  0  0  0  0
    8.3573   -0.3738   20.9626 C   0  0  0  0  0  0  0  0  0  0  0  0
    9.6511   -0.0971   21.3663 C   0  0  0  0  0  0  0  0  0  0  0  0
   10.3886   -1.0440   22.0706 C   0  0  0  0  0  0  0  0  0  0  0  0
    9.7981   -2.2759   22.3540 C   0  0  0  0  0  0  0  0  0  0  0  0
   11.7365   -0.7869   22.5107 N   0  0  0  0  0  0  0  0  0  0  0  0
   12.7905   -1.7951   22.3738 C   0  0  0  0  0  0  0  0  0  0  0  0
   14.0289   -1.1195   22.9094 C   0  0  0  0  0  0  0  0  0  0  0  0
   13.5934    0.1881   23.5209 C   0  0  0  0  0  0  0  0  0  0  0  0
   12.1427    0.3448   23.1761 C   0  0  0  0  0  0  0  0  0  0  0  0
   11.3986    1.2850   23.4217 O   0  0  0  0  0  0  0  0  0  0  0  0
  1  2  1  0
  2  3  1  0
  3  4  2  0
  3  5  1  0
  5  6  1  0
  6  7  2  0
  7  8  1  0
  8  9  2  0
  9 10  1  0
 10 11  2  0
 10 12  1  0
 12 13  1  0
 13 14  1  0
 14 15  1  0
 15 16  1  0
 16 17  2  0
 11  6  1  0
 16 12  1  0
M  END
