CVD-0002682|dock_bobby27042020.19|mol2|5|dock3
     RDKit          3D

 32 35  0  0  0  0  0  0  0  0999 V2000
    7.3901    0.0523   21.2846 O   0  0  0  0  0  0  0  0  0  0  0  0
    8.0762   -0.4686   20.4094 C   0  0  0  0  0  0  0  0  0  0  0  0
    9.2554   -1.0623   20.6340 N   0  0  0  0  0  0  0  0  0  0  0  0
    9.8833   -1.1708   21.9454 C   0  0  0  0  0  0  0  0  0  0  0  0
   11.4110   -1.0083   21.8780 C   0  0  0  0  0  0  0  0  0  0  0  0
   12.0921   -1.2298   23.2067 C   0  0  0  0  0  0  0  0  0  0  0  0
   13.0294   -2.2392   23.3631 C   0  0  0  0  0  0  0  0  0  0  0  0
   13.6520   -2.4447   24.5829 C   0  0  0  0  0  0  0  0  0  0  0  0
   13.3437   -1.6434   25.6612 C   0  0  0  0  0  0  0  0  0  0  0  0
   12.4125   -0.6371   25.5196 C   0  0  0  0  0  0  0  0  0  0  0  0
   11.7902   -0.4320   24.2996 C   0  0  0  0  0  0  0  0  0  0  0  0
    9.5392   -2.4957   22.6242 C   0  0  0  0  0  0  0  0  0  0  0  0
   10.2582   -3.4733   22.5105 O   0  0  0  0  0  0  0  0  0  0  0  0
    8.2342   -2.4912   23.4383 C   0  0  0  0  0  0  0  0  0  0  0  0
    7.8554   -1.3763   23.7784 O   0  0  0  0  0  0  0  0  0  0  0  0
    7.5436   -3.6019   23.7676 N   0  0  0  0  0  0  0  0  0  0  0  0
    7.8272   -4.9832   23.4099 C   0  0  0  0  0  0  0  0  0  0  0  0
    6.5952   -5.6985   22.8671 C   0  0  0  0  0  0  0  0  0  0  0  0
    5.4610   -5.5490   23.7907 N   0  0  0  0  0  0  0  0  0  0  0  0
    5.1700   -4.1094   24.0111 C   0  0  0  0  0  0  0  0  0  0  0  0
    6.3727   -3.4638   24.6465 C   0  0  0  0  0  0  0  0  0  0  0  0
    4.4052   -6.4472   23.7255 C   0  0  0  0  0  0  0  0  0  0  0  0
    3.6939   -6.6171   22.5413 C   0  0  0  0  0  0  0  0  0  0  0  0
    2.6368   -7.5095   22.4770 C   0  0  0  0  0  0  0  0  0  0  0  0
    2.2728   -8.2419   23.5845 C   0  0  0  0  0  0  0  0  0  0  0  0
    2.9707   -8.0860   24.7608 C   0  0  0  0  0  0  0  0  0  0  0  0
    4.0325   -7.1999   24.8348 C   0  0  0  0  0  0  0  0  0  0  0  0
    7.5961   -0.4582   18.9610 C   0  0  0  0  0  0  0  0  0  0  0  0
    6.2003   -1.0497   18.8297 C   0  0  0  0  0  0  0  0  0  0  0  0
    5.3291    0.0448   18.4043 C   0  0  0  0  0  0  0  0  0  0  0  0
    6.0866    1.2348   18.3515 C   0  0  0  0  0  0  0  0  0  0  0  0
    7.5066    0.9060   18.4322 N   0  0  0  0  0  0  0  0  0  0  0  0
  1  2  2  0
  2  3  1  0
  3  4  1  0
  4  5  1  0
  5  6  1  0
  6  7  2  0
  7  8  1  0
  8  9  2  0
  9 10  1  0
 10 11  2  0
  4 12  1  0
 12 13  2  0
 12 14  1  0
 14 15  2  0
 14 16  1  0
 16 17  1  0
 17 18  1  0
 18 19  1  0
 19 20  1  0
 20 21  1  0
 19 22  1  0
 22 23  2  0
 23 24  1  0
 24 25  2  0
 25 26  1  0
 26 27  2  0
  2 28  1  0
 28 29  1  0
 29 30  1  0
 30 31  1  0
 31 32  1  0
 11  6  1  0
 21 16  1  0
 27 22  1  0
 32 28  1  0
M  END
