CVD-0002096|dock_bobby27042020.36|mol2|2|dock2
     RDKit          3D

 22 24  0  0  0  0  0  0  0  0999 V2000
    8.8682    5.1158   22.2015 N   0  0  0  0  0  0  0  0  0  0  0  0
    8.6839    3.7411   22.7173 C   0  0  0  0  0  0  0  0  0  0  0  0
    9.9913    3.0955   23.1529 C   0  0  0  0  0  0  0  0  0  0  0  0
   10.5561    2.5018   21.9900 O   0  0  0  0  0  0  0  0  0  0  0  0
   11.9114    2.0449   22.1800 C   0  0  0  0  0  0  0  0  0  0  0  0
   12.7878    3.3203   22.3025 C   0  0  0  0  0  0  0  0  0  0  0  0
   12.2807    4.1167   23.4910 C   0  0  0  0  0  0  0  0  0  0  0  0
   13.1226    4.9729   24.2168 C   0  0  0  0  0  0  0  0  0  0  0  0
   14.4555    5.0866   23.9336 O   0  0  0  0  0  0  0  0  0  0  0  0
   12.6050    5.7879   25.2223 C   0  0  0  0  0  0  0  0  0  0  0  0
   13.4433    6.6200   25.8932 O   0  0  0  0  0  0  0  0  0  0  0  0
   11.2511    5.7652   25.5212 C   0  0  0  0  0  0  0  0  0  0  0  0
   10.4158    4.9245   24.8108 C   0  0  0  0  0  0  0  0  0  0  0  0
   10.9120    4.1003   23.8008 C   0  0  0  0  0  0  0  0  0  0  0  0
   11.9421    1.0874   23.3729 C   0  0  0  0  0  0  0  0  0  0  0  0
   13.3533    0.5178   23.5892 C   0  0  0  0  0  0  0  0  0  0  0  0
   13.7538   -0.3879   22.4278 C   0  0  0  0  0  0  0  0  0  0  0  0
   12.7471   -1.5214   22.2453 C   0  0  0  0  0  0  0  0  0  0  0  0
   11.3297   -0.9996   22.0854 C   0  0  0  0  0  0  0  0  0  0  0  0
   10.9392   -0.0542   23.2269 C   0  0  0  0  0  0  0  0  0  0  0  0
   10.3265   -2.0978   21.8675 C   0  0  0  0  0  0  0  0  0  0  0  0
    9.6448   -2.2219   20.8934 O   0  0  0  0  0  0  0  0  0  0  0  0
  1  2  1  0
  2  3  1  0
  3  4  1  0
  4  5  1  0
  5  6  1  0
  6  7  1  0
  7  8  2  0
  8  9  1  0
  8 10  1  0
 10 11  1  0
 10 12  2  0
 12 13  1  0
 13 14  2  0
  5 15  1  0
 15 16  1  0
 16 17  1  0
 17 18  1  0
 18 19  1  0
 19 20  1  0
 19 21  1  0
 21 22  2  0
 14  3  1  0
 20 15  1  0
 14  7  1  0
M  END
