CVD-0004010|dock_bobby27042020.86|mol2|8|dock3
     RDKit          3D

 36 40  0  0  0  0  0  0  0  0999 V2000
    8.7191    6.8964   23.9510 C   0  0  0  0  0  0  0  0  0  0  0  0
    9.7555    5.9057   23.4794 C   0  0  0  0  0  0  0  0  0  0  0  0
    9.3892    4.7647   22.7849 C   0  0  0  0  0  0  0  0  0  0  0  0
   10.3339    3.8543   22.3471 C   0  0  0  0  0  0  0  0  0  0  0  0
   11.6765    4.0757   22.6004 C   0  0  0  0  0  0  0  0  0  0  0  0
   12.5866    3.1504   22.1511 O   0  0  0  0  0  0  0  0  0  0  0  0
   13.8434    3.0041   22.8040 C   0  0  0  0  0  0  0  0  0  0  0  0
   14.3193    1.5663   22.6767 C   0  0  0  0  0  0  0  0  0  0  0  0
   15.3695    1.3309   22.0922 O   0  0  0  0  0  0  0  0  0  0  0  0
   13.5648    0.5758   23.2073 N   0  0  0  0  0  0  0  0  0  0  0  0
   12.3024    0.8265   23.9062 C   0  0  0  0  0  0  0  0  0  0  0  0
   11.1858   -0.0006   23.2966 C   0  0  0  0  0  0  0  0  0  0  0  0
   11.5215   -1.4264   23.3532 N   0  0  0  0  0  0  0  0  0  0  0  0
   10.4250   -2.2352   22.7999 C   0  0  0  0  0  0  0  0  0  0  0  0
    9.3061   -2.5351   23.7871 C   0  0  0  0  0  0  0  0  0  0  0  0
    8.4133   -3.6342   23.3945 N   0  0  0  0  0  0  0  0  0  0  0  0
    7.6114   -4.1247   24.5153 C   0  0  0  0  0  0  0  0  0  0  0  0
    6.7395   -5.2702   24.0787 C   0  0  0  0  0  0  0  0  0  0  0  0
    5.8482   -4.8594   22.9898 N   0  0  0  0  0  0  0  0  0  0  0  0
    4.9558   -5.9581   22.5974 C   0  0  0  0  0  0  0  0  0  0  0  0
    3.9681   -6.3969   23.6701 C   0  0  0  0  0  0  0  0  0  0  0  0
    2.7199   -7.1152   23.1429 C   0  0  0  0  0  0  0  0  0  0  0  0
    1.6649   -6.2663   22.4577 C   0  0  0  0  0  0  0  0  0  0  0  0
    0.5166   -7.1753   22.3087 N   0  0  0  0  0  0  0  0  0  0  0  0
    0.6456   -8.0826   23.2709 C   0  0  0  0  0  0  0  0  0  0  0  0
   -0.1206   -9.1623   23.4391 N   0  0  0  0  0  0  0  0  0  0  0  0
    0.2568  -10.0533   24.3434 C   0  0  0  0  0  0  0  0  0  0  0  0
    1.4481  -10.0068   25.0801 C   0  0  0  0  0  0  0  0  0  0  0  0
    2.2146   -8.9233   25.0123 C   0  0  0  0  0  0  0  0  0  0  0  0
    1.7923   -7.7352   24.1955 C   0  0  0  0  0  0  0  0  0  0  0  0
    6.6501   -4.3689   21.8690 C   0  0  0  0  0  0  0  0  0  0  0  0
    7.5221   -3.2235   22.3057 C   0  0  0  0  0  0  0  0  0  0  0  0
   12.7545   -1.6558   22.6047 C   0  0  0  0  0  0  0  0  0  0  0  0
   13.8990   -0.8518   23.1944 C   0  0  0  0  0  0  0  0  0  0  0  0
   12.0646    5.2133   23.2933 C   0  0  0  0  0  0  0  0  0  0  0  0
   11.1037    6.1118   23.7228 C   0  0  0  0  0  0  0  0  0  0  0  0
  1  2  1  0
  2  3  2  0
  3  4  1  0
  4  5  2  0
  5  6  1  0
  6  7  1  0
  7  8  1  0
  8  9  2  0
  8 10  1  0
 10 11  1  0
 11 12  1  0
 12 13  1  0
 13 14  1  0
 14 15  1  0
 15 16  1  0
 16 17  1  0
 17 18  1  0
 18 19  1  0
 19 20  1  0
 20 21  1  0
 21 22  1  0
 22 23  1  0
 23 24  1  0
 24 25  2  0
 25 26  1  0
 26 27  2  0
 27 28  1  0
 28 29  2  0
 29 30  1  0
 19 31  1  0
 31 32  1  0
 13 33  1  0
 33 34  1  0
  5 35  1  0
 35 36  2  0
 36  2  1  0
 34 10  1  0
 32 16  1  0
 30 22  1  0
 30 25  1  0
M  END
