CVD-0000494|dock_bobby27042020.84|mol2|10|dock3
     RDKit          3D

 31 32  0  0  0  0  0  0  0  0999 V2000
    6.1874    5.8088   21.8159 N   0  0  0  0  0  0  0  0  0  0  0  0
    7.2858    4.8622   22.4954 S   0  0  0  0  0  0  0  0  0  0  0  0
    8.4484    4.8673   21.6541 O   0  0  0  0  0  0  0  0  0  0  0  0
    7.4273    5.2929   23.8569 O   0  0  0  0  0  0  0  0  0  0  0  0
    6.6941    3.1919   22.5502 C   0  0  0  0  0  0  0  0  0  0  0  0
    7.7168    2.1771   23.0424 C   0  0  0  0  0  0  0  0  0  0  0  0
    7.2357    0.7371   22.9838 C   0  0  0  0  0  0  0  0  0  0  0  0
    7.6650    0.0282   21.7728 N   0  0  0  0  0  0  0  0  0  0  0  0
    6.7308    0.1031   20.6284 C   0  0  0  0  0  0  0  0  0  0  0  0
    6.2065   -1.2713   20.2830 C   0  0  0  0  0  0  0  0  0  0  0  0
    5.3133   -1.2227   19.0478 C   0  0  0  0  0  0  0  0  0  0  0  0
    6.0299   -0.6066   17.8745 C   0  0  0  0  0  0  0  0  0  0  0  0
    6.5747    0.7592   18.2195 C   0  0  0  0  0  0  0  0  0  0  0  0
    7.4640    0.7180   19.4549 C   0  0  0  0  0  0  0  0  0  0  0  0
    8.8503   -0.6670   21.6692 C   0  0  0  0  0  0  0  0  0  0  0  0
    8.9962   -1.4752   20.7615 O   0  0  0  0  0  0  0  0  0  0  0  0
    9.8349   -0.4174   22.5988 N   0  0  0  0  0  0  0  0  0  0  0  0
   11.1347   -0.9910   22.7182 C   0  0  0  0  0  0  0  0  0  0  0  0
   11.5507   -2.1464   22.0545 C   0  0  0  0  0  0  0  0  0  0  0  0
   12.7791   -2.6638   22.1467 N   0  0  0  0  0  0  0  0  0  0  0  0
   13.6473   -2.0542   22.9479 C   0  0  0  0  0  0  0  0  0  0  0  0
   13.3429   -0.9204   23.6673 C   0  0  0  0  0  0  0  0  0  0  0  0
   12.0717   -0.3625   23.5621 C   0  0  0  0  0  0  0  0  0  0  0  0
   11.7485    0.8865   24.3500 C   0  0  0  0  0  0  0  0  0  0  0  0
   11.4946    2.0599   23.5269 N   0  0  0  0  0  0  0  0  0  0  0  0
   12.4764    2.6458   22.8132 C   0  0  0  0  0  0  0  0  0  0  0  0
   13.6309    2.2267   22.8165 O   0  0  0  0  0  0  0  0  0  0  0  0
   12.1026    3.7236   22.0956 N   0  0  0  0  0  0  0  0  0  0  0  0
   13.0499    4.4636   21.2741 C   0  0  0  0  0  0  0  0  0  0  0  0
   13.9832    5.2946   22.1145 C   0  0  0  0  0  0  0  0  0  0  0  0
   13.2729    6.1898   22.9550 O   0  0  0  0  0  0  0  0  0  0  0  0
  1  2  1  0
  2  3  2  0
  2  4  2  0
  2  5  1  0
  5  6  1  0
  6  7  1  0
  7  8  1  0
  8  9  1  0
  9 10  1  0
 10 11  1  0
 11 12  1  0
 12 13  1  0
 13 14  1  0
  8 15  1  0
 15 16  2  0
 15 17  1  0
 17 18  1  0
 18 19  2  0
 19 20  1  0
 20 21  2  0
 21 22  1  0
 22 23  2  0
 23 24  1  0
 24 25  1  0
 25 26  1  0
 26 27  2  0
 26 28  1  0
 28 29  1  0
 29 30  1  0
 30 31  1  0
 14  9  1  0
 23 18  1  0
M  END
