CVD-0001131|dock_bobby27042020.25|mol2|3|dock1
     RDKit          3D

 22 23  0  0  0  0  0  0  0  0999 V2000
    6.1080   -1.3572   19.4986 O   0  0  0  0  0  0  0  0  0  0  0  0
    7.3216   -0.8739   19.6101 C   0  0  0  0  0  0  0  0  0  0  0  0
    7.9946   -0.5480   18.6572 O   0  0  0  0  0  0  0  0  0  0  0  0
    7.7819   -0.7647   21.0353 C   0  0  0  0  0  0  0  0  0  0  0  0
    9.2053   -0.2562   21.2184 C   0  0  0  0  0  0  0  0  0  0  0  0
    9.6570   -0.2941   22.6689 C   0  0  0  0  0  0  0  0  0  0  0  0
   10.9966    0.2925   22.8539 N   0  0  0  0  0  0  0  0  0  0  0  0
   11.0281    1.6887   22.8125 C   0  0  0  0  0  0  0  0  0  0  0  0
    9.9663    2.2735   22.6413 O   0  0  0  0  0  0  0  0  0  0  0  0
   12.2276    2.3441   22.9471 N   0  0  0  0  0  0  0  0  0  0  0  0
   12.5243    3.7319   22.9267 C   0  0  0  0  0  0  0  0  0  0  0  0
   13.7864    4.1244   22.4987 C   0  0  0  0  0  0  0  0  0  0  0  0
   14.1138    5.4682   22.4580 C   0  0  0  0  0  0  0  0  0  0  0  0
   13.1683    6.3877   22.8464 C   0  0  0  0  0  0  0  0  0  0  0  0
   11.9498    6.0462   23.2645 N   0  0  0  0  0  0  0  0  0  0  0  0
   11.6451    4.7453   23.3069 C   0  0  0  0  0  0  0  0  0  0  0  0
   12.0851   -0.6187   23.0997 C   0  0  0  0  0  0  0  0  0  0  0  0
   12.7677   -0.5861   24.3102 C   0  0  0  0  0  0  0  0  0  0  0  0
   13.8219   -1.4519   24.5490 C   0  0  0  0  0  0  0  0  0  0  0  0
   14.2100   -2.3584   23.5873 C   0  0  0  0  0  0  0  0  0  0  0  0
   13.5438   -2.3994   22.3826 C   0  0  0  0  0  0  0  0  0  0  0  0
   12.4891   -1.5363   22.1365 C   0  0  0  0  0  0  0  0  0  0  0  0
  1  2  1  0
  2  3  2  0
  2  4  1  0
  4  5  1  0
  5  6  1  0
  6  7  1  0
  7  8  1  0
  8  9  2  0
  8 10  1  0
 10 11  1  0
 11 12  2  0
 12 13  1  0
 13 14  2  0
 14 15  1  0
 15 16  2  0
  7 17  1  0
 17 18  2  0
 18 19  1  0
 19 20  2  0
 20 21  1  0
 21 22  2  0
 16 11  1  0
 22 17  1  0
M  END
