CVD-0002097|dock_bobby27042020.36|mol2|1|dock2
     RDKit          3D

 21 23  0  0  0  0  0  0  0  0999 V2000
    8.0533   -4.9424   21.3556 N   0  0  0  0  0  0  0  0  0  0  0  0
    7.8800   -4.2263   22.6413 C   0  0  0  0  0  0  0  0  0  0  0  0
    8.0800   -2.7181   22.5498 C   0  0  0  0  0  0  0  0  0  0  0  0
    9.4795   -2.4627   22.6949 O   0  0  0  0  0  0  0  0  0  0  0  0
    9.7619   -1.0580   22.6084 C   0  0  0  0  0  0  0  0  0  0  0  0
    9.5066   -0.5635   21.2102 C   0  0  0  0  0  0  0  0  0  0  0  0
    8.2548   -1.1363   20.5984 C   0  0  0  0  0  0  0  0  0  0  0  0
    7.7763   -0.6632   19.3654 C   0  0  0  0  0  0  0  0  0  0  0  0
    8.3692    0.3799   18.7057 O   0  0  0  0  0  0  0  0  0  0  0  0
    6.6003   -1.1752   18.8204 C   0  0  0  0  0  0  0  0  0  0  0  0
    6.1101   -0.6332   17.6754 O   0  0  0  0  0  0  0  0  0  0  0  0
    5.8907   -2.1585   19.4925 C   0  0  0  0  0  0  0  0  0  0  0  0
    6.3635   -2.6227   20.7059 C   0  0  0  0  0  0  0  0  0  0  0  0
    7.5407   -2.1213   21.2680 C   0  0  0  0  0  0  0  0  0  0  0  0
   11.2023   -0.8665   23.0479 C   0  0  0  0  0  0  0  0  0  0  0  0
   12.1120   -2.0488   22.7048 C   0  0  0  0  0  0  0  0  0  0  0  0
   13.5670   -1.7688   23.0656 C   0  0  0  0  0  0  0  0  0  0  0  0
   13.7057   -1.4209   24.5372 C   0  0  0  0  0  0  0  0  0  0  0  0
   12.7895   -0.2593   24.9144 C   0  0  0  0  0  0  0  0  0  0  0  0
   11.3514   -0.5520   24.5318 C   0  0  0  0  0  0  0  0  0  0  0  0
   10.5562    0.6073   24.7836 O   0  0  0  0  0  0  0  0  0  0  0  0
  1  2  1  0
  2  3  1  0
  3  4  1  0
  4  5  1  0
  5  6  1  0
  6  7  1  0
  7  8  2  0
  8  9  1  0
  8 10  1  0
 10 11  1  0
 10 12  2  0
 12 13  1  0
 13 14  2  0
  5 15  1  0
 15 16  1  0
 16 17  1  0
 17 18  1  0
 18 19  1  0
 19 20  1  0
 20 21  1  0
 14  3  1  0
 20 15  1  0
 14  7  1  0
M  END
