CVD-0001687|dock_bobby27042020.94|mol2|28|dock3
     RDKit          3D

 25 26  0  0  0  0  0  0  0  0999 V2000
    6.1114   -1.7325   20.4131 C   0  0  0  0  0  0  0  0  0  0  0  0
    6.5079   -0.7243   21.4744 C   0  0  0  0  0  0  0  0  0  0  0  0
    7.5043    0.3452   20.9926 C   0  0  0  0  0  0  0  0  0  0  0  0
    8.1469    1.1868   22.1384 C   0  0  0  0  0  0  0  0  0  0  0  0
    9.0586    2.1198   21.5823 O   0  0  0  0  0  0  0  0  0  0  0  0
    8.8931    0.4440   23.2244 C   0  0  0  0  0  0  0  0  0  0  0  0
    8.3259    0.1255   24.3927 C   0  0  0  0  0  0  0  0  0  0  0  0
    6.9217    0.3649   24.8585 C   0  0  0  0  0  0  0  0  0  0  0  0
    9.2206   -0.6805   25.6612 Cl  0  0  0  0  0  0  0  0  0  0  0  0
   10.3077    0.0528   22.8709 C   0  0  0  0  0  0  0  0  0  0  0  0
   10.6814   -1.1541   22.4561 C   0  0  0  0  0  0  0  0  0  0  0  0
    9.9106   -2.4171   22.2524 C   0  0  0  0  0  0  0  0  0  0  0  0
    9.3559   -2.4822   20.9510 O   0  0  0  0  0  0  0  0  0  0  0  0
   12.0677   -1.3675   22.1099 N   0  0  0  0  0  0  0  0  0  0  0  0
   13.0813   -0.5980   22.7239 C   0  0  0  0  0  0  0  0  0  0  0  0
   14.2696   -0.8797   22.6039 O   0  0  0  0  0  0  0  0  0  0  0  0
   12.5914    0.5536   23.5604 C   0  0  0  0  0  0  0  0  0  0  0  0
   11.2886    1.1822   23.0365 C   0  0  0  0  0  0  0  0  0  0  0  0
    6.7833    1.2395   19.9491 C   0  0  0  0  0  0  0  0  0  0  0  0
    6.9338    0.5998   18.6197 N   0  0  0  0  0  0  0  0  0  0  0  0
    5.7486    0.5152   18.1331 C   0  0  0  0  0  0  0  0  0  0  0  0
    4.6808    1.0888   18.9390 C   0  0  0  0  0  0  0  0  0  0  0  0
    5.2992    1.5826   20.0579 C   0  0  0  0  0  0  0  0  0  0  0  0
    4.6612    2.3342   21.1954 C   0  0  0  0  0  0  0  0  0  0  0  0
    3.8036    3.3792   20.7739 O   0  0  0  0  0  0  0  0  0  0  0  0
  1  2  1  0
  2  3  1  0
  3  4  1  0
  4  5  1  0
  4  6  1  0
  6  7  2  0
  7  8  1  0
  7  9  1  0
  6 10  1  0
 10 11  2  0
 11 12  1  0
 12 13  1  0
 11 14  1  0
 14 15  1  0
 15 16  2  0
 15 17  1  0
 17 18  1  0
  3 19  1  0
 19 20  1  0
 20 21  2  0
 21 22  1  0
 22 23  2  0
 23 24  1  0
 24 25  1  0
 18 10  1  0
 23 19  1  0
M  END
