CVD-0003233|dock_bobby27042020.88|mol2|34|dock1
     RDKit          3D

 32 35  0  0  0  0  0  0  0  0999 V2000
    5.8476    1.0127   18.1195 C   0  0  0  0  0  0  0  0  0  0  0  0
    6.5442    0.0640   18.9898 N   0  0  0  0  0  0  0  0  0  0  0  0
    7.8254   -0.3848   18.8271 C   0  0  0  0  0  0  0  0  0  0  0  0
    8.1049   -1.2375   19.8549 C   0  0  0  0  0  0  0  0  0  0  0  0
    6.9779   -1.3312   20.7032 C   0  0  0  0  0  0  0  0  0  0  0  0
    6.8627   -2.1647   21.9544 C   0  0  0  0  0  0  0  0  0  0  0  0
    8.0527   -2.1160   22.8005 N   0  0  0  0  0  0  0  0  0  0  0  0
    8.2088   -3.1892   23.6334 C   0  0  0  0  0  0  0  0  0  0  0  0
    7.3721   -4.0835   23.6445 O   0  0  0  0  0  0  0  0  0  0  0  0
    9.4017   -3.2952   24.5655 C   0  0  0  0  0  0  0  0  0  0  0  0
    9.1882   -4.3018   25.6734 C   0  0  0  0  0  0  0  0  0  0  0  0
    8.0928   -4.2248   26.5171 C   0  0  0  0  0  0  0  0  0  0  0  0
    7.9312   -5.1614   27.5229 C   0  0  0  0  0  0  0  0  0  0  0  0
    8.8781   -6.1517   27.6535 C   0  0  0  0  0  0  0  0  0  0  0  0
    9.9438   -6.2516   26.8578 N   0  0  0  0  0  0  0  0  0  0  0  0
   10.0788   -5.3357   25.8939 C   0  0  0  0  0  0  0  0  0  0  0  0
    8.8872   -0.9456   22.7009 C   0  0  0  0  0  0  0  0  0  0  0  0
   10.2688   -1.0110   22.5593 C   0  0  0  0  0  0  0  0  0  0  0  0
   11.0320    0.1410   22.4963 C   0  0  0  0  0  0  0  0  0  0  0  0
   10.4438    1.3981   22.5455 C   0  0  0  0  0  0  0  0  0  0  0  0
   11.3012    2.5267   22.4753 N   0  0  0  0  0  0  0  0  0  0  0  0
   11.0310    3.8576   22.5891 C   0  0  0  0  0  0  0  0  0  0  0  0
    9.9092    4.3075   22.7971 O   0  0  0  0  0  0  0  0  0  0  0  0
   12.1568    4.8489   22.4556 C   0  0  0  0  0  0  0  0  0  0  0  0
   12.1682    5.9480   23.3108 C   0  0  0  0  0  0  0  0  0  0  0  0
   13.1729    6.8983   23.2434 C   0  0  0  0  0  0  0  0  0  0  0  0
   14.1871    6.7711   22.3208 C   0  0  0  0  0  0  0  0  0  0  0  0
   14.1952    5.6920   21.4653 C   0  0  0  0  0  0  0  0  0  0  0  0
   13.1930    4.7378   21.5275 C   0  0  0  0  0  0  0  0  0  0  0  0
    9.0578    1.4666   22.6584 C   0  0  0  0  0  0  0  0  0  0  0  0
    8.2981    0.3125   22.7361 C   0  0  0  0  0  0  0  0  0  0  0  0
    6.0287   -0.4972   20.1244 C   0  0  0  0  0  0  0  0  0  0  0  0
  1  2  1  0
  2  3  1  0
  3  4  2  0
  4  5  1  0
  5  6  1  0
  6  7  1  0
  7  8  1  0
  8  9  2  0
  8 10  1  0
 10 11  1  0
 11 12  2  0
 12 13  1  0
 13 14  2  0
 14 15  1  0
 15 16  2  0
  7 17  1  0
 17 18  2  0
 18 19  1  0
 19 20  2  0
 20 21  1  0
 21 22  1  0
 22 23  2  0
 22 24  1  0
 24 25  2  0
 25 26  1  0
 26 27  2  0
 27 28  1  0
 28 29  2  0
 20 30  1  0
 30 31  2  0
  5 32  2  0
 32  2  1  0
 16 11  1  0
 31 17  1  0
 29 24  1  0
M  END
