CVD-0003663|dock_bobby27042020.87|mol2|15|dock3
     RDKit          3D

 16 16  0  0  0  0  0  0  0  0999 V2000
    7.2361    0.2110   18.2252 C   0  0  0  0  0  0  0  0  0  0  0  0
    7.1603    0.2576   19.7367 C   0  0  0  0  0  0  0  0  0  0  0  0
    6.0291   -0.6045   20.2564 C   0  0  0  0  0  0  0  0  0  0  0  0
    8.4286   -0.2116   20.3021 N   0  0  0  0  0  0  0  0  0  0  0  0
    8.8500    0.2228   21.5049 C   0  0  0  0  0  0  0  0  0  0  0  0
    8.1603    1.0084   22.1436 O   0  0  0  0  0  0  0  0  0  0  0  0
   10.0428   -0.2068   22.0183 N   0  0  0  0  0  0  0  0  0  0  0  0
   10.7625   -1.4101   21.6048 C   0  0  0  0  0  0  0  0  0  0  0  0
   11.0797   -2.2713   22.8087 C   0  0  0  0  0  0  0  0  0  0  0  0
   11.7979   -1.4881   23.8117 N   0  0  0  0  0  0  0  0  0  0  0  0
   11.0782   -0.2848   24.2252 C   0  0  0  0  0  0  0  0  0  0  0  0
   10.7611    0.5764   23.0214 C   0  0  0  0  0  0  0  0  0  0  0  0
   12.9788   -1.9133   24.3200 C   0  0  0  0  0  0  0  0  0  0  0  0
   13.4835   -2.9710   23.9646 O   0  0  0  0  0  0  0  0  0  0  0  0
   13.6735   -1.0512   25.3569 C   0  0  0  0  0  0  0  0  0  0  0  0
   15.1299   -1.8470   25.9676 Cl  0  0  0  0  0  0  0  0  0  0  0  0
  1  2  1  0
  2  3  1  0
  2  4  1  0
  4  5  1  0
  5  6  2  0
  5  7  1  0
  7  8  1  0
  8  9  1  0
  9 10  1  0
 10 11  1  0
 11 12  1  0
 10 13  1  0
 13 14  2  0
 13 15  1  0
 15 16  1  0
 12  7  1  0
M  END
