CVD-0003022|dock_bobby27042020.3|mol2|28|dock3
     RDKit          3D

 18 19  0  0  0  0  0  0  0  0999 V2000
    9.2597   -5.1195   25.6966 C   0  0  0  0  0  0  0  0  0  0  0  0
    9.1325   -3.6547   25.9999 C   0  0  0  0  0  0  0  0  0  0  0  0
    8.8193   -3.2889   27.1274 O   0  0  0  0  0  0  0  0  0  0  0  0
    9.3516   -2.7411   25.0155 N   0  0  0  0  0  0  0  0  0  0  0  0
    9.2301   -1.2976   25.2305 C   0  0  0  0  0  0  0  0  0  0  0  0
   10.5027   -0.5893   24.8043 C   0  0  0  0  0  0  0  0  0  0  0  0
   10.7913   -0.8689   23.3946 N   0  0  0  0  0  0  0  0  0  0  0  0
   12.0013   -0.1530   22.9658 C   0  0  0  0  0  0  0  0  0  0  0  0
   11.7916    1.3339   22.8078 C   0  0  0  0  0  0  0  0  0  0  0  0
   10.5161    1.8569   22.6606 C   0  0  0  0  0  0  0  0  0  0  0  0
   10.3208    3.2208   22.5187 C   0  0  0  0  0  0  0  0  0  0  0  0
   11.4045    4.0823   22.5233 C   0  0  0  0  0  0  0  0  0  0  0  0
   12.6895    3.5717   22.6714 C   0  0  0  0  0  0  0  0  0  0  0  0
   12.8787    2.1988   22.8137 C   0  0  0  0  0  0  0  0  0  0  0  0
   13.8278    4.4572   22.6786 C   0  0  0  0  0  0  0  0  0  0  0  0
   14.7291    5.1578   22.7176 N   0  0  0  0  0  0  0  0  0  0  0  0
   10.9597   -2.3090   23.2191 C   0  0  0  0  0  0  0  0  0  0  0  0
    9.6996   -3.0514   23.6253 C   0  0  0  0  0  0  0  0  0  0  0  0
  1  2  1  0
  2  3  2  0
  2  4  1  0
  4  5  1  0
  5  6  1  0
  6  7  1  0
  7  8  1  0
  8  9  1  0
  9 10  2  0
 10 11  1  0
 11 12  2  0
 12 13  1  0
 13 14  2  0
 13 15  1  0
 15 16  3  0
  7 17  1  0
 17 18  1  0
 18  4  1  0
 14  9  1  0
M  END
