CVD-0003341|dock_bobby27042020.31|mol2|15|dock1
     RDKit          3D

 40 43  0  0  0  0  0  0  0  0999 V2000
   12.9607    4.1141   21.4696 C   0  0  0  0  0  0  0  0  0  0  0  0
   12.3272    4.4811   22.7938 C   0  0  0  0  0  0  0  0  0  0  0  0
   12.9742    5.4006   23.6355 C   0  0  0  0  0  0  0  0  0  0  0  0
   14.1446    6.0309   23.2748 N   0  0  0  0  0  0  0  0  0  0  0  0
   12.4090    5.6804   24.8740 C   0  0  0  0  0  0  0  0  0  0  0  0
   11.2752    5.1350   25.3083 N   0  0  0  0  0  0  0  0  0  0  0  0
   10.6371    4.2951   24.4904 C   0  0  0  0  0  0  0  0  0  0  0  0
   11.1068    3.9280   23.2296 C   0  0  0  0  0  0  0  0  0  0  0  0
   10.4132    3.0304   22.3696 N   0  0  0  0  0  0  0  0  0  0  0  0
    9.6762    1.9294   22.6592 C   0  0  0  0  0  0  0  0  0  0  0  0
    9.4613    1.4780   23.7793 O   0  0  0  0  0  0  0  0  0  0  0  0
    9.1121    1.2512   21.4301 C   0  0  0  0  0  0  0  0  0  0  0  0
    8.4981   -0.1203   21.7194 C   0  0  0  0  0  0  0  0  0  0  0  0
    9.5886   -1.1717   22.0606 C   0  0  0  0  0  0  0  0  0  0  0  0
    8.8753   -2.4524   22.5533 C   0  0  0  0  0  0  0  0  0  0  0  0
    8.8637   -2.8057   23.8366 C   0  0  0  0  0  0  0  0  0  0  0  0
    9.6128   -2.0881   24.8311 C   0  0  0  0  0  0  0  0  0  0  0  0
   10.3940   -1.0866   24.4471 C   0  0  0  0  0  0  0  0  0  0  0  0
   10.5410   -0.7056   23.1277 N   0  0  0  0  0  0  0  0  0  0  0  0
   11.5705    0.1248   22.7450 C   0  0  0  0  0  0  0  0  0  0  0  0
   11.7626    0.4230   21.5730 O   0  0  0  0  0  0  0  0  0  0  0  0
   12.4944    0.6619   23.8215 C   0  0  0  0  0  0  0  0  0  0  0  0
   13.8250    1.5930   23.1215 Cl  0  0  0  0  0  0  0  0  0  0  0  0
    8.0501   -3.9753   24.2146 N   0  0  0  0  0  0  0  0  0  0  0  0
    6.5924   -3.9813   23.9131 C   0  0  0  0  0  0  0  0  0  0  0  0
    6.2406   -4.7353   22.6290 C   0  0  0  0  0  0  0  0  0  0  0  0
    4.9728   -5.9530   23.0976 S   0  0  0  0  0  0  0  0  0  0  0  0
    3.7394   -5.7041   22.4032 O   0  0  0  0  0  0  0  0  0  0  0  0
    5.4898   -7.2928   23.0424 O   0  0  0  0  0  0  0  0  0  0  0  0
    4.8258   -5.4057   24.7587 C   0  0  0  0  0  0  0  0  0  0  0  0
    5.7069   -4.4338   25.0242 C   0  0  0  0  0  0  0  0  0  0  0  0
    8.5087   -5.1527   24.8719 C   0  0  0  0  0  0  0  0  0  0  0  0
    7.7195   -6.0514   25.1345 O   0  0  0  0  0  0  0  0  0  0  0  0
    9.9379   -5.4151   25.3041 C   0  0  0  0  0  0  0  0  0  0  0  0
   10.0954   -5.2391   27.0566 Cl  0  0  0  0  0  0  0  0  0  0  0  0
    7.7205   -0.5999   20.5169 C   0  0  0  0  0  0  0  0  0  0  0  0
    6.4284   -1.1974   20.5794 C   0  0  0  0  0  0  0  0  0  0  0  0
    5.9246   -1.5571   19.3656 C   0  0  0  0  0  0  0  0  0  0  0  0
    7.0321   -1.1655   18.1384 S   0  0  0  0  0  0  0  0  0  0  0  0
    8.1671   -0.5264   19.2309 C   0  0  0  0  0  0  0  0  0  0  0  0
  1  2  1  0
  2  3  2  0
  3  4  1  0
  3  5  1  0
  5  6  2  0
  6  7  1  0
  7  8  2  0
  8  9  1  0
  9 10  1  0
 10 11  2  0
 10 12  1  0
 12 13  1  0
 13 14  1  0
 14 15  1  0
 15 16  2  0
 16 17  1  0
 17 18  2  0
 18 19  1  0
 19 20  1  0
 20 21  2  0
 20 22  1  0
 22 23  1  0
 16 24  1  0
 24 25  1  0
 25 26  1  0
 26 27  1  0
 27 28  2  0
 27 29  2  0
 27 30  1  0
 30 31  2  0
 24 32  1  0
 32 33  2  0
 32 34  1  0
 34 35  1  0
 13 36  1  0
 36 37  1  0
 37 38  2  0
 38 39  1  0
 39 40  1  0
  8  2  1  0
 19 14  1  0
 31 25  1  0
 40 36  2  0
M  END
