CVD-0003931|dock_bobby27042020.43|mol2|36|dock1
     RDKit          3D

 32 35  0  0  0  0  0  0  0  0999 V2000
    5.9532    1.1586   18.9545 O   0  0  0  0  0  0  0  0  0  0  0  0
    6.5008    0.4567   20.0738 C   0  0  0  0  0  0  0  0  0  0  0  0
    7.0882    1.4043   21.1017 C   0  0  0  0  0  0  0  0  0  0  0  0
    7.7147    0.6704   22.2903 C   0  0  0  0  0  0  0  0  0  0  0  0
    8.7711   -0.3080   21.7872 C   0  0  0  0  0  0  0  0  0  0  0  0
    8.1746   -1.3047   20.8058 C   0  0  0  0  0  0  0  0  0  0  0  0
    7.5529   -0.5464   19.6273 C   0  0  0  0  0  0  0  0  0  0  0  0
    9.4462   -1.0098   22.9181 N   0  0  0  0  0  0  0  0  0  0  0  0
   10.9578   -1.0064   22.8250 C   0  0  0  0  0  0  0  0  0  0  0  0
   11.5195   -1.6183   21.5423 C   0  0  0  0  0  0  0  0  0  0  0  0
   13.0352   -1.5328   21.5091 C   0  0  0  0  0  0  0  0  0  0  0  0
   13.6571   -2.1717   22.7338 C   0  0  0  0  0  0  0  0  0  0  0  0
   13.1080   -1.5572   24.0106 C   0  0  0  0  0  0  0  0  0  0  0  0
   11.5903   -1.6437   24.0578 C   0  0  0  0  0  0  0  0  0  0  0  0
   11.2165    0.4489   22.8119 C   0  0  0  0  0  0  0  0  0  0  0  0
   11.5744    1.5875   22.7945 C   0  0  0  0  0  0  0  0  0  0  0  0
   12.0046    2.9544   22.6959 C   0  0  0  0  0  0  0  0  0  0  0  0
   11.0885    3.9997   22.6646 C   0  0  0  0  0  0  0  0  0  0  0  0
   11.5465    5.3023   22.5689 C   0  0  0  0  0  0  0  0  0  0  0  0
   12.9040    5.5222   22.5073 C   0  0  0  0  0  0  0  0  0  0  0  0
   13.8077    4.5415   22.5350 N   0  0  0  0  0  0  0  0  0  0  0  0
   13.3543    3.2879   22.6276 C   0  0  0  0  0  0  0  0  0  0  0  0
    8.6125   -1.5169   24.2592 S   0  0  0  0  0  0  0  0  0  0  0  0
    7.9888   -0.3685   24.8395 O   0  0  0  0  0  0  0  0  0  0  0  0
    9.3916   -2.3819   25.0897 O   0  0  0  0  0  0  0  0  0  0  0  0
    7.3148   -2.5793   23.6697 C   0  0  0  0  0  0  0  0  0  0  0  0
    7.6670   -3.7644   23.0398 C   0  0  0  0  0  0  0  0  0  0  0  0
    6.6681   -4.6029   22.5712 C   0  0  0  0  0  0  0  0  0  0  0  0
    5.3379   -4.2720   22.7231 C   0  0  0  0  0  0  0  0  0  0  0  0
    4.9757   -3.0914   23.3487 C   0  0  0  0  0  0  0  0  0  0  0  0
    5.9722   -2.2660   23.8104 C   0  0  0  0  0  0  0  0  0  0  0  0
    5.6271   -1.1099   24.4222 F   0  0  0  0  0  0  0  0  0  0  0  0
  1  2  1  0
  2  3  1  0
  3  4  1  0
  4  5  1  0
  5  6  1  0
  6  7  1  0
  5  8  1  0
  8  9  1  0
  9 10  1  0
 10 11  1  0
 11 12  1  0
 12 13  1  0
 13 14  1  0
  9 15  1  0
 15 16  3  0
 16 17  1  0
 17 18  2  0
 18 19  1  0
 19 20  2  0
 20 21  1  0
 21 22  2  0
  8 23  1  0
 23 24  2  0
 23 25  2  0
 23 26  1  0
 26 27  2  0
 27 28  1  0
 28 29  2  0
 29 30  1  0
 30 31  2  0
 31 32  1  0
  7  2  1  0
 14  9  1  0
 22 17  1  0
 31 26  1  0
M  END
