CVD-0001580|dock_bobby27042020.52|mol2|14|dock3
     RDKit          3D

 28 30  0  0  0  0  0  0  0  0999 V2000
   13.0383    6.5867   25.2858 C   0  0  0  0  0  0  0  0  0  0  0  0
   13.3635    5.8764   24.0046 C   0  0  0  0  0  0  0  0  0  0  0  0
   14.1007    6.3706   23.1574 O   0  0  0  0  0  0  0  0  0  0  0  0
   12.8175    4.6689   23.8475 N   0  0  0  0  0  0  0  0  0  0  0  0
   13.0520    3.8490   22.6675 C   0  0  0  0  0  0  0  0  0  0  0  0
   11.9755    2.7974   22.4868 C   0  0  0  0  0  0  0  0  0  0  0  0
   10.6038    3.3840   22.3252 C   0  0  0  0  0  0  0  0  0  0  0  0
   10.2361    4.6880   22.4811 C   0  0  0  0  0  0  0  0  0  0  0  0
    8.8957    4.8355   22.2490 N   0  0  0  0  0  0  0  0  0  0  0  0
    8.3629    3.6097   21.9331 C   0  0  0  0  0  0  0  0  0  0  0  0
    7.0643    3.2294   21.6161 C   0  0  0  0  0  0  0  0  0  0  0  0
    6.8026    1.8997   21.3343 C   0  0  0  0  0  0  0  0  0  0  0  0
    7.8259    0.9621   21.3736 C   0  0  0  0  0  0  0  0  0  0  0  0
    7.5927   -0.3698   21.0985 O   0  0  0  0  0  0  0  0  0  0  0  0
    8.1445   -0.9801   19.9541 C   0  0  0  0  0  0  0  0  0  0  0  0
    7.9008   -2.3821   19.9300 O   0  0  0  0  0  0  0  0  0  0  0  0
    6.5112   -2.6914   19.9355 C   0  0  0  0  0  0  0  0  0  0  0  0
    5.8181   -2.1387   18.7012 C   0  0  0  0  0  0  0  0  0  0  0  0
    6.3630   -2.8241   17.5774 O   0  0  0  0  0  0  0  0  0  0  0  0
    6.0533   -0.6241   18.6236 C   0  0  0  0  0  0  0  0  0  0  0  0
    5.5825   -0.1143   17.3796 O   0  0  0  0  0  0  0  0  0  0  0  0
    7.5381   -0.3190   18.7183 C   0  0  0  0  0  0  0  0  0  0  0  0
    7.7163    1.0940   18.7407 O   0  0  0  0  0  0  0  0  0  0  0  0
    6.4225   -4.2193   20.0290 C   0  0  0  0  0  0  0  0  0  0  0  0
    6.9139   -4.7344   21.1279 O   0  0  0  0  0  0  0  0  0  0  0  0
    5.9499   -4.8966   19.1424 O   0  0  0  0  0  0  0  0  0  0  0  0
    9.1242    1.3368   21.6864 C   0  0  0  0  0  0  0  0  0  0  0  0
    9.4096    2.6708   21.9720 C   0  0  0  0  0  0  0  0  0  0  0  0
  1  2  1  0
  2  3  2  0
  2  4  1  0
  4  5  1  0
  5  6  1  0
  6  7  1  0
  7  8  2  0
  8  9  1  0
  9 10  1  0
 10 11  2  0
 11 12  1  0
 12 13  2  0
 13 14  1  0
 14 15  1  0
 15 16  1  0
 16 17  1  0
 17 18  1  0
 18 19  1  0
 18 20  1  0
 20 21  1  0
 20 22  1  0
 22 23  1  0
 17 24  1  0
 24 25  1  0
 24 26  2  0
 13 27  1  0
 27 28  2  0
 28  7  1  0
 28 10  1  0
 22 15  1  0
M  END
