CVD-0000030|dock_bobby27042020.14|mol2|24|dock1
     RDKit          3D

 29 31  0  0  0  0  0  0  0  0999 V2000
   13.8058   -2.6115   25.1433 C   0  0  0  0  0  0  0  0  0  0  0  0
   13.6094   -1.2068   24.5748 C   0  0  0  0  0  0  0  0  0  0  0  0
   12.8461   -0.3529   25.5863 C   0  0  0  0  0  0  0  0  0  0  0  0
   12.8771   -1.2593   23.2565 C   0  0  0  0  0  0  0  0  0  0  0  0
   13.4421   -1.8348   22.1345 C   0  0  0  0  0  0  0  0  0  0  0  0
   12.6671   -1.8127   20.9949 C   0  0  0  0  0  0  0  0  0  0  0  0
   11.4416   -1.2759   20.9433 N   0  0  0  0  0  0  0  0  0  0  0  0
   10.9726   -0.7387   22.0772 C   0  0  0  0  0  0  0  0  0  0  0  0
   11.6525   -0.7122   23.2354 N   0  0  0  0  0  0  0  0  0  0  0  0
    9.7342   -0.1803   22.0774 N   0  0  0  0  0  0  0  0  0  0  0  0
    8.6207   -1.0876   21.7634 C   0  0  0  0  0  0  0  0  0  0  0  0
    7.5566   -0.4428   20.9081 C   0  0  0  0  0  0  0  0  0  0  0  0
    7.6679   -0.4106   19.5278 C   0  0  0  0  0  0  0  0  0  0  0  0
    6.6613    0.1910   18.7926 C   0  0  0  0  0  0  0  0  0  0  0  0
    5.5741    0.7422   19.4475 C   0  0  0  0  0  0  0  0  0  0  0  0
    5.5399    0.6658   20.8360 C   0  0  0  0  0  0  0  0  0  0  0  0
    6.5117    0.0835   21.5653 N   0  0  0  0  0  0  0  0  0  0  0  0
    4.4320    1.2223   21.5761 C   0  0  0  0  0  0  0  0  0  0  0  0
    3.5277    1.7147   22.1477 C   0  0  0  0  0  0  0  0  0  0  0  0
    9.4515    1.1655   22.3762 C   0  0  0  0  0  0  0  0  0  0  0  0
    8.2896    1.4951   22.5755 O   0  0  0  0  0  0  0  0  0  0  0  0
   10.4635    2.1017   22.4256 N   0  0  0  0  0  0  0  0  0  0  0  0
   10.3837    3.4995   22.6929 C   0  0  0  0  0  0  0  0  0  0  0  0
    9.2083    4.2488   22.5886 C   0  0  0  0  0  0  0  0  0  0  0  0
    9.2413    5.6061   22.8551 C   0  0  0  0  0  0  0  0  0  0  0  0
   10.4329    6.1704   23.2360 C   0  0  0  0  0  0  0  0  0  0  0  0
   11.5633    5.4690   23.3616 N   0  0  0  0  0  0  0  0  0  0  0  0
   11.5568    4.1631   23.0911 C   0  0  0  0  0  0  0  0  0  0  0  0
   12.8915    3.4922   23.2387 C   0  0  0  0  0  0  0  0  0  0  0  0
  1  2  1  0
  2  3  1  0
  2  4  1  0
  4  5  2  0
  5  6  1  0
  6  7  2  0
  7  8  1  0
  8  9  2  0
  8 10  1  0
 10 11  1  0
 11 12  1  0
 12 13  2  0
 13 14  1  0
 14 15  2  0
 15 16  1  0
 16 17  2  0
 16 18  1  0
 18 19  3  0
 10 20  1  0
 20 21  2  0
 20 22  1  0
 22 23  1  0
 23 24  2  0
 24 25  1  0
 25 26  2  0
 26 27  1  0
 27 28  2  0
 28 29  1  0
  9  4  1  0
 17 12  1  0
 28 23  1  0
M  END
