CVD-0002414|dock_bobby27042020.91|mol2|28|dock3
     RDKit          3D

 26 29  0  0  0  0  0  0  0  0999 V2000
    8.0176   -6.4520   23.6990 F   0  0  0  0  0  0  0  0  0  0  0  0
    8.4535   -5.2248   23.3333 C   0  0  0  0  0  0  0  0  0  0  0  0
    7.7669   -4.5302   22.3741 C   0  0  0  0  0  0  0  0  0  0  0  0
    8.2025   -3.2597   21.9890 C   0  0  0  0  0  0  0  0  0  0  0  0
    9.3403   -2.7046   22.6024 C   0  0  0  0  0  0  0  0  0  0  0  0
   10.0288   -3.4423   23.5669 C   0  0  0  0  0  0  0  0  0  0  0  0
    9.5782   -4.6962   23.9301 C   0  0  0  0  0  0  0  0  0  0  0  0
   10.4379   -5.5942   25.1379 Cl  0  0  0  0  0  0  0  0  0  0  0  0
    9.7581   -1.4065   22.2106 N   0  0  0  0  0  0  0  0  0  0  0  0
   10.9103   -0.8144   22.8484 C   0  0  0  0  0  0  0  0  0  0  0  0
   10.8510   -0.3936   24.1716 C   0  0  0  0  0  0  0  0  0  0  0  0
   11.9631    0.1749   24.7701 C   0  0  0  0  0  0  0  0  0  0  0  0
   13.1341    0.3278   24.0596 C   0  0  0  0  0  0  0  0  0  0  0  0
   13.1991   -0.0865   22.7468 C   0  0  0  0  0  0  0  0  0  0  0  0
   12.0935   -0.6563   22.1376 C   0  0  0  0  0  0  0  0  0  0  0  0
    9.1073   -0.6757   21.2404 C   0  0  0  0  0  0  0  0  0  0  0  0
    9.6256    0.8540   20.7940 S   0  0  0  0  0  0  0  0  0  0  0  0
    7.9865   -1.2566   20.6360 N   0  0  0  0  0  0  0  0  0  0  0  0
    7.2932   -0.5026   19.6170 C   0  0  0  0  0  0  0  0  0  0  0  0
    5.9862   -0.0757   19.8060 C   0  0  0  0  0  0  0  0  0  0  0  0
    5.3618    0.6440   18.8026 C   0  0  0  0  0  0  0  0  0  0  0  0
    6.0642    0.9104   17.6494 C   0  0  0  0  0  0  0  0  0  0  0  0
    7.3205    0.5099   17.4470 N   0  0  0  0  0  0  0  0  0  0  0  0
    7.9161   -0.1846   18.4214 C   0  0  0  0  0  0  0  0  0  0  0  0
    7.4745   -2.5186   20.9530 C   0  0  0  0  0  0  0  0  0  0  0  0
    6.1199   -3.1269   20.2059 S   0  0  0  0  0  0  0  0  0  0  0  0
  1  2  1  0
  2  3  2  0
  3  4  1  0
  4  5  2  0
  5  6  1  0
  6  7  2  0
  7  8  1  0
  5  9  1  0
  9 10  1  0
 10 11  2  0
 11 12  1  0
 12 13  2  0
 13 14  1  0
 14 15  2  0
  9 16  1  0
 16 17  2  0
 16 18  1  0
 18 19  1  0
 19 20  2  0
 20 21  1  0
 21 22  2  0
 22 23  1  0
 23 24  2  0
 18 25  1  0
 25 26  2  0
  7  2  1  0
 15 10  1  0
 24 19  1  0
 25  4  1  0
M  END
