CVD-0003120|dock_bobby27042020.60|mol2|42|dock3
     RDKit          3D

 18 20  0  0  0  0  0  0  0  0999 V2000
    8.9042   -4.3041   24.9551 C   0  0  0  0  0  0  0  0  0  0  0  0
    8.6965   -3.4750   23.7298 C   0  0  0  0  0  0  0  0  0  0  0  0
    7.4336   -3.2188   23.3706 N   0  0  0  0  0  0  0  0  0  0  0  0
    7.2908   -2.4705   22.2719 C   0  0  0  0  0  0  0  0  0  0  0  0
    8.3419   -1.9648   21.5165 C   0  0  0  0  0  0  0  0  0  0  0  0
    8.0811   -1.1316   20.2888 C   0  0  0  0  0  0  0  0  0  0  0  0
    9.6301   -2.3018   21.9922 C   0  0  0  0  0  0  0  0  0  0  0  0
   10.7307   -1.8768   21.3488 N   0  0  0  0  0  0  0  0  0  0  0  0
   11.8946   -1.3060   22.0184 C   0  0  0  0  0  0  0  0  0  0  0  0
   11.4219   -0.3559   23.0354 C   0  0  0  0  0  0  0  0  0  0  0  0
   12.5393    0.2768   23.8244 C   0  0  0  0  0  0  0  0  0  0  0  0
   13.5430   -0.7364   24.2934 C   0  0  0  0  0  0  0  0  0  0  0  0
   14.3112   -0.6146   25.3730 N   0  0  0  0  0  0  0  0  0  0  0  0
   14.8986   -1.8329   25.4854 N   0  0  0  0  0  0  0  0  0  0  0  0
   14.5343   -2.7001   24.5335 C   0  0  0  0  0  0  0  0  0  0  0  0
   13.6419   -2.0389   23.7159 C   0  0  0  0  0  0  0  0  0  0  0  0
   12.7474   -2.4457   22.5685 C   0  0  0  0  0  0  0  0  0  0  0  0
    9.7917   -3.0506   23.0925 N   0  0  0  0  0  0  0  0  0  0  0  0
  1  2  1  0
  2  3  2  0
  3  4  1  0
  4  5  2  0
  5  6  1  0
  5  7  1  0
  7  8  1  0
  9  8  1  0
  9 10  1  0
 10 11  1  0
 11 12  1  0
 12 13  2  0
 13 14  1  0
 14 15  1  0
 15 16  2  0
 16 17  1  0
  7 18  2  0
 18  2  1  0
 17  9  1  0
 16 12  1  0
M  END
