CVD-0000094|dock_bobby27042020.28|mol2|27|dock2
     RDKit          3D

 29 31  0  0  0  0  0  0  0  0999 V2000
   14.1350   -0.9455   22.6272 C   0  0  0  0  0  0  0  0  0  0  0  0
   12.7590   -0.6683   23.1377 C   0  0  0  0  0  0  0  0  0  0  0  0
   11.5324   -1.0769   22.7939 C   0  0  0  0  0  0  0  0  0  0  0  0
   10.6620   -0.4374   23.6825 C   0  0  0  0  0  0  0  0  0  0  0  0
    9.1709   -0.5375   23.7478 C   0  0  0  0  0  0  0  0  0  0  0  0
    8.6239   -1.3707   22.6911 N   0  0  0  0  0  0  0  0  0  0  0  0
    8.6237   -2.8220   22.9185 C   0  0  0  0  0  0  0  0  0  0  0  0
    7.2547   -3.3413   23.3385 C   0  0  0  0  0  0  0  0  0  0  0  0
    7.0237   -5.0466   22.9132 S   0  0  0  0  0  0  0  0  0  0  0  0
    6.9703   -5.1408   21.4802 O   0  0  0  0  0  0  0  0  0  0  0  0
    8.0227   -5.8195   23.5983 O   0  0  0  0  0  0  0  0  0  0  0  0
    5.4106   -5.4658   23.5719 C   0  0  0  0  0  0  0  0  0  0  0  0
    5.4075   -5.7678   25.0703 C   0  0  0  0  0  0  0  0  0  0  0  0
    4.0014   -6.1028   25.5672 C   0  0  0  0  0  0  0  0  0  0  0  0
    3.4031   -7.2574   24.7876 C   0  0  0  0  0  0  0  0  0  0  0  0
    3.4085   -6.9838   23.2976 C   0  0  0  0  0  0  0  0  0  0  0  0
    4.8073   -6.6394   22.7964 C   0  0  0  0  0  0  0  0  0  0  0  0
    8.1547   -0.7842   21.5530 C   0  0  0  0  0  0  0  0  0  0  0  0
    8.3124    0.4193   21.3887 O   0  0  0  0  0  0  0  0  0  0  0  0
    7.5262   -1.5347   20.6275 N   0  0  0  0  0  0  0  0  0  0  0  0
    6.9419   -0.9281   19.4365 C   0  0  0  0  0  0  0  0  0  0  0  0
    5.8905   -1.6523   18.6468 C   0  0  0  0  0  0  0  0  0  0  0  0
    5.5045   -0.4417   19.4926 C   0  0  0  0  0  0  0  0  0  0  0  0
    5.1611    0.8727   18.7871 C   0  0  0  0  0  0  0  0  0  0  0  0
    5.4108    2.1236   19.6181 C   0  0  0  0  0  0  0  0  0  0  0  0
    4.5569    2.2039   20.8547 C   0  0  0  0  0  0  0  0  0  0  0  0
    2.8287    2.0382   20.4534 Cl  0  0  0  0  0  0  0  0  0  0  0  0
   11.3059    0.3179   24.5219 N   0  0  0  0  0  0  0  0  0  0  0  0
   12.6738    0.1791   24.1809 O   0  0  0  0  0  0  0  0  0  0  0  0
  1  2  1  0
  2  3  2  0
  3  4  1  0
  4  5  1  0
  5  6  1  0
  6  7  1  0
  7  8  1  0
  8  9  1  0
  9 10  2  0
  9 11  2  0
  9 12  1  0
 12 13  1  0
 13 14  1  0
 14 15  1  0
 15 16  1  0
 16 17  1  0
  6 18  1  0
 18 19  2  0
 18 20  1  0
 21 20  1  0
 21 22  1  0
 22 23  1  0
 23 24  1  0
 24 25  1  0
 25 26  1  0
 26 27  1  0
  4 28  2  0
 28 29  1  0
 29  2  1  0
 17 12  1  0
 23 21  1  0
M  END
