CVD-0000947|dock_bobby27042020.25|mol2|33|dock2
     RDKit          3D

 19 22  0  0  0  0  0  0  0  0999 V2000
    4.6849    1.0009   20.0416 N   0  0  0  0  0  0  0  0  0  0  0  0
    5.8725    0.6555   19.5612 C   0  0  0  0  0  0  0  0  0  0  0  0
    6.1518    0.6868   18.3573 O   0  0  0  0  0  0  0  0  0  0  0  0
    6.9161    0.2087   20.5265 C   0  0  0  0  0  0  0  0  0  0  0  0
    6.9965    0.4145   21.8809 C   0  0  0  0  0  0  0  0  0  0  0  0
    8.1344   -0.1531   22.5045 C   0  0  0  0  0  0  0  0  0  0  0  0
    8.5254   -0.1078   23.9625 C   0  0  0  0  0  0  0  0  0  0  0  0
    7.1634   -0.6956   24.9801 Cl  0  0  0  0  0  0  0  0  0  0  0  0
    9.8039   -0.8647   24.3185 C   0  0  0  0  0  0  0  0  0  0  0  0
   10.7460   -0.7085   23.1261 C   0  0  0  0  0  0  0  0  0  0  0  0
   10.1468   -1.4863   21.9675 C   0  0  0  0  0  0  0  0  0  0  0  0
   11.2887   -1.6536   21.0740 N   0  0  0  0  0  0  0  0  0  0  0  0
   12.4179   -1.6299   21.7858 C   0  0  0  0  0  0  0  0  0  0  0  0
   12.1736   -1.2033   23.0730 C   0  0  0  0  0  0  0  0  0  0  0  0
   13.1142   -1.1260   24.2431 C   0  0  0  0  0  0  0  0  0  0  0  0
   12.9997   -2.3736   25.0458 C   0  0  0  0  0  0  0  0  0  0  0  0
   14.2628   -2.0780   24.3397 C   0  0  0  0  0  0  0  0  0  0  0  0
    8.8859   -0.7869   21.5566 C   0  0  0  0  0  0  0  0  0  0  0  0
    8.2628   -0.7111   19.9423 S   0  0  0  0  0  0  0  0  0  0  0  0
  1  2  1  0
  2  3  2  0
  2  4  1  0
  4  5  2  0
  5  6  1  0
  6  7  1  0
  7  8  1  0
  7  9  1  0
  9 10  1  0
 10 11  1  0
 11 12  1  0
 12 13  1  0
 13 14  2  0
 14 15  1  0
 15 16  1  0
 16 17  1  0
 11 18  1  0
 18 19  1  0
 19  4  1  0
 18  6  2  0
 14 10  1  0
 17 15  1  0
M  END
