CVD-0001362|dock_bobby27042020.53|mol2|2|dock2
     RDKit          3D

 39 44  0  0  0  0  0  0  0  0999 V2000
    8.1568   -6.5068   24.1404 O   0  0  0  0  0  0  0  0  0  0  0  0
    7.5672   -5.7912   23.1879 C   0  0  0  0  0  0  0  0  0  0  0  0
    6.7586   -6.4878   22.2513 C   0  0  0  0  0  0  0  0  0  0  0  0
    6.1260   -5.8200   21.2514 C   0  0  0  0  0  0  0  0  0  0  0  0
    6.2645   -4.4137   21.1279 C   0  0  0  0  0  0  0  0  0  0  0  0
    5.7540   -3.5315   20.2453 N   0  0  0  0  0  0  0  0  0  0  0  0
    6.2518   -2.3577   20.6576 N   0  0  0  0  0  0  0  0  0  0  0  0
    7.0462   -2.3902   21.7356 N   0  0  0  0  0  0  0  0  0  0  0  0
    7.0617   -3.7007   22.0455 C   0  0  0  0  0  0  0  0  0  0  0  0
    7.7052   -4.4299   23.0738 C   0  0  0  0  0  0  0  0  0  0  0  0
    5.9333   -1.1393   19.9590 C   0  0  0  0  0  0  0  0  0  0  0  0
    6.0323    0.0517   20.6748 C   0  0  0  0  0  0  0  0  0  0  0  0
    5.7275    1.2847   20.0925 C   0  0  0  0  0  0  0  0  0  0  0  0
    5.8414    2.5470   20.9094 C   0  0  0  0  0  0  0  0  0  0  0  0
    4.8267    3.2010   21.0986 O   0  0  0  0  0  0  0  0  0  0  0  0
    7.1319    3.0494   21.5059 C   0  0  0  0  0  0  0  0  0  0  0  0
    8.1990    2.1671   21.6919 C   0  0  0  0  0  0  0  0  0  0  0  0
    9.4209    2.5736   22.2267 C   0  0  0  0  0  0  0  0  0  0  0  0
    9.6209    3.9479   22.5146 C   0  0  0  0  0  0  0  0  0  0  0  0
   10.8737    4.6031   22.9186 C   0  0  0  0  0  0  0  0  0  0  0  0
   11.0319    5.7641   23.2201 O   0  0  0  0  0  0  0  0  0  0  0  0
    8.5220    4.8100   22.3963 C   0  0  0  0  0  0  0  0  0  0  0  0
    7.2982    4.3910   21.9057 C   0  0  0  0  0  0  0  0  0  0  0  0
    6.3220    5.3369   21.8381 O   0  0  0  0  0  0  0  0  0  0  0  0
   10.3871    1.5307   22.4543 N   0  0  0  0  0  0  0  0  0  0  0  0
   10.5699    0.5056   21.6124 N   0  0  0  0  0  0  0  0  0  0  0  0
   11.5884   -0.1800   22.1693 C   0  0  0  0  0  0  0  0  0  0  0  0
   12.2600   -1.3664   21.7778 C   0  0  0  0  0  0  0  0  0  0  0  0
   13.2782   -1.8600   22.5300 C   0  0  0  0  0  0  0  0  0  0  0  0
   13.6867   -1.1979   23.7180 C   0  0  0  0  0  0  0  0  0  0  0  0
   14.6894   -1.7355   24.4055 O   0  0  0  0  0  0  0  0  0  0  0  0
   13.0406   -0.0490   24.1022 C   0  0  0  0  0  0  0  0  0  0  0  0
   11.9759    0.4943   23.3442 C   0  0  0  0  0  0  0  0  0  0  0  0
   11.2055    1.5858   23.5131 N   0  0  0  0  0  0  0  0  0  0  0  0
    5.3333    1.3046   18.7376 C   0  0  0  0  0  0  0  0  0  0  0  0
    5.0151    2.4365   18.0518 O   0  0  0  0  0  0  0  0  0  0  0  0
    5.2485    0.1194   18.0266 C   0  0  0  0  0  0  0  0  0  0  0  0
    5.5377   -1.0982   18.6182 C   0  0  0  0  0  0  0  0  0  0  0  0
    5.4232   -2.2189   17.8585 O   0  0  0  0  0  0  0  0  0  0  0  0
  1  2  1  0
  2  3  1  0
  3  4  2  0
  4  5  1  0
  5  6  2  0
  6  7  1  0
  7  8  1  0
  8  9  2  0
  9 10  1  0
  7 11  1  0
 11 12  2  0
 12 13  1  0
 13 14  1  0
 14 15  2  0
 14 16  1  0
 16 17  2  0
 17 18  1  0
 18 19  2  0
 19 20  1  0
 20 21  2  0
 19 22  1  0
 22 23  2  0
 23 24  1  0
 18 25  1  0
 25 26  1  0
 26 27  2  0
 27 28  1  0
 28 29  2  0
 29 30  1  0
 30 31  1  0
 30 32  2  0
 32 33  1  0
 33 34  2  0
 13 35  2  0
 35 36  1  0
 35 37  1  0
 37 38  2  0
 38 39  1  0
 10  2  2  0
 38 11  1  0
  9  5  1  0
 23 16  1  0
 34 25  1  0
 33 27  1  0
M  END
