CVD-0002253|dock_bobby27042020.64|mol2|9|dock2
     RDKit          3D

 26 28  0  0  0  0  0  0  0  0999 V2000
    5.8225   -0.6946   19.6642 C   0  0  0  0  0  0  0  0  0  0  0  0
    5.9681   -2.1518   19.9906 C   0  0  0  0  0  0  0  0  0  0  0  0
    5.3803   -3.0033   19.3327 O   0  0  0  0  0  0  0  0  0  0  0  0
    6.7746   -2.3938   21.0573 N   0  0  0  0  0  0  0  0  0  0  0  0
    7.1568   -3.6098   21.6910 C   0  0  0  0  0  0  0  0  0  0  0  0
    6.8605   -4.8703   21.1727 C   0  0  0  0  0  0  0  0  0  0  0  0
    7.2282   -6.0215   21.7407 N   0  0  0  0  0  0  0  0  0  0  0  0
    7.9023   -5.9577   22.8841 C   0  0  0  0  0  0  0  0  0  0  0  0
    8.2369   -4.7747   23.5047 C   0  0  0  0  0  0  0  0  0  0  0  0
    7.8813   -3.5616   22.9099 C   0  0  0  0  0  0  0  0  0  0  0  0
    8.2573   -2.2582   23.5807 C   0  0  0  0  0  0  0  0  0  0  0  0
    7.6457   -1.9412   24.5868 O   0  0  0  0  0  0  0  0  0  0  0  0
    9.2261   -1.4395   23.1119 N   0  0  0  0  0  0  0  0  0  0  0  0
    9.5378   -0.2005   23.8054 C   0  0  0  0  0  0  0  0  0  0  0  0
   11.0039   -0.1102   24.0906 C   0  0  0  0  0  0  0  0  0  0  0  0
   11.7471   -0.2567   22.8310 N   0  0  0  0  0  0  0  0  0  0  0  0
   11.4793   -1.5512   22.1870 C   0  0  0  0  0  0  0  0  0  0  0  0
   10.0120   -1.6574   21.8934 C   0  0  0  0  0  0  0  0  0  0  0  0
   13.2596    0.3222   22.7926 S   0  0  0  0  0  0  0  0  0  0  0  0
   13.8128    0.1560   24.0999 O   0  0  0  0  0  0  0  0  0  0  0  0
   13.9138   -0.2693   21.6680 O   0  0  0  0  0  0  0  0  0  0  0  0
   13.1604    2.0334   22.4892 C   0  0  0  0  0  0  0  0  0  0  0  0
   14.2807    2.8966   22.2393 C   0  0  0  0  0  0  0  0  0  0  0  0
   13.9207    4.2006   22.0385 C   0  0  0  0  0  0  0  0  0  0  0  0
   12.2360    4.4017   22.1482 S   0  0  0  0  0  0  0  0  0  0  0  0
   12.0299    2.7488   22.4627 C   0  0  0  0  0  0  0  0  0  0  0  0
  1  2  1  0
  2  3  2  0
  2  4  1  0
  4  5  1  0
  5  6  2  0
  6  7  1  0
  7  8  2  0
  8  9  1  0
  9 10  2  0
 10 11  1  0
 11 12  2  0
 11 13  1  0
 13 14  1  0
 14 15  1  0
 15 16  1  0
 16 17  1  0
 17 18  1  0
 16 19  1  0
 19 20  2  0
 19 21  2  0
 19 22  1  0
 22 23  1  0
 23 24  2  0
 24 25  1  0
 25 26  1  0
 10  5  1  0
 18 13  1  0
 26 22  2  0
M  END
