CVD-0001890|dock_bobby27042020.65|mol2|34|dock3
     RDKit          3D

 33 35  0  0  0  0  0  0  0  0999 V2000
   14.2927    6.0776   22.0922 C   0  0  0  0  0  0  0  0  0  0  0  0
   13.1074    6.2005   22.8759 O   0  0  0  0  0  0  0  0  0  0  0  0
   12.1090    5.2641   22.7725 C   0  0  0  0  0  0  0  0  0  0  0  0
   12.4606    3.9703   22.4402 C   0  0  0  0  0  0  0  0  0  0  0  0
   11.4951    2.9870   22.3224 C   0  0  0  0  0  0  0  0  0  0  0  0
   10.1473    3.2828   22.5383 C   0  0  0  0  0  0  0  0  0  0  0  0
    9.1210    2.3019   22.4285 N   0  0  0  0  0  0  0  0  0  0  0  0
    8.9586    1.2816   21.5472 C   0  0  0  0  0  0  0  0  0  0  0  0
    9.7085    0.9898   20.6204 O   0  0  0  0  0  0  0  0  0  0  0  0
    7.6863    0.4420   21.7846 C   0  0  0  0  0  0  0  0  0  0  0  0
    8.0653   -0.9253   22.2335 N   0  0  0  0  0  0  0  0  0  0  0  0
    7.1074   -1.9214   22.1223 C   0  0  0  0  0  0  0  0  0  0  0  0
    5.9910   -1.6703   21.6702 O   0  0  0  0  0  0  0  0  0  0  0  0
    7.3843   -3.3238   22.5530 C   0  0  0  0  0  0  0  0  0  0  0  0
    6.4529   -4.2377   22.4825 C   0  0  0  0  0  0  0  0  0  0  0  0
    9.3478   -1.2249   22.8036 C   0  0  0  0  0  0  0  0  0  0  0  0
    9.6457   -0.8050   24.0941 C   0  0  0  0  0  0  0  0  0  0  0  0
   10.8793   -1.0861   24.6513 C   0  0  0  0  0  0  0  0  0  0  0  0
   11.8035   -1.7901   23.9008 C   0  0  0  0  0  0  0  0  0  0  0  0
   11.5373   -2.2061   22.6574 N   0  0  0  0  0  0  0  0  0  0  0  0
   10.3359   -1.9322   22.1349 C   0  0  0  0  0  0  0  0  0  0  0  0
   13.1700   -2.1218   24.4480 C   0  0  0  0  0  0  0  0  0  0  0  0
   13.6880   -0.9918   25.3368 C   0  0  0  0  0  0  0  0  0  0  0  0
   14.1636   -2.3705   23.3139 C   0  0  0  0  0  0  0  0  0  0  0  0
    6.7854    0.5228   20.5592 C   0  0  0  0  0  0  0  0  0  0  0  0
    5.5454    1.1446   20.5839 C   0  0  0  0  0  0  0  0  0  0  0  0
    4.7688    1.1766   19.4386 C   0  0  0  0  0  0  0  0  0  0  0  0
    5.2586    0.5863   18.2956 C   0  0  0  0  0  0  0  0  0  0  0  0
    6.4471   -0.0162   18.2366 N   0  0  0  0  0  0  0  0  0  0  0  0
    7.1786   -0.0374   19.3548 C   0  0  0  0  0  0  0  0  0  0  0  0
    9.7859    4.6011   22.8775 C   0  0  0  0  0  0  0  0  0  0  0  0
    8.3629    5.0298   23.1285 C   0  0  0  0  0  0  0  0  0  0  0  0
   10.7754    5.5742   22.9889 C   0  0  0  0  0  0  0  0  0  0  0  0
  1  2  1  0
  2  3  1  0
  3  4  2  0
  4  5  1  0
  5  6  2  0
  6  7  1  0
  7  8  1  0
  8  9  2  0
  8 10  1  0
 10 11  1  0
 11 12  1  0
 12 13  2  0
 12 14  1  0
 14 15  2  0
 11 16  1  0
 16 17  2  0
 17 18  1  0
 18 19  2  0
 19 20  1  0
 20 21  2  0
 19 22  1  0
 22 23  1  0
 22 24  1  0
 10 25  1  0
 25 26  2  0
 26 27  1  0
 27 28  2  0
 28 29  1  0
 29 30  2  0
  6 31  1  0
 31 32  1  0
 31 33  2  0
 33  3  1  0
 21 16  1  0
 30 25  1  0
M  END
