CVD-0002733|dock_bobby27042020.62|mol2|9|dock2
     RDKit          3D

 25 27  0  0  0  0  0  0  0  0999 V2000
   14.1291    5.6632   21.8487 Cl  0  0  0  0  0  0  0  0  0  0  0  0
   13.1956    4.5155   22.8176 C   0  0  0  0  0  0  0  0  0  0  0  0
   12.3540    3.5941   21.9623 C   0  0  0  0  0  0  0  0  0  0  0  0
   12.5259    3.5377   20.7479 O   0  0  0  0  0  0  0  0  0  0  0  0
   11.4328    2.8727   22.6746 N   0  0  0  0  0  0  0  0  0  0  0  0
   10.5179    1.9450   22.1849 C   0  0  0  0  0  0  0  0  0  0  0  0
    9.3779    2.4187   21.7073 N   0  0  0  0  0  0  0  0  0  0  0  0
    8.4370    1.6231   21.1362 C   0  0  0  0  0  0  0  0  0  0  0  0
    7.3771    2.0695   20.6938 O   0  0  0  0  0  0  0  0  0  0  0  0
    8.6884    0.2571   21.0443 N   0  0  0  0  0  0  0  0  0  0  0  0
    7.6966   -0.6323   20.4287 C   0  0  0  0  0  0  0  0  0  0  0  0
    6.5956    0.1186   19.7191 C   0  0  0  0  0  0  0  0  0  0  0  0
    6.7987    0.6421   18.4516 C   0  0  0  0  0  0  0  0  0  0  0  0
    5.7899    1.3338   17.8019 C   0  0  0  0  0  0  0  0  0  0  0  0
    4.5672    1.5104   18.4129 C   0  0  0  0  0  0  0  0  0  0  0  0
    4.3530    0.9959   19.6736 C   0  0  0  0  0  0  0  0  0  0  0  0
    5.3618    0.3043   20.3231 C   0  0  0  0  0  0  0  0  0  0  0  0
    9.8449   -0.2503   21.5687 C   0  0  0  0  0  0  0  0  0  0  0  0
   10.7953    0.5207   22.1690 C   0  0  0  0  0  0  0  0  0  0  0  0
   11.9851   -0.1711   22.7378 C   0  0  0  0  0  0  0  0  0  0  0  0
   12.6603   -1.1973   22.0844 C   0  0  0  0  0  0  0  0  0  0  0  0
   13.7503   -1.8052   22.6823 C   0  0  0  0  0  0  0  0  0  0  0  0
   14.1563   -1.3579   23.9177 C   0  0  0  0  0  0  0  0  0  0  0  0
   13.5509   -0.3619   24.5639 N   0  0  0  0  0  0  0  0  0  0  0  0
   12.4935    0.2049   23.9749 C   0  0  0  0  0  0  0  0  0  0  0  0
  1  2  1  0
  2  3  1  0
  3  4  2  0
  3  5  1  0
  5  6  1  0
  6  7  2  0
  7  8  1  0
  8  9  2  0
  8 10  1  0
 10 11  1  0
 11 12  1  0
 12 13  2  0
 13 14  1  0
 14 15  2  0
 15 16  1  0
 16 17  2  0
 10 18  1  0
 18 19  2  0
 19 20  1  0
 20 21  2  0
 21 22  1  0
 22 23  2  0
 23 24  1  0
 24 25  2  0
 19  6  1  0
 25 20  1  0
 17 12  1  0
M  END
