CVD-0001137|dock_bobby27042020.25|mol2|2|dock3
     RDKit          3D

 21 22  0  0  0  0  0  0  0  0999 V2000
    4.6276    0.4625   17.6331 C   0  0  0  0  0  0  0  0  0  0  0  0
    5.9811    0.5339   18.2571 C   0  0  0  0  0  0  0  0  0  0  0  0
    6.7784    1.4122   18.0705 O   0  0  0  0  0  0  0  0  0  0  0  0
    6.1696   -0.5388   19.0862 O   0  0  0  0  0  0  0  0  0  0  0  0
    7.3209   -0.7332   19.8147 C   0  0  0  0  0  0  0  0  0  0  0  0
    8.2825   -0.0024   19.8138 O   0  0  0  0  0  0  0  0  0  0  0  0
    7.2386   -1.9162   20.5788 N   0  0  0  0  0  0  0  0  0  0  0  0
    6.0964   -2.6717   20.5030 N   0  0  0  0  0  0  0  0  0  0  0  0
    6.3454   -3.6864   21.3239 C   0  0  0  0  0  0  0  0  0  0  0  0
    7.6000   -3.6172   21.9258 C   0  0  0  0  0  0  0  0  0  0  0  0
    8.1660   -2.4614   21.4305 C   0  0  0  0  0  0  0  0  0  0  0  0
    9.3955   -1.8451   21.6463 N   0  0  0  0  0  0  0  0  0  0  0  0
    9.7691   -1.1564   22.8070 C   0  0  0  0  0  0  0  0  0  0  0  0
    9.0155   -1.0345   23.7652 O   0  0  0  0  0  0  0  0  0  0  0  0
   11.0340   -0.5960   22.8696 N   0  0  0  0  0  0  0  0  0  0  0  0
   11.5702    0.1190   24.0316 C   0  0  0  0  0  0  0  0  0  0  0  0
   13.0760    0.2901   23.9856 C   0  0  0  0  0  0  0  0  0  0  0  0
   13.8590   -1.0239   23.9101 C   0  0  0  0  0  0  0  0  0  0  0  0
   13.9990   -1.5481   22.4935 C   0  0  0  0  0  0  0  0  0  0  0  0
   12.6886   -1.8791   21.8168 C   0  0  0  0  0  0  0  0  0  0  0  0
   11.8226   -0.7141   21.7211 O   0  0  0  0  0  0  0  0  0  0  0  0
  1  2  1  0
  2  3  2  0
  2  4  1  0
  4  5  1  0
  5  6  2  0
  5  7  1  0
  7  8  1  0
  8  9  2  0
  9 10  1  0
 10 11  2  0
 11 12  1  0
 12 13  1  0
 13 14  2  0
 13 15  1  0
 15 16  1  0
 16 17  1  0
 17 18  1  0
 18 19  1  0
 19 20  1  0
 20 21  1  0
 11  7  1  0
 21 15  1  0
M  END
