CVD-0003546|dock_bobby27042020.87|mol2|32|dock2
     RDKit          3D

 22 24  0  0  0  0  0  0  0  0999 V2000
   11.9429   -3.0508   23.1508 O   0  0  0  0  0  0  0  0  0  0  0  0
   12.1017   -2.1372   22.3480 C   0  0  0  0  0  0  0  0  0  0  0  0
   13.4587   -1.4719   22.1967 C   0  0  0  0  0  0  0  0  0  0  0  0
   13.4380   -0.1043   22.6950 N   0  0  0  0  0  0  0  0  0  0  0  0
   12.6487    0.4062   23.6564 C   0  0  0  0  0  0  0  0  0  0  0  0
   12.9990    1.7165   23.8121 C   0  0  0  0  0  0  0  0  0  0  0  0
   14.0281    1.9201   22.9025 C   0  0  0  0  0  0  0  0  0  0  0  0
   14.3124    0.8190   22.2185 N   0  0  0  0  0  0  0  0  0  0  0  0
   11.1521   -1.6125   21.5356 N   0  0  0  0  0  0  0  0  0  0  0  0
    9.7807   -1.9288   21.3691 C   0  0  0  0  0  0  0  0  0  0  0  0
    9.1132   -2.8497   22.1723 C   0  0  0  0  0  0  0  0  0  0  0  0
    7.7715   -3.1134   21.9573 C   0  0  0  0  0  0  0  0  0  0  0  0
    7.0816   -2.4682   20.9465 C   0  0  0  0  0  0  0  0  0  0  0  0
    7.7402   -1.5497   20.1416 C   0  0  0  0  0  0  0  0  0  0  0  0
    9.0871   -1.2798   20.3521 C   0  0  0  0  0  0  0  0  0  0  0  0
    7.0482   -0.8602   19.0780 N   0  0  0  0  0  0  0  0  0  0  0  0
    5.9315   -1.3890   18.2678 C   0  0  0  0  0  0  0  0  0  0  0  0
    4.9339   -0.2286   18.2036 C   0  0  0  0  0  0  0  0  0  0  0  0
    5.7547    1.0112   17.8797 C   0  0  0  0  0  0  0  0  0  0  0  0
    7.3340    0.7221   18.6713 S   0  0  0  0  0  0  0  0  0  0  0  0
    7.4410    1.5047   19.8614 O   0  0  0  0  0  0  0  0  0  0  0  0
    8.3972    0.8174   17.7221 O   0  0  0  0  0  0  0  0  0  0  0  0
  1  2  2  0
  2  3  1  0
  3  4  1  0
  4  5  1  0
  5  6  2  0
  6  7  1  0
  7  8  2  0
  2  9  1  0
  9 10  1  0
 10 11  2  0
 11 12  1  0
 12 13  2  0
 13 14  1  0
 14 15  2  0
 14 16  1  0
 16 17  1  0
 17 18  1  0
 18 19  1  0
 19 20  1  0
 20 21  2  0
 20 22  2  0
  8  4  1  0
 15 10  1  0
 20 16  1  0
M  END
