CVD-0003411|dock_bobby27042020.31|mol2|5|dock3
     RDKit          3D

 29 31  0  0  0  0  0  0  0  0999 V2000
    6.6424   -5.4374   21.6429 C   0  0  0  0  0  0  0  0  0  0  0  0
    6.7175   -4.1587   22.4172 C   0  0  0  0  0  0  0  0  0  0  0  0
    7.6760   -3.2370   21.8305 N   0  0  0  0  0  0  0  0  0  0  0  0
    7.3053   -2.2460   21.0002 C   0  0  0  0  0  0  0  0  0  0  0  0
    6.3316   -2.6028   20.1402 N   0  0  0  0  0  0  0  0  0  0  0  0
    5.9249   -1.7037   19.2415 C   0  0  0  0  0  0  0  0  0  0  0  0
    6.4388   -0.4173   19.1617 C   0  0  0  0  0  0  0  0  0  0  0  0
    7.4239   -0.0325   20.0648 C   0  0  0  0  0  0  0  0  0  0  0  0
    7.8784   -0.9497   21.0141 C   0  0  0  0  0  0  0  0  0  0  0  0
    8.8763   -0.6170   21.9721 N   0  0  0  0  0  0  0  0  0  0  0  0
    9.3699    0.5851   22.3634 C   0  0  0  0  0  0  0  0  0  0  0  0
    9.0153    1.6760   21.9264 O   0  0  0  0  0  0  0  0  0  0  0  0
   10.4610    0.4781   23.4336 C   0  0  0  0  0  0  0  0  0  0  0  0
   10.9537    1.8224   23.6445 N   0  0  0  0  0  0  0  0  0  0  0  0
   12.0674    2.2692   23.0514 C   0  0  0  0  0  0  0  0  0  0  0  0
   12.7436    1.5613   22.2915 O   0  0  0  0  0  0  0  0  0  0  0  0
   12.4342    3.6684   23.3672 C   0  0  0  0  0  0  0  0  0  0  0  0
   13.4569    4.2638   22.8130 C   0  0  0  0  0  0  0  0  0  0  0  0
   11.5608   -0.4613   23.0254 C   0  0  0  0  0  0  0  0  0  0  0  0
   11.7785   -0.9860   21.7860 C   0  0  0  0  0  0  0  0  0  0  0  0
   12.8780   -1.8031   21.7949 N   0  0  0  0  0  0  0  0  0  0  0  0
   13.3973   -1.8217   23.0562 C   0  0  0  0  0  0  0  0  0  0  0  0
   14.4752   -2.5001   23.4845 N   0  0  0  0  0  0  0  0  0  0  0  0
   14.7899   -2.3562   24.7792 C   0  0  0  0  0  0  0  0  0  0  0  0
   14.0793   -1.5690   25.6599 C   0  0  0  0  0  0  0  0  0  0  0  0
   12.9700   -0.8759   25.2014 C   0  0  0  0  0  0  0  0  0  0  0  0
   12.6009   -0.9919   23.8629 C   0  0  0  0  0  0  0  0  0  0  0  0
    5.9624    0.5083   18.1635 C   0  0  0  0  0  0  0  0  0  0  0  0
    5.6157    1.2543   17.3710 N   0  0  0  0  0  0  0  0  0  0  0  0
  1  2  1  0
  2  3  1  0
  3  4  1  0
  4  5  2  0
  5  6  1  0
  6  7  2  0
  7  8  1  0
  8  9  2  0
  9 10  1  0
 10 11  1  0
 11 12  2  0
 11 13  1  0
 13 14  1  0
 14 15  1  0
 15 16  2  0
 15 17  1  0
 17 18  2  0
 13 19  1  0
 19 20  2  0
 20 21  1  0
 21 22  1  0
 22 23  2  0
 23 24  1  0
 24 25  2  0
 25 26  1  0
 26 27  2  0
  7 28  1  0
 28 29  3  0
  9  4  1  0
 27 19  1  0
 27 22  1  0
M  END
