CVD-0003038|dock_bobby27042020.32|mol2|17|dock1
     RDKit          3D

 20 22  0  0  0  0  0  0  0  0999 V2000
   13.5922   -1.6466   21.3351 Cl  0  0  0  0  0  0  0  0  0  0  0  0
   13.7055   -0.5930   22.7508 C   0  0  0  0  0  0  0  0  0  0  0  0
   12.6174    0.4625   22.7312 C   0  0  0  0  0  0  0  0  0  0  0  0
   12.8790    1.6522   22.6058 O   0  0  0  0  0  0  0  0  0  0  0  0
   11.3512    0.0193   22.8649 N   0  0  0  0  0  0  0  0  0  0  0  0
   10.1921    0.9144   22.8630 C   0  0  0  0  0  0  0  0  0  0  0  0
    9.1834    0.4733   21.8187 C   0  0  0  0  0  0  0  0  0  0  0  0
    8.7579   -0.9057   22.0750 N   0  0  0  0  0  0  0  0  0  0  0  0
    7.7543   -1.3232   21.0928 C   0  0  0  0  0  0  0  0  0  0  0  0
    6.5130   -0.4772   21.0935 C   0  0  0  0  0  0  0  0  0  0  0  0
    5.4620   -0.4012   22.4625 S   0  0  0  0  0  0  0  0  0  0  0  0
    4.3773    0.6941   21.7082 C   0  0  0  0  0  0  0  0  0  0  0  0
    4.7891    1.0092   20.4390 C   0  0  0  0  0  0  0  0  0  0  0  0
    4.1671    1.8769   19.4968 C   0  0  0  0  0  0  0  0  0  0  0  0
    4.7675    2.0394   18.2795 C   0  0  0  0  0  0  0  0  0  0  0  0
    5.9675    1.3731   17.9545 C   0  0  0  0  0  0  0  0  0  0  0  0
    6.6057    0.5277   18.8250 C   0  0  0  0  0  0  0  0  0  0  0  0
    6.0375    0.3237   20.0829 C   0  0  0  0  0  0  0  0  0  0  0  0
    9.9245   -1.7829   22.0186 C   0  0  0  0  0  0  0  0  0  0  0  0
   10.9523   -1.3782   23.0596 C   0  0  0  0  0  0  0  0  0  0  0  0
  1  2  1  0
  2  3  1  0
  3  4  2  0
  3  5  1  0
  5  6  1  0
  6  7  1  0
  7  8  1  0
  8  9  1  0
  9 10  1  0
 10 11  1  0
 11 12  1  0
 12 13  2  0
 13 14  1  0
 14 15  2  0
 15 16  1  0
 16 17  2  0
 17 18  1  0
  8 19  1  0
 19 20  1  0
 20  5  1  0
 18 10  2  0
 18 13  1  0
M  END
