CVD-0002132|dock_bobby27042020.50|mol2|10|dock1
     RDKit          3D

 20 20  0  0  0  0  0  0  0  0999 V2000
   12.8978    4.0818   23.5854 N   0  0  0  0  0  0  0  0  0  0  0  0
   13.1495    2.9915   22.4655 S   0  0  0  0  0  0  0  0  0  0  0  0
   14.5574    2.9025   22.2546 O   0  0  0  0  0  0  0  0  0  0  0  0
   12.2854    3.2869   21.3698 O   0  0  0  0  0  0  0  0  0  0  0  0
   12.6264    1.4543   23.1412 C   0  0  0  0  0  0  0  0  0  0  0  0
   11.6155    1.4403   23.8130 O   0  0  0  0  0  0  0  0  0  0  0  0
   13.3937    0.3934   22.8483 N   0  0  0  0  0  0  0  0  0  0  0  0
   13.1261   -0.9600   23.3134 C   0  0  0  0  0  0  0  0  0  0  0  0
   12.2978   -1.7467   22.3172 C   0  0  0  0  0  0  0  0  0  0  0  0
   10.8167   -1.6192   22.5776 C   0  0  0  0  0  0  0  0  0  0  0  0
   10.3822   -1.3591   23.6953 O   0  0  0  0  0  0  0  0  0  0  0  0
   10.0245   -1.8058   21.5255 N   0  0  0  0  0  0  0  0  0  0  0  0
    8.5895   -1.7148   21.6259 C   0  0  0  0  0  0  0  0  0  0  0  0
    7.9809   -1.2817   20.3617 N   0  0  0  0  0  0  0  0  0  0  0  0
    6.5861   -1.7304   20.2732 C   0  0  0  0  0  0  0  0  0  0  0  0
    5.9524   -1.3414   18.9521 C   0  0  0  0  0  0  0  0  0  0  0  0
    6.0211    0.1573   18.6852 C   0  0  0  0  0  0  0  0  0  0  0  0
    5.5458    0.5366   17.3907 O   0  0  0  0  0  0  0  0  0  0  0  0
    7.4617    0.6156   18.8827 C   0  0  0  0  0  0  0  0  0  0  0  0
    8.0301    0.1761   20.2217 C   0  0  0  0  0  0  0  0  0  0  0  0
  1  2  1  0
  2  3  2  0
  2  4  2  0
  2  5  1  0
  5  6  2  0
  5  7  1  0
  7  8  1  0
  8  9  1  0
  9 10  1  0
 10 11  2  0
 10 12  1  0
 12 13  1  0
 13 14  1  0
 14 15  1  0
 15 16  1  0
 16 17  1  0
 17 18  1  0
 17 19  1  0
 19 20  1  0
 20 14  1  0
M  END
