CVD-0000763|dock_bobby27042020.40|mol2|29|dock3
     RDKit          3D

 23 25  0  0  0  0  0  0  0  0999 V2000
   13.7629   -1.6551   25.2430 C   0  0  0  0  0  0  0  0  0  0  0  0
   13.7662   -1.2172   23.7859 C   0  0  0  0  0  0  0  0  0  0  0  0
   12.5875   -0.3765   23.3390 C   0  0  0  0  0  0  0  0  0  0  0  0
   12.6690    0.8970   22.9412 C   0  0  0  0  0  0  0  0  0  0  0  0
   11.6212    1.6400   22.5076 N   0  0  0  0  0  0  0  0  0  0  0  0
   11.7022    3.0511   22.1266 C   0  0  0  0  0  0  0  0  0  0  0  0
   12.2752    3.9057   23.2448 C   0  0  0  0  0  0  0  0  0  0  0  0
   12.5510    5.2829   22.8424 N   0  0  0  0  0  0  0  0  0  0  0  0
   12.5279    6.1755   23.9957 C   0  0  0  0  0  0  0  0  0  0  0  0
   13.8421    5.3793   22.1711 C   0  0  0  0  0  0  0  0  0  0  0  0
   10.2643    1.0611   22.4070 C   0  0  0  0  0  0  0  0  0  0  0  0
   10.3949   -0.4687   22.2458 C   0  0  0  0  0  0  0  0  0  0  0  0
   11.2500   -1.0752   23.3603 C   0  0  0  0  0  0  0  0  0  0  0  0
    9.0381   -1.1314   22.1330 C   0  0  0  0  0  0  0  0  0  0  0  0
    8.3347   -1.7621   23.2951 C   0  0  0  0  0  0  0  0  0  0  0  0
    8.9349   -2.6262   22.2289 C   0  0  0  0  0  0  0  0  0  0  0  0
    8.1558   -0.4781   21.1256 C   0  0  0  0  0  0  0  0  0  0  0  0
    7.1415    0.3996   21.4755 C   0  0  0  0  0  0  0  0  0  0  0  0
    6.3689    0.9595   20.4746 C   0  0  0  0  0  0  0  0  0  0  0  0
    6.6389    0.6214   19.1680 C   0  0  0  0  0  0  0  0  0  0  0  0
    5.6904    1.3038   17.8769 Cl  0  0  0  0  0  0  0  0  0  0  0  0
    7.6624   -0.2583   18.8931 C   0  0  0  0  0  0  0  0  0  0  0  0
    8.4156   -0.8055   19.8542 N   0  0  0  0  0  0  0  0  0  0  0  0
  1  2  1  0
  2  3  1  0
  3  4  2  0
  4  5  1  0
  5  6  1  0
  6  7  1  0
  7  8  1  0
  8  9  1  0
  8 10  1  0
  5 11  1  0
 11 12  1  0
 12 13  1  0
 12 14  1  0
 14 15  1  0
 15 16  1  0
 14 17  1  0
 17 18  2  0
 18 19  1  0
 19 20  2  0
 20 21  1  0
 20 22  1  0
 22 23  2  0
 13  3  1  0
 16 14  1  0
 23 17  1  0
M  END
