CVD-0002957|dock_bobby27042020.75|mol2|23|dock3
     RDKit          3D

 26 28  0  0  0  0  0  0  0  0999 V2000
    5.3356   -0.1300   22.1469 C   0  0  0  0  0  0  0  0  0  0  0  0
    5.4345    0.2868   20.7030 C   0  0  0  0  0  0  0  0  0  0  0  0
    4.3614    0.9451   20.1048 C   0  0  0  0  0  0  0  0  0  0  0  0
    4.4094    1.3488   18.7814 C   0  0  0  0  0  0  0  0  0  0  0  0
    5.5372    1.1007   18.0307 C   0  0  0  0  0  0  0  0  0  0  0  0
    6.6145    0.4493   18.6059 C   0  0  0  0  0  0  0  0  0  0  0  0
    6.5784    0.0374   19.9354 C   0  0  0  0  0  0  0  0  0  0  0  0
    7.7794   -0.6662   20.5241 C   0  0  0  0  0  0  0  0  0  0  0  0
    8.7361    0.2585   21.1471 N   0  0  0  0  0  0  0  0  0  0  0  0
    9.8955   -0.2283   21.6856 C   0  0  0  0  0  0  0  0  0  0  0  0
   10.8288    0.5568   22.2944 C   0  0  0  0  0  0  0  0  0  0  0  0
   12.0229   -0.1153   22.8773 C   0  0  0  0  0  0  0  0  0  0  0  0
   12.6452   -1.1478   22.1842 C   0  0  0  0  0  0  0  0  0  0  0  0
   13.7612   -1.7711   22.7141 C   0  0  0  0  0  0  0  0  0  0  0  0
   14.2334   -1.3447   23.9333 C   0  0  0  0  0  0  0  0  0  0  0  0
   13.6593   -0.3655   24.6319 N   0  0  0  0  0  0  0  0  0  0  0  0
   12.5718    0.2115   24.1115 C   0  0  0  0  0  0  0  0  0  0  0  0
   10.5314    1.9765   22.3045 C   0  0  0  0  0  0  0  0  0  0  0  0
   11.4278    2.9176   22.8024 N   0  0  0  0  0  0  0  0  0  0  0  0
   12.3674    3.6283   22.1035 C   0  0  0  0  0  0  0  0  0  0  0  0
   12.5757    3.5477   20.8961 O   0  0  0  0  0  0  0  0  0  0  0  0
   13.1706    4.5803   22.9623 C   0  0  0  0  0  0  0  0  0  0  0  0
   14.1339    5.7111   22.0029 Cl  0  0  0  0  0  0  0  0  0  0  0  0
    9.3904    2.4320   21.8128 N   0  0  0  0  0  0  0  0  0  0  0  0
    8.4658    1.6236   21.2327 C   0  0  0  0  0  0  0  0  0  0  0  0
    7.4091    2.0677   20.7806 O   0  0  0  0  0  0  0  0  0  0  0  0
  1  2  1  0
  2  3  2  0
  3  4  1  0
  4  5  2  0
  5  6  1  0
  6  7  2  0
  7  8  1  0
  8  9  1  0
  9 10  1  0
 10 11  2  0
 11 12  1  0
 12 13  2  0
 13 14  1  0
 14 15  2  0
 15 16  1  0
 16 17  2  0
 11 18  1  0
 18 19  1  0
 19 20  1  0
 20 21  2  0
 20 22  1  0
 22 23  1  0
 18 24  2  0
 24 25  1  0
 25 26  2  0
  7  2  1  0
 25  9  1  0
 17 12  1  0
M  END
