CVD-0003400|dock_bobby27042020.88|mol2|10|dock2
     RDKit          3D

 20 22  0  0  0  0  0  0  0  0999 V2000
    9.6746    1.1221   21.2350 O   0  0  0  0  0  0  0  0  0  0  0  0
    9.5231    0.4026   22.2166 C   0  0  0  0  0  0  0  0  0  0  0  0
   10.3555    0.6070   23.4632 C   0  0  0  0  0  0  0  0  0  0  0  0
   11.3268   -0.5436   23.7448 C   0  0  0  0  0  0  0  0  0  0  0  0
   12.1707   -0.8784   22.4979 C   0  0  0  0  0  0  0  0  0  0  0  0
   13.2003   -1.9740   22.7677 C   0  0  0  0  0  0  0  0  0  0  0  0
   14.0842   -1.6235   23.9577 C   0  0  0  0  0  0  0  0  0  0  0  0
   13.2481   -1.3251   25.1939 C   0  0  0  0  0  0  0  0  0  0  0  0
   12.2498   -0.2031   24.9272 C   0  0  0  0  0  0  0  0  0  0  0  0
    8.6432   -0.6234   22.3224 N   0  0  0  0  0  0  0  0  0  0  0  0
    7.6957   -1.1558   21.4156 C   0  0  0  0  0  0  0  0  0  0  0  0
    7.0211   -0.3735   20.4832 C   0  0  0  0  0  0  0  0  0  0  0  0
    6.1227   -0.8532   19.6169 N   0  0  0  0  0  0  0  0  0  0  0  0
    5.8454   -2.1426   19.6319 C   0  0  0  0  0  0  0  0  0  0  0  0
    6.4485   -3.0567   20.5188 C   0  0  0  0  0  0  0  0  0  0  0  0
    6.0939   -4.3784   20.4569 N   0  0  0  0  0  0  0  0  0  0  0  0
    6.6804   -5.2045   21.3037 C   0  0  0  0  0  0  0  0  0  0  0  0
    7.6186   -4.8280   22.2386 C   0  0  0  0  0  0  0  0  0  0  0  0
    7.9849   -3.5176   22.3162 C   0  0  0  0  0  0  0  0  0  0  0  0
    7.4035   -2.5605   21.4426 C   0  0  0  0  0  0  0  0  0  0  0  0
  1  2  2  0
  2  3  1  0
  3  4  1  0
  4  5  1  0
  5  6  1  0
  6  7  1  0
  7  8  1  0
  8  9  1  0
  2 10  1  0
 10 11  1  0
 11 12  2  0
 12 13  1  0
 13 14  2  0
 14 15  1  0
 15 16  2  0
 16 17  1  0
 17 18  2  0
 18 19  1  0
 19 20  2  0
  9  4  1  0
 20 11  1  0
 20 15  1  0
M  END
