CVD-0000246|dock_bobby27042020.28|mol2|4|dock2
     RDKit          3D

 24 26  0  0  0  0  0  0  0  0999 V2000
    7.7870   -1.2770   21.9882 C   0  0  0  0  0  0  0  0  0  0  0  0
    8.4078   -0.6107   20.7663 C   0  0  0  0  0  0  0  0  0  0  0  0
    9.3606    0.4067   21.2214 N   0  0  0  0  0  0  0  0  0  0  0  0
    8.9927    1.4452   21.9822 C   0  0  0  0  0  0  0  0  0  0  0  0
    7.8213    1.5745   22.3255 O   0  0  0  0  0  0  0  0  0  0  0  0
   10.0304    2.4509   22.4104 C   0  0  0  0  0  0  0  0  0  0  0  0
    9.5312    3.7321   22.6710 C   0  0  0  0  0  0  0  0  0  0  0  0
   10.3612    4.7624   23.0727 C   0  0  0  0  0  0  0  0  0  0  0  0
   11.7092    4.5436   23.2213 C   0  0  0  0  0  0  0  0  0  0  0  0
   12.2364    3.2911   22.9698 C   0  0  0  0  0  0  0  0  0  0  0  0
   11.4183    2.2380   22.5719 C   0  0  0  0  0  0  0  0  0  0  0  0
   11.8550    0.9573   22.3181 O   0  0  0  0  0  0  0  0  0  0  0  0
   12.8336    0.1497   23.0314 C   0  0  0  0  0  0  0  0  0  0  0  0
   12.4954    0.0625   24.5339 C   0  0  0  0  0  0  0  0  0  0  0  0
   13.4638   -0.8384   25.2980 C   0  0  0  0  0  0  0  0  0  0  0  0
   13.5486   -2.2224   24.6676 C   0  0  0  0  0  0  0  0  0  0  0  0
   13.9137   -2.1327   23.1929 C   0  0  0  0  0  0  0  0  0  0  0  0
   12.9192   -1.2635   22.4300 C   0  0  0  0  0  0  0  0  0  0  0  0
    7.3301    0.0091   19.8952 C   0  0  0  0  0  0  0  0  0  0  0  0
    7.4744    0.1814   18.5158 C   0  0  0  0  0  0  0  0  0  0  0  0
    6.5174    0.7257   17.7599 N   0  0  0  0  0  0  0  0  0  0  0  0
    5.4049    1.1003   18.3911 C   0  0  0  0  0  0  0  0  0  0  0  0
    5.2500    0.9344   19.7526 C   0  0  0  0  0  0  0  0  0  0  0  0
    6.2065    0.3892   20.5146 N   0  0  0  0  0  0  0  0  0  0  0  0
  1  2  1  0
  2  3  1  0
  3  4  1  0
  4  5  2  0
  4  6  1  0
  6  7  2  0
  7  8  1  0
  8  9  2  0
  9 10  1  0
 10 11  2  0
 11 12  1  0
 12 13  1  0
 13 14  1  0
 14 15  1  0
 15 16  1  0
 16 17  1  0
 17 18  1  0
  2 19  1  0
 19 20  2  0
 20 21  1  0
 21 22  2  0
 22 23  1  0
 23 24  2  0
 11  6  1  0
 18 13  1  0
 24 19  1  0
M  END
