CVD-0001208|dock_bobby27042020.67|mol2|46|dock3
     RDKit          3D

 28 31  0  0  0  0  0  0  0  0999 V2000
    9.6759    6.5606   22.9158 C   0  0  0  0  0  0  0  0  0  0  0  0
   11.0965    6.1028   23.0700 C   0  0  0  0  0  0  0  0  0  0  0  0
   11.7685    6.3920   24.0550 O   0  0  0  0  0  0  0  0  0  0  0  0
   11.5919    5.3767   22.0659 N   0  0  0  0  0  0  0  0  0  0  0  0
   12.9584    4.8744   22.0602 C   0  0  0  0  0  0  0  0  0  0  0  0
   13.1441    3.7300   23.0365 C   0  0  0  0  0  0  0  0  0  0  0  0
   12.1350    2.6343   22.8545 C   0  0  0  0  0  0  0  0  0  0  0  0
   10.7769    2.7370   22.9358 C   0  0  0  0  0  0  0  0  0  0  0  0
   10.1906    1.5212   22.7103 N   0  0  0  0  0  0  0  0  0  0  0  0
   11.1792    0.5977   22.4757 C   0  0  0  0  0  0  0  0  0  0  0  0
   11.0752   -0.7682   22.1983 C   0  0  0  0  0  0  0  0  0  0  0  0
    9.7323   -1.4503   22.1130 C   0  0  0  0  0  0  0  0  0  0  0  0
    9.1554   -1.4184   20.7833 N   0  0  0  0  0  0  0  0  0  0  0  0
    7.9504   -0.8060   20.4937 C   0  0  0  0  0  0  0  0  0  0  0  0
    6.9034   -0.8004   21.4135 C   0  0  0  0  0  0  0  0  0  0  0  0
    5.7014   -0.1823   21.1075 C   0  0  0  0  0  0  0  0  0  0  0  0
    5.5317    0.4390   19.8754 C   0  0  0  0  0  0  0  0  0  0  0  0
    4.3482    1.1668   19.3074 C   0  0  0  0  0  0  0  0  0  0  0  0
    4.8505    1.5628   18.0097 N   0  0  0  0  0  0  0  0  0  0  0  0
    6.1104    1.1652   17.7538 C   0  0  0  0  0  0  0  0  0  0  0  0
    6.7278    1.3988   16.7195 O   0  0  0  0  0  0  0  0  0  0  0  0
    6.5666    0.4372   18.9580 C   0  0  0  0  0  0  0  0  0  0  0  0
    7.7777   -0.1827   19.2600 C   0  0  0  0  0  0  0  0  0  0  0  0
   12.2530   -1.4792   21.9973 C   0  0  0  0  0  0  0  0  0  0  0  0
   13.4571   -0.8194   22.0804 C   0  0  0  0  0  0  0  0  0  0  0  0
   14.5937   -1.5397   21.8803 F   0  0  0  0  0  0  0  0  0  0  0  0
   13.5845    0.5229   22.3532 C   0  0  0  0  0  0  0  0  0  0  0  0
   12.4180    1.2590   22.5574 C   0  0  0  0  0  0  0  0  0  0  0  0
  1  2  1  0
  2  3  2  0
  2  4  1  0
  4  5  1  0
  5  6  1  0
  6  7  1  0
  7  8  2  0
  8  9  1  0
  9 10  1  0
 10 11  2  0
 11 12  1  0
 12 13  1  0
 13 14  1  0
 14 15  2  0
 15 16  1  0
 16 17  2  0
 17 18  1  0
 18 19  1  0
 19 20  1  0
 20 21  2  0
 20 22  1  0
 22 23  2  0
 11 24  1  0
 24 25  2  0
 25 26  1  0
 25 27  1  0
 27 28  2  0
 28  7  1  0
 28 10  1  0
 23 14  1  0
 22 17  1  0
M  END
