CVD-0003668|dock_bobby27042020.73|mol2|8|dock2
     RDKit          3D

 18 18  0  0  0  0  0  0  0  0999 V2000
   13.4776    4.9940   21.3776 C   0  0  0  0  0  0  0  0  0  0  0  0
   13.5486    4.4727   22.8058 C   0  0  0  0  0  0  0  0  0  0  0  0
   13.0356    5.5265   23.7768 C   0  0  0  0  0  0  0  0  0  0  0  0
   12.7529    3.2029   22.9411 C   0  0  0  0  0  0  0  0  0  0  0  0
   11.4305    3.0263   22.8854 C   0  0  0  0  0  0  0  0  0  0  0  0
   11.1726    1.6949   23.0626 O   0  0  0  0  0  0  0  0  0  0  0  0
   12.3857    1.1388   23.2178 C   0  0  0  0  0  0  0  0  0  0  0  0
   13.3776    1.9845   23.1562 N   0  0  0  0  0  0  0  0  0  0  0  0
   12.4291   -0.1838   23.4125 N   0  0  0  0  0  0  0  0  0  0  0  0
   13.6969   -0.8724   23.5903 C   0  0  0  0  0  0  0  0  0  0  0  0
   11.2164   -1.0049   23.3558 C   0  0  0  0  0  0  0  0  0  0  0  0
   10.8991   -1.4463   21.9370 C   0  0  0  0  0  0  0  0  0  0  0  0
    9.4635   -1.6682   21.7434 N   0  0  0  0  0  0  0  0  0  0  0  0
    8.7314   -0.6365   21.0269 C   0  0  0  0  0  0  0  0  0  0  0  0
    8.8728   -2.7588   22.2614 C   0  0  0  0  0  0  0  0  0  0  0  0
    9.4912   -3.6010   22.9001 O   0  0  0  0  0  0  0  0  0  0  0  0
    7.3829   -2.8774   22.0074 C   0  0  0  0  0  0  0  0  0  0  0  0
    6.8050   -4.5149   22.3418 Cl  0  0  0  0  0  0  0  0  0  0  0  0
  1  2  1  0
  2  3  1  0
  2  4  1  0
  4  5  2  0
  5  6  1  0
  6  7  1  0
  7  8  2  0
  7  9  1  0
  9 10  1  0
  9 11  1  0
 11 12  1  0
 12 13  1  0
 13 14  1  0
 13 15  1  0
 15 16  2  0
 15 17  1  0
 17 18  1  0
  8  4  1  0
M  END
