CVD-0002181|dock_bobby27042020.21|mol2|16|dock1
     RDKit          3D

 21 22  0  0  0  0  0  0  0  0999 V2000
    5.7324    2.7685   21.2634 C   0  0  0  0  0  0  0  0  0  0  0  0
    6.1042    1.7172   20.2493 C   0  0  0  0  0  0  0  0  0  0  0  0
    5.1751    1.3815   19.2690 C   0  0  0  0  0  0  0  0  0  0  0  0
    5.4868    0.4224   18.3314 C   0  0  0  0  0  0  0  0  0  0  0  0
    6.6519   -0.2183   18.3074 N   0  0  0  0  0  0  0  0  0  0  0  0
    7.5519    0.0945   19.2447 C   0  0  0  0  0  0  0  0  0  0  0  0
    7.3434    1.0485   20.2409 C   0  0  0  0  0  0  0  0  0  0  0  0
    8.3019    1.3804   21.2383 N   0  0  0  0  0  0  0  0  0  0  0  0
    9.3453    0.6654   21.7279 C   0  0  0  0  0  0  0  0  0  0  0  0
    9.6808   -0.4648   21.3869 O   0  0  0  0  0  0  0  0  0  0  0  0
   10.1835    1.4249   22.8506 C   0  0  0  0  0  0  0  0  0  0  0  0
   11.5181    0.3164   23.4329 S   0  0  0  0  0  0  0  0  0  0  0  0
   12.9000    1.4604   22.9728 C   0  0  0  0  0  0  0  0  0  0  0  0
   12.2244    2.6294   22.4375 N   0  0  0  0  0  0  0  0  0  0  0  0
   13.1068    3.7065   22.0436 C   0  0  0  0  0  0  0  0  0  0  0  0
   12.7341    5.2607   22.8743 S   0  0  0  0  0  0  0  0  0  0  0  0
   13.9340    6.4074   22.3053 C   0  0  0  0  0  0  0  0  0  0  0  0
   11.4310    5.6810   22.4312 O   0  0  0  0  0  0  0  0  0  0  0  0
   12.9170    5.0462   24.2855 O   0  0  0  0  0  0  0  0  0  0  0  0
   10.8964    2.6756   22.3366 C   0  0  0  0  0  0  0  0  0  0  0  0
   10.2385    3.5970   21.8924 O   0  0  0  0  0  0  0  0  0  0  0  0
  1  2  1  0
  2  3  2  0
  3  4  1  0
  4  5  2  0
  5  6  1  0
  6  7  2  0
  7  8  1  0
  8  9  1  0
  9 10  2  0
  9 11  1  0
 11 12  1  0
 12 13  1  0
 13 14  1  0
 14 15  1  0
 15 16  1  0
 16 17  1  0
 16 18  2  0
 16 19  2  0
 14 20  1  0
 20 21  2  0
  7  2  1  0
 20 11  1  0
M  END
