CVD-0003547|dock_bobby27042020.59|mol2|26|dock2
     RDKit          3D

 25 27  0  0  0  0  0  0  0  0999 V2000
   13.8756    5.8928   22.3461 N   0  0  0  0  0  0  0  0  0  0  0  0
   12.4820    5.2666   22.8244 S   0  0  0  0  0  0  0  0  0  0  0  0
   11.4736    5.7415   21.9252 O   0  0  0  0  0  0  0  0  0  0  0  0
   12.3496    5.5467   24.2226 O   0  0  0  0  0  0  0  0  0  0  0  0
   12.5657    3.5103   22.6436 C   0  0  0  0  0  0  0  0  0  0  0  0
   13.7947    2.8735   22.6340 C   0  0  0  0  0  0  0  0  0  0  0  0
   13.8420    1.4975   22.4942 C   0  0  0  0  0  0  0  0  0  0  0  0
   12.6757    0.7493   22.3633 C   0  0  0  0  0  0  0  0  0  0  0  0
   12.7597   -0.7522   22.2208 C   0  0  0  0  0  0  0  0  0  0  0  0
   12.1554   -1.4469   23.4591 C   0  0  0  0  0  0  0  0  0  0  0  0
   10.6295   -1.5627   23.5217 C   0  0  0  0  0  0  0  0  0  0  0  0
    9.9251   -0.2764   23.4355 N   0  0  0  0  0  0  0  0  0  0  0  0
    8.4985   -0.5146   23.6687 C   0  0  0  0  0  0  0  0  0  0  0  0
    7.8080   -1.3254   22.5848 C   0  0  0  0  0  0  0  0  0  0  0  0
    7.3737   -0.7782   21.5767 O   0  0  0  0  0  0  0  0  0  0  0  0
    7.7326   -2.6488   22.8655 N   0  0  0  0  0  0  0  0  0  0  0  0
    7.1703   -3.7232   22.1333 C   0  0  0  0  0  0  0  0  0  0  0  0
    7.3883   -5.0636   22.4346 C   0  0  0  0  0  0  0  0  0  0  0  0
    6.7904   -6.0381   21.6542 C   0  0  0  0  0  0  0  0  0  0  0  0
    5.9958   -5.6497   20.6002 C   0  0  0  0  0  0  0  0  0  0  0  0
    5.7687   -4.3740   20.2877 N   0  0  0  0  0  0  0  0  0  0  0  0
    6.3502   -3.4409   21.0469 C   0  0  0  0  0  0  0  0  0  0  0  0
   10.1476    0.6031   22.2866 C   0  0  0  0  0  0  0  0  0  0  0  0
   11.4332    1.3994   22.3739 C   0  0  0  0  0  0  0  0  0  0  0  0
   11.3930    2.7825   22.5147 C   0  0  0  0  0  0  0  0  0  0  0  0
  1  2  1  0
  2  3  2  0
  2  4  2  0
  2  5  1  0
  5  6  2  0
  6  7  1  0
  7  8  2  0
  8  9  1  0
  9 10  1  0
 10 11  1  0
 11 12  1  0
 12 13  1  0
 13 14  1  0
 14 15  2  0
 14 16  1  0
 16 17  1  0
 17 18  2  0
 18 19  1  0
 19 20  2  0
 20 21  1  0
 21 22  2  0
 12 23  1  0
 23 24  1  0
 24 25  2  0
 25  5  1  0
 24  8  1  0
 22 17  1  0
M  END
