CVD-0001675|dock_bobby27042020.66|mol2|24|dock3
     RDKit          3D

 15 15  0  0  0  0  0  0  0  0999 V2000
   12.7752   -0.2807   24.6722 C   0  0  0  0  0  0  0  0  0  0  0  0
   12.1574   -0.0718   23.2949 C   0  0  0  0  0  0  0  0  0  0  0  0
   13.0011   -0.7461   22.3032 N   0  0  0  0  0  0  0  0  0  0  0  0
   12.5217   -1.6277   21.4213 C   0  0  0  0  0  0  0  0  0  0  0  0
   11.3413   -1.9597   21.3513 O   0  0  0  0  0  0  0  0  0  0  0  0
   13.5623   -2.2203   20.4701 C   0  0  0  0  0  0  0  0  0  0  0  0
   14.3092   -1.2309   19.9275 F   0  0  0  0  0  0  0  0  0  0  0  0
   14.4100   -3.0230   21.1542 F   0  0  0  0  0  0  0  0  0  0  0  0
   12.0142    1.4035   22.9729 C   0  0  0  0  0  0  0  0  0  0  0  0
   10.7594    1.9779   22.8247 C   0  0  0  0  0  0  0  0  0  0  0  0
   10.6261    3.3241   22.5276 C   0  0  0  0  0  0  0  0  0  0  0  0
   11.7500    4.1179   22.3730 C   0  0  0  0  0  0  0  0  0  0  0  0
   12.9759    3.5292   22.5223 C   0  0  0  0  0  0  0  0  0  0  0  0
   14.0888    4.2971   22.3726 F   0  0  0  0  0  0  0  0  0  0  0  0
   13.1402    2.1979   22.8166 C   0  0  0  0  0  0  0  0  0  0  0  0
  2  1  1  0
  2  3  1  0
  3  4  1  0
  4  5  2  0
  4  6  1  0
  6  7  1  0
  6  8  1  0
  2  9  1  0
  9 10  2  0
 10 11  1  0
 11 12  2  0
 12 13  1  0
 13 14  1  0
 13 15  2  0
 15  9  1  0
M  END
