CVD-0002568|dock_bobby27042020.34|mol2|1|dock2
     RDKit          3D

 34 38  0  0  0  0  0  0  0  0999 V2000
   14.0568    3.7125   22.6751 O   0  0  0  0  0  0  0  0  0  0  0  0
   13.0534    3.4960   23.3474 C   0  0  0  0  0  0  0  0  0  0  0  0
   12.4295    4.4271   24.1456 N   0  0  0  0  0  0  0  0  0  0  0  0
   12.7392    5.7874   24.3999 C   0  0  0  0  0  0  0  0  0  0  0  0
   13.2669    6.5350   23.3531 C   0  0  0  0  0  0  0  0  0  0  0  0
   13.5919    7.8689   23.5328 C   0  0  0  0  0  0  0  0  0  0  0  0
   13.3954    8.4725   24.7548 C   0  0  0  0  0  0  0  0  0  0  0  0
   12.8732    7.7428   25.8000 C   0  0  0  0  0  0  0  0  0  0  0  0
   12.5442    6.4076   25.6324 C   0  0  0  0  0  0  0  0  0  0  0  0
   12.4023    2.2852   23.3935 N   0  0  0  0  0  0  0  0  0  0  0  0
   12.7125    1.0849   22.7043 C   0  0  0  0  0  0  0  0  0  0  0  0
   13.9956    0.7649   22.2660 C   0  0  0  0  0  0  0  0  0  0  0  0
   14.3230   -0.4058   21.7131 N   0  0  0  0  0  0  0  0  0  0  0  0
   13.3736   -1.3338   21.6311 C   0  0  0  0  0  0  0  0  0  0  0  0
   12.0587   -1.1134   21.9797 C   0  0  0  0  0  0  0  0  0  0  0  0
   11.6937    0.1409   22.4600 C   0  0  0  0  0  0  0  0  0  0  0  0
   10.3228    0.4363   22.6775 N   0  0  0  0  0  0  0  0  0  0  0  0
    9.5829    1.2146   21.6729 C   0  0  0  0  0  0  0  0  0  0  0  0
    8.3413    1.8467   22.2916 C   0  0  0  0  0  0  0  0  0  0  0  0
    7.5225    0.8698   22.9929 N   0  0  0  0  0  0  0  0  0  0  0  0
    8.2875    0.0613   23.9538 C   0  0  0  0  0  0  0  0  0  0  0  0
    9.4438   -0.6093   23.2605 C   0  0  0  0  0  0  0  0  0  0  0  0
    6.1888    0.6680   22.8991 C   0  0  0  0  0  0  0  0  0  0  0  0
    5.6370   -0.2033   23.5595 O   0  0  0  0  0  0  0  0  0  0  0  0
    5.3680    1.5264   21.9522 C   0  0  0  0  0  0  0  0  0  0  0  0
    5.5865    1.2017   20.5049 C   0  0  0  0  0  0  0  0  0  0  0  0
    5.6294    2.0781   19.4605 C   0  0  0  0  0  0  0  0  0  0  0  0
    5.8486    1.4137   18.2830 N   0  0  0  0  0  0  0  0  0  0  0  0
    5.9523    0.0800   18.5496 C   0  0  0  0  0  0  0  0  0  0  0  0
    6.1674   -0.9127   17.6698 N   0  0  0  0  0  0  0  0  0  0  0  0
    6.2304   -2.1513   18.1776 C   0  0  0  0  0  0  0  0  0  0  0  0
    6.0890   -2.4403   19.5181 C   0  0  0  0  0  0  0  0  0  0  0  0
    5.8677   -1.4043   20.4119 C   0  0  0  0  0  0  0  0  0  0  0  0
    5.7936   -0.0974   19.9343 C   0  0  0  0  0  0  0  0  0  0  0  0
  1  2  2  0
  2  3  1  0
  3  4  1  0
  4  5  2  0
  5  6  1  0
  6  7  2  0
  7  8  1  0
  8  9  2  0
  2 10  1  0
 10 11  1  0
 11 12  2  0
 12 13  1  0
 13 14  2  0
 14 15  1  0
 15 16  2  0
 16 17  1  0
 17 18  1  0
 18 19  1  0
 19 20  1  0
 20 21  1  0
 21 22  1  0
 20 23  1  0
 23 24  2  0
 23 25  1  0
 25 26  1  0
 26 27  2  0
 27 28  1  0
 28 29  1  0
 29 30  2  0
 30 31  1  0
 31 32  2  0
 32 33  1  0
 33 34  2  0
  9  4  1  0
 16 11  1  0
 22 17  1  0
 34 26  1  0
 34 29  1  0
M  END
