CVD-0003893|dock_bobby27042020.86|mol2|25|dock1
     RDKit          3D

 26 29  0  0  0  0  0  0  0  0999 V2000
   12.9104    4.3215   21.9660 Cl  0  0  0  0  0  0  0  0  0  0  0  0
   12.4235    3.8191   23.5901 C   0  0  0  0  0  0  0  0  0  0  0  0
   11.4192    2.6826   23.5709 C   0  0  0  0  0  0  0  0  0  0  0  0
   10.3239    2.8099   24.1034 O   0  0  0  0  0  0  0  0  0  0  0  0
   11.7598    1.5326   22.9470 N   0  0  0  0  0  0  0  0  0  0  0  0
   13.0528    1.2777   22.2971 C   0  0  0  0  0  0  0  0  0  0  0  0
   13.5640   -0.0974   22.6753 C   0  0  0  0  0  0  0  0  0  0  0  0
   12.5384   -1.1660   22.3194 C   0  0  0  0  0  0  0  0  0  0  0  0
   11.2103   -0.8416   22.9788 C   0  0  0  0  0  0  0  0  0  0  0  0
   10.7211    0.5522   22.6166 C   0  0  0  0  0  0  0  0  0  0  0  0
   10.1395   -1.8653   22.6138 C   0  0  0  0  0  0  0  0  0  0  0  0
    9.3352   -1.5438   21.6217 N   0  0  0  0  0  0  0  0  0  0  0  0
    8.3820   -2.4170   21.2675 C   0  0  0  0  0  0  0  0  0  0  0  0
    8.1493   -3.6051   21.8182 N   0  0  0  0  0  0  0  0  0  0  0  0
    8.9740   -3.9621   22.8505 C   0  0  0  0  0  0  0  0  0  0  0  0
    8.7892   -5.2122   23.4864 C   0  0  0  0  0  0  0  0  0  0  0  0
    9.6004   -5.5877   24.5172 C   0  0  0  0  0  0  0  0  0  0  0  0
   10.6137   -4.7624   24.9612 C   0  0  0  0  0  0  0  0  0  0  0  0
   10.8284   -3.5490   24.3783 C   0  0  0  0  0  0  0  0  0  0  0  0
   10.0130   -3.1124   23.3038 C   0  0  0  0  0  0  0  0  0  0  0  0
    7.4940   -2.0239   20.1491 C   0  0  0  0  0  0  0  0  0  0  0  0
    7.7021   -0.8474   19.4392 C   0  0  0  0  0  0  0  0  0  0  0  0
    6.8535   -0.5099   18.3996 C   0  0  0  0  0  0  0  0  0  0  0  0
    5.8156   -1.3616   18.0971 C   0  0  0  0  0  0  0  0  0  0  0  0
    5.5869   -2.4979   18.7571 N   0  0  0  0  0  0  0  0  0  0  0  0
    6.4166   -2.8076   19.7580 C   0  0  0  0  0  0  0  0  0  0  0  0
  1  2  1  0
  2  3  1  0
  3  4  2  0
  3  5  1  0
  5  6  1  0
  6  7  1  0
  7  8  1  0
  8  9  1  0
  9 10  1  0
  9 11  1  0
 11 12  2  0
 12 13  1  0
 13 14  2  0
 14 15  1  0
 15 16  2  0
 16 17  1  0
 17 18  2  0
 18 19  1  0
 19 20  2  0
 13 21  1  0
 21 22  2  0
 22 23  1  0
 23 24  2  0
 24 25  1  0
 25 26  2  0
 10  5  1  0
 20 11  1  0
 26 21  1  0
 20 15  1  0
M  END
