CVD-0003757|dock_bobby27042020.44|mol2|21|dock1
     RDKit          3D

 25 28  0  0  0  0  0  0  0  0999 V2000
   13.1402    5.4960   22.4699 C   0  0  0  0  0  0  0  0  0  0  0  0
   12.6015    4.1007   22.6456 C   0  0  0  0  0  0  0  0  0  0  0  0
   13.4702    3.0160   22.5831 C   0  0  0  0  0  0  0  0  0  0  0  0
   12.9876    1.7188   22.7392 C   0  0  0  0  0  0  0  0  0  0  0  0
   13.6654    0.5048   22.7180 N   0  0  0  0  0  0  0  0  0  0  0  0
   12.7280   -0.3877   22.9132 C   0  0  0  0  0  0  0  0  0  0  0  0
   11.4692    0.1285   23.0605 N   0  0  0  0  0  0  0  0  0  0  0  0
   11.6206    1.5171   22.9555 C   0  0  0  0  0  0  0  0  0  0  0  0
   10.7357    2.5928   23.0234 C   0  0  0  0  0  0  0  0  0  0  0  0
   11.2311    3.8857   22.8674 C   0  0  0  0  0  0  0  0  0  0  0  0
   10.2803    5.0515   22.9340 C   0  0  0  0  0  0  0  0  0  0  0  0
   10.2411   -0.7069   23.3041 C   0  0  0  0  0  0  0  0  0  0  0  0
    9.5982   -0.5115   24.6767 C   0  0  0  0  0  0  0  0  0  0  0  0
    8.3431   -1.3537   24.8219 C   0  0  0  0  0  0  0  0  0  0  0  0
    8.6203   -2.8189   24.5552 C   0  0  0  0  0  0  0  0  0  0  0  0
    9.2496   -3.0168   23.1861 C   0  0  0  0  0  0  0  0  0  0  0  0
   10.5122   -2.1829   23.0321 C   0  0  0  0  0  0  0  0  0  0  0  0
    9.3386   -0.1539   22.2718 C   0  0  0  0  0  0  0  0  0  0  0  0
    8.5474    0.2111   21.4620 C   0  0  0  0  0  0  0  0  0  0  0  0
    7.5503    0.6921   20.5268 C   0  0  0  0  0  0  0  0  0  0  0  0
    7.1798   -0.3964   19.4985 C   0  0  0  0  0  0  0  0  0  0  0  0
    6.0774    0.0558   18.5427 C   0  0  0  0  0  0  0  0  0  0  0  0
    4.8498    0.5419   19.3020 C   0  0  0  0  0  0  0  0  0  0  0  0
    5.2152    1.6380   20.2928 C   0  0  0  0  0  0  0  0  0  0  0  0
    6.2881    1.1649   21.2681 C   0  0  0  0  0  0  0  0  0  0  0  0
  1  2  1  0
  2  3  2  0
  3  4  1  0
  4  5  1  0
  5  6  2  0
  6  7  1  0
  7  8  1  0
  8  9  1  0
  9 10  2  0
 10 11  1  0
  7 12  1  0
 12 13  1  0
 13 14  1  0
 14 15  1  0
 15 16  1  0
 16 17  1  0
 12 18  1  0
 18 19  3  0
 19 20  1  0
 20 21  1  0
 21 22  1  0
 22 23  1  0
 23 24  1  0
 24 25  1  0
 10  2  1  0
 17 12  1  0
 25 20  1  0
  8  4  2  0
M  END
