CVD-0002464|dock_bobby27042020.77|mol2|17|dock3
     RDKit          3D

 21 23  0  0  0  0  0  0  0  0999 V2000
    2.5329    2.6705   21.0979 C   0  0  0  0  0  0  0  0  0  0  0  0
    3.9739    2.5434   20.8873 N   0  0  0  0  0  0  0  0  0  0  0  0
    4.2641    1.3467   20.0980 C   0  0  0  0  0  0  0  0  0  0  0  0
    5.7421    1.2680   19.7587 C   0  0  0  0  0  0  0  0  0  0  0  0
    6.5548    1.3110   20.9833 N   0  0  0  0  0  0  0  0  0  0  0  0
    6.2065    2.4031   21.9031 C   0  0  0  0  0  0  0  0  0  0  0  0
    4.7076    2.4355   22.1494 C   0  0  0  0  0  0  0  0  0  0  0  0
    7.6980    0.5433   21.1494 C   0  0  0  0  0  0  0  0  0  0  0  0
    8.9099    1.1289   21.5000 C   0  0  0  0  0  0  0  0  0  0  0  0
   10.0470    0.3586   21.6670 C   0  0  0  0  0  0  0  0  0  0  0  0
   10.0157   -1.0139   21.4882 C   0  0  0  0  0  0  0  0  0  0  0  0
   11.2608   -1.8493   21.6664 C   0  0  0  0  0  0  0  0  0  0  0  0
   12.1210   -1.3804   22.7628 N   0  0  0  0  0  0  0  0  0  0  0  0
   11.4138   -1.4494   24.0471 C   0  0  0  0  0  0  0  0  0  0  0  0
   12.2625   -0.9197   25.1862 C   0  0  0  0  0  0  0  0  0  0  0  0
   13.6015   -1.6374   25.3054 C   0  0  0  0  0  0  0  0  0  0  0  0
   14.4739   -1.0743   26.2889 O   0  0  0  0  0  0  0  0  0  0  0  0
   14.2695   -1.6400   23.9348 C   0  0  0  0  0  0  0  0  0  0  0  0
   13.3525   -2.1704   22.8454 C   0  0  0  0  0  0  0  0  0  0  0  0
    8.8106   -1.5971   21.1358 C   0  0  0  0  0  0  0  0  0  0  0  0
    7.6674   -0.8355   20.9702 C   0  0  0  0  0  0  0  0  0  0  0  0
  1  2  1  0
  2  3  1  0
  3  4  1  0
  4  5  1  0
  5  6  1  0
  6  7  1  0
  5  8  1  0
  8  9  2  0
  9 10  1  0
 10 11  2  0
 11 12  1  0
 12 13  1  0
 13 14  1  0
 14 15  1  0
 15 16  1  0
 16 17  1  0
 16 18  1  0
 18 19  1  0
 11 20  1  0
 20 21  2  0
  7  2  1  0
 21  8  1  0
 19 13  1  0
M  END
