CVD-0000429|dock_bobby27042020.84|mol2|20|dock2
     RDKit          3D

 30 32  0  0  0  0  0  0  0  0999 V2000
    4.1742    1.5863   19.2662 C   0  0  0  0  0  0  0  0  0  0  0  0
    3.9569    1.6893   20.7434 C   0  0  0  0  0  0  0  0  0  0  0  0
    4.7561    2.7553   21.3244 N   0  0  0  0  0  0  0  0  0  0  0  0
    6.0847    2.6440   21.5994 C   0  0  0  0  0  0  0  0  0  0  0  0
    6.7765    3.6597   22.2551 C   0  0  0  0  0  0  0  0  0  0  0  0
    8.1235    3.4698   22.4974 C   0  0  0  0  0  0  0  0  0  0  0  0
    8.7491    2.2914   22.0887 C   0  0  0  0  0  0  0  0  0  0  0  0
   10.1525    2.0963   22.3436 C   0  0  0  0  0  0  0  0  0  0  0  0
   11.2730    1.9673   22.5238 N   0  0  0  0  0  0  0  0  0  0  0  0
    7.9784    1.3207   21.4333 C   0  0  0  0  0  0  0  0  0  0  0  0
    8.5586    0.0116   20.9551 C   0  0  0  0  0  0  0  0  0  0  0  0
    7.6017   -0.9069   20.2174 C   0  0  0  0  0  0  0  0  0  0  0  0
    7.0475   -2.0016   20.8742 C   0  0  0  0  0  0  0  0  0  0  0  0
    6.1662   -2.8571   20.2238 C   0  0  0  0  0  0  0  0  0  0  0  0
    5.6054   -3.9449   20.8472 O   0  0  0  0  0  0  0  0  0  0  0  0
    6.2820   -4.5846   21.9243 C   0  0  0  0  0  0  0  0  0  0  0  0
    5.6083   -5.8876   22.2738 C   0  0  0  0  0  0  0  0  0  0  0  0
    6.2693   -6.9204   22.2572 O   0  0  0  0  0  0  0  0  0  0  0  0
    4.2909   -5.7885   22.5750 N   0  0  0  0  0  0  0  0  0  0  0  0
    3.3383   -6.7728   22.9374 C   0  0  0  0  0  0  0  0  0  0  0  0
    2.0484   -6.6801   22.4310 C   0  0  0  0  0  0  0  0  0  0  0  0
    1.1072   -7.6340   22.7756 C   0  0  0  0  0  0  0  0  0  0  0  0
    1.4824   -8.6546   23.6178 C   0  0  0  0  0  0  0  0  0  0  0  0
    2.7115   -8.7716   24.1204 N   0  0  0  0  0  0  0  0  0  0  0  0
    3.6142   -7.8455   23.7822 C   0  0  0  0  0  0  0  0  0  0  0  0
    5.8260   -2.6261   18.9021 C   0  0  0  0  0  0  0  0  0  0  0  0
    6.3651   -1.5432   18.2335 C   0  0  0  0  0  0  0  0  0  0  0  0
    7.2410   -0.7003   18.8934 C   0  0  0  0  0  0  0  0  0  0  0  0
    7.8980    0.6489   18.0262 Cl  0  0  0  0  0  0  0  0  0  0  0  0
    6.6712    1.5084   21.2016 N   0  0  0  0  0  0  0  0  0  0  0  0
  1  2  1  0
  2  3  1  0
  3  4  1  0
  4  5  2  0
  5  6  1  0
  6  7  2  0
  7  8  1  0
  8  9  3  0
  7 10  1  0
 10 11  1  0
 11 12  1  0
 12 13  2  0
 13 14  1  0
 14 15  1  0
 15 16  1  0
 16 17  1  0
 17 18  2  0
 17 19  1  0
 19 20  1  0
 20 21  2  0
 21 22  1  0
 22 23  2  0
 23 24  1  0
 24 25  2  0
 14 26  2  0
 26 27  1  0
 27 28  2  0
 28 29  1  0
 10 30  2  0
 30  4  1  0
 28 12  1  0
 25 20  1  0
M  END
