CVD-0003454|dock_bobby27042020.16|mol2|31|dock1
     RDKit          3D

 20 21  0  0  0  0  0  0  0  0999 V2000
    4.4102    1.5371   21.6041 C   0  0  0  0  0  0  0  0  0  0  0  0
    4.5677    1.4569   20.1615 N   0  0  0  0  0  0  0  0  0  0  0  0
    3.8679    2.4798   19.4022 C   0  0  0  0  0  0  0  0  0  0  0  0
    5.4412    0.5747   19.5701 C   0  0  0  0  0  0  0  0  0  0  0  0
    5.1104   -0.0935   18.4008 C   0  0  0  0  0  0  0  0  0  0  0  0
    5.9301   -0.9628   17.8045 N   0  0  0  0  0  0  0  0  0  0  0  0
    7.0859   -1.1602   18.3772 C   0  0  0  0  0  0  0  0  0  0  0  0
    7.8619   -2.0444   17.7321 F   0  0  0  0  0  0  0  0  0  0  0  0
    7.5770   -0.5812   19.5283 C   0  0  0  0  0  0  0  0  0  0  0  0
    8.8696   -0.9099   20.0166 N   0  0  0  0  0  0  0  0  0  0  0  0
    9.4451   -0.6370   21.2371 C   0  0  0  0  0  0  0  0  0  0  0  0
    8.8905   -0.0287   22.1461 O   0  0  0  0  0  0  0  0  0  0  0  0
   10.7260   -1.1364   21.3053 N   0  0  0  0  0  0  0  0  0  0  0  0
   11.6843   -1.0950   22.3499 C   0  0  0  0  0  0  0  0  0  0  0  0
   11.6415   -0.1868   23.4060 C   0  0  0  0  0  0  0  0  0  0  0  0
   12.6184   -0.2132   24.3877 C   0  0  0  0  0  0  0  0  0  0  0  0
   13.6416   -1.1338   24.3338 C   0  0  0  0  0  0  0  0  0  0  0  0
   13.6932   -2.0357   23.2945 C   0  0  0  0  0  0  0  0  0  0  0  0
   12.7225   -2.0191   22.3074 C   0  0  0  0  0  0  0  0  0  0  0  0
    6.6952    0.3212   20.1248 C   0  0  0  0  0  0  0  0  0  0  0  0
  1  2  1  0
  2  3  1  0
  2  4  1  0
  4  5  2  0
  5  6  1  0
  6  7  2  0
  7  8  1  0
  7  9  1  0
  9 10  1  0
 10 11  1  0
 11 12  2  0
 11 13  1  0
 13 14  1  0
 14 15  2  0
 15 16  1  0
 16 17  2  0
 17 18  1  0
 18 19  2  0
  9 20  2  0
 20  4  1  0
 19 14  1  0
M  END
