CVD-0000401|dock_bobby27042020.98|mol2|36|dock3
     RDKit          3D

 22 24  0  0  0  0  0  0  0  0999 V2000
   13.6457    5.4557   22.2881 C   0  0  0  0  0  0  0  0  0  0  0  0
   13.6440    4.0184   22.4902 N   0  0  0  0  0  0  0  0  0  0  0  0
   12.5030    3.2936   22.5799 C   0  0  0  0  0  0  0  0  0  0  0  0
   11.2251    3.7442   22.5027 C   0  0  0  0  0  0  0  0  0  0  0  0
   10.3663    2.6807   22.6430 N   0  0  0  0  0  0  0  0  0  0  0  0
   11.0786    1.5196   22.8138 C   0  0  0  0  0  0  0  0  0  0  0  0
   10.6556    0.2079   22.9921 C   0  0  0  0  0  0  0  0  0  0  0  0
    9.2818   -0.0398   22.9968 O   0  0  0  0  0  0  0  0  0  0  0  0
    8.5481    0.1922   21.8691 C   0  0  0  0  0  0  0  0  0  0  0  0
    8.8101   -0.6250   20.7833 C   0  0  0  0  0  0  0  0  0  0  0  0
    8.0894   -0.4319   19.6081 C   0  0  0  0  0  0  0  0  0  0  0  0
    8.3485   -1.3063   18.4098 C   0  0  0  0  0  0  0  0  0  0  0  0
    7.1445    0.5811   19.6155 C   0  0  0  0  0  0  0  0  0  0  0  0
    6.0995    0.9365   18.0746 Br  0  0  0  0  0  0  0  0  0  0  0  0
    6.9510    1.3477   20.7493 C   0  0  0  0  0  0  0  0  0  0  0  0
    7.6479    1.1580   21.8747 N   0  0  0  0  0  0  0  0  0  0  0  0
   11.6166   -0.7812   23.1603 C   0  0  0  0  0  0  0  0  0  0  0  0
   11.1526   -2.4212   23.4255 Cl  0  0  0  0  0  0  0  0  0  0  0  0
   12.9601   -0.4447   23.1192 C   0  0  0  0  0  0  0  0  0  0  0  0
   13.8793   -1.4258   23.2694 F   0  0  0  0  0  0  0  0  0  0  0  0
   13.3957    0.8432   22.9338 C   0  0  0  0  0  0  0  0  0  0  0  0
   12.4406    1.8454   22.7829 C   0  0  0  0  0  0  0  0  0  0  0  0
  1  2  1  0
  2  3  1  0
  3  4  2  0
  4  5  1  0
  5  6  1  0
  6  7  2  0
  7  8  1  0
  8  9  1  0
  9 10  2  0
 10 11  1  0
 11 12  1  0
 11 13  2  0
 13 14  1  0
 13 15  1  0
 15 16  2  0
  7 17  1  0
 17 18  1  0
 17 19  2  0
 19 20  1  0
 19 21  1  0
 21 22  2  0
 22  3  1  0
 22  6  1  0
 16  9  1  0
M  END
