CVD-0002629|dock_bobby27042020.33|mol2|31|dock1
     RDKit          3D

 22 23  0  0  0  0  0  0  0  0999 V2000
    6.7211   -5.4879   21.4785 C   0  0  0  0  0  0  0  0  0  0  0  0
    6.2964   -4.5066   20.4259 C   0  0  0  0  0  0  0  0  0  0  0  0
    5.6024   -4.8618   19.4793 O   0  0  0  0  0  0  0  0  0  0  0  0
    6.7356   -3.2404   20.6496 N   0  0  0  0  0  0  0  0  0  0  0  0
    6.5392   -2.0397   19.9121 C   0  0  0  0  0  0  0  0  0  0  0  0
    5.7087   -1.9482   18.7957 C   0  0  0  0  0  0  0  0  0  0  0  0
    5.5234   -0.8271   18.0933 N   0  0  0  0  0  0  0  0  0  0  0  0
    6.1922    0.2570   18.4751 C   0  0  0  0  0  0  0  0  0  0  0  0
    7.0387    0.2826   19.5614 C   0  0  0  0  0  0  0  0  0  0  0  0
    7.2161   -0.8737   20.3181 C   0  0  0  0  0  0  0  0  0  0  0  0
    8.1194   -0.8097   21.5347 C   0  0  0  0  0  0  0  0  0  0  0  0
    9.5169   -1.3880   21.3486 C   0  0  0  0  0  0  0  0  0  0  0  0
   10.3865   -1.3044   22.5869 C   0  0  0  0  0  0  0  0  0  0  0  0
    9.9803   -2.2995   23.5769 N   0  0  0  0  0  0  0  0  0  0  0  0
   10.6353   -3.4101   23.5741 C   0  0  0  0  0  0  0  0  0  0  0  0
   10.3613   -4.4077   24.4334 N   0  0  0  0  0  0  0  0  0  0  0  0
    9.3037   -4.3450   25.4535 C   0  0  0  0  0  0  0  0  0  0  0  0
    7.9115   -4.5661   24.8273 C   0  0  0  0  0  0  0  0  0  0  0  0
    6.7976   -4.5789   25.8725 C   0  0  0  0  0  0  0  0  0  0  0  0
    7.0793   -5.5959   26.9710 C   0  0  0  0  0  0  0  0  0  0  0  0
    8.4405   -5.3539   27.6073 C   0  0  0  0  0  0  0  0  0  0  0  0
    9.5511   -5.3820   26.5624 C   0  0  0  0  0  0  0  0  0  0  0  0
  1  2  1  0
  2  3  2  0
  2  4  1  0
  4  5  1  0
  5  6  2  0
  6  7  1  0
  7  8  2  0
  8  9  1  0
  9 10  2  0
 10 11  1  0
 11 12  1  0
 12 13  1  0
 13 14  1  0
 14 15  2  0
 15 16  1  0
 16 17  1  0
 17 18  1  0
 18 19  1  0
 19 20  1  0
 20 21  1  0
 21 22  1  0
 10  5  1  0
 22 17  1  0
M  END
