CVD-0001700|dock_bobby27042020.8|mol2|38|dock3
     RDKit          3D

 31 34  0  0  0  0  0  0  0  0999 V2000
   12.6818    6.6211   26.2437 C   0  0  0  0  0  0  0  0  0  0  0  0
   12.3203    6.6537   24.7916 C   0  0  0  0  0  0  0  0  0  0  0  0
   12.4708    5.3218   24.1982 N   0  0  0  0  0  0  0  0  0  0  0  0
   12.1337    5.1809   22.7811 C   0  0  0  0  0  0  0  0  0  0  0  0
   13.4055    5.1656   21.9284 C   0  0  0  0  0  0  0  0  0  0  0  0
   14.1219    3.8433   22.2148 C   0  0  0  0  0  0  0  0  0  0  0  0
   13.3910    2.7307   22.3803 C   0  0  0  0  0  0  0  0  0  0  0  0
   14.0012    1.5353   22.5377 F   0  0  0  0  0  0  0  0  0  0  0  0
   11.9295    2.7811   22.3840 C   0  0  0  0  0  0  0  0  0  0  0  0
   11.3362    3.9393   22.6053 C   0  0  0  0  0  0  0  0  0  0  0  0
    9.8483    4.1004   22.7158 C   0  0  0  0  0  0  0  0  0  0  0  0
    9.1570    2.9185   22.2474 N   0  0  0  0  0  0  0  0  0  0  0  0
    8.9885    1.8633   23.0516 C   0  0  0  0  0  0  0  0  0  0  0  0
    9.5430    1.9053   24.1411 O   0  0  0  0  0  0  0  0  0  0  0  0
    8.1098    0.7280   22.5494 C   0  0  0  0  0  0  0  0  0  0  0  0
    9.0701    0.2266   21.4528 C   0  0  0  0  0  0  0  0  0  0  0  0
    7.9153   -0.3721   23.6445 C   0  0  0  0  0  0  0  0  0  0  0  0
    6.6111   -0.0727   24.4365 C   0  0  0  0  0  0  0  0  0  0  0  0
    6.0268   -1.4600   24.7606 C   0  0  0  0  0  0  0  0  0  0  0  0
    7.2731   -2.3512   24.6956 C   0  0  0  0  0  0  0  0  0  0  0  0
    7.8358   -1.8941   23.3520 C   0  0  0  0  0  0  0  0  0  0  0  0
    9.1638   -2.5703   23.0305 C   0  0  0  0  0  0  0  0  0  0  0  0
    6.8974   -2.2274   22.3119 O   0  0  0  0  0  0  0  0  0  0  0  0
    5.7747    0.8659   23.5570 C   0  0  0  0  0  0  0  0  0  0  0  0
    4.2590    0.5928   23.6043 C   0  0  0  0  0  0  0  0  0  0  0  0
    6.0287    2.3776   23.8016 C   0  0  0  0  0  0  0  0  0  0  0  0
    6.0411    2.4787   22.2654 C   0  0  0  0  0  0  0  0  0  0  0  0
    6.5747    1.0094   22.1831 C   0  0  0  0  0  0  0  0  0  0  0  0
    6.0306    0.3129   20.9483 C   0  0  0  0  0  0  0  0  0  0  0  0
    6.3382    0.7251   19.7423 O   0  0  0  0  0  0  0  0  0  0  0  0
    5.3047   -0.6509   21.0227 O   0  0  0  0  0  0  0  0  0  0  0  0
  1  2  1  0
  2  3  1  0
  3  4  1  0
  4  5  1  0
  5  6  1  0
  6  7  2  0
  7  8  1  0
  7  9  1  0
  9 10  2  0
 10 11  1  0
 11 12  1  0
 12 13  1  0
 13 14  2  0
 13 15  1  0
 15 16  1  0
 15 17  1  0
 17 18  1  0
 18 19  1  0
 19 20  1  0
 20 21  1  0
 21 22  1  0
 21 23  1  0
 18 24  1  0
 24 25  1  0
 24 26  1  0
 26 27  1  0
 27 28  1  0
 28 29  1  0
 29 30  1  0
 29 31  2  0
 10  4  1  0
 28 15  1  0
 21 17  1  0
 28 24  1  0
M  END
