CVD-0001561|dock_bobby27042020.37|mol2|44|dock1
     RDKit          3D

 31 34  0  0  0  0  0  0  0  0999 V2000
   12.6700    6.9279   25.9975 C   0  0  0  0  0  0  0  0  0  0  0  0
   13.1457    6.9542   24.5746 C   0  0  0  0  0  0  0  0  0  0  0  0
   13.3424    8.0067   23.9753 O   0  0  0  0  0  0  0  0  0  0  0  0
   13.3262    5.7667   23.9935 N   0  0  0  0  0  0  0  0  0  0  0  0
   13.7676    5.6272   22.6132 C   0  0  0  0  0  0  0  0  0  0  0  0
   12.7941    4.8092   21.7883 C   0  0  0  0  0  0  0  0  0  0  0  0
   12.6369    3.3955   22.2815 C   0  0  0  0  0  0  0  0  0  0  0  0
   13.6432    2.4611   22.4385 C   0  0  0  0  0  0  0  0  0  0  0  0
   13.1356    1.2056   22.5646 N   0  0  0  0  0  0  0  0  0  0  0  0
   11.7551    1.2700   22.4937 C   0  0  0  0  0  0  0  0  0  0  0  0
   10.7014    0.2358   22.7666 C   0  0  0  0  0  0  0  0  0  0  0  0
   10.9764   -1.5138   22.3213 S   0  0  0  0  0  0  0  0  0  0  0  0
    9.1674   -1.8128   22.1913 C   0  0  0  0  0  0  0  0  0  0  0  0
    8.4439   -0.4856   22.4533 C   0  0  0  0  0  0  0  0  0  0  0  0
    9.4068    0.6146   22.0234 C   0  0  0  0  0  0  0  0  0  0  0  0
    9.0340    2.0693   22.1887 C   0  0  0  0  0  0  0  0  0  0  0  0
    7.8726    2.4705   22.1455 O   0  0  0  0  0  0  0  0  0  0  0  0
   10.0817    2.9703   22.1998 N   0  0  0  0  0  0  0  0  0  0  0  0
   11.4099    2.5939   22.3207 C   0  0  0  0  0  0  0  0  0  0  0  0
    8.8915   -2.2786   20.7718 C   0  0  0  0  0  0  0  0  0  0  0  0
    7.4718   -2.5895   20.5967 N   0  0  0  0  0  0  0  0  0  0  0  0
    7.0212   -3.5906   21.5689 C   0  0  0  0  0  0  0  0  0  0  0  0
    7.3376   -3.1335   22.9809 C   0  0  0  0  0  0  0  0  0  0  0  0
    8.7638   -2.8603   23.1315 N   0  0  0  0  0  0  0  0  0  0  0  0
    9.2126   -3.0298   24.5104 C   0  0  0  0  0  0  0  0  0  0  0  0
    9.6329   -4.4321   24.7991 C   0  0  0  0  0  0  0  0  0  0  0  0
   10.8047   -4.7469   24.4776 N   0  0  0  0  0  0  0  0  0  0  0  0
    8.8189   -5.2981   25.3618 N   0  0  0  0  0  0  0  0  0  0  0  0
    6.7033   -2.0153   19.6616 C   0  0  0  0  0  0  0  0  0  0  0  0
    7.5707   -0.8411   18.6390 Cl  0  0  0  0  0  0  0  0  0  0  0  0
    5.5372   -2.2092   19.4576 O   0  0  0  0  0  0  0  0  0  0  0  0
  1  2  1  0
  2  3  2  0
  2  4  1  0
  4  5  1  0
  5  6  1  0
  6  7  1  0
  7  8  2  0
  8  9  1  0
  9 10  1  0
 10 11  1  0
 11 12  1  0
 12 13  1  0
 13 14  1  0
 14 15  1  0
 15 16  1  0
 16 17  2  0
 16 18  1  0
 18 19  1  0
 13 20  1  0
 20 21  1  0
 21 22  1  0
 22 23  1  0
 23 24  1  0
 24 25  1  0
 25 26  1  0
 26 27  1  0
 26 28  2  0
 21 29  1  0
 29 30  1  0
 29 31  2  0
 19  7  1  0
 19 10  2  0
 15 11  1  0
 24 13  1  0
M  END
