CVD-0001655|dock_bobby27042020.66|mol2|27|dock1
     RDKit          3D

 16 17  0  0  0  0  0  0  0  0999 V2000
    9.4713    3.0186   22.7937 Cl  0  0  0  0  0  0  0  0  0  0  0  0
   11.1935    3.0464   22.5706 C   0  0  0  0  0  0  0  0  0  0  0  0
   11.6479    4.2160   22.1534 N   0  0  0  0  0  0  0  0  0  0  0  0
   12.9785    4.3894   22.0777 C   0  0  0  0  0  0  0  0  0  0  0  0
   13.8881    3.3882   22.3863 C   0  0  0  0  0  0  0  0  0  0  0  0
   13.3905    2.1535   22.7584 C   0  0  0  0  0  0  0  0  0  0  0  0
   12.0139    1.9402   22.8275 C   0  0  0  0  0  0  0  0  0  0  0  0
   11.5091    0.6533   23.1478 N   0  0  0  0  0  0  0  0  0  0  0  0
   12.2023   -0.1875   24.1306 C   0  0  0  0  0  0  0  0  0  0  0  0
   13.1092   -1.2565   23.4798 C   0  0  0  0  0  0  0  0  0  0  0  0
   12.2642   -2.3951   22.8668 C   0  0  0  0  0  0  0  0  0  0  0  0
   11.4084   -1.8326   21.8722 O   0  0  0  0  0  0  0  0  0  0  0  0
   10.1700   -1.3108   22.3551 C   0  0  0  0  0  0  0  0  0  0  0  0
   10.2311    0.2201   22.5610 C   0  0  0  0  0  0  0  0  0  0  0  0
   13.4287    5.6998   21.6508 C   0  0  0  0  0  0  0  0  0  0  0  0
   13.8194    6.7201   21.3173 N   0  0  0  0  0  0  0  0  0  0  0  0
  1  2  1  0
  2  3  2  0
  3  4  1  0
  4  5  2  0
  5  6  1  0
  6  7  2  0
  7  8  1  0
  8  9  1  0
  9 10  1  0
 10 11  1  0
 11 12  1  0
 12 13  1  0
 13 14  1  0
  4 15  1  0
 15 16  3  0
  7  2  1  0
 14  8  1  0
M  END
