CVD-0001108|dock_bobby27042020.10|mol2|41|dock3
     RDKit          3D

 25 27  0  0  0  0  0  0  0  0999 V2000
   13.9582   -1.4954   20.9879 N   0  0  0  0  0  0  0  0  0  0  0  0
   13.2867   -1.7364   22.1026 C   0  0  0  0  0  0  0  0  0  0  0  0
   12.5154   -2.6896   22.2320 O   0  0  0  0  0  0  0  0  0  0  0  0
   13.5067   -0.7639   23.2606 C   0  0  0  0  0  0  0  0  0  0  0  0
   14.0927   -1.4644   24.5263 C   0  0  0  0  0  0  0  0  0  0  0  0
   12.8652   -2.1317   25.1089 C   0  0  0  0  0  0  0  0  0  0  0  0
   11.7756   -1.0763   24.8922 C   0  0  0  0  0  0  0  0  0  0  0  0
   12.2594   -0.2647   23.7591 N   0  0  0  0  0  0  0  0  0  0  0  0
   11.5852    0.9023   23.2847 C   0  0  0  0  0  0  0  0  0  0  0  0
   12.0412    2.1523   23.7261 C   0  0  0  0  0  0  0  0  0  0  0  0
   11.3571    3.3138   23.4147 C   0  0  0  0  0  0  0  0  0  0  0  0
   10.2198    3.2700   22.6501 C   0  0  0  0  0  0  0  0  0  0  0  0
    9.7911    2.0593   22.1486 C   0  0  0  0  0  0  0  0  0  0  0  0
   10.4795    0.8706   22.3981 C   0  0  0  0  0  0  0  0  0  0  0  0
    9.9819   -0.3675   21.6785 C   0  0  0  0  0  0  0  0  0  0  0  0
    9.4121   -1.4135   22.5416 N   0  0  0  0  0  0  0  0  0  0  0  0
    8.1532   -0.9570   23.1376 C   0  0  0  0  0  0  0  0  0  0  0  0
    7.5909   -2.0237   24.0588 C   0  0  0  0  0  0  0  0  0  0  0  0
    7.3795   -3.2734   23.3252 N   0  0  0  0  0  0  0  0  0  0  0  0
    8.6088   -3.7259   22.6664 C   0  0  0  0  0  0  0  0  0  0  0  0
    9.1621   -2.6303   21.7733 C   0  0  0  0  0  0  0  0  0  0  0  0
    6.1949   -3.9174   23.3039 C   0  0  0  0  0  0  0  0  0  0  0  0
    5.2177   -3.4954   23.9092 O   0  0  0  0  0  0  0  0  0  0  0  0
    6.1312   -5.1922   22.4855 C   0  0  0  0  0  0  0  0  0  0  0  0
    4.5297   -5.9354   22.5851 Cl  0  0  0  0  0  0  0  0  0  0  0  0
  1  2  1  0
  2  3  2  0
  2  4  1  0
  4  5  1  0
  5  6  1  0
  6  7  1  0
  7  8  1  0
  8  9  1  0
  9 10  2  0
 10 11  1  0
 11 12  2  0
 12 13  1  0
 13 14  2  0
 14 15  1  0
 15 16  1  0
 16 17  1  0
 17 18  1  0
 18 19  1  0
 19 20  1  0
 20 21  1  0
 19 22  1  0
 22 23  2  0
 22 24  1  0
 24 25  1  0
  8  4  1  0
 14  9  1  0
 21 16  1  0
M  END
