CVD-0000862|dock_bobby27042020.54|mol2|30|dock2
     RDKit          3D

 23 25  0  0  0  0  0  0  0  0999 V2000
    4.8846   -0.4665   18.2217 Cl  0  0  0  0  0  0  0  0  0  0  0  0
    5.7344   -1.8387   18.9444 C   0  0  0  0  0  0  0  0  0  0  0  0
    6.3039   -1.4716   20.3016 C   0  0  0  0  0  0  0  0  0  0  0  0
    6.1122   -0.3525   20.7606 O   0  0  0  0  0  0  0  0  0  0  0  0
    7.0137   -2.4030   20.9845 N   0  0  0  0  0  0  0  0  0  0  0  0
    7.3427   -3.7305   20.4608 C   0  0  0  0  0  0  0  0  0  0  0  0
    6.9266   -4.8070   21.4460 C   0  0  0  0  0  0  0  0  0  0  0  0
    7.5857   -4.5946   22.7380 N   0  0  0  0  0  0  0  0  0  0  0  0
    7.2034   -5.6708   23.6547 C   0  0  0  0  0  0  0  0  0  0  0  0
    7.9708   -5.6275   24.9420 C   0  0  0  0  0  0  0  0  0  0  0  0
    7.4547   -5.5695   26.2188 C   0  0  0  0  0  0  0  0  0  0  0  0
    8.4875   -5.5422   27.1870 C   0  0  0  0  0  0  0  0  0  0  0  0
    9.7204   -5.5784   26.6549 C   0  0  0  0  0  0  0  0  0  0  0  0
    9.6748   -5.6472   24.9507 S   0  0  0  0  0  0  0  0  0  0  0  0
    7.1986   -3.2871   23.2613 C   0  0  0  0  0  0  0  0  0  0  0  0
    7.6102   -2.1821   22.3057 C   0  0  0  0  0  0  0  0  0  0  0  0
    9.1335   -2.0180   22.3100 C   0  0  0  0  0  0  0  0  0  0  0  0
    9.6499   -1.3663   23.5915 C   0  0  0  0  0  0  0  0  0  0  0  0
   11.1864   -1.2859   23.5590 C   0  0  0  0  0  0  0  0  0  0  0  0
   11.7055   -0.6581   22.2237 C   0  0  0  0  0  0  0  0  0  0  0  0
   11.1423   -1.3509   21.0751 N   0  0  0  0  0  0  0  0  0  0  0  0
    9.6818   -1.3035   21.0844 C   0  0  0  0  0  0  0  0  0  0  0  0
    9.1470    0.4054   21.1175 Cl  0  0  0  0  0  0  0  0  0  0  0  0
  1  2  1  0
  2  3  1  0
  3  4  2  0
  3  5  1  0
  5  6  1  0
  6  7  1  0
  7  8  1  0
  8  9  1  0
  9 10  1  0
 10 11  2  0
 11 12  1  0
 12 13  2  0
 13 14  1  0
  8 15  1  0
 15 16  1  0
 16 17  1  0
 17 18  1  0
 18 19  1  0
 19 20  1  0
 20 21  1  0
 21 22  1  0
 22 23  1  0
 16  5  1  0
 22 17  1  0
 14 10  1  0
M  END
