CVD-0002125|dock_bobby27042020.35|mol2|32|dock1
     RDKit          3D

 22 23  0  0  0  0  0  0  0  0999 V2000
    5.6829    1.8724   17.1315 N   0  0  0  0  0  0  0  0  0  0  0  0
    5.7126    0.6080   18.1136 S   0  0  0  0  0  0  0  0  0  0  0  0
    5.6092   -0.5716   17.3030 O   0  0  0  0  0  0  0  0  0  0  0  0
    4.7255    0.8280   19.1318 O   0  0  0  0  0  0  0  0  0  0  0  0
    7.2857    0.5397   18.9261 C   0  0  0  0  0  0  0  0  0  0  0  0
    7.4195   -0.5963   19.9190 C   0  0  0  0  0  0  0  0  0  0  0  0
    8.7365   -0.6020   20.5393 N   0  0  0  0  0  0  0  0  0  0  0  0
    8.9679    0.0267   21.6947 C   0  0  0  0  0  0  0  0  0  0  0  0
    8.0697    0.6476   22.2608 O   0  0  0  0  0  0  0  0  0  0  0  0
   10.3369   -0.0277   22.3023 C   0  0  0  0  0  0  0  0  0  0  0  0
   10.9623   -1.2168   22.5740 C   0  0  0  0  0  0  0  0  0  0  0  0
   12.5042   -0.9875   23.2553 S   0  0  0  0  0  0  0  0  0  0  0  0
   12.3428    0.7040   23.1924 C   0  0  0  0  0  0  0  0  0  0  0  0
   11.1528    1.0928   22.6673 C   0  0  0  0  0  0  0  0  0  0  0  0
   10.8050    2.5540   22.5294 C   0  0  0  0  0  0  0  0  0  0  0  0
   11.9360    3.4587   22.7444 N   0  0  0  0  0  0  0  0  0  0  0  0
   12.8393    3.4489   21.5875 C   0  0  0  0  0  0  0  0  0  0  0  0
   14.0473    4.3378   21.8090 C   0  0  0  0  0  0  0  0  0  0  0  0
   13.6670    5.7749   22.1434 C   0  0  0  0  0  0  0  0  0  0  0  0
   14.7818    6.6044   22.4821 O   0  0  0  0  0  0  0  0  0  0  0  0
   12.6514    5.7517   23.2804 C   0  0  0  0  0  0  0  0  0  0  0  0
   11.4793    4.8292   22.9901 C   0  0  0  0  0  0  0  0  0  0  0  0
  1  2  1  0
  2  3  2  0
  2  4  2  0
  2  5  1  0
  5  6  1  0
  6  7  1  0
  7  8  1  0
  8  9  2  0
  8 10  1  0
 10 11  2  0
 11 12  1  0
 12 13  1  0
 13 14  2  0
 14 15  1  0
 15 16  1  0
 16 17  1  0
 17 18  1  0
 18 19  1  0
 19 20  1  0
 19 21  1  0
 21 22  1  0
 14 10  1  0
 22 16  1  0
M  END
