CVD-0002261|dock_bobby27042020.35|mol2|8|dock1
     RDKit          3D

 26 28  0  0  0  0  0  0  0  0999 V2000
   13.4740    5.2791   21.6511 C   0  0  0  0  0  0  0  0  0  0  0  0
   13.7976    4.4790   23.1750 S   0  0  0  0  0  0  0  0  0  0  0  0
   15.2093    4.5125   23.4030 O   0  0  0  0  0  0  0  0  0  0  0  0
   12.9324    5.0425   24.1648 O   0  0  0  0  0  0  0  0  0  0  0  0
   13.3847    2.9384   23.0124 N   0  0  0  0  0  0  0  0  0  0  0  0
   11.9668    2.5744   22.9039 C   0  0  0  0  0  0  0  0  0  0  0  0
   11.6526    1.3754   23.7819 C   0  0  0  0  0  0  0  0  0  0  0  0
   12.2578    0.0588   23.3254 C   0  0  0  0  0  0  0  0  0  0  0  0
   13.4088   -0.3955   23.9758 C   0  0  0  0  0  0  0  0  0  0  0  0
   14.0669   -1.5435   23.5766 C   0  0  0  0  0  0  0  0  0  0  0  0
   13.5812   -2.2792   22.5232 C   0  0  0  0  0  0  0  0  0  0  0  0
   12.4224   -1.8838   21.8810 C   0  0  0  0  0  0  0  0  0  0  0  0
   11.7315   -0.7332   22.2783 C   0  0  0  0  0  0  0  0  0  0  0  0
   10.4755   -0.4279   21.5622 C   0  0  0  0  0  0  0  0  0  0  0  0
    9.9666    0.7659   21.4566 N   0  0  0  0  0  0  0  0  0  0  0  0
    8.7738    0.8107   20.7382 N   0  0  0  0  0  0  0  0  0  0  0  0
    8.4077   -0.3499   20.3162 C   0  0  0  0  0  0  0  0  0  0  0  0
    7.1521   -0.5527   19.5221 C   0  0  0  0  0  0  0  0  0  0  0  0
    6.1700    0.5115   19.7437 N   0  0  0  0  0  0  0  0  0  0  0  0
    5.1972    0.5673   18.6598 C   0  0  0  0  0  0  0  0  0  0  0  0
    4.2405    1.7418   18.7712 C   0  0  0  0  0  0  0  0  0  0  0  0
    3.7021    1.8316   20.1512 C   0  0  0  0  0  0  0  0  0  0  0  0
    4.2655    1.2185   21.1740 C   0  0  0  0  0  0  0  0  0  0  0  0
    3.8425    1.2608   22.4730 F   0  0  0  0  0  0  0  0  0  0  0  0
    5.4754    0.3712   21.0221 C   0  0  0  0  0  0  0  0  0  0  0  0
    9.4983   -1.6254   20.7674 S   0  0  0  0  0  0  0  0  0  0  0  0
  1  2  1  0
  2  3  2  0
  2  4  2  0
  2  5  1  0
  5  6  1  0
  6  7  1  0
  7  8  1  0
  8  9  2  0
  9 10  1  0
 10 11  2  0
 11 12  1  0
 12 13  2  0
 13 14  1  0
 14 15  2  0
 15 16  1  0
 16 17  2  0
 17 18  1  0
 18 19  1  0
 19 20  1  0
 20 21  1  0
 21 22  1  0
 22 23  2  0
 23 24  1  0
 23 25  1  0
 17 26  1  0
 13  8  1  0
 26 14  1  0
 25 19  1  0
M  END
