CVD-0002374|dock_bobby27042020.49|mol2|8|dock1
     RDKit          3D

 38 42  0  0  0  0  0  0  0  0999 V2000
   12.5425   -1.6804   22.0320 C   0  0  0  0  0  0  0  0  0  0  0  0
   11.7677   -1.4705   23.2597 N   0  0  0  0  0  0  0  0  0  0  0  0
   10.8048   -2.4959   23.6657 C   0  0  0  0  0  0  0  0  0  0  0  0
    9.6014   -2.5266   22.7579 C   0  0  0  0  0  0  0  0  0  0  0  0
    9.0775   -1.4327   22.0441 C   0  0  0  0  0  0  0  0  0  0  0  0
    7.9597   -1.8193   21.3302 C   0  0  0  0  0  0  0  0  0  0  0  0
    7.1372   -0.9410   20.4640 C   0  0  0  0  0  0  0  0  0  0  0  0
    5.8509   -0.6358   20.9129 C   0  0  0  0  0  0  0  0  0  0  0  0
    5.0312    0.2215   20.1983 C   0  0  0  0  0  0  0  0  0  0  0  0
    5.4711    0.7870   19.0223 C   0  0  0  0  0  0  0  0  0  0  0  0
    6.7258    0.4734   18.5315 C   0  0  0  0  0  0  0  0  0  0  0  0
    7.5135   -0.4014   19.2416 C   0  0  0  0  0  0  0  0  0  0  0  0
    8.6955   -0.7443   18.6854 F   0  0  0  0  0  0  0  0  0  0  0  0
    7.7907   -3.2055   21.5918 N   0  0  0  0  0  0  0  0  0  0  0  0
    8.7896   -3.6143   22.4663 C   0  0  0  0  0  0  0  0  0  0  0  0
    6.6626   -4.3421   21.0317 S   0  0  0  0  0  0  0  0  0  0  0  0
    5.7782   -3.6742   20.1285 O   0  0  0  0  0  0  0  0  0  0  0  0
    7.4460   -5.4401   20.5569 O   0  0  0  0  0  0  0  0  0  0  0  0
    5.7785   -4.8988   22.4482 C   0  0  0  0  0  0  0  0  0  0  0  0
    5.3870   -4.0007   23.4263 C   0  0  0  0  0  0  0  0  0  0  0  0
    4.6900   -4.4805   24.5217 C   0  0  0  0  0  0  0  0  0  0  0  0
    4.4144   -5.8273   24.5934 C   0  0  0  0  0  0  0  0  0  0  0  0
    4.7839   -6.7034   23.6580 N   0  0  0  0  0  0  0  0  0  0  0  0
    5.4562   -6.2336   22.6032 C   0  0  0  0  0  0  0  0  0  0  0  0
   12.1978   -0.2705   24.2764 S   0  0  0  0  0  0  0  0  0  0  0  0
   13.4760    0.1991   23.8400 O   0  0  0  0  0  0  0  0  0  0  0  0
   12.0443   -0.7817   25.6031 O   0  0  0  0  0  0  0  0  0  0  0  0
   11.0363    1.0328   24.0582 C   0  0  0  0  0  0  0  0  0  0  0  0
    9.7274    0.8580   24.4711 C   0  0  0  0  0  0  0  0  0  0  0  0
    8.8288    1.8904   24.2948 C   0  0  0  0  0  0  0  0  0  0  0  0
    9.2122    3.0938   23.7142 C   0  0  0  0  0  0  0  0  0  0  0  0
    8.2265    4.2257   23.5556 C   0  0  0  0  0  0  0  0  0  0  0  0
    8.6331    5.1469   22.4243 C   0  0  0  0  0  0  0  0  0  0  0  0
   10.0744    5.5892   22.6029 C   0  0  0  0  0  0  0  0  0  0  0  0
   10.9541    4.4286   22.6675 N   0  0  0  0  0  0  0  0  0  0  0  0
   12.3283    4.6091   22.2144 C   0  0  0  0  0  0  0  0  0  0  0  0
   10.5495    3.2647   23.2954 C   0  0  0  0  0  0  0  0  0  0  0  0
   11.4555    2.2188   23.4752 C   0  0  0  0  0  0  0  0  0  0  0  0
  1  2  1  0
  2  3  1  0
  3  4  1  0
  4  5  1  0
  5  6  2  0
  6  7  1  0
  7  8  2  0
  8  9  1  0
  9 10  2  0
 10 11  1  0
 11 12  2  0
 12 13  1  0
  6 14  1  0
 14 15  1  0
 14 16  1  0
 16 17  2  0
 16 18  2  0
 16 19  1  0
 19 20  2  0
 20 21  1  0
 21 22  2  0
 22 23  1  0
 23 24  2  0
  2 25  1  0
 25 26  2  0
 25 27  2  0
 25 28  1  0
 28 29  2  0
 29 30  1  0
 30 31  2  0
 31 32  1  0
 32 33  1  0
 33 34  1  0
 34 35  1  0
 35 36  1  0
 35 37  1  0
 37 38  2  0
 15  4  2  0
 24 19  1  0
 38 28  1  0
 12  7  1  0
 37 31  1  0
M  END
