CVD-0001524|dock_bobby27042020.66|mol2|46|dock2
     RDKit          3D

 25 28  0  0  0  0  0  0  0  0999 V2000
   13.6631   -2.8855   24.5285 C   0  0  0  0  0  0  0  0  0  0  0  0
   12.6413   -1.7813   24.4012 C   0  0  0  0  0  0  0  0  0  0  0  0
   11.5625   -2.2077   23.4437 C   0  0  0  0  0  0  0  0  0  0  0  0
   10.6401   -1.0956   23.2198 N   0  0  0  0  0  0  0  0  0  0  0  0
   11.3124    0.1431   22.8335 C   0  0  0  0  0  0  0  0  0  0  0  0
   12.4065    0.4579   23.8100 C   0  0  0  0  0  0  0  0  0  0  0  0
   13.3183   -0.6194   23.9443 O   0  0  0  0  0  0  0  0  0  0  0  0
    9.2732   -1.0715   23.3502 C   0  0  0  0  0  0  0  0  0  0  0  0
    8.7381    0.0180   23.4804 O   0  0  0  0  0  0  0  0  0  0  0  0
    8.4773   -2.1926   23.3428 N   0  0  0  0  0  0  0  0  0  0  0  0
    7.1212   -2.0504   23.9284 C   0  0  0  0  0  0  0  0  0  0  0  0
    6.0817   -2.5872   23.0026 C   0  0  0  0  0  0  0  0  0  0  0  0
    6.0170   -1.7315   21.7456 C   0  0  0  0  0  0  0  0  0  0  0  0
    6.2390   -2.2899   20.4946 C   0  0  0  0  0  0  0  0  0  0  0  0
    6.1828   -1.5102   19.3514 C   0  0  0  0  0  0  0  0  0  0  0  0
    5.9051   -0.1632   19.4449 C   0  0  0  0  0  0  0  0  0  0  0  0
    5.6836    0.4049   20.6811 C   0  0  0  0  0  0  0  0  0  0  0  0
    5.7395   -0.3739   21.8248 C   0  0  0  0  0  0  0  0  0  0  0  0
    6.3596   -4.0343   22.6895 C   0  0  0  0  0  0  0  0  0  0  0  0
    5.3329   -4.9567   22.4813 C   0  0  0  0  0  0  0  0  0  0  0  0
    5.5929   -6.2828   22.1870 C   0  0  0  0  0  0  0  0  0  0  0  0
    6.8974   -6.7148   22.0945 C   0  0  0  0  0  0  0  0  0  0  0  0
    7.9299   -5.8171   22.2973 C   0  0  0  0  0  0  0  0  0  0  0  0
    7.6734   -4.4824   22.5935 C   0  0  0  0  0  0  0  0  0  0  0  0
    8.8377   -3.5027   22.7666 C   0  0  0  0  0  0  0  0  0  0  0  0
  1  2  1  0
  2  3  1  0
  3  4  1  0
  4  5  1  0
  5  6  1  0
  6  7  1  0
  4  8  1  0
  8  9  2  0
  8 10  1  0
 10 11  1  0
 11 12  1  0
 12 13  1  0
 13 14  2  0
 14 15  1  0
 15 16  2  0
 16 17  1  0
 17 18  2  0
 12 19  1  0
 19 20  2  0
 20 21  1  0
 21 22  2  0
 22 23  1  0
 23 24  2  0
 24 25  1  0
  7  2  1  0
 25 10  1  0
 18 13  1  0
 24 19  1  0
M  END
