CVD-0001280|dock_bobby27042020.67|mol2|35|dock1
     RDKit          3D

 20 22  0  0  0  0  0  0  0  0999 V2000
    9.9426   -3.2153   23.3381 O   0  0  0  0  0  0  0  0  0  0  0  0
   10.2744   -2.0493   23.2435 C   0  0  0  0  0  0  0  0  0  0  0  0
    9.2574   -1.0003   22.8252 C   0  0  0  0  0  0  0  0  0  0  0  0
    8.7856   -0.0714   23.9235 C   0  0  0  0  0  0  0  0  0  0  0  0
    7.8400    0.9719   23.3430 C   0  0  0  0  0  0  0  0  0  0  0  0
    6.6418    0.3492   22.6727 C   0  0  0  0  0  0  0  0  0  0  0  0
    7.1618   -0.5790   21.6210 N   0  0  0  0  0  0  0  0  0  0  0  0
    8.0530   -1.6606   22.0977 C   0  0  0  0  0  0  0  0  0  0  0  0
    6.7020   -0.5469   20.3083 C   0  0  0  0  0  0  0  0  0  0  0  0
    6.6403    0.6500   19.6012 C   0  0  0  0  0  0  0  0  0  0  0  0
    6.1864    0.6460   18.2972 C   0  0  0  0  0  0  0  0  0  0  0  0
    5.7970   -0.4492   17.6478 N   0  0  0  0  0  0  0  0  0  0  0  0
    5.8524   -1.5917   18.3294 C   0  0  0  0  0  0  0  0  0  0  0  0
    6.2832   -1.6918   19.6375 C   0  0  0  0  0  0  0  0  0  0  0  0
   11.5512   -1.6938   23.4928 N   0  0  0  0  0  0  0  0  0  0  0  0
   12.1034   -0.3432   23.3713 C   0  0  0  0  0  0  0  0  0  0  0  0
   12.7180    0.0991   24.6829 C   0  0  0  0  0  0  0  0  0  0  0  0
   13.7629   -0.9075   25.1627 C   0  0  0  0  0  0  0  0  0  0  0  0
   13.1641   -2.3021   25.2248 C   0  0  0  0  0  0  0  0  0  0  0  0
   12.5442   -2.6937   23.9026 C   0  0  0  0  0  0  0  0  0  0  0  0
  1  2  2  0
  2  3  1  0
  3  4  1  0
  4  5  1  0
  5  6  1  0
  6  7  1  0
  7  8  1  0
  7  9  1  0
  9 10  2  0
 10 11  1  0
 11 12  2  0
 12 13  1  0
 13 14  2  0
  2 15  1  0
 15 16  1  0
 16 17  1  0
 17 18  1  0
 18 19  1  0
 19 20  1  0
  8  3  1  0
 14  9  1  0
 20 15  1  0
M  END
