CVD-0002537|dock_bobby27042020.77|mol2|6|dock2
     RDKit          3D

 23 26  0  0  0  0  0  0  0  0999 V2000
    7.2884   -4.0846   25.0459 C   0  0  0  0  0  0  0  0  0  0  0  0
    8.0482   -4.3990   23.6180 S   0  0  0  0  0  0  0  0  0  0  0  0
    8.8478   -5.6124   24.3947 C   0  0  0  0  0  0  0  0  0  0  0  0
    8.8093   -3.2472   22.7512 N   0  0  0  0  0  0  0  0  0  0  0  0
    8.0836   -2.3588   21.8265 C   0  0  0  0  0  0  0  0  0  0  0  0
    8.1110   -0.9465   22.3678 C   0  0  0  0  0  0  0  0  0  0  0  0
    9.4888   -0.4650   22.4615 N   0  0  0  0  0  0  0  0  0  0  0  0
   10.5130   -1.5147   22.3088 C   0  0  0  0  0  0  0  0  0  0  0  0
   10.1105   -2.7068   23.1702 C   0  0  0  0  0  0  0  0  0  0  0  0
   11.8517   -0.9576   22.7560 C   0  0  0  0  0  0  0  0  0  0  0  0
   12.8581   -1.7694   23.2695 C   0  0  0  0  0  0  0  0  0  0  0  0
   14.0041   -1.1689   23.7520 C   0  0  0  0  0  0  0  0  0  0  0  0
   14.2094    0.1496   23.7575 N   0  0  0  0  0  0  0  0  0  0  0  0
   13.2441    0.9332   23.2646 C   0  0  0  0  0  0  0  0  0  0  0  0
   12.0554    0.4260   22.7563 C   0  0  0  0  0  0  0  0  0  0  0  0
   11.0550    1.2736   22.2687 N   0  0  0  0  0  0  0  0  0  0  0  0
    9.7538    0.8985   22.1377 C   0  0  0  0  0  0  0  0  0  0  0  0
    8.9768    1.6397   21.5394 O   0  0  0  0  0  0  0  0  0  0  0  0
    6.8566   -5.1566   22.5692 C   0  0  0  0  0  0  0  0  0  0  0  0
    5.6016   -5.6959   23.0127 C   0  0  0  0  0  0  0  0  0  0  0  0
    4.8578   -6.2294   21.9965 C   0  0  0  0  0  0  0  0  0  0  0  0
    5.6580   -6.0880   20.5029 S   0  0  0  0  0  0  0  0  0  0  0  0
    6.9740   -5.3207   21.2464 C   0  0  0  0  0  0  0  0  0  0  0  0
  1  2  2  0
  2  3  2  0
  2  4  1  0
  4  5  1  0
  5  6  1  0
  6  7  1  0
  7  8  1  0
  8  9  1  0
  8 10  1  0
 10 11  2  0
 11 12  1  0
 12 13  2  0
 13 14  1  0
 14 15  2  0
 15 16  1  0
 16 17  1  0
 17 18  2  0
  2 19  1  0
 19 20  1  0
 20 21  2  0
 21 22  1  0
 22 23  1  0
  9  4  1  0
 15 10  1  0
 23 19  2  0
 17  7  1  0
M  END
