CVD-0003339|dock_bobby27042020.60|mol2|10|dock3
     RDKit          3D

 40 43  0  0  0  0  0  0  0  0999 V2000
    4.4740   -7.8671   28.3441 N   0  0  0  0  0  0  0  0  0  0  0  0
    5.6510   -7.2109   28.0690 C   0  0  0  0  0  0  0  0  0  0  0  0
    6.8265   -7.5355   28.7357 C   0  0  0  0  0  0  0  0  0  0  0  0
    7.9855   -6.9185   28.4927 N   0  0  0  0  0  0  0  0  0  0  0  0
    8.0119   -5.9508   27.5711 C   0  0  0  0  0  0  0  0  0  0  0  0
    6.8934   -5.5454   26.8440 C   0  0  0  0  0  0  0  0  0  0  0  0
    6.8932   -4.5223   25.8609 N   0  0  0  0  0  0  0  0  0  0  0  0
    5.9373   -3.6078   25.5333 C   0  0  0  0  0  0  0  0  0  0  0  0
    4.8448   -3.5256   26.0845 O   0  0  0  0  0  0  0  0  0  0  0  0
    6.2288   -2.6259   24.4215 C   0  0  0  0  0  0  0  0  0  0  0  0
    6.7719   -2.9809   23.1890 C   0  0  0  0  0  0  0  0  0  0  0  0
    6.9933   -1.9885   22.2515 C   0  0  0  0  0  0  0  0  0  0  0  0
    6.6723   -0.6713   22.5435 C   0  0  0  0  0  0  0  0  0  0  0  0
    6.1356   -0.4066   23.7915 C   0  0  0  0  0  0  0  0  0  0  0  0
    5.9195   -1.3524   24.7127 N   0  0  0  0  0  0  0  0  0  0  0  0
    6.8838    0.3681   21.6011 N   0  0  0  0  0  0  0  0  0  0  0  0
    6.8042    1.7866   21.9386 C   0  0  0  0  0  0  0  0  0  0  0  0
    7.9468    2.2221   22.8388 C   0  0  0  0  0  0  0  0  0  0  0  0
    9.3466    1.8761   22.3522 C   0  0  0  0  0  0  0  0  0  0  0  0
   10.3875    2.2088   23.4073 C   0  0  0  0  0  0  0  0  0  0  0  0
   11.7339    2.5592   22.9159 N   0  0  0  0  0  0  0  0  0  0  0  0
   11.8933    3.9701   22.5076 C   0  0  0  0  0  0  0  0  0  0  0  0
   12.4130    4.7954   23.6864 C   0  0  0  0  0  0  0  0  0  0  0  0
   13.9675    5.5511   23.1188 S   0  0  0  0  0  0  0  0  0  0  0  0
   13.8761    6.9854   23.1150 O   0  0  0  0  0  0  0  0  0  0  0  0
   15.1055    4.9700   23.7766 O   0  0  0  0  0  0  0  0  0  0  0  0
   13.8430    4.9634   21.4697 C   0  0  0  0  0  0  0  0  0  0  0  0
   12.7714    4.1755   21.3201 C   0  0  0  0  0  0  0  0  0  0  0  0
   12.7665    1.6878   22.7793 C   0  0  0  0  0  0  0  0  0  0  0  0
   13.8387    2.0236   22.2915 O   0  0  0  0  0  0  0  0  0  0  0  0
   12.5801    0.2552   23.2448 C   0  0  0  0  0  0  0  0  0  0  0  0
   13.9823   -0.7335   22.8161 Cl  0  0  0  0  0  0  0  0  0  0  0  0
    9.5257    0.4678   22.1200 O   0  0  0  0  0  0  0  0  0  0  0  0
    9.1060   -0.0538   20.8541 C   0  0  0  0  0  0  0  0  0  0  0  0
    7.7032    0.0912   20.5117 N   0  0  0  0  0  0  0  0  0  0  0  0
    7.5828   -0.2688   19.1446 C   0  0  0  0  0  0  0  0  0  0  0  0
    8.5586   -0.4655   18.4314 O   0  0  0  0  0  0  0  0  0  0  0  0
    6.1631   -0.3903   18.6265 C   0  0  0  0  0  0  0  0  0  0  0  0
    5.9165   -1.9270   17.7871 Cl  0  0  0  0  0  0  0  0  0  0  0  0
    5.6963   -6.1997   27.1112 C   0  0  0  0  0  0  0  0  0  0  0  0
  1  2  1  0
  2  3  2  0
  3  4  1  0
  4  5  2  0
  5  6  1  0
  6  7  1  0
  7  8  1  0
  8  9  2  0
  8 10  1  0
 10 11  2  0
 11 12  1  0
 12 13  2  0
 13 14  1  0
 14 15  2  0
 13 16  1  0
 16 17  1  0
 17 18  1  0
 18 19  1  0
 19 20  1  0
 20 21  1  0
 21 22  1  0
 22 23  1  0
 23 24  1  0
 24 25  2  0
 24 26  2  0
 24 27  1  0
 27 28  2  0
 21 29  1  0
 29 30  2  0
 29 31  1  0
 31 32  1  0
 19 33  1  0
 33 34  1  0
 34 35  1  0
 35 36  1  0
 36 37  2  0
 36 38  1  0
 38 39  1  0
  6 40  2  0
 40  2  1  0
 15 10  1  0
 35 16  1  0
 28 22  1  0
M  END
