CVD-0003848|dock_bobby27042020.44|mol2|8|dock3
     RDKit          3D

 23 25  0  0  0  0  0  0  0  0999 V2000
   13.8209    5.2882   21.1063 N   0  0  0  0  0  0  0  0  0  0  0  0
   13.5029    5.0561   22.6580 S   0  0  0  0  0  0  0  0  0  0  0  0
   12.7335    6.1783   23.1050 O   0  0  0  0  0  0  0  0  0  0  0  0
   14.7467    4.7677   23.3067 O   0  0  0  0  0  0  0  0  0  0  0  0
   12.4824    3.6216   22.8120 C   0  0  0  0  0  0  0  0  0  0  0  0
   13.0620    2.3670   22.8757 C   0  0  0  0  0  0  0  0  0  0  0  0
   12.2584    1.2470   22.9937 C   0  0  0  0  0  0  0  0  0  0  0  0
   10.8721    1.3579   23.0444 C   0  0  0  0  0  0  0  0  0  0  0  0
   10.3118    2.6297   22.9739 C   0  0  0  0  0  0  0  0  0  0  0  0
   11.1064    3.7566   22.8603 C   0  0  0  0  0  0  0  0  0  0  0  0
   10.0705    0.2304   23.1618 N   0  0  0  0  0  0  0  0  0  0  0  0
    9.2973   -0.0737   24.3696 C   0  0  0  0  0  0  0  0  0  0  0  0
    9.4313   -1.5134   24.7784 C   0  0  0  0  0  0  0  0  0  0  0  0
    9.0238   -2.4499   23.6355 C   0  0  0  0  0  0  0  0  0  0  0  0
    9.1516   -3.9135   24.0358 C   0  0  0  0  0  0  0  0  0  0  0  0
    8.6600   -4.2124   25.3849 N   0  0  0  0  0  0  0  0  0  0  0  0
    9.2993   -5.4317   25.8943 C   0  0  0  0  0  0  0  0  0  0  0  0
    8.8364   -5.7489   27.2936 C   0  0  0  0  0  0  0  0  0  0  0  0
    7.3383   -5.8862   27.3656 C   0  0  0  0  0  0  0  0  0  0  0  0
    6.6780   -4.6599   26.7651 C   0  0  0  0  0  0  0  0  0  0  0  0
    7.2011   -4.3909   25.3797 C   0  0  0  0  0  0  0  0  0  0  0  0
    9.8419   -2.1088   22.4156 C   0  0  0  0  0  0  0  0  0  0  0  0
    9.7341   -0.6515   22.0200 C   0  0  0  0  0  0  0  0  0  0  0  0
  1  2  1  0
  2  3  2  0
  2  4  2  0
  2  5  1  0
  5  6  2  0
  6  7  1  0
  7  8  2  0
  8  9  1  0
  9 10  2  0
  8 11  1  0
 11 12  1  0
 12 13  1  0
 13 14  1  0
 14 15  1  0
 15 16  1  0
 16 17  1  0
 17 18  1  0
 18 19  1  0
 19 20  1  0
 20 21  1  0
 14 22  1  0
 22 23  1  0
 10  5  1  0
 23 11  1  0
 21 16  1  0
M  END
