CVD-0001134|dock_bobby27042020.82|mol2|6|dock3
     RDKit          3D

 23 25  0  0  0  0  0  0  0  0999 V2000
    8.2952   -4.9559   23.7257 C   0  0  0  0  0  0  0  0  0  0  0  0
    8.1923   -3.6252   24.3993 C   0  0  0  0  0  0  0  0  0  0  0  0
    7.5045   -3.4655   25.3822 O   0  0  0  0  0  0  0  0  0  0  0  0
    8.9664   -2.4960   23.7673 C   0  0  0  0  0  0  0  0  0  0  0  0
    8.4587   -2.0497   22.3910 C   0  0  0  0  0  0  0  0  0  0  0  0
    6.9799   -1.8035   22.4714 C   0  0  0  0  0  0  0  0  0  0  0  0
    6.4798   -1.3765   21.1136 C   0  0  0  0  0  0  0  0  0  0  0  0
    7.3212   -0.3011   20.5572 N   0  0  0  0  0  0  0  0  0  0  0  0
    8.5646   -0.0601   20.9808 C   0  0  0  0  0  0  0  0  0  0  0  0
    9.1864    0.8643   20.4806 O   0  0  0  0  0  0  0  0  0  0  0  0
    9.1162   -0.8198   21.9264 N   0  0  0  0  0  0  0  0  0  0  0  0
   10.4020   -0.5189   22.4832 C   0  0  0  0  0  0  0  0  0  0  0  0
   11.5125   -1.3054   22.2027 C   0  0  0  0  0  0  0  0  0  0  0  0
   12.7367   -0.9833   22.7612 C   0  0  0  0  0  0  0  0  0  0  0  0
   12.8150    0.1158   23.5844 C   0  0  0  0  0  0  0  0  0  0  0  0
   11.7664    0.8872   23.8711 N   0  0  0  0  0  0  0  0  0  0  0  0
   10.5893    0.5655   23.3256 C   0  0  0  0  0  0  0  0  0  0  0  0
    6.7212    0.4337   19.4706 C   0  0  0  0  0  0  0  0  0  0  0  0
    5.5766    1.1967   19.6689 C   0  0  0  0  0  0  0  0  0  0  0  0
    5.0185    1.8878   18.6080 C   0  0  0  0  0  0  0  0  0  0  0  0
    5.6266    1.8084   17.3777 C   0  0  0  0  0  0  0  0  0  0  0  0
    6.7273    1.0911   17.1574 N   0  0  0  0  0  0  0  0  0  0  0  0
    7.2444    0.4101   18.1848 C   0  0  0  0  0  0  0  0  0  0  0  0
  1  2  1  0
  2  3  2  0
  2  4  1  0
  4  5  1  0
  5  6  1  0
  6  7  1  0
  7  8  1  0
  8  9  1  0
  9 10  2  0
  9 11  1  0
 11 12  1  0
 12 13  2  0
 13 14  1  0
 14 15  2  0
 15 16  1  0
 16 17  2  0
  8 18  1  0
 18 19  2  0
 19 20  1  0
 20 21  2  0
 21 22  1  0
 22 23  2  0
 11  5  1  0
 17 12  1  0
 23 18  1  0
M  END
