CVD-0000205|dock_bobby27042020.13|mol2|39|dock3
     RDKit          3D

 25 28  0  0  0  0  0  0  0  0999 V2000
   13.6920    0.7039   22.9032 C   0  0  0  0  0  0  0  0  0  0  0  0
   12.2884    0.1823   23.0633 C   0  0  0  0  0  0  0  0  0  0  0  0
   11.2165    1.0630   23.1825 C   0  0  0  0  0  0  0  0  0  0  0  0
    9.9170    0.6120   23.3285 C   0  0  0  0  0  0  0  0  0  0  0  0
    9.6716   -0.7519   23.3591 C   0  0  0  0  0  0  0  0  0  0  0  0
    8.3783   -1.2573   23.5057 O   0  0  0  0  0  0  0  0  0  0  0  0
    7.6725   -1.7412   22.4459 C   0  0  0  0  0  0  0  0  0  0  0  0
    7.2352   -0.9079   21.5341 N   0  0  0  0  0  0  0  0  0  0  0  0
    6.5355   -1.4227   20.5136 C   0  0  0  0  0  0  0  0  0  0  0  0
    6.2375   -2.7051   20.3218 N   0  0  0  0  0  0  0  0  0  0  0  0
    6.7023   -3.5847   21.2625 C   0  0  0  0  0  0  0  0  0  0  0  0
    6.4299   -4.9652   21.1164 C   0  0  0  0  0  0  0  0  0  0  0  0
    6.8868   -5.8596   22.0399 C   0  0  0  0  0  0  0  0  0  0  0  0
    7.6209   -5.4427   23.1319 C   0  0  0  0  0  0  0  0  0  0  0  0
    7.9065   -4.1224   23.3148 C   0  0  0  0  0  0  0  0  0  0  0  0
    7.4524   -3.1534   22.3842 C   0  0  0  0  0  0  0  0  0  0  0  0
    6.0407   -0.4713   19.4916 C   0  0  0  0  0  0  0  0  0  0  0  0
    4.9249    0.3240   19.7234 C   0  0  0  0  0  0  0  0  0  0  0  0
    4.4891    1.2025   18.7471 C   0  0  0  0  0  0  0  0  0  0  0  0
    5.1840    1.2617   17.5605 C   0  0  0  0  0  0  0  0  0  0  0  0
    6.2581    0.5135   17.3047 N   0  0  0  0  0  0  0  0  0  0  0  0
    6.6644   -0.3292   18.2593 C   0  0  0  0  0  0  0  0  0  0  0  0
   10.7212   -1.6486   23.2391 C   0  0  0  0  0  0  0  0  0  0  0  0
   12.0299   -1.1975   23.0900 C   0  0  0  0  0  0  0  0  0  0  0  0
   13.1527   -2.1931   22.9650 C   0  0  0  0  0  0  0  0  0  0  0  0
  1  2  1  0
  2  3  2  0
  3  4  1  0
  4  5  2  0
  5  6  1  0
  6  7  1  0
  7  8  2  0
  8  9  1  0
  9 10  2  0
 10 11  1  0
 11 12  2  0
 12 13  1  0
 13 14  2  0
 14 15  1  0
 15 16  2  0
  9 17  1  0
 17 18  2  0
 18 19  1  0
 19 20  2  0
 20 21  1  0
 21 22  2  0
  5 23  1  0
 23 24  2  0
 24 25  1  0
 24  2  1  0
 16  7  1  0
 22 17  1  0
 16 11  1  0
M  END
