CVD-0003187|dock_bobby27042020.46|mol2|8|dock2
     RDKit          3D

 21 22  0  0  0  0  0  0  0  0999 V2000
    2.9039    3.9242   19.8864 N   0  0  0  0  0  0  0  0  0  0  0  0
    2.9644    2.6833   19.1448 C   0  0  0  0  0  0  0  0  0  0  0  0
    4.1944    1.8414   19.3780 C   0  0  0  0  0  0  0  0  0  0  0  0
    5.2554    1.8601   18.4895 C   0  0  0  0  0  0  0  0  0  0  0  0
    6.3773    1.0815   18.7079 C   0  0  0  0  0  0  0  0  0  0  0  0
    6.4817    0.2479   19.8244 C   0  0  0  0  0  0  0  0  0  0  0  0
    7.7285   -0.6105   20.0371 C   0  0  0  0  0  0  0  0  0  0  0  0
    8.2782   -0.9443   18.7857 O   0  0  0  0  0  0  0  0  0  0  0  0
    8.6952    0.0651   20.8378 N   0  0  0  0  0  0  0  0  0  0  0  0
    8.7100   -0.2031   22.2901 C   0  0  0  0  0  0  0  0  0  0  0  0
    9.3967   -1.5273   22.6305 C   0  0  0  0  0  0  0  0  0  0  0  0
   10.9114   -1.4804   22.4089 C   0  0  0  0  0  0  0  0  0  0  0  0
   11.5064   -0.3438   23.2280 C   0  0  0  0  0  0  0  0  0  0  0  0
   10.8717    0.9985   22.8767 C   0  0  0  0  0  0  0  0  0  0  0  0
    9.3574    0.9322   23.0736 C   0  0  0  0  0  0  0  0  0  0  0  0
   13.0104   -0.2913   23.0839 C   0  0  0  0  0  0  0  0  0  0  0  0
   13.6239   -1.4020   23.4048 O   0  0  0  0  0  0  0  0  0  0  0  0
   13.5917    0.7010   22.7033 O   0  0  0  0  0  0  0  0  0  0  0  0
    5.4029    0.2386   20.7214 C   0  0  0  0  0  0  0  0  0  0  0  0
    5.4056   -0.5313   21.8452 O   0  0  0  0  0  0  0  0  0  0  0  0
    4.2828    1.0220   20.4941 C   0  0  0  0  0  0  0  0  0  0  0  0
  1  2  1  0
  2  3  1  0
  3  4  2  0
  4  5  1  0
  5  6  2  0
  6  7  1  0
  7  8  1  0
  7  9  1  0
  9 10  1  0
 10 11  1  0
 11 12  1  0
 12 13  1  0
 13 14  1  0
 14 15  1  0
 13 16  1  0
 16 17  1  0
 16 18  2  0
  6 19  1  0
 19 20  1  0
 19 21  2  0
 21  3  1  0
 15 10  1  0
M  END
