CVD-0001290|dock_bobby27042020.24|mol2|23|dock1
     RDKit          3D

 19 20  0  0  0  0  0  0  0  0999 V2000
    5.7220    1.7450   17.0947 C   0  0  0  0  0  0  0  0  0  0  0  0
    5.8691    1.4785   18.5138 N   0  0  0  0  0  0  0  0  0  0  0  0
    6.6222    0.4820   18.9519 C   0  0  0  0  0  0  0  0  0  0  0  0
    7.2488   -0.2900   18.2569 O   0  0  0  0  0  0  0  0  0  0  0  0
    6.5875    0.4472   20.3006 O   0  0  0  0  0  0  0  0  0  0  0  0
    7.3075   -0.6260   20.9864 C   0  0  0  0  0  0  0  0  0  0  0  0
    8.8235   -0.5010   20.8514 C   0  0  0  0  0  0  0  0  0  0  0  0
    9.5620   -1.5547   21.6519 C   0  0  0  0  0  0  0  0  0  0  0  0
    9.1191   -1.5503   23.0498 N   0  0  0  0  0  0  0  0  0  0  0  0
    7.6877   -1.7884   23.1954 C   0  0  0  0  0  0  0  0  0  0  0  0
    6.9244   -0.7102   22.4584 C   0  0  0  0  0  0  0  0  0  0  0  0
    9.9351   -1.4489   24.1460 C   0  0  0  0  0  0  0  0  0  0  0  0
    9.4385   -1.0848   25.2003 O   0  0  0  0  0  0  0  0  0  0  0  0
   11.2784   -1.7193   24.1613 N   0  0  0  0  0  0  0  0  0  0  0  0
   11.9994   -2.5323   23.1800 C   0  0  0  0  0  0  0  0  0  0  0  0
   13.1267   -1.7361   22.5562 C   0  0  0  0  0  0  0  0  0  0  0  0
   14.0567   -1.1734   23.6302 C   0  0  0  0  0  0  0  0  0  0  0  0
   13.2629   -0.3815   24.6550 C   0  0  0  0  0  0  0  0  0  0  0  0
   12.1369   -1.2067   25.2355 C   0  0  0  0  0  0  0  0  0  0  0  0
  1  2  1  0
  2  3  1  0
  3  4  2  0
  3  5  1  0
  5  6  1  0
  6  7  1  0
  7  8  1  0
  8  9  1  0
  9 10  1  0
 10 11  1  0
  9 12  1  0
 12 13  2  0
 12 14  1  0
 14 15  1  0
 15 16  1  0
 16 17  1  0
 17 18  1  0
 18 19  1  0
 11  6  1  0
 19 14  1  0
M  END
