CVD-0000301|dock_bobby27042020.13|mol2|25|dock3
     RDKit          3D

 21 22  0  0  0  0  0  0  0  0999 V2000
   13.1036   -1.9691   20.9770 N   0  0  0  0  0  0  0  0  0  0  0  0
   12.2479   -1.3679   21.8402 C   0  0  0  0  0  0  0  0  0  0  0  0
   11.0615   -1.0142   21.3907 N   0  0  0  0  0  0  0  0  0  0  0  0
   12.6260   -1.1485   23.1321 N   0  0  0  0  0  0  0  0  0  0  0  0
   13.9061   -1.5467   23.7114 C   0  0  0  0  0  0  0  0  0  0  0  0
   13.9247   -2.7907   24.5274 C   0  0  0  0  0  0  0  0  0  0  0  0
   13.7191   -1.4670   25.1945 C   0  0  0  0  0  0  0  0  0  0  0  0
   12.3250   -0.9372   25.4905 C   0  0  0  0  0  0  0  0  0  0  0  0
   11.7886   -0.4479   24.1138 C   0  0  0  0  0  0  0  0  0  0  0  0
   11.9062    1.0689   24.0186 C   0  0  0  0  0  0  0  0  0  0  0  0
   12.7209    1.6777   24.7071 O   0  0  0  0  0  0  0  0  0  0  0  0
   11.0845    1.6770   23.1585 N   0  0  0  0  0  0  0  0  0  0  0  0
   11.0908    3.1206   22.9876 C   0  0  0  0  0  0  0  0  0  0  0  0
   12.2740    3.5460   22.1150 C   0  0  0  0  0  0  0  0  0  0  0  0
   12.6261    5.0175   22.2892 C   0  0  0  0  0  0  0  0  0  0  0  0
   14.2022    5.4839   21.5322 S   0  0  0  0  0  0  0  0  0  0  0  0
    9.7445    3.5490   22.4127 C   0  0  0  0  0  0  0  0  0  0  0  0
    9.0517    2.7926   21.7542 O   0  0  0  0  0  0  0  0  0  0  0  0
    9.2763    4.9726   22.7021 C   0  0  0  0  0  0  0  0  0  0  0  0
    8.2979    5.4105   21.9201 N   0  0  0  0  0  0  0  0  0  0  0  0
    9.7842    5.6502   23.6027 O   0  0  0  0  0  0  0  0  0  0  0  0
  1  2  1  0
  2  3  2  0
  2  4  1  0
  4  5  1  0
  5  6  1  0
  6  7  1  0
  7  8  1  0
  8  9  1  0
  9 10  1  0
 10 11  2  0
 10 12  1  0
 12 13  1  0
 13 14  1  0
 14 15  1  0
 15 16  1  0
 13 17  1  0
 17 18  2  0
 17 19  1  0
 19 20  1  0
 19 21  2  0
  9  4  1  0
  7  5  1  0
M  END
