CVD-0001654|dock_bobby27042020.80|mol2|26|dock2
     RDKit          3D

 18 19  0  0  0  0  0  0  0  0999 V2000
    9.4966    3.1278   23.7769 F   0  0  0  0  0  0  0  0  0  0  0  0
   10.0455    2.1499   23.0161 C   0  0  0  0  0  0  0  0  0  0  0  0
    9.3538    2.1767   21.8511 F   0  0  0  0  0  0  0  0  0  0  0  0
   11.4905    2.4841   22.7441 C   0  0  0  0  0  0  0  0  0  0  0  0
   11.7726    3.7955   22.3745 C   0  0  0  0  0  0  0  0  0  0  0  0
   13.1002    4.1530   22.2037 C   0  0  0  0  0  0  0  0  0  0  0  0
   14.1378    3.3176   22.3804 N   0  0  0  0  0  0  0  0  0  0  0  0
   13.8597    2.0461   22.6918 C   0  0  0  0  0  0  0  0  0  0  0  0
   12.5618    1.5803   22.8580 C   0  0  0  0  0  0  0  0  0  0  0  0
   12.3773    0.2039   23.1446 N   0  0  0  0  0  0  0  0  0  0  0  0
   11.8114   -0.7543   22.1882 C   0  0  0  0  0  0  0  0  0  0  0  0
   12.8889   -1.4921   21.3615 C   0  0  0  0  0  0  0  0  0  0  0  0
   13.6193   -2.5443   22.2249 C   0  0  0  0  0  0  0  0  0  0  0  0
   14.2419   -1.8719   23.3195 O   0  0  0  0  0  0  0  0  0  0  0  0
   13.4100   -1.6614   24.4610 C   0  0  0  0  0  0  0  0  0  0  0  0
   12.8082   -0.2376   24.4805 C   0  0  0  0  0  0  0  0  0  0  0  0
   13.4351    5.5081   21.8115 C   0  0  0  0  0  0  0  0  0  0  0  0
   13.7330    6.5632   21.4910 N   0  0  0  0  0  0  0  0  0  0  0  0
  1  2  1  0
  2  3  1  0
  2  4  1  0
  4  5  2  0
  5  6  1  0
  6  7  2  0
  7  8  1  0
  8  9  2  0
  9 10  1  0
 10 11  1  0
 11 12  1  0
 12 13  1  0
 13 14  1  0
 14 15  1  0
 15 16  1  0
  6 17  1  0
 17 18  3  0
  9  4  1  0
 16 10  1  0
M  END
