CVD-0000679|dock_bobby27042020.83|mol2|36|dock1
     RDKit          3D

 25 27  0  0  0  0  0  0  0  0999 V2000
   13.4645   -0.0059   22.8212 C   0  0  0  0  0  0  0  0  0  0  0  0
   13.4914   -1.5014   21.9103 S   0  0  0  0  0  0  0  0  0  0  0  0
   13.9059   -2.5499   22.7906 O   0  0  0  0  0  0  0  0  0  0  0  0
   14.2414   -1.2784   20.7130 O   0  0  0  0  0  0  0  0  0  0  0  0
   11.9855   -1.8278   21.4674 N   0  0  0  0  0  0  0  0  0  0  0  0
   10.9488   -2.0232   22.4876 C   0  0  0  0  0  0  0  0  0  0  0  0
    9.9585   -0.8548   22.6086 C   0  0  0  0  0  0  0  0  0  0  0  0
    9.1608   -0.7088   21.3103 C   0  0  0  0  0  0  0  0  0  0  0  0
    9.3310   -1.5599   20.4608 O   0  0  0  0  0  0  0  0  0  0  0  0
    8.3117    0.3591   21.1320 N   0  0  0  0  0  0  0  0  0  0  0  0
    8.1697    1.4299   22.1246 C   0  0  0  0  0  0  0  0  0  0  0  0
    6.7121    1.6070   22.4672 C   0  0  0  0  0  0  0  0  0  0  0  0
    5.9706    1.9839   21.3064 O   0  0  0  0  0  0  0  0  0  0  0  0
    6.2861    1.2938   20.1601 C   0  0  0  0  0  0  0  0  0  0  0  0
    5.4292    1.4898   19.0874 C   0  0  0  0  0  0  0  0  0  0  0  0
    5.6991    0.8123   17.9208 C   0  0  0  0  0  0  0  0  0  0  0  0
    6.7327   -0.0123   17.7769 N   0  0  0  0  0  0  0  0  0  0  0  0
    7.5553   -0.1963   18.8167 C   0  0  0  0  0  0  0  0  0  0  0  0
    7.3893    0.4315   20.0503 C   0  0  0  0  0  0  0  0  0  0  0  0
    9.0180   -1.0930   23.7803 C   0  0  0  0  0  0  0  0  0  0  0  0
    9.3169   -0.5988   25.0423 C   0  0  0  0  0  0  0  0  0  0  0  0
    8.4618   -0.8185   26.1093 C   0  0  0  0  0  0  0  0  0  0  0  0
    7.2985   -1.5354   25.9281 C   0  0  0  0  0  0  0  0  0  0  0  0
    6.9895   -2.0333   24.6804 C   0  0  0  0  0  0  0  0  0  0  0  0
    7.8440   -1.8140   23.6129 C   0  0  0  0  0  0  0  0  0  0  0  0
  1  2  1  0
  2  3  2  0
  2  4  2  0
  2  5  1  0
  5  6  1  0
  7  6  1  0
  7  8  1  0
  8  9  2  0
  8 10  1  0
 10 11  1  0
 11 12  1  0
 12 13  1  0
 13 14  1  0
 14 15  2  0
 15 16  1  0
 16 17  2  0
 17 18  1  0
 18 19  2  0
  7 20  1  0
 20 21  2  0
 21 22  1  0
 22 23  2  0
 23 24  1  0
 24 25  2  0
 19 10  1  0
 25 20  1  0
 19 14  1  0
M  END
