CVD-0003367|dock_bobby27042020.60|mol2|6|dock2
     RDKit          3D

 20 21  0  0  0  0  0  0  0  0999 V2000
    3.9581    2.1121   18.9978 Cl  0  0  0  0  0  0  0  0  0  0  0  0
    5.3404    1.1496   19.4064 C   0  0  0  0  0  0  0  0  0  0  0  0
    5.8333    0.2577   18.4703 C   0  0  0  0  0  0  0  0  0  0  0  0
    6.9353   -0.5231   18.7699 C   0  0  0  0  0  0  0  0  0  0  0  0
    7.5568   -0.4188   20.0099 C   0  0  0  0  0  0  0  0  0  0  0  0
    8.6594   -1.1903   20.3260 N   0  0  0  0  0  0  0  0  0  0  0  0
    8.8869   -1.7600   21.6403 C   0  0  0  0  0  0  0  0  0  0  0  0
   10.0640   -1.1152   22.3460 C   0  0  0  0  0  0  0  0  0  0  0  0
    9.9308   -0.6080   23.4554 O   0  0  0  0  0  0  0  0  0  0  0  0
   11.2215   -1.1326   21.6906 N   0  0  0  0  0  0  0  0  0  0  0  0
   12.4643   -0.6746   22.2941 C   0  0  0  0  0  0  0  0  0  0  0  0
   12.8695   -1.4762   23.5074 C   0  0  0  0  0  0  0  0  0  0  0  0
   13.8158   -1.0102   24.4045 C   0  0  0  0  0  0  0  0  0  0  0  0
   14.1554   -1.7761   25.5058 C   0  0  0  0  0  0  0  0  0  0  0  0
   13.5321   -2.9916   25.6753 C   0  0  0  0  0  0  0  0  0  0  0  0
   12.6163   -3.4664   24.8296 N   0  0  0  0  0  0  0  0  0  0  0  0
   12.3043   -2.7093   23.7733 C   0  0  0  0  0  0  0  0  0  0  0  0
    7.0576    0.4787   20.9482 C   0  0  0  0  0  0  0  0  0  0  0  0
    5.9556    1.2559   20.6428 C   0  0  0  0  0  0  0  0  0  0  0  0
    5.3169    2.4626   21.9576 Br  0  0  0  0  0  0  0  0  0  0  0  0
  1  2  1  0
  2  3  2  0
  3  4  1  0
  4  5  2  0
  5  6  1  0
  6  7  1  0
  7  8  1  0
  8  9  2  0
  8 10  1  0
 10 11  1  0
 11 12  1  0
 12 13  2  0
 13 14  1  0
 14 15  2  0
 15 16  1  0
 16 17  2  0
  5 18  1  0
 18 19  2  0
 19 20  1  0
 19  2  1  0
 17 12  1  0
M  END
