CVD-0000830|dock_bobby27042020.40|mol2|19|dock2
     RDKit          3D

 29 31  0  0  0  0  0  0  0  0999 V2000
    0.6133    4.1787   18.8667 Cl  0  0  0  0  0  0  0  0  0  0  0  0
    2.2239    3.4963   18.6065 C   0  0  0  0  0  0  0  0  0  0  0  0
    2.6169    2.5571   19.7309 C   0  0  0  0  0  0  0  0  0  0  0  0
    1.8361    2.3403   20.6491 O   0  0  0  0  0  0  0  0  0  0  0  0
    3.8415    1.9799   19.6936 N   0  0  0  0  0  0  0  0  0  0  0  0
    4.3181    1.0608   20.7296 C   0  0  0  0  0  0  0  0  0  0  0  0
    4.7769   -0.2456   20.1088 C   0  0  0  0  0  0  0  0  0  0  0  0
    5.8362    0.0039   19.1267 N   0  0  0  0  0  0  0  0  0  0  0  0
    6.3123   -1.2625   18.5510 C   0  0  0  0  0  0  0  0  0  0  0  0
    6.7730   -2.2469   19.6015 C   0  0  0  0  0  0  0  0  0  0  0  0
    6.1906   -3.5108   19.6317 C   0  0  0  0  0  0  0  0  0  0  0  0
    6.5807   -4.4642   20.5676 C   0  0  0  0  0  0  0  0  0  0  0  0
    7.5709   -4.1485   21.4882 C   0  0  0  0  0  0  0  0  0  0  0  0
    8.1500   -2.8938   21.4634 C   0  0  0  0  0  0  0  0  0  0  0  0
    7.7691   -1.9250   20.5369 C   0  0  0  0  0  0  0  0  0  0  0  0
    8.4319   -0.5665   20.5674 C   0  0  0  0  0  0  0  0  0  0  0  0
    9.8814   -0.6101   20.7074 N   0  0  0  0  0  0  0  0  0  0  0  0
   10.4804    0.0492   21.7156 C   0  0  0  0  0  0  0  0  0  0  0  0
    9.8147    0.6681   22.5367 O   0  0  0  0  0  0  0  0  0  0  0  0
   11.8389    0.0390   21.8410 N   0  0  0  0  0  0  0  0  0  0  0  0
   12.6897   -0.9739   21.2055 C   0  0  0  0  0  0  0  0  0  0  0  0
   13.7083   -1.4903   22.2012 C   0  0  0  0  0  0  0  0  0  0  0  0
   14.4807   -0.4450   22.7566 O   0  0  0  0  0  0  0  0  0  0  0  0
   13.6347    0.4870   23.4308 C   0  0  0  0  0  0  0  0  0  0  0  0
   12.6251    1.0965   22.4836 C   0  0  0  0  0  0  0  0  0  0  0  0
    5.9595   -5.7656   20.5762 C   0  0  0  0  0  0  0  0  0  0  0  0
    5.4453   -6.7853   20.6054 N   0  0  0  0  0  0  0  0  0  0  0  0
    5.3181    0.8794   18.0788 C   0  0  0  0  0  0  0  0  0  0  0  0
    4.8593    2.2034   18.6622 C   0  0  0  0  0  0  0  0  0  0  0  0
  1  2  1  0
  2  3  1  0
  3  4  2  0
  3  5  1  0
  5  6  1  0
  6  7  1  0
  7  8  1  0
  8  9  1  0
  9 10  1  0
 10 11  2  0
 11 12  1  0
 12 13  2  0
 13 14  1  0
 14 15  2  0
 15 16  1  0
 16 17  1  0
 17 18  1  0
 18 19  2  0
 18 20  1  0
 20 21  1  0
 21 22  1  0
 22 23  1  0
 23 24  1  0
 24 25  1  0
 12 26  1  0
 26 27  3  0
  8 28  1  0
 28 29  1  0
 29  5  1  0
 15 10  1  0
 25 20  1  0
M  END
