CVD-0001456|dock_bobby27042020.67|mol2|7|dock3
     RDKit          3D

 29 32  0  0  0  0  0  0  0  0999 V2000
    6.1522   -6.8079   21.6592 C   0  0  0  0  0  0  0  0  0  0  0  0
    6.8715   -5.7424   21.8927 C   0  0  0  0  0  0  0  0  0  0  0  0
    6.4282   -4.3966   21.4355 C   0  0  0  0  0  0  0  0  0  0  0  0
    5.4037   -4.2652   20.7677 O   0  0  0  0  0  0  0  0  0  0  0  0
    7.1852   -3.3319   21.7774 N   0  0  0  0  0  0  0  0  0  0  0  0
    7.1699   -1.9555   21.2920 C   0  0  0  0  0  0  0  0  0  0  0  0
    7.9280   -1.5500   22.5824 C   0  0  0  0  0  0  0  0  0  0  0  0
    7.7458   -2.9974   23.0858 C   0  0  0  0  0  0  0  0  0  0  0  0
    9.3317   -1.1669   22.3458 N   0  0  0  0  0  0  0  0  0  0  0  0
   10.0778   -0.8206   23.5594 C   0  0  0  0  0  0  0  0  0  0  0  0
   11.4460   -0.2675   23.2459 C   0  0  0  0  0  0  0  0  0  0  0  0
   12.5844   -1.0685   23.2823 C   0  0  0  0  0  0  0  0  0  0  0  0
   13.8388   -0.5535   22.9895 C   0  0  0  0  0  0  0  0  0  0  0  0
   13.9979    0.7812   22.6489 C   0  0  0  0  0  0  0  0  0  0  0  0
   12.8863    1.6208   22.5982 C   0  0  0  0  0  0  0  0  0  0  0  0
   12.6763    3.0077   22.2942 C   0  0  0  0  0  0  0  0  0  0  0  0
   13.7323    4.0035   21.9131 C   0  0  0  0  0  0  0  0  0  0  0  0
   13.3542    5.4297   22.2597 C   0  0  0  0  0  0  0  0  0  0  0  0
   13.0215    5.5760   23.6696 N   0  0  0  0  0  0  0  0  0  0  0  0
   11.8550    6.0825   24.0710 C   0  0  0  0  0  0  0  0  0  0  0  0
   10.9987    6.4528   23.2693 O   0  0  0  0  0  0  0  0  0  0  0  0
   11.5915    6.1989   25.5241 C   0  0  0  0  0  0  0  0  0  0  0  0
   12.4567    6.3814   26.6237 C   0  0  0  0  0  0  0  0  0  0  0  0
   11.6593    6.4230   27.7903 C   0  0  0  0  0  0  0  0  0  0  0  0
   10.3635    6.2710   27.4034 C   0  0  0  0  0  0  0  0  0  0  0  0
   10.3182    6.1361   26.0433 N   0  0  0  0  0  0  0  0  0  0  0  0
   11.3364    3.2294   22.4219 C   0  0  0  0  0  0  0  0  0  0  0  0
   10.6934    2.0773   22.7848 N   0  0  0  0  0  0  0  0  0  0  0  0
   11.6251    1.0751   22.8995 C   0  0  0  0  0  0  0  0  0  0  0  0
  1  2  2  0
  2  3  1  0
  3  4  2  0
  3  5  1  0
  5  6  1  0
  6  7  1  0
  7  8  1  0
  7  9  1  0
  9 10  1  0
 10 11  1  0
 11 12  2  0
 12 13  1  0
 13 14  2  0
 14 15  1  0
 15 16  1  0
 16 17  1  0
 17 18  1  0
 18 19  1  0
 19 20  1  0
 20 21  2  0
 20 22  1  0
 22 23  2  0
 23 24  1  0
 24 25  2  0
 25 26  1  0
 16 27  2  0
 27 28  1  0
 28 29  1  0
  8  5  1  0
 29 11  1  0
 29 15  2  0
 26 22  1  0
M  END
