CVD-0003248|dock_bobby27042020.74|mol2|27|dock2
     RDKit          3D

 26 29  0  0  0  0  0  0  0  0999 V2000
    5.9016   -2.2840   17.8152 O   0  0  0  0  0  0  0  0  0  0  0  0
    6.9251   -1.6663   18.0934 N   0  0  0  0  0  0  0  0  0  0  0  0
    8.0165   -2.0881   17.7501 O   0  0  0  0  0  0  0  0  0  0  0  0
    6.8627   -0.3936   18.8111 C   0  0  0  0  0  0  0  0  0  0  0  0
    5.8243    0.4426   18.4461 C   0  0  0  0  0  0  0  0  0  0  0  0
    5.5669    1.6259   19.1131 C   0  0  0  0  0  0  0  0  0  0  0  0
    6.3338    2.0147   20.1638 C   0  0  0  0  0  0  0  0  0  0  0  0
    7.4128    1.2117   20.5942 C   0  0  0  0  0  0  0  0  0  0  0  0
    8.2047    1.6164   21.6911 C   0  0  0  0  0  0  0  0  0  0  0  0
    9.2525    0.8798   22.1519 C   0  0  0  0  0  0  0  0  0  0  0  0
   10.0979    1.3089   23.3248 C   0  0  0  0  0  0  0  0  0  0  0  0
   10.5320    0.1202   24.1137 C   0  0  0  0  0  0  0  0  0  0  0  0
   11.2990   -0.8233   23.2635 N   0  0  0  0  0  0  0  0  0  0  0  0
   10.7444   -1.1542   21.9374 C   0  0  0  0  0  0  0  0  0  0  0  0
    9.5367   -0.3158   21.5014 C   0  0  0  0  0  0  0  0  0  0  0  0
    8.8054   -0.7575   20.4356 C   0  0  0  0  0  0  0  0  0  0  0  0
    7.7029   -0.0175   19.9233 C   0  0  0  0  0  0  0  0  0  0  0  0
   12.4775   -1.3831   23.6153 C   0  0  0  0  0  0  0  0  0  0  0  0
   12.9956   -1.1607   24.7026 O   0  0  0  0  0  0  0  0  0  0  0  0
   13.1499   -2.2994   22.6108 C   0  0  0  0  0  0  0  0  0  0  0  0
   14.4959   -3.1905   23.3332 Cl  0  0  0  0  0  0  0  0  0  0  0  0
   11.2592    2.1300   22.8674 C   0  0  0  0  0  0  0  0  0  0  0  0
   12.5857    1.9913   23.1249 C   0  0  0  0  0  0  0  0  0  0  0  0
   13.2124    3.0061   22.4638 N   0  0  0  0  0  0  0  0  0  0  0  0
   12.2697    3.7187   21.8358 C   0  0  0  0  0  0  0  0  0  0  0  0
   11.0577    3.2296   22.0467 N   0  0  0  0  0  0  0  0  0  0  0  0
  1  2  1  0
  2  3  2  0
  2  4  1  0
  4  5  2  0
  5  6  1  0
  6  7  2  0
  7  8  1  0
  8  9  2  0
  9 10  1  0
 10 11  1  0
 11 12  1  0
 12 13  1  0
 13 14  1  0
 14 15  1  0
 15 16  1  0
 16 17  2  0
 13 18  1  0
 18 19  2  0
 18 20  1  0
 20 21  1  0
 11 22  1  0
 22 23  2  0
 23 24  1  0
 24 25  1  0
 25 26  2  0
 17  4  1  0
 26 22  1  0
 17  8  1  0
 15 10  2  0
M  CHG  2   1  -1   2   1
M  END
