CVD-0001884|dock_bobby27042020.51|mol2|8|dock3
     RDKit          3D

 33 35  0  0  0  0  0  0  0  0999 V2000
   12.9847    4.7785   21.7132 C   0  0  0  0  0  0  0  0  0  0  0  0
   12.1433    4.2268   22.8345 C   0  0  0  0  0  0  0  0  0  0  0  0
   10.9077    5.0339   23.1547 C   0  0  0  0  0  0  0  0  0  0  0  0
   11.0364    6.2629   23.7941 C   0  0  0  0  0  0  0  0  0  0  0  0
    9.9234    7.0202   24.1073 C   0  0  0  0  0  0  0  0  0  0  0  0
    8.6666    6.5685   23.7491 C   0  0  0  0  0  0  0  0  0  0  0  0
    8.4889    5.3599   23.0787 C   0  0  0  0  0  0  0  0  0  0  0  0
    7.0952    4.9941   22.6381 C   0  0  0  0  0  0  0  0  0  0  0  0
    9.6237    4.5692   22.8332 C   0  0  0  0  0  0  0  0  0  0  0  0
    9.5489    3.2623   22.2397 N   0  0  0  0  0  0  0  0  0  0  0  0
    9.2232    2.1009   22.8608 C   0  0  0  0  0  0  0  0  0  0  0  0
    8.9361    1.9839   24.0492 O   0  0  0  0  0  0  0  0  0  0  0  0
    9.2734    0.8739   21.9258 C   0  0  0  0  0  0  0  0  0  0  0  0
    9.8067   -0.3093   22.6552 N   0  0  0  0  0  0  0  0  0  0  0  0
   10.9204   -0.0957   23.5067 C   0  0  0  0  0  0  0  0  0  0  0  0
   11.3887    1.0377   23.6036 O   0  0  0  0  0  0  0  0  0  0  0  0
   11.5797   -1.1359   24.3466 C   0  0  0  0  0  0  0  0  0  0  0  0
   12.5753   -0.8258   25.1343 C   0  0  0  0  0  0  0  0  0  0  0  0
    9.1621   -1.5238   22.4523 C   0  0  0  0  0  0  0  0  0  0  0  0
    8.2423   -2.1432   23.2597 C   0  0  0  0  0  0  0  0  0  0  0  0
    7.8872   -3.3272   22.6259 C   0  0  0  0  0  0  0  0  0  0  0  0
    8.5318   -3.4655   21.4729 N   0  0  0  0  0  0  0  0  0  0  0  0
    9.3029   -2.3497   21.3703 N   0  0  0  0  0  0  0  0  0  0  0  0
    6.9114   -4.3944   23.0884 C   0  0  0  0  0  0  0  0  0  0  0  0
    7.3207   -4.9060   24.4724 C   0  0  0  0  0  0  0  0  0  0  0  0
    6.9148   -5.5633   22.0991 C   0  0  0  0  0  0  0  0  0  0  0  0
    5.4996   -3.8065   23.1670 C   0  0  0  0  0  0  0  0  0  0  0  0
    7.9519    0.5703   21.2253 C   0  0  0  0  0  0  0  0  0  0  0  0
    7.8647   -0.0093   19.9662 C   0  0  0  0  0  0  0  0  0  0  0  0
    6.6240   -0.2533   19.4031 C   0  0  0  0  0  0  0  0  0  0  0  0
    5.4985    0.0911   20.1160 C   0  0  0  0  0  0  0  0  0  0  0  0
    5.5448    0.6502   21.3256 N   0  0  0  0  0  0  0  0  0  0  0  0
    6.7533    0.8756   21.8496 C   0  0  0  0  0  0  0  0  0  0  0  0
  1  2  1  0
  2  3  1  0
  3  4  2  0
  4  5  1  0
  5  6  2  0
  6  7  1  0
  7  8  1  0
  7  9  2  0
  9 10  1  0
 10 11  1  0
 11 12  2  0
 11 13  1  0
 13 14  1  0
 14 15  1  0
 15 16  2  0
 15 17  1  0
 17 18  2  0
 14 19  1  0
 19 20  2  0
 20 21  1  0
 21 22  2  0
 22 23  1  0
 21 24  1  0
 24 25  1  0
 24 26  1  0
 24 27  1  0
 13 28  1  0
 28 29  2  0
 29 30  1  0
 30 31  2  0
 31 32  1  0
 32 33  2  0
  9  3  1  0
 23 19  1  0
 33 28  1  0
M  END
