CVD-0000414|dock_bobby27042020.13|mol2|8|dock2
     RDKit          3D

 24 26  0  0  0  0  0  0  0  0999 V2000
   13.2904    2.5372   22.3964 C   0  0  0  0  0  0  0  0  0  0  0  0
   13.4535    1.0800   22.7181 C   0  0  0  0  0  0  0  0  0  0  0  0
   14.5646    0.5640   22.6695 O   0  0  0  0  0  0  0  0  0  0  0  0
   12.3672    0.3433   23.0768 N   0  0  0  0  0  0  0  0  0  0  0  0
   11.0165    0.9047   23.1520 C   0  0  0  0  0  0  0  0  0  0  0  0
   10.0549    0.0866   22.3102 C   0  0  0  0  0  0  0  0  0  0  0  0
   10.0489   -1.3090   22.7586 N   0  0  0  0  0  0  0  0  0  0  0  0
    9.0894   -2.0975   21.9723 C   0  0  0  0  0  0  0  0  0  0  0  0
    7.8046   -1.3549   21.6903 C   0  0  0  0  0  0  0  0  0  0  0  0
    6.8230   -1.2345   22.6678 C   0  0  0  0  0  0  0  0  0  0  0  0
    5.6672   -0.5484   22.3764 C   0  0  0  0  0  0  0  0  0  0  0  0
    4.7235   -0.4468   23.3508 F   0  0  0  0  0  0  0  0  0  0  0  0
    5.4055    0.0415   21.1616 C   0  0  0  0  0  0  0  0  0  0  0  0
    6.3743   -0.0632   20.1642 C   0  0  0  0  0  0  0  0  0  0  0  0
    6.4940    0.3941   18.8002 C   0  0  0  0  0  0  0  0  0  0  0  0
    7.7073   -0.0370   18.3433 C   0  0  0  0  0  0  0  0  0  0  0  0
    8.3570   -0.7332   19.3266 N   0  0  0  0  0  0  0  0  0  0  0  0
    7.5623   -0.7627   20.4477 C   0  0  0  0  0  0  0  0  0  0  0  0
    5.4769    1.1898   18.0370 C   0  0  0  0  0  0  0  0  0  0  0  0
    4.4433    0.4525   17.6541 F   0  0  0  0  0  0  0  0  0  0  0  0
    4.9798    2.1904   18.7510 F   0  0  0  0  0  0  0  0  0  0  0  0
    5.9813    1.7291   16.9356 F   0  0  0  0  0  0  0  0  0  0  0  0
   11.3953   -1.8587   22.6232 C   0  0  0  0  0  0  0  0  0  0  0  0
   12.3848   -1.0711   23.4626 C   0  0  0  0  0  0  0  0  0  0  0  0
  1  2  1  0
  2  3  2  0
  2  4  1  0
  4  5  1  0
  5  6  1  0
  6  7  1  0
  7  8  1  0
  8  9  1  0
  9 10  2  0
 10 11  1  0
 11 12  1  0
 11 13  2  0
 13 14  1  0
 14 15  1  0
 15 16  2  0
 16 17  1  0
 17 18  1  0
 15 19  1  0
 19 20  1  0
 19 21  1  0
 19 22  1  0
  7 23  1  0
 23 24  1  0
 24  4  1  0
 18  9  1  0
 18 14  2  0
M  END
