CVD-0002271|dock_bobby27042020.78|mol2|6|dock2
     RDKit          3D

 26 28  0  0  0  0  0  0  0  0999 V2000
   12.0954    3.5372   21.7509 C   0  0  0  0  0  0  0  0  0  0  0  0
   13.1743    2.9281   22.9887 S   0  0  0  0  0  0  0  0  0  0  0  0
   14.4995    3.3674   22.6777 O   0  0  0  0  0  0  0  0  0  0  0  0
   12.6235    3.2683   24.2642 O   0  0  0  0  0  0  0  0  0  0  0  0
   13.1743    1.3279   22.8889 N   0  0  0  0  0  0  0  0  0  0  0  0
   12.2090    0.5467   23.6689 C   0  0  0  0  0  0  0  0  0  0  0  0
   11.5999   -0.6187   22.8783 C   0  0  0  0  0  0  0  0  0  0  0  0
   10.5811   -0.1943   21.8444 C   0  0  0  0  0  0  0  0  0  0  0  0
   10.2823    1.0314   21.5720 N   0  0  0  0  0  0  0  0  0  0  0  0
    9.3086    1.1376   20.5795 N   0  0  0  0  0  0  0  0  0  0  0  0
    8.9032   -0.0064   20.1401 C   0  0  0  0  0  0  0  0  0  0  0  0
    7.8620   -0.1233   19.0676 C   0  0  0  0  0  0  0  0  0  0  0  0
    6.8333   -1.1163   19.3874 N   0  0  0  0  0  0  0  0  0  0  0  0
    5.9750   -1.4020   18.2446 C   0  0  0  0  0  0  0  0  0  0  0  0
    5.1607   -0.2028   17.7905 C   0  0  0  0  0  0  0  0  0  0  0  0
    4.5161    0.4474   18.9584 C   0  0  0  0  0  0  0  0  0  0  0  0
    4.9080    0.2282   20.1984 C   0  0  0  0  0  0  0  0  0  0  0  0
    4.3842    0.8003   21.3237 F   0  0  0  0  0  0  0  0  0  0  0  0
    6.0157   -0.7045   20.5268 C   0  0  0  0  0  0  0  0  0  0  0  0
    9.6809   -1.3644   20.8974 S   0  0  0  0  0  0  0  0  0  0  0  0
   10.9593   -1.6195   23.8270 C   0  0  0  0  0  0  0  0  0  0  0  0
    9.9419   -1.2310   24.6873 C   0  0  0  0  0  0  0  0  0  0  0  0
    9.3608   -2.1423   25.5533 C   0  0  0  0  0  0  0  0  0  0  0  0
    9.7898   -3.4521   25.5703 C   0  0  0  0  0  0  0  0  0  0  0  0
   10.8003   -3.8515   24.7220 C   0  0  0  0  0  0  0  0  0  0  0  0
   11.3821   -2.9410   23.8558 C   0  0  0  0  0  0  0  0  0  0  0  0
  1  2  1  0
  2  3  2  0
  2  4  2  0
  2  5  1  0
  5  6  1  0
  6  7  1  0
  7  8  1  0
  8  9  2  0
  9 10  1  0
 10 11  2  0
 11 12  1  0
 12 13  1  0
 13 14  1  0
 14 15  1  0
 15 16  1  0
 16 17  2  0
 17 18  1  0
 17 19  1  0
 11 20  1  0
  7 21  1  0
 21 22  2  0
 22 23  1  0
 23 24  2  0
 24 25  1  0
 25 26  2  0
 20  8  1  0
 26 21  1  0
 19 13  1  0
M  END
