CVD-0004020|dock_bobby27042020.14|mol2|38|dock3
     RDKit          3D

 44 47  0  0  0  0  0  0  0  0999 V2000
    4.0946   -7.2955   28.2296 C   0  0  0  0  0  0  0  0  0  0  0  0
    4.5510   -6.7882   26.9776 O   0  0  0  0  0  0  0  0  0  0  0  0
    3.9429   -7.2222   25.8312 C   0  0  0  0  0  0  0  0  0  0  0  0
    2.8991   -8.1416   25.7794 C   0  0  0  0  0  0  0  0  0  0  0  0
    2.3548   -8.5125   24.5597 C   0  0  0  0  0  0  0  0  0  0  0  0
    2.8402   -7.9754   23.3795 C   0  0  0  0  0  0  0  0  0  0  0  0
    3.8837   -7.0566   23.4344 C   0  0  0  0  0  0  0  0  0  0  0  0
    4.6759   -6.2357   22.1217 S   0  0  0  0  0  0  0  0  0  0  0  0
    5.6954   -5.4408   23.3049 C   0  0  0  0  0  0  0  0  0  0  0  0
    6.6700   -4.5423   22.9133 N   0  0  0  0  0  0  0  0  0  0  0  0
    6.7512   -3.9009   21.7014 C   0  0  0  0  0  0  0  0  0  0  0  0
    5.9519   -4.0390   20.7762 O   0  0  0  0  0  0  0  0  0  0  0  0
    7.9588   -2.9513   21.5684 C   0  0  0  0  0  0  0  0  0  0  0  0
    9.0534   -3.4045   21.2836 O   0  0  0  0  0  0  0  0  0  0  0  0
    7.7213   -1.4633   21.8251 C   0  0  0  0  0  0  0  0  0  0  0  0
    6.5447   -0.9088   21.0101 C   0  0  0  0  0  0  0  0  0  0  0  0
    6.7126   -0.4768   19.5409 C   0  0  0  0  0  0  0  0  0  0  0  0
    6.5583    1.0368   19.2920 C   0  0  0  0  0  0  0  0  0  0  0  0
    5.7752    1.1577   17.9912 C   0  0  0  0  0  0  0  0  0  0  0  0
    5.1667   -0.1516   17.8516 N   0  0  0  0  0  0  0  0  0  0  0  0
    5.6828   -1.1012   18.6360 C   0  0  0  0  0  0  0  0  0  0  0  0
    5.3409   -2.2808   18.6416 O   0  0  0  0  0  0  0  0  0  0  0  0
    8.9524   -0.7120   21.6366 N   0  0  0  0  0  0  0  0  0  0  0  0
    9.3161    0.2545   22.4844 C   0  0  0  0  0  0  0  0  0  0  0  0
    8.6474    0.5716   23.4645 O   0  0  0  0  0  0  0  0  0  0  0  0
   10.6296    0.9700   22.1819 C   0  0  0  0  0  0  0  0  0  0  0  0
   11.6982    0.5149   23.1802 C   0  0  0  0  0  0  0  0  0  0  0  0
   12.3890   -0.8215   22.9102 C   0  0  0  0  0  0  0  0  0  0  0  0
   11.5526   -2.0061   23.3643 C   0  0  0  0  0  0  0  0  0  0  0  0
   13.7478   -0.8532   23.5880 C   0  0  0  0  0  0  0  0  0  0  0  0
   10.4326    2.4166   22.2442 N   0  0  0  0  0  0  0  0  0  0  0  0
    8.9726    3.0493   22.5613 S   0  0  0  0  0  0  0  0  0  0  0  0
    8.8148    3.0046   23.9802 O   0  0  0  0  0  0  0  0  0  0  0  0
    8.0471    2.3700   21.7116 O   0  0  0  0  0  0  0  0  0  0  0  0
    8.9223    4.6050   22.1432 N   0  0  0  0  0  0  0  0  0  0  0  0
    8.7959    5.6117   23.2035 C   0  0  0  0  0  0  0  0  0  0  0  0
   10.1023    5.8334   23.9266 C   0  0  0  0  0  0  0  0  0  0  0  0
   11.3043    5.8306   23.2359 C   0  0  0  0  0  0  0  0  0  0  0  0
   12.5028    6.0365   23.8986 C   0  0  0  0  0  0  0  0  0  0  0  0
   12.5132    6.2484   25.2604 C   0  0  0  0  0  0  0  0  0  0  0  0
   11.3254    6.2547   25.9592 C   0  0  0  0  0  0  0  0  0  0  0  0
   10.1272    6.0487   25.2959 C   0  0  0  0  0  0  0  0  0  0  0  0
    5.4845   -5.7413   24.5555 N   0  0  0  0  0  0  0  0  0  0  0  0
    4.4513   -6.6648   24.6512 C   0  0  0  0  0  0  0  0  0  0  0  0
  1  2  1  0
  2  3  1  0
  3  4  2  0
  4  5  1  0
  5  6  2  0
  6  7  1  0
  7  8  1  0
  8  9  1  0
  9 10  1  0
 10 11  1  0
 11 12  2  0
 11 13  1  0
 13 14  2  0
 13 15  1  0
 15 16  1  0
 17 16  1  0
 17 18  1  0
 18 19  1  0
 19 20  1  0
 20 21  1  0
 21 22  2  0
 15 23  1  0
 23 24  1  0
 24 25  2  0
 24 26  1  0
 26 27  1  0
 27 28  1  0
 28 29  1  0
 28 30  1  0
 26 31  1  0
 31 32  1  0
 32 33  2  0
 32 34  2  0
 32 35  1  0
 35 36  1  0
 36 37  1  0
 37 38  2  0
 38 39  1  0
 39 40  2  0
 40 41  1  0
 41 42  2  0
  9 43  2  0
 43 44  1  0
 44  3  1  0
 44  7  2  0
 21 17  1  0
 42 37  1  0
M  END
