CVD-0000383|dock_bobby27042020.84|mol2|27|dock2
     RDKit          3D

 23 25  0  0  0  0  0  0  0  0999 V2000
    9.7445   -5.0691   27.2647 C   0  0  0  0  0  0  0  0  0  0  0  0
   10.0150   -4.6097   25.9147 N   0  0  0  0  0  0  0  0  0  0  0  0
    9.0984   -3.9943   25.1802 C   0  0  0  0  0  0  0  0  0  0  0  0
    7.9595   -3.7666   25.5796 O   0  0  0  0  0  0  0  0  0  0  0  0
    9.5558   -3.5844   23.7944 C   0  0  0  0  0  0  0  0  0  0  0  0
   10.4411   -2.3102   23.7846 C   0  0  0  0  0  0  0  0  0  0  0  0
    9.9774   -1.4682   22.6018 C   0  0  0  0  0  0  0  0  0  0  0  0
    9.0692   -2.3834   21.7817 C   0  0  0  0  0  0  0  0  0  0  0  0
    8.3871   -3.2513   22.8493 C   0  0  0  0  0  0  0  0  0  0  0  0
    7.6397   -4.4369   22.3062 C   0  0  0  0  0  0  0  0  0  0  0  0
    7.7405   -5.7817   22.7986 C   0  0  0  0  0  0  0  0  0  0  0  0
    6.9478   -6.6526   22.1213 C   0  0  0  0  0  0  0  0  0  0  0  0
    6.0612   -5.8905   20.8797 S   0  0  0  0  0  0  0  0  0  0  0  0
    6.7626   -4.3565   21.2687 C   0  0  0  0  0  0  0  0  0  0  0  0
    6.3317   -3.2188   20.4558 C   0  0  0  0  0  0  0  0  0  0  0  0
    5.9013   -2.1538   21.1405 N   0  0  0  0  0  0  0  0  0  0  0  0
    5.4980   -1.0922   20.4301 C   0  0  0  0  0  0  0  0  0  0  0  0
    5.5326   -1.1095   19.0420 C   0  0  0  0  0  0  0  0  0  0  0  0
    5.1269   -0.0350   18.2977 N   0  0  0  0  0  0  0  0  0  0  0  0
    5.1266    1.3239   18.7949 C   0  0  0  0  0  0  0  0  0  0  0  0
    5.9951   -2.2624   18.4524 C   0  0  0  0  0  0  0  0  0  0  0  0
    6.0486   -2.3335   17.1136 F   0  0  0  0  0  0  0  0  0  0  0  0
    6.3930   -3.3114   19.1225 N   0  0  0  0  0  0  0  0  0  0  0  0
  1  2  1  0
  2  3  1  0
  3  4  2  0
  5  3  1  0
  5  6  1  0
  6  7  1  0
  7  8  1  0
  8  9  1  0
  9 10  1  0
 10 11  1  0
 11 12  2  0
 12 13  1  0
 13 14  1  0
 14 15  1  0
 15 16  2  0
 16 17  1  0
 17 18  2  0
 18 19  1  0
 19 20  1  0
 18 21  1  0
 21 22  1  0
 21 23  2  0
  9  5  1  0
 14 10  2  0
 23 15  1  0
M  END
