CVD-0003575|dock_bobby27042020.44|mol2|48|dock2
     RDKit          3D

 23 24  0  0  0  0  0  0  0  0999 V2000
    6.7182   -5.2729   22.2830 C   0  0  0  0  0  0  0  0  0  0  0  0
    6.4588   -4.4658   21.0448 C   0  0  0  0  0  0  0  0  0  0  0  0
    6.1748   -5.0174   19.9870 O   0  0  0  0  0  0  0  0  0  0  0  0
    6.5595   -3.1243   21.2394 N   0  0  0  0  0  0  0  0  0  0  0  0
    6.3819   -2.0267   20.3500 C   0  0  0  0  0  0  0  0  0  0  0  0
    5.8447   -2.1886   19.0691 C   0  0  0  0  0  0  0  0  0  0  0  0
    5.6734   -1.1037   18.2287 C   0  0  0  0  0  0  0  0  0  0  0  0
    6.0263    0.1710   18.6463 C   0  0  0  0  0  0  0  0  0  0  0  0
    6.5625    0.3455   19.9162 C   0  0  0  0  0  0  0  0  0  0  0  0
    6.7555   -0.7346   20.7723 C   0  0  0  0  0  0  0  0  0  0  0  0
    7.3702   -0.4663   22.1291 C   0  0  0  0  0  0  0  0  0  0  0  0
    8.6095   -1.2179   22.3773 N   0  0  0  0  0  0  0  0  0  0  0  0
    9.0537   -1.0315   23.7617 C   0  0  0  0  0  0  0  0  0  0  0  0
   10.3096   -1.8416   24.0239 C   0  0  0  0  0  0  0  0  0  0  0  0
   11.3727   -1.4525   23.0947 N   0  0  0  0  0  0  0  0  0  0  0  0
   10.9385   -1.5708   21.6993 C   0  0  0  0  0  0  0  0  0  0  0  0
    9.6671   -0.7730   21.4734 C   0  0  0  0  0  0  0  0  0  0  0  0
   12.5984   -1.0660   23.5058 C   0  0  0  0  0  0  0  0  0  0  0  0
   12.8940   -1.0269   24.6935 O   0  0  0  0  0  0  0  0  0  0  0  0
   13.5969   -0.6725   22.4339 C   0  0  0  0  0  0  0  0  0  0  0  0
   13.9722   -2.0353   21.3710 Cl  0  0  0  0  0  0  0  0  0  0  0  0
    5.8413    1.3061   17.7762 C   0  0  0  0  0  0  0  0  0  0  0  0
    5.6943    2.1846   17.0610 N   0  0  0  0  0  0  0  0  0  0  0  0
  1  2  1  0
  2  3  2  0
  2  4  1  0
  4  5  1  0
  5  6  2  0
  6  7  1  0
  7  8  2  0
  8  9  1  0
  9 10  2  0
 10 11  1  0
 11 12  1  0
 12 13  1  0
 13 14  1  0
 14 15  1  0
 15 16  1  0
 16 17  1  0
 15 18  1  0
 18 19  2  0
 18 20  1  0
 20 21  1  0
  8 22  1  0
 22 23  3  0
 10  5  1  0
 17 12  1  0
M  END
