CVD-0002876|dock_bobby27042020.75|mol2|35|dock3
     RDKit          3D

 31 35  0  0  0  0  0  0  0  0999 V2000
    0.2265    3.2506   20.2010 O   0  0  0  0  0  0  0  0  0  0  0  0
    1.0233    3.7374   19.2860 C   0  0  0  0  0  0  0  0  0  0  0  0
    0.7541    4.7163   18.6116 O   0  0  0  0  0  0  0  0  0  0  0  0
    2.3056    2.9952   19.1260 C   0  0  0  0  0  0  0  0  0  0  0  0
    3.1298    3.2252   18.0306 C   0  0  0  0  0  0  0  0  0  0  0  0
    4.3192    2.5331   17.8880 C   0  0  0  0  0  0  0  0  0  0  0  0
    4.7184    1.5975   18.8299 C   0  0  0  0  0  0  0  0  0  0  0  0
    6.0155    0.8422   18.6683 C   0  0  0  0  0  0  0  0  0  0  0  0
    6.8442    0.8990   19.8777 N   0  0  0  0  0  0  0  0  0  0  0  0
    7.4649   -0.1022   20.5223 C   0  0  0  0  0  0  0  0  0  0  0  0
    8.0679    0.4843   21.5944 C   0  0  0  0  0  0  0  0  0  0  0  0
    8.9105   -0.1145   22.6757 C   0  0  0  0  0  0  0  0  0  0  0  0
   10.2640    0.4058   22.6924 N   0  0  0  0  0  0  0  0  0  0  0  0
   10.4671    1.7526   22.6330 N   0  0  0  0  0  0  0  0  0  0  0  0
   11.7747    1.9543   22.7276 C   0  0  0  0  0  0  0  0  0  0  0  0
   12.2817    3.3574   22.6823 C   0  0  0  0  0  0  0  0  0  0  0  0
   13.5541    3.6089   22.1806 C   0  0  0  0  0  0  0  0  0  0  0  0
   14.0515    4.9000   22.1263 C   0  0  0  0  0  0  0  0  0  0  0  0
   13.2871    5.9566   22.5714 C   0  0  0  0  0  0  0  0  0  0  0  0
   12.0242    5.7235   23.0710 C   0  0  0  0  0  0  0  0  0  0  0  0
   11.5214    4.4341   23.1276 C   0  0  0  0  0  0  0  0  0  0  0  0
   12.4663    0.6552   22.8661 C   0  0  0  0  0  0  0  0  0  0  0  0
   13.7857    0.2245   23.0000 C   0  0  0  0  0  0  0  0  0  0  0  0
   14.0478   -1.1305   23.1176 C   0  0  0  0  0  0  0  0  0  0  0  0
   13.0203   -2.0518   23.1032 C   0  0  0  0  0  0  0  0  0  0  0  0
   11.7010   -1.6489   22.9672 C   0  0  0  0  0  0  0  0  0  0  0  0
   11.4284   -0.2904   22.8447 C   0  0  0  0  0  0  0  0  0  0  0  0
    7.7839    1.8121   21.5641 N   0  0  0  0  0  0  0  0  0  0  0  0
    7.0254    2.0644   20.5205 N   0  0  0  0  0  0  0  0  0  0  0  0
    3.8944    1.3687   19.9207 C   0  0  0  0  0  0  0  0  0  0  0  0
    2.7033    2.0566   20.0707 C   0  0  0  0  0  0  0  0  0  0  0  0
  1  2  1  0
  2  3  2  0
  2  4  1  0
  4  5  2  0
  5  6  1  0
  6  7  2  0
  7  8  1  0
  8  9  1  0
  9 10  1  0
 10 11  2  0
 11 12  1  0
 12 13  1  0
 13 14  1  0
 14 15  2  0
 15 16  1  0
 16 17  2  0
 17 18  1  0
 18 19  2  0
 19 20  1  0
 20 21  2  0
 15 22  1  0
 22 23  2  0
 23 24  1  0
 24 25  2  0
 25 26  1  0
 26 27  2  0
 11 28  1  0
 28 29  2  0
  7 30  1  0
 30 31  2  0
 31  4  1  0
 29  9  1  0
 27 13  1  0
 21 16  1  0
 27 22  1  0
M  END
