CVD-0001332|dock_bobby27042020.81|mol2|25|dock2
     RDKit          3D

 23 25  0  0  0  0  0  0  0  0999 V2000
    9.4725    0.5509   22.3949 O   0  0  0  0  0  0  0  0  0  0  0  0
   10.6153    0.2520   22.7279 C   0  0  0  0  0  0  0  0  0  0  0  0
   11.7241    1.2340   22.5612 C   0  0  0  0  0  0  0  0  0  0  0  0
   13.1331    0.7321   22.6861 C   0  0  0  0  0  0  0  0  0  0  0  0
   13.2452   -0.3131   23.7702 C   0  0  0  0  0  0  0  0  0  0  0  0
   12.3503   -1.4968   23.4622 C   0  0  0  0  0  0  0  0  0  0  0  0
   10.9127   -1.0819   23.3150 C   0  0  0  0  0  0  0  0  0  0  0  0
    9.8561   -1.8114   23.7570 C   0  0  0  0  0  0  0  0  0  0  0  0
    9.8984   -3.1110   24.3593 C   0  0  0  0  0  0  0  0  0  0  0  0
    9.2185   -3.4301   25.4666 C   0  0  0  0  0  0  0  0  0  0  0  0
    9.2159   -4.7069   26.1196 C   0  0  0  0  0  0  0  0  0  0  0  0
    8.5302   -5.1869   27.1840 C   0  0  0  0  0  0  0  0  0  0  0  0
    8.9452   -6.5267   27.3698 C   0  0  0  0  0  0  0  0  0  0  0  0
    9.8419   -6.7819   26.4274 C   0  0  0  0  0  0  0  0  0  0  0  0
   10.0398   -5.6848   25.6322 O   0  0  0  0  0  0  0  0  0  0  0  0
   11.3690    2.5368   22.4171 C   0  0  0  0  0  0  0  0  0  0  0  0
   12.2481    3.6558   22.2487 C   0  0  0  0  0  0  0  0  0  0  0  0
   12.0526    4.8395   22.8408 C   0  0  0  0  0  0  0  0  0  0  0  0
   12.8901    5.9970   22.7157 C   0  0  0  0  0  0  0  0  0  0  0  0
   13.8372    6.3455   21.8129 C   0  0  0  0  0  0  0  0  0  0  0  0
   14.3303    7.6128   22.2036 C   0  0  0  0  0  0  0  0  0  0  0  0
   13.6695    7.9574   23.2997 C   0  0  0  0  0  0  0  0  0  0  0  0
   12.7692    6.9876   23.6518 O   0  0  0  0  0  0  0  0  0  0  0  0
  1  2  2  0
  2  3  1  0
  3  4  1  0
  4  5  1  0
  5  6  1  0
  6  7  1  0
  7  8  2  0
  8  9  1  0
  9 10  2  0
 10 11  1  0
 11 12  2  0
 12 13  1  0
 13 14  2  0
 14 15  1  0
  3 16  2  0
 16 17  1  0
 17 18  2  0
 18 19  1  0
 19 20  2  0
 20 21  1  0
 21 22  2  0
 22 23  1  0
  7  2  1  0
 15 11  1  0
 23 19  1  0
M  END
