CVD-0001949|dock_bobby27042020.93|mol2|27|dock2
     RDKit          3D

 22 23  0  0  0  0  0  0  0  0999 V2000
    9.4899   -4.0318   25.0074 C   0  0  0  0  0  0  0  0  0  0  0  0
   10.1175   -3.0989   23.9829 C   0  0  0  0  0  0  0  0  0  0  0  0
    9.4505   -1.7550   23.8843 C   0  0  0  0  0  0  0  0  0  0  0  0
    8.3258   -1.5194   24.2853 O   0  0  0  0  0  0  0  0  0  0  0  0
   10.2654   -0.8618   23.3039 O   0  0  0  0  0  0  0  0  0  0  0  0
    9.7572    0.4430   22.9980 C   0  0  0  0  0  0  0  0  0  0  0  0
    8.9804    0.3875   21.7064 C   0  0  0  0  0  0  0  0  0  0  0  0
   10.9369    1.3731   22.8622 N   0  0  0  0  0  0  0  0  0  0  0  0
   10.8131    2.7100   22.5469 C   0  0  0  0  0  0  0  0  0  0  0  0
   12.0617    3.3002   22.4461 C   0  0  0  0  0  0  0  0  0  0  0  0
   12.3986    4.7313   22.1188 C   0  0  0  0  0  0  0  0  0  0  0  0
   13.8306    5.0026   22.2836 N   0  0  0  0  0  0  0  0  0  0  0  0
   14.2033    6.4108   22.1249 C   0  0  0  0  0  0  0  0  0  0  0  0
   12.9838    2.2706   22.6989 C   0  0  0  0  0  0  0  0  0  0  0  0
   12.3036    1.0944   22.9614 C   0  0  0  0  0  0  0  0  0  0  0  0
   12.9416   -0.2089   23.2734 C   0  0  0  0  0  0  0  0  0  0  0  0
   13.4760   -0.3402   24.5567 C   0  0  0  0  0  0  0  0  0  0  0  0
   14.1416   -1.4915   24.9418 C   0  0  0  0  0  0  0  0  0  0  0  0
   14.2858   -2.5393   24.0609 C   0  0  0  0  0  0  0  0  0  0  0  0
   13.7365   -2.4564   22.7944 C   0  0  0  0  0  0  0  0  0  0  0  0
   13.0562   -1.3154   22.4390 C   0  0  0  0  0  0  0  0  0  0  0  0
   12.4752   -1.3244   21.2194 F   0  0  0  0  0  0  0  0  0  0  0  0
  1  2  1  0
  2  3  1  0
  3  4  2  0
  3  5  1  0
  5  6  1  0
  6  7  1  0
  6  8  1  0
  8  9  1  0
  9 10  2  0
 10 11  1  0
 11 12  1  0
 12 13  1  0
 10 14  1  0
 14 15  2  0
 15 16  1  0
 16 17  2  0
 17 18  1  0
 18 19  2  0
 19 20  1  0
 20 21  2  0
 21 22  1  0
 15  8  1  0
 21 16  1  0
M  END
