CVD-0000389|dock_bobby27042020.84|mol2|26|dock1
     RDKit          3D

 26 28  0  0  0  0  0  0  0  0999 V2000
    5.6212    0.6576   18.2798 C   0  0  0  0  0  0  0  0  0  0  0  0
    6.6428   -0.2868   18.6773 N   0  0  0  0  0  0  0  0  0  0  0  0
    7.2225   -0.2922   19.9171 C   0  0  0  0  0  0  0  0  0  0  0  0
    6.7450    0.5026   20.9510 C   0  0  0  0  0  0  0  0  0  0  0  0
    7.3255    0.4815   22.1579 N   0  0  0  0  0  0  0  0  0  0  0  0
    8.3756   -0.3311   22.3168 C   0  0  0  0  0  0  0  0  0  0  0  0
    8.8932   -1.1231   21.3708 N   0  0  0  0  0  0  0  0  0  0  0  0
    8.3088   -1.0853   20.2025 C   0  0  0  0  0  0  0  0  0  0  0  0
    8.8118   -1.8726   19.2396 F   0  0  0  0  0  0  0  0  0  0  0  0
    8.9792   -0.3220   23.6499 C   0  0  0  0  0  0  0  0  0  0  0  0
    7.8841   -0.1853   24.9834 S   0  0  0  0  0  0  0  0  0  0  0  0
    9.1749   -0.2345   26.0964 C   0  0  0  0  0  0  0  0  0  0  0  0
   10.3808   -0.3501   25.4820 C   0  0  0  0  0  0  0  0  0  0  0  0
   10.2782   -0.4025   24.0505 C   0  0  0  0  0  0  0  0  0  0  0  0
   11.4281   -0.5333   23.0893 C   0  0  0  0  0  0  0  0  0  0  0  0
   12.1915   -1.8783   23.2142 C   0  0  0  0  0  0  0  0  0  0  0  0
   13.6757   -1.5462   23.1146 C   0  0  0  0  0  0  0  0  0  0  0  0
   13.7374   -0.0971   22.6342 C   0  0  0  0  0  0  0  0  0  0  0  0
   12.5079    0.5452   23.2928 C   0  0  0  0  0  0  0  0  0  0  0  0
   12.1569    1.9263   22.7638 C   0  0  0  0  0  0  0  0  0  0  0  0
   11.0179    2.1439   22.3586 O   0  0  0  0  0  0  0  0  0  0  0  0
   13.0851    2.9344   22.7348 N   0  0  0  0  0  0  0  0  0  0  0  0
   13.0510    4.2544   22.3246 C   0  0  0  0  0  0  0  0  0  0  0  0
   12.0589    4.7860   21.8734 O   0  0  0  0  0  0  0  0  0  0  0  0
   14.2096    4.9053   22.4726 O   0  0  0  0  0  0  0  0  0  0  0  0
   14.1776    6.3189   22.1643 C   0  0  0  0  0  0  0  0  0  0  0  0
  1  2  1  0
  2  3  1  0
  3  4  2  0
  4  5  1  0
  5  6  2  0
  6  7  1  0
  7  8  2  0
  8  9  1  0
  6 10  1  0
 10 11  1  0
 11 12  1  0
 12 13  2  0
 13 14  1  0
 15 14  1  0
 15 16  1  0
 16 17  1  0
 17 18  1  0
 18 19  1  0
 19 20  1  0
 20 21  2  0
 20 22  1  0
 22 23  1  0
 23 24  2  0
 23 25  1  0
 25 26  1  0
  8  3  1  0
 14 10  2  0
 19 15  1  0
M  END
