CVD-0000215|dock_bobby27042020.71|mol2|8|dock1
     RDKit          3D

 26 28  0  0  0  0  0  0  0  0999 V2000
   13.5488   -0.7928   21.8676 O   0  0  0  0  0  0  0  0  0  0  0  0
   12.4247   -0.3223   22.4811 C   0  0  0  0  0  0  0  0  0  0  0  0
   12.5364    0.5645   23.5395 C   0  0  0  0  0  0  0  0  0  0  0  0
   11.3943    1.0379   24.1573 C   0  0  0  0  0  0  0  0  0  0  0  0
   10.1434    0.6250   23.7170 C   0  0  0  0  0  0  0  0  0  0  0  0
    9.0292    1.0981   24.3335 O   0  0  0  0  0  0  0  0  0  0  0  0
   10.0138   -0.2683   22.6514 C   0  0  0  0  0  0  0  0  0  0  0  0
   11.1754   -0.7362   22.0394 C   0  0  0  0  0  0  0  0  0  0  0  0
    8.6387   -0.7043   22.1807 C   0  0  0  0  0  0  0  0  0  0  0  0
    8.6095   -2.2233   22.1542 C   0  0  0  0  0  0  0  0  0  0  0  0
    7.2174   -2.7689   22.1670 N   0  0  0  0  0  0  0  0  0  0  0  0
    7.0208   -3.0420   23.5978 C   0  0  0  0  0  0  0  0  0  0  0  0
    7.8913   -4.1644   24.1098 C   0  0  0  0  0  0  0  0  0  0  0  0
    8.0960   -5.3055   23.3502 C   0  0  0  0  0  0  0  0  0  0  0  0
    8.8923   -6.3359   23.8217 C   0  0  0  0  0  0  0  0  0  0  0  0
    9.4959   -6.2388   25.0642 C   0  0  0  0  0  0  0  0  0  0  0  0
    9.2879   -5.1028   25.8153 C   0  0  0  0  0  0  0  0  0  0  0  0
   10.0395   -4.9658   27.3802 Cl  0  0  0  0  0  0  0  0  0  0  0  0
    8.4968   -4.0698   25.3561 C   0  0  0  0  0  0  0  0  0  0  0  0
    5.9861   -2.2392   21.5160 C   0  0  0  0  0  0  0  0  0  0  0  0
    6.0485   -0.7573   21.1905 C   0  0  0  0  0  0  0  0  0  0  0  0
    7.1029   -0.3572   20.2703 N   0  0  0  0  0  0  0  0  0  0  0  0
    8.3764    0.0225   20.8761 C   0  0  0  0  0  0  0  0  0  0  0  0
    6.9691   -0.3454   18.9328 C   0  0  0  0  0  0  0  0  0  0  0  0
    5.4001   -0.9384   18.3273 Cl  0  0  0  0  0  0  0  0  0  0  0  0
    7.7796    0.0112   18.1231 O   0  0  0  0  0  0  0  0  0  0  0  0
  1  2  1  0
  2  3  2  0
  3  4  1  0
  4  5  2  0
  5  6  1  0
  5  7  1  0
  7  8  2  0
  7  9  1  0
  9 10  1  0
 10 11  1  0
 11 12  1  0
 12 13  1  0
 13 14  2  0
 14 15  1  0
 15 16  2  0
 16 17  1  0
 17 18  1  0
 17 19  2  0
 11 20  1  0
 20 21  1  0
 21 22  1  0
 22 23  1  0
 22 24  1  0
 24 25  1  0
 24 26  2  0
  8  2  1  0
 23  9  1  0
 19 13  1  0
M  END
