CVD-0001350|dock_bobby27042020.24|mol2|14|dock3
     RDKit          3D

 25 27  0  0  0  0  0  0  0  0999 V2000
    9.1526    2.8251   22.4013 C   0  0  0  0  0  0  0  0  0  0  0  0
    8.3923    1.6284   22.7557 N   0  0  0  0  0  0  0  0  0  0  0  0
    8.3156    1.2645   24.1981 C   0  0  0  0  0  0  0  0  0  0  0  0
    9.0649   -0.0534   24.4474 C   0  0  0  0  0  0  0  0  0  0  0  0
   10.5087   -0.0511   24.1789 N   0  0  0  0  0  0  0  0  0  0  0  0
   10.8354   -1.0144   23.1234 C   0  0  0  0  0  0  0  0  0  0  0  0
   12.3220   -0.9784   22.8212 C   0  0  0  0  0  0  0  0  0  0  0  0
   13.0969   -1.2694   24.0295 N   0  0  0  0  0  0  0  0  0  0  0  0
   12.7489   -0.3589   25.1249 C   0  0  0  0  0  0  0  0  0  0  0  0
   11.2542   -0.3961   25.3865 C   0  0  0  0  0  0  0  0  0  0  0  0
   14.0332   -2.2478   24.0842 C   0  0  0  0  0  0  0  0  0  0  0  0
   14.7755   -2.4397   25.3739 C   0  0  0  0  0  0  0  0  0  0  0  0
   14.2704   -2.9427   23.1026 O   0  0  0  0  0  0  0  0  0  0  0  0
    6.8666    1.1328   24.6894 C   0  0  0  0  0  0  0  0  0  0  0  0
    5.8779    1.9383   23.8616 C   0  0  0  0  0  0  0  0  0  0  0  0
    5.9983    1.5039   22.4270 C   0  0  0  0  0  0  0  0  0  0  0  0
    4.9004    1.1945   21.6325 C   0  0  0  0  0  0  0  0  0  0  0  0
    5.0600    0.7043   20.3524 C   0  0  0  0  0  0  0  0  0  0  0  0
    6.3410    0.5221   19.8626 C   0  0  0  0  0  0  0  0  0  0  0  0
    7.4606    0.8205   20.6282 C   0  0  0  0  0  0  0  0  0  0  0  0
    7.2858    1.3157   21.9211 C   0  0  0  0  0  0  0  0  0  0  0  0
    6.5662   -0.0708   18.2132 S   0  0  0  0  0  0  0  0  0  0  0  0
    8.0995    0.1392   17.8036 N   0  0  0  0  0  0  0  0  0  0  0  0
    5.7799    0.7583   17.3497 O   0  0  0  0  0  0  0  0  0  0  0  0
    6.3214   -1.4817   18.2287 O   0  0  0  0  0  0  0  0  0  0  0  0
  1  2  1  0
  2  3  1  0
  3  4  1  0
  4  5  1  0
  5  6  1  0
  6  7  1  0
  7  8  1  0
  8  9  1  0
  9 10  1  0
  8 11  1  0
 11 12  1  0
 11 13  2  0
  3 14  1  0
 14 15  1  0
 15 16  1  0
 16 17  2  0
 17 18  1  0
 18 19  2  0
 19 20  1  0
 20 21  2  0
 19 22  1  0
 22 23  1  0
 22 24  2  0
 22 25  2  0
 21  2  1  0
 10  5  1  0
 21 16  1  0
M  END
