CVD-0002529|dock_bobby27042020.91|mol2|11|dock1
     RDKit          3D

 28 30  0  0  0  0  0  0  0  0999 V2000
    6.4711   -1.6827   21.9582 O   0  0  0  0  0  0  0  0  0  0  0  0
    7.5305   -1.8133   21.3522 C   0  0  0  0  0  0  0  0  0  0  0  0
    7.8353   -1.2475   20.1581 N   0  0  0  0  0  0  0  0  0  0  0  0
    7.0838   -0.3978   19.3086 C   0  0  0  0  0  0  0  0  0  0  0  0
    5.7966   -0.0386   19.6873 C   0  0  0  0  0  0  0  0  0  0  0  0
    5.0481    0.7903   18.8704 C   0  0  0  0  0  0  0  0  0  0  0  0
    5.6079    1.2375   17.6964 C   0  0  0  0  0  0  0  0  0  0  0  0
    6.8397    0.9112   17.3048 N   0  0  0  0  0  0  0  0  0  0  0  0
    7.5554    0.1100   18.1002 C   0  0  0  0  0  0  0  0  0  0  0  0
    8.6438   -2.6748   21.9328 C   0  0  0  0  0  0  0  0  0  0  0  0
    8.0333   -3.8241   22.7726 C   0  0  0  0  0  0  0  0  0  0  0  0
    7.4196   -3.3714   24.0973 C   0  0  0  0  0  0  0  0  0  0  0  0
    6.8500   -4.5547   24.8795 C   0  0  0  0  0  0  0  0  0  0  0  0
    5.8353   -5.3220   24.0545 C   0  0  0  0  0  0  0  0  0  0  0  0
    6.4197   -5.7691   22.7303 C   0  0  0  0  0  0  0  0  0  0  0  0
    6.9989   -4.5945   21.9485 C   0  0  0  0  0  0  0  0  0  0  0  0
    9.7026   -1.6061   22.9073 S   0  0  0  0  0  0  0  0  0  0  0  0
   10.6938   -2.4274   23.5413 O   0  0  0  0  0  0  0  0  0  0  0  0
    8.8637   -0.7768   23.7241 O   0  0  0  0  0  0  0  0  0  0  0  0
   10.4571   -0.6211   21.8756 N   0  0  0  0  0  0  0  0  0  0  0  0
   10.5077    0.8210   22.1449 C   0  0  0  0  0  0  0  0  0  0  0  0
   11.7962    1.1882   22.8588 C   0  0  0  0  0  0  0  0  0  0  0  0
   12.2335    2.6063   22.5818 C   0  0  0  0  0  0  0  0  0  0  0  0
   13.5522    2.8932   22.2643 C   0  0  0  0  0  0  0  0  0  0  0  0
   13.9545    4.1944   22.0131 C   0  0  0  0  0  0  0  0  0  0  0  0
   13.0423    5.2256   22.0772 C   0  0  0  0  0  0  0  0  0  0  0  0
   11.7283    4.9550   22.3928 C   0  0  0  0  0  0  0  0  0  0  0  0
   11.3271    3.6535   22.6439 C   0  0  0  0  0  0  0  0  0  0  0  0
  1  2  2  0
  2  3  1  0
  3  4  1  0
  4  5  2  0
  5  6  1  0
  6  7  2  0
  7  8  1  0
  8  9  2  0
  2 10  1  0
 10 11  1  0
 11 12  1  0
 12 13  1  0
 13 14  1  0
 14 15  1  0
 15 16  1  0
 10 17  1  0
 17 18  2  0
 17 19  2  0
 17 20  1  0
 20 21  1  0
 21 22  1  0
 22 23  1  0
 23 24  2  0
 24 25  1  0
 25 26  2  0
 26 27  1  0
 27 28  2  0
  9  4  1  0
 16 11  1  0
 28 23  1  0
M  END
