CVD-0003211|dock_bobby27042020.2|mol2|41|dock3
     RDKit          3D

 32 35  0  0  0  0  0  0  0  0999 V2000
    8.1055    1.7666   16.9769 F   0  0  0  0  0  0  0  0  0  0  0  0
    7.2915    0.9087   17.6136 C   0  0  0  0  0  0  0  0  0  0  0  0
    7.6387   -0.2012   18.2692 C   0  0  0  0  0  0  0  0  0  0  0  0
    6.5008   -0.8392   18.8063 C   0  0  0  0  0  0  0  0  0  0  0  0
    6.5387   -2.1152   19.6091 C   0  0  0  0  0  0  0  0  0  0  0  0
    6.9754   -1.9264   20.9935 N   0  0  0  0  0  0  0  0  0  0  0  0
    6.4389   -2.7406   21.9587 C   0  0  0  0  0  0  0  0  0  0  0  0
    5.6118   -3.6065   21.7026 O   0  0  0  0  0  0  0  0  0  0  0  0
    6.8696   -2.5940   23.4087 C   0  0  0  0  0  0  0  0  0  0  0  0
    8.1019   -3.4049   23.7421 C   0  0  0  0  0  0  0  0  0  0  0  0
    9.3335   -2.8010   23.9322 C   0  0  0  0  0  0  0  0  0  0  0  0
   10.4408   -3.5748   24.2327 C   0  0  0  0  0  0  0  0  0  0  0  0
   10.2791   -4.9379   24.3334 C   0  0  0  0  0  0  0  0  0  0  0  0
    9.1068   -5.5486   24.1546 N   0  0  0  0  0  0  0  0  0  0  0  0
    8.0519   -4.7808   23.8650 C   0  0  0  0  0  0  0  0  0  0  0  0
    7.9094   -0.8544   21.2362 C   0  0  0  0  0  0  0  0  0  0  0  0
    7.4977    0.4341   21.5613 C   0  0  0  0  0  0  0  0  0  0  0  0
    8.4116    1.4525   21.7690 C   0  0  0  0  0  0  0  0  0  0  0  0
    9.7794    1.2104   21.6787 C   0  0  0  0  0  0  0  0  0  0  0  0
   10.7846    2.1920   21.8780 N   0  0  0  0  0  0  0  0  0  0  0  0
   10.7115    3.4453   22.4081 C   0  0  0  0  0  0  0  0  0  0  0  0
    9.6751    3.9424   22.8355 O   0  0  0  0  0  0  0  0  0  0  0  0
   11.9599    4.2843   22.4831 C   0  0  0  0  0  0  0  0  0  0  0  0
   12.2174    4.9734   23.6655 C   0  0  0  0  0  0  0  0  0  0  0  0
   13.3463    5.7632   23.8036 C   0  0  0  0  0  0  0  0  0  0  0  0
   14.2413    5.8814   22.7641 C   0  0  0  0  0  0  0  0  0  0  0  0
   14.0062    5.2087   21.5858 C   0  0  0  0  0  0  0  0  0  0  0  0
   12.8788    4.4169   21.4411 C   0  0  0  0  0  0  0  0  0  0  0  0
   10.1927   -0.0795   21.3732 C   0  0  0  0  0  0  0  0  0  0  0  0
    9.2769   -1.0924   21.1534 C   0  0  0  0  0  0  0  0  0  0  0  0
    5.3470   -0.1649   18.5241 C   0  0  0  0  0  0  0  0  0  0  0  0
    5.5916    1.2570   17.5991 S   0  0  0  0  0  0  0  0  0  0  0  0
  1  2  1  0
  2  3  2  0
  3  4  1  0
  4  5  1  0
  5  6  1  0
  6  7  1  0
  7  8  2  0
  7  9  1  0
  9 10  1  0
 10 11  2  0
 11 12  1  0
 12 13  2  0
 13 14  1  0
 14 15  2  0
  6 16  1  0
 16 17  2  0
 17 18  1  0
 18 19  2  0
 19 20  1  0
 20 21  1  0
 21 22  2  0
 21 23  1  0
 23 24  2  0
 24 25  1  0
 25 26  2  0
 26 27  1  0
 27 28  2  0
 19 29  1  0
 29 30  2  0
  4 31  2  0
 31 32  1  0
 32  2  1  0
 15 10  1  0
 30 16  1  0
 28 23  1  0
M  END
