CVD-0001027|dock_bobby27042020.68|mol2|23|dock1
     RDKit          3D

 32 35  0  0  0  0  0  0  0  0999 V2000
    5.4269   -0.0231   19.0739 C   0  0  0  0  0  0  0  0  0  0  0  0
    5.9306   -1.3811   18.9615 N   0  0  0  0  0  0  0  0  0  0  0  0
    5.6909   -2.0636   17.7012 C   0  0  0  0  0  0  0  0  0  0  0  0
    6.7097   -1.9440   19.9292 C   0  0  0  0  0  0  0  0  0  0  0  0
    7.5898   -1.0930   20.4809 N   0  0  0  0  0  0  0  0  0  0  0  0
    8.3937   -1.5691   21.4496 C   0  0  0  0  0  0  0  0  0  0  0  0
    9.3036   -0.6935   22.0256 N   0  0  0  0  0  0  0  0  0  0  0  0
    9.6678    0.5604   21.6616 C   0  0  0  0  0  0  0  0  0  0  0  0
    9.2194    1.1692   20.6931 O   0  0  0  0  0  0  0  0  0  0  0  0
   10.7089    1.1780   22.5720 C   0  0  0  0  0  0  0  0  0  0  0  0
   10.4327    2.6608   22.7876 C   0  0  0  0  0  0  0  0  0  0  0  0
   11.4999    3.2789   23.6673 C   0  0  0  0  0  0  0  0  0  0  0  0
   12.8170    3.0795   23.0684 N   0  0  0  0  0  0  0  0  0  0  0  0
   13.1485    1.6698   22.8919 C   0  0  0  0  0  0  0  0  0  0  0  0
   12.1121    0.9983   21.9970 C   0  0  0  0  0  0  0  0  0  0  0  0
   13.7771    4.0249   22.9397 C   0  0  0  0  0  0  0  0  0  0  0  0
   14.8257    3.7276   22.3934 O   0  0  0  0  0  0  0  0  0  0  0  0
   13.6723    5.4442   23.4303 C   0  0  0  0  0  0  0  0  0  0  0  0
   13.2557    5.8242   24.7070 C   0  0  0  0  0  0  0  0  0  0  0  0
   13.2193    7.1557   25.0824 C   0  0  0  0  0  0  0  0  0  0  0  0
   13.5719    8.1399   24.1755 C   0  0  0  0  0  0  0  0  0  0  0  0
   13.9582    7.7894   22.8937 C   0  0  0  0  0  0  0  0  0  0  0  0
   14.0041    6.4550   22.5319 C   0  0  0  0  0  0  0  0  0  0  0  0
   13.5350    9.5536   24.5722 N   0  0  0  0  0  0  0  0  0  0  0  0
   13.9190   10.3910   23.7582 O   0  0  0  0  0  0  0  0  0  0  0  0
   13.1251    9.8231   25.6886 O   0  0  0  0  0  0  0  0  0  0  0  0
    8.4147   -2.8208   21.9309 N   0  0  0  0  0  0  0  0  0  0  0  0
    7.5323   -3.6437   21.3584 C   0  0  0  0  0  0  0  0  0  0  0  0
    7.3097   -4.9633   21.6180 N   0  0  0  0  0  0  0  0  0  0  0  0
    6.3239   -5.3502   20.7821 C   0  0  0  0  0  0  0  0  0  0  0  0
    5.8817   -4.3904   19.9954 N   0  0  0  0  0  0  0  0  0  0  0  0
    6.6476   -3.2914   20.3558 C   0  0  0  0  0  0  0  0  0  0  0  0
  1  2  1  0
  2  3  1  0
  2  4  1  0
  4  5  2  0
  5  6  1  0
  6  7  1  0
  7  8  1  0
  8  9  2  0
  8 10  1  0
 10 11  1  0
 11 12  1  0
 12 13  1  0
 13 14  1  0
 14 15  1  0
 13 16  1  0
 16 17  2  0
 16 18  1  0
 18 19  2  0
 19 20  1  0
 20 21  2  0
 21 22  1  0
 22 23  2  0
 21 24  1  0
 24 25  1  0
 24 26  2  0
  6 27  2  0
 27 28  1  0
 28 29  1  0
 29 30  1  0
 30 31  2  0
 31 32  1  0
 32  4  1  0
 15 10  1  0
 23 18  1  0
 32 28  2  0
M  CHG  2  24   1  25  -1
M  END
