CVD-0001499|dock_bobby27042020.95|mol2|10|dock1
     RDKit          3D

 23 24  0  0  0  0  0  0  0  0999 V2000
    0.6798    1.2636   20.8818 O   0  0  0  0  0  0  0  0  0  0  0  0
    1.3605    2.1870   21.5166 C   0  0  0  0  0  0  0  0  0  0  0  0
    0.9961    2.6810   22.5610 O   0  0  0  0  0  0  0  0  0  0  0  0
    2.6336    2.5671   20.8178 C   0  0  0  0  0  0  0  0  0  0  0  0
    3.7090    1.4900   20.8315 C   0  0  0  0  0  0  0  0  0  0  0  0
    4.9897    1.9032   20.1178 C   0  0  0  0  0  0  0  0  0  0  0  0
    5.7527    0.7452   19.5216 C   0  0  0  0  0  0  0  0  0  0  0  0
    5.2512   -0.0040   18.4752 C   0  0  0  0  0  0  0  0  0  0  0  0
    5.8942   -1.0329   17.9177 N   0  0  0  0  0  0  0  0  0  0  0  0
    7.0971   -1.3567   18.4013 C   0  0  0  0  0  0  0  0  0  0  0  0
    7.7074   -0.6752   19.4523 C   0  0  0  0  0  0  0  0  0  0  0  0
    8.9820   -0.9963   19.9846 N   0  0  0  0  0  0  0  0  0  0  0  0
    9.5190   -0.7693   21.2314 C   0  0  0  0  0  0  0  0  0  0  0  0
    8.9271   -0.2080   22.1472 O   0  0  0  0  0  0  0  0  0  0  0  0
   10.8048   -1.2534   21.3168 N   0  0  0  0  0  0  0  0  0  0  0  0
   11.7314   -1.2435   22.3905 C   0  0  0  0  0  0  0  0  0  0  0  0
   11.6166   -0.2215   23.3260 C   0  0  0  0  0  0  0  0  0  0  0  0
   12.4860   -0.1477   24.4010 C   0  0  0  0  0  0  0  0  0  0  0  0
   13.4842   -1.0924   24.5598 C   0  0  0  0  0  0  0  0  0  0  0  0
   13.6058   -2.1137   23.6326 C   0  0  0  0  0  0  0  0  0  0  0  0
   14.5870   -3.0500   23.7808 O   0  0  0  0  0  0  0  0  0  0  0  0
   12.7382   -2.1943   22.5527 C   0  0  0  0  0  0  0  0  0  0  0  0
    7.0044    0.3894   20.0046 C   0  0  0  0  0  0  0  0  0  0  0  0
  1  2  1  0
  2  3  2  0
  2  4  1  0
  4  5  1  0
  5  6  1  0
  6  7  1  0
  7  8  2  0
  8  9  1  0
  9 10  2  0
 10 11  1  0
 11 12  1  0
 12 13  1  0
 13 14  2  0
 13 15  1  0
 15 16  1  0
 16 17  2  0
 17 18  1  0
 18 19  2  0
 19 20  1  0
 20 21  1  0
 20 22  2  0
 11 23  2  0
 23  7  1  0
 22 16  1  0
M  END
