CVD-0001403|dock_bobby27042020.95|mol2|25|dock2
     RDKit          3D

 16 17  0  0  0  0  0  0  0  0999 V2000
    6.2392   -0.7312   18.7602 Cl  0  0  0  0  0  0  0  0  0  0  0  0
    7.9850   -0.6722   19.0358 C   0  0  0  0  0  0  0  0  0  0  0  0
    8.3280   -0.4282   20.4889 C   0  0  0  0  0  0  0  0  0  0  0  0
    7.5723    0.1783   21.2418 O   0  0  0  0  0  0  0  0  0  0  0  0
    9.5091   -0.9206   20.8687 N   0  0  0  0  0  0  0  0  0  0  0  0
   10.0319   -0.7904   22.2265 C   0  0  0  0  0  0  0  0  0  0  0  0
   10.8472   -2.0151   22.6418 C   0  0  0  0  0  0  0  0  0  0  0  0
   12.2221   -1.9562   22.0224 C   0  0  0  0  0  0  0  0  0  0  0  0
   12.9674   -0.8304   22.4922 O   0  0  0  0  0  0  0  0  0  0  0  0
   12.2825    0.3582   22.5110 C   0  0  0  0  0  0  0  0  0  0  0  0
   13.0612    1.4906   22.7108 C   0  0  0  0  0  0  0  0  0  0  0  0
   12.4650    2.7355   22.8008 C   0  0  0  0  0  0  0  0  0  0  0  0
   11.0955    2.8275   22.6891 C   0  0  0  0  0  0  0  0  0  0  0  0
   10.3352    4.3926   22.7591 Cl  0  0  0  0  0  0  0  0  0  0  0  0
   10.3161    1.7078   22.4907 C   0  0  0  0  0  0  0  0  0  0  0  0
   10.8943    0.4438   22.3969 C   0  0  0  0  0  0  0  0  0  0  0  0
  1  2  1  0
  2  3  1  0
  3  4  2  0
  3  5  1  0
  5  6  1  0
  6  7  1  0
  7  8  1  0
  8  9  1  0
  9 10  1  0
 10 11  2  0
 11 12  1  0
 12 13  2  0
 13 14  1  0
 13 15  1  0
 15 16  2  0
 16  6  1  0
 16 10  1  0
M  END
