CVD-0001303|dock_bobby27042020.38|mol2|33|dock3
     RDKit          3D

 18 19  0  0  0  0  0  0  0  0999 V2000
   14.6565   -0.8783   24.7617 F   0  0  0  0  0  0  0  0  0  0  0  0
   14.3299   -2.2144   24.8481 C   0  0  0  0  0  0  0  0  0  0  0  0
   12.5794   -2.4922   24.7428 S   0  0  0  0  0  0  0  0  0  0  0  0
   12.1412   -1.9067   23.1427 C   0  0  0  0  0  0  0  0  0  0  0  0
   12.9360   -1.8920   22.2389 O   0  0  0  0  0  0  0  0  0  0  0  0
   10.7066   -1.4477   23.0207 C   0  0  0  0  0  0  0  0  0  0  0  0
   10.4707   -0.7469   21.6885 C   0  0  0  0  0  0  0  0  0  0  0  0
    9.0217   -0.3248   21.5582 C   0  0  0  0  0  0  0  0  0  0  0  0
    8.1493   -1.4885   21.6923 N   0  0  0  0  0  0  0  0  0  0  0  0
    8.3017   -2.1622   22.9772 C   0  0  0  0  0  0  0  0  0  0  0  0
    9.7438   -2.6252   23.1555 C   0  0  0  0  0  0  0  0  0  0  0  0
    7.1025   -1.7872   20.8881 C   0  0  0  0  0  0  0  0  0  0  0  0
    6.6237   -2.9154   20.9091 O   0  0  0  0  0  0  0  0  0  0  0  0
    6.4319   -0.8564   19.9328 C   0  0  0  0  0  0  0  0  0  0  0  0
    5.8837   -1.2003   18.7144 C   0  0  0  0  0  0  0  0  0  0  0  0
    5.3242   -0.0824   18.0502 C   0  0  0  0  0  0  0  0  0  0  0  0
    5.4450    1.0633   18.7390 C   0  0  0  0  0  0  0  0  0  0  0  0
    6.2460    0.8266   20.2263 S   0  0  0  0  0  0  0  0  0  0  0  0
  1  2  1  0
  2  3  1  0
  3  4  1  0
  4  5  2  0
  4  6  1  0
  6  7  1  0
  7  8  1  0
  8  9  1  0
  9 10  1  0
 10 11  1  0
  9 12  1  0
 12 13  2  0
 12 14  1  0
 14 15  2  0
 15 16  1  0
 16 17  2  0
 17 18  1  0
 11  6  1  0
 18 14  1  0
M  END
