CVD-0003514|dock_bobby27042020.59|mol2|32|dock2
     RDKit          3D

 29 31  0  0  0  0  0  0  0  0999 V2000
   10.4642   -4.9749   26.3366 Cl  0  0  0  0  0  0  0  0  0  0  0  0
    9.9125   -4.3516   24.8069 C   0  0  0  0  0  0  0  0  0  0  0  0
    8.7764   -4.8730   24.2348 C   0  0  0  0  0  0  0  0  0  0  0  0
    8.3565   -4.3643   23.0212 C   0  0  0  0  0  0  0  0  0  0  0  0
    9.0530   -3.3468   22.3726 C   0  0  0  0  0  0  0  0  0  0  0  0
    8.5557   -2.8279   21.0440 C   0  0  0  0  0  0  0  0  0  0  0  0
    7.8449   -1.5503   21.1746 N   0  0  0  0  0  0  0  0  0  0  0  0
    7.9676   -0.4215   20.0385 S   0  0  0  0  0  0  0  0  0  0  0  0
    8.6087   -1.0161   18.9106 O   0  0  0  0  0  0  0  0  0  0  0  0
    8.5189    0.7440   20.6504 O   0  0  0  0  0  0  0  0  0  0  0  0
    6.4398   -0.0872   19.6218 N   0  0  0  0  0  0  0  0  0  0  0  0
    5.8238   -0.7739   18.4837 C   0  0  0  0  0  0  0  0  0  0  0  0
    4.9741    0.1968   17.7024 C   0  0  0  0  0  0  0  0  0  0  0  0
    4.0115    0.8370   18.5319 O   0  0  0  0  0  0  0  0  0  0  0  0
    4.6785    1.5716   19.5563 C   0  0  0  0  0  0  0  0  0  0  0  0
    5.4701    0.6446   20.4424 C   0  0  0  0  0  0  0  0  0  0  0  0
   10.2099   -2.8216   22.9672 C   0  0  0  0  0  0  0  0  0  0  0  0
   10.9625   -1.7115   22.2597 C   0  0  0  0  0  0  0  0  0  0  0  0
   11.7574   -0.7815   23.0805 N   0  0  0  0  0  0  0  0  0  0  0  0
   10.8811    0.0268   23.9334 C   0  0  0  0  0  0  0  0  0  0  0  0
   11.7069    0.9535   24.8062 C   0  0  0  0  0  0  0  0  0  0  0  0
   12.5481    1.8209   23.9787 N   0  0  0  0  0  0  0  0  0  0  0  0
   13.3951    1.0421   23.0699 C   0  0  0  0  0  0  0  0  0  0  0  0
   12.5455    0.1063   22.2296 C   0  0  0  0  0  0  0  0  0  0  0  0
   12.5406    3.1794   24.0872 C   0  0  0  0  0  0  0  0  0  0  0  0
   11.7965    3.7022   24.9154 O   0  0  0  0  0  0  0  0  0  0  0  0
   13.3632    4.1255   23.2654 C   0  0  0  0  0  0  0  0  0  0  0  0
   13.8383    5.2955   23.6159 C   0  0  0  0  0  0  0  0  0  0  0  0
   10.6247   -3.3431   24.1925 C   0  0  0  0  0  0  0  0  0  0  0  0
  1  2  1  0
  2  3  2  0
  3  4  1  0
  4  5  2  0
  5  6  1  0
  6  7  1  0
  7  8  1  0
  8  9  2  0
  8 10  2  0
  8 11  1  0
 11 12  1  0
 12 13  1  0
 13 14  1  0
 14 15  1  0
 15 16  1  0
  5 17  1  0
 17 18  1  0
 18 19  1  0
 19 20  1  0
 20 21  1  0
 21 22  1  0
 22 23  1  0
 23 24  1  0
 22 25  1  0
 25 26  2  0
 25 27  1  0
 27 28  2  0
 17 29  2  0
 29  2  1  0
 16 11  1  0
 24 19  1  0
M  END
