CVD-0001356|dock_bobby27042020.38|mol2|25|dock1
     RDKit          3D

 35 38  0  0  0  0  0  0  0  0999 V2000
    2.1310   -8.5226   21.1342 N   0  0  0  0  0  0  0  0  0  0  0  0
    1.5938   -8.0519   22.5671 S   0  0  0  0  0  0  0  0  0  0  0  0
    0.6571   -6.9923   22.3422 O   0  0  0  0  0  0  0  0  0  0  0  0
    1.1583   -9.2256   23.2628 O   0  0  0  0  0  0  0  0  0  0  0  0
    2.9531   -7.3687   23.4794 C   0  0  0  0  0  0  0  0  0  0  0  0
    3.7375   -6.4210   22.8367 C   0  0  0  0  0  0  0  0  0  0  0  0
    4.8037   -5.8232   23.5011 C   0  0  0  0  0  0  0  0  0  0  0  0
    5.6138   -4.9293   22.8077 N   0  0  0  0  0  0  0  0  0  0  0  0
    6.4849   -4.0287   23.5477 C   0  0  0  0  0  0  0  0  0  0  0  0
    7.4039   -3.2537   22.6012 C   0  0  0  0  0  0  0  0  0  0  0  0
    8.1207   -2.0436   23.1985 C   0  0  0  0  0  0  0  0  0  0  0  0
    8.9662   -1.2549   22.1909 C   0  0  0  0  0  0  0  0  0  0  0  0
    9.7079   -0.1325   22.7990 N   0  0  0  0  0  0  0  0  0  0  0  0
   11.0937   -0.5180   23.1126 C   0  0  0  0  0  0  0  0  0  0  0  0
   11.8284    0.6172   23.7770 C   0  0  0  0  0  0  0  0  0  0  0  0
   11.7994    1.8166   22.9340 N   0  0  0  0  0  0  0  0  0  0  0  0
   10.4424    2.1925   22.5419 C   0  0  0  0  0  0  0  0  0  0  0  0
    9.7576    1.0145   21.8910 C   0  0  0  0  0  0  0  0  0  0  0  0
   12.8505    2.6132   22.6426 C   0  0  0  0  0  0  0  0  0  0  0  0
   13.9662    2.3848   23.0927 O   0  0  0  0  0  0  0  0  0  0  0  0
   12.6024    3.8090   21.7434 C   0  0  0  0  0  0  0  0  0  0  0  0
   14.0825    4.7327   21.4544 Cl  0  0  0  0  0  0  0  0  0  0  0  0
    8.0751   -0.7900   21.0768 C   0  0  0  0  0  0  0  0  0  0  0  0
    8.2990   -0.8736   19.7094 C   0  0  0  0  0  0  0  0  0  0  0  0
    7.2635   -0.3464   18.9419 C   0  0  0  0  0  0  0  0  0  0  0  0
    6.2633    0.1316   19.7066 C   0  0  0  0  0  0  0  0  0  0  0  0
    4.6761    0.9276   19.1151 Br  0  0  0  0  0  0  0  0  0  0  0  0
    6.5486   -0.0441   21.3895 S   0  0  0  0  0  0  0  0  0  0  0  0
    7.2514   -4.8187   24.6354 C   0  0  0  0  0  0  0  0  0  0  0  0
    8.7595   -6.1697   23.8450 I   0  0  0  0  0  0  0  0  0  0  0  0
    6.2211   -5.4896   25.5563 C   0  0  0  0  0  0  0  0  0  0  0  0
    5.0958   -6.1716   24.8243 C   0  0  0  0  0  0  0  0  0  0  0  0
    4.2999   -7.1221   25.4514 C   0  0  0  0  0  0  0  0  0  0  0  0
    3.2354   -7.7268   24.8054 C   0  0  0  0  0  0  0  0  0  0  0  0
    2.5092   -8.6572   25.4834 O   0  0  0  0  0  0  0  0  0  0  0  0
  1  2  1  0
  2  3  2  0
  2  4  2  0
  2  5  1  0
  5  6  2  0
  6  7  1  0
  7  8  1  0
  8  9  1  0
  9 10  1  0
 10 11  1  0
 11 12  1  0
 12 13  1  0
 13 14  1  0
 14 15  1  0
 15 16  1  0
 16 17  1  0
 17 18  1  0
 16 19  1  0
 19 20  2  0
 19 21  1  0
 21 22  1  0
 12 23  1  0
 23 24  2  0
 24 25  1  0
 25 26  2  0
 26 27  1  0
 26 28  1  0
  9 29  1  0
 29 30  1  0
 29 31  1  0
 31 32  1  0
 32 33  1  0
 33 34  2  0
 34 35  1  0
 34  5  1  0
 32  7  2  0
 18 13  1  0
 28 23  1  0
M  END
