CVD-0000432|dock_bobby27042020.41|mol2|29|dock2
     RDKit          3D

 29 31  0  0  0  0  0  0  0  0999 V2000
   13.8077   -0.3322   22.3608 C   0  0  0  0  0  0  0  0  0  0  0  0
   13.5206   -1.6803   21.7775 C   0  0  0  0  0  0  0  0  0  0  0  0
   12.6472   -2.4582   22.6404 N   0  0  0  0  0  0  0  0  0  0  0  0
   11.2998   -2.2787   22.7162 C   0  0  0  0  0  0  0  0  0  0  0  0
   10.5753   -2.6986   23.8310 C   0  0  0  0  0  0  0  0  0  0  0  0
    9.2101   -2.4823   23.8368 C   0  0  0  0  0  0  0  0  0  0  0  0
    8.6485   -1.8674   22.7450 C   0  0  0  0  0  0  0  0  0  0  0  0
    7.3140   -1.6459   22.7304 F   0  0  0  0  0  0  0  0  0  0  0  0
    9.4080   -1.4693   21.6622 C   0  0  0  0  0  0  0  0  0  0  0  0
    8.8165   -0.7905   20.4503 C   0  0  0  0  0  0  0  0  0  0  0  0
    7.5981   -1.4618   19.8438 C   0  0  0  0  0  0  0  0  0  0  0  0
    7.2600   -2.7576   20.2219 C   0  0  0  0  0  0  0  0  0  0  0  0
    6.1495   -3.3966   19.6846 C   0  0  0  0  0  0  0  0  0  0  0  0
    5.7952   -4.6740   20.0451 O   0  0  0  0  0  0  0  0  0  0  0  0
    6.6793   -5.4887   20.8099 C   0  0  0  0  0  0  0  0  0  0  0  0
    6.7059   -5.0576   22.2554 C   0  0  0  0  0  0  0  0  0  0  0  0
    5.8697   -4.2517   22.6497 O   0  0  0  0  0  0  0  0  0  0  0  0
    7.6814   -5.6259   23.0048 N   0  0  0  0  0  0  0  0  0  0  0  0
    8.0145   -5.4774   24.3740 C   0  0  0  0  0  0  0  0  0  0  0  0
    9.3110   -5.7575   24.7857 C   0  0  0  0  0  0  0  0  0  0  0  0
    9.6513   -5.6173   26.1196 C   0  0  0  0  0  0  0  0  0  0  0  0
    8.6849   -5.2006   27.0051 C   0  0  0  0  0  0  0  0  0  0  0  0
    7.4326   -4.9240   26.6416 N   0  0  0  0  0  0  0  0  0  0  0  0
    7.1128   -5.0621   25.3511 C   0  0  0  0  0  0  0  0  0  0  0  0
    5.3621   -2.7462   18.7505 C   0  0  0  0  0  0  0  0  0  0  0  0
    5.6827   -1.4594   18.3598 C   0  0  0  0  0  0  0  0  0  0  0  0
    6.7887   -0.8347   18.9069 C   0  0  0  0  0  0  0  0  0  0  0  0
    7.1609    0.7791   18.3960 Cl  0  0  0  0  0  0  0  0  0  0  0  0
   10.7315   -1.6807   21.6612 N   0  0  0  0  0  0  0  0  0  0  0  0
  1  2  1  0
  2  3  1  0
  3  4  1  0
  4  5  2  0
  5  6  1  0
  6  7  2  0
  7  8  1  0
  7  9  1  0
  9 10  1  0
 10 11  1  0
 11 12  2  0
 12 13  1  0
 13 14  1  0
 14 15  1  0
 15 16  1  0
 16 17  2  0
 16 18  1  0
 18 19  1  0
 19 20  2  0
 20 21  1  0
 21 22  2  0
 22 23  1  0
 23 24  2  0
 13 25  2  0
 25 26  1  0
 26 27  2  0
 27 28  1  0
  9 29  2  0
 29  4  1  0
 27 11  1  0
 24 19  1  0
M  END
