CVD-0001757|dock_bobby27042020.94|mol2|18|dock2
     RDKit          3D

 30 32  0  0  0  0  0  0  0  0999 V2000
   11.4837    3.2188   24.2979 C   0  0  0  0  0  0  0  0  0  0  0  0
   11.5643    1.9654   25.1117 C   0  0  0  0  0  0  0  0  0  0  0  0
   11.0184    0.8273   24.3910 N   0  0  0  0  0  0  0  0  0  0  0  0
   11.7254    0.1205   23.4943 C   0  0  0  0  0  0  0  0  0  0  0  0
   12.9669    0.5707   23.2210 N   0  0  0  0  0  0  0  0  0  0  0  0
   13.6793   -0.0373   22.2664 C   0  0  0  0  0  0  0  0  0  0  0  0
   13.2271   -1.1368   21.5489 C   0  0  0  0  0  0  0  0  0  0  0  0
   11.9706   -1.6438   21.8559 C   0  0  0  0  0  0  0  0  0  0  0  0
   11.2137   -1.0323   22.8505 C   0  0  0  0  0  0  0  0  0  0  0  0
    9.9394   -1.6102   23.1968 N   0  0  0  0  0  0  0  0  0  0  0  0
    9.8009   -2.1413   24.5607 C   0  0  0  0  0  0  0  0  0  0  0  0
    9.7890   -3.6613   24.5684 C   0  0  0  0  0  0  0  0  0  0  0  0
    9.0072   -4.2292   25.6753 N   0  0  0  0  0  0  0  0  0  0  0  0
    7.8529   -4.9941   25.2039 C   0  0  0  0  0  0  0  0  0  0  0  0
    7.0622   -5.5268   26.3676 C   0  0  0  0  0  0  0  0  0  0  0  0
    7.8969   -6.3840   27.2144 N   0  0  0  0  0  0  0  0  0  0  0  0
    7.1189   -6.9492   28.3161 C   0  0  0  0  0  0  0  0  0  0  0  0
    9.0513   -5.6191   27.6858 C   0  0  0  0  0  0  0  0  0  0  0  0
    9.8420   -5.0864   26.5221 C   0  0  0  0  0  0  0  0  0  0  0  0
    8.8306   -1.7860   22.3697 C   0  0  0  0  0  0  0  0  0  0  0  0
    7.8390   -2.3108   22.8597 O   0  0  0  0  0  0  0  0  0  0  0  0
    8.8951   -1.3590   21.0659 N   0  0  0  0  0  0  0  0  0  0  0  0
    7.9171   -1.4118   20.0394 C   0  0  0  0  0  0  0  0  0  0  0  0
    6.7969   -2.2389   20.0453 C   0  0  0  0  0  0  0  0  0  0  0  0
    5.9129   -2.1917   18.9810 C   0  0  0  0  0  0  0  0  0  0  0  0
    6.1689   -1.3279   17.9416 C   0  0  0  0  0  0  0  0  0  0  0  0
    7.2334   -0.5273   17.9047 N   0  0  0  0  0  0  0  0  0  0  0  0
    8.0791   -0.5793   18.9375 C   0  0  0  0  0  0  0  0  0  0  0  0
   14.0342   -1.7396   20.5169 C   0  0  0  0  0  0  0  0  0  0  0  0
   14.6682   -2.2470   19.7134 N   0  0  0  0  0  0  0  0  0  0  0  0
  1  2  1  0
  2  3  1  0
  3  4  1  0
  4  5  2  0
  5  6  1  0
  6  7  2  0
  7  8  1  0
  8  9  2  0
  9 10  1  0
 10 11  1  0
 11 12  1  0
 12 13  1  0
 13 14  1  0
 14 15  1  0
 15 16  1  0
 16 17  1  0
 16 18  1  0
 18 19  1  0
 10 20  1  0
 20 21  2  0
 20 22  1  0
 22 23  1  0
 23 24  2  0
 24 25  1  0
 25 26  2  0
 26 27  1  0
 27 28  2  0
  7 29  1  0
 29 30  3  0
  9  4  1  0
 19 13  1  0
 28 23  1  0
M  END
