CVD-0002933|dock_bobby27042020.61|mol2|28|dock3
     RDKit          3D

 20 22  0  0  0  0  0  0  0  0999 V2000
   10.2725    0.5303   21.8096 C   0  0  0  0  0  0  0  0  0  0  0  0
    9.6127   -0.6479   21.1650 C   0  0  0  0  0  0  0  0  0  0  0  0
    9.3499   -0.6004   19.9752 O   0  0  0  0  0  0  0  0  0  0  0  0
    9.2401   -1.8554   21.9491 C   0  0  0  0  0  0  0  0  0  0  0  0
   10.0063   -2.0938   23.0931 C   0  0  0  0  0  0  0  0  0  0  0  0
    9.9256   -3.2800   23.8008 C   0  0  0  0  0  0  0  0  0  0  0  0
    9.0718   -4.2769   23.3701 C   0  0  0  0  0  0  0  0  0  0  0  0
    9.0664   -5.9469   24.2666 Br  0  0  0  0  0  0  0  0  0  0  0  0
    8.2280   -4.0418   22.2924 C   0  0  0  0  0  0  0  0  0  0  0  0
    7.3135   -4.8511   21.6621 N   0  0  0  0  0  0  0  0  0  0  0  0
    6.5996   -4.1029   20.7743 C   0  0  0  0  0  0  0  0  0  0  0  0
    5.6645   -4.5059   20.0928 O   0  0  0  0  0  0  0  0  0  0  0  0
    7.0986   -2.8224   20.8122 N   0  0  0  0  0  0  0  0  0  0  0  0
    6.4889   -1.7022   20.1338 C   0  0  0  0  0  0  0  0  0  0  0  0
    5.9134   -1.8352   18.8772 C   0  0  0  0  0  0  0  0  0  0  0  0
    5.3262   -0.7336   18.2803 C   0  0  0  0  0  0  0  0  0  0  0  0
    5.3368    0.4649   18.9556 C   0  0  0  0  0  0  0  0  0  0  0  0
    5.8864    0.6192   20.1604 N   0  0  0  0  0  0  0  0  0  0  0  0
    6.4470   -0.4524   20.7294 C   0  0  0  0  0  0  0  0  0  0  0  0
    8.2231   -2.7899   21.6524 C   0  0  0  0  0  0  0  0  0  0  0  0
  1  2  1  0
  2  3  2  0
  2  4  1  0
  4  5  2  0
  5  6  1  0
  6  7  2  0
  7  8  1  0
  7  9  1  0
  9 10  1  0
 10 11  1  0
 11 12  2  0
 11 13  1  0
 13 14  1  0
 14 15  2  0
 15 16  1  0
 16 17  2  0
 17 18  1  0
 18 19  2  0
 13 20  1  0
 20  4  1  0
 20  9  2  0
 19 14  1  0
M  END
