CVD-0000350|dock_bobby27042020.84|mol2|32|dock3
     RDKit          3D

 31 34  0  0  0  0  0  0  0  0999 V2000
   10.3748   -0.4409   25.1024 C   0  0  0  0  0  0  0  0  0  0  0  0
   11.1898    0.2794   24.0371 C   0  0  0  0  0  0  0  0  0  0  0  0
   11.2863   -0.5071   22.7334 C   0  0  0  0  0  0  0  0  0  0  0  0
    9.9699   -0.7552   22.0377 C   0  0  0  0  0  0  0  0  0  0  0  0
    9.2941   -1.9553   22.2072 C   0  0  0  0  0  0  0  0  0  0  0  0
    8.0858   -2.1914   21.5756 C   0  0  0  0  0  0  0  0  0  0  0  0
    7.5330   -1.2168   20.7568 C   0  0  0  0  0  0  0  0  0  0  0  0
    6.3259   -1.4697   20.1631 O   0  0  0  0  0  0  0  0  0  0  0  0
    5.9890   -0.5668   19.1055 C   0  0  0  0  0  0  0  0  0  0  0  0
    6.2881    0.8540   19.5133 C   0  0  0  0  0  0  0  0  0  0  0  0
    7.6791    1.0147   19.8103 O   0  0  0  0  0  0  0  0  0  0  0  0
    8.2088   -0.0076   20.5831 C   0  0  0  0  0  0  0  0  0  0  0  0
    9.4169    0.2216   21.2178 C   0  0  0  0  0  0  0  0  0  0  0  0
    5.3978    1.3125   20.6553 C   0  0  0  0  0  0  0  0  0  0  0  0
    4.0652    1.7629   20.1227 C   0  0  0  0  0  0  0  0  0  0  0  0
    3.2683    2.3256   21.2116 N   0  0  0  0  0  0  0  0  0  0  0  0
    3.9751    3.3544   21.9720 C   0  0  0  0  0  0  0  0  0  0  0  0
    5.3126    2.8378   22.4118 C   0  0  0  0  0  0  0  0  0  0  0  0
    6.0811    2.3671   21.3172 O   0  0  0  0  0  0  0  0  0  0  0  0
    1.9943    1.9531   21.4852 C   0  0  0  0  0  0  0  0  0  0  0  0
    1.3023    2.6126   22.6418 C   0  0  0  0  0  0  0  0  0  0  0  0
    1.4349    1.0944   20.8125 O   0  0  0  0  0  0  0  0  0  0  0  0
   10.6852    1.6475   23.8183 N   0  0  0  0  0  0  0  0  0  0  0  0
   11.3866    2.7213   23.3452 C   0  0  0  0  0  0  0  0  0  0  0  0
   10.7961    3.9528   23.0536 C   0  0  0  0  0  0  0  0  0  0  0  0
   11.5985    4.9752   22.5794 C   0  0  0  0  0  0  0  0  0  0  0  0
   12.9605    4.7637   22.4027 C   0  0  0  0  0  0  0  0  0  0  0  0
   13.4579    3.5044   22.7196 C   0  0  0  0  0  0  0  0  0  0  0  0
   12.6960    2.5057   23.1788 N   0  0  0  0  0  0  0  0  0  0  0  0
   13.8239    5.8086   21.9104 C   0  0  0  0  0  0  0  0  0  0  0  0
   14.4988    6.6284   21.4894 N   0  0  0  0  0  0  0  0  0  0  0  0
  2  1  1  0
  2  3  1  0
  3  4  1  0
  4  5  2  0
  5  6  1  0
  6  7  2  0
  7  8  1  0
  8  9  1  0
 10  9  1  0
 10 11  1  0
 11 12  1  0
 12 13  2  0
 10 14  1  0
 14 15  1  0
 15 16  1  0
 16 17  1  0
 17 18  1  0
 18 19  1  0
 16 20  1  0
 20 21  1  0
 20 22  2  0
  2 23  1  0
 23 24  1  0
 24 25  2  0
 25 26  1  0
 26 27  2  0
 27 28  1  0
 28 29  2  0
 27 30  1  0
 30 31  3  0
 13  4  1  0
 19 14  1  0
 29 24  1  0
 12  7  1  0
M  END
