CVD-0000547|dock_bobby27042020.26|mol2|50|dock2
     RDKit          3D

 18 19  0  0  0  0  0  0  0  0999 V2000
    9.4056   -0.5916   22.8126 O   0  0  0  0  0  0  0  0  0  0  0  0
    9.8159   -1.0183   21.7384 C   0  0  0  0  0  0  0  0  0  0  0  0
   11.0390   -1.6223   21.5569 N   0  0  0  0  0  0  0  0  0  0  0  0
   12.0815   -1.8994   22.4774 C   0  0  0  0  0  0  0  0  0  0  0  0
   11.7428   -2.2433   23.7799 C   0  0  0  0  0  0  0  0  0  0  0  0
   12.7396   -2.5188   24.6992 C   0  0  0  0  0  0  0  0  0  0  0  0
   14.0505   -2.4429   24.2908 C   0  0  0  0  0  0  0  0  0  0  0  0
   14.4093   -2.1160   23.0494 N   0  0  0  0  0  0  0  0  0  0  0  0
   13.4395   -1.8516   22.1682 C   0  0  0  0  0  0  0  0  0  0  0  0
    9.1105   -0.9539   20.5587 N   0  0  0  0  0  0  0  0  0  0  0  0
    7.8256   -0.4231   20.2805 C   0  0  0  0  0  0  0  0  0  0  0  0
    6.8294   -0.5680   21.2408 C   0  0  0  0  0  0  0  0  0  0  0  0
    5.5802   -0.1140   21.1017 N   0  0  0  0  0  0  0  0  0  0  0  0
    5.2754    0.5180   19.9664 C   0  0  0  0  0  0  0  0  0  0  0  0
    6.1908    0.7196   18.9393 C   0  0  0  0  0  0  0  0  0  0  0  0
    7.4875    0.2396   19.1023 C   0  0  0  0  0  0  0  0  0  0  0  0
    5.8113    1.4094   17.7310 C   0  0  0  0  0  0  0  0  0  0  0  0
    5.5422    1.9661   16.7706 N   0  0  0  0  0  0  0  0  0  0  0  0
  1  2  2  0
  2  3  1  0
  3  4  1  0
  4  5  2  0
  5  6  1  0
  6  7  2  0
  7  8  1  0
  8  9  2  0
  2 10  1  0
 10 11  1  0
 11 12  2  0
 12 13  1  0
 13 14  2  0
 14 15  1  0
 15 16  2  0
 15 17  1  0
 17 18  3  0
  9  4  1  0
 16 11  1  0
M  END
