CVD-0002870|dock_bobby27042020.61|mol2|37|dock2
     RDKit          3D

 31 34  0  0  0  0  0  0  0  0999 V2000
   13.3051    7.6522   25.3917 N   0  0  0  0  0  0  0  0  0  0  0  0
   13.0203    6.6374   24.5083 C   0  0  0  0  0  0  0  0  0  0  0  0
   13.4013    6.7301   23.1696 C   0  0  0  0  0  0  0  0  0  0  0  0
   13.1097    5.7098   22.2844 C   0  0  0  0  0  0  0  0  0  0  0  0
   12.4304    4.5746   22.7099 C   0  0  0  0  0  0  0  0  0  0  0  0
   12.1685    3.6198   21.7792 O   0  0  0  0  0  0  0  0  0  0  0  0
   12.0404    4.4537   24.0589 C   0  0  0  0  0  0  0  0  0  0  0  0
   12.3445    5.4954   24.9385 C   0  0  0  0  0  0  0  0  0  0  0  0
   11.3290    3.2105   24.5428 C   0  0  0  0  0  0  0  0  0  0  0  0
   10.2648    3.3630   25.1178 O   0  0  0  0  0  0  0  0  0  0  0  0
   11.7874    1.9485   24.3791 N   0  0  0  0  0  0  0  0  0  0  0  0
   11.0182    0.8189   24.8746 C   0  0  0  0  0  0  0  0  0  0  0  0
   10.8121   -0.1942   23.7929 C   0  0  0  0  0  0  0  0  0  0  0  0
   12.1202   -0.5925   23.2538 N   0  0  0  0  0  0  0  0  0  0  0  0
   12.8472    0.5518   22.6846 C   0  0  0  0  0  0  0  0  0  0  0  0
   13.0627    1.5774   23.7579 C   0  0  0  0  0  0  0  0  0  0  0  0
   12.2010   -2.0239   22.4774 S   0  0  0  0  0  0  0  0  0  0  0  0
   12.2584   -1.7196   21.0814 O   0  0  0  0  0  0  0  0  0  0  0  0
   13.2616   -2.7603   23.0918 O   0  0  0  0  0  0  0  0  0  0  0  0
   10.6821   -2.8954   22.7852 C   0  0  0  0  0  0  0  0  0  0  0  0
   10.7265   -3.8881   23.7420 C   0  0  0  0  0  0  0  0  0  0  0  0
    9.5873   -4.6142   24.0494 C   0  0  0  0  0  0  0  0  0  0  0  0
    9.6585   -5.5836   24.9983 O   0  0  0  0  0  0  0  0  0  0  0  0
    8.3711   -4.3591   23.3950 C   0  0  0  0  0  0  0  0  0  0  0  0
    7.2770   -5.0952   23.7315 N   0  0  0  0  0  0  0  0  0  0  0  0
    8.2972   -3.3331   22.3865 C   0  0  0  0  0  0  0  0  0  0  0  0
    7.1073   -3.0163   21.6782 C   0  0  0  0  0  0  0  0  0  0  0  0
    7.0884   -2.0372   20.7298 C   0  0  0  0  0  0  0  0  0  0  0  0
    8.2290   -1.3242   20.4291 C   0  0  0  0  0  0  0  0  0  0  0  0
    9.3999   -1.5836   21.0759 C   0  0  0  0  0  0  0  0  0  0  0  0
    9.4791   -2.5886   22.0744 C   0  0  0  0  0  0  0  0  0  0  0  0
  1  2  1  0
  2  3  2  0
  3  4  1  0
  4  5  2  0
  5  6  1  0
  5  7  1  0
  7  8  2  0
  7  9  1  0
  9 10  2  0
  9 11  1  0
 11 12  1  0
 12 13  1  0
 13 14  1  0
 14 15  1  0
 15 16  1  0
 14 17  1  0
 17 18  2  0
 17 19  2  0
 17 20  1  0
 20 21  2  0
 21 22  1  0
 22 23  1  0
 22 24  2  0
 24 25  1  0
 24 26  1  0
 26 27  2  0
 27 28  1  0
 28 29  2  0
 29 30  1  0
 30 31  2  0
  8  2  1  0
 16 11  1  0
 31 20  1  0
 31 26  1  0
M  END
