CVD-0002753|dock_bobby27042020.76|mol2|11|dock2
     RDKit          3D

 23 26  0  0  0  0  0  0  0  0999 V2000
   14.1916   -1.5127   20.6884 N   0  0  0  0  0  0  0  0  0  0  0  0
   13.7712   -1.0030   21.8350 C   0  0  0  0  0  0  0  0  0  0  0  0
   13.6955    0.2118   22.0325 O   0  0  0  0  0  0  0  0  0  0  0  0
   13.3830   -2.0075   22.9017 C   0  0  0  0  0  0  0  0  0  0  0  0
   14.3688   -1.9647   24.0808 C   0  0  0  0  0  0  0  0  0  0  0  0
   13.5096   -1.8511   25.3385 C   0  0  0  0  0  0  0  0  0  0  0  0
   13.6449   -3.0024   26.1762 O   0  0  0  0  0  0  0  0  0  0  0  0
   12.2084   -1.7346   24.9563 C   0  0  0  0  0  0  0  0  0  0  0  0
   11.9599   -1.8224   23.5322 C   0  0  0  0  0  0  0  0  0  0  0  0
   11.1511   -0.7053   22.9058 C   0  0  0  0  0  0  0  0  0  0  0  0
   10.1289   -0.8411   22.0133 C   0  0  0  0  0  0  0  0  0  0  0  0
    9.4753    0.6689   21.5398 S   0  0  0  0  0  0  0  0  0  0  0  0
   10.5626    1.5472   22.5337 C   0  0  0  0  0  0  0  0  0  0  0  0
   11.3821    0.6722   23.1893 C   0  0  0  0  0  0  0  0  0  0  0  0
   10.5699    3.0265   22.6301 C   0  0  0  0  0  0  0  0  0  0  0  0
    9.3293    3.6637   22.5160 C   0  0  0  0  0  0  0  0  0  0  0  0
    9.2127    5.0415   22.5902 C   0  0  0  0  0  0  0  0  0  0  0  0
   10.3300    5.8313   22.7811 C   0  0  0  0  0  0  0  0  0  0  0  0
   11.6000    5.2501   22.9026 C   0  0  0  0  0  0  0  0  0  0  0  0
   12.9165    5.7686   23.1009 C   0  0  0  0  0  0  0  0  0  0  0  0
   13.7544    4.7083   23.1373 C   0  0  0  0  0  0  0  0  0  0  0  0
   13.0492    3.5413   22.9737 N   0  0  0  0  0  0  0  0  0  0  0  0
   11.7108    3.8394   22.8254 C   0  0  0  0  0  0  0  0  0  0  0  0
  1  2  1  0
  2  3  2  0
  4  2  1  0
  4  5  1  0
  5  6  1  0
  6  7  1  0
  6  8  1  0
  8  9  1  0
  9 10  1  0
 10 11  2  0
 11 12  1  0
 12 13  1  0
 13 14  2  0
 13 15  1  0
 15 16  2  0
 16 17  1  0
 17 18  2  0
 18 19  1  0
 19 20  1  0
 20 21  2  0
 21 22  1  0
 22 23  1  0
  9  4  1  0
 14 10  1  0
 23 15  1  0
 23 19  2  0
M  END
