CVD-0001268|dock_bobby27042020.38|mol2|38|dock1
     RDKit          3D

 24 25  0  0  0  0  0  0  0  0999 V2000
    8.0484    3.1601   21.8697 O   0  0  0  0  0  0  0  0  0  0  0  0
    8.9727    2.1685   22.2871 C   0  0  0  0  0  0  0  0  0  0  0  0
   10.3887    2.7043   22.2611 C   0  0  0  0  0  0  0  0  0  0  0  0
   11.4661    1.8105   22.8902 C   0  0  0  0  0  0  0  0  0  0  0  0
   12.8688    2.3462   22.5879 C   0  0  0  0  0  0  0  0  0  0  0  0
   13.0291    3.8082   22.9390 C   0  0  0  0  0  0  0  0  0  0  0  0
   14.3953    4.1896   22.9572 O   0  0  0  0  0  0  0  0  0  0  0  0
   11.3192    0.3078   22.5424 C   0  0  0  0  0  0  0  0  0  0  0  0
   10.0093   -0.2071   23.0174 N   0  0  0  0  0  0  0  0  0  0  0  0
    9.5697   -1.3622   22.2177 C   0  0  0  0  0  0  0  0  0  0  0  0
    8.2184   -1.8473   22.6745 C   0  0  0  0  0  0  0  0  0  0  0  0
    8.2436   -2.1811   24.1020 N   0  0  0  0  0  0  0  0  0  0  0  0
    8.7420   -1.0812   24.9254 C   0  0  0  0  0  0  0  0  0  0  0  0
   10.0914   -0.6357   24.4144 C   0  0  0  0  0  0  0  0  0  0  0  0
    7.7399   -3.2959   24.6686 C   0  0  0  0  0  0  0  0  0  0  0  0
    7.8136   -3.5015   25.8736 O   0  0  0  0  0  0  0  0  0  0  0  0
    7.0794   -4.2880   23.7317 C   0  0  0  0  0  0  0  0  0  0  0  0
    6.3232   -5.6047   24.6382 Cl  0  0  0  0  0  0  0  0  0  0  0  0
   12.4750   -0.5683   22.9875 C   0  0  0  0  0  0  0  0  0  0  0  0
   12.9257   -1.5910   22.1637 C   0  0  0  0  0  0  0  0  0  0  0  0
   13.9762   -2.4059   22.5511 C   0  0  0  0  0  0  0  0  0  0  0  0
   14.5911   -2.2112   23.7690 C   0  0  0  0  0  0  0  0  0  0  0  0
   14.1550   -1.2017   24.5996 C   0  0  0  0  0  0  0  0  0  0  0  0
   13.1044   -0.3868   24.2122 C   0  0  0  0  0  0  0  0  0  0  0  0
  1  2  1  0
  2  3  1  0
  3  4  1  0
  4  5  1  0
  5  6  1  0
  6  7  1  0
  4  8  1  0
  8  9  1  0
  9 10  1  0
 10 11  1  0
 11 12  1  0
 12 13  1  0
 13 14  1  0
 12 15  1  0
 15 16  2  0
 15 17  1  0
 17 18  1  0
  8 19  1  0
 19 20  2  0
 20 21  1  0
 21 22  2  0
 22 23  1  0
 23 24  2  0
 14  9  1  0
 24 19  1  0
M  END
