CVD-0001411|dock_bobby27042020.38|mol2|15|dock3
     RDKit          3D

 39 43  0  0  0  0  0  0  0  0999 V2000
    7.4850   10.3318   23.8287 F   0  0  0  0  0  0  0  0  0  0  0  0
    7.6874    9.2169   24.5215 C   0  0  0  0  0  0  0  0  0  0  0  0
    8.8160    9.4062   25.1956 F   0  0  0  0  0  0  0  0  0  0  0  0
    6.7215    9.1726   25.4320 F   0  0  0  0  0  0  0  0  0  0  0  0
    7.7259    7.9969   23.6579 C   0  0  0  0  0  0  0  0  0  0  0  0
    6.9140    7.8917   22.5363 C   0  0  0  0  0  0  0  0  0  0  0  0
    6.9463    6.7541   21.7487 C   0  0  0  0  0  0  0  0  0  0  0  0
    7.7924    5.7067   22.0725 C   0  0  0  0  0  0  0  0  0  0  0  0
    8.6298    5.7953   23.1817 C   0  0  0  0  0  0  0  0  0  0  0  0
    8.5752    6.9415   23.9678 C   0  0  0  0  0  0  0  0  0  0  0  0
    9.5793    4.7136   23.5728 C   0  0  0  0  0  0  0  0  0  0  0  0
    9.1557    3.7992   24.2715 O   0  0  0  0  0  0  0  0  0  0  0  0
   11.0055    4.7207   23.1662 C   0  0  0  0  0  0  0  0  0  0  0  0
   11.7800    5.9190   23.0656 C   0  0  0  0  0  0  0  0  0  0  0  0
   13.0716    5.6898   22.7170 C   0  0  0  0  0  0  0  0  0  0  0  0
   13.3981    4.0307   22.5004 S   0  0  0  0  0  0  0  0  0  0  0  0
   11.7592    3.5969   22.8583 C   0  0  0  0  0  0  0  0  0  0  0  0
   11.4229    2.1497   22.7788 C   0  0  0  0  0  0  0  0  0  0  0  0
   12.4038    1.1904   23.0228 C   0  0  0  0  0  0  0  0  0  0  0  0
   12.1183   -0.1644   22.9151 C   0  0  0  0  0  0  0  0  0  0  0  0
   13.0137   -1.3532   23.1139 C   0  0  0  0  0  0  0  0  0  0  0  0
   12.1180   -2.4466   22.8066 N   0  0  0  0  0  0  0  0  0  0  0  0
   10.8750   -2.0696   22.4570 C   0  0  0  0  0  0  0  0  0  0  0  0
    9.9460   -2.8281   22.2012 O   0  0  0  0  0  0  0  0  0  0  0  0
   10.8500   -0.5931   22.5620 C   0  0  0  0  0  0  0  0  0  0  0  0
    9.8441    0.3696   22.3114 C   0  0  0  0  0  0  0  0  0  0  0  0
   10.1428    1.7276   22.4228 C   0  0  0  0  0  0  0  0  0  0  0  0
    8.4759   -0.0033   22.0660 N   0  0  0  0  0  0  0  0  0  0  0  0
    8.0477    0.0148   20.6449 C   0  0  0  0  0  0  0  0  0  0  0  0
    7.8028   -1.3405   19.9676 C   0  0  0  0  0  0  0  0  0  0  0  0
    7.2574   -1.0508   18.5776 C   0  0  0  0  0  0  0  0  0  0  0  0
    6.2307    0.4120   18.7467 S   0  0  0  0  0  0  0  0  0  0  0  0
    6.6093    1.3387   17.7144 O   0  0  0  0  0  0  0  0  0  0  0  0
    4.8551    0.0026   18.8344 O   0  0  0  0  0  0  0  0  0  0  0  0
    6.8771    0.9257   20.3423 C   0  0  0  0  0  0  0  0  0  0  0  0
    7.6132   -0.2893   23.1006 C   0  0  0  0  0  0  0  0  0  0  0  0
    6.4310   -0.5295   22.8892 O   0  0  0  0  0  0  0  0  0  0  0  0
    8.1139   -0.3205   24.5334 C   0  0  0  0  0  0  0  0  0  0  0  0
    8.9714   -1.8289   24.8748 Cl  0  0  0  0  0  0  0  0  0  0  0  0
  1  2  1  0
  2  3  1  0
  2  4  1  0
  2  5  1  0
  5  6  2  0
  6  7  1  0
  7  8  2  0
  8  9  1  0
  9 10  2  0
  9 11  1  0
 11 12  2  0
 11 13  1  0
 13 14  1  0
 14 15  2  0
 15 16  1  0
 16 17  1  0
 17 18  1  0
 18 19  2  0
 19 20  1  0
 20 21  1  0
 21 22  1  0
 22 23  1  0
 23 24  2  0
 23 25  1  0
 25 26  1  0
 26 27  2  0
 26 28  1  0
 29 28  1  0
 29 30  1  0
 30 31  1  0
 31 32  1  0
 32 33  2  0
 32 34  2  0
 32 35  1  0
 28 36  1  0
 36 37  2  0
 36 38  1  0
 38 39  1  0
 10  5  1  0
 17 13  2  0
 27 18  1  0
 35 29  1  0
 25 20  2  0
M  END
