CVD-0003325|dock_bobby27042020.60|mol2|12|dock2
     RDKit          3D

 30 32  0  0  0  0  0  0  0  0999 V2000
    4.6435    2.0226   18.4116 N   0  0  0  0  0  0  0  0  0  0  0  0
    5.6624    0.8207   18.1257 S   0  0  0  0  0  0  0  0  0  0  0  0
    4.8830   -0.3353   17.7859 O   0  0  0  0  0  0  0  0  0  0  0  0
    6.6343    1.2932   17.1814 O   0  0  0  0  0  0  0  0  0  0  0  0
    6.5375    0.4332   19.6168 C   0  0  0  0  0  0  0  0  0  0  0  0
    7.6347   -0.6188   19.4603 C   0  0  0  0  0  0  0  0  0  0  0  0
    8.1029   -1.1245   20.8033 C   0  0  0  0  0  0  0  0  0  0  0  0
    7.4040   -2.1269   21.4624 C   0  0  0  0  0  0  0  0  0  0  0  0
    7.8478   -2.5710   22.6906 C   0  0  0  0  0  0  0  0  0  0  0  0
    6.9660   -3.8289   23.5107 Cl  0  0  0  0  0  0  0  0  0  0  0  0
    8.9749   -2.0406   23.2835 C   0  0  0  0  0  0  0  0  0  0  0  0
    9.6833   -1.0384   22.6366 C   0  0  0  0  0  0  0  0  0  0  0  0
    9.2367   -0.5905   21.4022 C   0  0  0  0  0  0  0  0  0  0  0  0
   10.9278   -0.4324   23.2693 C   0  0  0  0  0  0  0  0  0  0  0  0
   11.1860    0.9147   22.7398 N   0  0  0  0  0  0  0  0  0  0  0  0
   12.4842    1.4180   23.2003 C   0  0  0  0  0  0  0  0  0  0  0  0
   12.7723    2.7807   22.6224 C   0  0  0  0  0  0  0  0  0  0  0  0
   11.7092    3.7168   23.0279 N   0  0  0  0  0  0  0  0  0  0  0  0
   10.3898    3.2247   22.6065 C   0  0  0  0  0  0  0  0  0  0  0  0
   10.1580    1.8557   23.2018 C   0  0  0  0  0  0  0  0  0  0  0  0
   11.9909    5.3195   22.7985 S   0  0  0  0  0  0  0  0  0  0  0  0
   10.7454    5.9124   22.4166 O   0  0  0  0  0  0  0  0  0  0  0  0
   12.6724    5.7951   23.9638 O   0  0  0  0  0  0  0  0  0  0  0  0
   13.0887    5.4538   21.4415 C   0  0  0  0  0  0  0  0  0  0  0  0
   14.2566    6.0208   21.5572 C   0  0  0  0  0  0  0  0  0  0  0  0
   12.1220   -1.3546   23.1442 C   0  0  0  0  0  0  0  0  0  0  0  0
   13.0722   -1.6415   24.1175 C   0  0  0  0  0  0  0  0  0  0  0  0
   14.0404   -2.5526   23.6304 C   0  0  0  0  0  0  0  0  0  0  0  0
   13.8288   -2.9317   22.3587 C   0  0  0  0  0  0  0  0  0  0  0  0
   12.4396   -2.1966   21.6938 S   0  0  0  0  0  0  0  0  0  0  0  0
  1  2  1  0
  2  3  2  0
  2  4  2  0
  2  5  1  0
  5  6  1  0
  6  7  1  0
  7  8  2  0
  8  9  1  0
  9 10  1  0
  9 11  2  0
 11 12  1  0
 12 13  2  0
 14 12  1  0
 14 15  1  0
 15 16  1  0
 16 17  1  0
 17 18  1  0
 18 19  1  0
 19 20  1  0
 18 21  1  0
 21 22  2  0
 21 23  2  0
 21 24  1  0
 24 25  2  0
 14 26  1  0
 26 27  2  0
 27 28  1  0
 28 29  2  0
 29 30  1  0
 13  7  1  0
 20 15  1  0
 30 26  1  0
M  END
