CVD-0000477|dock_bobby27042020.27|mol2|7|dock1
     RDKit          3D

 21 23  0  0  0  0  0  0  0  0999 V2000
    9.0512   -0.3585   20.4838 O   0  0  0  0  0  0  0  0  0  0  0  0
    8.4799    0.6724   20.8269 C   0  0  0  0  0  0  0  0  0  0  0  0
    7.1507    0.9170   20.4724 N   0  0  0  0  0  0  0  0  0  0  0  0
    6.3194    0.0661   19.7136 C   0  0  0  0  0  0  0  0  0  0  0  0
    5.7161    0.4170   18.5062 C   0  0  0  0  0  0  0  0  0  0  0  0
    4.9923   -0.5837   18.0214 N   0  0  0  0  0  0  0  0  0  0  0  0
    5.1334   -1.5772   18.9215 N   0  0  0  0  0  0  0  0  0  0  0  0
    5.9189   -1.2226   19.9435 C   0  0  0  0  0  0  0  0  0  0  0  0
    9.0297    1.6878   21.5711 N   0  0  0  0  0  0  0  0  0  0  0  0
   10.3273    1.8332   22.1228 C   0  0  0  0  0  0  0  0  0  0  0  0
   10.9183    3.0685   22.3716 C   0  0  0  0  0  0  0  0  0  0  0  0
   12.1917    3.1259   22.9115 C   0  0  0  0  0  0  0  0  0  0  0  0
   12.8868    1.9657   23.2053 C   0  0  0  0  0  0  0  0  0  0  0  0
   12.3221    0.7164   22.9691 C   0  0  0  0  0  0  0  0  0  0  0  0
   11.0363    0.6760   22.4277 C   0  0  0  0  0  0  0  0  0  0  0  0
   13.0639   -0.5349   23.2838 C   0  0  0  0  0  0  0  0  0  0  0  0
   13.7054   -0.7125   24.5056 C   0  0  0  0  0  0  0  0  0  0  0  0
   14.3892   -1.8860   24.7706 C   0  0  0  0  0  0  0  0  0  0  0  0
   14.4127   -2.8644   23.8047 C   0  0  0  0  0  0  0  0  0  0  0  0
   13.8083   -2.7339   22.6239 N   0  0  0  0  0  0  0  0  0  0  0  0
   13.1594   -1.5906   22.3837 C   0  0  0  0  0  0  0  0  0  0  0  0
  1  2  2  0
  2  3  1  0
  3  4  1  0
  4  5  1  0
  5  6  2  0
  6  7  1  0
  7  8  1  0
  2  9  1  0
  9 10  1  0
 10 11  2  0
 11 12  1  0
 12 13  2  0
 13 14  1  0
 14 15  2  0
 14 16  1  0
 16 17  2  0
 17 18  1  0
 18 19  2  0
 19 20  1  0
 20 21  2  0
  8  4  2  0
 15 10  1  0
 21 16  1  0
M  END
