CVD-0002100|dock_bobby27042020.35|mol2|37|dock3
     RDKit          3D

 23 25  0  0  0  0  0  0  0  0999 V2000
   10.1960   -1.8603   21.3355 N   0  0  0  0  0  0  0  0  0  0  0  0
    9.5202   -0.6532   21.8624 C   0  0  0  0  0  0  0  0  0  0  0  0
    8.0938   -0.4823   21.3526 C   0  0  0  0  0  0  0  0  0  0  0  0
    8.1552    0.3856   20.2273 O   0  0  0  0  0  0  0  0  0  0  0  0
    6.9111    0.4713   19.5016 C   0  0  0  0  0  0  0  0  0  0  0  0
    6.7250   -0.8985   18.7953 C   0  0  0  0  0  0  0  0  0  0  0  0
    6.6864   -1.9700   19.8697 C   0  0  0  0  0  0  0  0  0  0  0  0
    5.9973   -3.1775   19.6793 C   0  0  0  0  0  0  0  0  0  0  0  0
    5.3481   -3.4600   18.5080 O   0  0  0  0  0  0  0  0  0  0  0  0
    6.0818   -4.1965   20.6268 C   0  0  0  0  0  0  0  0  0  0  0  0
    5.4745   -5.3847   20.3725 O   0  0  0  0  0  0  0  0  0  0  0  0
    6.8472   -4.0328   21.7715 C   0  0  0  0  0  0  0  0  0  0  0  0
    7.5280   -2.8464   21.9652 C   0  0  0  0  0  0  0  0  0  0  0  0
    7.4583   -1.8126   21.0308 C   0  0  0  0  0  0  0  0  0  0  0  0
    5.8020    0.8238   20.4985 C   0  0  0  0  0  0  0  0  0  0  0  0
    4.4811    0.7935   19.7322 C   0  0  0  0  0  0  0  0  0  0  0  0
    4.6057    1.6806   18.6184 O   0  0  0  0  0  0  0  0  0  0  0  0
    3.3193    1.1936   20.6241 C   0  0  0  0  0  0  0  0  0  0  0  0
    3.5469    2.5593   21.2635 C   0  0  0  0  0  0  0  0  0  0  0  0
    4.8370    2.5654   22.0696 C   0  0  0  0  0  0  0  0  0  0  0  0
    5.0542    3.8400   22.6764 O   0  0  0  0  0  0  0  0  0  0  0  0
    6.0233    2.1645   21.1866 C   0  0  0  0  0  0  0  0  0  0  0  0
    7.1901    2.1169   22.0026 O   0  0  0  0  0  0  0  0  0  0  0  0
  1  2  1  0
  2  3  1  0
  3  4  1  0
  4  5  1  0
  5  6  1  0
  6  7  1  0
  7  8  2  0
  8  9  1  0
  8 10  1  0
 10 11  1  0
 10 12  2  0
 12 13  1  0
 13 14  2  0
  5 15  1  0
 15 16  1  0
 16 17  1  0
 16 18  1  0
 18 19  1  0
 19 20  1  0
 20 21  1  0
 20 22  1  0
 22 23  1  0
 14  3  1  0
 22 15  1  0
 14  7  1  0
M  END
