CVD-0001584|dock_bobby27042020.94|mol2|43|dock3
     RDKit          3D

 27 29  0  0  0  0  0  0  0  0999 V2000
   12.2752    6.8540   25.7084 C   0  0  0  0  0  0  0  0  0  0  0  0
   12.8155    6.6155   24.3290 C   0  0  0  0  0  0  0  0  0  0  0  0
   13.3706    7.5017   23.6870 O   0  0  0  0  0  0  0  0  0  0  0  0
   12.6426    5.3883   23.8343 N   0  0  0  0  0  0  0  0  0  0  0  0
   13.0953    5.0070   22.5042 C   0  0  0  0  0  0  0  0  0  0  0  0
   13.3723    3.5201   22.4059 C   0  0  0  0  0  0  0  0  0  0  0  0
   12.1313    2.6838   22.5165 C   0  0  0  0  0  0  0  0  0  0  0  0
   10.8373    3.1161   22.5116 C   0  0  0  0  0  0  0  0  0  0  0  0
    9.9779    2.0577   22.6325 N   0  0  0  0  0  0  0  0  0  0  0  0
   10.7176    0.9040   22.7190 C   0  0  0  0  0  0  0  0  0  0  0  0
   10.2929   -0.4209   22.8533 C   0  0  0  0  0  0  0  0  0  0  0  0
    8.8261   -0.7745   22.9221 C   0  0  0  0  0  0  0  0  0  0  0  0
    7.9809    0.1647   22.1720 N   0  0  0  0  0  0  0  0  0  0  0  0
    6.5635   -0.0927   22.4426 C   0  0  0  0  0  0  0  0  0  0  0  0
    5.6969    0.9059   21.6980 C   0  0  0  0  0  0  0  0  0  0  0  0
    5.9578    0.8364   20.2587 N   0  0  0  0  0  0  0  0  0  0  0  0
    7.3799    1.0304   19.9589 C   0  0  0  0  0  0  0  0  0  0  0  0
    8.2230    0.0368   20.7372 C   0  0  0  0  0  0  0  0  0  0  0  0
    4.9777    0.6445   19.3425 C   0  0  0  0  0  0  0  0  0  0  0  0
    5.3708    0.5789   17.8959 C   0  0  0  0  0  0  0  0  0  0  0  0
    3.8096    0.5189   19.6922 O   0  0  0  0  0  0  0  0  0  0  0  0
   11.2673   -1.4115   22.9167 C   0  0  0  0  0  0  0  0  0  0  0  0
   12.6232   -1.0877   22.8501 C   0  0  0  0  0  0  0  0  0  0  0  0
   13.0297    0.2403   22.7173 C   0  0  0  0  0  0  0  0  0  0  0  0
   12.0773    1.2559   22.6496 C   0  0  0  0  0  0  0  0  0  0  0  0
   13.6125   -2.1347   22.9191 C   0  0  0  0  0  0  0  0  0  0  0  0
   14.4021   -2.9557   23.0054 N   0  0  0  0  0  0  0  0  0  0  0  0
  1  2  1  0
  2  3  2  0
  2  4  1  0
  4  5  1  0
  5  6  1  0
  6  7  1  0
  7  8  2  0
  8  9  1  0
  9 10  1  0
 10 11  2  0
 11 12  1  0
 12 13  1  0
 13 14  1  0
 14 15  1  0
 15 16  1  0
 16 17  1  0
 17 18  1  0
 16 19  1  0
 19 20  1  0
 19 21  2  0
 11 22  1  0
 22 23  2  0
 23 24  1  0
 24 25  2  0
 23 26  1  0
 26 27  3  0
 25  7  1  0
 25 10  1  0
 18 13  1  0
M  END
