CVD-0001051|dock_bobby27042020.96|mol2|32|dock3
     RDKit          3D

 19 22  0  0  0  0  0  0  0  0999 V2000
   12.0046   -0.6329   21.8469 O   0  0  0  0  0  0  0  0  0  0  0  0
   13.3815   -0.8416   22.2695 C   0  0  0  0  0  0  0  0  0  0  0  0
   13.6541    0.0296   23.3434 C   0  0  0  0  0  0  0  0  0  0  0  0
   13.8956   -0.5072   24.5619 C   0  0  0  0  0  0  0  0  0  0  0  0
   14.2393   -1.8208   24.6807 C   0  0  0  0  0  0  0  0  0  0  0  0
   14.1253   -2.6918   23.6662 C   0  0  0  0  0  0  0  0  0  0  0  0
   13.4797   -2.2574   22.4938 C   0  0  0  0  0  0  0  0  0  0  0  0
   12.1131   -2.7797   22.3211 N   0  0  0  0  0  0  0  0  0  0  0  0
   11.4411   -1.8705   21.7388 C   0  0  0  0  0  0  0  0  0  0  0  0
    9.9883   -1.8861   21.4865 C   0  0  0  0  0  0  0  0  0  0  0  0
    9.1232   -2.5718   22.3298 C   0  0  0  0  0  0  0  0  0  0  0  0
    7.8239   -2.6145   22.1464 N   0  0  0  0  0  0  0  0  0  0  0  0
    7.3381   -1.9377   21.0603 C   0  0  0  0  0  0  0  0  0  0  0  0
    5.9506   -1.9322   20.7895 C   0  0  0  0  0  0  0  0  0  0  0  0
    5.4713   -1.2563   19.7060 C   0  0  0  0  0  0  0  0  0  0  0  0
    6.3219   -0.5713   18.8610 C   0  0  0  0  0  0  0  0  0  0  0  0
    7.6676   -0.5496   19.0841 C   0  0  0  0  0  0  0  0  0  0  0  0
    8.2100   -1.2358   20.1947 C   0  0  0  0  0  0  0  0  0  0  0  0
    9.5589   -1.2195   20.4262 N   0  0  0  0  0  0  0  0  0  0  0  0
  1  2  1  0
  2  3  1  0
  3  4  2  0
  4  5  1  0
  5  6  2  0
  6  7  1  0
  7  8  1  0
  8  9  2  0
  9 10  1  0
 10 11  2  0
 11 12  1  0
 12 13  2  0
 13 14  1  0
 14 15  2  0
 15 16  1  0
 16 17  2  0
 17 18  1  0
 18 19  2  0
  9  1  1  0
 19 10  1  0
  7  2  1  0
 18 13  1  0
M  END
