CVD-0000370|dock_bobby27042020.70|mol2|23|dock2
     RDKit          3D

 24 26  0  0  0  0  0  0  0  0999 V2000
    9.2320   -5.3420   27.2515 C   0  0  0  0  0  0  0  0  0  0  0  0
    8.2883   -5.4444   26.0895 C   0  0  0  0  0  0  0  0  0  0  0  0
    7.7074   -6.4921   25.8300 O   0  0  0  0  0  0  0  0  0  0  0  0
    8.0860   -4.3358   25.3364 N   0  0  0  0  0  0  0  0  0  0  0  0
    8.7548   -3.0608   25.6046 C   0  0  0  0  0  0  0  0  0  0  0  0
    9.4704   -2.5658   24.3614 C   0  0  0  0  0  0  0  0  0  0  0  0
    8.5206   -2.4166   23.2548 N   0  0  0  0  0  0  0  0  0  0  0  0
    9.2012   -1.8997   22.0596 C   0  0  0  0  0  0  0  0  0  0  0  0
    9.7458   -0.5043   22.2485 C   0  0  0  0  0  0  0  0  0  0  0  0
    8.9541    0.6074   22.0213 C   0  0  0  0  0  0  0  0  0  0  0  0
    9.4532    1.8875   22.1830 C   0  0  0  0  0  0  0  0  0  0  0  0
   10.7749    2.1028   22.5826 C   0  0  0  0  0  0  0  0  0  0  0  0
   11.5578    0.9696   22.8293 C   0  0  0  0  0  0  0  0  0  0  0  0
   13.2009    1.0782   23.3750 Cl  0  0  0  0  0  0  0  0  0  0  0  0
   11.0567   -0.3068   22.6554 C   0  0  0  0  0  0  0  0  0  0  0  0
   11.2193    3.5205   22.7086 C   0  0  0  0  0  0  0  0  0  0  0  0
   12.4346    3.9446   22.1801 C   0  0  0  0  0  0  0  0  0  0  0  0
   12.7918    5.2734   22.3353 C   0  0  0  0  0  0  0  0  0  0  0  0
   14.0822    5.8063   21.7899 C   0  0  0  0  0  0  0  0  0  0  0  0
   11.9933    6.1352   22.9748 N   0  0  0  0  0  0  0  0  0  0  0  0
   10.8535    5.6300   23.4456 C   0  0  0  0  0  0  0  0  0  0  0  0
   10.4103    4.3758   23.3570 N   0  0  0  0  0  0  0  0  0  0  0  0
    7.9083   -3.7127   22.9743 C   0  0  0  0  0  0  0  0  0  0  0  0
    7.1719   -4.2349   24.1945 C   0  0  0  0  0  0  0  0  0  0  0  0
  1  2  1  0
  2  3  2  0
  2  4  1  0
  4  5  1  0
  5  6  1  0
  6  7  1  0
  7  8  1  0
  8  9  1  0
  9 10  2  0
 10 11  1  0
 11 12  2  0
 12 13  1  0
 13 14  1  0
 13 15  2  0
 12 16  1  0
 16 17  2  0
 17 18  1  0
 18 19  1  0
 18 20  2  0
 20 21  1  0
 21 22  2  0
  7 23  1  0
 23 24  1  0
 24  4  1  0
 15  9  1  0
 22 16  1  0
M  END
