CVD-0003421|dock_bobby27042020.88|mol2|7|dock2
     RDKit          3D

 19 20  0  0  0  0  0  0  0  0999 V2000
    3.7398    2.4533   19.5865 C   0  0  0  0  0  0  0  0  0  0  0  0
    5.0248    2.1201   20.1623 N   0  0  0  0  0  0  0  0  0  0  0  0
    5.8871    1.1985   19.6265 C   0  0  0  0  0  0  0  0  0  0  0  0
    5.8787    0.8898   18.2724 C   0  0  0  0  0  0  0  0  0  0  0  0
    6.7046    0.0003   17.7164 N   0  0  0  0  0  0  0  0  0  0  0  0
    7.5681   -0.6128   18.5049 C   0  0  0  0  0  0  0  0  0  0  0  0
    8.5902   -1.7466   17.6779 Cl  0  0  0  0  0  0  0  0  0  0  0  0
    7.6895   -0.4040   19.8881 C   0  0  0  0  0  0  0  0  0  0  0  0
    8.6562   -1.1204   20.6467 N   0  0  0  0  0  0  0  0  0  0  0  0
    8.6518   -1.4904   21.9511 C   0  0  0  0  0  0  0  0  0  0  0  0
    7.7544   -1.2582   22.7537 O   0  0  0  0  0  0  0  0  0  0  0  0
    9.9020   -2.2483   22.3475 C   0  0  0  0  0  0  0  0  0  0  0  0
   11.1649   -1.3998   22.5443 C   0  0  0  0  0  0  0  0  0  0  0  0
   12.4375   -2.2676   22.4635 C   0  0  0  0  0  0  0  0  0  0  0  0
   13.7091   -1.4635   22.7279 C   0  0  0  0  0  0  0  0  0  0  0  0
   13.6289   -0.7192   24.0545 C   0  0  0  0  0  0  0  0  0  0  0  0
   12.3881    0.1601   24.1168 C   0  0  0  0  0  0  0  0  0  0  0  0
   11.1205   -0.6575   23.8910 C   0  0  0  0  0  0  0  0  0  0  0  0
    6.8085    0.5344   20.4280 C   0  0  0  0  0  0  0  0  0  0  0  0
  1  2  1  0
  2  3  1  0
  3  4  2  0
  4  5  1  0
  5  6  2  0
  6  7  1  0
  6  8  1  0
  8  9  1  0
  9 10  1  0
 10 11  2  0
 10 12  1  0
 12 13  1  0
 13 14  1  0
 14 15  1  0
 15 16  1  0
 16 17  1  0
 17 18  1  0
  8 19  2  0
 19  3  1  0
 18 13  1  0
M  END
