CVD-0001153|dock_bobby27042020.68|mol2|3|dock1
     RDKit          3D

 29 31  0  0  0  0  0  0  0  0999 V2000
   11.4245   -3.3303   23.0809 O   0  0  0  0  0  0  0  0  0  0  0  0
   11.5619   -1.9129   23.1106 C   0  0  0  0  0  0  0  0  0  0  0  0
   12.9518   -1.4338   22.7135 C   0  0  0  0  0  0  0  0  0  0  0  0
   13.3402   -2.2113   21.5850 O   0  0  0  0  0  0  0  0  0  0  0  0
   12.6713    0.0094   22.2963 C   0  0  0  0  0  0  0  0  0  0  0  0
   12.7990    0.9912   23.4574 C   0  0  0  0  0  0  0  0  0  0  0  0
   12.4549    2.4205   23.0992 C   0  0  0  0  0  0  0  0  0  0  0  0
   11.2937    2.7927   22.9612 O   0  0  0  0  0  0  0  0  0  0  0  0
   13.4936    3.2368   22.9438 N   0  0  0  0  0  0  0  0  0  0  0  0
   13.3344    4.6412   22.5965 C   0  0  0  0  0  0  0  0  0  0  0  0
   12.3340    5.3618   23.4675 C   0  0  0  0  0  0  0  0  0  0  0  0
   11.1378    5.8241   22.9410 C   0  0  0  0  0  0  0  0  0  0  0  0
   10.2137    6.4825   23.7326 C   0  0  0  0  0  0  0  0  0  0  0  0
   10.5084    6.6675   25.0557 C   0  0  0  0  0  0  0  0  0  0  0  0
    9.6056    7.3144   25.8412 F   0  0  0  0  0  0  0  0  0  0  0  0
   11.6744    6.2283   25.6207 C   0  0  0  0  0  0  0  0  0  0  0  0
   12.5870    5.5718   24.8143 C   0  0  0  0  0  0  0  0  0  0  0  0
   11.3333    0.0250   21.7917 O   0  0  0  0  0  0  0  0  0  0  0  0
   10.6598   -1.2104   22.1000 C   0  0  0  0  0  0  0  0  0  0  0  0
    9.2492   -0.9076   22.5689 C   0  0  0  0  0  0  0  0  0  0  0  0
    8.4764   -0.0084   21.7098 N   0  0  0  0  0  0  0  0  0  0  0  0
    8.0121   -0.6651   20.4883 C   0  0  0  0  0  0  0  0  0  0  0  0
    6.9779    0.1454   19.7452 C   0  0  0  0  0  0  0  0  0  0  0  0
    7.2113    0.5742   18.4479 C   0  0  0  0  0  0  0  0  0  0  0  0
    6.2614    1.3151   17.7647 C   0  0  0  0  0  0  0  0  0  0  0  0
    5.0594    1.6379   18.3715 C   0  0  0  0  0  0  0  0  0  0  0  0
    4.8316    1.2083   19.6603 C   0  0  0  0  0  0  0  0  0  0  0  0
    3.3248    1.6053   20.4377 Cl  0  0  0  0  0  0  0  0  0  0  0  0
    5.7707    0.4697   20.3506 C   0  0  0  0  0  0  0  0  0  0  0  0
  2  1  1  0
  2  3  1  0
  3  4  1  0
  3  5  1  0
  5  6  1  0
  6  7  1  0
  7  8  2  0
  7  9  1  0
  9 10  1  0
 10 11  1  0
 11 12  2  0
 12 13  1  0
 13 14  2  0
 14 15  1  0
 14 16  1  0
 16 17  2  0
  5 18  1  0
 18 19  1  0
 19 20  1  0
 20 21  1  0
 21 22  1  0
 22 23  1  0
 23 24  2  0
 24 25  1  0
 25 26  2  0
 26 27  1  0
 27 28  1  0
 27 29  2  0
 19  2  1  0
 29 23  1  0
 17 11  1  0
M  END
