CVD-0001954|dock_bobby27042020.22|mol2|13|dock2
     RDKit          3D

 28 31  0  0  0  0  0  0  0  0999 V2000
   14.0587    6.3389   22.0688 C   0  0  0  0  0  0  0  0  0  0  0  0
   13.7248    4.9542   22.4124 N   0  0  0  0  0  0  0  0  0  0  0  0
   12.3125    4.6055   22.2237 C   0  0  0  0  0  0  0  0  0  0  0  0
   12.0425    3.1660   22.5748 C   0  0  0  0  0  0  0  0  0  0  0  0
   13.0136    2.1739   22.7880 C   0  0  0  0  0  0  0  0  0  0  0  0
   12.3778    0.9807   23.0730 C   0  0  0  0  0  0  0  0  0  0  0  0
   13.0558   -0.3067   23.3664 C   0  0  0  0  0  0  0  0  0  0  0  0
   13.0510   -1.2491   22.3362 C   0  0  0  0  0  0  0  0  0  0  0  0
   13.7071   -2.4610   22.4696 C   0  0  0  0  0  0  0  0  0  0  0  0
   14.3778   -2.7639   23.6327 C   0  0  0  0  0  0  0  0  0  0  0  0
   14.3671   -1.8701   24.6878 C   0  0  0  0  0  0  0  0  0  0  0  0
   13.6845   -0.6845   24.5486 C   0  0  0  0  0  0  0  0  0  0  0  0
   13.6379    0.1015   25.6467 F   0  0  0  0  0  0  0  0  0  0  0  0
   11.0112    1.2202   23.0472 N   0  0  0  0  0  0  0  0  0  0  0  0
    9.8725    0.3475   23.3167 C   0  0  0  0  0  0  0  0  0  0  0  0
    8.8113    0.3359   22.2407 C   0  0  0  0  0  0  0  0  0  0  0  0
    7.7913    1.2367   22.3131 C   0  0  0  0  0  0  0  0  0  0  0  0
    6.7820    1.3279   21.4019 N   0  0  0  0  0  0  0  0  0  0  0  0
    6.8078    0.4596   20.3581 C   0  0  0  0  0  0  0  0  0  0  0  0
    5.9594    0.2843   19.2818 C   0  0  0  0  0  0  0  0  0  0  0  0
    6.5284   -0.7740   18.5541 C   0  0  0  0  0  0  0  0  0  0  0  0
    7.6395   -1.2414   19.1042 N   0  0  0  0  0  0  0  0  0  0  0  0
    7.8011   -0.4652   20.2255 N   0  0  0  0  0  0  0  0  0  0  0  0
    8.8584   -0.6004   21.1314 C   0  0  0  0  0  0  0  0  0  0  0  0
    9.7208   -1.4534   20.9545 O   0  0  0  0  0  0  0  0  0  0  0  0
    4.7702    1.0222   18.9856 C   0  0  0  0  0  0  0  0  0  0  0  0
    3.8274    1.6373   18.7799 N   0  0  0  0  0  0  0  0  0  0  0  0
   10.8188    2.5374   22.7470 C   0  0  0  0  0  0  0  0  0  0  0  0
  1  2  1  0
  2  3  1  0
  3  4  1  0
  4  5  1  0
  5  6  2  0
  6  7  1  0
  7  8  2  0
  8  9  1  0
  9 10  2  0
 10 11  1  0
 11 12  2  0
 12 13  1  0
  6 14  1  0
 14 15  1  0
 15 16  1  0
 16 17  2  0
 17 18  1  0
 18 19  1  0
 19 20  2  0
 20 21  1  0
 21 22  2  0
 22 23  1  0
 23 24  1  0
 24 25  2  0
 20 26  1  0
 26 27  3  0
 14 28  1  0
 28  4  2  0
 12  7  1  0
 24 16  1  0
 23 19  1  0
M  END
