CVD-0002587|dock_bobby27042020.48|mol2|8|dock2
     RDKit          3D

 37 40  0  0  0  0  0  0  0  0999 V2000
   13.7042   -1.5765   21.2960 C   0  0  0  0  0  0  0  0  0  0  0  0
   12.2771   -1.2546   21.2147 N   0  0  0  0  0  0  0  0  0  0  0  0
   11.4736   -1.7718   22.3275 C   0  0  0  0  0  0  0  0  0  0  0  0
   10.0068   -1.8039   21.9879 C   0  0  0  0  0  0  0  0  0  0  0  0
    9.3118   -0.7973   21.2930 C   0  0  0  0  0  0  0  0  0  0  0  0
    7.9805   -1.1474   21.1558 C   0  0  0  0  0  0  0  0  0  0  0  0
    6.8950   -0.3862   20.4832 C   0  0  0  0  0  0  0  0  0  0  0  0
    6.6526   -0.6265   19.1270 C   0  0  0  0  0  0  0  0  0  0  0  0
    5.6629    0.0574   18.4424 C   0  0  0  0  0  0  0  0  0  0  0  0
    4.9121    1.0134   19.0854 C   0  0  0  0  0  0  0  0  0  0  0  0
    5.1401    1.2735   20.4234 C   0  0  0  0  0  0  0  0  0  0  0  0
    6.1065    0.5769   21.1462 C   0  0  0  0  0  0  0  0  0  0  0  0
    6.2471    0.8900   22.6146 C   0  0  0  0  0  0  0  0  0  0  0  0
    7.4921    1.6005   22.8599 O   0  0  0  0  0  0  0  0  0  0  0  0
    7.6001    2.8455   22.3877 C   0  0  0  0  0  0  0  0  0  0  0  0
    6.7009    3.4573   21.8349 O   0  0  0  0  0  0  0  0  0  0  0  0
    8.9573    3.4342   22.6088 C   0  0  0  0  0  0  0  0  0  0  0  0
    9.1381    4.8115   22.5476 C   0  0  0  0  0  0  0  0  0  0  0  0
   10.3850    5.3754   22.7498 C   0  0  0  0  0  0  0  0  0  0  0  0
   11.4679    4.5545   23.0183 C   0  0  0  0  0  0  0  0  0  0  0  0
   11.3102    3.1798   23.0817 C   0  0  0  0  0  0  0  0  0  0  0  0
   10.0582    2.6271   22.8778 C   0  0  0  0  0  0  0  0  0  0  0  0
   13.0655    5.2660   23.2717 S   0  0  0  0  0  0  0  0  0  0  0  0
   13.6703    5.6753   21.8470 N   0  0  0  0  0  0  0  0  0  0  0  0
   12.8818    6.4752   24.0169 O   0  0  0  0  0  0  0  0  0  0  0  0
   13.9089    4.2422   23.8115 O   0  0  0  0  0  0  0  0  0  0  0  0
    7.8478   -2.4072   21.7990 N   0  0  0  0  0  0  0  0  0  0  0  0
    9.0859   -2.7946   22.2961 C   0  0  0  0  0  0  0  0  0  0  0  0
    6.4918   -3.4010   22.0200 S   0  0  0  0  0  0  0  0  0  0  0  0
    6.5789   -4.4336   21.0346 O   0  0  0  0  0  0  0  0  0  0  0  0
    5.3542   -2.5365   22.0791 O   0  0  0  0  0  0  0  0  0  0  0  0
    6.7129   -4.1289   23.6066 C   0  0  0  0  0  0  0  0  0  0  0  0
    6.0834   -3.5926   24.7168 C   0  0  0  0  0  0  0  0  0  0  0  0
    6.2810   -4.2000   25.9447 C   0  0  0  0  0  0  0  0  0  0  0  0
    7.0922   -5.3101   26.0118 C   0  0  0  0  0  0  0  0  0  0  0  0
    7.7033   -5.8384   24.9505 N   0  0  0  0  0  0  0  0  0  0  0  0
    7.5081   -5.2474   23.7681 C   0  0  0  0  0  0  0  0  0  0  0  0
  1  2  1  0
  2  3  1  0
  3  4  1  0
  4  5  1  0
  5  6  2  0
  6  7  1  0
  7  8  2  0
  8  9  1  0
  9 10  2  0
 10 11  1  0
 11 12  2  0
 12 13  1  0
 13 14  1  0
 14 15  1  0
 15 16  2  0
 15 17  1  0
 17 18  2  0
 18 19  1  0
 19 20  2  0
 20 21  1  0
 21 22  2  0
 20 23  1  0
 23 24  1  0
 23 25  2  0
 23 26  2  0
  6 27  1  0
 27 28  1  0
 27 29  1  0
 29 30  2  0
 29 31  2  0
 29 32  1  0
 32 33  2  0
 33 34  1  0
 34 35  2  0
 35 36  1  0
 36 37  2  0
 28  4  2  0
 37 32  1  0
 12  7  1  0
 22 17  1  0
M  END
