CVD-0001334|dock_bobby27042020.53|mol2|6|dock1
     RDKit          3D

 23 24  0  0  0  0  0  0  0  0999 V2000
    1.9957    3.6910   18.9952 C   0  0  0  0  0  0  0  0  0  0  0  0
    3.2937    3.0342   19.3632 C   0  0  0  0  0  0  0  0  0  0  0  0
    3.7312    3.0577   20.5094 O   0  0  0  0  0  0  0  0  0  0  0  0
    3.9365    2.4089   18.3751 N   0  0  0  0  0  0  0  0  0  0  0  0
    5.1978    1.7104   18.5776 C   0  0  0  0  0  0  0  0  0  0  0  0
    4.9947    0.3504   19.2151 C   0  0  0  0  0  0  0  0  0  0  0  0
    6.2597   -0.2278   19.7786 C   0  0  0  0  0  0  0  0  0  0  0  0
    7.3670   -0.6297   19.0895 C   0  0  0  0  0  0  0  0  0  0  0  0
    8.3211   -1.1043   19.9489 N   0  0  0  0  0  0  0  0  0  0  0  0
    7.8343   -1.0142   21.2295 C   0  0  0  0  0  0  0  0  0  0  0  0
    8.4245   -1.3690   22.4451 C   0  0  0  0  0  0  0  0  0  0  0  0
    9.8174   -1.9544   22.5148 C   0  0  0  0  0  0  0  0  0  0  0  0
   10.8987   -0.9157   22.2772 C   0  0  0  0  0  0  0  0  0  0  0  0
   12.0431   -1.5105   21.5763 N   0  0  0  0  0  0  0  0  0  0  0  0
   13.3169   -2.0050   22.4149 S   0  0  0  0  0  0  0  0  0  0  0  0
   14.0363   -0.5970   23.1678 C   0  0  0  0  0  0  0  0  0  0  0  0
   12.8293   -2.8620   23.4512 O   0  0  0  0  0  0  0  0  0  0  0  0
   14.2566   -2.5352   21.4760 O   0  0  0  0  0  0  0  0  0  0  0  0
    7.6889   -1.1623   23.6074 C   0  0  0  0  0  0  0  0  0  0  0  0
    6.4083   -0.6235   23.5841 C   0  0  0  0  0  0  0  0  0  0  0  0
    5.6381   -0.4177   24.8657 C   0  0  0  0  0  0  0  0  0  0  0  0
    5.8476   -0.2829   22.3599 C   0  0  0  0  0  0  0  0  0  0  0  0
    6.5414   -0.4678   21.1651 C   0  0  0  0  0  0  0  0  0  0  0  0
  1  2  1  0
  2  3  2  0
  2  4  1  0
  4  5  1  0
  5  6  1  0
  6  7  1  0
  7  8  2  0
  8  9  1  0
  9 10  1  0
 10 11  2  0
 11 12  1  0
 12 13  1  0
 13 14  1  0
 14 15  1  0
 15 16  1  0
 15 17  2  0
 15 18  2  0
 11 19  1  0
 19 20  2  0
 20 21  1  0
 20 22  1  0
 22 23  2  0
 23  7  1  0
 23 10  1  0
M  END
