CVD-0000591|dock_bobby27042020.83|mol2|49|dock2
     RDKit          3D

 26 28  0  0  0  0  0  0  0  0999 V2000
   14.0330   -3.2478   25.4096 N   0  0  0  0  0  0  0  0  0  0  0  0
   13.9856   -1.6819   25.0798 S   0  0  0  0  0  0  0  0  0  0  0  0
   15.1100   -1.3915   24.2416 O   0  0  0  0  0  0  0  0  0  0  0  0
   13.8555   -0.9900   26.3270 O   0  0  0  0  0  0  0  0  0  0  0  0
   12.5267   -1.3518   24.1385 C   0  0  0  0  0  0  0  0  0  0  0  0
   11.4127   -0.8142   24.7612 C   0  0  0  0  0  0  0  0  0  0  0  0
   10.2736   -0.5629   24.0173 C   0  0  0  0  0  0  0  0  0  0  0  0
   10.2207   -0.8382   22.6544 C   0  0  0  0  0  0  0  0  0  0  0  0
   11.3535   -1.3823   22.0562 C   0  0  0  0  0  0  0  0  0  0  0  0
   12.5013   -1.6401   22.7843 C   0  0  0  0  0  0  0  0  0  0  0  0
    8.9793   -0.5640   21.8717 C   0  0  0  0  0  0  0  0  0  0  0  0
    8.2975   -1.6900   21.4024 C   0  0  0  0  0  0  0  0  0  0  0  0
    7.1987   -1.5710   20.5705 C   0  0  0  0  0  0  0  0  0  0  0  0
    6.7701   -0.3196   20.1945 C   0  0  0  0  0  0  0  0  0  0  0  0
    5.4259   -0.1662   19.0982 Cl  0  0  0  0  0  0  0  0  0  0  0  0
    7.3846    0.8164   20.6739 C   0  0  0  0  0  0  0  0  0  0  0  0
    8.4585    0.7117   21.5578 C   0  0  0  0  0  0  0  0  0  0  0  0
    8.9449    2.0325   22.0881 C   0  0  0  0  0  0  0  0  0  0  0  0
    8.1040    2.8548   22.4360 O   0  0  0  0  0  0  0  0  0  0  0  0
   10.2875    2.2302   22.1743 N   0  0  0  0  0  0  0  0  0  0  0  0
   11.0362    3.3827   22.5249 C   0  0  0  0  0  0  0  0  0  0  0  0
   12.4227    3.2948   22.5291 C   0  0  0  0  0  0  0  0  0  0  0  0
   13.1809    4.4007   22.8703 C   0  0  0  0  0  0  0  0  0  0  0  0
   12.5316    5.5674   23.1993 C   0  0  0  0  0  0  0  0  0  0  0  0
   11.2042    5.6861   23.2037 N   0  0  0  0  0  0  0  0  0  0  0  0
   10.4800    4.6136   22.8689 C   0  0  0  0  0  0  0  0  0  0  0  0
  1  2  1  0
  2  3  2  0
  2  4  2  0
  2  5  1  0
  5  6  2  0
  6  7  1  0
  7  8  2  0
  8  9  1  0
  9 10  2  0
  8 11  1  0
 11 12  2  0
 12 13  1  0
 13 14  2  0
 14 15  1  0
 14 16  1  0
 16 17  2  0
 17 18  1  0
 18 19  2  0
 18 20  1  0
 20 21  1  0
 21 22  2  0
 22 23  1  0
 23 24  2  0
 24 25  1  0
 25 26  2  0
 10  5  1  0
 17 11  1  0
 26 21  1  0
M  END
