CVD-0000447|dock_bobby27042020.27|mol2|12|dock1
     RDKit          3D

 30 34  0  0  0  0  0  0  0  0999 V2000
    9.5884   -1.4055   20.8457 C   0  0  0  0  0  0  0  0  0  0  0  0
    8.7805   -0.1908   20.9867 N   0  0  0  0  0  0  0  0  0  0  0  0
    7.4841   -0.2749   20.4177 C   0  0  0  0  0  0  0  0  0  0  0  0
    6.9054   -1.4859   20.0226 C   0  0  0  0  0  0  0  0  0  0  0  0
    5.6661   -1.4965   19.4083 C   0  0  0  0  0  0  0  0  0  0  0  0
    4.9617   -0.3294   19.1874 C   0  0  0  0  0  0  0  0  0  0  0  0
    5.4731    0.8976   19.6046 C   0  0  0  0  0  0  0  0  0  0  0  0
    4.6094    2.0926   19.3210 C   0  0  0  0  0  0  0  0  0  0  0  0
    3.4587    1.9204   18.7178 O   0  0  0  0  0  0  0  0  0  0  0  0
    4.9738    3.2088   19.6485 O   0  0  0  0  0  0  0  0  0  0  0  0
    6.7314    0.9009   20.2449 C   0  0  0  0  0  0  0  0  0  0  0  0
    7.2403    2.0755   20.7244 N   0  0  0  0  0  0  0  0  0  0  0  0
    8.4101    2.0953   21.3200 C   0  0  0  0  0  0  0  0  0  0  0  0
    8.7624    3.3691   21.8034 C   0  0  0  0  0  0  0  0  0  0  0  0
    9.9679    3.5844   22.3426 C   0  0  0  0  0  0  0  0  0  0  0  0
   10.9355    2.5907   22.4485 C   0  0  0  0  0  0  0  0  0  0  0  0
   12.2646    2.9098   22.7886 C   0  0  0  0  0  0  0  0  0  0  0  0
   12.7626    4.3109   23.0005 C   0  0  0  0  0  0  0  0  0  0  0  0
   12.7467    4.9200   24.2538 C   0  0  0  0  0  0  0  0  0  0  0  0
   13.2039    6.2158   24.4263 C   0  0  0  0  0  0  0  0  0  0  0  0
   13.6843    6.9313   23.3518 C   0  0  0  0  0  0  0  0  0  0  0  0
   13.7062    6.3500   22.1032 C   0  0  0  0  0  0  0  0  0  0  0  0
   13.2495    5.0543   21.9282 C   0  0  0  0  0  0  0  0  0  0  0  0
   13.2310    1.8762   22.9570 C   0  0  0  0  0  0  0  0  0  0  0  0
   14.4365    2.0410   23.1408 O   0  0  0  0  0  0  0  0  0  0  0  0
   12.7413    0.5929   22.9350 N   0  0  0  0  0  0  0  0  0  0  0  0
   11.4465    0.2027   22.6659 C   0  0  0  0  0  0  0  0  0  0  0  0
   11.2246   -0.9818   22.9001 O   0  0  0  0  0  0  0  0  0  0  0  0
   10.5216    1.2178   22.1871 C   0  0  0  0  0  0  0  0  0  0  0  0
    9.2933    0.9858   21.5171 C   0  0  0  0  0  0  0  0  0  0  0  0
  1  2  1  0
  2  3  1  0
  3  4  2  0
  4  5  1  0
  5  6  2  0
  6  7  1  0
  7  8  1  0
  8  9  1  0
  8 10  2  0
  7 11  2  0
 11 12  1  0
 12 13  2  0
 13 14  1  0
 14 15  2  0
 15 16  1  0
 16 17  2  0
 17 18  1  0
 18 19  2  0
 19 20  1  0
 20 21  2  0
 21 22  1  0
 22 23  2  0
 17 24  1  0
 24 25  2  0
 24 26  1  0
 26 27  1  0
 27 28  2  0
 27 29  1  0
 29 30  2  0
 30  2  1  0
 11  3  1  0
 30 13  1  0
 29 16  1  0
 23 18  1  0
M  END
