CVD-0002282|dock_bobby27042020.20|mol2|34|dock3
     RDKit          3D

 40 43  0  0  0  0  0  0  0  0999 V2000
   10.3287   -5.1894   25.5604 C   0  0  0  0  0  0  0  0  0  0  0  0
   10.1108   -4.0208   24.7037 N   0  0  0  0  0  0  0  0  0  0  0  0
    8.8300   -3.3396   24.9202 C   0  0  0  0  0  0  0  0  0  0  0  0
    8.7123   -2.0948   24.0805 C   0  0  0  0  0  0  0  0  0  0  0  0
    9.1899   -0.9129   24.3800 C   0  0  0  0  0  0  0  0  0  0  0  0
    8.9590    0.0908   23.2701 C   0  0  0  0  0  0  0  0  0  0  0  0
    8.2389    1.3141   23.7300 N   0  0  0  0  0  0  0  0  0  0  0  0
    7.4856    1.3945   25.0195 C   0  0  0  0  0  0  0  0  0  0  0  0
    6.7462    0.0960   25.3087 C   0  0  0  0  0  0  0  0  0  0  0  0
    8.2026    1.9416   26.2410 C   0  0  0  0  0  0  0  0  0  0  0  0
    8.1466    2.3626   22.8418 C   0  0  0  0  0  0  0  0  0  0  0  0
    8.6206    2.2988   21.7242 O   0  0  0  0  0  0  0  0  0  0  0  0
    7.4619    3.7008   23.0910 C   0  0  0  0  0  0  0  0  0  0  0  0
    6.0150    3.6691   22.6142 C   0  0  0  0  0  0  0  0  0  0  0  0
    5.3536    5.0147   22.8301 C   0  0  0  0  0  0  0  0  0  0  0  0
    6.1047    6.0568   22.1352 N   0  0  0  0  0  0  0  0  0  0  0  0
    7.4845    6.1609   22.5976 C   0  0  0  0  0  0  0  0  0  0  0  0
    8.2062    4.8339   22.3882 C   0  0  0  0  0  0  0  0  0  0  0  0
    5.5743    7.0270   21.3637 C   0  0  0  0  0  0  0  0  0  0  0  0
    6.2700    7.8597   20.7960 O   0  0  0  0  0  0  0  0  0  0  0  0
    4.0641    7.0299   21.2303 C   0  0  0  0  0  0  0  0  0  0  0  0
    3.5032    8.4542   20.3452 Cl  0  0  0  0  0  0  0  0  0  0  0  0
    8.1430   -0.7817   22.2643 C   0  0  0  0  0  0  0  0  0  0  0  0
    8.0264   -1.9711   22.8341 C   0  0  0  0  0  0  0  0  0  0  0  0
    7.5096   -0.3117   20.9931 C   0  0  0  0  0  0  0  0  0  0  0  0
    8.0979   -0.6387   19.7680 C   0  0  0  0  0  0  0  0  0  0  0  0
    7.5532   -0.2067   18.5706 C   0  0  0  0  0  0  0  0  0  0  0  0
    6.4110    0.5600   18.5596 C   0  0  0  0  0  0  0  0  0  0  0  0
    5.7972    0.8956   19.7518 C   0  0  0  0  0  0  0  0  0  0  0  0
    6.3475    0.4525   20.9313 C   0  0  0  0  0  0  0  0  0  0  0  0
    5.6836    0.8014   22.0561 F   0  0  0  0  0  0  0  0  0  0  0  0
   10.5405    0.6031   22.4280 S   0  0  0  0  0  0  0  0  0  0  0  0
   10.1221    0.7139   21.0584 O   0  0  0  0  0  0  0  0  0  0  0  0
   11.5636   -0.3780   22.6456 O   0  0  0  0  0  0  0  0  0  0  0  0
   11.1493    2.2266   22.7893 C   0  0  0  0  0  0  0  0  0  0  0  0
   11.5521    3.0579   21.7570 C   0  0  0  0  0  0  0  0  0  0  0  0
   11.9973    4.3346   22.0530 C   0  0  0  0  0  0  0  0  0  0  0  0
   12.0395    4.7321   23.3688 C   0  0  0  0  0  0  0  0  0  0  0  0
   11.6872    3.9390   24.3798 N   0  0  0  0  0  0  0  0  0  0  0  0
   11.2743    2.7031   24.0832 C   0  0  0  0  0  0  0  0  0  0  0  0
  1  2  1  0
  2  3  1  0
  3  4  1  0
  4  5  2  0
  5  6  1  0
  6  7  1  0
  7  8  1  0
  8  9  1  0
  8 10  1  0
  7 11  1  0
 11 12  2  0
 11 13  1  0
 13 14  1  0
 14 15  1  0
 15 16  1  0
 16 17  1  0
 17 18  1  0
 16 19  1  0
 19 20  2  0
 19 21  1  0
 21 22  1  0
  6 23  1  0
 23 24  2  0
 23 25  1  0
 25 26  2  0
 26 27  1  0
 27 28  2  0
 28 29  1  0
 29 30  2  0
 30 31  1  0
  6 32  1  0
 32 33  2  0
 32 34  2  0
 32 35  1  0
 35 36  2  0
 36 37  1  0
 37 38  2  0
 38 39  1  0
 39 40  2  0
 24  4  1  0
 30 25  1  0
 40 35  1  0
 18 13  1  0
M  END
