CVD-0002314|dock_bobby27042020.49|mol2|17|dock2
     RDKit          3D

 29 31  0  0  0  0  0  0  0  0999 V2000
    6.7194   -5.2458   22.5206 C   0  0  0  0  0  0  0  0  0  0  0  0
    6.6881   -3.7564   22.3346 C   0  0  0  0  0  0  0  0  0  0  0  0
    5.7413   -3.2313   21.7594 O   0  0  0  0  0  0  0  0  0  0  0  0
    7.7062   -2.9956   22.8199 N   0  0  0  0  0  0  0  0  0  0  0  0
    8.8974   -3.4863   23.5199 C   0  0  0  0  0  0  0  0  0  0  0  0
   10.1418   -2.8379   22.9711 C   0  0  0  0  0  0  0  0  0  0  0  0
   10.0505   -1.3713   23.0593 N   0  0  0  0  0  0  0  0  0  0  0  0
    8.8916   -0.9475   22.2721 C   0  0  0  0  0  0  0  0  0  0  0  0
    7.6157   -1.5368   22.8244 C   0  0  0  0  0  0  0  0  0  0  0  0
   11.2446   -0.7501   22.5838 C   0  0  0  0  0  0  0  0  0  0  0  0
   11.1431    0.6727   22.7842 O   0  0  0  0  0  0  0  0  0  0  0  0
   12.2307    1.4317   22.5535 C   0  0  0  0  0  0  0  0  0  0  0  0
   13.3327    1.0021   22.2534 O   0  0  0  0  0  0  0  0  0  0  0  0
   11.9496    2.8939   22.6982 C   0  0  0  0  0  0  0  0  0  0  0  0
   12.9808    3.8268   22.7302 C   0  0  0  0  0  0  0  0  0  0  0  0
   12.6981    5.1756   22.8648 C   0  0  0  0  0  0  0  0  0  0  0  0
   11.3873    5.6103   22.9689 C   0  0  0  0  0  0  0  0  0  0  0  0
   10.3480    4.6875   22.9383 C   0  0  0  0  0  0  0  0  0  0  0  0
    8.9855    5.1086   23.0440 N   0  0  0  0  0  0  0  0  0  0  0  0
    8.5028    6.6560   23.2064 S   0  0  0  0  0  0  0  0  0  0  0  0
    6.7753    6.6228   23.4937 C   0  0  0  0  0  0  0  0  0  0  0  0
    9.1369    7.1683   24.3818 O   0  0  0  0  0  0  0  0  0  0  0  0
    8.7449    7.3138   21.9595 O   0  0  0  0  0  0  0  0  0  0  0  0
   10.6352    3.3340   22.8030 C   0  0  0  0  0  0  0  0  0  0  0  0
   12.4603   -1.2660   23.2875 C   0  0  0  0  0  0  0  0  0  0  0  0
   13.3043   -2.2850   22.8617 C   0  0  0  0  0  0  0  0  0  0  0  0
   14.3524   -2.4976   23.7897 C   0  0  0  0  0  0  0  0  0  0  0  0
   14.2989   -1.6820   24.8562 C   0  0  0  0  0  0  0  0  0  0  0  0
   12.9688   -0.6154   24.7811 S   0  0  0  0  0  0  0  0  0  0  0  0
  1  2  1  0
  2  3  2  0
  2  4  1  0
  4  5  1  0
  5  6  1  0
  6  7  1  0
  7  8  1  0
  8  9  1  0
  7 10  1  0
 10 11  1  0
 11 12  1  0
 12 13  2  0
 12 14  1  0
 14 15  2  0
 15 16  1  0
 16 17  2  0
 17 18  1  0
 18 19  1  0
 19 20  1  0
 20 21  1  0
 20 22  2  0
 20 23  2  0
 18 24  2  0
 10 25  1  0
 25 26  2  0
 26 27  1  0
 27 28  2  0
 28 29  1  0
  9  4  1  0
 24 14  1  0
 29 25  1  0
M  END
