CVD-0001077|dock_bobby27042020.25|mol2|12|dock1
     RDKit          3D

 21 23  0  0  0  0  0  0  0  0999 V2000
    2.0780    3.0534   20.4109 Br  0  0  0  0  0  0  0  0  0  0  0  0
    3.5953    2.0187   19.9261 C   0  0  0  0  0  0  0  0  0  0  0  0
    4.2213    2.2559   18.7222 C   0  0  0  0  0  0  0  0  0  0  0  0
    5.3269    1.5003   18.3739 C   0  0  0  0  0  0  0  0  0  0  0  0
    5.8294    0.5175   19.2245 C   0  0  0  0  0  0  0  0  0  0  0  0
    5.1629    0.2990   20.4263 C   0  0  0  0  0  0  0  0  0  0  0  0
    4.0520    1.0423   20.7832 C   0  0  0  0  0  0  0  0  0  0  0  0
    7.0311   -0.3242   18.9179 C   0  0  0  0  0  0  0  0  0  0  0  0
    7.0451   -0.8969   17.8227 O   0  0  0  0  0  0  0  0  0  0  0  0
    8.1876   -0.5139   19.8181 C   0  0  0  0  0  0  0  0  0  0  0  0
    8.5454    0.3121   20.7990 C   0  0  0  0  0  0  0  0  0  0  0  0
    9.6918    0.1255   21.6916 C   0  0  0  0  0  0  0  0  0  0  0  0
    9.8856    0.9465   22.7987 C   0  0  0  0  0  0  0  0  0  0  0  0
   10.8946    0.8222   23.6291 N   0  0  0  0  0  0  0  0  0  0  0  0
   11.7836   -0.1826   23.3564 C   0  0  0  0  0  0  0  0  0  0  0  0
   12.9004   -0.3891   24.1981 C   0  0  0  0  0  0  0  0  0  0  0  0
   13.7840   -1.3913   23.9232 C   0  0  0  0  0  0  0  0  0  0  0  0
   13.6076   -2.2155   22.8293 C   0  0  0  0  0  0  0  0  0  0  0  0
   12.5444   -2.0524   21.9902 C   0  0  0  0  0  0  0  0  0  0  0  0
   11.6024   -1.0271   22.2350 C   0  0  0  0  0  0  0  0  0  0  0  0
   10.5330   -0.8576   21.3973 N   0  0  0  0  0  0  0  0  0  0  0  0
  1  2  1  0
  2  3  2  0
  3  4  1  0
  4  5  2  0
  5  6  1  0
  6  7  2  0
  5  8  1  0
  8  9  2  0
  8 10  1  0
 10 11  2  0
 11 12  1  0
 12 13  2  0
 13 14  1  0
 14 15  2  0
 15 16  1  0
 16 17  2  0
 17 18  1  0
 18 19  2  0
 19 20  1  0
 20 21  2  0
  7  2  1  0
 21 12  1  0
 20 15  1  0
M  END
