CVD-0001340|dock_bobby27042020.67|mol2|26|dock2
     RDKit          3D

 30 32  0  0  0  0  0  0  0  0999 V2000
   13.8282    7.2210   22.7358 C   0  0  0  0  0  0  0  0  0  0  0  0
   13.5639    5.9743   22.4428 C   0  0  0  0  0  0  0  0  0  0  0  0
   12.8609    5.0222   23.2905 C   0  0  0  0  0  0  0  0  0  0  0  0
   12.5885    5.2886   24.4545 O   0  0  0  0  0  0  0  0  0  0  0  0
   12.4141    3.6616   22.8362 C   0  0  0  0  0  0  0  0  0  0  0  0
   13.0972    2.6011   23.4970 O   0  0  0  0  0  0  0  0  0  0  0  0
   13.0022    1.3117   23.0326 C   0  0  0  0  0  0  0  0  0  0  0  0
   14.0476    0.4540   23.3244 C   0  0  0  0  0  0  0  0  0  0  0  0
   14.0022   -0.8548   22.8807 C   0  0  0  0  0  0  0  0  0  0  0  0
   12.9184   -1.3059   22.1492 C   0  0  0  0  0  0  0  0  0  0  0  0
   11.8632   -0.4525   21.8506 C   0  0  0  0  0  0  0  0  0  0  0  0
   10.7905   -0.9937   21.0961 N   0  0  0  0  0  0  0  0  0  0  0  0
    9.6928   -0.3915   20.5221 C   0  0  0  0  0  0  0  0  0  0  0  0
    9.4582    0.8105   20.5833 O   0  0  0  0  0  0  0  0  0  0  0  0
    8.9008   -1.3123   19.8709 N   0  0  0  0  0  0  0  0  0  0  0  0
    7.6875   -1.1191   19.1506 C   0  0  0  0  0  0  0  0  0  0  0  0
    7.4428   -0.0375   18.3030 C   0  0  0  0  0  0  0  0  0  0  0  0
    6.3099    0.1369   17.6162 N   0  0  0  0  0  0  0  0  0  0  0  0
    5.3483   -0.7680   17.7706 C   0  0  0  0  0  0  0  0  0  0  0  0
    5.4745   -1.8687   18.5876 C   0  0  0  0  0  0  0  0  0  0  0  0
    6.6566   -2.0694   19.2929 C   0  0  0  0  0  0  0  0  0  0  0  0
    6.7222   -3.3070   20.1624 C   0  0  0  0  0  0  0  0  0  0  0  0
    5.9804   -3.1706   21.4988 C   0  0  0  0  0  0  0  0  0  0  0  0
    5.9776   -4.4505   22.2837 C   0  0  0  0  0  0  0  0  0  0  0  0
    5.2454   -4.2265   23.5836 C   0  0  0  0  0  0  0  0  0  0  0  0
    5.7356   -3.0122   24.2609 N   0  0  0  0  0  0  0  0  0  0  0  0
    6.3941   -2.0410   23.6229 C   0  0  0  0  0  0  0  0  0  0  0  0
    6.7807   -1.0858   24.2913 O   0  0  0  0  0  0  0  0  0  0  0  0
    6.6137   -2.1217   22.3112 N   0  0  0  0  0  0  0  0  0  0  0  0
   11.9083    0.8683   22.2981 C   0  0  0  0  0  0  0  0  0  0  0  0
  1  2  2  0
  2  3  1  0
  3  4  2  0
  3  5  1  0
  5  6  1  0
  6  7  1  0
  7  8  2  0
  8  9  1  0
  9 10  2  0
 10 11  1  0
 11 12  1  0
 12 13  1  0
 13 14  2  0
 13 15  1  0
 15 16  1  0
 16 17  2  0
 17 18  1  0
 18 19  2  0
 19 20  1  0
 20 21  2  0
 21 22  1  0
 22 23  1  0
 23 24  1  0
 24 25  1  0
 25 26  1  0
 26 27  1  0
 27 28  2  0
 27 29  1  0
 11 30  2  0
 30  7  1  0
 21 16  1  0
 29 23  1  0
M  END
