CVD-0003351|dock_bobby27042020.88|mol2|17|dock1
     RDKit          3D

 30 32  0  0  0  0  0  0  0  0999 V2000
    3.8428   -6.4404   23.1153 C   0  0  0  0  0  0  0  0  0  0  0  0
    5.0867   -6.3367   23.9516 C   0  0  0  0  0  0  0  0  0  0  0  0
    5.0527   -6.8349   25.0725 O   0  0  0  0  0  0  0  0  0  0  0  0
    6.2549   -5.6680   23.4484 N   0  0  0  0  0  0  0  0  0  0  0  0
    6.2749   -5.0569   22.1328 C   0  0  0  0  0  0  0  0  0  0  0  0
    5.4345   -5.4255   21.3274 O   0  0  0  0  0  0  0  0  0  0  0  0
    7.1533   -4.0996   21.7115 N   0  0  0  0  0  0  0  0  0  0  0  0
    7.3586   -3.8671   20.2913 C   0  0  0  0  0  0  0  0  0  0  0  0
    7.1861   -2.4173   19.9637 C   0  0  0  0  0  0  0  0  0  0  0  0
    8.0942   -1.6247   20.8046 N   0  0  0  0  0  0  0  0  0  0  0  0
    7.8158   -1.8126   22.2362 C   0  0  0  0  0  0  0  0  0  0  0  0
    7.9855   -3.2625   22.5813 C   0  0  0  0  0  0  0  0  0  0  0  0
    8.4784   -0.1292   20.2814 S   0  0  0  0  0  0  0  0  0  0  0  0
    9.2942   -0.3034   19.1200 O   0  0  0  0  0  0  0  0  0  0  0  0
    8.9924    0.5767   21.4137 O   0  0  0  0  0  0  0  0  0  0  0  0
    6.9818    0.6512   19.7847 C   0  0  0  0  0  0  0  0  0  0  0  0
    6.7335    0.8767   18.4408 C   0  0  0  0  0  0  0  0  0  0  0  0
    5.5538    1.4959   18.0696 C   0  0  0  0  0  0  0  0  0  0  0  0
    4.6441    1.8796   19.0401 C   0  0  0  0  0  0  0  0  0  0  0  0
    3.1770    2.6532   18.5370 Cl  0  0  0  0  0  0  0  0  0  0  0  0
    4.8708    1.6645   20.3942 C   0  0  0  0  0  0  0  0  0  0  0  0
    3.8917    2.0806   21.4600 C   0  0  0  0  0  0  0  0  0  0  0  0
    6.0643    1.0411   20.7486 C   0  0  0  0  0  0  0  0  0  0  0  0
    7.3961   -5.5055   24.3359 C   0  0  0  0  0  0  0  0  0  0  0  0
    8.5653   -6.1495   24.0792 C   0  0  0  0  0  0  0  0  0  0  0  0
    9.6639   -6.0566   24.8638 N   0  0  0  0  0  0  0  0  0  0  0  0
    9.6388   -5.2362   26.0850 C   0  0  0  0  0  0  0  0  0  0  0  0
    8.3797   -4.5277   26.3115 C   0  0  0  0  0  0  0  0  0  0  0  0
    7.3004   -4.6510   25.5187 C   0  0  0  0  0  0  0  0  0  0  0  0
    6.0921   -3.8333   25.8862 C   0  0  0  0  0  0  0  0  0  0  0  0
  1  2  1  0
  2  3  2  0
  2  4  1  0
  4  5  1  0
  5  6  2  0
  5  7  1  0
  7  8  1  0
  8  9  1  0
  9 10  1  0
 10 11  1  0
 11 12  1  0
 10 13  1  0
 13 14  2  0
 13 15  2  0
 13 16  1  0
 16 17  2  0
 17 18  1  0
 18 19  2  0
 19 20  1  0
 19 21  1  0
 21 22  1  0
 21 23  2  0
  4 24  1  0
 24 25  2  0
 25 26  1  0
 26 27  1  0
 27 28  1  0
 28 29  2  0
 29 30  1  0
 12  7  1  0
 23 16  1  0
 29 24  1  0
M  END
