CVD-0000138|dock_bobby27042020.57|mol2|11|dock1
     RDKit          3D

 18 19  0  0  0  0  0  0  0  0999 V2000
    9.4604   -0.5277   22.9905 O   0  0  0  0  0  0  0  0  0  0  0  0
    9.8325   -0.9437   21.8984 C   0  0  0  0  0  0  0  0  0  0  0  0
   11.0551   -1.5323   21.6681 N   0  0  0  0  0  0  0  0  0  0  0  0
   12.1350   -1.8012   22.5470 C   0  0  0  0  0  0  0  0  0  0  0  0
   11.8491   -2.2129   23.8425 C   0  0  0  0  0  0  0  0  0  0  0  0
   12.8827   -2.4823   24.7219 C   0  0  0  0  0  0  0  0  0  0  0  0
   14.1770   -2.3325   24.2819 C   0  0  0  0  0  0  0  0  0  0  0  0
   14.4856   -1.9394   23.0462 N   0  0  0  0  0  0  0  0  0  0  0  0
   13.4805   -1.6814   22.2036 C   0  0  0  0  0  0  0  0  0  0  0  0
    9.0826   -0.8827   20.7456 N   0  0  0  0  0  0  0  0  0  0  0  0
    7.7822   -0.3684   20.5088 C   0  0  0  0  0  0  0  0  0  0  0  0
    6.7618   -0.3797   21.4585 C   0  0  0  0  0  0  0  0  0  0  0  0
    5.5156    0.1424   21.1517 C   0  0  0  0  0  0  0  0  0  0  0  0
    5.2654    0.6812   19.9021 C   0  0  0  0  0  0  0  0  0  0  0  0
    6.2745    0.6980   18.9473 C   0  0  0  0  0  0  0  0  0  0  0  0
    7.5278    0.1740   19.2530 C   0  0  0  0  0  0  0  0  0  0  0  0
    6.0297    1.2561   17.6402 C   0  0  0  0  0  0  0  0  0  0  0  0
    5.8494    1.7268   16.6152 N   0  0  0  0  0  0  0  0  0  0  0  0
  1  2  2  0
  2  3  1  0
  3  4  1  0
  4  5  2  0
  5  6  1  0
  6  7  2  0
  7  8  1  0
  8  9  2  0
  2 10  1  0
 10 11  1  0
 11 12  2  0
 12 13  1  0
 13 14  2  0
 14 15  1  0
 15 16  2  0
 15 17  1  0
 17 18  3  0
  9  4  1  0
 16 11  1  0
M  END
