CVD-0002001|dock_bobby27042020.50|mol2|34|dock3
     RDKit          3D

 19 21  0  0  0  0  0  0  0  0999 V2000
   14.0725   -2.6138   23.3495 C   0  0  0  0  0  0  0  0  0  0  0  0
   13.1524   -2.2092   22.2005 C   0  0  0  0  0  0  0  0  0  0  0  0
   13.8931   -2.3043   20.8804 C   0  0  0  0  0  0  0  0  0  0  0  0
   14.4240   -3.4819   20.6684 O   0  0  0  0  0  0  0  0  0  0  0  0
   13.9828   -1.3781   20.1048 O   0  0  0  0  0  0  0  0  0  0  0  0
   12.6370   -0.7850   22.3595 C   0  0  0  0  0  0  0  0  0  0  0  0
   11.2696   -0.5331   22.3804 C   0  0  0  0  0  0  0  0  0  0  0  0
   10.7689    0.7488   22.5261 C   0  0  0  0  0  0  0  0  0  0  0  0
   11.6609    1.8098   22.6553 C   0  0  0  0  0  0  0  0  0  0  0  0
   13.0462    1.5564   22.6354 C   0  0  0  0  0  0  0  0  0  0  0  0
   13.5384    0.2643   22.4886 C   0  0  0  0  0  0  0  0  0  0  0  0
   13.7294    2.7518   22.7790 N   0  0  0  0  0  0  0  0  0  0  0  0
   12.8087    3.7770   22.8916 C   0  0  0  0  0  0  0  0  0  0  0  0
   12.9405    5.1478   23.0517 C   0  0  0  0  0  0  0  0  0  0  0  0
   11.8575    5.9326   23.1353 N   0  0  0  0  0  0  0  0  0  0  0  0
   10.6948    5.3071   23.0545 C   0  0  0  0  0  0  0  0  0  0  0  0
    9.3034    6.3370   23.1643 Cl  0  0  0  0  0  0  0  0  0  0  0  0
   10.4233    4.0228   22.9035 N   0  0  0  0  0  0  0  0  0  0  0  0
   11.5115    3.2490   22.8213 C   0  0  0  0  0  0  0  0  0  0  0  0
  2  1  1  0
  2  3  1  0
  3  4  1  0
  3  5  2  0
  2  6  1  0
  6  7  2  0
  7  8  1  0
  8  9  2  0
  9 10  1  0
 10 11  2  0
 10 12  1  0
 12 13  1  0
 13 14  2  0
 14 15  1  0
 15 16  2  0
 16 17  1  0
 16 18  1  0
 18 19  2  0
 11  6  1  0
 19 13  1  0
 19  9  1  0
M  END
