CVD-0002808|dock_bobby27042020.90|mol2|10|dock3
     RDKit          3D

 30 33  0  0  0  0  0  0  0  0999 V2000
   10.4151   -3.7893   23.6330 N   0  0  0  0  0  0  0  0  0  0  0  0
    9.8114   -2.8828   22.8588 C   0  0  0  0  0  0  0  0  0  0  0  0
    8.5086   -3.0880   22.5989 N   0  0  0  0  0  0  0  0  0  0  0  0
    7.8299   -2.2475   21.8069 C   0  0  0  0  0  0  0  0  0  0  0  0
    6.4325   -2.7029   21.4830 C   0  0  0  0  0  0  0  0  0  0  0  0
    6.1163   -4.1237   21.8755 C   0  0  0  0  0  0  0  0  0  0  0  0
    6.1770   -5.2649   21.0862 C   0  0  0  0  0  0  0  0  0  0  0  0
    5.9003   -6.3678   21.7869 N   0  0  0  0  0  0  0  0  0  0  0  0
    5.8538   -6.0403   23.1922 C   0  0  0  0  0  0  0  0  0  0  0  0
    4.9412   -6.7457   24.0710 N   0  0  0  0  0  0  0  0  0  0  0  0
    4.3387   -6.0819   25.0590 C   0  0  0  0  0  0  0  0  0  0  0  0
    4.3864   -4.7293   25.1856 C   0  0  0  0  0  0  0  0  0  0  0  0
    4.9599   -3.9579   24.1599 C   0  0  0  0  0  0  0  0  0  0  0  0
    5.5914   -4.5653   23.1469 C   0  0  0  0  0  0  0  0  0  0  0  0
    8.4239   -1.0600   21.3202 C   0  0  0  0  0  0  0  0  0  0  0  0
    9.7781   -0.8518   21.5651 C   0  0  0  0  0  0  0  0  0  0  0  0
   10.5041   -1.7563   22.3310 C   0  0  0  0  0  0  0  0  0  0  0  0
   11.9761   -1.5182   22.5843 C   0  0  0  0  0  0  0  0  0  0  0  0
   12.1943   -0.9743   23.9954 C   0  0  0  0  0  0  0  0  0  0  0  0
   13.8205   -1.2351   24.6486 S   0  0  0  0  0  0  0  0  0  0  0  0
   14.0207   -2.7944   24.9533 N   0  0  0  0  0  0  0  0  0  0  0  0
   14.7488   -0.8738   23.6156 O   0  0  0  0  0  0  0  0  0  0  0  0
   13.8846   -0.5381   25.9013 O   0  0  0  0  0  0  0  0  0  0  0  0
    7.6846   -0.0927   20.5908 N   0  0  0  0  0  0  0  0  0  0  0  0
    7.5222   -0.1546   19.1308 C   0  0  0  0  0  0  0  0  0  0  0  0
    6.1178    0.2638   18.7336 C   0  0  0  0  0  0  0  0  0  0  0  0
    5.8066    1.5974   19.2473 N   0  0  0  0  0  0  0  0  0  0  0  0
    4.5101    2.0340   18.7544 O   0  0  0  0  0  0  0  0  0  0  0  0
    5.8474    1.5341   20.7092 C   0  0  0  0  0  0  0  0  0  0  0  0
    7.2397    1.1703   21.1966 C   0  0  0  0  0  0  0  0  0  0  0  0
  1  2  1  0
  2  3  2  0
  3  4  1  0
  4  5  1  0
  5  6  1  0
  6  7  2  0
  7  8  1  0
  8  9  1  0
  9 10  1  0
 10 11  1  0
 11 12  2  0
 12 13  1  0
 13 14  2  0
  4 15  2  0
 15 16  1  0
 16 17  2  0
 17 18  1  0
 18 19  1  0
 19 20  1  0
 20 21  1  0
 20 22  2  0
 20 23  2  0
 15 24  1  0
 24 25  1  0
 25 26  1  0
 26 27  1  0
 27 28  1  0
 27 29  1  0
 29 30  1  0
 17  2  1  0
 30 24  1  0
 14  6  1  0
 14  9  1  0
M  END
