CVD-0003716|dock_bobby27042020.59|mol2|1|dock2
     RDKit          3D

 35 38  0  0  0  0  0  0  0  0999 V2000
    8.3720    0.6466   19.7542 C   0  0  0  0  0  0  0  0  0  0  0  0
    8.4429   -0.8069   20.2250 C   0  0  0  0  0  0  0  0  0  0  0  0
    9.0668   -0.8818   21.6366 C   0  0  0  0  0  0  0  0  0  0  0  0
   10.4851   -1.4275   21.7856 C   0  0  0  0  0  0  0  0  0  0  0  0
   11.1847   -1.1400   23.1078 C   0  0  0  0  0  0  0  0  0  0  0  0
   11.7301    0.2642   23.2043 C   0  0  0  0  0  0  0  0  0  0  0  0
   12.9887    0.5726   22.7118 C   0  0  0  0  0  0  0  0  0  0  0  0
   13.4986    1.8559   22.7969 C   0  0  0  0  0  0  0  0  0  0  0  0
   12.7366    2.8518   23.3849 C   0  0  0  0  0  0  0  0  0  0  0  0
   11.4777    2.5660   23.8864 C   0  0  0  0  0  0  0  0  0  0  0  0
   10.9863    1.2762   23.7913 C   0  0  0  0  0  0  0  0  0  0  0  0
   13.3785    4.4939   23.5052 S   0  0  0  0  0  0  0  0  0  0  0  0
   13.1634    5.2268   22.0982 N   0  0  0  0  0  0  0  0  0  0  0  0
   14.7910    4.3866   23.7151 O   0  0  0  0  0  0  0  0  0  0  0  0
   12.5865    5.1929   24.4721 O   0  0  0  0  0  0  0  0  0  0  0  0
    7.0425   -1.4629   20.2348 C   0  0  0  0  0  0  0  0  0  0  0  0
    6.2900   -1.3200   18.9077 C   0  0  0  0  0  0  0  0  0  0  0  0
    5.5928   -0.0172   18.6862 C   0  0  0  0  0  0  0  0  0  0  0  0
    5.8495    0.7790   17.7047 N   0  0  0  0  0  0  0  0  0  0  0  0
    5.0552    1.9245   17.7239 N   0  0  0  0  0  0  0  0  0  0  0  0
    4.2257    1.9449   18.7129 C   0  0  0  0  0  0  0  0  0  0  0  0
    3.2677    3.0600   18.9704 C   0  0  0  0  0  0  0  0  0  0  0  0
    4.3360    0.5546   19.7423 S   0  0  0  0  0  0  0  0  0  0  0  0
    7.1873   -2.9465   20.5160 C   0  0  0  0  0  0  0  0  0  0  0  0
    8.1669   -3.5746   20.1230 O   0  0  0  0  0  0  0  0  0  0  0  0
    6.1596   -3.4968   21.2225 N   0  0  0  0  0  0  0  0  0  0  0  0
    6.0540   -4.8495   21.6108 C   0  0  0  0  0  0  0  0  0  0  0  0
    6.3527   -5.9911   20.9339 C   0  0  0  0  0  0  0  0  0  0  0  0
    6.0408   -7.1144   21.6650 N   0  0  0  0  0  0  0  0  0  0  0  0
    5.4864   -6.7100   22.8310 C   0  0  0  0  0  0  0  0  0  0  0  0
    4.8424   -7.5142   23.8500 C   0  0  0  0  0  0  0  0  0  0  0  0
    3.8505   -6.8831   24.5472 C   0  0  0  0  0  0  0  0  0  0  0  0
    3.4907   -5.5457   24.2604 C   0  0  0  0  0  0  0  0  0  0  0  0
    4.2411   -4.7211   23.5194 C   0  0  0  0  0  0  0  0  0  0  0  0
    5.5730   -5.2221   22.9883 C   0  0  0  0  0  0  0  0  0  0  0  0
  1  2  1  0
  2  3  1  0
  3  4  1  0
  4  5  1  0
  5  6  1  0
  6  7  2  0
  7  8  1  0
  8  9  2  0
  9 10  1  0
 10 11  2  0
  9 12  1  0
 12 13  1  0
 12 14  2  0
 12 15  2  0
  2 16  1  0
 16 17  1  0
 17 18  1  0
 18 19  2  0
 19 20  1  0
 20 21  2  0
 21 22  1  0
 21 23  1  0
 16 24  1  0
 24 25  2  0
 24 26  1  0
 26 27  1  0
 27 28  2  0
 28 29  1  0
 29 30  2  0
 30 31  1  0
 31 32  2  0
 32 33  1  0
 33 34  2  0
 34 35  1  0
 11  6  1  0
 23 18  1  0
 35 27  1  0
 35 30  1  0
M  END
