CVD-0000476|dock_bobby27042020.41|mol2|22|dock1
     RDKit          3D

 19 21  0  0  0  0  0  0  0  0999 V2000
    5.7745    1.2948   17.4464 C   0  0  0  0  0  0  0  0  0  0  0  0
    5.7695    0.9933   18.9253 C   0  0  0  0  0  0  0  0  0  0  0  0
    4.6597    1.2769   19.7056 C   0  0  0  0  0  0  0  0  0  0  0  0
    4.6586    0.9959   21.0613 C   0  0  0  0  0  0  0  0  0  0  0  0
    5.7727    0.4246   21.6520 C   0  0  0  0  0  0  0  0  0  0  0  0
    6.8943    0.1288   20.8942 C   0  0  0  0  0  0  0  0  0  0  0  0
    8.1175   -0.4916   21.5250 C   0  0  0  0  0  0  0  0  0  0  0  0
    9.2137    0.5315   21.8122 C   0  0  0  0  0  0  0  0  0  0  0  0
   10.4261   -0.0728   22.4329 C   0  0  0  0  0  0  0  0  0  0  0  0
   10.8121    0.1267   23.6795 N   0  0  0  0  0  0  0  0  0  0  0  0
   11.9720   -0.6287   23.8216 C   0  0  0  0  0  0  0  0  0  0  0  0
   12.8209   -0.8070   24.9121 C   0  0  0  0  0  0  0  0  0  0  0  0
   13.9197   -1.6312   24.7619 C   0  0  0  0  0  0  0  0  0  0  0  0
   14.9876   -1.8614   26.1180 Cl  0  0  0  0  0  0  0  0  0  0  0  0
   14.1988   -2.2773   23.5743 C   0  0  0  0  0  0  0  0  0  0  0  0
   13.3606   -2.1054   22.4859 C   0  0  0  0  0  0  0  0  0  0  0  0
   12.2516   -1.2790   22.6231 C   0  0  0  0  0  0  0  0  0  0  0  0
   11.2452   -0.9067   21.7530 N   0  0  0  0  0  0  0  0  0  0  0  0
    6.8748    0.4199   19.5362 C   0  0  0  0  0  0  0  0  0  0  0  0
  1  2  1  0
  2  3  2  0
  3  4  1  0
  4  5  2  0
  5  6  1  0
  6  7  1  0
  7  8  1  0
  8  9  1  0
  9 10  2  0
 10 11  1  0
 11 12  2  0
 12 13  1  0
 13 14  1  0
 13 15  2  0
 15 16  1  0
 16 17  2  0
 17 18  1  0
  6 19  2  0
 19  2  1  0
 18  9  1  0
 17 11  1  0
M  END
