CVD-0003118|dock_bobby27042020.89|mol2|4|dock1
     RDKit          3D

 18 20  0  0  0  0  0  0  0  0999 V2000
    7.2605   -3.5653   21.9565 O   0  0  0  0  0  0  0  0  0  0  0  0
    7.9644   -2.6384   21.6471 C   0  0  0  0  0  0  0  0  0  0  0  0
    7.7186   -1.7367   20.7362 N   0  0  0  0  0  0  0  0  0  0  0  0
    8.8456   -0.9110   20.7892 N   0  0  0  0  0  0  0  0  0  0  0  0
    9.6399   -1.3715   21.6899 C   0  0  0  0  0  0  0  0  0  0  0  0
    9.1374   -2.4872   22.2904 O   0  0  0  0  0  0  0  0  0  0  0  0
   10.9729   -0.8707   22.1523 C   0  0  0  0  0  0  0  0  0  0  0  0
   11.7159   -1.7766   23.1109 C   0  0  0  0  0  0  0  0  0  0  0  0
   13.0816   -1.1810   23.4266 C   0  0  0  0  0  0  0  0  0  0  0  0
   12.9803    0.1983   24.0267 C   0  0  0  0  0  0  0  0  0  0  0  0
   12.2140    1.0421   23.0577 N   0  0  0  0  0  0  0  0  0  0  0  0
   10.8511    0.5686   22.7261 C   0  0  0  0  0  0  0  0  0  0  0  0
   12.6666    2.2709   22.6353 C   0  0  0  0  0  0  0  0  0  0  0  0
   11.8128    3.3601   22.5115 C   0  0  0  0  0  0  0  0  0  0  0  0
   12.3707    4.5471   22.0730 C   0  0  0  0  0  0  0  0  0  0  0  0
   13.7171    4.5584   21.7980 C   0  0  0  0  0  0  0  0  0  0  0  0
   14.4885    3.4963   21.9348 N   0  0  0  0  0  0  0  0  0  0  0  0
   13.9559    2.3372   22.3604 N   0  0  0  0  0  0  0  0  0  0  0  0
  1  2  1  0
  2  3  2  0
  3  4  1  0
  4  5  2  0
  5  6  1  0
  7  5  1  0
  7  8  1  0
  8  9  1  0
  9 10  1  0
 10 11  1  0
 11 12  1  0
 11 13  1  0
 13 14  2  0
 14 15  1  0
 15 16  2  0
 16 17  1  0
 17 18  2  0
  6  2  1  0
 12  7  1  0
 18 13  1  0
M  END
