CVD-0003589|dock_bobby27042020.44|mol2|46|dock2
     RDKit          3D

 20 22  0  0  0  0  0  0  0  0999 V2000
   12.3905    4.8502   21.8860 Cl  0  0  0  0  0  0  0  0  0  0  0  0
   12.7880    3.3062   22.6510 C   0  0  0  0  0  0  0  0  0  0  0  0
   11.7324    2.2572   22.3573 C   0  0  0  0  0  0  0  0  0  0  0  0
   10.7494    2.5558   21.6905 O   0  0  0  0  0  0  0  0  0  0  0  0
   11.9023    1.0058   22.8522 N   0  0  0  0  0  0  0  0  0  0  0  0
   13.0068    0.6230   23.7570 C   0  0  0  0  0  0  0  0  0  0  0  0
   13.7089   -0.6135   23.2080 C   0  0  0  0  0  0  0  0  0  0  0  0
   12.7290   -1.7687   23.0062 C   0  0  0  0  0  0  0  0  0  0  0  0
   11.5421   -1.3810   22.1284 C   0  0  0  0  0  0  0  0  0  0  0  0
   10.3276   -2.3541   22.2059 C   0  0  0  0  0  0  0  0  0  0  0  0
    9.4574   -1.7863   23.2269 N   0  0  0  0  0  0  0  0  0  0  0  0
   10.0020   -0.5053   23.7312 C   0  0  0  0  0  0  0  0  0  0  0  0
   10.9139   -0.0397   22.5959 C   0  0  0  0  0  0  0  0  0  0  0  0
    8.3004   -2.3251   23.6429 C   0  0  0  0  0  0  0  0  0  0  0  0
    7.6307   -1.7739   24.5086 O   0  0  0  0  0  0  0  0  0  0  0  0
    7.7762   -3.5958   23.0877 C   0  0  0  0  0  0  0  0  0  0  0  0
    7.6974   -4.9437   23.4998 C   0  0  0  0  0  0  0  0  0  0  0  0
    7.0567   -5.6623   22.4635 C   0  0  0  0  0  0  0  0  0  0  0  0
    6.7646   -4.7772   21.4707 C   0  0  0  0  0  0  0  0  0  0  0  0
    7.1964   -3.5346   21.8441 N   0  0  0  0  0  0  0  0  0  0  0  0
  1  2  1  0
  2  3  1  0
  3  4  2  0
  3  5  1  0
  5  6  1  0
  6  7  1  0
  7  8  1  0
  8  9  1  0
  9 10  1  0
 10 11  1  0
 11 12  1  0
 12 13  1  0
 11 14  1  0
 14 15  2  0
 14 16  1  0
 16 17  2  0
 17 18  1  0
 18 19  2  0
 19 20  1  0
 13  5  1  0
 20 16  1  0
 13  9  1  0
M  END
