CVD-0001864|dock_bobby27042020.36|mol2|40|dock2
     RDKit          3D

 21 23  0  0  0  0  0  0  0  0999 V2000
   12.3647   -2.1168   20.8663 O   0  0  0  0  0  0  0  0  0  0  0  0
   11.8886   -1.3571   21.7085 C   0  0  0  0  0  0  0  0  0  0  0  0
   10.5007   -0.8735   21.4913 C   0  0  0  0  0  0  0  0  0  0  0  0
    9.4250   -1.6331   21.2372 C   0  0  0  0  0  0  0  0  0  0  0  0
    8.0996   -1.1088   21.0327 C   0  0  0  0  0  0  0  0  0  0  0  0
    7.8295   -0.0361   20.2813 C   0  0  0  0  0  0  0  0  0  0  0  0
    6.5130    0.5588   20.0238 C   0  0  0  0  0  0  0  0  0  0  0  0
    6.1971    1.0750   18.7663 C   0  0  0  0  0  0  0  0  0  0  0  0
    4.9613    1.6456   18.5043 C   0  0  0  0  0  0  0  0  0  0  0  0
    4.0270    1.6965   19.5282 C   0  0  0  0  0  0  0  0  0  0  0  0
    2.7368    2.1705   19.5201 O   0  0  0  0  0  0  0  0  0  0  0  0
    2.3044    2.1400   20.8767 C   0  0  0  0  0  0  0  0  0  0  0  0
    3.2292    1.3231   21.6006 O   0  0  0  0  0  0  0  0  0  0  0  0
    4.3253    1.1892   20.7793 C   0  0  0  0  0  0  0  0  0  0  0  0
    5.5583    0.6194   21.0428 C   0  0  0  0  0  0  0  0  0  0  0  0
   12.6604   -1.0272   22.7787 N   0  0  0  0  0  0  0  0  0  0  0  0
   12.2751   -0.1276   23.8676 C   0  0  0  0  0  0  0  0  0  0  0  0
   12.3832   -0.8336   25.2031 C   0  0  0  0  0  0  0  0  0  0  0  0
   13.7840   -1.4105   25.4034 C   0  0  0  0  0  0  0  0  0  0  0  0
   14.1644   -2.2950   24.2285 C   0  0  0  0  0  0  0  0  0  0  0  0
   14.0219   -1.5577   22.9164 C   0  0  0  0  0  0  0  0  0  0  0  0
  1  2  2  0
  2  3  1  0
  3  4  2  0
  4  5  1  0
  5  6  2  0
  6  7  1  0
  7  8  2  0
  8  9  1  0
  9 10  2  0
 10 11  1  0
 11 12  1  0
 12 13  1  0
 13 14  1  0
 14 15  2  0
  2 16  1  0
 16 17  1  0
 17 18  1  0
 18 19  1  0
 19 20  1  0
 20 21  1  0
 15  7  1  0
 21 16  1  0
 14 10  1  0
M  END
