CVD-0002140|dock_bobby27042020.78|mol2|28|dock1
     RDKit          3D

 22 24  0  0  0  0  0  0  0  0999 V2000
    9.9566    2.7599   23.4518 N   0  0  0  0  0  0  0  0  0  0  0  0
    9.1980    2.4986   22.2082 C   0  0  0  0  0  0  0  0  0  0  0  0
    8.1444    1.4159   22.3785 C   0  0  0  0  0  0  0  0  0  0  0  0
    8.7447    0.3590   23.1096 O   0  0  0  0  0  0  0  0  0  0  0  0
    9.5615   -0.4984   22.2841 C   0  0  0  0  0  0  0  0  0  0  0  0
    8.5602   -1.2612   21.3759 C   0  0  0  0  0  0  0  0  0  0  0  0
    7.8485   -0.2338   20.5097 C   0  0  0  0  0  0  0  0  0  0  0  0
    7.3518   -0.5231   19.2325 C   0  0  0  0  0  0  0  0  0  0  0  0
    7.8088   -1.6097   18.5324 O   0  0  0  0  0  0  0  0  0  0  0  0
    6.5048    0.3657   18.5751 C   0  0  0  0  0  0  0  0  0  0  0  0
    6.1115    0.0894   17.3042 O   0  0  0  0  0  0  0  0  0  0  0  0
    6.1369    1.5615   19.1787 C   0  0  0  0  0  0  0  0  0  0  0  0
    6.6212    1.8578   20.4386 C   0  0  0  0  0  0  0  0  0  0  0  0
    7.4708    0.9732   21.1049 C   0  0  0  0  0  0  0  0  0  0  0  0
   10.4571   -1.2828   23.2415 C   0  0  0  0  0  0  0  0  0  0  0  0
   11.3794   -0.3554   24.0319 C   0  0  0  0  0  0  0  0  0  0  0  0
   12.5100    0.2372   23.2077 C   0  0  0  0  0  0  0  0  0  0  0  0
   13.4165    0.9253   24.0737 O   0  0  0  0  0  0  0  0  0  0  0  0
   13.2691   -0.8608   22.4650 C   0  0  0  0  0  0  0  0  0  0  0  0
   12.3561   -1.7179   21.6027 C   0  0  0  0  0  0  0  0  0  0  0  0
   13.1343   -2.6952   20.9064 O   0  0  0  0  0  0  0  0  0  0  0  0
   11.2555   -2.3373   22.4678 C   0  0  0  0  0  0  0  0  0  0  0  0
  1  2  1  0
  2  3  1  0
  3  4  1  0
  4  5  1  0
  5  6  1  0
  6  7  1  0
  7  8  2  0
  8  9  1  0
  8 10  1  0
 10 11  1  0
 10 12  2  0
 12 13  1  0
 13 14  2  0
  5 15  1  0
 15 16  1  0
 16 17  1  0
 17 18  1  0
 17 19  1  0
 19 20  1  0
 20 21  1  0
 20 22  1  0
 14  3  1  0
 22 15  1  0
 14  7  1  0
M  END
