CVD-0000885|dock_bobby27042020.11|mol2|29|dock1
     RDKit          3D

 17 17  0  0  0  0  0  0  0  0999 V2000
    9.0773   -1.6280   21.0530 C   0  0  0  0  0  0  0  0  0  0  0  0
   10.0578   -1.2506   22.0648 N   0  0  0  0  0  0  0  0  0  0  0  0
    9.7926   -1.9834   23.2975 C   0  0  0  0  0  0  0  0  0  0  0  0
   10.0361    0.1896   22.3069 C   0  0  0  0  0  0  0  0  0  0  0  0
   11.1323    0.6521   23.2819 C   0  0  0  0  0  0  0  0  0  0  0  0
   12.2774   -0.2465   23.1594 N   0  0  0  0  0  0  0  0  0  0  0  0
   13.0914   -0.5376   24.1763 C   0  0  0  0  0  0  0  0  0  0  0  0
   12.9554   -0.0795   25.3065 O   0  0  0  0  0  0  0  0  0  0  0  0
   14.2197   -1.4823   23.8253 C   0  0  0  0  0  0  0  0  0  0  0  0
   13.6371   -3.0694   23.3065 Cl  0  0  0  0  0  0  0  0  0  0  0  0
   11.5174    2.0895   22.9930 C   0  0  0  0  0  0  0  0  0  0  0  0
   12.8257    2.4234   22.6726 C   0  0  0  0  0  0  0  0  0  0  0  0
   13.1763    3.7373   22.4116 C   0  0  0  0  0  0  0  0  0  0  0  0
   12.2205    4.7377   22.4685 C   0  0  0  0  0  0  0  0  0  0  0  0
   10.9240    4.3988   22.7884 C   0  0  0  0  0  0  0  0  0  0  0  0
    9.7117    5.6465   22.8642 Cl  0  0  0  0  0  0  0  0  0  0  0  0
   10.5620    3.0932   23.0505 C   0  0  0  0  0  0  0  0  0  0  0  0
  1  2  1  0
  2  3  1  0
  2  4  1  0
  4  5  1  0
  5  6  1  0
  6  7  1  0
  7  8  2  0
  7  9  1  0
  9 10  1  0
  5 11  1  0
 11 12  2  0
 12 13  1  0
 13 14  2  0
 14 15  1  0
 15 16  1  0
 15 17  2  0
 17 11  1  0
M  END
