CVD-0001252|dock_bobby27042020.81|mol2|37|dock2
     RDKit          3D

 22 24  0  0  0  0  0  0  0  0999 V2000
    6.9506   -6.2242   21.7689 C   0  0  0  0  0  0  0  0  0  0  0  0
    6.6678   -5.0123   22.6004 C   0  0  0  0  0  0  0  0  0  0  0  0
    7.5571   -3.9147   22.2594 N   0  0  0  0  0  0  0  0  0  0  0  0
    7.2634   -2.9936   21.3296 C   0  0  0  0  0  0  0  0  0  0  0  0
    6.1768   -3.1880   20.5578 N   0  0  0  0  0  0  0  0  0  0  0  0
    5.9009   -2.2565   19.6364 C   0  0  0  0  0  0  0  0  0  0  0  0
    6.6649   -1.1109   19.4332 C   0  0  0  0  0  0  0  0  0  0  0  0
    7.7867   -0.9129   20.2317 C   0  0  0  0  0  0  0  0  0  0  0  0
    8.0925   -1.8624   21.1902 C   0  0  0  0  0  0  0  0  0  0  0  0
    9.1641   -1.7954   22.0470 O   0  0  0  0  0  0  0  0  0  0  0  0
   10.1848   -0.8123   21.8324 C   0  0  0  0  0  0  0  0  0  0  0  0
   11.1864   -0.8748   22.9497 C   0  0  0  0  0  0  0  0  0  0  0  0
   10.9864   -0.1611   24.1227 C   0  0  0  0  0  0  0  0  0  0  0  0
   11.8987   -0.2105   25.1638 C   0  0  0  0  0  0  0  0  0  0  0  0
   13.0414   -0.9937   25.0318 C   0  0  0  0  0  0  0  0  0  0  0  0
   14.0959   -1.2423   25.8534 N   0  0  0  0  0  0  0  0  0  0  0  0
   14.9933   -2.0949   25.2783 N   0  0  0  0  0  0  0  0  0  0  0  0
   14.5082   -2.3891   24.0878 C   0  0  0  0  0  0  0  0  0  0  0  0
   13.2742   -1.7294   23.8591 C   0  0  0  0  0  0  0  0  0  0  0  0
   12.3290   -1.6547   22.8276 C   0  0  0  0  0  0  0  0  0  0  0  0
    6.3067   -0.1488   18.4204 C   0  0  0  0  0  0  0  0  0  0  0  0
    5.9915    0.6023   17.6197 N   0  0  0  0  0  0  0  0  0  0  0  0
  1  2  1  0
  2  3  1  0
  3  4  1  0
  4  5  2  0
  5  6  1  0
  6  7  2  0
  7  8  1  0
  8  9  2  0
  9 10  1  0
 10 11  1  0
 11 12  1  0
 12 13  2  0
 13 14  1  0
 14 15  2  0
 15 16  1  0
 16 17  1  0
 17 18  2  0
 18 19  1  0
 19 20  2  0
  7 21  1  0
 21 22  3  0
  9  4  1  0
 20 12  1  0
 19 15  1  0
M  END
