CVD-0002842|dock_bobby27042020.61|mol2|41|dock1
     RDKit          3D

 15 16  0  0  0  0  0  0  0  0999 V2000
   10.1335   -2.2259   21.2229 O   0  0  0  0  0  0  0  0  0  0  0  0
   10.1913   -1.0048   21.9398 C   0  0  0  0  0  0  0  0  0  0  0  0
   11.5285   -0.7876   22.6086 C   0  0  0  0  0  0  0  0  0  0  0  0
   12.3839   -1.8798   22.7343 C   0  0  0  0  0  0  0  0  0  0  0  0
   13.5956   -1.7333   23.3766 C   0  0  0  0  0  0  0  0  0  0  0  0
   14.0211   -0.5824   23.8916 N   0  0  0  0  0  0  0  0  0  0  0  0
   13.2248    0.4775   23.7352 C   0  0  0  0  0  0  0  0  0  0  0  0
   11.9660    0.4483   23.1263 C   0  0  0  0  0  0  0  0  0  0  0  0
   11.1666    1.6979   23.0496 C   0  0  0  0  0  0  0  0  0  0  0  0
    9.7946    1.6732   23.2752 N   0  0  0  0  0  0  0  0  0  0  0  0
    9.3917    2.9218   23.1195 C   0  0  0  0  0  0  0  0  0  0  0  0
   10.4050    3.7457   22.8135 N   0  0  0  0  0  0  0  0  0  0  0  0
   11.5505    2.9894   22.7678 C   0  0  0  0  0  0  0  0  0  0  0  0
   12.8860    3.5959   22.4651 C   0  0  0  0  0  0  0  0  0  0  0  0
   12.7894    4.7021   21.0888 Cl  0  0  0  0  0  0  0  0  0  0  0  0
  1  2  1  0
  2  3  1  0
  3  4  2  0
  4  5  1  0
  5  6  2  0
  6  7  1  0
  7  8  2  0
  8  9  1  0
  9 10  1  0
 10 11  2  0
 11 12  1  0
 12 13  1  0
 13 14  1  0
 14 15  1  0
  8  3  1  0
 13  9  2  0
M  END
