CVD-0000296|dock_bobby27042020.84|mol2|40|dock2
     RDKit          3D

 23 25  0  0  0  0  0  0  0  0999 V2000
   13.6389    6.6618   22.5744 O   0  0  0  0  0  0  0  0  0  0  0  0
   12.8311    5.5094   22.3201 C   0  0  0  0  0  0  0  0  0  0  0  0
   13.4698    4.2659   21.7065 C   0  0  0  0  0  0  0  0  0  0  0  0
   13.0860    3.4785   22.9011 N   0  0  0  0  0  0  0  0  0  0  0  0
   12.3218    2.2459   22.6647 C   0  0  0  0  0  0  0  0  0  0  0  0
   11.7982    1.5953   23.9384 C   0  0  0  0  0  0  0  0  0  0  0  0
   11.8217    0.0828   23.8761 C   0  0  0  0  0  0  0  0  0  0  0  0
   12.8421   -0.5555   24.5743 C   0  0  0  0  0  0  0  0  0  0  0  0
   12.9555   -1.9316   24.5780 C   0  0  0  0  0  0  0  0  0  0  0  0
   12.0431   -2.6868   23.8798 C   0  0  0  0  0  0  0  0  0  0  0  0
   11.0149   -2.0823   23.1753 C   0  0  0  0  0  0  0  0  0  0  0  0
   10.8869   -0.6889   23.1586 C   0  0  0  0  0  0  0  0  0  0  0  0
    9.8548   -0.0070   22.4508 N   0  0  0  0  0  0  0  0  0  0  0  0
    9.2164   -0.3401   21.2752 C   0  0  0  0  0  0  0  0  0  0  0  0
    9.4511   -1.3419   20.6083 O   0  0  0  0  0  0  0  0  0  0  0  0
    8.2711    0.6023   20.9357 N   0  0  0  0  0  0  0  0  0  0  0  0
    7.3882    0.6744   19.8280 C   0  0  0  0  0  0  0  0  0  0  0  0
    6.2167    1.4085   19.9629 C   0  0  0  0  0  0  0  0  0  0  0  0
    5.3348    1.4979   18.9005 C   0  0  0  0  0  0  0  0  0  0  0  0
    5.6483    0.8496   17.7289 C   0  0  0  0  0  0  0  0  0  0  0  0
    6.7631    0.1374   17.5662 N   0  0  0  0  0  0  0  0  0  0  0  0
    7.6090    0.0567   18.5980 C   0  0  0  0  0  0  0  0  0  0  0  0
   12.4475    4.6613   23.5241 C   0  0  0  0  0  0  0  0  0  0  0  0
  1  2  1  0
  2  3  1  0
  3  4  1  0
  4  5  1  0
  5  6  1  0
  6  7  1  0
  7  8  2  0
  8  9  1  0
  9 10  2  0
 10 11  1  0
 11 12  2  0
 12 13  1  0
 13 14  1  0
 14 15  2  0
 14 16  1  0
 16 17  1  0
 17 18  2  0
 18 19  1  0
 19 20  2  0
 20 21  1  0
 21 22  2  0
  4 23  1  0
 23  2  1  0
 12  7  1  0
 22 17  1  0
M  END
