CVD-0001384|dock_bobby27042020.9|mol2|49|dock3
     RDKit          3D

 17 18  0  0  0  0  0  0  0  0999 V2000
   13.9710   -0.9909   22.2681 C   0  0  0  0  0  0  0  0  0  0  0  0
   12.8312   -0.4349   22.9959 N   0  0  0  0  0  0  0  0  0  0  0  0
   12.1931   -1.4328   23.8962 C   0  0  0  0  0  0  0  0  0  0  0  0
   10.8344   -1.9438   23.3936 C   0  0  0  0  0  0  0  0  0  0  0  0
    9.6744   -0.5037   23.0706 Si  0  0  0  0  0  4  0  0  0  0  0  0
    8.6857   -0.7918   21.5165 C   0  0  0  0  0  0  0  0  0  0  0  0
    8.5467   -0.2445   24.5324 C   0  0  0  0  0  0  0  0  0  0  0  0
   10.8203    0.9692   22.8772 C   0  0  0  0  0  0  0  0  0  0  0  0
   10.2616    2.2440   22.7380 C   0  0  0  0  0  0  0  0  0  0  0  0
   11.0551    3.3674   22.6118 C   0  0  0  0  0  0  0  0  0  0  0  0
   12.4319    3.2225   22.6238 C   0  0  0  0  0  0  0  0  0  0  0  0
   13.0306    1.9780   22.7594 C   0  0  0  0  0  0  0  0  0  0  0  0
   12.2212    0.8483   22.8863 C   0  0  0  0  0  0  0  0  0  0  0  0
   13.4578    4.6459   22.4118 S   0  0  0  0  0  0  0  0  0  0  0  0
   12.9835    5.7719   23.4462 N   0  0  0  0  0  0  0  0  0  0  0  0
   13.2182    5.1534   21.0941 O   0  0  0  0  0  0  0  0  0  0  0  0
   14.7909    4.2703   22.7765 O   0  0  0  0  0  0  0  0  0  0  0  0
  1  2  1  0
  2  3  1  0
  3  4  1  0
  4  5  1  0
  5  6  1  0
  5  7  1  0
  5  8  1  0
  8  9  2  0
  9 10  1  0
 10 11  2  0
 11 12  1  0
 12 13  2  0
 11 14  1  0
 14 15  1  0
 14 16  2  0
 14 17  2  0
 13  2  1  0
 13  8  1  0
M  END
