CVD-0000977|dock_bobby27042020.68|mol2|31|dock3
     RDKit          3D

 36 40  0  0  0  0  0  0  0  0999 V2000
    8.0999  -14.0049   33.1214 C   0  0  0  0  0  0  0  0  0  0  0  0
    9.0199  -13.4687   32.1725 O   0  0  0  0  0  0  0  0  0  0  0  0
    8.7493  -12.2809   31.5397 C   0  0  0  0  0  0  0  0  0  0  0  0
    7.9942  -11.2870   32.1402 C   0  0  0  0  0  0  0  0  0  0  0  0
    7.7520  -10.1094   31.4573 C   0  0  0  0  0  0  0  0  0  0  0  0
    8.2440   -9.8801   30.1720 C   0  0  0  0  0  0  0  0  0  0  0  0
    7.8932   -8.5692   29.5854 C   0  0  0  0  0  0  0  0  0  0  0  0
    7.0368   -7.7293   30.0923 N   0  0  0  0  0  0  0  0  0  0  0  0
    7.0355   -6.6538   29.2107 C   0  0  0  0  0  0  0  0  0  0  0  0
    6.3350   -5.4503   29.2011 C   0  0  0  0  0  0  0  0  0  0  0  0
    6.5455   -4.5499   28.1674 C   0  0  0  0  0  0  0  0  0  0  0  0
    7.4471   -4.8286   27.1365 C   0  0  0  0  0  0  0  0  0  0  0  0
    7.6943   -3.9394   26.0607 N   0  0  0  0  0  0  0  0  0  0  0  0
    7.9825   -4.1696   24.7556 C   0  0  0  0  0  0  0  0  0  0  0  0
    8.0903   -5.2716   24.2260 O   0  0  0  0  0  0  0  0  0  0  0  0
    8.1734   -2.9035   23.9483 C   0  0  0  0  0  0  0  0  0  0  0  0
    6.8502   -2.2373   23.5790 C   0  0  0  0  0  0  0  0  0  0  0  0
    7.1263   -0.9491   22.8229 C   0  0  0  0  0  0  0  0  0  0  0  0
    7.8847   -1.2136   21.6045 N   0  0  0  0  0  0  0  0  0  0  0  0
    8.0681    0.0220   20.8287 C   0  0  0  0  0  0  0  0  0  0  0  0
    6.7880    0.4872   20.1692 C   0  0  0  0  0  0  0  0  0  0  0  0
    6.0366    1.5377   20.6626 C   0  0  0  0  0  0  0  0  0  0  0  0
    6.4861    2.1570   21.7781 F   0  0  0  0  0  0  0  0  0  0  0  0
    4.8696    1.9850   20.0902 C   0  0  0  0  0  0  0  0  0  0  0  0
    4.4093    1.3506   18.9486 C   0  0  0  0  0  0  0  0  0  0  0  0
    5.1184    0.2915   18.4073 C   0  0  0  0  0  0  0  0  0  0  0  0
    6.2781   -0.1063   19.0290 C   0  0  0  0  0  0  0  0  0  0  0  0
    6.9702   -1.1413   18.5001 F   0  0  0  0  0  0  0  0  0  0  0  0
    9.1813   -1.7929   21.9726 C   0  0  0  0  0  0  0  0  0  0  0  0
    9.0063   -3.1204   22.6936 C   0  0  0  0  0  0  0  0  0  0  0  0
    8.1448   -6.0338   27.1515 C   0  0  0  0  0  0  0  0  0  0  0  0
    7.9161   -6.9118   28.1922 C   0  0  0  0  0  0  0  0  0  0  0  0
    8.4829   -8.1495   28.4167 O   0  0  0  0  0  0  0  0  0  0  0  0
    9.0024  -10.9003   29.5912 C   0  0  0  0  0  0  0  0  0  0  0  0
    9.7621  -10.7910   27.8562 Br  0  0  0  0  0  0  0  0  0  0  0  0
    9.2513  -12.0827   30.2648 C   0  0  0  0  0  0  0  0  0  0  0  0
  1  2  1  0
  2  3  1  0
  3  4  2  0
  4  5  1  0
  5  6  2  0
  6  7  1  0
  7  8  2  0
  8  9  1  0
  9 10  2  0
 10 11  1  0
 11 12  2  0
 12 13  1  0
 13 14  1  0
 14 15  2  0
 14 16  1  0
 16 17  1  0
 17 18  1  0
 18 19  1  0
 19 20  1  0
 20 21  1  0
 21 22  2  0
 22 23  1  0
 22 24  1  0
 24 25  2  0
 25 26  1  0
 26 27  2  0
 27 28  1  0
 19 29  1  0
 29 30  1  0
 12 31  1  0
 31 32  2  0
 32 33  1  0
  6 34  1  0
 34 35  1  0
 34 36  2  0
 36  3  1  0
 33  7  1  0
 32  9  1  0
 30 16  1  0
 27 21  1  0
M  END
