CVD-0003064|dock_bobby27042020.46|mol2|27|dock2
     RDKit          3D

 24 26  0  0  0  0  0  0  0  0999 V2000
    7.6004   -5.5446   22.2387 C   0  0  0  0  0  0  0  0  0  0  0  0
    8.0326   -4.1850   22.6772 C   0  0  0  0  0  0  0  0  0  0  0  0
    7.9857   -3.7777   23.9018 N   0  0  0  0  0  0  0  0  0  0  0  0
    8.4344   -2.4677   24.0663 N   0  0  0  0  0  0  0  0  0  0  0  0
    8.8019   -1.9337   22.9512 C   0  0  0  0  0  0  0  0  0  0  0  0
    8.6297   -2.9955   21.5666 S   0  0  0  0  0  0  0  0  0  0  0  0
    9.3279   -0.5204   22.8405 C   0  0  0  0  0  0  0  0  0  0  0  0
   10.7646   -0.5195   23.0877 N   0  0  0  0  0  0  0  0  0  0  0  0
   11.4376   -1.4946   22.2436 C   0  0  0  0  0  0  0  0  0  0  0  0
   12.9907   -1.3629   22.3742 C   0  0  0  0  0  0  0  0  0  0  0  0
   13.4455   -1.4146   23.8434 C   0  0  0  0  0  0  0  0  0  0  0  0
   12.6262   -0.4327   24.6790 C   0  0  0  0  0  0  0  0  0  0  0  0
   12.9729   -0.5371   26.0416 F   0  0  0  0  0  0  0  0  0  0  0  0
   11.1370   -0.6790   24.4917 C   0  0  0  0  0  0  0  0  0  0  0  0
    9.0048    0.0996   21.4606 C   0  0  0  0  0  0  0  0  0  0  0  0
    9.8795    0.6864   20.8310 O   0  0  0  0  0  0  0  0  0  0  0  0
    7.7190   -0.0844   21.0699 N   0  0  0  0  0  0  0  0  0  0  0  0
    7.0462    0.3246   19.8850 C   0  0  0  0  0  0  0  0  0  0  0  0
    7.6174    0.2950   18.6127 C   0  0  0  0  0  0  0  0  0  0  0  0
    6.9855    0.6784   17.4989 N   0  0  0  0  0  0  0  0  0  0  0  0
    5.7345    1.1141   17.6173 C   0  0  0  0  0  0  0  0  0  0  0  0
    5.0741    1.1855   18.8233 C   0  0  0  0  0  0  0  0  0  0  0  0
    5.7213    0.7903   19.9902 C   0  0  0  0  0  0  0  0  0  0  0  0
    4.9705    0.8770   21.2941 C   0  0  0  0  0  0  0  0  0  0  0  0
  1  2  1  0
  2  3  2  0
  3  4  1  0
  4  5  2  0
  5  6  1  0
  5  7  1  0
  7  8  1  0
  8  9  1  0
  9 10  1  0
 10 11  1  0
 11 12  1  0
 12 13  1  0
 12 14  1  0
  7 15  1  0
 15 16  2  0
 15 17  1  0
 17 18  1  0
 18 19  2  0
 19 20  1  0
 20 21  2  0
 21 22  1  0
 22 23  2  0
 23 24  1  0
  6  2  1  0
 14  8  1  0
 23 18  1  0
M  END
