CVD-0001363|dock_bobby27042020.38|mol2|24|dock1
     RDKit          3D

 26 29  0  0  0  0  0  0  0  0999 V2000
   10.6513   -0.8022   25.0314 C   0  0  0  0  0  0  0  0  0  0  0  0
   11.0209   -1.2907   23.6135 C   0  0  0  0  0  0  0  0  0  0  0  0
   10.8702   -2.8166   23.5510 C   0  0  0  0  0  0  0  0  0  0  0  0
    9.3892   -3.2136   23.5962 C   0  0  0  0  0  0  0  0  0  0  0  0
    8.5542   -2.5549   22.4779 C   0  0  0  0  0  0  0  0  0  0  0  0
    8.6451   -1.0086   22.5001 C   0  0  0  0  0  0  0  0  0  0  0  0
    7.9175   -0.3923   23.6281 N   0  0  0  0  0  0  0  0  0  0  0  0
    7.9930   -0.4562   21.2251 C   0  0  0  0  0  0  0  0  0  0  0  0
    6.5603   -0.9485   21.0498 C   0  0  0  0  0  0  0  0  0  0  0  0
    6.4843   -2.4479   21.0933 C   0  0  0  0  0  0  0  0  0  0  0  0
    6.0139   -3.1544   20.0547 C   0  0  0  0  0  0  0  0  0  0  0  0
    6.3163   -4.5716   19.8899 C   0  0  0  0  0  0  0  0  0  0  0  0
    6.0486   -5.1913   18.8568 O   0  0  0  0  0  0  0  0  0  0  0  0
    6.8274   -5.2682   21.0689 C   0  0  0  0  0  0  0  0  0  0  0  0
    7.1540   -4.6044   22.1702 C   0  0  0  0  0  0  0  0  0  0  0  0
    7.0989   -3.1081   22.3201 C   0  0  0  0  0  0  0  0  0  0  0  0
    6.1436   -2.8521   23.5216 C   0  0  0  0  0  0  0  0  0  0  0  0
   10.1520   -0.6768   22.4976 C   0  0  0  0  0  0  0  0  0  0  0  0
   10.5910    0.7948   22.4632 C   0  0  0  0  0  0  0  0  0  0  0  0
   12.0857    0.7579   22.8704 C   0  0  0  0  0  0  0  0  0  0  0  0
   12.4148   -0.7088   23.1977 C   0  0  0  0  0  0  0  0  0  0  0  0
   12.8257   -1.4224   22.0254 O   0  0  0  0  0  0  0  0  0  0  0  0
   13.4834   -0.8798   24.2898 C   0  0  0  0  0  0  0  0  0  0  0  0
   13.8218    0.0849   24.9365 O   0  0  0  0  0  0  0  0  0  0  0  0
   14.1559   -2.1930   24.6297 C   0  0  0  0  0  0  0  0  0  0  0  0
   13.9967   -2.6382   25.9643 O   0  0  0  0  0  0  0  0  0  0  0  0
  1  2  1  0
  2  3  1  0
  3  4  1  0
  4  5  1  0
  5  6  1  0
  6  7  1  0
  6  8  1  0
  8  9  1  0
  9 10  1  0
 10 11  2  0
 11 12  1  0
 12 13  2  0
 12 14  1  0
 14 15  2  0
 15 16  1  0
 16 17  1  0
  6 18  1  0
 18 19  1  0
 19 20  1  0
 20 21  1  0
 21 22  1  0
 21 23  1  0
 23 24  2  0
 23 25  1  0
 25 26  1  0
 18  2  1  0
 21  2  1  0
 16  5  1  0
 16 10  1  0
M  END
