CVD-0001514|dock_bobby27042020.9|mol2|27|dock1
     RDKit          3D

 34 38  0  0  0  0  0  0  0  0999 V2000
    4.3016   -6.4709   23.6898 C   0  0  0  0  0  0  0  0  0  0  0  0
    5.0815   -6.3808   24.9789 C   0  0  0  0  0  0  0  0  0  0  0  0
    4.4554   -6.5176   26.2063 C   0  0  0  0  0  0  0  0  0  0  0  0
    5.1718   -6.4374   27.3863 C   0  0  0  0  0  0  0  0  0  0  0  0
    6.5476   -6.2180   27.4029 C   0  0  0  0  0  0  0  0  0  0  0  0
    7.2733   -6.1393   28.7200 C   0  0  0  0  0  0  0  0  0  0  0  0
    7.1745   -6.0837   26.1552 C   0  0  0  0  0  0  0  0  0  0  0  0
    6.4503   -6.1638   24.9724 C   0  0  0  0  0  0  0  0  0  0  0  0
    8.9256   -5.8007   26.0218 S   0  0  0  0  0  0  0  0  0  0  0  0
    9.4037   -5.4558   27.3245 O   0  0  0  0  0  0  0  0  0  0  0  0
    9.4968   -6.9135   25.3287 O   0  0  0  0  0  0  0  0  0  0  0  0
    9.1336   -4.5024   25.0553 N   0  0  0  0  0  0  0  0  0  0  0  0
   10.4270   -4.3770   24.3687 C   0  0  0  0  0  0  0  0  0  0  0  0
   10.2635   -3.4833   23.1797 C   0  0  0  0  0  0  0  0  0  0  0  0
    9.7131   -2.1978   23.5767 N   0  0  0  0  0  0  0  0  0  0  0  0
    8.4637   -2.2915   24.3383 C   0  0  0  0  0  0  0  0  0  0  0  0
    8.6339   -3.1999   25.5199 C   0  0  0  0  0  0  0  0  0  0  0  0
   10.3367   -1.0331   23.2047 C   0  0  0  0  0  0  0  0  0  0  0  0
   11.5107   -1.0883   22.8742 O   0  0  0  0  0  0  0  0  0  0  0  0
    9.7148    0.1901   23.1823 N   0  0  0  0  0  0  0  0  0  0  0  0
    8.2605    0.3950   23.1344 C   0  0  0  0  0  0  0  0  0  0  0  0
    7.9181    1.4633   22.1162 C   0  0  0  0  0  0  0  0  0  0  0  0
    8.6560    2.7584   22.4306 C   0  0  0  0  0  0  0  0  0  0  0  0
   10.1482    2.4921   22.5092 C   0  0  0  0  0  0  0  0  0  0  0  0
   10.4782    1.3974   23.5122 C   0  0  0  0  0  0  0  0  0  0  0  0
   10.9114    3.7355   22.8595 C   0  0  0  0  0  0  0  0  0  0  0  0
   10.6782    4.4267   23.9305 N   0  0  0  0  0  0  0  0  0  0  0  0
   11.5264    5.5286   24.0085 C   0  0  0  0  0  0  0  0  0  0  0  0
   11.5674    6.4942   25.0163 C   0  0  0  0  0  0  0  0  0  0  0  0
   12.4815    7.5338   24.9379 C   0  0  0  0  0  0  0  0  0  0  0  0
   13.3563    7.6325   23.8762 C   0  0  0  0  0  0  0  0  0  0  0  0
   13.3353    6.6881   22.8650 C   0  0  0  0  0  0  0  0  0  0  0  0
   12.4203    5.6420   22.9375 C   0  0  0  0  0  0  0  0  0  0  0  0
   12.1817    4.3340   21.8169 S   0  0  0  0  0  0  0  0  0  0  0  0
  1  2  1  0
  2  3  2  0
  3  4  1  0
  4  5  2  0
  5  6  1  0
  5  7  1  0
  7  8  2  0
  7  9  1  0
  9 10  2  0
  9 11  2  0
  9 12  1  0
 12 13  1  0
 13 14  1  0
 14 15  1  0
 15 16  1  0
 16 17  1  0
 15 18  1  0
 18 19  2  0
 18 20  1  0
 20 21  1  0
 21 22  1  0
 22 23  1  0
 23 24  1  0
 24 25  1  0
 24 26  1  0
 26 27  2  0
 27 28  1  0
 28 29  2  0
 29 30  1  0
 30 31  2  0
 31 32  1  0
 32 33  2  0
 33 34  1  0
  8  2  1  0
 17 12  1  0
 25 20  1  0
 34 26  1  0
 33 28  1  0
M  END
