CVD-0003442|dock_bobby27042020.88|mol2|4|dock1
     RDKit          3D

 20 22  0  0  0  0  0  0  0  0999 V2000
    8.9605   -0.3002   17.5919 F   0  0  0  0  0  0  0  0  0  0  0  0
    7.8802    0.0853   18.2737 C   0  0  0  0  0  0  0  0  0  0  0  0
    6.9226    0.6356   17.5076 N   0  0  0  0  0  0  0  0  0  0  0  0
    5.8294    1.0448   18.0711 C   0  0  0  0  0  0  0  0  0  0  0  0
    5.6454    0.9229   19.4199 N   0  0  0  0  0  0  0  0  0  0  0  0
    4.5198    1.3324   20.0791 N   0  0  0  0  0  0  0  0  0  0  0  0
    4.7496    1.0352   21.3507 C   0  0  0  0  0  0  0  0  0  0  0  0
    5.9897    0.4421   21.5584 C   0  0  0  0  0  0  0  0  0  0  0  0
    6.5867    0.3690   20.2593 C   0  0  0  0  0  0  0  0  0  0  0  0
    7.8039   -0.0865   19.6291 C   0  0  0  0  0  0  0  0  0  0  0  0
    8.9174   -0.6904   20.2825 N   0  0  0  0  0  0  0  0  0  0  0  0
    9.3740   -0.6284   21.5719 C   0  0  0  0  0  0  0  0  0  0  0  0
    8.8867    0.0026   22.4964 O   0  0  0  0  0  0  0  0  0  0  0  0
   10.6178   -1.4543   21.8168 C   0  0  0  0  0  0  0  0  0  0  0  0
   11.2234   -1.2888   23.2156 C   0  0  0  0  0  0  0  0  0  0  0  0
   12.2959   -2.3631   23.4891 C   0  0  0  0  0  0  0  0  0  0  0  0
   12.9702   -2.1812   24.8477 C   0  0  0  0  0  0  0  0  0  0  0  0
   13.5404   -0.7770   25.0003 C   0  0  0  0  0  0  0  0  0  0  0  0
   12.4710    0.2791   24.7607 C   0  0  0  0  0  0  0  0  0  0  0  0
   11.8306    0.1141   23.3863 C   0  0  0  0  0  0  0  0  0  0  0  0
  1  2  1  0
  2  3  1  0
  3  4  2  0
  4  5  1  0
  5  6  1  0
  6  7  2  0
  7  8  1  0
  8  9  2  0
  9 10  1  0
 10 11  1  0
 11 12  1  0
 12 13  2  0
 12 14  1  0
 14 15  1  0
 15 16  1  0
 16 17  1  0
 17 18  1  0
 18 19  1  0
 19 20  1  0
 10  2  2  0
 20 15  1  0
  9  5  1  0
M  END
