CVD-0001807|dock_bobby27042020.80|mol2|4|dock1
     RDKit          3D

 22 24  0  0  0  0  0  0  0  0999 V2000
    7.2467    0.5979   21.6016 C   0  0  0  0  0  0  0  0  0  0  0  0
    6.7585   -0.4066   20.5911 C   0  0  0  0  0  0  0  0  0  0  0  0
    5.6868   -0.1048   19.7560 C   0  0  0  0  0  0  0  0  0  0  0  0
    5.2689   -1.0331   18.8246 C   0  0  0  0  0  0  0  0  0  0  0  0
    5.8404   -2.2265   18.6658 N   0  0  0  0  0  0  0  0  0  0  0  0
    6.8676   -2.5265   19.4668 C   0  0  0  0  0  0  0  0  0  0  0  0
    7.3471   -1.6593   20.4367 C   0  0  0  0  0  0  0  0  0  0  0  0
    8.4639   -2.0478   21.2737 N   0  0  0  0  0  0  0  0  0  0  0  0
    8.3622   -3.0613   22.2431 C   0  0  0  0  0  0  0  0  0  0  0  0
    7.0271   -3.7433   22.4206 C   0  0  0  0  0  0  0  0  0  0  0  0
    6.9410   -4.6034   23.7232 C   0  0  0  0  0  0  0  0  0  0  0  0
    8.3011   -5.3661   23.9373 C   0  0  0  0  0  0  0  0  0  0  0  0
    9.4100   -4.4097   23.9964 N   0  0  0  0  0  0  0  0  0  0  0  0
   10.4503   -4.5494   25.0007 C   0  0  0  0  0  0  0  0  0  0  0  0
    9.9782   -5.3193   26.1880 C   0  0  0  0  0  0  0  0  0  0  0  0
    9.2914   -4.6917   27.0304 N   0  0  0  0  0  0  0  0  0  0  0  0
   10.2602   -6.5941   26.3446 N   0  0  0  0  0  0  0  0  0  0  0  0
    9.4531   -3.4033   22.9911 C   0  0  0  0  0  0  0  0  0  0  0  0
   10.6732   -2.7210   22.7692 C   0  0  0  0  0  0  0  0  0  0  0  0
   10.7820   -1.7449   21.8397 C   0  0  0  0  0  0  0  0  0  0  0  0
    9.6682   -1.3496   21.0302 C   0  0  0  0  0  0  0  0  0  0  0  0
    9.7197   -0.5130   20.1306 O   0  0  0  0  0  0  0  0  0  0  0  0
  1  2  1  0
  2  3  2  0
  3  4  1  0
  4  5  2  0
  5  6  1  0
  6  7  2  0
  7  8  1  0
  8  9  1  0
  9 10  1  0
 10 11  1  0
 11 12  1  0
 12 13  1  0
 13 14  1  0
 14 15  1  0
 15 16  1  0
 15 17  2  0
 13 18  1  0
 18 19  1  0
 19 20  2  0
 20 21  1  0
 21 22  2  0
  7  2  1  0
 21  8  1  0
 18  9  2  0
M  END
