CVD-0000486|dock_bobby27042020.98|mol2|23|dock2
     RDKit          3D

 23 25  0  0  0  0  0  0  0  0999 V2000
   14.2176   -2.4106   24.1722 Cl  0  0  0  0  0  0  0  0  0  0  0  0
   12.7990   -1.7109   23.4439 C   0  0  0  0  0  0  0  0  0  0  0  0
   11.9132   -2.5187   22.7706 C   0  0  0  0  0  0  0  0  0  0  0  0
   10.7735   -1.9518   22.2321 C   0  0  0  0  0  0  0  0  0  0  0  0
   10.4930   -0.5914   22.3457 C   0  0  0  0  0  0  0  0  0  0  0  0
    9.1721   -0.0803   21.8175 C   0  0  0  0  0  0  0  0  0  0  0  0
    8.7897   -0.6271   20.5222 N   0  0  0  0  0  0  0  0  0  0  0  0
    7.5781   -0.4928   19.9690 C   0  0  0  0  0  0  0  0  0  0  0  0
    7.1959   -0.9897   18.7687 C   0  0  0  0  0  0  0  0  0  0  0  0
    5.8116   -0.6349   18.4883 C   0  0  0  0  0  0  0  0  0  0  0  0
    5.3566    0.0859   19.5530 C   0  0  0  0  0  0  0  0  0  0  0  0
    6.4219    0.2359   20.5403 C   0  0  0  0  0  0  0  0  0  0  0  0
   11.4557    0.2305   22.9688 C   0  0  0  0  0  0  0  0  0  0  0  0
   12.5827   -0.3538   23.5494 C   0  0  0  0  0  0  0  0  0  0  0  0
   11.4084    1.7292   23.0936 C   0  0  0  0  0  0  0  0  0  0  0  0
   10.3479    2.2358   23.4445 O   0  0  0  0  0  0  0  0  0  0  0  0
   12.5411    2.4369   22.8334 N   0  0  0  0  0  0  0  0  0  0  0  0
   12.7777    3.8354   22.8093 C   0  0  0  0  0  0  0  0  0  0  0  0
   11.8774    4.7863   23.2868 C   0  0  0  0  0  0  0  0  0  0  0  0
   12.1920    6.1342   23.2305 C   0  0  0  0  0  0  0  0  0  0  0  0
   13.3921    6.5526   22.6995 C   0  0  0  0  0  0  0  0  0  0  0  0
   14.2864    5.6218   22.2200 C   0  0  0  0  0  0  0  0  0  0  0  0
   13.9841    4.2718   22.2729 C   0  0  0  0  0  0  0  0  0  0  0  0
  1  2  1  0
  2  3  2  0
  3  4  1  0
  4  5  2  0
  5  6  1  0
  6  7  1  0
  7  8  1  0
  8  9  2  0
  9 10  1  0
 10 11  2  0
 11 12  1  0
  5 13  1  0
 13 14  2  0
 13 15  1  0
 15 16  2  0
 15 17  1  0
 17 18  1  0
 18 19  2  0
 19 20  1  0
 20 21  2  0
 21 22  1  0
 22 23  2  0
 14  2  1  0
 23 18  1  0
 12  8  1  0
M  END
