CVD-0001291|dock_bobby27042020.10|mol2|13|dock2
     RDKit          3D

 19 20  0  0  0  0  0  0  0  0999 V2000
   14.7298   -2.4291   25.4961 C   0  0  0  0  0  0  0  0  0  0  0  0
   13.7002   -2.4576   24.4735 N   0  0  0  0  0  0  0  0  0  0  0  0
   12.5716   -1.7804   24.6147 C   0  0  0  0  0  0  0  0  0  0  0  0
   12.2757   -1.0891   25.5666 O   0  0  0  0  0  0  0  0  0  0  0  0
   11.7872   -1.9771   23.5342 O   0  0  0  0  0  0  0  0  0  0  0  0
   10.5164   -1.2562   23.4578 C   0  0  0  0  0  0  0  0  0  0  0  0
    9.5777   -1.8240   22.3955 C   0  0  0  0  0  0  0  0  0  0  0  0
    8.3098   -1.0069   22.2512 C   0  0  0  0  0  0  0  0  0  0  0  0
    8.6256    0.4072   22.0254 N   0  0  0  0  0  0  0  0  0  0  0  0
    9.4239    0.9914   23.0971 C   0  0  0  0  0  0  0  0  0  0  0  0
   10.7274    0.2334   23.2191 C   0  0  0  0  0  0  0  0  0  0  0  0
    8.1611    1.1665   21.0056 C   0  0  0  0  0  0  0  0  0  0  0  0
    8.4734    2.3439   20.9568 O   0  0  0  0  0  0  0  0  0  0  0  0
    7.2601    0.6807   19.9016 C   0  0  0  0  0  0  0  0  0  0  0  0
    6.0737    1.3791   19.6947 C   0  0  0  0  0  0  0  0  0  0  0  0
    5.1728    0.9923   18.7169 C   0  0  0  0  0  0  0  0  0  0  0  0
    5.4394   -0.0998   17.9221 C   0  0  0  0  0  0  0  0  0  0  0  0
    6.6158   -0.7941   18.0959 C   0  0  0  0  0  0  0  0  0  0  0  0
    7.5266   -0.4028   19.0635 C   0  0  0  0  0  0  0  0  0  0  0  0
  1  2  1  0
  2  3  1  0
  3  4  2  0
  3  5  1  0
  5  6  1  0
  6  7  1  0
  7  8  1  0
  8  9  1  0
  9 10  1  0
 10 11  1  0
  9 12  1  0
 12 13  2  0
 12 14  1  0
 14 15  2  0
 15 16  1  0
 16 17  2  0
 17 18  1  0
 18 19  2  0
 11  6  1  0
 19 14  1  0
M  END
