CVD-0001379|dock_bobby27042020.9|mol2|50|dock1
     RDKit          3D

 41 44  0  0  0  0  0  0  0  0999 V2000
    7.4765   -7.4636   33.2763 C   0  0  0  0  0  0  0  0  0  0  0  0
    5.9657   -7.4682   33.1567 C   0  0  0  0  0  0  0  0  0  0  0  0
    5.4038   -6.1279   33.5838 C   0  0  0  0  0  0  0  0  0  0  0  0
    5.3562   -8.5793   33.9876 C   0  0  0  0  0  0  0  0  0  0  0  0
    5.5959   -7.6711   31.7360 O   0  0  0  0  0  0  0  0  0  0  0  0
    5.9897   -6.8462   30.7490 C   0  0  0  0  0  0  0  0  0  0  0  0
    6.6897   -5.8653   30.8780 O   0  0  0  0  0  0  0  0  0  0  0  0
    5.4535   -7.3201   29.5739 N   0  0  0  0  0  0  0  0  0  0  0  0
    5.6125   -6.7578   28.2865 C   0  0  0  0  0  0  0  0  0  0  0  0
    4.6545   -6.3923   27.3813 C   0  0  0  0  0  0  0  0  0  0  0  0
    5.0025   -5.8410   26.1288 C   0  0  0  0  0  0  0  0  0  0  0  0
    6.3086   -5.6460   25.7630 C   0  0  0  0  0  0  0  0  0  0  0  0
    7.2805   -6.0120   26.6745 N   0  0  0  0  0  0  0  0  0  0  0  0
    7.0351   -6.5591   27.9215 C   0  0  0  0  0  0  0  0  0  0  0  0
    7.9600   -6.8579   28.6756 O   0  0  0  0  0  0  0  0  0  0  0  0
    6.7186   -5.0725   24.4645 C   0  0  0  0  0  0  0  0  0  0  0  0
    6.0957   -5.4103   23.2628 C   0  0  0  0  0  0  0  0  0  0  0  0
    6.5146   -4.8545   22.0660 C   0  0  0  0  0  0  0  0  0  0  0  0
    7.5553   -3.9443   22.0465 C   0  0  0  0  0  0  0  0  0  0  0  0
    8.1890   -3.5851   23.2234 C   0  0  0  0  0  0  0  0  0  0  0  0
    9.3226   -2.5845   23.2152 C   0  0  0  0  0  0  0  0  0  0  0  0
    9.1668   -1.5452   22.1229 C   0  0  0  0  0  0  0  0  0  0  0  0
    9.5492   -1.7522   20.9754 O   0  0  0  0  0  0  0  0  0  0  0  0
    8.5978   -0.3969   22.4964 N   0  0  0  0  0  0  0  0  0  0  0  0
    8.3914    0.6947   21.5594 C   0  0  0  0  0  0  0  0  0  0  0  0
    6.9026    0.9687   21.3330 C   0  0  0  0  0  0  0  0  0  0  0  0
    6.2300    0.1494   20.2217 C   0  0  0  0  0  0  0  0  0  0  0  0
    6.8494    0.3313   18.8215 C   0  0  0  0  0  0  0  0  0  0  0  0
    5.6707    0.3769   17.8578 C   0  0  0  0  0  0  0  0  0  0  0  0
    4.5494    0.6840   18.7253 N   0  0  0  0  0  0  0  0  0  0  0  0
    4.7823    0.5190   20.0297 C   0  0  0  0  0  0  0  0  0  0  0  0
    3.9570    0.6825   20.9245 O   0  0  0  0  0  0  0  0  0  0  0  0
    9.0923    1.9453   22.0804 C   0  0  0  0  0  0  0  0  0  0  0  0
    8.4827    2.9715   22.3270 O   0  0  0  0  0  0  0  0  0  0  0  0
   10.6156    1.8633   22.2994 C   0  0  0  0  0  0  0  0  0  0  0  0
   11.2144    0.7894   22.2659 O   0  0  0  0  0  0  0  0  0  0  0  0
   11.2033    3.0444   22.5230 N   0  0  0  0  0  0  0  0  0  0  0  0
   12.6403    3.1904   22.7551 C   0  0  0  0  0  0  0  0  0  0  0  0
   12.9940    4.3058   21.6001 C   0  0  0  0  0  0  0  0  0  0  0  0
   13.5550    4.4236   22.9711 C   0  0  0  0  0  0  0  0  0  0  0  0
    7.7665   -4.1542   24.4180 C   0  0  0  0  0  0  0  0  0  0  0  0
  1  2  1  0
  2  3  1  0
  2  4  1  0
  2  5  1  0
  5  6  1  0
  6  7  2  0
  6  8  1  0
  8  9  1  0
  9 10  2  0
 10 11  1  0
 11 12  2  0
 12 13  1  0
 13 14  1  0
 14 15  2  0
 12 16  1  0
 16 17  2  0
 17 18  1  0
 18 19  2  0
 19 20  1  0
 20 21  1  0
 21 22  1  0
 22 23  2  0
 22 24  1  0
 24 25  1  0
 25 26  1  0
 27 26  1  0
 27 28  1  0
 28 29  1  0
 29 30  1  0
 30 31  1  0
 31 32  2  0
 25 33  1  0
 33 34  2  0
 33 35  1  0
 35 36  2  0
 35 37  1  0
 37 38  1  0
 38 39  1  0
 39 40  1  0
 20 41  2  0
 14  9  1  0
 41 16  1  0
 31 27  1  0
 40 38  1  0
M  END
