CVD-0003648|dock_bobby27042020.1|mol2|23|dock1
     RDKit          3D

 31 34  0  0  0  0  0  0  0  0999 V2000
   15.4591    5.6311   22.9893 O   0  0  0  0  0  0  0  0  0  0  0  0
   14.3265    6.0397   22.7413 N   0  0  0  0  0  0  0  0  0  0  0  0
   14.0475    7.2130   22.5618 O   0  0  0  0  0  0  0  0  0  0  0  0
   13.2421    5.0525   22.6562 C   0  0  0  0  0  0  0  0  0  0  0  0
   13.5339    3.7437   22.3188 C   0  0  0  0  0  0  0  0  0  0  0  0
   12.5125    2.8224   22.1874 C   0  0  0  0  0  0  0  0  0  0  0  0
   11.1896    3.2075   22.3905 C   0  0  0  0  0  0  0  0  0  0  0  0
   10.9057    4.5151   22.8443 C   0  0  0  0  0  0  0  0  0  0  0  0
   11.9401    5.4437   22.9191 C   0  0  0  0  0  0  0  0  0  0  0  0
    9.5820    4.9586   23.2590 N   0  0  0  0  0  0  0  0  0  0  0  0
    8.8002    4.1064   23.6763 O   0  0  0  0  0  0  0  0  0  0  0  0
    9.2596    6.1260   23.1275 O   0  0  0  0  0  0  0  0  0  0  0  0
   10.2128    2.1946   22.1098 N   0  0  0  0  0  0  0  0  0  0  0  0
    8.9842    2.6568   21.6677 N   0  0  0  0  0  0  0  0  0  0  0  0
    8.2565    1.5590   21.4396 C   0  0  0  0  0  0  0  0  0  0  0  0
    8.9859    0.4021   21.7505 C   0  0  0  0  0  0  0  0  0  0  0  0
   10.2256    0.8191   22.1935 C   0  0  0  0  0  0  0  0  0  0  0  0
   11.3173   -0.0666   22.6546 C   0  0  0  0  0  0  0  0  0  0  0  0
   11.7214   -1.1967   21.9495 C   0  0  0  0  0  0  0  0  0  0  0  0
   12.7192   -2.0225   22.4367 C   0  0  0  0  0  0  0  0  0  0  0  0
   13.3422   -1.6988   23.6223 C   0  0  0  0  0  0  0  0  0  0  0  0
   14.7112   -2.8296   24.2964 Br  0  0  0  0  0  0  0  0  0  0  0  0
   12.9899   -0.5683   24.3264 C   0  0  0  0  0  0  0  0  0  0  0  0
   11.9807    0.2418   23.8375 C   0  0  0  0  0  0  0  0  0  0  0  0
    6.8798    1.6712   20.9330 C   0  0  0  0  0  0  0  0  0  0  0  0
    6.1520    2.8424   21.1101 C   0  0  0  0  0  0  0  0  0  0  0  0
    4.8571    2.9523   20.6352 C   0  0  0  0  0  0  0  0  0  0  0  0
    4.2891    1.8823   19.9794 C   0  0  0  0  0  0  0  0  0  0  0  0
    2.6596    2.0151   19.3797 Cl  0  0  0  0  0  0  0  0  0  0  0  0
    4.9857    0.7092   19.7891 C   0  0  0  0  0  0  0  0  0  0  0  0
    6.2800    0.6080   20.2672 C   0  0  0  0  0  0  0  0  0  0  0  0
  1  2  1  0
  2  3  2  0
  2  4  1  0
  4  5  2  0
  5  6  1  0
  6  7  2  0
  7  8  1  0
  8  9  2  0
  8 10  1  0
 10 11  1  0
 10 12  2  0
  7 13  1  0
 13 14  1  0
 14 15  2  0
 15 16  1  0
 16 17  2  0
 17 18  1  0
 18 19  2  0
 19 20  1  0
 20 21  2  0
 21 22  1  0
 21 23  1  0
 23 24  2  0
 15 25  1  0
 25 26  2  0
 26 27  1  0
 27 28  2  0
 28 29  1  0
 28 30  1  0
 30 31  2  0
  9  4  1  0
 17 13  1  0
 24 18  1  0
 31 25  1  0
M  CHG  4   1  -1   2   1  10   1  11  -1
M  END
