CVD-0001641|dock_bobby27042020.66|mol2|29|dock1
     RDKit          3D

 16 17  0  0  0  0  0  0  0  0999 V2000
   13.5492   -1.6636   21.1153 C   0  0  0  0  0  0  0  0  0  0  0  0
   12.4051   -2.0443   22.0415 C   0  0  0  0  0  0  0  0  0  0  0  0
   12.9181   -2.7690   23.1997 N   0  0  0  0  0  0  0  0  0  0  0  0
   13.8228   -1.8811   23.9271 C   0  0  0  0  0  0  0  0  0  0  0  0
   13.0794   -0.6663   24.4264 C   0  0  0  0  0  0  0  0  0  0  0  0
   12.4078    0.0300   23.3273 N   0  0  0  0  0  0  0  0  0  0  0  0
   11.5983   -0.8528   22.4837 C   0  0  0  0  0  0  0  0  0  0  0  0
   10.2926   -1.2769   23.1410 C   0  0  0  0  0  0  0  0  0  0  0  0
   12.6174    1.3687   22.9506 C   0  0  0  0  0  0  0  0  0  0  0  0
   11.5511    2.2440   22.7598 C   0  0  0  0  0  0  0  0  0  0  0  0
   11.7826    3.5578   22.3979 C   0  0  0  0  0  0  0  0  0  0  0  0
   13.0980    3.9695   22.2282 C   0  0  0  0  0  0  0  0  0  0  0  0
   14.1478    3.1475   22.3999 N   0  0  0  0  0  0  0  0  0  0  0  0
   13.8938    1.8817   22.7537 C   0  0  0  0  0  0  0  0  0  0  0  0
   13.4023    5.3355   21.8495 C   0  0  0  0  0  0  0  0  0  0  0  0
   13.6716    6.4112   21.5752 N   0  0  0  0  0  0  0  0  0  0  0  0
  1  2  1  0
  2  3  1  0
  3  4  1  0
  4  5  1  0
  5  6  1  0
  6  7  1  0
  7  8  1  0
  6  9  1  0
  9 10  2  0
 10 11  1  0
 11 12  2  0
 12 13  1  0
 13 14  2  0
 12 15  1  0
 15 16  3  0
  7  2  1  0
 14  9  1  0
M  END
