CVD-0001941|dock_bobby27042020.7|mol2|49|dock2
     RDKit          3D

 23 25  0  0  0  0  0  0  0  0999 V2000
   14.2751    6.0023   21.7671 C   0  0  0  0  0  0  0  0  0  0  0  0
   13.4653    5.1399   22.6314 N   0  0  0  0  0  0  0  0  0  0  0  0
   12.2385    4.6340   22.0065 C   0  0  0  0  0  0  0  0  0  0  0  0
   11.9806    3.1954   22.3700 C   0  0  0  0  0  0  0  0  0  0  0  0
   12.9569    2.2166   22.6204 C   0  0  0  0  0  0  0  0  0  0  0  0
   12.3486    1.0061   22.9147 C   0  0  0  0  0  0  0  0  0  0  0  0
   13.0316   -0.2796   23.2278 C   0  0  0  0  0  0  0  0  0  0  0  0
   13.1537   -1.2928   22.2708 C   0  0  0  0  0  0  0  0  0  0  0  0
   13.8042   -2.4812   22.5578 C   0  0  0  0  0  0  0  0  0  0  0  0
   14.3294   -2.7077   23.8088 C   0  0  0  0  0  0  0  0  0  0  0  0
   14.2114   -1.7385   24.7865 C   0  0  0  0  0  0  0  0  0  0  0  0
   13.5786   -0.5580   24.4769 C   0  0  0  0  0  0  0  0  0  0  0  0
   13.5129    0.3569   25.4711 F   0  0  0  0  0  0  0  0  0  0  0  0
   10.9670    1.2260   22.8544 N   0  0  0  0  0  0  0  0  0  0  0  0
   10.7675    2.5460   22.5129 C   0  0  0  0  0  0  0  0  0  0  0  0
    9.8333    0.2923   23.0341 C   0  0  0  0  0  0  0  0  0  0  0  0
    8.7945    0.5684   21.9520 C   0  0  0  0  0  0  0  0  0  0  0  0
    9.2406    0.4017   24.4326 C   0  0  0  0  0  0  0  0  0  0  0  0
    9.2955   -0.6822   25.2988 C   0  0  0  0  0  0  0  0  0  0  0  0
    8.7670   -0.6014   26.5762 C   0  0  0  0  0  0  0  0  0  0  0  0
    8.1750    0.5657   27.0074 C   0  0  0  0  0  0  0  0  0  0  0  0
    8.1099    1.6504   26.1598 C   0  0  0  0  0  0  0  0  0  0  0  0
    8.6365    1.5696   24.8813 C   0  0  0  0  0  0  0  0  0  0  0  0
  1  2  1  0
  2  3  1  0
  3  4  1  0
  4  5  1  0
  5  6  2  0
  6  7  1  0
  7  8  2  0
  8  9  1  0
  9 10  2  0
 10 11  1  0
 11 12  2  0
 12 13  1  0
  6 14  1  0
 14 15  1  0
 14 16  1  0
 16 17  1  0
 16 18  1  0
 18 19  2  0
 19 20  1  0
 20 21  2  0
 21 22  1  0
 22 23  2  0
 15  4  2  0
 23 18  1  0
 12  7  1  0
M  END
