CVD-0002720|dock_bobby27042020.47|mol2|31|dock1
     RDKit          3D

 18 19  0  0  0  0  0  0  0  0999 V2000
   15.0562   -2.4366   25.3523 Cl  0  0  0  0  0  0  0  0  0  0  0  0
   13.3374   -2.7712   25.5996 C   0  0  0  0  0  0  0  0  0  0  0  0
   12.5853   -2.8111   24.2836 C   0  0  0  0  0  0  0  0  0  0  0  0
   12.0468   -3.8368   23.8865 O   0  0  0  0  0  0  0  0  0  0  0  0
   12.5445   -1.6654   23.5734 N   0  0  0  0  0  0  0  0  0  0  0  0
   11.8537   -1.5527   22.2870 C   0  0  0  0  0  0  0  0  0  0  0  0
   10.8609   -0.4055   22.3172 C   0  0  0  0  0  0  0  0  0  0  0  0
   11.5463    0.8504   22.6356 N   0  0  0  0  0  0  0  0  0  0  0  0
   10.5959    1.9711   22.6270 C   0  0  0  0  0  0  0  0  0  0  0  0
   11.2657    3.3133   22.7980 C   0  0  0  0  0  0  0  0  0  0  0  0
   10.5683    4.3923   23.3179 C   0  0  0  0  0  0  0  0  0  0  0  0
   11.1843    5.6225   23.4775 C   0  0  0  0  0  0  0  0  0  0  0  0
   12.5111    5.7902   23.1185 C   0  0  0  0  0  0  0  0  0  0  0  0
   13.1997    4.7139   22.6035 C   0  0  0  0  0  0  0  0  0  0  0  0
   14.8692    4.9086   22.1479 Cl  0  0  0  0  0  0  0  0  0  0  0  0
   12.5968    3.4837   22.4400 C   0  0  0  0  0  0  0  0  0  0  0  0
   12.1810    0.7281   23.9455 C   0  0  0  0  0  0  0  0  0  0  0  0
   13.1914   -0.4046   23.9498 C   0  0  0  0  0  0  0  0  0  0  0  0
  1  2  1  0
  2  3  1  0
  3  4  2  0
  3  5  1  0
  5  6  1  0
  6  7  1  0
  7  8  1  0
  8  9  1  0
  9 10  1  0
 10 11  2  0
 11 12  1  0
 12 13  2  0
 13 14  1  0
 14 15  1  0
 14 16  2  0
  8 17  1  0
 17 18  1  0
 18  5  1  0
 16 10  1  0
M  END
