CVD-0001538|dock_bobby27042020.66|mol2|44|dock2
     RDKit          3D

 27 30  0  0  0  0  0  0  0  0999 V2000
   10.4269    1.0996   22.1969 C   0  0  0  0  0  0  0  0  0  0  0  0
   10.6691   -0.0045   23.1102 N   0  0  0  0  0  0  0  0  0  0  0  0
    9.5053   -0.4219   23.8935 C   0  0  0  0  0  0  0  0  0  0  0  0
    8.5580   -1.3421   23.1600 C   0  0  0  0  0  0  0  0  0  0  0  0
    8.6961   -2.7183   23.2461 C   0  0  0  0  0  0  0  0  0  0  0  0
    7.8223   -3.5555   22.5732 C   0  0  0  0  0  0  0  0  0  0  0  0
    6.8009   -3.0196   21.8072 C   0  0  0  0  0  0  0  0  0  0  0  0
    6.6440   -1.6464   21.7063 C   0  0  0  0  0  0  0  0  0  0  0  0
    5.5302   -1.0541   20.8760 C   0  0  0  0  0  0  0  0  0  0  0  0
    5.9891   -0.0383   19.9172 N   0  0  0  0  0  0  0  0  0  0  0  0
    7.0919   -0.5446   19.0956 C   0  0  0  0  0  0  0  0  0  0  0  0
    7.5335    0.5118   18.1370 C   0  0  0  0  0  0  0  0  0  0  0  0
    6.4735    0.9175   17.2785 O   0  0  0  0  0  0  0  0  0  0  0  0
    5.3923    1.4048   18.0556 C   0  0  0  0  0  0  0  0  0  0  0  0
    4.9014    0.3808   19.0345 C   0  0  0  0  0  0  0  0  0  0  0  0
    7.5278   -0.8200   22.3883 C   0  0  0  0  0  0  0  0  0  0  0  0
   11.9133   -0.6150   23.2250 C   0  0  0  0  0  0  0  0  0  0  0  0
   12.7365   -0.3590   24.3172 C   0  0  0  0  0  0  0  0  0  0  0  0
   13.9776   -0.9631   24.4278 C   0  0  0  0  0  0  0  0  0  0  0  0
   14.4158   -1.8381   23.4597 C   0  0  0  0  0  0  0  0  0  0  0  0
   13.6116   -2.1061   22.3753 C   0  0  0  0  0  0  0  0  0  0  0  0
   12.3730   -1.4987   22.2533 C   0  0  0  0  0  0  0  0  0  0  0  0
   11.4057    2.2360   22.3594 C   0  0  0  0  0  0  0  0  0  0  0  0
   11.0487    3.5771   22.6437 C   0  0  0  0  0  0  0  0  0  0  0  0
   12.1024    4.4348   22.7418 C   0  0  0  0  0  0  0  0  0  0  0  0
   13.5531    3.5909   22.4827 S   0  0  0  0  0  0  0  0  0  0  0  0
   12.7566    2.1079   22.2436 C   0  0  0  0  0  0  0  0  0  0  0  0
  1  2  1  0
  2  3  1  0
  3  4  1  0
  4  5  2  0
  5  6  1  0
  6  7  2  0
  7  8  1  0
  8  9  1  0
  9 10  1  0
 10 11  1  0
 11 12  1  0
 12 13  1  0
 13 14  1  0
 14 15  1  0
  8 16  2  0
  2 17  1  0
 17 18  2  0
 18 19  1  0
 19 20  2  0
 20 21  1  0
 21 22  2  0
  1 23  1  0
 23 24  1  0
 24 25  2  0
 25 26  1  0
 26 27  1  0
 16  4  1  0
 22 17  1  0
 27 23  2  0
 15 10  1  0
M  END
