CVD-0002626|dock_bobby27042020.76|mol2|31|dock2
     RDKit          3D

 26 28  0  0  0  0  0  0  0  0999 V2000
    7.3878   -5.4239   21.6047 C   0  0  0  0  0  0  0  0  0  0  0  0
    6.6641   -3.8319   21.7197 S   0  0  0  0  0  0  0  0  0  0  0  0
    6.1588   -3.4724   20.4249 O   0  0  0  0  0  0  0  0  0  0  0  0
    5.7450   -3.8336   22.8225 O   0  0  0  0  0  0  0  0  0  0  0  0
    8.0235   -2.7398   22.1189 C   0  0  0  0  0  0  0  0  0  0  0  0
    8.2407   -1.6125   21.3664 C   0  0  0  0  0  0  0  0  0  0  0  0
    9.3082   -0.8114   21.7284 C   0  0  0  0  0  0  0  0  0  0  0  0
   10.1064   -1.1517   22.8158 C   0  0  0  0  0  0  0  0  0  0  0  0
    9.7731   -2.3096   23.5051 C   0  0  0  0  0  0  0  0  0  0  0  0
    8.7542   -3.1070   23.1643 N   0  0  0  0  0  0  0  0  0  0  0  0
   11.2253   -0.3088   23.1870 N   0  0  0  0  0  0  0  0  0  0  0  0
   11.1686    1.1017   23.0457 C   0  0  0  0  0  0  0  0  0  0  0  0
   10.0914    1.6358   22.8168 O   0  0  0  0  0  0  0  0  0  0  0  0
   12.3289    1.8316   23.1653 N   0  0  0  0  0  0  0  0  0  0  0  0
   12.5408    3.2327   23.0809 C   0  0  0  0  0  0  0  0  0  0  0  0
   11.5900    4.2109   23.3626 C   0  0  0  0  0  0  0  0  0  0  0  0
   11.9296    5.5466   23.2316 C   0  0  0  0  0  0  0  0  0  0  0  0
   13.2042    5.8726   22.8305 C   0  0  0  0  0  0  0  0  0  0  0  0
   14.1381    4.9616   22.5606 N   0  0  0  0  0  0  0  0  0  0  0  0
   13.7988    3.6757   22.6871 C   0  0  0  0  0  0  0  0  0  0  0  0
   12.3604   -1.0234   23.7290 C   0  0  0  0  0  0  0  0  0  0  0  0
   12.7345   -0.8252   25.0527 C   0  0  0  0  0  0  0  0  0  0  0  0
   13.8242   -1.4994   25.5783 C   0  0  0  0  0  0  0  0  0  0  0  0
   14.5482   -2.3707   24.7938 C   0  0  0  0  0  0  0  0  0  0  0  0
   14.1861   -2.5708   23.4794 C   0  0  0  0  0  0  0  0  0  0  0  0
   13.0982   -1.9018   22.9439 C   0  0  0  0  0  0  0  0  0  0  0  0
  1  2  1  0
  2  3  2  0
  2  4  2  0
  2  5  1  0
  5  6  2  0
  6  7  1  0
  7  8  2  0
  8  9  1  0
  9 10  2  0
  8 11  1  0
 11 12  1  0
 12 13  2  0
 12 14  1  0
 14 15  1  0
 15 16  2  0
 16 17  1  0
 17 18  2  0
 18 19  1  0
 19 20  2  0
 11 21  1  0
 21 22  2  0
 22 23  1  0
 23 24  2  0
 24 25  1  0
 25 26  2  0
 10  5  1  0
 20 15  1  0
 26 21  1  0
M  END
