CVD-0000564|dock_bobby27042020.69|mol2|46|dock3
     RDKit          3D

 22 24  0  0  0  0  0  0  0  0999 V2000
    8.7162   -0.5140   22.4086 O   0  0  0  0  0  0  0  0  0  0  0  0
    9.3622   -1.0242   21.4994 C   0  0  0  0  0  0  0  0  0  0  0  0
   10.7291   -1.6256   21.7498 C   0  0  0  0  0  0  0  0  0  0  0  0
   11.2925   -1.5041   23.1827 C   0  0  0  0  0  0  0  0  0  0  0  0
   10.5158   -2.4861   24.1033 C   0  0  0  0  0  0  0  0  0  0  0  0
    9.0093   -2.4258   24.0251 C   0  0  0  0  0  0  0  0  0  0  0  0
    8.3006   -3.1610   23.0898 C   0  0  0  0  0  0  0  0  0  0  0  0
    6.9201   -3.0752   23.0488 C   0  0  0  0  0  0  0  0  0  0  0  0
    6.2884   -2.2497   23.9511 C   0  0  0  0  0  0  0  0  0  0  0  0
    6.9431   -1.5285   24.8624 N   0  0  0  0  0  0  0  0  0  0  0  0
    8.2758   -1.6277   24.8827 C   0  0  0  0  0  0  0  0  0  0  0  0
   12.7952   -1.8808   23.1728 C   0  0  0  0  0  0  0  0  0  0  0  0
   13.5163   -0.8242   23.8457 C   0  0  0  0  0  0  0  0  0  0  0  0
   12.6124    0.2538   24.2219 C   0  0  0  0  0  0  0  0  0  0  0  0
   11.2527   -0.0643   23.7087 C   0  0  0  0  0  0  0  0  0  0  0  0
    8.9613   -1.1120   20.2079 N   0  0  0  0  0  0  0  0  0  0  0  0
    7.7739   -0.6776   19.5688 C   0  0  0  0  0  0  0  0  0  0  0  0
    6.9116    0.2774   20.0982 C   0  0  0  0  0  0  0  0  0  0  0  0
    5.7759    0.6303   19.3896 C   0  0  0  0  0  0  0  0  0  0  0  0
    5.5334    0.0236   18.1788 C   0  0  0  0  0  0  0  0  0  0  0  0
    6.3406   -0.8940   17.6468 N   0  0  0  0  0  0  0  0  0  0  0  0
    7.4340   -1.2278   18.3383 C   0  0  0  0  0  0  0  0  0  0  0  0
  1  2  2  0
  2  3  1  0
  3  4  1  0
  4  5  1  0
  5  6  1  0
  6  7  2  0
  7  8  1  0
  8  9  2  0
  9 10  1  0
 10 11  2  0
  4 12  1  0
 12 13  1  0
 13 14  1  0
 14 15  1  0
  2 16  1  0
 16 17  1  0
 17 18  2  0
 18 19  1  0
 19 20  2  0
 20 21  1  0
 21 22  2  0
 15  4  1  0
 22 17  1  0
 11  6  1  0
M  END
