CVD-0001315|dock_bobby27042020.67|mol2|30|dock1
     RDKit          3D

 17 17  0  0  0  0  0  0  0  0999 V2000
   13.8220   -1.1507   22.9752 C   0  0  0  0  0  0  0  0  0  0  0  0
   12.9881   -1.5207   24.2077 C   0  0  0  0  0  0  0  0  0  0  0  0
   13.8327   -2.4806   25.0505 C   0  0  0  0  0  0  0  0  0  0  0  0
   12.7132   -0.2805   25.0663 C   0  0  0  0  0  0  0  0  0  0  0  0
   11.6917   -2.2616   23.8161 C   0  0  0  0  0  0  0  0  0  0  0  0
   11.6587   -3.4562   24.0418 O   0  0  0  0  0  0  0  0  0  0  0  0
   10.6085   -1.6810   23.2549 N   0  0  0  0  0  0  0  0  0  0  0  0
   10.4638   -0.2592   22.9541 C   0  0  0  0  0  0  0  0  0  0  0  0
    9.9050   -0.0801   21.5575 C   0  0  0  0  0  0  0  0  0  0  0  0
    8.5693   -0.7999   21.4188 C   0  0  0  0  0  0  0  0  0  0  0  0
    8.7407   -2.2706   21.7922 C   0  0  0  0  0  0  0  0  0  0  0  0
    9.3427   -2.4033   23.1872 C   0  0  0  0  0  0  0  0  0  0  0  0
    8.0232   -0.6589   20.0170 C   0  0  0  0  0  0  0  0  0  0  0  0
    8.6781   -0.6011   19.0086 O   0  0  0  0  0  0  0  0  0  0  0  0
    6.2693   -0.5761   20.0057 S   0  0  0  0  0  0  0  0  0  0  0  0
    5.9772   -0.2168   18.2927 C   0  0  0  0  0  0  0  0  0  0  0  0
    6.6941    0.8801   17.8665 F   0  0  0  0  0  0  0  0  0  0  0  0
  1  2  1  0
  2  3  1  0
  2  4  1  0
  2  5  1  0
  5  6  2  0
  5  7  1  0
  7  8  1  0
  8  9  1  0
  9 10  1  0
 10 11  1  0
 11 12  1  0
 10 13  1  0
 13 14  2  0
 13 15  1  0
 15 16  1  0
 16 17  1  0
 12  7  1  0
M  END
