CVD-0001209|dock_bobby27042020.53|mol2|25|dock1
     RDKit          3D

 27 30  0  0  0  0  0  0  0  0999 V2000
   11.8747    6.9511   25.5087 C   0  0  0  0  0  0  0  0  0  0  0  0
   12.6445    6.5613   24.2810 C   0  0  0  0  0  0  0  0  0  0  0  0
   13.3614    7.3583   23.6841 O   0  0  0  0  0  0  0  0  0  0  0  0
   12.4912    5.3021   23.8667 N   0  0  0  0  0  0  0  0  0  0  0  0
   13.1573    4.7788   22.6824 C   0  0  0  0  0  0  0  0  0  0  0  0
   13.4925    3.3068   22.8199 C   0  0  0  0  0  0  0  0  0  0  0  0
   12.3324    2.4007   22.5257 C   0  0  0  0  0  0  0  0  0  0  0  0
   11.0290    2.7523   22.3393 C   0  0  0  0  0  0  0  0  0  0  0  0
   10.2657    1.6438   22.0957 N   0  0  0  0  0  0  0  0  0  0  0  0
   11.0728    0.5311   22.1304 C   0  0  0  0  0  0  0  0  0  0  0  0
   10.7646   -0.8341   21.9584 C   0  0  0  0  0  0  0  0  0  0  0  0
   11.8304   -1.7335   22.0046 C   0  0  0  0  0  0  0  0  0  0  0  0
   13.1048   -1.2784   22.2420 C   0  0  0  0  0  0  0  0  0  0  0  0
   14.1126   -2.1913   22.2832 F   0  0  0  0  0  0  0  0  0  0  0  0
   13.4221    0.0426   22.4410 C   0  0  0  0  0  0  0  0  0  0  0  0
   12.3875    0.9740   22.3818 C   0  0  0  0  0  0  0  0  0  0  0  0
    9.3932   -1.3744   21.7325 C   0  0  0  0  0  0  0  0  0  0  0  0
    8.8801   -2.4123   22.5045 C   0  0  0  0  0  0  0  0  0  0  0  0
    7.5949   -2.8828   22.2932 C   0  0  0  0  0  0  0  0  0  0  0  0
    6.8084   -2.3353   21.2944 C   0  0  0  0  0  0  0  0  0  0  0  0
    7.3036   -1.3113   20.4963 C   0  0  0  0  0  0  0  0  0  0  0  0
    8.5924   -0.8408   20.7228 C   0  0  0  0  0  0  0  0  0  0  0  0
    6.4776   -0.7331   19.4287 C   0  0  0  0  0  0  0  0  0  0  0  0
    6.3969    0.5658   18.9648 C   0  0  0  0  0  0  0  0  0  0  0  0
    5.4526    0.5346   17.9449 C   0  0  0  0  0  0  0  0  0  0  0  0
    4.9675   -0.6888   17.7706 N   0  0  0  0  0  0  0  0  0  0  0  0
    5.6095   -1.4625   18.6941 N   0  0  0  0  0  0  0  0  0  0  0  0
  1  2  1  0
  2  3  2  0
  2  4  1  0
  4  5  1  0
  5  6  1  0
  6  7  1  0
  7  8  2  0
  8  9  1  0
  9 10  1  0
 10 11  2  0
 11 12  1  0
 12 13  2  0
 13 14  1  0
 13 15  1  0
 15 16  2  0
 11 17  1  0
 17 18  2  0
 18 19  1  0
 19 20  2  0
 20 21  1  0
 21 22  2  0
 21 23  1  0
 23 24  2  0
 24 25  1  0
 25 26  2  0
 26 27  1  0
 16  7  1  0
 22 17  1  0
 27 23  1  0
 16 10  1  0
M  END
