CVD-0002373|dock_bobby27042020.63|mol2|30|dock2
     RDKit          3D

 38 42  0  0  0  0  0  0  0  0999 V2000
    3.0577   -6.7219   25.0966 C   0  0  0  0  0  0  0  0  0  0  0  0
    4.3834   -6.5717   24.5072 N   0  0  0  0  0  0  0  0  0  0  0  0
    4.3812   -6.4832   23.0543 C   0  0  0  0  0  0  0  0  0  0  0  0
    5.7849   -6.5340   22.4892 C   0  0  0  0  0  0  0  0  0  0  0  0
    6.7785   -5.6540   23.2421 C   0  0  0  0  0  0  0  0  0  0  0  0
    6.5823   -4.2059   23.0792 N   0  0  0  0  0  0  0  0  0  0  0  0
    6.8796   -3.7628   21.7207 C   0  0  0  0  0  0  0  0  0  0  0  0
    7.7032   -2.5017   21.7180 C   0  0  0  0  0  0  0  0  0  0  0  0
    9.0492   -2.4085   22.1109 C   0  0  0  0  0  0  0  0  0  0  0  0
    9.4991   -1.1048   21.9895 C   0  0  0  0  0  0  0  0  0  0  0  0
   10.8681   -0.6102   22.3024 C   0  0  0  0  0  0  0  0  0  0  0  0
   11.9996   -1.3843   22.0306 C   0  0  0  0  0  0  0  0  0  0  0  0
   13.2740   -0.9295   22.3253 C   0  0  0  0  0  0  0  0  0  0  0  0
   13.4595    0.3016   22.9101 C   0  0  0  0  0  0  0  0  0  0  0  0
   12.3650    1.0939   23.1994 C   0  0  0  0  0  0  0  0  0  0  0  0
   11.1093    0.6297   22.8869 C   0  0  0  0  0  0  0  0  0  0  0  0
   10.0821    1.4609   23.1762 F   0  0  0  0  0  0  0  0  0  0  0  0
    8.3793   -0.3630   21.5116 N   0  0  0  0  0  0  0  0  0  0  0  0
    7.3030   -1.2269   21.3516 C   0  0  0  0  0  0  0  0  0  0  0  0
    8.1431    1.2754   21.1362 S   0  0  0  0  0  0  0  0  0  0  0  0
    7.5406    1.8954   22.2756 O   0  0  0  0  0  0  0  0  0  0  0  0
    9.4211    1.7372   20.6911 O   0  0  0  0  0  0  0  0  0  0  0  0
    7.0549    1.3438   19.7549 C   0  0  0  0  0  0  0  0  0  0  0  0
    5.8617    2.0410   19.8373 C   0  0  0  0  0  0  0  0  0  0  0  0
    5.0334    2.0644   18.7286 C   0  0  0  0  0  0  0  0  0  0  0  0
    5.4280    1.3943   17.5926 C   0  0  0  0  0  0  0  0  0  0  0  0
    6.5734    0.7173   17.4997 N   0  0  0  0  0  0  0  0  0  0  0  0
    7.3683    0.6985   18.5736 C   0  0  0  0  0  0  0  0  0  0  0  0
    6.7322   -5.9638   24.7163 C   0  0  0  0  0  0  0  0  0  0  0  0
    7.8501   -5.8074   25.5363 C   0  0  0  0  0  0  0  0  0  0  0  0
    7.7912   -6.0814   26.8886 C   0  0  0  0  0  0  0  0  0  0  0  0
    6.5985   -6.5195   27.4365 C   0  0  0  0  0  0  0  0  0  0  0  0
    5.4652   -6.6878   26.6555 C   0  0  0  0  0  0  0  0  0  0  0  0
    5.5261   -6.4103   25.2894 C   0  0  0  0  0  0  0  0  0  0  0  0
    6.5150   -6.8849   29.1635 S   0  0  0  0  0  0  0  0  0  0  0  0
    7.6031   -8.0107   29.4970 N   0  0  0  0  0  0  0  0  0  0  0  0
    6.9008   -5.7005   29.8703 O   0  0  0  0  0  0  0  0  0  0  0  0
    5.2255   -7.4535   29.4184 O   0  0  0  0  0  0  0  0  0  0  0  0
  1  2  1  0
  2  3  1  0
  3  4  1  0
  4  5  1  0
  5  6  1  0
  6  7  1  0
  7  8  1  0
  8  9  1  0
  9 10  2  0
 10 11  1  0
 11 12  2  0
 12 13  1  0
 13 14  2  0
 14 15  1  0
 15 16  2  0
 16 17  1  0
 10 18  1  0
 18 19  1  0
 18 20  1  0
 20 21  2  0
 20 22  2  0
 20 23  1  0
 23 24  2  0
 24 25  1  0
 25 26  2  0
 26 27  1  0
 27 28  2  0
  5 29  1  0
 29 30  2  0
 30 31  1  0
 31 32  2  0
 32 33  1  0
 33 34  2  0
 32 35  1  0
 35 36  1  0
 35 37  2  0
 35 38  2  0
 34  2  1  0
 19  8  2  0
 28 23  1  0
 34 29  1  0
 16 11  1  0
M  END
