CVD-0000816|dock_bobby27042020.83|mol2|16|dock3
     RDKit          3D

 13 14  0  0  0  0  0  0  0  0999 V2000
   14.0860   -2.3311   23.5743 C   0  0  0  0  0  0  0  0  0  0  0  0
   12.9729   -1.3791   23.6131 N   0  0  0  0  0  0  0  0  0  0  0  0
   13.3299   -0.0111   23.2227 C   0  0  0  0  0  0  0  0  0  0  0  0
   12.1157    0.8813   23.1438 C   0  0  0  0  0  0  0  0  0  0  0  0
   10.8146    0.5158   23.3264 C   0  0  0  0  0  0  0  0  0  0  0  0
    9.9920    1.5991   23.1762 N   0  0  0  0  0  0  0  0  0  0  0  0
   10.7579    2.7027   22.8891 C   0  0  0  0  0  0  0  0  0  0  0  0
   10.4046    4.0267   22.6511 C   0  0  0  0  0  0  0  0  0  0  0  0
   11.3996    4.9510   22.3812 C   0  0  0  0  0  0  0  0  0  0  0  0
   12.7183    4.5467   22.3527 C   0  0  0  0  0  0  0  0  0  0  0  0
   13.9576    5.7218   22.0116 Cl  0  0  0  0  0  0  0  0  0  0  0  0
   13.0853    3.2364   22.5868 C   0  0  0  0  0  0  0  0  0  0  0  0
   12.1022    2.2877   22.8607 C   0  0  0  0  0  0  0  0  0  0  0  0
  1  2  1  0
  2  3  1  0
  3  4  1  0
  4  5  2  0
  5  6  1  0
  6  7  1  0
  7  8  2  0
  8  9  1  0
  9 10  2  0
 10 11  1  0
 10 12  1  0
 12 13  2  0
 13  4  1  0
 13  7  1  0
M  END
