CVD-0002261|dock_bobby27042020.49|mol2|25|dock1
     RDKit          3D

 26 28  0  0  0  0  0  0  0  0999 V2000
   13.6964    4.8021   21.9286 C   0  0  0  0  0  0  0  0  0  0  0  0
   12.2948    4.3302   22.8664 S   0  0  0  0  0  0  0  0  0  0  0  0
   11.2335    5.2412   22.5674 O   0  0  0  0  0  0  0  0  0  0  0  0
   12.7025    4.1799   24.2291 O   0  0  0  0  0  0  0  0  0  0  0  0
   11.8308    2.8839   22.3528 N   0  0  0  0  0  0  0  0  0  0  0  0
   12.5329    1.6854   22.8274 C   0  0  0  0  0  0  0  0  0  0  0  0
   11.8232    1.0926   24.0318 C   0  0  0  0  0  0  0  0  0  0  0  0
   12.2658   -0.3236   24.3345 C   0  0  0  0  0  0  0  0  0  0  0  0
   13.2701   -0.4469   25.2914 C   0  0  0  0  0  0  0  0  0  0  0  0
   13.7690   -1.6794   25.6679 C   0  0  0  0  0  0  0  0  0  0  0  0
   13.2669   -2.8210   25.0889 C   0  0  0  0  0  0  0  0  0  0  0  0
   12.2678   -2.7351   24.1351 C   0  0  0  0  0  0  0  0  0  0  0  0
   11.7496   -1.4963   23.7405 C   0  0  0  0  0  0  0  0  0  0  0  0
   10.6854   -1.4999   22.7170 C   0  0  0  0  0  0  0  0  0  0  0  0
    9.9139   -2.5199   22.4753 N   0  0  0  0  0  0  0  0  0  0  0  0
    8.9811   -2.2934   21.4654 N   0  0  0  0  0  0  0  0  0  0  0  0
    9.0681   -1.1076   20.9694 C   0  0  0  0  0  0  0  0  0  0  0  0
    8.1694   -0.6349   19.8663 C   0  0  0  0  0  0  0  0  0  0  0  0
    6.8124   -1.1766   19.9744 N   0  0  0  0  0  0  0  0  0  0  0  0
    6.0901   -1.0980   18.7110 C   0  0  0  0  0  0  0  0  0  0  0  0
    5.8510    0.3272   18.2433 C   0  0  0  0  0  0  0  0  0  0  0  0
    5.3240    1.1489   19.3612 C   0  0  0  0  0  0  0  0  0  0  0  0
    5.4182    0.7750   20.6224 C   0  0  0  0  0  0  0  0  0  0  0  0
    4.9797    1.4798   21.7082 F   0  0  0  0  0  0  0  0  0  0  0  0
    6.0432   -0.5107   21.0238 C   0  0  0  0  0  0  0  0  0  0  0  0
   10.3179   -0.1428   21.6957 S   0  0  0  0  0  0  0  0  0  0  0  0
  1  2  1  0
  2  3  2  0
  2  4  2  0
  2  5  1  0
  5  6  1  0
  6  7  1  0
  7  8  1  0
  8  9  2  0
  9 10  1  0
 10 11  2  0
 11 12  1  0
 12 13  2  0
 13 14  1  0
 14 15  2  0
 15 16  1  0
 16 17  2  0
 17 18  1  0
 18 19  1  0
 19 20  1  0
 20 21  1  0
 21 22  1  0
 22 23  2  0
 23 24  1  0
 23 25  1  0
 17 26  1  0
 13  8  1  0
 26 14  1  0
 25 19  1  0
M  END
