CVD-0003260|dock_bobby27042020.2|mol2|34|dock1
     RDKit          3D

 33 33  0  0  0  0  0  0  0  0999 V2000
    9.9013   -4.7787   27.7714 N   0  0  0  0  0  0  0  0  0  0  0  0
   10.1626   -4.9835   26.3330 C   0  0  0  0  0  0  0  0  0  0  0  0
    9.3675   -6.1300   25.8117 C   0  0  0  0  0  0  0  0  0  0  0  0
   10.0300   -7.3135   26.2397 O   0  0  0  0  0  0  0  0  0  0  0  0
    9.8253   -3.7011   25.5832 C   0  0  0  0  0  0  0  0  0  0  0  0
    9.0465   -2.8872   26.0724 O   0  0  0  0  0  0  0  0  0  0  0  0
   10.4152   -3.5143   24.3984 N   0  0  0  0  0  0  0  0  0  0  0  0
   10.1706   -2.3221   23.6033 C   0  0  0  0  0  0  0  0  0  0  0  0
   11.2732   -2.1476   22.5473 C   0  0  0  0  0  0  0  0  0  0  0  0
   11.7246   -0.7170   22.3763 C   0  0  0  0  0  0  0  0  0  0  0  0
   10.8158    0.2806   22.0586 C   0  0  0  0  0  0  0  0  0  0  0  0
   11.2295    1.5934   21.9055 C   0  0  0  0  0  0  0  0  0  0  0  0
   12.5573    1.9244   22.0696 C   0  0  0  0  0  0  0  0  0  0  0  0
   13.4710    0.9428   22.3873 C   0  0  0  0  0  0  0  0  0  0  0  0
   13.0568   -0.3699   22.5401 C   0  0  0  0  0  0  0  0  0  0  0  0
    8.8077   -2.3968   22.9208 C   0  0  0  0  0  0  0  0  0  0  0  0
    8.6598   -3.0586   21.8969 O   0  0  0  0  0  0  0  0  0  0  0  0
    7.8166   -1.7149   23.4943 N   0  0  0  0  0  0  0  0  0  0  0  0
    6.4824   -1.7134   22.9344 C   0  0  0  0  0  0  0  0  0  0  0  0
    6.4731   -1.6828   21.4183 C   0  0  0  0  0  0  0  0  0  0  0  0
    6.3410   -2.7147   20.7677 O   0  0  0  0  0  0  0  0  0  0  0  0
    6.6070   -0.4803   20.8547 N   0  0  0  0  0  0  0  0  0  0  0  0
    6.5912   -0.3056   19.4116 C   0  0  0  0  0  0  0  0  0  0  0  0
    5.9888    1.0562   19.0463 C   0  0  0  0  0  0  0  0  0  0  0  0
    4.5282    1.2798   19.4278 C   0  0  0  0  0  0  0  0  0  0  0  0
    3.9390    2.5854   18.9291 C   0  0  0  0  0  0  0  0  0  0  0  0
    2.5096    2.6729   19.1951 N   0  0  0  0  0  0  0  0  0  0  0  0
    1.7057    3.6483   18.7853 C   0  0  0  0  0  0  0  0  0  0  0  0
    2.1738    4.6721   18.0625 N   0  0  0  0  0  0  0  0  0  0  0  0
    0.4197    3.6167   19.0910 N   0  0  0  0  0  0  0  0  0  0  0  0
    7.9892   -0.4797   18.8388 C   0  0  0  0  0  0  0  0  0  0  0  0
    8.8469   -0.9306   19.7183 O   0  0  0  0  0  0  0  0  0  0  0  0
    8.2642   -0.2228   17.6874 O   0  0  0  0  0  0  0  0  0  0  0  0
  2  1  1  0
  2  3  1  0
  3  4  1  0
  2  5  1  0
  5  6  2  0
  5  7  1  0
  7  8  1  0
  8  9  1  0
  9 10  1  0
 10 11  2  0
 11 12  1  0
 12 13  2  0
 13 14  1  0
 14 15  2  0
  8 16  1  0
 16 17  2  0
 16 18  1  0
 18 19  1  0
 19 20  1  0
 20 21  2  0
 20 22  1  0
 22 23  1  0
 23 24  1  0
 24 25  1  0
 25 26  1  0
 26 27  1  0
 27 28  1  0
 28 29  1  0
 28 30  2  0
 23 31  1  0
 31 32  1  0
 31 33  2  0
 15 10  1  0
M  END
