CVD-0001297|dock_bobby27042020.24|mol2|22|dock1
     RDKit          3D

 16 17  0  0  0  0  0  0  0  0999 V2000
    5.4503    0.6603   17.9940 S   0  0  0  0  0  0  0  0  0  0  0  0
    5.7066   -0.8227   18.9300 C   0  0  0  0  0  0  0  0  0  0  0  0
    5.2680   -1.8743   18.5401 O   0  0  0  0  0  0  0  0  0  0  0  0
    6.5029   -0.6333   20.2192 C   0  0  0  0  0  0  0  0  0  0  0  0
    7.9522   -0.2291   19.9602 C   0  0  0  0  0  0  0  0  0  0  0  0
    8.6592   -0.0049   21.2858 C   0  0  0  0  0  0  0  0  0  0  0  0
    8.6388   -1.2175   22.0976 N   0  0  0  0  0  0  0  0  0  0  0  0
    9.4049   -1.0247   23.3378 C   0  0  0  0  0  0  0  0  0  0  0  0
   10.8937   -0.9023   23.1159 C   0  0  0  0  0  0  0  0  0  0  0  0
   11.6798   -0.1579   23.9817 C   0  0  0  0  0  0  0  0  0  0  0  0
   13.0446   -0.0428   23.7765 C   0  0  0  0  0  0  0  0  0  0  0  0
   13.6384   -0.6703   22.7025 C   0  0  0  0  0  0  0  0  0  0  0  0
   12.8677   -1.4123   21.8335 C   0  0  0  0  0  0  0  0  0  0  0  0
   11.5029   -1.5272   22.0389 C   0  0  0  0  0  0  0  0  0  0  0  0
    7.2444   -1.5613   22.3966 C   0  0  0  0  0  0  0  0  0  0  0  0
    6.4651   -1.8557   21.1243 C   0  0  0  0  0  0  0  0  0  0  0  0
  1  2  1  0
  2  3  2  0
  2  4  1  0
  4  5  1  0
  5  6  1  0
  6  7  1  0
  7  8  1  0
  8  9  1  0
  9 10  2  0
 10 11  1  0
 11 12  2  0
 12 13  1  0
 13 14  2  0
  7 15  1  0
 15 16  1  0
 16  4  1  0
 14  9  1  0
M  END
