CVD-0000390|dock_bobby27042020.70|mol2|20|dock2
     RDKit          3D

 27 29  0  0  0  0  0  0  0  0999 V2000
   14.1927    6.1816   21.6184 C   0  0  0  0  0  0  0  0  0  0  0  0
   12.9755    5.5297   22.0512 N   0  0  0  0  0  0  0  0  0  0  0  0
   12.8852    4.1851   22.2900 C   0  0  0  0  0  0  0  0  0  0  0  0
   14.0029    3.3618   22.2701 C   0  0  0  0  0  0  0  0  0  0  0  0
   13.8918    2.0478   22.5050 N   0  0  0  0  0  0  0  0  0  0  0  0
   12.6684    1.5703   22.7587 C   0  0  0  0  0  0  0  0  0  0  0  0
   11.5499    2.2996   22.7960 N   0  0  0  0  0  0  0  0  0  0  0  0
   11.6819    3.5789   22.5628 C   0  0  0  0  0  0  0  0  0  0  0  0
   10.5682    4.3262   22.5959 F   0  0  0  0  0  0  0  0  0  0  0  0
   12.6096    0.1292   23.0076 C   0  0  0  0  0  0  0  0  0  0  0  0
   14.1434   -0.6885   23.0836 S   0  0  0  0  0  0  0  0  0  0  0  0
   13.3186   -2.1680   23.3718 C   0  0  0  0  0  0  0  0  0  0  0  0
   14.0485   -3.2839   23.5328 F   0  0  0  0  0  0  0  0  0  0  0  0
   11.9908   -2.0644   23.4093 C   0  0  0  0  0  0  0  0  0  0  0  0
   11.5619   -0.7284   23.1979 C   0  0  0  0  0  0  0  0  0  0  0  0
   10.1017   -0.3582   23.1963 C   0  0  0  0  0  0  0  0  0  0  0  0
    9.3244   -1.3455   24.0955 C   0  0  0  0  0  0  0  0  0  0  0  0
    8.7593   -2.4327   23.1766 C   0  0  0  0  0  0  0  0  0  0  0  0
    9.2717   -2.1274   21.7701 C   0  0  0  0  0  0  0  0  0  0  0  0
    9.5602   -0.6192   21.7630 C   0  0  0  0  0  0  0  0  0  0  0  0
    8.2806    0.1711   21.5728 C   0  0  0  0  0  0  0  0  0  0  0  0
    7.7673    0.7958   22.4975 O   0  0  0  0  0  0  0  0  0  0  0  0
    7.7574    0.1317   20.3162 N   0  0  0  0  0  0  0  0  0  0  0  0
    6.6144    0.7534   19.8725 C   0  0  0  0  0  0  0  0  0  0  0  0
    5.8506    1.4159   20.5424 O   0  0  0  0  0  0  0  0  0  0  0  0
    6.4663    0.5141   18.5641 O   0  0  0  0  0  0  0  0  0  0  0  0
    5.2778    1.0724   17.9558 C   0  0  0  0  0  0  0  0  0  0  0  0
  1  2  1  0
  2  3  1  0
  3  4  2  0
  4  5  1  0
  5  6  2  0
  6  7  1  0
  7  8  2  0
  8  9  1  0
  6 10  1  0
 10 11  1  0
 11 12  1  0
 12 13  1  0
 12 14  2  0
 14 15  1  0
 16 15  1  0
 16 17  1  0
 17 18  1  0
 18 19  1  0
 19 20  1  0
 20 21  1  0
 21 22  2  0
 21 23  1  0
 23 24  1  0
 24 25  2  0
 24 26  1  0
 26 27  1  0
  8  3  1  0
 15 10  2  0
 20 16  1  0
M  END
