CVD-0000502|dock_bobby27042020.70|mol2|3|dock3
     RDKit          3D

 36 38  0  0  0  0  0  0  0  0999 V2000
   13.0496    4.3276   22.3948 C   0  0  0  0  0  0  0  0  0  0  0  0
   11.6467    4.5635   22.8672 C   0  0  0  0  0  0  0  0  0  0  0  0
   11.3372    5.5951   23.7439 C   0  0  0  0  0  0  0  0  0  0  0  0
   10.0237    5.7611   24.1474 C   0  0  0  0  0  0  0  0  0  0  0  0
    9.0442    4.9035   23.6765 C   0  0  0  0  0  0  0  0  0  0  0  0
    9.4387    3.8929   22.8002 C   0  0  0  0  0  0  0  0  0  0  0  0
    8.5727    2.9448   22.2348 N   0  0  0  0  0  0  0  0  0  0  0  0
    8.7945    1.9037   21.3704 C   0  0  0  0  0  0  0  0  0  0  0  0
    9.8927    1.6062   20.9086 O   0  0  0  0  0  0  0  0  0  0  0  0
    7.6736    1.2153   21.0623 N   0  0  0  0  0  0  0  0  0  0  0  0
    7.7464   -0.0094   20.2825 C   0  0  0  0  0  0  0  0  0  0  0  0
    6.3315   -0.4632   19.8866 C   0  0  0  0  0  0  0  0  0  0  0  0
    5.4602    0.6383   19.3330 C   0  0  0  0  0  0  0  0  0  0  0  0
    5.7009    1.1701   18.0758 C   0  0  0  0  0  0  0  0  0  0  0  0
    4.9079    2.1813   17.5631 C   0  0  0  0  0  0  0  0  0  0  0  0
    3.8532    2.6779   18.3120 C   0  0  0  0  0  0  0  0  0  0  0  0
    3.0670    3.6748   17.8125 O   0  0  0  0  0  0  0  0  0  0  0  0
    3.6011    2.1566   19.5708 C   0  0  0  0  0  0  0  0  0  0  0  0
    4.4021    1.1455   20.0708 C   0  0  0  0  0  0  0  0  0  0  0  0
    8.4639   -1.1017   21.0726 C   0  0  0  0  0  0  0  0  0  0  0  0
    9.3279   -1.7867   20.5317 O   0  0  0  0  0  0  0  0  0  0  0  0
    8.1041   -1.2703   22.3486 N   0  0  0  0  0  0  0  0  0  0  0  0
    8.7033   -2.2795   23.2184 C   0  0  0  0  0  0  0  0  0  0  0  0
   10.1982   -2.4029   22.9059 C   0  0  0  0  0  0  0  0  0  0  0  0
   10.8831   -1.1311   22.6520 N   0  0  0  0  0  0  0  0  0  0  0  0
   12.5672   -1.3896   22.4893 S   0  0  0  0  0  0  0  0  0  0  0  0
   12.8985   -1.6133   21.0123 N   0  0  0  0  0  0  0  0  0  0  0  0
   13.2663   -0.1635   22.9294 O   0  0  0  0  0  0  0  0  0  0  0  0
   12.9159   -2.6248   23.2232 O   0  0  0  0  0  0  0  0  0  0  0  0
    8.0082   -3.6198   23.0770 C   0  0  0  0  0  0  0  0  0  0  0  0
    7.2942   -3.9265   21.9268 C   0  0  0  0  0  0  0  0  0  0  0  0
    6.6615   -5.1509   21.7913 C   0  0  0  0  0  0  0  0  0  0  0  0
    6.7350   -6.0840   22.8031 C   0  0  0  0  0  0  0  0  0  0  0  0
    7.4411   -5.7935   23.9507 C   0  0  0  0  0  0  0  0  0  0  0  0
    8.0737   -4.5692   24.0875 C   0  0  0  0  0  0  0  0  0  0  0  0
   10.7060    3.7232   22.4036 N   0  0  0  0  0  0  0  0  0  0  0  0
  1  2  1  0
  2  3  2  0
  3  4  1  0
  4  5  2  0
  5  6  1  0
  6  7  1  0
  7  8  1  0
  8  9  2  0
  8 10  1  0
 10 11  1  0
 11 12  1  0
 12 13  1  0
 13 14  2  0
 14 15  1  0
 15 16  2  0
 16 17  1  0
 16 18  1  0
 18 19  2  0
 11 20  1  0
 20 21  2  0
 20 22  1  0
 22 23  1  0
 23 24  1  0
 24 25  1  0
 25 26  1  0
 26 27  1  0
 26 28  2  0
 26 29  2  0
 23 30  1  0
 30 31  2  0
 31 32  1  0
 32 33  2  0
 33 34  1  0
 34 35  2  0
  6 36  2  0
 36  2  1  0
 19 13  1  0
 35 30  1  0
M  END
