CVD-0001775|dock_bobby27042020.37|mol2|13|dock2
     RDKit          3D

 30 31  0  0  0  0  0  0  0  0999 V2000
    5.6890    1.2845   17.8539 C   0  0  0  0  0  0  0  0  0  0  0  0
    6.0512    0.6498   19.1853 C   0  0  0  0  0  0  0  0  0  0  0  0
    4.8886    0.8303   20.1474 C   0  0  0  0  0  0  0  0  0  0  0  0
    6.4162   -0.8174   18.9550 C   0  0  0  0  0  0  0  0  0  0  0  0
    6.9676   -1.6251   20.1351 C   0  0  0  0  0  0  0  0  0  0  0  0
    8.3036   -1.1489   20.4534 N   0  0  0  0  0  0  0  0  0  0  0  0
    8.5305   -0.3371   21.4901 C   0  0  0  0  0  0  0  0  0  0  0  0
    7.6390    0.0586   22.2366 O   0  0  0  0  0  0  0  0  0  0  0  0
    9.9769    0.0919   21.7188 C   0  0  0  0  0  0  0  0  0  0  0  0
   10.7232   -0.9970   22.4986 C   0  0  0  0  0  0  0  0  0  0  0  0
   12.1903   -1.0043   22.2264 C   0  0  0  0  0  0  0  0  0  0  0  0
   13.2488   -0.6641   23.0048 C   0  0  0  0  0  0  0  0  0  0  0  0
   14.4213   -0.8385   22.3117 N   0  0  0  0  0  0  0  0  0  0  0  0
   14.0639   -1.2821   21.1214 C   0  0  0  0  0  0  0  0  0  0  0  0
   12.7281   -1.3977   21.0243 N   0  0  0  0  0  0  0  0  0  0  0  0
   10.0341    1.3515   22.4424 N   0  0  0  0  0  0  0  0  0  0  0  0
   10.5683    2.4493   21.8994 C   0  0  0  0  0  0  0  0  0  0  0  0
   11.0428    2.4745   20.7669 O   0  0  0  0  0  0  0  0  0  0  0  0
   10.5645    3.7010   22.7645 C   0  0  0  0  0  0  0  0  0  0  0  0
    9.4152    3.6664   23.6903 N   0  0  0  0  0  0  0  0  0  0  0  0
   11.8860    3.7678   23.5451 C   0  0  0  0  0  0  0  0  0  0  0  0
   12.4361    5.1640   23.7069 C   0  0  0  0  0  0  0  0  0  0  0  0
   12.2182    5.8809   24.8732 C   0  0  0  0  0  0  0  0  0  0  0  0
   12.7256    7.1609   25.0232 C   0  0  0  0  0  0  0  0  0  0  0  0
   13.4577    7.7384   24.0083 C   0  0  0  0  0  0  0  0  0  0  0  0
   13.6829    7.0360   22.8440 C   0  0  0  0  0  0  0  0  0  0  0  0
   13.1753    5.7562   22.6945 C   0  0  0  0  0  0  0  0  0  0  0  0
    7.0398   -3.1122   19.8180 C   0  0  0  0  0  0  0  0  0  0  0  0
    7.7089   -3.8126   20.6999 O   0  0  0  0  0  0  0  0  0  0  0  0
    6.5225   -3.5899   18.8323 O   0  0  0  0  0  0  0  0  0  0  0  0
  1  2  1  0
  2  3  1  0
  2  4  1  0
  5  4  1  0
  5  6  1  0
  6  7  1  0
  7  8  2  0
  7  9  1  0
  9 10  1  0
 10 11  1  0
 11 12  2  0
 12 13  1  0
 13 14  2  0
 14 15  1  0
  9 16  1  0
 16 17  1  0
 17 18  2  0
 17 19  1  0
 19 20  1  0
 19 21  1  0
 21 22  1  0
 22 23  2  0
 23 24  1  0
 24 25  2  0
 25 26  1  0
 26 27  2  0
  5 28  1  0
 28 29  1  0
 28 30  2  0
 15 11  1  0
 27 22  1  0
M  END
