CVD-0000427|dock_bobby27042020.27|mol2|15|dock2
     RDKit          3D

 28 30  0  0  0  0  0  0  0  0999 V2000
   12.3719    7.0367   27.5618 C   0  0  0  0  0  0  0  0  0  0  0  0
   11.6491    6.7271   26.2884 C   0  0  0  0  0  0  0  0  0  0  0  0
   12.4785    6.9992   25.1262 N   0  0  0  0  0  0  0  0  0  0  0  0
   12.4831    6.2326   24.0012 C   0  0  0  0  0  0  0  0  0  0  0  0
   13.4716    6.3799   23.0290 C   0  0  0  0  0  0  0  0  0  0  0  0
   13.4109    5.5662   21.9133 C   0  0  0  0  0  0  0  0  0  0  0  0
   12.3814    4.6613   21.8286 C   0  0  0  0  0  0  0  0  0  0  0  0
   12.3029    3.8558   20.7446 F   0  0  0  0  0  0  0  0  0  0  0  0
   11.4250    4.5512   22.8187 C   0  0  0  0  0  0  0  0  0  0  0  0
   10.2812    3.5682   22.7489 C   0  0  0  0  0  0  0  0  0  0  0  0
   10.7512    2.1365   22.5914 C   0  0  0  0  0  0  0  0  0  0  0  0
   11.8970    1.6910   23.2305 C   0  0  0  0  0  0  0  0  0  0  0  0
   12.3242    0.3829   23.0808 C   0  0  0  0  0  0  0  0  0  0  0  0
   11.6085   -0.4976   22.2873 C   0  0  0  0  0  0  0  0  0  0  0  0
   10.4573   -0.0704   21.6370 C   0  0  0  0  0  0  0  0  0  0  0  0
    9.7503   -0.9576   20.8473 N   0  0  0  0  0  0  0  0  0  0  0  0
    8.3298   -1.2071   20.9996 C   0  0  0  0  0  0  0  0  0  0  0  0
    7.4967   -0.3705   20.0481 C   0  0  0  0  0  0  0  0  0  0  0  0
    7.9958    0.0760   19.0204 O   0  0  0  0  0  0  0  0  0  0  0  0
    6.2165   -0.1858   20.4517 N   0  0  0  0  0  0  0  0  0  0  0  0
    5.1954    0.6572   19.9481 C   0  0  0  0  0  0  0  0  0  0  0  0
    4.1456    1.1478   20.7179 C   0  0  0  0  0  0  0  0  0  0  0  0
    3.1982    1.9659   20.1268 C   0  0  0  0  0  0  0  0  0  0  0  0
    3.3241    2.2700   18.7909 C   0  0  0  0  0  0  0  0  0  0  0  0
    4.3185    1.8150   18.0286 N   0  0  0  0  0  0  0  0  0  0  0  0
    5.2277    1.0262   18.6082 C   0  0  0  0  0  0  0  0  0  0  0  0
   10.0395    1.2479   21.7956 C   0  0  0  0  0  0  0  0  0  0  0  0
   11.4869    5.3433   23.8981 N   0  0  0  0  0  0  0  0  0  0  0  0
  1  2  1  0
  2  3  1  0
  3  4  1  0
  4  5  2  0
  5  6  1  0
  6  7  2  0
  7  8  1  0
  7  9  1  0
  9 10  1  0
 10 11  1  0
 11 12  2  0
 12 13  1  0
 13 14  2  0
 14 15  1  0
 15 16  1  0
 16 17  1  0
 17 18  1  0
 18 19  2  0
 18 20  1  0
 20 21  1  0
 21 22  2  0
 22 23  1  0
 23 24  2  0
 24 25  1  0
 25 26  2  0
 15 27  2  0
  9 28  2  0
 28  4  1  0
 27 11  1  0
 26 21  1  0
M  END
