CVD-0002200|dock_bobby27042020.92|mol2|22|dock1
     RDKit          3D

 22 24  0  0  0  0  0  0  0  0999 V2000
   13.6058    0.0016   22.7367 C   0  0  0  0  0  0  0  0  0  0  0  0
   13.7590   -1.3135   22.0387 C   0  0  0  0  0  0  0  0  0  0  0  0
   12.4679   -1.8818   21.6884 N   0  0  0  0  0  0  0  0  0  0  0  0
   11.5942   -2.3277   22.6065 C   0  0  0  0  0  0  0  0  0  0  0  0
   12.0240   -3.3142   23.4187 N   0  0  0  0  0  0  0  0  0  0  0  0
   11.1777   -3.7782   24.3447 C   0  0  0  0  0  0  0  0  0  0  0  0
    9.8843   -3.2990   24.5127 C   0  0  0  0  0  0  0  0  0  0  0  0
    9.4519   -2.2825   23.6688 C   0  0  0  0  0  0  0  0  0  0  0  0
   10.3001   -1.7734   22.6924 C   0  0  0  0  0  0  0  0  0  0  0  0
    9.8065   -0.6614   21.7841 C   0  0  0  0  0  0  0  0  0  0  0  0
    8.7202   -1.0851   20.8167 C   0  0  0  0  0  0  0  0  0  0  0  0
    8.3962   -2.4197   20.6319 C   0  0  0  0  0  0  0  0  0  0  0  0
    7.4475   -2.8645   19.7972 N   0  0  0  0  0  0  0  0  0  0  0  0
    6.7692   -1.9461   19.0958 C   0  0  0  0  0  0  0  0  0  0  0  0
    5.6667   -2.1807   18.1004 C   0  0  0  0  0  0  0  0  0  0  0  0
    5.3432   -0.8272   17.7048 N   0  0  0  0  0  0  0  0  0  0  0  0
    6.0888    0.1214   18.3000 C   0  0  0  0  0  0  0  0  0  0  0  0
    5.9806    1.3292   18.1174 O   0  0  0  0  0  0  0  0  0  0  0  0
    7.0145   -0.5909   19.2064 C   0  0  0  0  0  0  0  0  0  0  0  0
    8.0042   -0.1492   20.0791 C   0  0  0  0  0  0  0  0  0  0  0  0
    9.0133   -3.8357   25.5291 C   0  0  0  0  0  0  0  0  0  0  0  0
    8.3359   -4.2389   26.3558 N   0  0  0  0  0  0  0  0  0  0  0  0
  1  2  1  0
  2  3  1  0
  3  4  1  0
  4  5  2  0
  5  6  1  0
  6  7  2  0
  7  8  1  0
  8  9  2  0
  9 10  1  0
 10 11  1  0
 11 12  2  0
 12 13  1  0
 13 14  2  0
 14 15  1  0
 15 16  1  0
 16 17  1  0
 17 18  2  0
 17 19  1  0
 19 20  2  0
  7 21  1  0
 21 22  3  0
  9  4  1  0
 20 11  1  0
 19 14  1  0
M  END
