CVD-0001718|dock_bobby27042020.51|mol2|32|dock1
     RDKit          3D

 22 24  0  0  0  0  0  0  0  0999 V2000
   13.8064   -1.7446   21.9690 Cl  0  0  0  0  0  0  0  0  0  0  0  0
   13.6799   -0.5959   23.3076 C   0  0  0  0  0  0  0  0  0  0  0  0
   12.6528    0.4859   23.0325 C   0  0  0  0  0  0  0  0  0  0  0  0
   13.0060    1.6433   22.8445 O   0  0  0  0  0  0  0  0  0  0  0  0
   11.3435    0.1482   23.0063 N   0  0  0  0  0  0  0  0  0  0  0  0
   10.2778    1.1197   22.7505 C   0  0  0  0  0  0  0  0  0  0  0  0
    9.3997    0.6537   21.6041 C   0  0  0  0  0  0  0  0  0  0  0  0
    8.8250   -0.6603   21.9069 N   0  0  0  0  0  0  0  0  0  0  0  0
    7.9401   -1.0995   20.8149 C   0  0  0  0  0  0  0  0  0  0  0  0
    6.7887   -0.1950   20.4150 C   0  0  0  0  0  0  0  0  0  0  0  0
    6.6314    0.3224   19.1452 C   0  0  0  0  0  0  0  0  0  0  0  0
    5.5592    1.1360   18.8340 C   0  0  0  0  0  0  0  0  0  0  0  0
    5.4198    1.7490   17.2100 Cl  0  0  0  0  0  0  0  0  0  0  0  0
    4.6117    1.4735   19.7516 C   0  0  0  0  0  0  0  0  0  0  0  0
    4.7270    0.9763   21.0683 C   0  0  0  0  0  0  0  0  0  0  0  0
    3.7927    1.2761   22.0868 C   0  0  0  0  0  0  0  0  0  0  0  0
    3.8783    0.8240   23.3243 N   0  0  0  0  0  0  0  0  0  0  0  0
    4.9125    0.0361   23.6256 C   0  0  0  0  0  0  0  0  0  0  0  0
    5.8817   -0.3313   22.7454 C   0  0  0  0  0  0  0  0  0  0  0  0
    5.8232    0.1350   21.4068 C   0  0  0  0  0  0  0  0  0  0  0  0
    9.9081   -1.6201   22.1049 C   0  0  0  0  0  0  0  0  0  0  0  0
   10.8026   -1.1919   23.2541 C   0  0  0  0  0  0  0  0  0  0  0  0
  1  2  1  0
  2  3  1  0
  3  4  2  0
  3  5  1  0
  5  6  1  0
  6  7  1  0
  7  8  1  0
  8  9  1  0
  9 10  1  0
 10 11  2  0
 11 12  1  0
 12 13  1  0
 12 14  2  0
 14 15  1  0
 15 16  2  0
 16 17  1  0
 17 18  2  0
 18 19  1  0
 19 20  2  0
  8 21  1  0
 21 22  1  0
 22  5  1  0
 20 10  1  0
 20 15  1  0
M  END
