CVD-0002292|dock_bobby27042020.78|mol2|3|dock1
     RDKit          3D

 40 43  0  0  0  0  0  0  0  0999 V2000
    1.8235   -8.5442   23.4287 C   0  0  0  0  0  0  0  0  0  0  0  0
    3.1247   -8.0097   23.8390 N   0  0  0  0  0  0  0  0  0  0  0  0
    3.1081   -7.2826   25.1128 C   0  0  0  0  0  0  0  0  0  0  0  0
    4.3917   -6.5283   25.3404 C   0  0  0  0  0  0  0  0  0  0  0  0
    4.9395   -5.5734   24.4665 C   0  0  0  0  0  0  0  0  0  0  0  0
    6.1229   -5.0728   24.9810 C   0  0  0  0  0  0  0  0  0  0  0  0
    7.0013   -4.0516   24.3485 C   0  0  0  0  0  0  0  0  0  0  0  0
    7.5897   -4.2633   23.1007 C   0  0  0  0  0  0  0  0  0  0  0  0
    8.4148   -3.3254   22.5065 C   0  0  0  0  0  0  0  0  0  0  0  0
    8.6802   -2.1097   23.1215 C   0  0  0  0  0  0  0  0  0  0  0  0
    8.0910   -1.8748   24.3585 C   0  0  0  0  0  0  0  0  0  0  0  0
    7.2893   -2.8257   24.9361 C   0  0  0  0  0  0  0  0  0  0  0  0
    6.7741   -2.5160   26.1480 F   0  0  0  0  0  0  0  0  0  0  0  0
    9.5248   -1.1146   22.5196 N   0  0  0  0  0  0  0  0  0  0  0  0
   10.9447   -0.9915   22.9578 C   0  0  0  0  0  0  0  0  0  0  0  0
   11.8633   -1.7778   22.0357 C   0  0  0  0  0  0  0  0  0  0  0  0
   11.1597   -1.3526   24.4212 C   0  0  0  0  0  0  0  0  0  0  0  0
    9.0543   -0.3099   21.5044 C   0  0  0  0  0  0  0  0  0  0  0  0
    9.7820    0.4995   20.9610 O   0  0  0  0  0  0  0  0  0  0  0  0
    7.6041   -0.3983   21.0508 C   0  0  0  0  0  0  0  0  0  0  0  0
    6.7224    0.5455   21.8593 C   0  0  0  0  0  0  0  0  0  0  0  0
    5.2884    0.4798   21.3756 C   0  0  0  0  0  0  0  0  0  0  0  0
    5.2265    0.8052   19.9530 N   0  0  0  0  0  0  0  0  0  0  0  0
    6.0146   -0.1070   19.1313 C   0  0  0  0  0  0  0  0  0  0  0  0
    7.4762   -0.0692   19.5651 C   0  0  0  0  0  0  0  0  0  0  0  0
    4.3430    1.6460   19.3755 C   0  0  0  0  0  0  0  0  0  0  0  0
    4.3682    1.8790   18.1737 O   0  0  0  0  0  0  0  0  0  0  0  0
    3.3172    2.3004   20.2812 C   0  0  0  0  0  0  0  0  0  0  0  0
    2.1355    3.2116   19.3319 Cl  0  0  0  0  0  0  0  0  0  0  0  0
    6.3048   -5.7377   26.2278 N   0  0  0  0  0  0  0  0  0  0  0  0
    5.2478   -6.6171   26.4265 C   0  0  0  0  0  0  0  0  0  0  0  0
    7.5019   -5.6392   27.4267 S   0  0  0  0  0  0  0  0  0  0  0  0
    7.8184   -4.2479   27.5199 O   0  0  0  0  0  0  0  0  0  0  0  0
    8.5378   -6.5683   27.0984 O   0  0  0  0  0  0  0  0  0  0  0  0
    6.7242   -6.1033   28.9362 C   0  0  0  0  0  0  0  0  0  0  0  0
    7.1121   -7.2554   29.5984 C   0  0  0  0  0  0  0  0  0  0  0  0
    6.4704   -7.5852   30.7797 C   0  0  0  0  0  0  0  0  0  0  0  0
    5.4744   -6.7571   31.2460 C   0  0  0  0  0  0  0  0  0  0  0  0
    5.0892   -5.6455   30.6177 N   0  0  0  0  0  0  0  0  0  0  0  0
    5.7127   -5.3330   29.4779 C   0  0  0  0  0  0  0  0  0  0  0  0
  1  2  1  0
  2  3  1  0
  3  4  1  0
  4  5  1  0
  5  6  2  0
  6  7  1  0
  7  8  2  0
  8  9  1  0
  9 10  2  0
 10 11  1  0
 11 12  2  0
 12 13  1  0
 10 14  1  0
 14 15  1  0
 15 16  1  0
 15 17  1  0
 14 18  1  0
 18 19  2  0
 18 20  1  0
 20 21  1  0
 21 22  1  0
 22 23  1  0
 23 24  1  0
 24 25  1  0
 23 26  1  0
 26 27  2  0
 26 28  1  0
 28 29  1  0
  6 30  1  0
 30 31  1  0
 30 32  1  0
 32 33  2  0
 32 34  2  0
 32 35  1  0
 35 36  2  0
 36 37  1  0
 37 38  2  0
 38 39  1  0
 39 40  2  0
 31  4  2  0
 40 35  1  0
 12  7  1  0
 25 20  1  0
M  END
