CVD-0002592|dock_bobby27042020.76|mol2|36|dock1
     RDKit          3D

 52 58  0  0  0  0  0  0  0  0999 V2000
    1.8582   -8.4824   21.2871 Cl  0  0  0  0  0  0  0  0  0  0  0  0
    0.7257   -7.6282   22.3433 C   0  0  0  0  0  0  0  0  0  0  0  0
    1.3550   -6.3690   22.9083 C   0  0  0  0  0  0  0  0  0  0  0  0
    0.9170   -5.2615   22.6227 O   0  0  0  0  0  0  0  0  0  0  0  0
    2.4159   -6.5254   23.7284 N   0  0  0  0  0  0  0  0  0  0  0  0
    3.0823   -5.3642   24.2947 C   0  0  0  0  0  0  0  0  0  0  0  0
    3.1946   -5.4933   25.7812 C   0  0  0  0  0  0  0  0  0  0  0  0
    3.8809   -6.7527   26.1022 N   0  0  0  0  0  0  0  0  0  0  0  0
    3.1475   -7.9197   25.5900 C   0  0  0  0  0  0  0  0  0  0  0  0
    3.0269   -7.8057   24.0991 C   0  0  0  0  0  0  0  0  0  0  0  0
    4.5802   -6.8637   27.5594 S   0  0  0  0  0  0  0  0  0  0  0  0
    3.7506   -6.1497   28.4785 O   0  0  0  0  0  0  0  0  0  0  0  0
    4.8517   -8.2478   27.7904 O   0  0  0  0  0  0  0  0  0  0  0  0
    6.1125   -6.0407   27.5020 C   0  0  0  0  0  0  0  0  0  0  0  0
    7.2685   -6.4262   28.1373 C   0  0  0  0  0  0  0  0  0  0  0  0
    8.3259   -5.5496   27.8958 C   0  0  0  0  0  0  0  0  0  0  0  0
    7.9972   -4.4876   27.0814 C   0  0  0  0  0  0  0  0  0  0  0  0
    8.8867   -3.3703   26.6250 C   0  0  0  0  0  0  0  0  0  0  0  0
    8.9621   -3.2844   25.1644 N   0  0  0  0  0  0  0  0  0  0  0  0
    8.0125   -2.2991   24.6628 C   0  0  0  0  0  0  0  0  0  0  0  0
    8.0564   -2.2321   23.1477 C   0  0  0  0  0  0  0  0  0  0  0  0
    9.4327   -1.8920   22.7382 N   0  0  0  0  0  0  0  0  0  0  0  0
   10.4086   -2.8801   23.2355 C   0  0  0  0  0  0  0  0  0  0  0  0
   10.3102   -2.9247   24.7452 C   0  0  0  0  0  0  0  0  0  0  0  0
    9.6558   -1.3287   21.2231 S   0  0  0  0  0  0  0  0  0  0  0  0
    9.2187   -2.3556   20.3291 O   0  0  0  0  0  0  0  0  0  0  0  0
   11.0044   -0.8581   21.1543 O   0  0  0  0  0  0  0  0  0  0  0  0
    8.5799    0.0703   21.0108 C   0  0  0  0  0  0  0  0  0  0  0  0
    7.4581   -0.1133   20.2487 C   0  0  0  0  0  0  0  0  0  0  0  0
    6.5715    0.9305   20.0407 C   0  0  0  0  0  0  0  0  0  0  0  0
    6.7938    2.1603   20.5848 C   0  0  0  0  0  0  0  0  0  0  0  0
    7.9425    2.3993   21.3762 C   0  0  0  0  0  0  0  0  0  0  0  0
    8.2117    3.6577   21.9573 C   0  0  0  0  0  0  0  0  0  0  0  0
    9.3253    3.8769   22.7193 C   0  0  0  0  0  0  0  0  0  0  0  0
    9.5269    5.2598   23.2997 C   0  0  0  0  0  0  0  0  0  0  0  0
    8.7234    5.4751   24.5799 C   0  0  0  0  0  0  0  0  0  0  0  0
    8.6470    6.9115   25.0156 C   0  0  0  0  0  0  0  0  0  0  0  0
    9.2695    7.5278   26.0772 C   0  0  0  0  0  0  0  0  0  0  0  0
    8.9734    8.8839   26.1895 C   0  0  0  0  0  0  0  0  0  0  0  0
    8.1319    9.2928   25.2190 C   0  0  0  0  0  0  0  0  0  0  0  0
    7.5178   10.8781   24.9926 Cl  0  0  0  0  0  0  0  0  0  0  0  0
    7.6751    8.0411   24.1408 S   0  0  0  0  0  0  0  0  0  0  0  0
   10.2414    2.8356   22.9373 C   0  0  0  0  0  0  0  0  0  0  0  0
   11.4833    3.0510   23.7744 C   0  0  0  0  0  0  0  0  0  0  0  0
   12.5153    3.9048   23.0950 C   0  0  0  0  0  0  0  0  0  0  0  0
   12.9110    3.8722   21.7746 C   0  0  0  0  0  0  0  0  0  0  0  0
   13.9134    4.8371   21.5121 C   0  0  0  0  0  0  0  0  0  0  0  0
   14.2533    5.5611   22.5908 C   0  0  0  0  0  0  0  0  0  0  0  0
   13.3646    5.0955   23.9705 S   0  0  0  0  0  0  0  0  0  0  0  0
   10.0128    1.6013   22.3916 C   0  0  0  0  0  0  0  0  0  0  0  0
    8.8662    1.3412   21.6009 C   0  0  0  0  0  0  0  0  0  0  0  0
    6.3378   -4.5934   26.6139 S   0  0  0  0  0  0  0  0  0  0  0  0
  1  2  1  0
  2  3  1  0
  3  4  2  0
  3  5  1  0
  5  6  1  0
  6  7  1  0
  7  8  1  0
  8  9  1  0
  9 10  1  0
  8 11  1  0
 11 12  2  0
 11 13  2  0
 11 14  1  0
 14 15  2  0
 15 16  1  0
 16 17  2  0
 17 18  1  0
 18 19  1  0
 19 20  1  0
 20 21  1  0
 21 22  1  0
 22 23  1  0
 23 24  1  0
 22 25  1  0
 25 26  2  0
 25 27  2  0
 25 28  1  0
 28 29  2  0
 29 30  1  0
 30 31  2  0
 31 32  1  0
 32 33  2  0
 33 34  1  0
 34 35  1  0
 35 36  1  0
 36 37  1  0
 37 38  2  0
 38 39  1  0
 39 40  2  0
 40 41  1  0
 40 42  1  0
 34 43  2  0
 43 44  1  0
 44 45  1  0
 45 46  2  0
 46 47  1  0
 47 48  2  0
 48 49  1  0
 43 50  1  0
 50 51  2  0
 17 52  1  0
 10  5  1  0
 52 14  1  0
 24 19  1  0
 51 28  1  0
 51 32  1  0
 42 37  1  0
 49 45  1  0
M  END
