CVD-0000277|dock_bobby27042020.56|mol2|31|dock2
     RDKit          3D

 28 30  0  0  0  0  0  0  0  0999 V2000
    8.0587   -3.0276   25.3709 C   0  0  0  0  0  0  0  0  0  0  0  0
    8.0934   -2.6484   23.9052 C   0  0  0  0  0  0  0  0  0  0  0  0
    7.5212   -3.7078   23.1268 O   0  0  0  0  0  0  0  0  0  0  0  0
    6.1262   -3.9413   23.3651 C   0  0  0  0  0  0  0  0  0  0  0  0
    5.4908   -4.6972   22.2290 C   0  0  0  0  0  0  0  0  0  0  0  0
    6.1340   -6.0665   22.1722 C   0  0  0  0  0  0  0  0  0  0  0  0
    5.6981   -6.9387   23.3390 C   0  0  0  0  0  0  0  0  0  0  0  0
    4.1931   -6.9500   23.4554 C   0  0  0  0  0  0  0  0  0  0  0  0
    3.6570   -5.5304   23.5094 C   0  0  0  0  0  0  0  0  0  0  0  0
    4.0923   -4.7741   22.3681 O   0  0  0  0  0  0  0  0  0  0  0  0
    9.5323   -2.4352   23.4370 C   0  0  0  0  0  0  0  0  0  0  0  0
   10.4467   -2.7448   24.1765 O   0  0  0  0  0  0  0  0  0  0  0  0
    9.7863   -1.9167   22.2201 N   0  0  0  0  0  0  0  0  0  0  0  0
    8.7089   -1.5021   21.3134 C   0  0  0  0  0  0  0  0  0  0  0  0
    8.3312   -0.0364   21.4834 C   0  0  0  0  0  0  0  0  0  0  0  0
    7.0865    0.3201   20.7072 C   0  0  0  0  0  0  0  0  0  0  0  0
    5.8452    0.3355   21.3246 C   0  0  0  0  0  0  0  0  0  0  0  0
    4.7034    0.6656   20.6138 C   0  0  0  0  0  0  0  0  0  0  0  0
    4.7892    0.9856   19.2760 C   0  0  0  0  0  0  0  0  0  0  0  0
    6.0168    0.9758   18.6497 C   0  0  0  0  0  0  0  0  0  0  0  0
    7.1580    0.6454   19.3615 C   0  0  0  0  0  0  0  0  0  0  0  0
   11.1519   -1.6990   21.7366 C   0  0  0  0  0  0  0  0  0  0  0  0
   12.1512   -1.5159   22.8533 C   0  0  0  0  0  0  0  0  0  0  0  0
   13.2103   -2.3915   23.0247 C   0  0  0  0  0  0  0  0  0  0  0  0
   14.1091   -2.1906   24.0576 C   0  0  0  0  0  0  0  0  0  0  0  0
   13.9183   -1.1118   24.8909 C   0  0  0  0  0  0  0  0  0  0  0  0
   12.9092   -0.2509   24.7505 N   0  0  0  0  0  0  0  0  0  0  0  0
   12.0540   -0.4651   23.7460 C   0  0  0  0  0  0  0  0  0  0  0  0
  1  2  1  0
  2  3  1  0
  3  4  1  0
  4  5  1  0
  5  6  1  0
  6  7  1  0
  7  8  1  0
  8  9  1  0
  9 10  1  0
  2 11  1  0
 11 12  2  0
 11 13  1  0
 13 14  1  0
 14 15  1  0
 15 16  1  0
 16 17  2  0
 17 18  1  0
 18 19  2  0
 19 20  1  0
 20 21  2  0
 13 22  1  0
 22 23  1  0
 23 24  2  0
 24 25  1  0
 25 26  2  0
 26 27  1  0
 27 28  2  0
 10  5  1  0
 21 16  1  0
 28 23  1  0
M  END
