CVD-0000728|dock_bobby27042020.40|mol2|34|dock2
     RDKit          3D

 30 33  0  0  0  0  0  0  0  0999 V2000
    2.8312    1.3088   20.7108 Cl  0  0  0  0  0  0  0  0  0  0  0  0
    4.2120    1.1194   19.6668 C   0  0  0  0  0  0  0  0  0  0  0  0
    4.4039    2.0118   18.6350 C   0  0  0  0  0  0  0  0  0  0  0  0
    5.5051    1.8508   17.8112 C   0  0  0  0  0  0  0  0  0  0  0  0
    6.3913    0.8093   18.0287 C   0  0  0  0  0  0  0  0  0  0  0  0
    6.1926   -0.0855   19.0707 C   0  0  0  0  0  0  0  0  0  0  0  0
    5.0880    0.0774   19.8937 C   0  0  0  0  0  0  0  0  0  0  0  0
    7.1646   -1.2314   19.3074 C   0  0  0  0  0  0  0  0  0  0  0  0
    6.4016   -2.4154   19.8513 C   0  0  0  0  0  0  0  0  0  0  0  0
    6.8812   -2.8069   21.0378 C   0  0  0  0  0  0  0  0  0  0  0  0
    6.3462   -3.9004   21.9316 C   0  0  0  0  0  0  0  0  0  0  0  0
    7.4175   -4.5960   22.7407 C   0  0  0  0  0  0  0  0  0  0  0  0
    7.9266   -5.8257   22.3580 C   0  0  0  0  0  0  0  0  0  0  0  0
    8.9043   -6.4350   23.1246 C   0  0  0  0  0  0  0  0  0  0  0  0
    9.3440   -5.7900   24.2582 C   0  0  0  0  0  0  0  0  0  0  0  0
    8.8725   -4.6065   24.6534 N   0  0  0  0  0  0  0  0  0  0  0  0
    7.9287   -4.0375   23.8971 C   0  0  0  0  0  0  0  0  0  0  0  0
    8.0896   -1.9971   21.4428 C   0  0  0  0  0  0  0  0  0  0  0  0
    8.2489   -0.9852   20.3312 C   0  0  0  0  0  0  0  0  0  0  0  0
    8.3035    0.4467   20.8328 C   0  0  0  0  0  0  0  0  0  0  0  0
    7.3745    1.2345   20.6742 O   0  0  0  0  0  0  0  0  0  0  0  0
    9.4337    0.7858   21.4546 N   0  0  0  0  0  0  0  0  0  0  0  0
    9.6765    2.1135   22.0029 C   0  0  0  0  0  0  0  0  0  0  0  0
   11.1593    2.4046   22.1181 C   0  0  0  0  0  0  0  0  0  0  0  0
   11.4383    3.8213   22.3872 N   0  0  0  0  0  0  0  0  0  0  0  0
   12.8513    4.1152   22.1190 C   0  0  0  0  0  0  0  0  0  0  0  0
   13.1624    5.5709   22.3572 C   0  0  0  0  0  0  0  0  0  0  0  0
   12.8073    5.9929   23.7587 C   0  0  0  0  0  0  0  0  0  0  0  0
   11.3700    5.6159   24.0628 C   0  0  0  0  0  0  0  0  0  0  0  0
   11.1254    4.1574   23.7834 C   0  0  0  0  0  0  0  0  0  0  0  0
  1  2  1  0
  2  3  2  0
  3  4  1  0
  4  5  2  0
  5  6  1  0
  6  7  2  0
  8  6  1  0
  8  9  1  0
  9 10  2  0
 10 11  1  0
 11 12  1  0
 12 13  2  0
 13 14  1  0
 14 15  2  0
 15 16  1  0
 16 17  2  0
 10 18  1  0
 18 19  1  0
 19 20  1  0
 20 21  2  0
 20 22  1  0
 22 23  1  0
 23 24  1  0
 24 25  1  0
 25 26  1  0
 26 27  1  0
 27 28  1  0
 28 29  1  0
 29 30  1  0
  7  2  1  0
 19  8  1  0
 30 25  1  0
 17 12  1  0
M  END
