CVD-0001911|dock_bobby27042020.65|mol2|31|dock2
     RDKit          3D

 33 36  0  0  0  0  0  0  0  0999 V2000
    7.5227    5.0076   23.7264 C   0  0  0  0  0  0  0  0  0  0  0  0
    8.3938    4.7043   22.5350 C   0  0  0  0  0  0  0  0  0  0  0  0
    9.8278    4.3609   22.8671 C   0  0  0  0  0  0  0  0  0  0  0  0
   10.7474    5.3931   23.0304 C   0  0  0  0  0  0  0  0  0  0  0  0
   12.0701    5.1295   23.3305 C   0  0  0  0  0  0  0  0  0  0  0  0
   12.4989    3.8193   23.4267 C   0  0  0  0  0  0  0  0  0  0  0  0
   11.6258    2.7504   23.2373 C   0  0  0  0  0  0  0  0  0  0  0  0
   12.2114    1.3619   23.2446 C   0  0  0  0  0  0  0  0  0  0  0  0
   10.2650    3.0347   23.0257 C   0  0  0  0  0  0  0  0  0  0  0  0
    9.2612    2.0068   22.9481 N   0  0  0  0  0  0  0  0  0  0  0  0
    8.9708    1.2279   21.8732 C   0  0  0  0  0  0  0  0  0  0  0  0
    9.5308    1.2823   20.7819 O   0  0  0  0  0  0  0  0  0  0  0  0
    7.8470    0.1926   22.0946 C   0  0  0  0  0  0  0  0  0  0  0  0
    8.3768   -1.0156   22.7847 N   0  0  0  0  0  0  0  0  0  0  0  0
    7.4146   -1.7481   23.4674 C   0  0  0  0  0  0  0  0  0  0  0  0
    6.2458   -1.3634   23.4656 O   0  0  0  0  0  0  0  0  0  0  0  0
    7.6956   -3.0069   24.2275 C   0  0  0  0  0  0  0  0  0  0  0  0
    6.9053   -3.5500   25.1194 C   0  0  0  0  0  0  0  0  0  0  0  0
    9.7786   -1.3216   22.8118 C   0  0  0  0  0  0  0  0  0  0  0  0
   10.4739   -1.4732   21.6171 C   0  0  0  0  0  0  0  0  0  0  0  0
   11.8264   -1.7726   21.5995 C   0  0  0  0  0  0  0  0  0  0  0  0
   12.5359   -1.9306   22.7904 C   0  0  0  0  0  0  0  0  0  0  0  0
   13.8849   -2.2333   22.9592 N   0  0  0  0  0  0  0  0  0  0  0  0
   14.1772   -2.2962   24.2147 C   0  0  0  0  0  0  0  0  0  0  0  0
   12.8906   -2.0046   25.3405 S   0  0  0  0  0  0  0  0  0  0  0  0
   11.8313   -1.7706   23.9877 C   0  0  0  0  0  0  0  0  0  0  0  0
   10.4767   -1.4672   24.0060 C   0  0  0  0  0  0  0  0  0  0  0  0
    7.1187   -0.0512   20.7804 C   0  0  0  0  0  0  0  0  0  0  0  0
    6.5993    0.9946   20.0328 C   0  0  0  0  0  0  0  0  0  0  0  0
    5.9454    0.7308   18.8419 C   0  0  0  0  0  0  0  0  0  0  0  0
    5.8309   -0.5785   18.4323 C   0  0  0  0  0  0  0  0  0  0  0  0
    6.3213   -1.6069   19.1262 N   0  0  0  0  0  0  0  0  0  0  0  0
    6.9510   -1.3280   20.2714 C   0  0  0  0  0  0  0  0  0  0  0  0
  1  2  1  0
  2  3  1  0
  3  4  2  0
  4  5  1  0
  5  6  2  0
  6  7  1  0
  7  8  1  0
  7  9  2  0
  9 10  1  0
 10 11  1  0
 11 12  2  0
 11 13  1  0
 13 14  1  0
 14 15  1  0
 15 16  2  0
 15 17  1  0
 17 18  2  0
 14 19  1  0
 19 20  2  0
 20 21  1  0
 21 22  2  0
 22 23  1  0
 23 24  2  0
 24 25  1  0
 25 26  1  0
 26 27  2  0
 13 28  1  0
 28 29  2  0
 29 30  1  0
 30 31  2  0
 31 32  1  0
 32 33  2  0
  9  3  1  0
 27 19  1  0
 33 28  1  0
 26 22  1  0
M  END
