CVD-0002840|dock_bobby27042020.90|mol2|5|dock1
     RDKit          3D

 17 18  0  0  0  0  0  0  0  0999 V2000
   13.8387    5.5885   21.9096 C   0  0  0  0  0  0  0  0  0  0  0  0
   12.7385    4.7859   22.5703 C   0  0  0  0  0  0  0  0  0  0  0  0
   11.6391    5.6611   22.8314 O   0  0  0  0  0  0  0  0  0  0  0  0
   12.2556    3.6181   21.7178 C   0  0  0  0  0  0  0  0  0  0  0  0
   11.0335    2.9306   22.2418 C   0  0  0  0  0  0  0  0  0  0  0  0
    9.8057    3.5472   22.2583 N   0  0  0  0  0  0  0  0  0  0  0  0
    8.9216    2.6756   22.7665 C   0  0  0  0  0  0  0  0  0  0  0  0
    9.4859    1.5264   23.0911 N   0  0  0  0  0  0  0  0  0  0  0  0
   10.8310    1.6757   22.7719 C   0  0  0  0  0  0  0  0  0  0  0  0
   11.7820    0.5646   23.0285 C   0  0  0  0  0  0  0  0  0  0  0  0
   13.0484    0.8481   23.5482 C   0  0  0  0  0  0  0  0  0  0  0  0
   13.9986   -0.0613   23.7761 N   0  0  0  0  0  0  0  0  0  0  0  0
   13.6790   -1.3320   23.5434 C   0  0  0  0  0  0  0  0  0  0  0  0
   12.4513   -1.7358   23.0611 C   0  0  0  0  0  0  0  0  0  0  0  0
   11.4708   -0.7865   22.7785 C   0  0  0  0  0  0  0  0  0  0  0  0
   10.1465   -1.2482   22.2147 C   0  0  0  0  0  0  0  0  0  0  0  0
   10.2461   -2.4367   21.4489 O   0  0  0  0  0  0  0  0  0  0  0  0
  2  1  1  0
  2  3  1  0
  2  4  1  0
  4  5  1  0
  5  6  1  0
  6  7  1  0
  7  8  2  0
  8  9  1  0
  9 10  1  0
 10 11  2  0
 11 12  1  0
 12 13  2  0
 13 14  1  0
 14 15  2  0
 15 16  1  0
 16 17  1  0
  9  5  2  0
 15 10  1  0
M  END
