CVD-0002106|dock_bobby27042020.64|mol2|35|dock2
     RDKit          3D

 23 25  0  0  0  0  0  0  0  0999 V2000
   14.0987   -0.8888   23.2699 N   0  0  0  0  0  0  0  0  0  0  0  0
   12.7400   -0.5512   23.7504 C   0  0  0  0  0  0  0  0  0  0  0  0
   11.8390    0.1595   22.7449 C   0  0  0  0  0  0  0  0  0  0  0  0
   10.4846   -0.1085   23.1188 O   0  0  0  0  0  0  0  0  0  0  0  0
    9.5632    0.5396   22.2294 C   0  0  0  0  0  0  0  0  0  0  0  0
    9.6362    2.0323   22.4037 C   0  0  0  0  0  0  0  0  0  0  0  0
   11.0428    2.5451   22.5655 C   0  0  0  0  0  0  0  0  0  0  0  0
   11.3104    3.9236   22.5727 C   0  0  0  0  0  0  0  0  0  0  0  0
   10.3166    4.8600   22.4820 O   0  0  0  0  0  0  0  0  0  0  0  0
   12.6205    4.3878   22.6721 C   0  0  0  0  0  0  0  0  0  0  0  0
   12.8513    5.7262   22.6897 O   0  0  0  0  0  0  0  0  0  0  0  0
   13.6725    3.4896   22.7650 C   0  0  0  0  0  0  0  0  0  0  0  0
   13.4058    2.1330   22.7576 C   0  0  0  0  0  0  0  0  0  0  0  0
   12.0989    1.6484   22.6586 C   0  0  0  0  0  0  0  0  0  0  0  0
    8.1825   -0.0252   22.5288 C   0  0  0  0  0  0  0  0  0  0  0  0
    7.9546   -1.2266   21.6127 C   0  0  0  0  0  0  0  0  0  0  0  0
    8.8075   -2.4225   21.9804 C   0  0  0  0  0  0  0  0  0  0  0  0
   10.1935   -2.0830   21.8848 O   0  0  0  0  0  0  0  0  0  0  0  0
    8.4648   -2.8465   23.3983 C   0  0  0  0  0  0  0  0  0  0  0  0
    8.6776   -1.7497   24.4668 C   0  0  0  0  0  0  0  0  0  0  0  0
    8.1295   -2.1888   25.7105 O   0  0  0  0  0  0  0  0  0  0  0  0
    7.9780   -0.4560   23.9760 C   0  0  0  0  0  0  0  0  0  0  0  0
    6.5794   -0.6245   24.1815 O   0  0  0  0  0  0  0  0  0  0  0  0
  1  2  1  0
  2  3  1  0
  3  4  1  0
  4  5  1  0
  5  6  1  0
  6  7  1  0
  7  8  2  0
  8  9  1  0
  8 10  1  0
 10 11  1  0
 10 12  2  0
 12 13  1  0
 13 14  2  0
  5 15  1  0
 15 16  1  0
 16 17  1  0
 17 18  1  0
 17 19  1  0
 19 20  1  0
 20 21  1  0
 20 22  1  0
 22 23  1  0
 14  3  1  0
 22 15  1  0
 14  7  1  0
M  END
