CVD-0003895|dock_bobby27042020.58|mol2|19|dock3
     RDKit          3D

 24 27  0  0  0  0  0  0  0  0999 V2000
   14.5463    6.1829   22.0045 N   0  0  0  0  0  0  0  0  0  0  0  0
   13.5324    5.7341   22.2791 C   0  0  0  0  0  0  0  0  0  0  0  0
   12.2714    5.1304   22.6328 C   0  0  0  0  0  0  0  0  0  0  0  0
   11.3002    5.8720   23.2955 C   0  0  0  0  0  0  0  0  0  0  0  0
   10.0940    5.2790   23.6260 C   0  0  0  0  0  0  0  0  0  0  0  0
    9.8551    3.9541   23.3000 C   0  0  0  0  0  0  0  0  0  0  0  0
   10.8150    3.1905   22.6413 C   0  0  0  0  0  0  0  0  0  0  0  0
   12.0259    3.7982   22.3086 C   0  0  0  0  0  0  0  0  0  0  0  0
   10.5883    1.7622   22.2738 C   0  0  0  0  0  0  0  0  0  0  0  0
    9.5415    1.5844   21.4839 N   0  0  0  0  0  0  0  0  0  0  0  0
    9.1963    0.3393   21.1346 C   0  0  0  0  0  0  0  0  0  0  0  0
    9.8160   -0.7783   21.4973 N   0  0  0  0  0  0  0  0  0  0  0  0
   10.9290   -0.6246   22.2791 C   0  0  0  0  0  0  0  0  0  0  0  0
   11.6402   -1.7818   22.6744 C   0  0  0  0  0  0  0  0  0  0  0  0
   12.7609   -1.6752   23.4427 C   0  0  0  0  0  0  0  0  0  0  0  0
   13.2266   -0.4406   23.8424 C   0  0  0  0  0  0  0  0  0  0  0  0
   12.5741    0.7016   23.4842 C   0  0  0  0  0  0  0  0  0  0  0  0
   11.3893    0.6504   22.7013 C   0  0  0  0  0  0  0  0  0  0  0  0
    8.0101    0.1868   20.2607 C   0  0  0  0  0  0  0  0  0  0  0  0
    7.8505   -0.9273   19.4454 C   0  0  0  0  0  0  0  0  0  0  0  0
    6.7302   -1.0385   18.6409 C   0  0  0  0  0  0  0  0  0  0  0  0
    5.7961   -0.0283   18.6739 C   0  0  0  0  0  0  0  0  0  0  0  0
    5.9172    1.0540   19.4438 N   0  0  0  0  0  0  0  0  0  0  0  0
    7.0057    1.1444   20.2141 C   0  0  0  0  0  0  0  0  0  0  0  0
  1  2  3  0
  2  3  1  0
  3  4  2  0
  4  5  1  0
  5  6  2  0
  6  7  1  0
  7  8  2  0
  7  9  1  0
  9 10  2  0
 10 11  1  0
 11 12  2  0
 12 13  1  0
 13 14  2  0
 14 15  1  0
 15 16  2  0
 16 17  1  0
 17 18  2  0
 11 19  1  0
 19 20  2  0
 20 21  1  0
 21 22  2  0
 22 23  1  0
 23 24  2  0
  8  3  1  0
 18  9  1  0
 24 19  1  0
 18 13  1  0
M  END
