CVD-0001835|dock_bobby27042020.66|mol2|1|dock1
     RDKit          3D

 27 30  0  0  0  0  0  0  0  0999 V2000
    4.3156    1.5814   19.2416 C   0  0  0  0  0  0  0  0  0  0  0  0
    5.6304    0.9960   19.6215 C   0  0  0  0  0  0  0  0  0  0  0  0
    5.9565    0.5319   20.8194 N   0  0  0  0  0  0  0  0  0  0  0  0
    7.2441    0.1072   20.6491 C   0  0  0  0  0  0  0  0  0  0  0  0
    8.0420   -0.5082   21.7512 C   0  0  0  0  0  0  0  0  0  0  0  0
    8.7222   -1.7949   21.3129 C   0  0  0  0  0  0  0  0  0  0  0  0
    9.4008   -2.4844   22.4231 N   0  0  0  0  0  0  0  0  0  0  0  0
   10.6817   -2.2281   22.8270 C   0  0  0  0  0  0  0  0  0  0  0  0
   11.0129   -2.9990   23.8377 N   0  0  0  0  0  0  0  0  0  0  0  0
    9.9192   -3.8097   24.1245 N   0  0  0  0  0  0  0  0  0  0  0  0
    8.9736   -3.4909   23.2684 C   0  0  0  0  0  0  0  0  0  0  0  0
    7.7564   -4.1319   23.2973 N   0  0  0  0  0  0  0  0  0  0  0  0
    7.6615   -5.4089   24.0115 C   0  0  0  0  0  0  0  0  0  0  0  0
    6.5622   -5.3239   25.0285 C   0  0  0  0  0  0  0  0  0  0  0  0
    5.3180   -4.9628   24.4297 O   0  0  0  0  0  0  0  0  0  0  0  0
    5.4228   -3.7091   23.7828 C   0  0  0  0  0  0  0  0  0  0  0  0
    4.0737   -3.4125   23.1440 C   0  0  0  0  0  0  0  0  0  0  0  0
    5.7475   -2.6735   24.8482 C   0  0  0  0  0  0  0  0  0  0  0  0
    6.4740   -3.7196   22.7199 C   0  0  0  0  0  0  0  0  0  0  0  0
   11.6277   -1.2130   22.2404 C   0  0  0  0  0  0  0  0  0  0  0  0
   12.7560   -0.8896   23.2241 C   0  0  0  0  0  0  0  0  0  0  0  0
   14.0229   -1.0370   22.3845 C   0  0  0  0  0  0  0  0  0  0  0  0
   13.6393   -1.7838   21.1809 C   0  0  0  0  0  0  0  0  0  0  0  0
   14.3285   -2.3765   20.3565 O   0  0  0  0  0  0  0  0  0  0  0  0
   12.3140   -1.7151   21.0669 N   0  0  0  0  0  0  0  0  0  0  0  0
    7.7162    0.2756   19.4290 N   0  0  0  0  0  0  0  0  0  0  0  0
    6.6601    0.8469   18.7904 N   0  0  0  0  0  0  0  0  0  0  0  0
  1  2  1  0
  2  3  2  0
  3  4  1  0
  4  5  1  0
  5  6  1  0
  6  7  1  0
  7  8  1  0
  8  9  2  0
  9 10  1  0
 10 11  2  0
 11 12  1  0
 12 13  1  0
 13 14  1  0
 14 15  1  0
 15 16  1  0
 16 17  1  0
 16 18  1  0
 16 19  1  0
  8 20  1  0
 20 21  1  0
 21 22  1  0
 22 23  1  0
 23 24  2  0
 23 25  1  0
  4 26  2  0
 26 27  1  0
 27  2  1  0
 11  7  1  0
 19 12  1  0
 25 20  1  0
M  END
