CVD-0001437|dock_bobby27042020.52|mol2|36|dock3
     RDKit          3D

 19 20  0  0  0  0  0  0  0  0999 V2000
    8.1365   -0.5469   23.0914 O   0  0  0  0  0  0  0  0  0  0  0  0
    8.7598   -0.9054   22.0966 C   0  0  0  0  0  0  0  0  0  0  0  0
    8.3577   -0.7517   20.8107 N   0  0  0  0  0  0  0  0  0  0  0  0
    7.1860   -0.1748   20.2601 C   0  0  0  0  0  0  0  0  0  0  0  0
    5.9861   -0.0648   20.9592 C   0  0  0  0  0  0  0  0  0  0  0  0
    4.8799    0.5113   20.3564 C   0  0  0  0  0  0  0  0  0  0  0  0
    4.9519    0.9807   19.0633 C   0  0  0  0  0  0  0  0  0  0  0  0
    6.1339    0.8764   18.3641 C   0  0  0  0  0  0  0  0  0  0  0  0
    7.2464    0.3025   18.9557 C   0  0  0  0  0  0  0  0  0  0  0  0
   10.1048   -1.5876   22.2294 C   0  0  0  0  0  0  0  0  0  0  0  0
   10.3459   -2.0409   23.6639 C   0  0  0  0  0  0  0  0  0  0  0  0
   11.7095   -2.6874   23.7960 C   0  0  0  0  0  0  0  0  0  0  0  0
   12.7476   -1.7540   23.3669 N   0  0  0  0  0  0  0  0  0  0  0  0
   12.5885   -1.3326   21.9792 C   0  0  0  0  0  0  0  0  0  0  0  0
   11.2340   -0.6576   21.7914 C   0  0  0  0  0  0  0  0  0  0  0  0
   13.8921   -1.5008   24.0212 C   0  0  0  0  0  0  0  0  0  0  0  0
   14.7194   -0.6877   23.6123 O   0  0  0  0  0  0  0  0  0  0  0  0
   14.1300   -2.2400   25.2625 C   0  0  0  0  0  0  0  0  0  0  0  0
   14.2926   -2.9370   26.1979 C   0  0  0  0  0  0  0  0  0  0  0  0
  1  2  2  0
  2  3  1  0
  3  4  1  0
  4  5  2  0
  5  6  1  0
  6  7  2  0
  7  8  1  0
  8  9  2  0
  2 10  1  0
 10 11  1  0
 11 12  1  0
 12 13  1  0
 13 14  1  0
 14 15  1  0
 13 16  1  0
 16 17  2  0
 16 18  1  0
 18 19  3  0
  9  4  1  0
 15 10  1  0
M  END
