CVD-0000148|dock_bobby27042020.71|mol2|18|dock1
     RDKit          3D

 18 19  0  0  0  0  0  0  0  0999 V2000
   10.1081   -0.2042   23.1544 O   0  0  0  0  0  0  0  0  0  0  0  0
   10.2905   -0.7944   22.0950 C   0  0  0  0  0  0  0  0  0  0  0  0
   11.5160   -1.6646   21.8985 C   0  0  0  0  0  0  0  0  0  0  0  0
   12.4327   -1.6477   23.1008 C   0  0  0  0  0  0  0  0  0  0  0  0
   12.3529   -2.6209   24.0828 C   0  0  0  0  0  0  0  0  0  0  0  0
   13.2104   -2.5762   25.1679 C   0  0  0  0  0  0  0  0  0  0  0  0
   14.1275   -1.5522   25.2358 C   0  0  0  0  0  0  0  0  0  0  0  0
   14.2295   -0.6014   24.3059 N   0  0  0  0  0  0  0  0  0  0  0  0
   13.3910   -0.6655   23.2672 C   0  0  0  0  0  0  0  0  0  0  0  0
    9.4829   -0.7550   21.0060 N   0  0  0  0  0  0  0  0  0  0  0  0
    8.2594   -0.0599   20.7852 C   0  0  0  0  0  0  0  0  0  0  0  0
    7.5314    0.5492   21.8122 C   0  0  0  0  0  0  0  0  0  0  0  0
    6.3460    1.2133   21.5395 C   0  0  0  0  0  0  0  0  0  0  0  0
    5.8551    1.2906   20.2565 C   0  0  0  0  0  0  0  0  0  0  0  0
    6.5515    0.6985   19.2213 C   0  0  0  0  0  0  0  0  0  0  0  0
    7.7474    0.0245   19.4706 C   0  0  0  0  0  0  0  0  0  0  0  0
    8.4199   -0.5687   18.3428 C   0  0  0  0  0  0  0  0  0  0  0  0
    8.9735   -1.0112   17.4469 N   0  0  0  0  0  0  0  0  0  0  0  0
  1  2  2  0
  2  3  1  0
  3  4  1  0
  4  5  2  0
  5  6  1  0
  6  7  2  0
  7  8  1  0
  8  9  2  0
  2 10  1  0
 10 11  1  0
 11 12  2  0
 12 13  1  0
 13 14  2  0
 14 15  1  0
 15 16  2  0
 16 17  1  0
 17 18  3  0
  9  4  1  0
 16 11  1  0
M  END
