CVD-0001609|dock_bobby27042020.23|mol2|22|dock2
     RDKit          3D

 18 19  0  0  0  0  0  0  0  0999 V2000
   14.4149   -1.4971   25.3602 Cl  0  0  0  0  0  0  0  0  0  0  0  0
   14.2223   -2.5039   23.9193 C   0  0  0  0  0  0  0  0  0  0  0  0
   12.8120   -2.4162   23.3682 C   0  0  0  0  0  0  0  0  0  0  0  0
   12.0584   -3.3798   23.4229 O   0  0  0  0  0  0  0  0  0  0  0  0
   12.4096   -1.2461   22.8242 N   0  0  0  0  0  0  0  0  0  0  0  0
   13.2223   -0.0362   22.7128 C   0  0  0  0  0  0  0  0  0  0  0  0
   12.4897    1.1447   23.3130 C   0  0  0  0  0  0  0  0  0  0  0  0
   11.1694    1.2807   22.7015 N   0  0  0  0  0  0  0  0  0  0  0  0
   10.3567    0.0708   22.8129 C   0  0  0  0  0  0  0  0  0  0  0  0
   11.0894   -1.1101   22.2128 C   0  0  0  0  0  0  0  0  0  0  0  0
   10.7678    2.4486   22.1586 C   0  0  0  0  0  0  0  0  0  0  0  0
    9.8293    2.4660   21.3705 O   0  0  0  0  0  0  0  0  0  0  0  0
   11.3921    3.7705   22.4483 C   0  0  0  0  0  0  0  0  0  0  0  0
   11.0514    4.8148   23.2859 C   0  0  0  0  0  0  0  0  0  0  0  0
   11.9392    5.8874   23.2416 C   0  0  0  0  0  0  0  0  0  0  0  0
   12.9528    5.6713   22.3847 C   0  0  0  0  0  0  0  0  0  0  0  0
   14.3737    6.8272   21.9999 Br  0  0  0  0  0  0  0  0  0  0  0  0
   12.8568    4.1490   21.6026 S   0  0  0  0  0  0  0  0  0  0  0  0
  1  2  1  0
  2  3  1  0
  3  4  2  0
  3  5  1  0
  5  6  1  0
  6  7  1  0
  7  8  1  0
  8  9  1  0
  9 10  1  0
  8 11  1  0
 11 12  2  0
 11 13  1  0
 13 14  2  0
 14 15  1  0
 15 16  2  0
 16 17  1  0
 16 18  1  0
 10  5  1  0
 18 13  1  0
M  END
