CVD-0000327|dock_bobby27042020.13|mol2|21|dock2
     RDKit          3D

 27 30  0  0  0  0  0  0  0  0999 V2000
    6.5209   -4.2570   24.3184 C   0  0  0  0  0  0  0  0  0  0  0  0
    7.5398   -4.0487   23.2277 C   0  0  0  0  0  0  0  0  0  0  0  0
    7.2544   -2.8978   22.2903 C   0  0  0  0  0  0  0  0  0  0  0  0
    6.4979   -3.1519   21.1734 C   0  0  0  0  0  0  0  0  0  0  0  0
    6.1422   -2.2312   20.2708 N   0  0  0  0  0  0  0  0  0  0  0  0
    6.5441   -0.9634   20.4590 C   0  0  0  0  0  0  0  0  0  0  0  0
    7.3164   -0.6134   21.5619 C   0  0  0  0  0  0  0  0  0  0  0  0
    7.7029   -1.5809   22.4884 C   0  0  0  0  0  0  0  0  0  0  0  0
    8.5622   -1.1236   23.6198 C   0  0  0  0  0  0  0  0  0  0  0  0
    8.0332   -0.2818   24.5894 C   0  0  0  0  0  0  0  0  0  0  0  0
    8.8116    0.1462   25.6482 C   0  0  0  0  0  0  0  0  0  0  0  0
   10.1318   -0.2547   25.7572 C   0  0  0  0  0  0  0  0  0  0  0  0
   10.6958   -1.0940   24.8000 C   0  0  0  0  0  0  0  0  0  0  0  0
    9.8982   -1.5114   23.7342 C   0  0  0  0  0  0  0  0  0  0  0  0
   12.0655   -1.5345   24.8820 N   0  0  0  0  0  0  0  0  0  0  0  0
   13.1419   -0.6164   25.2621 C   0  0  0  0  0  0  0  0  0  0  0  0
   14.3840   -1.4734   25.2634 C   0  0  0  0  0  0  0  0  0  0  0  0
   14.0011   -2.8129   24.6866 C   0  0  0  0  0  0  0  0  0  0  0  0
   12.5108   -2.7848   24.5256 C   0  0  0  0  0  0  0  0  0  0  0  0
   11.7689   -3.6800   24.1435 O   0  0  0  0  0  0  0  0  0  0  0  0
    6.0969    0.0033   19.4168 C   0  0  0  0  0  0  0  0  0  0  0  0
    6.7241   -0.0905   18.1764 C   0  0  0  0  0  0  0  0  0  0  0  0
    6.4413    0.6833   17.1253 N   0  0  0  0  0  0  0  0  0  0  0  0
    5.4863    1.5965   17.2948 C   0  0  0  0  0  0  0  0  0  0  0  0
    4.8096    1.7818   18.4833 C   0  0  0  0  0  0  0  0  0  0  0  0
    5.1102    0.9875   19.5873 C   0  0  0  0  0  0  0  0  0  0  0  0
    4.3799    1.2353   20.8815 C   0  0  0  0  0  0  0  0  0  0  0  0
  1  2  1  0
  2  3  1  0
  3  4  2  0
  4  5  1  0
  5  6  2  0
  6  7  1  0
  7  8  2  0
  8  9  1  0
  9 10  2  0
 10 11  1  0
 11 12  2  0
 12 13  1  0
 13 14  2  0
 13 15  1  0
 15 16  1  0
 16 17  1  0
 17 18  1  0
 18 19  1  0
 19 20  2  0
  6 21  1  0
 21 22  2  0
 22 23  1  0
 23 24  2  0
 24 25  1  0
 25 26  2  0
 26 27  1  0
  8  3  1  0
 14  9  1  0
 19 15  1  0
 26 21  1  0
M  END
