CVD-0003889|dock_bobby27042020.58|mol2|20|dock1
     RDKit          3D

 26 29  0  0  0  0  0  0  0  0999 V2000
   11.7069   -1.7826   21.9672 C   0  0  0  0  0  0  0  0  0  0  0  0
   11.1411   -0.4162   22.2682 C   0  0  0  0  0  0  0  0  0  0  0  0
   11.8579    0.4931   23.0302 C   0  0  0  0  0  0  0  0  0  0  0  0
   11.3105    1.7247   23.2862 C   0  0  0  0  0  0  0  0  0  0  0  0
   12.0248    2.6079   24.0348 F   0  0  0  0  0  0  0  0  0  0  0  0
   10.0771    2.1083   22.8235 C   0  0  0  0  0  0  0  0  0  0  0  0
    9.3388    1.2078   22.0558 C   0  0  0  0  0  0  0  0  0  0  0  0
    9.8910   -0.0476   21.7920 C   0  0  0  0  0  0  0  0  0  0  0  0
    7.9971    1.5935   21.5394 C   0  0  0  0  0  0  0  0  0  0  0  0
    7.5652    1.2694   20.2560 C   0  0  0  0  0  0  0  0  0  0  0  0
    6.3014    1.6589   19.8329 C   0  0  0  0  0  0  0  0  0  0  0  0
    5.8125    1.3148   18.4468 C   0  0  0  0  0  0  0  0  0  0  0  0
    4.7117    0.2569   18.4575 C   0  0  0  0  0  0  0  0  0  0  0  0
    5.1262   -1.0082   19.1268 C   0  0  0  0  0  0  0  0  0  0  0  0
    5.4913   -1.1069   20.3918 N   0  0  0  0  0  0  0  0  0  0  0  0
    5.7902   -2.4508   20.5608 C   0  0  0  0  0  0  0  0  0  0  0  0
    6.2292   -3.1771   21.6746 C   0  0  0  0  0  0  0  0  0  0  0  0
    6.4631   -2.5195   23.0090 C   0  0  0  0  0  0  0  0  0  0  0  0
    6.4359   -4.5445   21.4951 C   0  0  0  0  0  0  0  0  0  0  0  0
    6.2096   -5.1224   20.2580 C   0  0  0  0  0  0  0  0  0  0  0  0
    5.7909   -4.4432   19.1806 N   0  0  0  0  0  0  0  0  0  0  0  0
    5.5959   -3.1284   19.3739 C   0  0  0  0  0  0  0  0  0  0  0  0
    5.1746   -2.1918   18.4704 N   0  0  0  0  0  0  0  0  0  0  0  0
    5.5076    2.3642   20.7214 C   0  0  0  0  0  0  0  0  0  0  0  0
    6.0036    2.6489   21.9772 C   0  0  0  0  0  0  0  0  0  0  0  0
    7.2208    2.2803   22.3962 N   0  0  0  0  0  0  0  0  0  0  0  0
  1  2  1  0
  2  3  2  0
  3  4  1  0
  4  5  1  0
  4  6  2  0
  6  7  1  0
  7  8  2  0
  7  9  1  0
  9 10  2  0
 10 11  1  0
 11 12  1  0
 12 13  1  0
 13 14  1  0
 14 15  2  0
 15 16  1  0
 16 17  2  0
 17 18  1  0
 17 19  1  0
 19 20  2  0
 20 21  1  0
 21 22  2  0
 22 23  1  0
 11 24  2  0
 24 25  1  0
 25 26  2  0
  8  2  1  0
 26  9  1  0
 23 14  1  0
 22 16  1  0
M  END
