CVD-0003051|dock_bobby27042020.46|mol2|29|dock1
     RDKit          3D

 35 38  0  0  0  0  0  0  0  0999 V2000
    3.9024    3.3276   21.3256 C   0  0  0  0  0  0  0  0  0  0  0  0
    3.8389    2.5434   20.0478 C   0  0  0  0  0  0  0  0  0  0  0  0
    2.7773    2.1304   19.5916 O   0  0  0  0  0  0  0  0  0  0  0  0
    5.0057    2.3068   19.4451 N   0  0  0  0  0  0  0  0  0  0  0  0
    5.1103    1.5460   18.2082 C   0  0  0  0  0  0  0  0  0  0  0  0
    5.1914    0.0548   18.4670 C   0  0  0  0  0  0  0  0  0  0  0  0
    6.4252   -0.3430   19.2230 C   0  0  0  0  0  0  0  0  0  0  0  0
    7.5903   -0.8304   18.7078 C   0  0  0  0  0  0  0  0  0  0  0  0
    8.4886   -1.0789   19.7094 N   0  0  0  0  0  0  0  0  0  0  0  0
    7.9071   -0.7497   20.9091 C   0  0  0  0  0  0  0  0  0  0  0  0
    8.4271   -0.8274   22.2109 C   0  0  0  0  0  0  0  0  0  0  0  0
    7.5923   -0.4191   23.2502 C   0  0  0  0  0  0  0  0  0  0  0  0
    6.3079    0.0445   23.0102 C   0  0  0  0  0  0  0  0  0  0  0  0
    5.8101    0.1160   21.7186 C   0  0  0  0  0  0  0  0  0  0  0  0
    6.6059   -0.2820   20.6456 C   0  0  0  0  0  0  0  0  0  0  0  0
    9.8266   -1.3347   22.4911 C   0  0  0  0  0  0  0  0  0  0  0  0
    9.8528   -2.5251   23.4552 C   0  0  0  0  0  0  0  0  0  0  0  0
    8.6109   -3.4073   23.3439 C   0  0  0  0  0  0  0  0  0  0  0  0
    8.3558   -4.2311   24.5828 C   0  0  0  0  0  0  0  0  0  0  0  0
    7.6794   -3.6976   25.6686 C   0  0  0  0  0  0  0  0  0  0  0  0
    7.4433   -4.4552   26.8019 C   0  0  0  0  0  0  0  0  0  0  0  0
    7.8720   -5.7699   26.8890 C   0  0  0  0  0  0  0  0  0  0  0  0
    7.6170   -6.5935   28.1278 C   0  0  0  0  0  0  0  0  0  0  0  0
    8.5480   -6.3007   25.8023 C   0  0  0  0  0  0  0  0  0  0  0  0
    8.7858   -5.5460   24.6673 C   0  0  0  0  0  0  0  0  0  0  0  0
   10.7403   -0.2762   22.9761 N   0  0  0  0  0  0  0  0  0  0  0  0
   10.5708    0.9672   22.2066 C   0  0  0  0  0  0  0  0  0  0  0  0
   11.4694    2.0534   22.7386 C   0  0  0  0  0  0  0  0  0  0  0  0
   12.8698    1.6194   22.7253 N   0  0  0  0  0  0  0  0  0  0  0  0
   13.0689    0.3493   23.4206 C   0  0  0  0  0  0  0  0  0  0  0  0
   12.1376   -0.6933   22.8495 C   0  0  0  0  0  0  0  0  0  0  0  0
   13.9210    2.3332   22.2747 C   0  0  0  0  0  0  0  0  0  0  0  0
   15.0618    1.8884   22.2899 O   0  0  0  0  0  0  0  0  0  0  0  0
   13.6166    3.7234   21.7521 C   0  0  0  0  0  0  0  0  0  0  0  0
   12.9012    4.7292   23.0185 Cl  0  0  0  0  0  0  0  0  0  0  0  0
  1  2  1  0
  2  3  2  0
  2  4  1  0
  4  5  1  0
  5  6  1  0
  6  7  1  0
  7  8  2  0
  8  9  1  0
  9 10  1  0
 10 11  2  0
 11 12  1  0
 12 13  2  0
 13 14  1  0
 14 15  2  0
 11 16  1  0
 16 17  1  0
 17 18  1  0
 18 19  1  0
 19 20  2  0
 20 21  1  0
 21 22  2  0
 22 23  1  0
 22 24  1  0
 24 25  2  0
 16 26  1  0
 26 27  1  0
 27 28  1  0
 28 29  1  0
 29 30  1  0
 30 31  1  0
 29 32  1  0
 32 33  2  0
 32 34  1  0
 34 35  1  0
 15  7  1  0
 25 19  1  0
 31 26  1  0
 15 10  1  0
M  END
