CVD-0001204|dock_bobby27042020.24|mol2|36|dock1
     RDKit          3D

 27 30  0  0  0  0  0  0  0  0999 V2000
    6.6493   -7.8794   30.6663 C   0  0  0  0  0  0  0  0  0  0  0  0
    6.9002   -6.6612   29.8268 C   0  0  0  0  0  0  0  0  0  0  0  0
    6.8973   -5.5313   30.3052 O   0  0  0  0  0  0  0  0  0  0  0  0
    7.1432   -6.8794   28.5329 N   0  0  0  0  0  0  0  0  0  0  0  0
    7.4219   -5.8022   27.5944 C   0  0  0  0  0  0  0  0  0  0  0  0
    8.8129   -5.2234   27.7681 C   0  0  0  0  0  0  0  0  0  0  0  0
    9.4341   -4.7422   26.4885 C   0  0  0  0  0  0  0  0  0  0  0  0
   10.0027   -5.5119   25.5156 C   0  0  0  0  0  0  0  0  0  0  0  0
   10.4669   -4.7298   24.4935 N   0  0  0  0  0  0  0  0  0  0  0  0
   10.1990   -3.4182   24.7964 C   0  0  0  0  0  0  0  0  0  0  0  0
   10.4703   -2.2464   24.0858 C   0  0  0  0  0  0  0  0  0  0  0  0
   11.1179   -2.4309   22.8886 O   0  0  0  0  0  0  0  0  0  0  0  0
   10.9319   -1.4852   21.8278 C   0  0  0  0  0  0  0  0  0  0  0  0
   11.8005   -0.2837   22.0670 C   0  0  0  0  0  0  0  0  0  0  0  0
   13.0414   -0.4171   22.6751 C   0  0  0  0  0  0  0  0  0  0  0  0
   13.8576    0.6790   22.9008 C   0  0  0  0  0  0  0  0  0  0  0  0
   13.4286    1.9468   22.5098 C   0  0  0  0  0  0  0  0  0  0  0  0
   14.0329    3.1964   22.6126 N   0  0  0  0  0  0  0  0  0  0  0  0
   13.1620    4.0266   22.0757 C   0  0  0  0  0  0  0  0  0  0  0  0
   12.0387    3.4253   21.6306 N   0  0  0  0  0  0  0  0  0  0  0  0
   12.1844    2.0861   21.8979 C   0  0  0  0  0  0  0  0  0  0  0  0
   11.3741    0.9797   21.6763 C   0  0  0  0  0  0  0  0  0  0  0  0
   10.0919   -1.0194   24.6060 C   0  0  0  0  0  0  0  0  0  0  0  0
    9.4510   -1.0180   25.8235 C   0  0  0  0  0  0  0  0  0  0  0  0
    9.0746    0.1840   26.3375 F   0  0  0  0  0  0  0  0  0  0  0  0
    9.1635   -2.1446   26.5582 C   0  0  0  0  0  0  0  0  0  0  0  0
    9.5461   -3.3815   26.0416 C   0  0  0  0  0  0  0  0  0  0  0  0
  1  2  1  0
  2  3  2  0
  2  4  1  0
  4  5  1  0
  5  6  1  0
  6  7  1  0
  7  8  2  0
  8  9  1  0
  9 10  1  0
 10 11  2  0
 11 12  1  0
 12 13  1  0
 13 14  1  0
 14 15  2  0
 15 16  1  0
 16 17  2  0
 17 18  1  0
 18 19  2  0
 19 20  1  0
 20 21  1  0
 21 22  2  0
 11 23  1  0
 23 24  2  0
 24 25  1  0
 24 26  1  0
 26 27  2  0
 27  7  1  0
 27 10  1  0
 22 14  1  0
 21 17  1  0
M  END
