CVD-0001147|dock_bobby27042020.82|mol2|4|dock2
     RDKit          3D

 33 36  0  0  0  0  0  0  0  0999 V2000
    8.2166   -4.4182   22.7998 Cl  0  0  0  0  0  0  0  0  0  0  0  0
    7.5404   -2.7842   22.8035 C   0  0  0  0  0  0  0  0  0  0  0  0
    7.0182   -2.4155   21.4255 C   0  0  0  0  0  0  0  0  0  0  0  0
    6.1887   -3.1620   20.9447 O   0  0  0  0  0  0  0  0  0  0  0  0
    7.4664   -1.2675   20.7295 N   0  0  0  0  0  0  0  0  0  0  0  0
    6.9182   -0.9833   19.3779 C   0  0  0  0  0  0  0  0  0  0  0  0
    5.5960   -0.2203   19.4814 C   0  0  0  0  0  0  0  0  0  0  0  0
    5.8013    1.2732   18.4632 S   0  0  0  0  0  0  0  0  0  0  0  0
    4.8652    1.2869   17.3726 O   0  0  0  0  0  0  0  0  0  0  0  0
    5.8710    2.4561   19.2763 O   0  0  0  0  0  0  0  0  0  0  0  0
    7.3902    0.8407   17.8561 C   0  0  0  0  0  0  0  0  0  0  0  0
    7.8245   -0.2961   18.4136 C   0  0  0  0  0  0  0  0  0  0  0  0
    8.4694   -0.3593   21.2314 C   0  0  0  0  0  0  0  0  0  0  0  0
    8.0584    0.8761   21.4298 N   0  0  0  0  0  0  0  0  0  0  0  0
    9.1194    1.6087   21.8966 N   0  0  0  0  0  0  0  0  0  0  0  0
   10.2293    0.7991   21.9915 C   0  0  0  0  0  0  0  0  0  0  0  0
   11.7595    1.3062   22.5276 Cl  0  0  0  0  0  0  0  0  0  0  0  0
    9.9005   -0.4568   21.5911 C   0  0  0  0  0  0  0  0  0  0  0  0
   10.8999   -1.5902   21.5745 C   0  0  0  0  0  0  0  0  0  0  0  0
   11.8790   -1.5980   22.7283 C   0  0  0  0  0  0  0  0  0  0  0  0
   11.4502   -1.4590   24.0380 C   0  0  0  0  0  0  0  0  0  0  0  0
   12.3628   -1.4656   25.0765 C   0  0  0  0  0  0  0  0  0  0  0  0
   13.7090   -1.6143   24.7588 C   0  0  0  0  0  0  0  0  0  0  0  0
   14.1562   -1.7502   23.4962 N   0  0  0  0  0  0  0  0  0  0  0  0
   13.2388   -1.7382   22.5218 C   0  0  0  0  0  0  0  0  0  0  0  0
   14.7148   -1.6295   25.8029 C   0  0  0  0  0  0  0  0  0  0  0  0
   15.5025   -1.6040   26.6298 N   0  0  0  0  0  0  0  0  0  0  0  0
    8.9363    2.9493   22.1819 C   0  0  0  0  0  0  0  0  0  0  0  0
    9.8295    3.7729   22.7300 C   0  0  0  0  0  0  0  0  0  0  0  0
    9.5508    5.2214   22.9889 C   0  0  0  0  0  0  0  0  0  0  0  0
    8.2305    5.6319   22.3445 C   0  0  0  0  0  0  0  0  0  0  0  0
    7.2161    4.5223   22.4949 C   0  0  0  0  0  0  0  0  0  0  0  0
    7.6469    3.3070   21.8600 O   0  0  0  0  0  0  0  0  0  0  0  0
  1  2  1  0
  2  3  1  0
  3  4  2  0
  3  5  1  0
  5  6  1  0
  6  7  1  0
  7  8  1  0
  8  9  2  0
  8 10  2  0
  8 11  1  0
 11 12  2  0
  5 13  1  0
 13 14  2  0
 14 15  1  0
 15 16  1  0
 16 17  1  0
 16 18  2  0
 18 19  1  0
 19 20  1  0
 20 21  2  0
 21 22  1  0
 22 23  2  0
 23 24  1  0
 24 25  2  0
 23 26  1  0
 26 27  3  0
 15 28  1  0
 28 29  2  0
 29 30  1  0
 30 31  1  0
 31 32  1  0
 32 33  1  0
 12  6  1  0
 18 13  1  0
 25 20  1  0
 33 28  1  0
M  END
