CVD-0002278|dock_bobby27042020.78|mol2|5|dock1
     RDKit          3D

 40 43  0  0  0  0  0  0  0  0999 V2000
   10.2935   -5.6129   25.3643 C   0  0  0  0  0  0  0  0  0  0  0  0
    9.7366   -4.2576   25.3683 N   0  0  0  0  0  0  0  0  0  0  0  0
   10.1582   -3.4246   24.2369 C   0  0  0  0  0  0  0  0  0  0  0  0
    9.0667   -3.2882   23.2084 C   0  0  0  0  0  0  0  0  0  0  0  0
    8.6905   -2.0871   22.5786 C   0  0  0  0  0  0  0  0  0  0  0  0
    7.6687   -2.3309   21.6800 C   0  0  0  0  0  0  0  0  0  0  0  0
    6.9704   -1.3531   20.7997 C   0  0  0  0  0  0  0  0  0  0  0  0
    6.9065   -1.6081   19.4354 C   0  0  0  0  0  0  0  0  0  0  0  0
    7.4121   -2.7792   18.9848 F   0  0  0  0  0  0  0  0  0  0  0  0
    6.3745   -0.7518   18.5061 C   0  0  0  0  0  0  0  0  0  0  0  0
    5.8802    0.4539   18.9578 C   0  0  0  0  0  0  0  0  0  0  0  0
    5.8830    0.7347   20.3118 C   0  0  0  0  0  0  0  0  0  0  0  0
    6.3572   -0.1652   21.2744 C   0  0  0  0  0  0  0  0  0  0  0  0
    6.1649    0.2048   22.7552 C   0  0  0  0  0  0  0  0  0  0  0  0
    5.1147    1.2670   23.0850 C   0  0  0  0  0  0  0  0  0  0  0  0
    7.4412    0.6456   23.3851 N   0  0  0  0  0  0  0  0  0  0  0  0
    7.5850    0.2311   24.7798 C   0  0  0  0  0  0  0  0  0  0  0  0
    8.3288    1.4041   22.6848 C   0  0  0  0  0  0  0  0  0  0  0  0
    8.0902    1.7368   21.5393 O   0  0  0  0  0  0  0  0  0  0  0  0
    9.6508    1.8697   23.2717 C   0  0  0  0  0  0  0  0  0  0  0  0
   10.7045    2.0272   22.1825 C   0  0  0  0  0  0  0  0  0  0  0  0
   12.0073    2.5288   22.7706 C   0  0  0  0  0  0  0  0  0  0  0  0
   11.7867    3.7951   23.4641 N   0  0  0  0  0  0  0  0  0  0  0  0
   10.8227    3.6810   24.5531 C   0  0  0  0  0  0  0  0  0  0  0  0
    9.4820    3.1936   24.0139 C   0  0  0  0  0  0  0  0  0  0  0  0
   12.5583    4.9000   23.3532 C   0  0  0  0  0  0  0  0  0  0  0  0
   12.2816    5.9236   23.9657 O   0  0  0  0  0  0  0  0  0  0  0  0
   13.7819    4.8451   22.4585 C   0  0  0  0  0  0  0  0  0  0  0  0
   14.7463    6.3181   22.6251 Cl  0  0  0  0  0  0  0  0  0  0  0  0
    7.3946   -3.7197   21.7661 N   0  0  0  0  0  0  0  0  0  0  0  0
    8.2567   -4.2912   22.6931 C   0  0  0  0  0  0  0  0  0  0  0  0
    6.2466   -4.6684   20.9583 S   0  0  0  0  0  0  0  0  0  0  0  0
    5.2690   -3.7767   20.4166 O   0  0  0  0  0  0  0  0  0  0  0  0
    6.9808   -5.5578   20.1129 O   0  0  0  0  0  0  0  0  0  0  0  0
    5.4820   -5.6189   22.2262 C   0  0  0  0  0  0  0  0  0  0  0  0
    5.8822   -6.9232   22.4613 C   0  0  0  0  0  0  0  0  0  0  0  0
    5.2509   -7.6361   23.4658 C   0  0  0  0  0  0  0  0  0  0  0  0
    4.2527   -7.0215   24.1875 C   0  0  0  0  0  0  0  0  0  0  0  0
    3.8560   -5.7666   23.9709 N   0  0  0  0  0  0  0  0  0  0  0  0
    4.4694   -5.0840   22.9997 C   0  0  0  0  0  0  0  0  0  0  0  0
  1  2  1  0
  2  3  1  0
  3  4  1  0
  4  5  1  0
  5  6  2  0
  6  7  1  0
  7  8  2  0
  8  9  1  0
  8 10  1  0
 10 11  2  0
 11 12  1  0
 12 13  2  0
 13 14  1  0
 14 15  1  0
 14 16  1  0
 16 17  1  0
 16 18  1  0
 18 19  2  0
 18 20  1  0
 20 21  1  0
 21 22  1  0
 22 23  1  0
 23 24  1  0
 24 25  1  0
 23 26  1  0
 26 27  2  0
 26 28  1  0
 28 29  1  0
  6 30  1  0
 30 31  1  0
 30 32  1  0
 32 33  2  0
 32 34  2  0
 32 35  1  0
 35 36  2  0
 36 37  1  0
 37 38  2  0
 38 39  1  0
 39 40  2  0
 31  4  2  0
 40 35  1  0
 13  7  1  0
 25 20  1  0
M  END
