CVD-0001095|dock_bobby27042020.53|mol2|43|dock2
     RDKit          3D

 22 23  0  0  0  0  0  0  0  0999 V2000
    9.1294   -4.6266   26.6388 C   0  0  0  0  0  0  0  0  0  0  0  0
    9.7367   -5.1495   25.0818 S   0  0  0  0  0  0  0  0  0  0  0  0
   10.9680   -5.8450   25.2963 O   0  0  0  0  0  0  0  0  0  0  0  0
    8.6793   -5.8279   24.3979 O   0  0  0  0  0  0  0  0  0  0  0  0
   10.0814   -3.8366   24.2286 N   0  0  0  0  0  0  0  0  0  0  0  0
    8.9976   -3.0313   23.6557 C   0  0  0  0  0  0  0  0  0  0  0  0
    9.4281   -2.2171   22.4277 C   0  0  0  0  0  0  0  0  0  0  0  0
    8.2370   -1.4035   21.9173 C   0  0  0  0  0  0  0  0  0  0  0  0
    7.2617   -1.1808   22.6290 O   0  0  0  0  0  0  0  0  0  0  0  0
    8.3925   -0.9804   20.6387 N   0  0  0  0  0  0  0  0  0  0  0  0
    7.5416   -0.2134   19.8048 C   0  0  0  0  0  0  0  0  0  0  0  0
    6.3684    0.3945   20.2400 C   0  0  0  0  0  0  0  0  0  0  0  0
    5.6096    1.1228   19.3398 C   0  0  0  0  0  0  0  0  0  0  0  0
    6.0404    1.2237   18.0371 C   0  0  0  0  0  0  0  0  0  0  0  0
    7.1593    0.6527   17.5914 N   0  0  0  0  0  0  0  0  0  0  0  0
    7.8845   -0.0480   18.4678 C   0  0  0  0  0  0  0  0  0  0  0  0
   10.5718   -1.2727   22.7626 C   0  0  0  0  0  0  0  0  0  0  0  0
   11.7861   -1.3645   22.0968 C   0  0  0  0  0  0  0  0  0  0  0  0
   12.8284   -0.5059   22.4043 C   0  0  0  0  0  0  0  0  0  0  0  0
   12.6700    0.4536   23.3811 C   0  0  0  0  0  0  0  0  0  0  0  0
   11.4697    0.5552   24.0513 C   0  0  0  0  0  0  0  0  0  0  0  0
   10.4268   -0.3028   23.7446 C   0  0  0  0  0  0  0  0  0  0  0  0
  1  2  1  0
  2  3  2  0
  2  4  2  0
  2  5  1  0
  5  6  1  0
  6  7  1  0
  7  8  1  0
  8  9  2  0
  8 10  1  0
 10 11  1  0
 11 12  2  0
 12 13  1  0
 13 14  2  0
 14 15  1  0
 15 16  2  0
  7 17  1  0
 17 18  2  0
 18 19  1  0
 19 20  2  0
 20 21  1  0
 21 22  2  0
 16 11  1  0
 22 17  1  0
M  END
