CVD-0000761|dock_bobby27042020.69|mol2|17|dock3
     RDKit          3D

 16 17  0  0  0  0  0  0  0  0999 V2000
   14.3896   -2.6313   24.8105 Cl  0  0  0  0  0  0  0  0  0  0  0  0
   13.0342   -1.8191   24.1074 C   0  0  0  0  0  0  0  0  0  0  0  0
   12.2772   -0.8101   24.6196 C   0  0  0  0  0  0  0  0  0  0  0  0
   11.3148   -0.4898   23.7024 O   0  0  0  0  0  0  0  0  0  0  0  0
   11.5522   -1.3293   22.6900 C   0  0  0  0  0  0  0  0  0  0  0  0
   10.7354   -1.2525   21.5944 N   0  0  0  0  0  0  0  0  0  0  0  0
    9.4922   -0.6155   21.5633 C   0  0  0  0  0  0  0  0  0  0  0  0
    9.0330   -0.0606   22.5576 O   0  0  0  0  0  0  0  0  0  0  0  0
    8.8829   -0.6890   20.3347 N   0  0  0  0  0  0  0  0  0  0  0  0
    7.6356   -0.1795   19.8960 C   0  0  0  0  0  0  0  0  0  0  0  0
    6.5341    0.0043   20.7259 C   0  0  0  0  0  0  0  0  0  0  0  0
    5.3614    0.5100   20.1917 C   0  0  0  0  0  0  0  0  0  0  0  0
    5.3202    0.8168   18.8512 C   0  0  0  0  0  0  0  0  0  0  0  0
    6.3586    0.6516   18.0319 N   0  0  0  0  0  0  0  0  0  0  0  0
    7.4858    0.1630   18.5571 C   0  0  0  0  0  0  0  0  0  0  0  0
   12.5859   -2.1557   22.8891 N   0  0  0  0  0  0  0  0  0  0  0  0
  1  2  1  0
  2  3  2  0
  3  4  1  0
  4  5  1  0
  5  6  1  0
  6  7  1  0
  7  8  2  0
  7  9  1  0
  9 10  1  0
 10 11  2  0
 11 12  1  0
 12 13  2  0
 13 14  1  0
 14 15  2  0
  5 16  2  0
 16  2  1  0
 15 10  1  0
M  END
