CVD-0003203|dock_bobby27042020.17|mol2|13|dock3
     RDKit          3D

 23 24  0  0  0  0  0  0  0  0999 V2000
    8.7601   -2.0035   22.5894 C   0  0  0  0  0  0  0  0  0  0  0  0
    9.0881   -0.6643   21.9402 C   0  0  0  0  0  0  0  0  0  0  0  0
    8.8618   -0.7782   20.4960 N   0  0  0  0  0  0  0  0  0  0  0  0
    7.7784   -0.2430   19.9231 C   0  0  0  0  0  0  0  0  0  0  0  0
    7.6501   -0.4426   18.4414 C   0  0  0  0  0  0  0  0  0  0  0  0
    6.9311    0.3622   20.5722 O   0  0  0  0  0  0  0  0  0  0  0  0
   10.5225   -0.2585   22.2251 C   0  0  0  0  0  0  0  0  0  0  0  0
   11.4917   -1.2339   22.4480 C   0  0  0  0  0  0  0  0  0  0  0  0
   12.8172   -0.8909   22.7147 C   0  0  0  0  0  0  0  0  0  0  0  0
   13.2030    0.4479   22.7651 C   0  0  0  0  0  0  0  0  0  0  0  0
   12.2608    1.4518   22.5484 C   0  0  0  0  0  0  0  0  0  0  0  0
   12.3074    2.8861   22.5271 C   0  0  0  0  0  0  0  0  0  0  0  0
   13.5199    3.7391   22.7595 C   0  0  0  0  0  0  0  0  0  0  0  0
   13.1825    5.1997   22.9839 C   0  0  0  0  0  0  0  0  0  0  0  0
   12.3900    5.3947   24.1894 N   0  0  0  0  0  0  0  0  0  0  0  0
   12.3163    6.5685   24.8201 C   0  0  0  0  0  0  0  0  0  0  0  0
   11.4417    6.6099   26.0386 C   0  0  0  0  0  0  0  0  0  0  0  0
   12.9168    7.5601   24.4180 O   0  0  0  0  0  0  0  0  0  0  0  0
   11.0384    3.3068   22.2557 C   0  0  0  0  0  0  0  0  0  0  0  0
   10.2006    2.2351   22.1055 N   0  0  0  0  0  0  0  0  0  0  0  0
   10.9290    1.0843   22.2807 C   0  0  0  0  0  0  0  0  0  0  0  0
   13.7942   -1.9274   22.9398 C   0  0  0  0  0  0  0  0  0  0  0  0
   14.5562   -2.7523   23.1488 N   0  0  0  0  0  0  0  0  0  0  0  0
  1  2  1  0
  2  3  1  0
  3  4  1  0
  4  5  1  0
  4  6  2  0
  2  7  1  0
  7  8  2  0
  8  9  1  0
  9 10  2  0
 10 11  1  0
 11 12  1  0
 12 13  1  0
 13 14  1  0
 14 15  1  0
 15 16  1  0
 16 17  1  0
 16 18  2  0
 12 19  2  0
 19 20  1  0
 20 21  1  0
  9 22  1  0
 22 23  3  0
 21  7  1  0
 21 11  2  0
M  END
