CVD-0001927|dock_bobby27042020.36|mol2|29|dock2
     RDKit          3D

 24 26  0  0  0  0  0  0  0  0999 V2000
   10.2282   -1.8314   21.4726 N   0  0  0  0  0  0  0  0  0  0  0  0
    9.8543   -2.1990   22.8571 C   0  0  0  0  0  0  0  0  0  0  0  0
    9.7075   -0.9964   23.7766 C   0  0  0  0  0  0  0  0  0  0  0  0
    8.3675   -0.5443   23.6655 O   0  0  0  0  0  0  0  0  0  0  0  0
    8.1477    0.2744   22.4972 C   0  0  0  0  0  0  0  0  0  0  0  0
    8.9111    1.5965   22.7769 C   0  0  0  0  0  0  0  0  0  0  0  0
   10.3880    1.2583   22.9038 C   0  0  0  0  0  0  0  0  0  0  0  0
   11.4082    2.1602   22.5756 C   0  0  0  0  0  0  0  0  0  0  0  0
   11.1531    3.2535   21.7893 O   0  0  0  0  0  0  0  0  0  0  0  0
   12.7315    1.9027   22.9242 C   0  0  0  0  0  0  0  0  0  0  0  0
   13.7021    2.7661   22.5263 O   0  0  0  0  0  0  0  0  0  0  0  0
   13.0633    0.7394   23.6067 C   0  0  0  0  0  0  0  0  0  0  0  0
   12.0647   -0.1575   23.9351 C   0  0  0  0  0  0  0  0  0  0  0  0
   10.7353    0.0907   23.5901 C   0  0  0  0  0  0  0  0  0  0  0  0
    6.6363    0.3223   22.2785 C   0  0  0  0  0  0  0  0  0  0  0  0
    6.2829    1.1561   21.0366 C   0  0  0  0  0  0  0  0  0  0  0  0
    6.7791    0.4702   19.7666 C   0  0  0  0  0  0  0  0  0  0  0  0
    6.1997   -0.9371   19.6426 C   0  0  0  0  0  0  0  0  0  0  0  0
    6.4794   -1.7756   20.8777 C   0  0  0  0  0  0  0  0  0  0  0  0
    6.0226   -1.0704   22.1596 C   0  0  0  0  0  0  0  0  0  0  0  0
    5.9592   -3.1511   20.7637 N   0  0  0  0  0  0  0  0  0  0  0  0
    6.7212   -4.1619   21.5062 C   0  0  0  0  0  0  0  0  0  0  0  0
    6.1956   -5.5454   21.2270 C   0  0  0  0  0  0  0  0  0  0  0  0
    4.8833   -5.7188   21.7367 O   0  0  0  0  0  0  0  0  0  0  0  0
  1  2  1  0
  2  3  1  0
  3  4  1  0
  4  5  1  0
  5  6  1  0
  6  7  1  0
  7  8  2  0
  8  9  1  0
  8 10  1  0
 10 11  1  0
 10 12  2  0
 12 13  1  0
 13 14  2  0
  5 15  1  0
 15 16  1  0
 16 17  1  0
 17 18  1  0
 18 19  1  0
 19 20  1  0
 19 21  1  0
 21 22  1  0
 22 23  1  0
 23 24  1  0
 14  3  1  0
 20 15  1  0
 14  7  1  0
M  END
