CVD-0002796|dock_bobby27042020.61|mol2|48|dock3
     RDKit          3D

 22 24  0  0  0  0  0  0  0  0999 V2000
    8.9850   -0.9096   20.7206 O   0  0  0  0  0  0  0  0  0  0  0  0
    8.9015   -1.8622   21.4872 C   0  0  0  0  0  0  0  0  0  0  0  0
    9.9756   -2.2198   22.2128 N   0  0  0  0  0  0  0  0  0  0  0  0
   11.2267   -1.4905   22.0475 C   0  0  0  0  0  0  0  0  0  0  0  0
   12.2868   -1.9202   23.0439 C   0  0  0  0  0  0  0  0  0  0  0  0
   13.4345   -0.7851   22.7316 C   0  0  0  0  0  0  0  0  0  0  0  0
   13.8035   -2.2133   22.9111 C   0  0  0  0  0  0  0  0  0  0  0  0
    7.6619   -2.5929   21.5768 N   0  0  0  0  0  0  0  0  0  0  0  0
    6.4882   -2.5305   20.7723 C   0  0  0  0  0  0  0  0  0  0  0  0
    5.7565   -3.5039   20.7070 O   0  0  0  0  0  0  0  0  0  0  0  0
    6.0762   -1.3396   19.9571 C   0  0  0  0  0  0  0  0  0  0  0  0
    6.2535   -0.0622   20.4777 C   0  0  0  0  0  0  0  0  0  0  0  0
    5.8670    1.0550   19.7563 C   0  0  0  0  0  0  0  0  0  0  0  0
    5.2949    0.9134   18.5105 C   0  0  0  0  0  0  0  0  0  0  0  0
    5.1055   -0.3459   17.9837 C   0  0  0  0  0  0  0  0  0  0  0  0
    5.4899   -1.4667   18.7005 C   0  0  0  0  0  0  0  0  0  0  0  0
    7.6223   -3.5299   22.6824 C   0  0  0  0  0  0  0  0  0  0  0  0
    7.7497   -3.1093   24.0008 C   0  0  0  0  0  0  0  0  0  0  0  0
    7.7028   -4.0437   25.0203 C   0  0  0  0  0  0  0  0  0  0  0  0
    7.5297   -5.3681   24.6912 C   0  0  0  0  0  0  0  0  0  0  0  0
    7.4041   -5.7981   23.4354 N   0  0  0  0  0  0  0  0  0  0  0  0
    7.4506   -4.8872   22.4581 C   0  0  0  0  0  0  0  0  0  0  0  0
  1  2  2  0
  2  3  1  0
  3  4  1  0
  4  5  1  0
  5  6  1  0
  6  7  1  0
  2  8  1  0
  8  9  1  0
  9 10  2  0
  9 11  1  0
 11 12  2  0
 12 13  1  0
 13 14  2  0
 14 15  1  0
 15 16  2  0
  8 17  1  0
 17 18  2  0
 18 19  1  0
 19 20  2  0
 20 21  1  0
 21 22  2  0
  7  5  1  0
 16 11  1  0
 22 17  1  0
M  END
