CVD-0001292|dock_bobby27042020.95|mol2|43|dock2
     RDKit          3D

 19 20  0  0  0  0  0  0  0  0999 V2000
    5.3957   -1.0977   18.3105 C   0  0  0  0  0  0  0  0  0  0  0  0
    6.4086   -0.2517   18.9147 N   0  0  0  0  0  0  0  0  0  0  0  0
    6.8319   -0.4616   20.1511 C   0  0  0  0  0  0  0  0  0  0  0  0
    6.4452   -1.3408   20.8921 O   0  0  0  0  0  0  0  0  0  0  0  0
    7.7648    0.4588   20.4731 O   0  0  0  0  0  0  0  0  0  0  0  0
    8.4371    0.3416   21.7670 C   0  0  0  0  0  0  0  0  0  0  0  0
    9.3237   -0.8983   21.8624 C   0  0  0  0  0  0  0  0  0  0  0  0
   10.0967   -0.9549   23.1646 C   0  0  0  0  0  0  0  0  0  0  0  0
   10.8431    0.2888   23.3803 N   0  0  0  0  0  0  0  0  0  0  0  0
    9.9877    1.4695   23.4099 C   0  0  0  0  0  0  0  0  0  0  0  0
    9.2519    1.5866   22.0933 C   0  0  0  0  0  0  0  0  0  0  0  0
   12.1695    0.3788   23.6391 C   0  0  0  0  0  0  0  0  0  0  0  0
   12.6646    1.4747   23.8392 O   0  0  0  0  0  0  0  0  0  0  0  0
   13.1238   -0.7852   23.6928 C   0  0  0  0  0  0  0  0  0  0  0  0
   13.8953   -1.1602   24.7930 C   0  0  0  0  0  0  0  0  0  0  0  0
   14.6975   -2.2808   24.7004 C   0  0  0  0  0  0  0  0  0  0  0  0
   14.8111   -3.0315   23.6060 N   0  0  0  0  0  0  0  0  0  0  0  0
   14.1029   -2.6462   22.5463 C   0  0  0  0  0  0  0  0  0  0  0  0
   13.2606   -1.5527   22.5401 C   0  0  0  0  0  0  0  0  0  0  0  0
  1  2  1  0
  2  3  1  0
  3  4  2  0
  3  5  1  0
  5  6  1  0
  6  7  1  0
  7  8  1  0
  8  9  1  0
  9 10  1  0
 10 11  1  0
  9 12  1  0
 12 13  2  0
 12 14  1  0
 14 15  2  0
 15 16  1  0
 16 17  2  0
 17 18  1  0
 18 19  2  0
 11  6  1  0
 19 14  1  0
M  END
