CVD-0000663|dock_bobby27042020.12|mol2|18|dock3
     RDKit          3D

 17 17  0  0  0  0  0  0  0  0999 V2000
    8.1329   -1.4463   18.8661 N   0  0  0  0  0  0  0  0  0  0  0  0
    7.6232   -1.1400   19.9716 C   0  0  0  0  0  0  0  0  0  0  0  0
    6.3271   -1.0494   20.1745 N   0  0  0  0  0  0  0  0  0  0  0  0
    8.4763   -0.8428   21.1564 C   0  0  0  0  0  0  0  0  0  0  0  0
    9.2324   -2.0739   21.6267 C   0  0  0  0  0  0  0  0  0  0  0  0
   10.0139   -1.8520   22.8470 N   0  0  0  0  0  0  0  0  0  0  0  0
   11.3069   -1.1670   22.6681 C   0  0  0  0  0  0  0  0  0  0  0  0
   11.4485    0.1612   23.4241 C   0  0  0  0  0  0  0  0  0  0  0  0
   12.9147    0.5594   23.3524 C   0  0  0  0  0  0  0  0  0  0  0  0
   13.8455   -0.9734   23.4299 S   0  0  0  0  0  0  0  0  0  0  0  0
   14.8282   -0.9915   22.3803 O   0  0  0  0  0  0  0  0  0  0  0  0
   14.2935   -1.2194   24.7740 O   0  0  0  0  0  0  0  0  0  0  0  0
   12.4704   -2.0615   23.0392 C   0  0  0  0  0  0  0  0  0  0  0  0
    9.5781   -2.2219   24.0754 C   0  0  0  0  0  0  0  0  0  0  0  0
   10.2085   -1.9594   25.0915 O   0  0  0  0  0  0  0  0  0  0  0  0
    8.2731   -2.9901   24.1712 C   0  0  0  0  0  0  0  0  0  0  0  0
    7.8125   -3.2399   25.8603 Cl  0  0  0  0  0  0  0  0  0  0  0  0
  1  2  1  0
  2  3  2  0
  2  4  1  0
  4  5  1  0
  5  6  1  0
  6  7  1  0
  7  8  1  0
  8  9  1  0
  9 10  1  0
 10 11  2  0
 10 12  2  0
 10 13  1  0
  6 14  1  0
 14 15  2  0
 14 16  1  0
 16 17  1  0
 13  7  1  0
M  END
