CVD-0003878|dock_bobby27042020.15|mol2|16|dock1
     RDKit          3D

 25 27  0  0  0  0  0  0  0  0999 V2000
   13.6697    5.5252   21.5067 N   0  0  0  0  0  0  0  0  0  0  0  0
   13.4189    4.9530   22.9807 S   0  0  0  0  0  0  0  0  0  0  0  0
   14.7038    4.7257   23.5709 O   0  0  0  0  0  0  0  0  0  0  0  0
   12.5067    5.8448   23.6316 O   0  0  0  0  0  0  0  0  0  0  0  0
   12.6162    3.3847   22.8435 C   0  0  0  0  0  0  0  0  0  0  0  0
   13.3703    2.2336   22.7048 C   0  0  0  0  0  0  0  0  0  0  0  0
   12.7363    1.0095   22.5875 C   0  0  0  0  0  0  0  0  0  0  0  0
   11.3475    0.9104   22.6067 C   0  0  0  0  0  0  0  0  0  0  0  0
   10.6110    2.0825   22.7560 C   0  0  0  0  0  0  0  0  0  0  0  0
   11.2352    3.3122   22.8675 C   0  0  0  0  0  0  0  0  0  0  0  0
   10.7345   -0.3302   22.4813 N   0  0  0  0  0  0  0  0  0  0  0  0
   11.2728   -1.5489   23.0929 C   0  0  0  0  0  0  0  0  0  0  0  0
   10.2070   -2.3534   23.7817 C   0  0  0  0  0  0  0  0  0  0  0  0
    9.0689   -2.7005   22.8154 C   0  0  0  0  0  0  0  0  0  0  0  0
    7.9856   -3.5157   23.4960 C   0  0  0  0  0  0  0  0  0  0  0  0
    8.3979   -4.8751   23.7877 N   0  0  0  0  0  0  0  0  0  0  0  0
    8.4034   -5.3999   25.0669 C   0  0  0  0  0  0  0  0  0  0  0  0
    9.5876   -5.5536   25.7812 C   0  0  0  0  0  0  0  0  0  0  0  0
    9.5650   -6.0817   27.0612 C   0  0  0  0  0  0  0  0  0  0  0  0
    8.3681   -6.4624   27.6430 C   0  0  0  0  0  0  0  0  0  0  0  0
    7.2026   -6.3065   26.9266 C   0  0  0  0  0  0  0  0  0  0  0  0
    5.6913   -6.7824   27.6487 Cl  0  0  0  0  0  0  0  0  0  0  0  0
    7.2000   -5.7825   25.6501 C   0  0  0  0  0  0  0  0  0  0  0  0
    8.5408   -1.4237   22.2115 C   0  0  0  0  0  0  0  0  0  0  0  0
    9.6181   -0.5955   21.5444 C   0  0  0  0  0  0  0  0  0  0  0  0
  1  2  1  0
  2  3  2  0
  2  4  2  0
  2  5  1  0
  5  6  2  0
  6  7  1  0
  7  8  2  0
  8  9  1  0
  9 10  2  0
  8 11  1  0
 11 12  1  0
 12 13  1  0
 13 14  1  0
 14 15  1  0
 15 16  1  0
 16 17  1  0
 17 18  2  0
 18 19  1  0
 19 20  2  0
 20 21  1  0
 21 22  1  0
 21 23  2  0
 14 24  1  0
 24 25  1  0
 10  5  1  0
 25 11  1  0
 23 17  1  0
M  END
