CVD-0001396|dock_bobby27042020.9|mol2|46|dock2
     RDKit          3D

 20 21  0  0  0  0  0  0  0  0999 V2000
   13.3440    5.3147   21.4053 C   0  0  0  0  0  0  0  0  0  0  0  0
   13.6461    4.7160   23.0233 S   0  0  0  0  0  0  0  0  0  0  0  0
   12.6483    5.2478   23.8995 O   0  0  0  0  0  0  0  0  0  0  0  0
   15.0222    4.9533   23.3331 O   0  0  0  0  0  0  0  0  0  0  0  0
   13.4428    3.1005   22.9757 N   0  0  0  0  0  0  0  0  0  0  0  0
   12.1823    2.4437   22.8188 C   0  0  0  0  0  0  0  0  0  0  0  0
   12.1300    1.0559   22.7922 C   0  0  0  0  0  0  0  0  0  0  0  0
   10.9219    0.3984   22.6414 C   0  0  0  0  0  0  0  0  0  0  0  0
    9.7516    1.1311   22.5141 C   0  0  0  0  0  0  0  0  0  0  0  0
    8.5114    0.5085   22.3591 O   0  0  0  0  0  0  0  0  0  0  0  0
    7.8529    0.5247   21.1623 C   0  0  0  0  0  0  0  0  0  0  0  0
    7.0299    1.5275   20.9103 N   0  0  0  0  0  0  0  0  0  0  0  0
    6.3779    1.5198   19.7397 C   0  0  0  0  0  0  0  0  0  0  0  0
    6.5232    0.5352   18.7894 C   0  0  0  0  0  0  0  0  0  0  0  0
    7.3958   -0.5054   19.0529 C   0  0  0  0  0  0  0  0  0  0  0  0
    8.0932   -0.5286   20.2609 C   0  0  0  0  0  0  0  0  0  0  0  0
    9.0171   -1.5954   20.5478 C   0  0  0  0  0  0  0  0  0  0  0  0
    9.7488   -2.4329   20.8088 N   0  0  0  0  0  0  0  0  0  0  0  0
    9.7944    2.5141   22.5404 C   0  0  0  0  0  0  0  0  0  0  0  0
   11.0036    3.1688   22.6918 C   0  0  0  0  0  0  0  0  0  0  0  0
  1  2  1  0
  2  3  2  0
  2  4  2  0
  2  5  1  0
  5  6  1  0
  6  7  2  0
  7  8  1  0
  8  9  2  0
  9 10  1  0
 10 11  1  0
 11 12  2  0
 12 13  1  0
 13 14  2  0
 14 15  1  0
 15 16  2  0
 16 17  1  0
 17 18  3  0
  9 19  1  0
 19 20  2  0
 20  6  1  0
 16 11  1  0
M  END
