CVD-0003346|dock_bobby27042020.60|mol2|9|dock3
     RDKit          3D

 28 30  0  0  0  0  0  0  0  0999 V2000
    6.0188   -0.2090   18.5619 C   0  0  0  0  0  0  0  0  0  0  0  0
    5.9043   -1.5142   19.2945 C   0  0  0  0  0  0  0  0  0  0  0  0
    5.2323   -2.3934   18.7645 O   0  0  0  0  0  0  0  0  0  0  0  0
    6.5692   -1.7176   20.5527 N   0  0  0  0  0  0  0  0  0  0  0  0
    6.4623   -2.9641   21.2887 C   0  0  0  0  0  0  0  0  0  0  0  0
    5.6243   -3.7493   20.8734 O   0  0  0  0  0  0  0  0  0  0  0  0
    7.2276   -3.3515   22.4008 N   0  0  0  0  0  0  0  0  0  0  0  0
    7.0776   -4.6587   23.1306 C   0  0  0  0  0  0  0  0  0  0  0  0
    5.8101   -4.5790   23.9840 C   0  0  0  0  0  0  0  0  0  0  0  0
    6.2971   -5.1197   25.6513 S   0  0  0  0  0  0  0  0  0  0  0  0
    6.0937   -4.0819   26.6245 O   0  0  0  0  0  0  0  0  0  0  0  0
    5.7685   -6.4211   25.9552 O   0  0  0  0  0  0  0  0  0  0  0  0
    8.0057   -5.2737   25.2813 C   0  0  0  0  0  0  0  0  0  0  0  0
    8.2405   -5.0321   23.9859 C   0  0  0  0  0  0  0  0  0  0  0  0
    8.3124   -2.5221   22.8397 C   0  0  0  0  0  0  0  0  0  0  0  0
    9.5056   -2.5143   22.1272 C   0  0  0  0  0  0  0  0  0  0  0  0
   10.5644   -1.7217   22.5334 C   0  0  0  0  0  0  0  0  0  0  0  0
   10.4732   -0.9154   23.6560 C   0  0  0  0  0  0  0  0  0  0  0  0
   11.6310   -0.0506   24.0913 C   0  0  0  0  0  0  0  0  0  0  0  0
    9.2818   -0.9251   24.3622 C   0  0  0  0  0  0  0  0  0  0  0  0
    8.2157   -1.7131   23.9663 C   0  0  0  0  0  0  0  0  0  0  0  0
    7.2652   -0.5907   21.1546 C   0  0  0  0  0  0  0  0  0  0  0  0
    8.5466   -0.3027   20.8041 C   0  0  0  0  0  0  0  0  0  0  0  0
    9.2563    0.7254   21.3243 N   0  0  0  0  0  0  0  0  0  0  0  0
    8.6580    1.6026   22.3427 C   0  0  0  0  0  0  0  0  0  0  0  0
    7.2676    1.2887   22.6695 C   0  0  0  0  0  0  0  0  0  0  0  0
    6.5928    0.2510   22.1435 C   0  0  0  0  0  0  0  0  0  0  0  0
    5.2069    0.0003   22.6728 C   0  0  0  0  0  0  0  0  0  0  0  0
  1  2  1  0
  2  3  2  0
  2  4  1  0
  4  5  1  0
  5  6  2  0
  5  7  1  0
  7  8  1  0
  8  9  1  0
  9 10  1  0
 10 11  2  0
 10 12  2  0
 10 13  1  0
 13 14  2  0
  7 15  1  0
 15 16  2  0
 16 17  1  0
 17 18  2  0
 18 19  1  0
 18 20  1  0
 20 21  2  0
  4 22  1  0
 22 23  2  0
 23 24  1  0
 24 25  1  0
 25 26  1  0
 26 27  2  0
 27 28  1  0
 14  8  1  0
 21 15  1  0
 27 22  1  0
M  END
