CVD-0000045|dock_bobby27042020.85|mol2|39|dock3
     RDKit          3D

 26 28  0  0  0  0  0  0  0  0999 V2000
    6.3772   -5.2785   20.8398 C   0  0  0  0  0  0  0  0  0  0  0  0
    6.4165   -3.8602   20.6944 O   0  0  0  0  0  0  0  0  0  0  0  0
    7.0464   -3.0901   21.6340 C   0  0  0  0  0  0  0  0  0  0  0  0
    7.5329   -3.5906   22.8310 C   0  0  0  0  0  0  0  0  0  0  0  0
    8.1561   -2.8429   23.7452 N   0  0  0  0  0  0  0  0  0  0  0  0
    8.3152   -1.5432   23.4807 C   0  0  0  0  0  0  0  0  0  0  0  0
    9.0240   -0.7399   24.5357 C   0  0  0  0  0  0  0  0  0  0  0  0
   10.6198   -0.1786   23.9766 S   0  0  0  0  0  0  0  0  0  0  0  0
   11.4756   -0.1513   25.1239 O   0  0  0  0  0  0  0  0  0  0  0  0
   10.9644   -0.9731   22.8363 O   0  0  0  0  0  0  0  0  0  0  0  0
   10.3921    1.3544   23.4661 N   0  0  0  0  0  0  0  0  0  0  0  0
   11.3852    2.2504   22.9181 C   0  0  0  0  0  0  0  0  0  0  0  0
   12.7507    1.9755   22.7161 C   0  0  0  0  0  0  0  0  0  0  0  0
   13.4857    0.7129   23.0858 C   0  0  0  0  0  0  0  0  0  0  0  0
   13.5047    2.9840   22.1191 C   0  0  0  0  0  0  0  0  0  0  0  0
   12.9285    4.1930   21.7888 C   0  0  0  0  0  0  0  0  0  0  0  0
   11.6446    4.4915   22.0111 N   0  0  0  0  0  0  0  0  0  0  0  0
   10.9246    3.5431   22.5481 C   0  0  0  0  0  0  0  0  0  0  0  0
    9.6385    3.8724   22.7433 F   0  0  0  0  0  0  0  0  0  0  0  0
    7.8564   -0.9559   22.3157 C   0  0  0  0  0  0  0  0  0  0  0  0
    7.1974   -1.7168   21.3427 C   0  0  0  0  0  0  0  0  0  0  0  0
    6.7243   -1.0252   20.1129 C   0  0  0  0  0  0  0  0  0  0  0  0
    5.8512   -1.4540   19.1322 C   0  0  0  0  0  0  0  0  0  0  0  0
    5.6560   -0.4925   18.1114 C   0  0  0  0  0  0  0  0  0  0  0  0
    6.3534    0.6359   18.3017 C   0  0  0  0  0  0  0  0  0  0  0  0
    7.2714    0.5595   19.7351 S   0  0  0  0  0  0  0  0  0  0  0  0
  1  2  1  0
  2  3  1  0
  3  4  2  0
  4  5  1  0
  5  6  2  0
  6  7  1  0
  7  8  1  0
  8  9  2  0
  8 10  2  0
  8 11  1  0
 11 12  1  0
 12 13  2  0
 13 14  1  0
 13 15  1  0
 15 16  2  0
 16 17  1  0
 17 18  2  0
 18 19  1  0
  6 20  1  0
 20 21  2  0
 21 22  1  0
 22 23  2  0
 23 24  1  0
 24 25  2  0
 25 26  1  0
 21  3  1  0
 26 22  1  0
 18 12  1  0
M  END
