CVD-0000639|dock_bobby27042020.55|mol2|21|dock2
     RDKit          3D

 18 19  0  0  0  0  0  0  0  0999 V2000
    5.8069   -1.4682   18.3607 N   0  0  0  0  0  0  0  0  0  0  0  0
    6.4428   -2.4419   18.9922 C   0  0  0  0  0  0  0  0  0  0  0  0
    6.5599   -3.5768   18.5246 O   0  0  0  0  0  0  0  0  0  0  0  0
    7.0340   -2.0912   20.3463 C   0  0  0  0  0  0  0  0  0  0  0  0
    8.1706   -1.0871   20.2005 C   0  0  0  0  0  0  0  0  0  0  0  0
    8.7798   -0.7726   21.5512 C   0  0  0  0  0  0  0  0  0  0  0  0
    9.2530   -2.0014   22.1832 N   0  0  0  0  0  0  0  0  0  0  0  0
    8.1863   -2.9743   22.3929 C   0  0  0  0  0  0  0  0  0  0  0  0
    7.5456   -3.3414   21.0585 C   0  0  0  0  0  0  0  0  0  0  0  0
   10.4540   -2.1672   22.7887 C   0  0  0  0  0  0  0  0  0  0  0  0
   10.7371   -3.2495   23.2734 O   0  0  0  0  0  0  0  0  0  0  0  0
   11.5000   -1.0817   22.9121 C   0  0  0  0  0  0  0  0  0  0  0  0
   11.4013   -0.0910   23.8938 C   0  0  0  0  0  0  0  0  0  0  0  0
   12.3521    0.9091   24.0024 C   0  0  0  0  0  0  0  0  0  0  0  0
   13.4156    0.9531   23.1306 C   0  0  0  0  0  0  0  0  0  0  0  0
   13.5366   -0.0074   22.1434 C   0  0  0  0  0  0  0  0  0  0  0  0
   12.5969   -1.0251   22.0225 C   0  0  0  0  0  0  0  0  0  0  0  0
   12.8185   -1.9215   21.0218 O   0  0  0  0  0  0  0  0  0  0  0  0
  1  2  1  0
  2  3  2  0
  2  4  1  0
  4  5  1  0
  5  6  1  0
  6  7  1  0
  7  8  1  0
  8  9  1  0
  7 10  1  0
 10 11  2  0
 10 12  1  0
 12 13  2  0
 13 14  1  0
 14 15  2  0
 15 16  1  0
 16 17  2  0
 17 18  1  0
  9  4  1  0
 17 12  1  0
M  END
