CVD-0001996|dock_bobby27042020.22|mol2|7|dock2
     RDKit          3D

 20 22  0  0  0  0  0  0  0  0999 V2000
   13.6429   -0.0728   22.5878 C   0  0  0  0  0  0  0  0  0  0  0  0
   12.4052   -0.7801   23.1686 C   0  0  0  0  0  0  0  0  0  0  0  0
   12.6382   -2.2968   23.0476 C   0  0  0  0  0  0  0  0  0  0  0  0
   12.2440   -0.4028   24.6439 C   0  0  0  0  0  0  0  0  0  0  0  0
   11.0832   -0.6788   25.1772 O   0  0  0  0  0  0  0  0  0  0  0  0
   13.1446    0.1191   25.2672 O   0  0  0  0  0  0  0  0  0  0  0  0
   11.1154   -0.3483   22.4492 C   0  0  0  0  0  0  0  0  0  0  0  0
   10.4603    0.8382   22.7784 C   0  0  0  0  0  0  0  0  0  0  0  0
    9.2909    1.2318   22.1486 C   0  0  0  0  0  0  0  0  0  0  0  0
    8.7435    0.4298   21.1505 C   0  0  0  0  0  0  0  0  0  0  0  0
    9.3981   -0.7649   20.8048 C   0  0  0  0  0  0  0  0  0  0  0  0
   10.5702   -1.1458   21.4456 C   0  0  0  0  0  0  0  0  0  0  0  0
    8.6865   -1.3934   19.7999 N   0  0  0  0  0  0  0  0  0  0  0  0
    7.5791   -0.6255   19.4889 C   0  0  0  0  0  0  0  0  0  0  0  0
    6.5762   -0.8459   18.5511 C   0  0  0  0  0  0  0  0  0  0  0  0
    5.5569    0.0825   18.4241 C   0  0  0  0  0  0  0  0  0  0  0  0
    5.5486    1.2069   19.2240 C   0  0  0  0  0  0  0  0  0  0  0  0
    4.2561    2.3602   19.0459 Cl  0  0  0  0  0  0  0  0  0  0  0  0
    6.5329    1.4482   20.1621 C   0  0  0  0  0  0  0  0  0  0  0  0
    7.5662    0.5240   20.3029 C   0  0  0  0  0  0  0  0  0  0  0  0
  1  2  1  0
  2  3  1  0
  2  4  1  0
  4  5  1  0
  4  6  2  0
  2  7  1  0
  7  8  2  0
  8  9  1  0
  9 10  2  0
 10 11  1  0
 11 12  2  0
 11 13  1  0
 13 14  1  0
 14 15  2  0
 15 16  1  0
 16 17  2  0
 17 18  1  0
 17 19  1  0
 19 20  2  0
 12  7  1  0
 20 14  1  0
 20 10  1  0
M  END
