CVD-0001058|dock_bobby27042020.96|mol2|31|dock1
     RDKit          3D

 22 25  0  0  0  0  0  0  0  0999 V2000
   14.2526   -3.0885   22.7168 F   0  0  0  0  0  0  0  0  0  0  0  0
   13.5288   -1.9509   22.8985 C   0  0  0  0  0  0  0  0  0  0  0  0
   13.9842   -1.0394   23.8140 C   0  0  0  0  0  0  0  0  0  0  0  0
   13.2766    0.1072   24.0135 C   0  0  0  0  0  0  0  0  0  0  0  0
   12.0888    0.3572   23.2884 C   0  0  0  0  0  0  0  0  0  0  0  0
   11.3934    1.5160   23.5045 N   0  0  0  0  0  0  0  0  0  0  0  0
   10.3050    1.7204   22.8245 C   0  0  0  0  0  0  0  0  0  0  0  0
    9.5524    3.2333   23.2222 Cl  0  0  0  0  0  0  0  0  0  0  0  0
    9.7593    0.8517   21.8688 C   0  0  0  0  0  0  0  0  0  0  0  0
   10.4543   -0.3118   21.6494 C   0  0  0  0  0  0  0  0  0  0  0  0
   11.6442   -0.6005   22.3516 C   0  0  0  0  0  0  0  0  0  0  0  0
   12.4000   -1.7809   22.1665 C   0  0  0  0  0  0  0  0  0  0  0  0
    8.5310    1.0261   21.0657 C   0  0  0  0  0  0  0  0  0  0  0  0
    7.6246    1.9369   21.2709 N   0  0  0  0  0  0  0  0  0  0  0  0
    6.6680    1.7188   20.2846 C   0  0  0  0  0  0  0  0  0  0  0  0
    5.4700    2.3696   19.9918 C   0  0  0  0  0  0  0  0  0  0  0  0
    4.7287    1.9020   18.9226 C   0  0  0  0  0  0  0  0  0  0  0  0
    3.0927    2.7704   18.5018 Br  0  0  0  0  0  0  0  0  0  0  0  0
    5.1292    0.8294   18.1482 C   0  0  0  0  0  0  0  0  0  0  0  0
    6.3187    0.1886   18.4446 C   0  0  0  0  0  0  0  0  0  0  0  0
    7.0664    0.6520   19.5145 C   0  0  0  0  0  0  0  0  0  0  0  0
    8.2706    0.1912   20.0062 O   0  0  0  0  0  0  0  0  0  0  0  0
  1  2  1  0
  2  3  2  0
  3  4  1  0
  4  5  2  0
  5  6  1  0
  6  7  2  0
  7  8  1  0
  7  9  1  0
  9 10  2  0
 10 11  1  0
 11 12  2  0
  9 13  1  0
 13 14  2  0
 14 15  1  0
 15 16  2  0
 16 17  1  0
 17 18  1  0
 17 19  2  0
 19 20  1  0
 20 21  2  0
 21 22  1  0
 12  2  1  0
 22 13  1  0
 11  5  1  0
 21 15  1  0
M  END
