CVD-0002488|dock_bobby27042020.77|mol2|13|dock2
     RDKit          3D

 37 39  0  0  0  0  0  0  0  0999 V2000
    5.8642   -1.7584   24.9345 C   0  0  0  0  0  0  0  0  0  0  0  0
    7.1579   -1.8868   25.6093 N   0  0  0  0  0  0  0  0  0  0  0  0
    7.8710   -3.1278   25.2671 C   0  0  0  0  0  0  0  0  0  0  0  0
    8.6163   -3.6743   26.4780 C   0  0  0  0  0  0  0  0  0  0  0  0
    7.7472   -3.9361   27.5364 O   0  0  0  0  0  0  0  0  0  0  0  0
    9.2576   -4.9053   26.1332 O   0  0  0  0  0  0  0  0  0  0  0  0
   10.2725   -4.6853   25.1336 C   0  0  0  0  0  0  0  0  0  0  0  0
    9.6478   -4.1862   23.8528 C   0  0  0  0  0  0  0  0  0  0  0  0
    8.8108   -5.2265   23.3455 O   0  0  0  0  0  0  0  0  0  0  0  0
    8.8567   -2.9254   24.1211 C   0  0  0  0  0  0  0  0  0  0  0  0
    8.1771   -2.5139   22.9194 O   0  0  0  0  0  0  0  0  0  0  0  0
    8.9314   -2.1024   21.7744 C   0  0  0  0  0  0  0  0  0  0  0  0
    7.9467   -1.5593   20.7364 C   0  0  0  0  0  0  0  0  0  0  0  0
    6.7499   -1.4476   20.9881 O   0  0  0  0  0  0  0  0  0  0  0  0
    8.5150   -1.2189   19.5332 N   0  0  0  0  0  0  0  0  0  0  0  0
    7.7202   -0.6195   18.2532 S   0  0  0  0  0  0  0  0  0  0  0  0
    7.0055    0.6762   18.6424 N   0  0  0  0  0  0  0  0  0  0  0  0
    6.7002   -1.6217   17.8775 O   0  0  0  0  0  0  0  0  0  0  0  0
    8.7381   -0.3024   17.2288 O   0  0  0  0  0  0  0  0  0  0  0  0
    9.9760   -1.0458   22.0749 C   0  0  0  0  0  0  0  0  0  0  0  0
   11.3266   -1.3232   21.8633 C   0  0  0  0  0  0  0  0  0  0  0  0
   12.3060   -0.3863   22.1378 C   0  0  0  0  0  0  0  0  0  0  0  0
   11.9680    0.8618   22.6325 C   0  0  0  0  0  0  0  0  0  0  0  0
   13.0276    1.8939   22.9348 C   0  0  0  0  0  0  0  0  0  0  0  0
   12.5042    3.2669   22.9472 N   0  0  0  0  0  0  0  0  0  0  0  0
   13.4243    4.1726   22.2531 C   0  0  0  0  0  0  0  0  0  0  0  0
   12.8596    5.5808   22.2330 C   0  0  0  0  0  0  0  0  0  0  0  0
   12.6169    6.0543   23.5975 N   0  0  0  0  0  0  0  0  0  0  0  0
   11.7464    5.1367   24.3392 C   0  0  0  0  0  0  0  0  0  0  0  0
   12.3220    3.7324   24.3197 C   0  0  0  0  0  0  0  0  0  0  0  0
   13.1233    7.2107   24.0710 C   0  0  0  0  0  0  0  0  0  0  0  0
   13.8175    7.9450   23.3792 O   0  0  0  0  0  0  0  0  0  0  0  0
   12.7842    7.5609   25.5066 C   0  0  0  0  0  0  0  0  0  0  0  0
   13.4769    9.1223   25.9638 Cl  0  0  0  0  0  0  0  0  0  0  0  0
   10.6249    1.1443   22.8392 C   0  0  0  0  0  0  0  0  0  0  0  0
    9.6184    0.2200   22.5706 C   0  0  0  0  0  0  0  0  0  0  0  0
    8.1876    0.6182   22.8220 C   0  0  0  0  0  0  0  0  0  0  0  0
  1  2  1  0
  2  3  1  0
  3  4  1  0
  4  5  1  0
  4  6  1  0
  6  7  1  0
  7  8  1  0
  8  9  1  0
  8 10  1  0
 10 11  1  0
 11 12  1  0
 12 13  1  0
 13 14  2  0
 13 15  1  0
 15 16  1  0
 16 17  1  0
 16 18  2  0
 16 19  2  0
 12 20  1  0
 20 21  2  0
 21 22  1  0
 22 23  2  0
 23 24  1  0
 24 25  1  0
 25 26  1  0
 26 27  1  0
 27 28  1  0
 28 29  1  0
 29 30  1  0
 28 31  1  0
 31 32  2  0
 31 33  1  0
 33 34  1  0
 23 35  1  0
 35 36  2  0
 36 37  1  0
 10  3  1  0
 36 20  1  0
 30 25  1  0
M  END
