CVD-0003464|dock_bobby27042020.73|mol2|39|dock1
     RDKit          3D

 25 27  0  0  0  0  0  0  0  0999 V2000
    5.6495   -4.1614   20.5676 O   0  0  0  0  0  0  0  0  0  0  0  0
    6.4798   -3.6019   21.2758 C   0  0  0  0  0  0  0  0  0  0  0  0
    7.0663   -4.3061   22.4749 C   0  0  0  0  0  0  0  0  0  0  0  0
    6.4771   -5.6927   22.6692 C   0  0  0  0  0  0  0  0  0  0  0  0
    5.0203   -5.6698   22.8560 N   0  0  0  0  0  0  0  0  0  0  0  0
    4.4042   -6.9080   22.3712 C   0  0  0  0  0  0  0  0  0  0  0  0
    2.9259   -6.8493   22.5743 C   0  0  0  0  0  0  0  0  0  0  0  0
    2.5912   -6.6799   23.9471 O   0  0  0  0  0  0  0  0  0  0  0  0
    3.1846   -5.4893   24.4377 C   0  0  0  0  0  0  0  0  0  0  0  0
    4.6740   -5.4951   24.2657 C   0  0  0  0  0  0  0  0  0  0  0  0
    6.9655   -2.3477   21.1012 N   0  0  0  0  0  0  0  0  0  0  0  0
    6.6735   -1.3720   20.1074 C   0  0  0  0  0  0  0  0  0  0  0  0
    5.7611   -1.5867   19.0708 C   0  0  0  0  0  0  0  0  0  0  0  0
    5.5285   -0.5892   18.1404 C   0  0  0  0  0  0  0  0  0  0  0  0
    6.2072    0.5971   18.2620 C   0  0  0  0  0  0  0  0  0  0  0  0
    7.0856    0.8362   19.2396 N   0  0  0  0  0  0  0  0  0  0  0  0
    7.3231   -0.1210   20.1491 C   0  0  0  0  0  0  0  0  0  0  0  0
    8.3278    0.2361   21.2200 C   0  0  0  0  0  0  0  0  0  0  0  0
    9.5193   -0.5973   21.1562 N   0  0  0  0  0  0  0  0  0  0  0  0
   10.2495   -0.8682   22.2560 C   0  0  0  0  0  0  0  0  0  0  0  0
    9.9515   -0.4297   23.3638 O   0  0  0  0  0  0  0  0  0  0  0  0
   11.3309   -1.6539   22.0592 N   0  0  0  0  0  0  0  0  0  0  0  0
   12.2805   -1.9774   23.1242 C   0  0  0  0  0  0  0  0  0  0  0  0
   13.2954   -0.6910   22.9882 C   0  0  0  0  0  0  0  0  0  0  0  0
   13.8278   -2.0667   23.1678 C   0  0  0  0  0  0  0  0  0  0  0  0
  1  2  2  0
  2  3  1  0
  3  4  1  0
  4  5  1  0
  5  6  1  0
  6  7  1  0
  7  8  1  0
  8  9  1  0
  9 10  1  0
  2 11  1  0
 11 12  1  0
 12 13  2  0
 13 14  1  0
 14 15  2  0
 15 16  1  0
 16 17  2  0
 17 18  1  0
 18 19  1  0
 19 20  1  0
 20 21  2  0
 20 22  1  0
 22 23  1  0
 23 24  1  0
 24 25  1  0
 10  5  1  0
 17 12  1  0
 25 23  1  0
M  END
