CVD-0003695|dock_bobby27042020.87|mol2|10|dock2
     RDKit          3D

 25 26  0  0  0  0  0  0  0  0999 V2000
   13.7914    6.2045   22.4741 N   0  0  0  0  0  0  0  0  0  0  0  0
   13.9926    4.9286   22.1488 C   0  0  0  0  0  0  0  0  0  0  0  0
   14.7811    4.6266   21.2415 O   0  0  0  0  0  0  0  0  0  0  0  0
   13.2580    3.8669   22.8889 C   0  0  0  0  0  0  0  0  0  0  0  0
   13.5183    2.5724   22.8231 C   0  0  0  0  0  0  0  0  0  0  0  0
   12.7779    1.5063   23.5686 C   0  0  0  0  0  0  0  0  0  0  0  0
   11.5843    0.9502   22.7865 C   0  0  0  0  0  0  0  0  0  0  0  0
   10.5668    0.1291   23.5700 C   0  0  0  0  0  0  0  0  0  0  0  0
   11.2785   -0.7316   24.4633 O   0  0  0  0  0  0  0  0  0  0  0  0
    9.5782   -0.7647   22.8004 C   0  0  0  0  0  0  0  0  0  0  0  0
    8.8297   -0.0041   21.7306 C   0  0  0  0  0  0  0  0  0  0  0  0
    7.7558    0.7460   22.3047 O   0  0  0  0  0  0  0  0  0  0  0  0
    6.8264   -0.0126   23.0983 C   0  0  0  0  0  0  0  0  0  0  0  0
    6.1858   -0.9813   22.2793 N   0  0  0  0  0  0  0  0  0  0  0  0
    5.8725   -0.7767   20.9381 C   0  0  0  0  0  0  0  0  0  0  0  0
    5.4605    0.4717   20.4815 C   0  0  0  0  0  0  0  0  0  0  0  0
    5.1533    0.6525   19.1407 C   0  0  0  0  0  0  0  0  0  0  0  0
    4.7497    1.8787   18.6993 O   0  0  0  0  0  0  0  0  0  0  0  0
    5.2527   -0.4015   18.2447 C   0  0  0  0  0  0  0  0  0  0  0  0
    5.6639   -1.6442   18.7029 C   0  0  0  0  0  0  0  0  0  0  0  0
    5.7651   -2.6877   17.8298 O   0  0  0  0  0  0  0  0  0  0  0  0
    5.9731   -1.8349   20.0416 C   0  0  0  0  0  0  0  0  0  0  0  0
    7.5726   -0.6821   24.2335 C   0  0  0  0  0  0  0  0  0  0  0  0
    6.6697   -1.4347   25.0042 F   0  0  0  0  0  0  0  0  0  0  0  0
    8.6915   -1.5616   23.7348 C   0  0  0  0  0  0  0  0  0  0  0  0
  1  2  1  0
  2  3  2  0
  2  4  1  0
  4  5  2  0
  5  6  1  0
  6  7  1  0
  7  8  1  0
  8  9  1  0
  8 10  1  0
 10 11  1  0
 11 12  1  0
 12 13  1  0
 13 14  1  0
 14 15  1  0
 15 16  2  0
 16 17  1  0
 17 18  1  0
 17 19  2  0
 19 20  1  0
 20 21  1  0
 20 22  2  0
 13 23  1  0
 23 24  1  0
 23 25  1  0
 25 10  1  0
 22 15  1  0
M  END
