CVD-0000729|dock_bobby27042020.26|mol2|23|dock2
     RDKit          3D

 30 33  0  0  0  0  0  0  0  0999 V2000
   13.9581   -0.9263   25.4525 Cl  0  0  0  0  0  0  0  0  0  0  0  0
   12.8253   -0.9472   24.1300 C   0  0  0  0  0  0  0  0  0  0  0  0
   13.2462   -1.3720   22.8890 C   0  0  0  0  0  0  0  0  0  0  0  0
   12.3366   -1.3849   21.8451 C   0  0  0  0  0  0  0  0  0  0  0  0
   11.0303   -0.9759   22.0545 C   0  0  0  0  0  0  0  0  0  0  0  0
   10.6137   -0.5479   23.3070 C   0  0  0  0  0  0  0  0  0  0  0  0
   11.5263   -0.5372   24.3513 C   0  0  0  0  0  0  0  0  0  0  0  0
    9.1794   -0.1016   23.5408 C   0  0  0  0  0  0  0  0  0  0  0  0
    8.1939   -1.0027   22.8358 C   0  0  0  0  0  0  0  0  0  0  0  0
    7.4092   -0.3141   21.9985 C   0  0  0  0  0  0  0  0  0  0  0  0
    6.3447   -0.8591   21.0762 C   0  0  0  0  0  0  0  0  0  0  0  0
    6.0769    0.0221   19.8772 C   0  0  0  0  0  0  0  0  0  0  0  0
    5.0160    0.9119   19.8581 C   0  0  0  0  0  0  0  0  0  0  0  0
    4.8028    1.7057   18.7448 C   0  0  0  0  0  0  0  0  0  0  0  0
    5.6650    1.5833   17.6789 C   0  0  0  0  0  0  0  0  0  0  0  0
    6.6958    0.7371   17.6677 N   0  0  0  0  0  0  0  0  0  0  0  0
    6.8817   -0.0191   18.7541 C   0  0  0  0  0  0  0  0  0  0  0  0
    7.6916    1.1677   22.0650 C   0  0  0  0  0  0  0  0  0  0  0  0
    8.8354    1.2848   23.0463 C   0  0  0  0  0  0  0  0  0  0  0  0
   10.0280    1.9345   22.3682 C   0  0  0  0  0  0  0  0  0  0  0  0
   10.1348    1.9459   21.1446 O   0  0  0  0  0  0  0  0  0  0  0  0
   10.9369    2.4961   23.1658 N   0  0  0  0  0  0  0  0  0  0  0  0
   12.1238    3.1650   22.6527 C   0  0  0  0  0  0  0  0  0  0  0  0
   12.4370    4.4226   23.4387 C   0  0  0  0  0  0  0  0  0  0  0  0
   11.2322    5.1793   23.8040 N   0  0  0  0  0  0  0  0  0  0  0  0
   11.5789    6.4639   24.4181 C   0  0  0  0  0  0  0  0  0  0  0  0
   10.3328    7.2039   24.7783 C   0  0  0  0  0  0  0  0  0  0  0  0
    9.5194    7.4484   23.6366 O   0  0  0  0  0  0  0  0  0  0  0  0
    9.1784    6.2166   23.0229 C   0  0  0  0  0  0  0  0  0  0  0  0
   10.3944    5.4311   22.6326 C   0  0  0  0  0  0  0  0  0  0  0  0
  1  2  1  0
  2  3  2  0
  3  4  1  0
  4  5  2  0
  5  6  1  0
  6  7  2  0
  8  6  1  0
  8  9  1  0
  9 10  2  0
 10 11  1  0
 11 12  1  0
 12 13  2  0
 13 14  1  0
 14 15  2  0
 15 16  1  0
 16 17  2  0
 10 18  1  0
 18 19  1  0
 19 20  1  0
 20 21  2  0
 20 22  1  0
 22 23  1  0
 23 24  1  0
 24 25  1  0
 25 26  1  0
 26 27  1  0
 27 28  1  0
 28 29  1  0
 29 30  1  0
  7  2  1  0
 19  8  1  0
 30 25  1  0
 17 12  1  0
M  END
