CVD-0000153|dock_bobby27042020.99|mol2|30|dock2
     RDKit          3D

 14 14  0  0  0  0  0  0  0  0999 V2000
   13.4241    5.1421   21.6718 C   0  0  0  0  0  0  0  0  0  0  0  0
   13.7781    4.4405   23.2368 S   0  0  0  0  0  0  0  0  0  0  0  0
   15.1929    4.4976   23.4391 O   0  0  0  0  0  0  0  0  0  0  0  0
   12.9244    5.0587   24.2038 O   0  0  0  0  0  0  0  0  0  0  0  0
   13.3744    2.8900   23.1771 N   0  0  0  0  0  0  0  0  0  0  0  0
   12.0213    2.5078   22.7556 C   0  0  0  0  0  0  0  0  0  0  0  0
   11.5455    1.2882   23.5241 C   0  0  0  0  0  0  0  0  0  0  0  0
   12.4645    0.1014   23.3630 C   0  0  0  0  0  0  0  0  0  0  0  0
   13.3265   -0.2750   24.3811 C   0  0  0  0  0  0  0  0  0  0  0  0
   14.1706   -1.3622   24.2290 C   0  0  0  0  0  0  0  0  0  0  0  0
   14.1650   -2.0904   23.0513 C   0  0  0  0  0  0  0  0  0  0  0  0
   13.3077   -1.7206   22.0275 C   0  0  0  0  0  0  0  0  0  0  0  0
   13.2928   -2.4295   20.8618 O   0  0  0  0  0  0  0  0  0  0  0  0
   12.4631   -0.6310   22.1828 C   0  0  0  0  0  0  0  0  0  0  0  0
  1  2  1  0
  2  3  2  0
  2  4  2  0
  2  5  1  0
  5  6  1  0
  6  7  1  0
  7  8  1  0
  8  9  2  0
  9 10  1  0
 10 11  2  0
 11 12  1  0
 12 13  1  0
 12 14  2  0
 14  8  1  0
M  END
