CVD-0002409|dock_bobby27042020.63|mol2|24|dock1
     RDKit          3D

 26 29  0  0  0  0  0  0  0  0999 V2000
   11.8531   -3.3177   24.0130 F   0  0  0  0  0  0  0  0  0  0  0  0
   10.5849   -3.5111   23.5811 C   0  0  0  0  0  0  0  0  0  0  0  0
   10.1436   -2.8274   22.4788 C   0  0  0  0  0  0  0  0  0  0  0  0
    8.8776   -3.1048   21.9638 C   0  0  0  0  0  0  0  0  0  0  0  0
    8.4063   -2.3688   20.7939 C   0  0  0  0  0  0  0  0  0  0  0  0
    8.9692   -1.3405   20.4758 O   0  0  0  0  0  0  0  0  0  0  0  0
    7.1502   -2.8576   20.0921 C   0  0  0  0  0  0  0  0  0  0  0  0
    6.2686   -3.7957   20.9069 C   0  0  0  0  0  0  0  0  0  0  0  0
    5.1395   -4.0347   20.5208 O   0  0  0  0  0  0  0  0  0  0  0  0
    6.7598   -4.3309   22.0727 N   0  0  0  0  0  0  0  0  0  0  0  0
    5.9350   -5.3251   22.7248 C   0  0  0  0  0  0  0  0  0  0  0  0
    4.8078   -4.9493   23.4471 C   0  0  0  0  0  0  0  0  0  0  0  0
    4.0223   -5.9072   24.0665 C   0  0  0  0  0  0  0  0  0  0  0  0
    4.3492   -7.2423   23.9730 C   0  0  0  0  0  0  0  0  0  0  0  0
    5.4635   -7.6250   23.2589 C   0  0  0  0  0  0  0  0  0  0  0  0
    6.2556   -6.6751   22.6357 C   0  0  0  0  0  0  0  0  0  0  0  0
    8.0606   -4.0752   22.5671 C   0  0  0  0  0  0  0  0  0  0  0  0
    8.5419   -4.7532   23.6891 C   0  0  0  0  0  0  0  0  0  0  0  0
    9.7990   -4.4681   24.1891 C   0  0  0  0  0  0  0  0  0  0  0  0
   10.3512   -5.2759   25.6205 Cl  0  0  0  0  0  0  0  0  0  0  0  0
    6.2649   -1.6919   19.6554 C   0  0  0  0  0  0  0  0  0  0  0  0
    5.8798   -1.5508   18.3294 C   0  0  0  0  0  0  0  0  0  0  0  0
    5.0797   -0.4921   17.9333 C   0  0  0  0  0  0  0  0  0  0  0  0
    4.6555    0.4388   18.8572 C   0  0  0  0  0  0  0  0  0  0  0  0
    5.0313    0.3120   20.1773 C   0  0  0  0  0  0  0  0  0  0  0  0
    5.8313   -0.7464   20.5743 C   0  0  0  0  0  0  0  0  0  0  0  0
  1  2  1  0
  2  3  2  0
  3  4  1  0
  4  5  1  0
  5  6  2  0
  5  7  1  0
  7  8  1  0
  8  9  2  0
  8 10  1  0
 10 11  1  0
 11 12  2  0
 12 13  1  0
 13 14  2  0
 14 15  1  0
 15 16  2  0
 10 17  1  0
 17 18  1  0
 18 19  2  0
 19 20  1  0
  7 21  1  0
 21 22  2  0
 22 23  1  0
 23 24  2  0
 24 25  1  0
 25 26  2  0
 19  2  1  0
 26 21  1  0
 17  4  2  0
 16 11  1  0
M  END
