CVD-0002317|dock_bobby27042020.6|mol2|20|dock2
     RDKit          3D

 29 31  0  0  0  0  0  0  0  0999 V2000
   14.0297    5.6387   21.9793 C   0  0  0  0  0  0  0  0  0  0  0  0
   12.5986    5.5053   22.1489 O   0  0  0  0  0  0  0  0  0  0  0  0
   12.1641    4.2901   22.4773 C   0  0  0  0  0  0  0  0  0  0  0  0
   12.8990    3.3393   22.6867 O   0  0  0  0  0  0  0  0  0  0  0  0
   10.6737    4.2019   22.5657 C   0  0  0  0  0  0  0  0  0  0  0  0
    9.9055    5.3235   22.8590 C   0  0  0  0  0  0  0  0  0  0  0  0
    8.5264    5.2254   22.9374 C   0  0  0  0  0  0  0  0  0  0  0  0
    7.8984    4.0095   22.7245 C   0  0  0  0  0  0  0  0  0  0  0  0
    8.6560    2.8825   22.4306 C   0  0  0  0  0  0  0  0  0  0  0  0
    8.0203    1.6220   22.2085 N   0  0  0  0  0  0  0  0  0  0  0  0
    8.7495    0.2145   21.8570 S   0  0  0  0  0  0  0  0  0  0  0  0
    9.6989    0.4729   20.8134 O   0  0  0  0  0  0  0  0  0  0  0  0
    7.7239   -0.7611   21.6230 O   0  0  0  0  0  0  0  0  0  0  0  0
    9.6399   -0.3439   23.2879 C   0  0  0  0  0  0  0  0  0  0  0  0
    8.9590   -1.4596   23.9654 N   0  0  0  0  0  0  0  0  0  0  0  0
    9.3949   -1.5772   25.3666 C   0  0  0  0  0  0  0  0  0  0  0  0
    8.6575   -2.6898   26.0655 C   0  0  0  0  0  0  0  0  0  0  0  0
    8.8411   -3.9590   25.3547 N   0  0  0  0  0  0  0  0  0  0  0  0
    8.4848   -3.8648   23.9402 C   0  0  0  0  0  0  0  0  0  0  0  0
    9.2479   -2.7304   23.2991 C   0  0  0  0  0  0  0  0  0  0  0  0
    9.1550   -5.1535   25.9149 C   0  0  0  0  0  0  0  0  0  0  0  0
    9.3190   -5.2214   27.4050 C   0  0  0  0  0  0  0  0  0  0  0  0
    9.2892   -6.1519   25.2164 O   0  0  0  0  0  0  0  0  0  0  0  0
   11.0705   -0.6577   22.9735 C   0  0  0  0  0  0  0  0  0  0  0  0
   12.1479   -0.2815   23.8291 C   0  0  0  0  0  0  0  0  0  0  0  0
   13.3833   -0.6434   23.3838 C   0  0  0  0  0  0  0  0  0  0  0  0
   13.2458   -1.4555   21.9001 S   0  0  0  0  0  0  0  0  0  0  0  0
   11.5524   -1.3112   21.8751 C   0  0  0  0  0  0  0  0  0  0  0  0
   10.0403    2.9831   22.3524 C   0  0  0  0  0  0  0  0  0  0  0  0
  1  2  1  0
  2  3  1  0
  3  4  2  0
  3  5  1  0
  5  6  2  0
  6  7  1  0
  7  8  2  0
  8  9  1  0
  9 10  1  0
 10 11  1  0
 11 12  2  0
 11 13  2  0
 11 14  1  0
 14 15  1  0
 15 16  1  0
 16 17  1  0
 17 18  1  0
 18 19  1  0
 19 20  1  0
 18 21  1  0
 21 22  1  0
 21 23  2  0
 14 24  1  0
 24 25  1  0
 25 26  2  0
 26 27  1  0
 27 28  1  0
  9 29  2  0
 29  5  1  0
 20 15  1  0
 28 24  2  0
M  END
