CVD-0000168|dock_bobby27042020.42|mol2|28|dock2
     RDKit          3D

 19 20  0  0  0  0  0  0  0  0999 V2000
   12.6428   -0.3694   25.0538 C   0  0  0  0  0  0  0  0  0  0  0  0
   12.8426   -1.6931   24.4751 N   0  0  0  0  0  0  0  0  0  0  0  0
   13.8875   -2.3983   25.2085 C   0  0  0  0  0  0  0  0  0  0  0  0
   13.1777   -1.5957   23.0564 C   0  0  0  0  0  0  0  0  0  0  0  0
   11.9881   -1.2660   22.1710 C   0  0  0  0  0  0  0  0  0  0  0  0
   10.7934   -2.1247   22.4662 C   0  0  0  0  0  0  0  0  0  0  0  0
   10.7547   -3.2630   23.2167 C   0  0  0  0  0  0  0  0  0  0  0  0
    9.4822   -3.7653   23.2559 N   0  0  0  0  0  0  0  0  0  0  0  0
    8.6602   -2.9481   22.5194 C   0  0  0  0  0  0  0  0  0  0  0  0
    7.2980   -3.0172   22.2484 C   0  0  0  0  0  0  0  0  0  0  0  0
    6.7230   -2.0353   21.4597 C   0  0  0  0  0  0  0  0  0  0  0  0
    7.4769   -0.9920   20.9406 C   0  0  0  0  0  0  0  0  0  0  0  0
    6.8335    0.0633   20.0826 C   0  0  0  0  0  0  0  0  0  0  0  0
    6.8644   -0.3587   18.3534 S   0  0  0  0  0  0  0  0  0  0  0  0
    8.3773   -0.2453   17.8412 N   0  0  0  0  0  0  0  0  0  0  0  0
    6.4735   -1.7342   18.2332 O   0  0  0  0  0  0  0  0  0  0  0  0
    6.0987    0.6302   17.6496 O   0  0  0  0  0  0  0  0  0  0  0  0
    8.8377   -0.9342   21.2173 C   0  0  0  0  0  0  0  0  0  0  0  0
    9.4519   -1.9040   22.0070 C   0  0  0  0  0  0  0  0  0  0  0  0
  1  2  1  0
  2  3  1  0
  2  4  1  0
  4  5  1  0
  5  6  1  0
  6  7  2  0
  7  8  1  0
  8  9  1  0
  9 10  2  0
 10 11  1  0
 11 12  2  0
 12 13  1  0
 13 14  1  0
 14 15  1  0
 14 16  2  0
 14 17  2  0
 12 18  1  0
 18 19  2  0
 19  6  1  0
 19  9  1  0
M  END
