CVD-0001736|dock_bobby27042020.94|mol2|21|dock1
     RDKit          3D

 26 28  0  0  0  0  0  0  0  0999 V2000
    6.3550   -7.1585   22.1154 Cl  0  0  0  0  0  0  0  0  0  0  0  0
    6.3343   -5.4610   22.5032 C   0  0  0  0  0  0  0  0  0  0  0  0
    5.3850   -4.9830   23.3775 C   0  0  0  0  0  0  0  0  0  0  0  0
    5.3814   -3.6324   23.6773 C   0  0  0  0  0  0  0  0  0  0  0  0
    6.3152   -2.7837   23.1064 C   0  0  0  0  0  0  0  0  0  0  0  0
    7.2708   -3.2696   22.2210 C   0  0  0  0  0  0  0  0  0  0  0  0
    7.2712   -4.6293   21.9252 C   0  0  0  0  0  0  0  0  0  0  0  0
    8.2544   -2.4000   21.6282 N   0  0  0  0  0  0  0  0  0  0  0  0
    9.6463   -2.5449   22.0914 C   0  0  0  0  0  0  0  0  0  0  0  0
   10.0140   -1.4476   23.0782 C   0  0  0  0  0  0  0  0  0  0  0  0
   11.4446   -1.4146   23.4140 N   0  0  0  0  0  0  0  0  0  0  0  0
   12.0190   -2.5900   24.1033 C   0  0  0  0  0  0  0  0  0  0  0  0
   13.0447   -2.2241   25.1658 C   0  0  0  0  0  0  0  0  0  0  0  0
   14.5028   -2.1631   24.6746 C   0  0  0  0  0  0  0  0  0  0  0  0
   14.5670   -1.6379   23.3443 O   0  0  0  0  0  0  0  0  0  0  0  0
   13.7547   -0.4991   23.0795 C   0  0  0  0  0  0  0  0  0  0  0  0
   12.4229   -0.8593   22.4668 C   0  0  0  0  0  0  0  0  0  0  0  0
    8.0584   -1.3840   20.6892 C   0  0  0  0  0  0  0  0  0  0  0  0
    9.0468   -0.7828   20.2888 O   0  0  0  0  0  0  0  0  0  0  0  0
    6.7891   -1.1081   20.2434 N   0  0  0  0  0  0  0  0  0  0  0  0
    6.3402   -0.1497   19.2981 C   0  0  0  0  0  0  0  0  0  0  0  0
    5.1582    0.5799   19.3967 C   0  0  0  0  0  0  0  0  0  0  0  0
    4.8386    1.4919   18.4054 C   0  0  0  0  0  0  0  0  0  0  0  0
    5.6988    1.6489   17.3437 C   0  0  0  0  0  0  0  0  0  0  0  0
    6.8335    0.9620   17.2174 N   0  0  0  0  0  0  0  0  0  0  0  0
    7.1338    0.0865   18.1809 C   0  0  0  0  0  0  0  0  0  0  0  0
  1  2  1  0
  2  3  2  0
  3  4  1  0
  4  5  2  0
  5  6  1  0
  6  7  2  0
  6  8  1  0
  8  9  1  0
  9 10  1  0
 10 11  1  0
 11 12  1  0
 12 13  1  0
 13 14  1  0
 14 15  1  0
 15 16  1  0
 16 17  1  0
  8 18  1  0
 18 19  2  0
 18 20  1  0
 20 21  1  0
 21 22  2  0
 22 23  1  0
 23 24  2  0
 24 25  1  0
 25 26  2  0
  7  2  1  0
 17 11  1  0
 26 21  1  0
M  END
