CVD-0000088|dock_bobby27042020.14|mol2|14|dock1
     RDKit          3D

 19 20  0  0  0  0  0  0  0  0999 V2000
    8.1591   -0.5504   22.5309 O   0  0  0  0  0  0  0  0  0  0  0  0
    8.6384   -0.7492   21.4190 C   0  0  0  0  0  0  0  0  0  0  0  0
    7.8799   -0.3166   20.1887 C   0  0  0  0  0  0  0  0  0  0  0  0
    6.4744   -0.3152   20.4230 O   0  0  0  0  0  0  0  0  0  0  0  0
    5.6539    0.5783   19.7783 C   0  0  0  0  0  0  0  0  0  0  0  0
    5.9613    1.0736   18.5194 C   0  0  0  0  0  0  0  0  0  0  0  0
    5.0997    1.9713   17.9107 C   0  0  0  0  0  0  0  0  0  0  0  0
    3.9466    2.3758   18.5475 C   0  0  0  0  0  0  0  0  0  0  0  0
    3.6466    1.8854   19.7996 C   0  0  0  0  0  0  0  0  0  0  0  0
    4.4972    0.9863   20.4205 C   0  0  0  0  0  0  0  0  0  0  0  0
    9.8192   -1.3299   21.2243 N   0  0  0  0  0  0  0  0  0  0  0  0
   10.6624   -1.7887   22.3190 C   0  0  0  0  0  0  0  0  0  0  0  0
   12.0786   -1.2540   22.2048 C   0  0  0  0  0  0  0  0  0  0  0  0
   12.8741   -1.4315   23.4754 C   0  0  0  0  0  0  0  0  0  0  0  0
   13.6516   -2.5621   23.6739 C   0  0  0  0  0  0  0  0  0  0  0  0
   14.3842   -2.7240   24.8381 C   0  0  0  0  0  0  0  0  0  0  0  0
   14.3486   -1.7559   25.8185 C   0  0  0  0  0  0  0  0  0  0  0  0
   13.5810   -0.6263   25.6339 C   0  0  0  0  0  0  0  0  0  0  0  0
   12.8489   -0.4653   24.4694 C   0  0  0  0  0  0  0  0  0  0  0  0
  1  2  2  0
  2  3  1  0
  3  4  1  0
  4  5  1  0
  5  6  2  0
  6  7  1  0
  7  8  2  0
  8  9  1  0
  9 10  2  0
  2 11  1  0
 11 12  1  0
 12 13  1  0
 13 14  1  0
 14 15  2  0
 15 16  1  0
 16 17  2  0
 17 18  1  0
 18 19  2  0
 10  5  1  0
 19 14  1  0
M  END
