CVD-0000824|dock_bobby27042020.69|mol2|8|dock1
     RDKit          3D

 27 29  0  0  0  0  0  0  0  0999 V2000
    4.9568    1.7580   18.5433 C   0  0  0  0  0  0  0  0  0  0  0  0
    5.5341    0.4380   18.1238 C   0  0  0  0  0  0  0  0  0  0  0  0
    6.0007    0.2602   17.0029 O   0  0  0  0  0  0  0  0  0  0  0  0
    5.4951   -0.5363   19.0348 N   0  0  0  0  0  0  0  0  0  0  0  0
    5.9996   -1.8766   18.7727 C   0  0  0  0  0  0  0  0  0  0  0  0
    6.5313   -2.5363   20.0294 C   0  0  0  0  0  0  0  0  0  0  0  0
    7.7610   -1.8628   20.5710 C   0  0  0  0  0  0  0  0  0  0  0  0
    8.2860   -0.7334   20.0920 C   0  0  0  0  0  0  0  0  0  0  0  0
    9.5195   -0.3458   20.8470 C   0  0  0  0  0  0  0  0  0  0  0  0
    9.6084   -1.4226   21.8874 C   0  0  0  0  0  0  0  0  0  0  0  0
    8.5386   -2.2974   21.7364 C   0  0  0  0  0  0  0  0  0  0  0  0
    8.4808   -3.4772   22.4776 C   0  0  0  0  0  0  0  0  0  0  0  0
    9.5137   -3.7275   23.3475 C   0  0  0  0  0  0  0  0  0  0  0  0
    9.4578   -4.8579   24.1025 F   0  0  0  0  0  0  0  0  0  0  0  0
   10.5840   -2.8838   23.5193 C   0  0  0  0  0  0  0  0  0  0  0  0
   10.6457   -1.7069   22.7828 C   0  0  0  0  0  0  0  0  0  0  0  0
   11.8879   -0.8478   22.8195 C   0  0  0  0  0  0  0  0  0  0  0  0
   11.6130    0.5825   22.6173 N   0  0  0  0  0  0  0  0  0  0  0  0
   10.8744    1.1291   23.7595 C   0  0  0  0  0  0  0  0  0  0  0  0
   10.5576    2.5948   23.5273 C   0  0  0  0  0  0  0  0  0  0  0  0
   11.7896    3.3564   23.3101 N   0  0  0  0  0  0  0  0  0  0  0  0
   12.5818    2.7971   22.2105 C   0  0  0  0  0  0  0  0  0  0  0  0
   12.8603    1.3254   22.4567 C   0  0  0  0  0  0  0  0  0  0  0  0
   12.1104    4.4502   24.0320 C   0  0  0  0  0  0  0  0  0  0  0  0
   11.3751    4.8754   24.9141 O   0  0  0  0  0  0  0  0  0  0  0  0
   13.4280    5.1296   23.7107 C   0  0  0  0  0  0  0  0  0  0  0  0
   13.3880    5.8190   22.0826 Cl  0  0  0  0  0  0  0  0  0  0  0  0
  1  2  1  0
  2  3  2  0
  2  4  1  0
  4  5  1  0
  5  6  1  0
  6  7  1  0
  7  8  2  0
  8  9  1  0
  9 10  1  0
 10 11  2  0
 11 12  1  0
 12 13  2  0
 13 14  1  0
 13 15  1  0
 15 16  2  0
 16 17  1  0
 17 18  1  0
 18 19  1  0
 19 20  1  0
 20 21  1  0
 21 22  1  0
 22 23  1  0
 21 24  1  0
 24 25  2  0
 24 26  1  0
 26 27  1  0
 11  7  1  0
 23 18  1  0
 16 10  1  0
M  END
