CVD-0003126|dock_bobby27042020.17|mol2|24|dock2
     RDKit          3D

 18 20  0  0  0  0  0  0  0  0999 V2000
    9.7734   -0.8488   23.5979 F   0  0  0  0  0  0  0  0  0  0  0  0
   11.0193   -0.5344   23.0208 C   0  0  0  0  0  0  0  0  0  0  0  0
   11.8993   -1.7666   22.8425 C   0  0  0  0  0  0  0  0  0  0  0  0
   13.2798   -1.3637   22.3237 C   0  0  0  0  0  0  0  0  0  0  0  0
   13.9096   -0.2969   23.1912 C   0  0  0  0  0  0  0  0  0  0  0  0
   13.0214    0.8554   23.2888 N   0  0  0  0  0  0  0  0  0  0  0  0
   11.7192    0.5283   23.8623 C   0  0  0  0  0  0  0  0  0  0  0  0
   13.2671    2.1047   22.8300 C   0  0  0  0  0  0  0  0  0  0  0  0
   14.3160    2.3617   22.2643 O   0  0  0  0  0  0  0  0  0  0  0  0
   12.2988    3.2512   22.9793 C   0  0  0  0  0  0  0  0  0  0  0  0
   12.7717    4.4035   23.6116 C   0  0  0  0  0  0  0  0  0  0  0  0
   11.9269    5.4825   23.7994 C   0  0  0  0  0  0  0  0  0  0  0  0
   10.6472    5.5106   23.4063 N   0  0  0  0  0  0  0  0  0  0  0  0
   10.2171    4.4097   22.7699 C   0  0  0  0  0  0  0  0  0  0  0  0
    8.9853    4.1662   22.2389 N   0  0  0  0  0  0  0  0  0  0  0  0
    9.0474    2.9339   21.6899 C   0  0  0  0  0  0  0  0  0  0  0  0
   10.2187    2.3435   21.8206 N   0  0  0  0  0  0  0  0  0  0  0  0
   10.9686    3.2762   22.5205 C   0  0  0  0  0  0  0  0  0  0  0  0
  2  1  1  0
  2  3  1  0
  3  4  1  0
  4  5  1  0
  5  6  1  0
  6  7  1  0
  6  8  1  0
  8  9  2  0
  8 10  1  0
 10 11  2  0
 11 12  1  0
 12 13  2  0
 13 14  1  0
 14 15  1  0
 15 16  1  0
 16 17  2  0
 17 18  1  0
  7  2  1  0
 18 10  1  0
 18 14  2  0
M  END
