CVD-0003930|dock_bobby27042020.58|mol2|14|dock3
     RDKit          3D

 26 29  0  0  0  0  0  0  0  0999 V2000
    8.4489   -6.0067   27.5282 C   0  0  0  0  0  0  0  0  0  0  0  0
    9.6586   -5.7275   26.8259 O   0  0  0  0  0  0  0  0  0  0  0  0
    9.6897   -4.7478   25.8651 C   0  0  0  0  0  0  0  0  0  0  0  0
   10.8240   -4.6254   25.0852 C   0  0  0  0  0  0  0  0  0  0  0  0
   10.8972   -3.6525   24.1046 C   0  0  0  0  0  0  0  0  0  0  0  0
    9.8428   -2.7710   23.8827 C   0  0  0  0  0  0  0  0  0  0  0  0
    8.7085   -2.9106   24.6765 C   0  0  0  0  0  0  0  0  0  0  0  0
    8.6259   -3.8852   25.6556 C   0  0  0  0  0  0  0  0  0  0  0  0
    9.9325   -1.7628   22.8697 N   0  0  0  0  0  0  0  0  0  0  0  0
    8.8204   -1.4082   21.9940 C   0  0  0  0  0  0  0  0  0  0  0  0
    8.5180   -2.5242   21.0039 C   0  0  0  0  0  0  0  0  0  0  0  0
    7.3120   -2.1296   20.1464 C   0  0  0  0  0  0  0  0  0  0  0  0
    7.5191   -0.8028   19.4132 C   0  0  0  0  0  0  0  0  0  0  0  0
    8.4831   -0.9067   18.3619 O   0  0  0  0  0  0  0  0  0  0  0  0
    7.8796    0.2900   20.4123 C   0  0  0  0  0  0  0  0  0  0  0  0
    9.0767   -0.0803   21.2875 C   0  0  0  0  0  0  0  0  0  0  0  0
   11.1859   -1.1122   22.6006 C   0  0  0  0  0  0  0  0  0  0  0  0
   11.9889   -1.6322   21.5856 C   0  0  0  0  0  0  0  0  0  0  0  0
   13.2328   -1.0804   21.3301 C   0  0  0  0  0  0  0  0  0  0  0  0
   13.6891   -0.0053   22.0687 C   0  0  0  0  0  0  0  0  0  0  0  0
   12.8897    0.5660   23.0692 C   0  0  0  0  0  0  0  0  0  0  0  0
   13.0580    1.6633   23.9682 C   0  0  0  0  0  0  0  0  0  0  0  0
   11.9186    1.7705   24.6851 C   0  0  0  0  0  0  0  0  0  0  0  0
   11.0227    0.7926   24.3222 N   0  0  0  0  0  0  0  0  0  0  0  0
    9.6848    0.6976   24.8929 C   0  0  0  0  0  0  0  0  0  0  0  0
   11.6091    0.0178   23.3288 C   0  0  0  0  0  0  0  0  0  0  0  0
  1  2  1  0
  2  3  1  0
  3  4  2  0
  4  5  1  0
  5  6  2  0
  6  7  1  0
  7  8  2  0
  6  9  1  0
  9 10  1  0
 10 11  1  0
 11 12  1  0
 12 13  1  0
 13 14  1  0
 13 15  1  0
 15 16  1  0
  9 17  1  0
 17 18  2  0
 18 19  1  0
 19 20  2  0
 20 21  1  0
 21 22  1  0
 22 23  2  0
 23 24  1  0
 24 25  1  0
 24 26  1  0
  8  3  1  0
 16 10  1  0
 26 17  1  0
 26 21  2  0
M  END
