CVD-0000579|dock_bobby27042020.55|mol2|30|dock2
     RDKit          3D

 24 26  0  0  0  0  0  0  0  0999 V2000
    7.1758   -1.1613   18.0284 C   0  0  0  0  0  0  0  0  0  0  0  0
    6.7911    0.0963   18.7646 C   0  0  0  0  0  0  0  0  0  0  0  0
    5.6186    0.7482   18.3943 C   0  0  0  0  0  0  0  0  0  0  0  0
    5.2422    1.9009   19.0459 C   0  0  0  0  0  0  0  0  0  0  0  0
    5.9516    2.4412   20.0323 N   0  0  0  0  0  0  0  0  0  0  0  0
    7.0804    1.8247   20.3963 C   0  0  0  0  0  0  0  0  0  0  0  0
    7.5579    0.6533   19.8068 C   0  0  0  0  0  0  0  0  0  0  0  0
    8.7591   -0.0094   20.1872 N   0  0  0  0  0  0  0  0  0  0  0  0
    9.4373    0.0253   21.3828 C   0  0  0  0  0  0  0  0  0  0  0  0
    9.1102    0.6640   22.3784 O   0  0  0  0  0  0  0  0  0  0  0  0
   10.5497   -0.7445   21.3611 N   0  0  0  0  0  0  0  0  0  0  0  0
   11.4657   -0.9143   22.4755 C   0  0  0  0  0  0  0  0  0  0  0  0
   12.8027   -1.4958   21.9519 C   0  0  0  0  0  0  0  0  0  0  0  0
   13.8710   -0.6683   22.4646 C   0  0  0  0  0  0  0  0  0  0  0  0
   13.3322    0.4576   23.2146 C   0  0  0  0  0  0  0  0  0  0  0  0
   11.8474    0.4192   23.1294 C   0  0  0  0  0  0  0  0  0  0  0  0
   10.8610   -1.8549   23.4405 C   0  0  0  0  0  0  0  0  0  0  0  0
   10.4692   -2.6539   24.2362 C   0  0  0  0  0  0  0  0  0  0  0  0
   10.0665   -3.5945   25.2483 C   0  0  0  0  0  0  0  0  0  0  0  0
   10.5831   -4.8863   25.2499 C   0  0  0  0  0  0  0  0  0  0  0  0
   10.1672   -5.7563   26.2426 C   0  0  0  0  0  0  0  0  0  0  0  0
    9.2646   -5.3265   27.1907 C   0  0  0  0  0  0  0  0  0  0  0  0
    8.8055   -4.0312   27.1125 C   0  0  0  0  0  0  0  0  0  0  0  0
    9.1840   -3.1596   26.1678 N   0  0  0  0  0  0  0  0  0  0  0  0
  1  2  1  0
  2  3  2  0
  3  4  1  0
  4  5  2  0
  5  6  1  0
  6  7  2  0
  7  8  1  0
  8  9  1  0
  9 10  2  0
  9 11  1  0
 11 12  1  0
 12 13  1  0
 13 14  1  0
 14 15  1  0
 15 16  1  0
 12 17  1  0
 17 18  3  0
 18 19  1  0
 19 20  2  0
 20 21  1  0
 21 22  2  0
 22 23  1  0
 23 24  2  0
  7  2  1  0
 16 12  1  0
 24 19  1  0
M  END
