CVD-0002616|dock_bobby27042020.19|mol2|15|dock2
     RDKit          3D

 27 29  0  0  0  0  0  0  0  0999 V2000
    6.8658   -6.6102   22.3997 C   0  0  0  0  0  0  0  0  0  0  0  0
    6.8104   -5.1593   22.0722 C   0  0  0  0  0  0  0  0  0  0  0  0
    7.4145   -4.2822   22.8320 N   0  0  0  0  0  0  0  0  0  0  0  0
    7.3202   -2.9511   22.4804 C   0  0  0  0  0  0  0  0  0  0  0  0
    8.0592   -2.0615   23.4369 C   0  0  0  0  0  0  0  0  0  0  0  0
    9.1473   -1.3078   22.8107 N   0  0  0  0  0  0  0  0  0  0  0  0
   10.1129   -2.2203   22.1912 C   0  0  0  0  0  0  0  0  0  0  0  0
   11.2161   -1.4332   21.5086 C   0  0  0  0  0  0  0  0  0  0  0  0
   11.8911   -0.5591   22.4702 N   0  0  0  0  0  0  0  0  0  0  0  0
   10.9420    0.3266   23.1519 C   0  0  0  0  0  0  0  0  0  0  0  0
    9.8366   -0.4856   23.8018 C   0  0  0  0  0  0  0  0  0  0  0  0
   13.2259   -0.5728   22.6590 C   0  0  0  0  0  0  0  0  0  0  0  0
   13.9632   -1.3189   22.0271 O   0  0  0  0  0  0  0  0  0  0  0  0
   13.7692    0.3911   23.6954 C   0  0  0  0  0  0  0  0  0  0  0  0
   13.5109    2.0672   23.1942 Cl  0  0  0  0  0  0  0  0  0  0  0  0
    6.6274   -2.5141   21.3813 C   0  0  0  0  0  0  0  0  0  0  0  0
    6.4941   -1.0731   20.9625 C   0  0  0  0  0  0  0  0  0  0  0  0
    7.2629   -0.7453   19.6904 C   0  0  0  0  0  0  0  0  0  0  0  0
    7.3350    0.7528   19.4308 C   0  0  0  0  0  0  0  0  0  0  0  0
    6.0017    1.4499   19.4688 C   0  0  0  0  0  0  0  0  0  0  0  0
    5.1771    1.7046   18.3449 C   0  0  0  0  0  0  0  0  0  0  0  0
    4.0085    2.3449   18.6268 C   0  0  0  0  0  0  0  0  0  0  0  0
    3.9091    2.6435   20.2950 S   0  0  0  0  0  0  0  0  0  0  0  0
    5.4137    1.9155   20.6062 C   0  0  0  0  0  0  0  0  0  0  0  0
    5.9615   -3.4962   20.5578 C   0  0  0  0  0  0  0  0  0  0  0  0
    5.3055   -3.2349   19.5504 O   0  0  0  0  0  0  0  0  0  0  0  0
    6.1018   -4.8068   20.9735 N   0  0  0  0  0  0  0  0  0  0  0  0
  1  2  1  0
  2  3  2  0
  3  4  1  0
  4  5  1  0
  5  6  1  0
  6  7  1  0
  7  8  1  0
  8  9  1  0
  9 10  1  0
 10 11  1  0
  9 12  1  0
 12 13  2  0
 12 14  1  0
 14 15  1  0
  4 16  2  0
 16 17  1  0
 17 18  1  0
 18 19  1  0
 19 20  1  0
 20 21  1  0
 21 22  2  0
 22 23  1  0
 23 24  1  0
 16 25  1  0
 25 26  2  0
 25 27  1  0
 27  2  1  0
 11  6  1  0
 24 20  2  0
M  END
