CVD-0002042|dock_bobby27042020.93|mol2|13|dock3
     RDKit          3D

 26 28  0  0  0  0  0  0  0  0999 V2000
   12.7925    4.0556   22.4682 C   0  0  0  0  0  0  0  0  0  0  0  0
   11.3052    4.0529   22.7120 C   0  0  0  0  0  0  0  0  0  0  0  0
   10.6151    5.2576   22.6166 C   0  0  0  0  0  0  0  0  0  0  0  0
    9.2563    5.2868   22.8370 C   0  0  0  0  0  0  0  0  0  0  0  0
    8.5473    4.2044   23.1439 N   0  0  0  0  0  0  0  0  0  0  0  0
    9.1993    3.0414   23.2395 C   0  0  0  0  0  0  0  0  0  0  0  0
   10.5719    2.8953   23.0374 C   0  0  0  0  0  0  0  0  0  0  0  0
   11.2681    1.6584   23.1395 N   0  0  0  0  0  0  0  0  0  0  0  0
   11.0315    0.5772   23.9258 C   0  0  0  0  0  0  0  0  0  0  0  0
   10.1206    0.4637   24.7394 O   0  0  0  0  0  0  0  0  0  0  0  0
   12.0356   -0.5261   23.7008 C   0  0  0  0  0  0  0  0  0  0  0  0
   12.9811   -0.5612   24.6554 N   0  0  0  0  0  0  0  0  0  0  0  0
   13.9349   -1.4931   24.5765 C   0  0  0  0  0  0  0  0  0  0  0  0
   13.9998   -2.4205   23.5673 C   0  0  0  0  0  0  0  0  0  0  0  0
   13.0343   -2.3985   22.5766 C   0  0  0  0  0  0  0  0  0  0  0  0
   12.0166   -1.4410   22.6177 C   0  0  0  0  0  0  0  0  0  0  0  0
   10.9906   -1.3567   21.6357 N   0  0  0  0  0  0  0  0  0  0  0  0
    9.6787   -0.9497   21.7464 C   0  0  0  0  0  0  0  0  0  0  0  0
    9.1482   -0.5680   22.7840 O   0  0  0  0  0  0  0  0  0  0  0  0
    9.0312   -1.0263   20.5335 N   0  0  0  0  0  0  0  0  0  0  0  0
    7.6952   -0.7157   20.1719 C   0  0  0  0  0  0  0  0  0  0  0  0
    7.2631   -1.1112   18.9108 C   0  0  0  0  0  0  0  0  0  0  0  0
    5.9718   -0.8418   18.4904 C   0  0  0  0  0  0  0  0  0  0  0  0
    5.0967   -0.1763   19.3194 C   0  0  0  0  0  0  0  0  0  0  0  0
    5.5119    0.2209   20.5712 C   0  0  0  0  0  0  0  0  0  0  0  0
    6.8014   -0.0430   21.0031 C   0  0  0  0  0  0  0  0  0  0  0  0
  1  2  1  0
  2  3  2  0
  3  4  1  0
  4  5  2  0
  5  6  1  0
  6  7  2  0
  7  8  1  0
  8  9  1  0
  9 10  2  0
  9 11  1  0
 11 12  2  0
 12 13  1  0
 13 14  2  0
 14 15  1  0
 15 16  2  0
 16 17  1  0
 17 18  1  0
 18 19  2  0
 18 20  1  0
 20 21  1  0
 21 22  2  0
 22 23  1  0
 23 24  2  0
 24 25  1  0
 25 26  2  0
  7  2  1  0
 16 11  1  0
 26 21  1  0
M  END
