CVD-0003518|dock_bobby27042020.1|mol2|43|dock1
     RDKit          3D

 25 27  0  0  0  0  0  0  0  0999 V2000
   13.6618   -1.5310   21.8494 C   0  0  0  0  0  0  0  0  0  0  0  0
   12.6337   -1.2056   22.8937 C   0  0  0  0  0  0  0  0  0  0  0  0
   11.6097   -2.0386   23.1845 C   0  0  0  0  0  0  0  0  0  0  0  0
   10.6200   -1.7408   24.1703 C   0  0  0  0  0  0  0  0  0  0  0  0
   10.7229   -0.5627   24.8308 C   0  0  0  0  0  0  0  0  0  0  0  0
   11.7442    0.2876   24.5485 N   0  0  0  0  0  0  0  0  0  0  0  0
   12.7347    0.0501   23.6044 C   0  0  0  0  0  0  0  0  0  0  0  0
   13.6215    0.8820   23.4176 O   0  0  0  0  0  0  0  0  0  0  0  0
    9.5090   -2.7391   24.4246 C   0  0  0  0  0  0  0  0  0  0  0  0
    9.1194   -2.8256   25.9203 C   0  0  0  0  0  0  0  0  0  0  0  0
    9.7782   -4.2245   26.0088 C   0  0  0  0  0  0  0  0  0  0  0  0
   10.0282   -4.2063   24.4772 C   0  0  0  0  0  0  0  0  0  0  0  0
    8.9249   -5.3791   26.5040 C   0  0  0  0  0  0  0  0  0  0  0  0
    9.3961   -6.5949   26.2774 N   0  0  0  0  0  0  0  0  0  0  0  0
    7.8557   -5.1740   27.0828 O   0  0  0  0  0  0  0  0  0  0  0  0
    8.3362   -2.5648   23.5352 N   0  0  0  0  0  0  0  0  0  0  0  0
    8.7100   -2.7353   22.1216 C   0  0  0  0  0  0  0  0  0  0  0  0
    7.5034   -2.6049   21.2288 C   0  0  0  0  0  0  0  0  0  0  0  0
    6.8400   -1.3146   21.4400 N   0  0  0  0  0  0  0  0  0  0  0  0
    6.5147   -1.0760   22.8450 C   0  0  0  0  0  0  0  0  0  0  0  0
    7.7590   -1.2284   23.6869 C   0  0  0  0  0  0  0  0  0  0  0  0
    6.4139   -0.4661   20.4750 C   0  0  0  0  0  0  0  0  0  0  0  0
    5.8743    0.5976   20.7529 O   0  0  0  0  0  0  0  0  0  0  0  0
    6.6255   -0.8554   19.0243 C   0  0  0  0  0  0  0  0  0  0  0  0
    5.7386   -2.3333   18.6289 Cl  0  0  0  0  0  0  0  0  0  0  0  0
  1  2  1  0
  2  3  2  0
  3  4  1  0
  4  5  2  0
  5  6  1  0
  6  7  1  0
  7  8  2  0
  4  9  1  0
  9 10  1  0
 10 11  1  0
 11 12  1  0
 11 13  1  0
 13 14  1  0
 13 15  2  0
  9 16  1  0
 16 17  1  0
 17 18  1  0
 18 19  1  0
 19 20  1  0
 20 21  1  0
 19 22  1  0
 22 23  2  0
 22 24  1  0
 24 25  1  0
  7  2  1  0
 12  9  1  0
 21 16  1  0
M  END
