CVD-0002407|dock_bobby27042020.91|mol2|29|dock3
     RDKit          3D

 27 30  0  0  0  0  0  0  0  0999 V2000
    6.1019   -4.9196   22.1768 C   0  0  0  0  0  0  0  0  0  0  0  0
    7.3826   -4.2681   22.6524 C   0  0  0  0  0  0  0  0  0  0  0  0
    8.1420   -4.9049   23.6114 C   0  0  0  0  0  0  0  0  0  0  0  0
    7.7354   -6.0952   24.0903 F   0  0  0  0  0  0  0  0  0  0  0  0
    9.3096   -4.3755   24.1100 C   0  0  0  0  0  0  0  0  0  0  0  0
   10.2085   -5.2187   25.3286 Cl  0  0  0  0  0  0  0  0  0  0  0  0
    9.7674   -3.1664   23.6377 C   0  0  0  0  0  0  0  0  0  0  0  0
    9.0582   -2.4924   22.6432 C   0  0  0  0  0  0  0  0  0  0  0  0
    9.5348   -1.2645   22.1138 N   0  0  0  0  0  0  0  0  0  0  0  0
   10.8045   -0.7177   22.5363 C   0  0  0  0  0  0  0  0  0  0  0  0
   10.8573    0.2275   23.5541 C   0  0  0  0  0  0  0  0  0  0  0  0
   12.0751    0.7488   23.9583 C   0  0  0  0  0  0  0  0  0  0  0  0
   13.2436    0.3352   23.3564 C   0  0  0  0  0  0  0  0  0  0  0  0
   13.2000   -0.6021   22.3472 C   0  0  0  0  0  0  0  0  0  0  0  0
   11.9878   -1.1301   21.9348 C   0  0  0  0  0  0  0  0  0  0  0  0
    8.8384   -0.5130   21.1699 C   0  0  0  0  0  0  0  0  0  0  0  0
    9.2798    0.5507   20.7627 O   0  0  0  0  0  0  0  0  0  0  0  0
    7.6240   -1.0384   20.7196 N   0  0  0  0  0  0  0  0  0  0  0  0
    6.8880   -0.2658   19.7359 C   0  0  0  0  0  0  0  0  0  0  0  0
    5.5532    0.0677   19.9291 C   0  0  0  0  0  0  0  0  0  0  0  0
    4.8865    0.8049   18.9664 C   0  0  0  0  0  0  0  0  0  0  0  0
    5.5737    1.1872   17.8381 C   0  0  0  0  0  0  0  0  0  0  0  0
    6.8537    0.8815   17.6259 N   0  0  0  0  0  0  0  0  0  0  0  0
    7.4869    0.1691   18.5628 C   0  0  0  0  0  0  0  0  0  0  0  0
    7.0719   -2.2644   21.1388 C   0  0  0  0  0  0  0  0  0  0  0  0
    6.0202   -2.6397   20.6495 O   0  0  0  0  0  0  0  0  0  0  0  0
    7.8361   -3.0237   22.1527 C   0  0  0  0  0  0  0  0  0  0  0  0
  1  2  1  0
  2  3  2  0
  3  4  1  0
  3  5  1  0
  5  6  1  0
  5  7  2  0
  7  8  1  0
  8  9  1  0
  9 10  1  0
 10 11  2  0
 11 12  1  0
 12 13  2  0
 13 14  1  0
 14 15  2  0
  9 16  1  0
 16 17  2  0
 16 18  1  0
 18 19  1  0
 19 20  2  0
 20 21  1  0
 21 22  2  0
 22 23  1  0
 23 24  2  0
 18 25  1  0
 25 26  2  0
 25 27  1  0
 27  2  1  0
 27  8  2  0
 15 10  1  0
 24 19  1  0
M  END
