CVD-0002286|dock_bobby27042020.64|mol2|4|dock1
     RDKit          3D

 40 43  0  0  0  0  0  0  0  0999 V2000
   10.0918   -6.3721   25.9039 C   0  0  0  0  0  0  0  0  0  0  0  0
    9.4383   -5.6458   26.9958 N   0  0  0  0  0  0  0  0  0  0  0  0
    8.7806   -4.3998   26.5880 C   0  0  0  0  0  0  0  0  0  0  0  0
    7.3960   -4.6508   26.0509 C   0  0  0  0  0  0  0  0  0  0  0  0
    6.7179   -5.8815   26.0953 C   0  0  0  0  0  0  0  0  0  0  0  0
    5.4780   -5.7614   25.4964 C   0  0  0  0  0  0  0  0  0  0  0  0
    4.4934   -6.8627   25.3601 C   0  0  0  0  0  0  0  0  0  0  0  0
    4.1507   -7.5338   26.5356 C   0  0  0  0  0  0  0  0  0  0  0  0
    3.2051   -8.5451   26.5334 C   0  0  0  0  0  0  0  0  0  0  0  0
    2.5805   -8.9112   25.3625 C   0  0  0  0  0  0  0  0  0  0  0  0
    2.9229   -8.2905   24.1750 C   0  0  0  0  0  0  0  0  0  0  0  0
    3.8870   -7.3104   24.1938 C   0  0  0  0  0  0  0  0  0  0  0  0
    4.2464   -6.7979   22.9982 F   0  0  0  0  0  0  0  0  0  0  0  0
    5.3757   -4.4035   25.0814 N   0  0  0  0  0  0  0  0  0  0  0  0
    6.5537   -3.7483   25.4190 C   0  0  0  0  0  0  0  0  0  0  0  0
    4.1489   -3.5137   24.3178 S   0  0  0  0  0  0  0  0  0  0  0  0
    3.1205   -3.2775   25.2830 O   0  0  0  0  0  0  0  0  0  0  0  0
    3.8326   -4.2650   23.1430 O   0  0  0  0  0  0  0  0  0  0  0  0
    4.8538   -1.9919   23.7836 C   0  0  0  0  0  0  0  0  0  0  0  0
    4.7645   -0.8584   24.5659 C   0  0  0  0  0  0  0  0  0  0  0  0
    5.2748    0.3144   24.1850 N   0  0  0  0  0  0  0  0  0  0  0  0
    5.8843    0.3794   22.9969 C   0  0  0  0  0  0  0  0  0  0  0  0
    6.0228   -0.7020   22.1388 C   0  0  0  0  0  0  0  0  0  0  0  0
    5.4977   -1.9208   22.5592 C   0  0  0  0  0  0  0  0  0  0  0  0
    6.6704   -0.6066   20.8581 N   0  0  0  0  0  0  0  0  0  0  0  0
    5.8696   -0.2465   19.6524 C   0  0  0  0  0  0  0  0  0  0  0  0
    5.7468   -1.3777   18.6408 C   0  0  0  0  0  0  0  0  0  0  0  0
    6.4016    1.0285   19.0173 C   0  0  0  0  0  0  0  0  0  0  0  0
    8.0082   -0.9085   20.7157 C   0  0  0  0  0  0  0  0  0  0  0  0
    8.5471   -0.8854   19.6252 O   0  0  0  0  0  0  0  0  0  0  0  0
    8.8619   -1.2572   21.9259 C   0  0  0  0  0  0  0  0  0  0  0  0
   10.0945   -2.0515   21.5120 C   0  0  0  0  0  0  0  0  0  0  0  0
   10.9582   -2.3607   22.7175 C   0  0  0  0  0  0  0  0  0  0  0  0
   11.3425   -1.1208   23.3868 N   0  0  0  0  0  0  0  0  0  0  0  0
   10.1933   -0.3505   23.8499 C   0  0  0  0  0  0  0  0  0  0  0  0
    9.2939    0.0042   22.6704 C   0  0  0  0  0  0  0  0  0  0  0  0
   12.5850   -0.8088   23.8148 C   0  0  0  0  0  0  0  0  0  0  0  0
   12.8219    0.2650   24.3536 O   0  0  0  0  0  0  0  0  0  0  0  0
   13.6808   -1.8370   23.6098 C   0  0  0  0  0  0  0  0  0  0  0  0
   14.1428   -1.9456   21.9063 Cl  0  0  0  0  0  0  0  0  0  0  0  0
  1  2  1  0
  2  3  1  0
  3  4  1  0
  4  5  1  0
  5  6  2  0
  6  7  1  0
  7  8  2  0
  8  9  1  0
  9 10  2  0
 10 11  1  0
 11 12  2  0
 12 13  1  0
  6 14  1  0
 14 15  1  0
 14 16  1  0
 16 17  2  0
 16 18  2  0
 16 19  1  0
 19 20  2  0
 20 21  1  0
 21 22  2  0
 22 23  1  0
 23 24  2  0
 23 25  1  0
 25 26  1  0
 26 27  1  0
 26 28  1  0
 25 29  1  0
 29 30  2  0
 29 31  1  0
 31 32  1  0
 32 33  1  0
 33 34  1  0
 34 35  1  0
 35 36  1  0
 34 37  1  0
 37 38  2  0
 37 39  1  0
 39 40  1  0
 15  4  2  0
 24 19  1  0
 36 31  1  0
 12  7  1  0
M  END
