CVD-0000849|dock_bobby27042020.40|mol2|16|dock2
     RDKit          3D

 19 21  0  0  0  0  0  0  0  0999 V2000
   10.3536    0.5156   25.2104 O   0  0  0  0  0  0  0  0  0  0  0  0
   10.6855    0.1978   24.0796 C   0  0  0  0  0  0  0  0  0  0  0  0
   10.6229    1.0657   22.9505 N   0  0  0  0  0  0  0  0  0  0  0  0
    9.6888    0.6191   21.9030 C   0  0  0  0  0  0  0  0  0  0  0  0
   10.0042   -0.8224   21.5100 C   0  0  0  0  0  0  0  0  0  0  0  0
   10.1085   -1.7219   22.7366 C   0  0  0  0  0  0  0  0  0  0  0  0
   11.0693   -1.1390   23.6986 N   0  0  0  0  0  0  0  0  0  0  0  0
   12.3907   -1.5825   24.0700 C   0  0  0  0  0  0  0  0  0  0  0  0
   12.9233   -1.2861   25.3192 C   0  0  0  0  0  0  0  0  0  0  0  0
   14.1976   -1.7178   25.6427 C   0  0  0  0  0  0  0  0  0  0  0  0
   14.9020   -2.4466   24.7140 C   0  0  0  0  0  0  0  0  0  0  0  0
   14.4159   -2.7534   23.5122 N   0  0  0  0  0  0  0  0  0  0  0  0
   13.1926   -2.3125   23.2032 C   0  0  0  0  0  0  0  0  0  0  0  0
   11.3619    2.2964   22.8136 C   0  0  0  0  0  0  0  0  0  0  0  0
   10.6703    3.4923   22.6382 C   0  0  0  0  0  0  0  0  0  0  0  0
   11.3535    4.6896   22.5046 C   0  0  0  0  0  0  0  0  0  0  0  0
   12.7291    4.7182   22.5507 C   0  0  0  0  0  0  0  0  0  0  0  0
   13.4265    3.5436   22.7198 C   0  0  0  0  0  0  0  0  0  0  0  0
   12.7540    2.3390   22.8398 C   0  0  0  0  0  0  0  0  0  0  0  0
  1  2  2  0
  2  3  1  0
  3  4  1  0
  4  5  1  0
  5  6  1  0
  6  7  1  0
  7  8  1  0
  8  9  2  0
  9 10  1  0
 10 11  2  0
 11 12  1  0
 12 13  2  0
  3 14  1  0
 14 15  2  0
 15 16  1  0
 16 17  2  0
 17 18  1  0
 18 19  2  0
  7  2  1  0
 13  8  1  0
 19 14  1  0
M  END
