CVD-0002152|dock_bobby27042020.7|mol2|12|dock3
     RDKit          3D

 16 16  0  0  0  0  0  0  0  0999 V2000
    5.3273   -0.5224   17.7176 N   0  0  0  0  0  0  0  0  0  0  0  0
    5.6303   -1.0060   18.8356 C   0  0  0  0  0  0  0  0  0  0  0  0
    5.5980   -2.3034   19.0470 N   0  0  0  0  0  0  0  0  0  0  0  0
    6.0291   -0.0516   19.9095 C   0  0  0  0  0  0  0  0  0  0  0  0
    7.7692    0.3092   19.8575 S   0  0  0  0  0  0  0  0  0  0  0  0
    7.9953    1.4546   20.6866 O   0  0  0  0  0  0  0  0  0  0  0  0
    8.1590    0.3478   18.4802 O   0  0  0  0  0  0  0  0  0  0  0  0
    8.5318   -0.9312   20.5363 N   0  0  0  0  0  0  0  0  0  0  0  0
    8.2227   -1.3851   21.8975 C   0  0  0  0  0  0  0  0  0  0  0  0
    9.3608   -2.2209   22.4551 C   0  0  0  0  0  0  0  0  0  0  0  0
   10.6215   -1.4198   22.6730 C   0  0  0  0  0  0  0  0  0  0  0  0
   11.7312   -1.6085   21.8636 C   0  0  0  0  0  0  0  0  0  0  0  0
   12.8890   -0.8760   22.0649 C   0  0  0  0  0  0  0  0  0  0  0  0
   12.9517    0.0547   23.0796 C   0  0  0  0  0  0  0  0  0  0  0  0
   11.8566    0.2518   23.8927 C   0  0  0  0  0  0  0  0  0  0  0  0
   10.6991   -0.4813   23.6904 C   0  0  0  0  0  0  0  0  0  0  0  0
  1  2  1  0
  2  3  2  0
  2  4  1  0
  4  5  1  0
  5  6  2  0
  5  7  2  0
  5  8  1  0
  8  9  1  0
  9 10  1  0
 10 11  1  0
 11 12  2  0
 12 13  1  0
 13 14  2  0
 14 15  1  0
 15 16  2  0
 16 11  1  0
M  END
