CVD-0003164|dock_bobby27042020.74|mol2|39|dock1
     RDKit          3D

 22 24  0  0  0  0  0  0  0  0999 V2000
   11.3052    3.4592   22.0137 O   0  0  0  0  0  0  0  0  0  0  0  0
   10.1728    2.7567   22.2759 B   0  0  0  0  0  0  0  0  0  0  0  0
    9.3293    3.2380   23.2253 O   0  0  0  0  0  0  0  0  0  0  0  0
   10.1547    1.2133   21.9647 C   0  0  0  0  0  0  0  0  0  0  0  0
   11.1895    0.4209   22.4440 C   0  0  0  0  0  0  0  0  0  0  0  0
   11.1956   -0.9383   22.1794 C   0  0  0  0  0  0  0  0  0  0  0  0
   10.1452   -1.4539   21.4357 C   0  0  0  0  0  0  0  0  0  0  0  0
    9.1479   -0.5984   20.9940 C   0  0  0  0  0  0  0  0  0  0  0  0
    8.1220   -1.1180   20.2545 O   0  0  0  0  0  0  0  0  0  0  0  0
    7.0718   -0.3418   19.7609 C   0  0  0  0  0  0  0  0  0  0  0  0
    5.9302   -0.2057   20.5319 C   0  0  0  0  0  0  0  0  0  0  0  0
    4.8728    0.5542   20.0602 C   0  0  0  0  0  0  0  0  0  0  0  0
    4.9521    1.1714   18.8305 C   0  0  0  0  0  0  0  0  0  0  0  0
    6.0889    1.0320   18.0638 C   0  0  0  0  0  0  0  0  0  0  0  0
    7.1540    0.2750   18.5226 C   0  0  0  0  0  0  0  0  0  0  0  0
    9.1327    0.7049   21.2359 N   0  0  0  0  0  0  0  0  0  0  0  0
   12.3117   -1.8347   22.6917 C   0  0  0  0  0  0  0  0  0  0  0  0
   12.0252   -2.5107   24.0474 C   0  0  0  0  0  0  0  0  0  0  0  0
   13.3385   -2.4527   24.8167 C   0  0  0  0  0  0  0  0  0  0  0  0
   14.0798   -1.4167   24.1230 N   0  0  0  0  0  0  0  0  0  0  0  0
   13.5946   -1.0803   22.9252 C   0  0  0  0  0  0  0  0  0  0  0  0
   14.0958   -0.2597   22.1612 O   0  0  0  0  0  0  0  0  0  0  0  0
  1  2  1  0
  2  3  1  0
  2  4  1  0
  4  5  2  0
  5  6  1  0
  6  7  2  0
  7  8  1  0
  8  9  1  0
  9 10  1  0
 10 11  2  0
 11 12  1  0
 12 13  2  0
 13 14  1  0
 14 15  2  0
  8 16  2  0
 17  6  1  0
 17 18  1  0
 18 19  1  0
 19 20  1  0
 20 21  1  0
 21 22  2  0
 16  4  1  0
 21 17  1  0
 15 10  1  0
M  END
