CVD-0001913|dock_bobby27042020.36|mol2|33|dock2
     RDKit          3D

 27 28  0  0  0  0  0  0  0  0999 V2000
   13.9339   -2.8999   25.8339 C   0  0  0  0  0  0  0  0  0  0  0  0
   14.5520   -1.7244   24.6319 S   0  0  0  0  0  0  0  0  0  0  0  0
   13.1012   -1.2014   23.7794 C   0  0  0  0  0  0  0  0  0  0  0  0
   12.8437   -1.6383   22.4900 C   0  0  0  0  0  0  0  0  0  0  0  0
   11.7018   -1.2297   21.8245 C   0  0  0  0  0  0  0  0  0  0  0  0
   10.7892   -0.3611   22.4180 C   0  0  0  0  0  0  0  0  0  0  0  0
   11.0490    0.0535   23.7215 C   0  0  0  0  0  0  0  0  0  0  0  0
   12.1880   -0.3576   24.3911 C   0  0  0  0  0  0  0  0  0  0  0  0
    9.6143    0.0876   21.7169 N   0  0  0  0  0  0  0  0  0  0  0  0
    8.7548   -0.9273   21.0524 C   0  0  0  0  0  0  0  0  0  0  0  0
    8.4724   -2.0840   22.0331 C   0  0  0  0  0  0  0  0  0  0  0  0
    9.0339   -2.1709   23.1223 O   0  0  0  0  0  0  0  0  0  0  0  0
    7.5724   -2.9730   21.5947 N   0  0  0  0  0  0  0  0  0  0  0  0
    7.1100   -4.1771   22.3202 C   0  0  0  0  0  0  0  0  0  0  0  0
    8.1268   -4.5321   23.3960 C   0  0  0  0  0  0  0  0  0  0  0  0
    5.7620   -3.8794   22.9613 C   0  0  0  0  0  0  0  0  0  0  0  0
    6.9708   -5.3296   21.3357 C   0  0  0  0  0  0  0  0  0  0  0  0
    7.4677   -0.3545   20.4701 C   0  0  0  0  0  0  0  0  0  0  0  0
    7.3664    0.0121   19.1362 C   0  0  0  0  0  0  0  0  0  0  0  0
    6.1784    0.5304   18.6509 C   0  0  0  0  0  0  0  0  0  0  0  0
    5.1194    0.6684   19.5195 C   0  0  0  0  0  0  0  0  0  0  0  0
    5.1824    0.3273   20.8074 N   0  0  0  0  0  0  0  0  0  0  0  0
    6.3394   -0.1704   21.2540 C   0  0  0  0  0  0  0  0  0  0  0  0
    9.2944    1.4430   21.6291 C   0  0  0  0  0  0  0  0  0  0  0  0
    8.2992    1.8008   21.0011 O   0  0  0  0  0  0  0  0  0  0  0  0
   10.0666    2.5672   22.2490 C   0  0  0  0  0  0  0  0  0  0  0  0
    9.6031    3.7533   22.5515 C   0  0  0  0  0  0  0  0  0  0  0  0
  1  2  1  0
  2  3  1  0
  3  4  2  0
  4  5  1  0
  5  6  2  0
  6  7  1  0
  7  8  2  0
  6  9  1  0
  9 10  1  0
 10 11  1  0
 11 12  2  0
 11 13  1  0
 13 14  1  0
 14 15  1  0
 14 16  1  0
 14 17  1  0
 10 18  1  0
 18 19  2  0
 19 20  1  0
 20 21  2  0
 21 22  1  0
 22 23  2  0
  9 24  1  0
 24 25  2  0
 24 26  1  0
 26 27  2  0
  8  3  1  0
 23 18  1  0
M  END
