CVD-0001487|dock_bobby27042020.23|mol2|41|dock3
     RDKit          3D

 22 24  0  0  0  0  0  0  0  0999 V2000
   13.9313   -2.3908   25.8278 C   0  0  0  0  0  0  0  0  0  0  0  0
   13.9532   -2.4604   24.3283 C   0  0  0  0  0  0  0  0  0  0  0  0
   14.5395   -3.3803   23.7687 O   0  0  0  0  0  0  0  0  0  0  0  0
   13.3090   -1.5086   23.5992 N   0  0  0  0  0  0  0  0  0  0  0  0
   13.2736   -1.5185   22.1351 C   0  0  0  0  0  0  0  0  0  0  0  0
   11.8410   -1.4542   21.6391 C   0  0  0  0  0  0  0  0  0  0  0  0
   11.1796   -0.2514   22.1535 N   0  0  0  0  0  0  0  0  0  0  0  0
    9.8031   -0.1635   21.6436 C   0  0  0  0  0  0  0  0  0  0  0  0
    9.2062    1.2164   21.7993 C   0  0  0  0  0  0  0  0  0  0  0  0
   10.0433    2.2676   22.1572 C   0  0  0  0  0  0  0  0  0  0  0  0
    9.5461    3.5569   22.3159 C   0  0  0  0  0  0  0  0  0  0  0  0
    8.1932    3.7974   22.1144 C   0  0  0  0  0  0  0  0  0  0  0  0
    7.3454    2.7636   21.7594 C   0  0  0  0  0  0  0  0  0  0  0  0
    7.8380    1.4683   21.5994 C   0  0  0  0  0  0  0  0  0  0  0  0
    6.9872    0.4409   21.2467 N   0  0  0  0  0  0  0  0  0  0  0  0
    7.1986   -0.4708   20.1271 C   0  0  0  0  0  0  0  0  0  0  0  0
    6.1631    0.1905   19.0343 C   0  0  0  0  0  0  0  0  0  0  0  0
    7.5250   -0.2443   18.6283 C   0  0  0  0  0  0  0  0  0  0  0  0
   10.4330    4.6319   22.6869 C   0  0  0  0  0  0  0  0  0  0  0  0
   11.1175    5.5039   22.9618 N   0  0  0  0  0  0  0  0  0  0  0  0
   11.1824   -0.2935   23.6136 C   0  0  0  0  0  0  0  0  0  0  0  0
   12.6024   -0.3467   24.1473 C   0  0  0  0  0  0  0  0  0  0  0  0
  1  2  1  0
  2  3  2  0
  2  4  1  0
  4  5  1  0
  5  6  1  0
  6  7  1  0
  7  8  1  0
  8  9  1  0
  9 10  2  0
 10 11  1  0
 11 12  2  0
 12 13  1  0
 13 14  2  0
 14 15  1  0
 15 16  1  0
 16 17  1  0
 17 18  1  0
 11 19  1  0
 19 20  3  0
  7 21  1  0
 21 22  1  0
 22  4  1  0
 14  9  1  0
 18 16  1  0
M  END
