CVD-0003353|dock_bobby27042020.60|mol2|8|dock2
     RDKit          3D

 23 24  0  0  0  0  0  0  0  0999 V2000
   13.3691    5.1061   21.9188 C   0  0  0  0  0  0  0  0  0  0  0  0
   13.5981    4.4015   23.5055 S   0  0  0  0  0  0  0  0  0  0  0  0
   12.7799    5.1203   24.4327 O   0  0  0  0  0  0  0  0  0  0  0  0
   15.0039    4.3194   23.7562 O   0  0  0  0  0  0  0  0  0  0  0  0
   13.0416    2.8987   23.4550 N   0  0  0  0  0  0  0  0  0  0  0  0
   11.7575    2.6169   22.8045 C   0  0  0  0  0  0  0  0  0  0  0  0
   11.1613    1.3160   23.3330 C   0  0  0  0  0  0  0  0  0  0  0  0
   10.1847    0.7767   22.3601 N   0  0  0  0  0  0  0  0  0  0  0  0
    9.0143    1.6609   22.2349 C   0  0  0  0  0  0  0  0  0  0  0  0
    8.0489    1.1297   21.2074 C   0  0  0  0  0  0  0  0  0  0  0  0
    7.6359   -0.2366   21.5427 N   0  0  0  0  0  0  0  0  0  0  0  0
    8.7737   -1.1316   21.7448 C   0  0  0  0  0  0  0  0  0  0  0  0
    9.7058   -0.5423   22.7764 C   0  0  0  0  0  0  0  0  0  0  0  0
    6.3735   -0.7134   21.5333 C   0  0  0  0  0  0  0  0  0  0  0  0
    6.1221   -1.8722   21.8392 O   0  0  0  0  0  0  0  0  0  0  0  0
    5.2739    0.2511   21.1335 C   0  0  0  0  0  0  0  0  0  0  0  0
    5.5033    0.8183   19.4743 Cl  0  0  0  0  0  0  0  0  0  0  0  0
   12.2424    0.3216   23.7074 C   0  0  0  0  0  0  0  0  0  0  0  0
   13.0527   -0.2352   22.7275 C   0  0  0  0  0  0  0  0  0  0  0  0
   14.0390   -1.1496   23.0575 C   0  0  0  0  0  0  0  0  0  0  0  0
   14.2277   -1.5203   24.3714 C   0  0  0  0  0  0  0  0  0  0  0  0
   13.4308   -0.9765   25.3556 C   0  0  0  0  0  0  0  0  0  0  0  0
   12.4448   -0.0611   25.0270 C   0  0  0  0  0  0  0  0  0  0  0  0
  1  2  1  0
  2  3  2  0
  2  4  2  0
  2  5  1  0
  5  6  1  0
  6  7  1  0
  7  8  1  0
  8  9  1  0
  9 10  1  0
 10 11  1  0
 11 12  1  0
 12 13  1  0
 11 14  1  0
 14 15  2  0
 14 16  1  0
 16 17  1  0
  7 18  1  0
 18 19  2  0
 19 20  1  0
 20 21  2  0
 21 22  1  0
 22 23  2  0
 13  8  1  0
 23 18  1  0
M  END
