CVD-0003717|dock_bobby27042020.44|mol2|27|dock2
     RDKit          3D

 26 28  0  0  0  0  0  0  0  0999 V2000
    8.3942   -4.0142   22.8245 F   0  0  0  0  0  0  0  0  0  0  0  0
    7.6769   -3.6070   21.7427 C   0  0  0  0  0  0  0  0  0  0  0  0
    7.0758   -4.5552   20.9611 C   0  0  0  0  0  0  0  0  0  0  0  0
    6.3490   -4.1248   19.8641 C   0  0  0  0  0  0  0  0  0  0  0  0
    6.2452   -2.7726   19.5825 C   0  0  0  0  0  0  0  0  0  0  0  0
    6.8638   -1.8284   20.3877 C   0  0  0  0  0  0  0  0  0  0  0  0
    6.7476   -0.3545   20.0825 C   0  0  0  0  0  0  0  0  0  0  0  0
    7.9445    0.1831   19.3188 C   0  0  0  0  0  0  0  0  0  0  0  0
    9.2030   -0.2665   19.8964 N   0  0  0  0  0  0  0  0  0  0  0  0
    9.7811    0.4029   20.8999 C   0  0  0  0  0  0  0  0  0  0  0  0
    9.2357    1.4120   21.3363 O   0  0  0  0  0  0  0  0  0  0  0  0
   11.0844   -0.0662   21.4972 C   0  0  0  0  0  0  0  0  0  0  0  0
   11.3203   -1.4353   21.6832 C   0  0  0  0  0  0  0  0  0  0  0  0
   12.5037   -1.8952   22.2369 C   0  0  0  0  0  0  0  0  0  0  0  0
   13.4923   -1.0088   22.6166 C   0  0  0  0  0  0  0  0  0  0  0  0
   13.2778    0.3516   22.4329 C   0  0  0  0  0  0  0  0  0  0  0  0
   14.3613    1.6540   22.8232 S   0  0  0  0  0  0  0  0  0  0  0  0
   13.1590    2.7795   22.2231 C   0  0  0  0  0  0  0  0  0  0  0  0
   13.2474    4.1633   22.1724 N   0  0  0  0  0  0  0  0  0  0  0  0
   13.8968    5.0727   22.9716 C   0  0  0  0  0  0  0  0  0  0  0  0
   14.5476    4.6847   23.9368 O   0  0  0  0  0  0  0  0  0  0  0  0
   13.8249    6.5596   22.6928 C   0  0  0  0  0  0  0  0  0  0  0  0
   13.0395    7.4773   23.9854 Cl  0  0  0  0  0  0  0  0  0  0  0  0
   12.0627    2.2348   21.7773 N   0  0  0  0  0  0  0  0  0  0  0  0
   12.0903    0.8474   21.8790 C   0  0  0  0  0  0  0  0  0  0  0  0
    7.5919   -2.2601   21.4890 C   0  0  0  0  0  0  0  0  0  0  0  0
  1  2  1  0
  2  3  2  0
  3  4  1  0
  4  5  2  0
  5  6  1  0
  6  7  1  0
  7  8  1  0
  8  9  1  0
  9 10  1  0
 10 11  2  0
 10 12  1  0
 12 13  2  0
 13 14  1  0
 14 15  2  0
 15 16  1  0
 16 17  1  0
 17 18  1  0
 18 19  1  0
 19 20  1  0
 20 21  2  0
 20 22  1  0
 22 23  1  0
 18 24  2  0
 24 25  1  0
  6 26  2  0
 26  2  1  0
 25 12  1  0
 25 16  2  0
M  END
