CVD-0000721|dock_bobby27042020.40|mol2|35|dock3
     RDKit          3D

 35 38  0  0  0  0  0  0  0  0999 V2000
    5.4012   -1.0479   18.0054 C   0  0  0  0  0  0  0  0  0  0  0  0
    6.7554   -0.8148   18.5981 C   0  0  0  0  0  0  0  0  0  0  0  0
    7.3200   -1.3581   19.6871 C   0  0  0  0  0  0  0  0  0  0  0  0
    8.7173   -0.9992   20.1320 C   0  0  0  0  0  0  0  0  0  0  0  0
    8.7607    0.1115   21.0598 N   0  0  0  0  0  0  0  0  0  0  0  0
    7.6569    1.0624   21.0219 C   0  0  0  0  0  0  0  0  0  0  0  0
    7.5447    1.7791   22.3558 C   0  0  0  0  0  0  0  0  0  0  0  0
    8.8366    2.5084   22.6613 C   0  0  0  0  0  0  0  0  0  0  0  0
   10.0204    1.5770   22.5618 C   0  0  0  0  0  0  0  0  0  0  0  0
   11.1997    1.8448   23.2473 C   0  0  0  0  0  0  0  0  0  0  0  0
   12.3126    1.0404   23.1044 C   0  0  0  0  0  0  0  0  0  0  0  0
   12.2431   -0.0534   22.2587 C   0  0  0  0  0  0  0  0  0  0  0  0
   11.0826   -0.3499   21.5594 C   0  0  0  0  0  0  0  0  0  0  0  0
    9.9567    0.4603   21.7013 C   0  0  0  0  0  0  0  0  0  0  0  0
   13.6352   -1.1323   22.1135 S   0  0  0  0  0  0  0  0  0  0  0  0
   13.8872   -1.4291   20.5605 N   0  0  0  0  0  0  0  0  0  0  0  0
   13.2792   -2.3750   22.7298 O   0  0  0  0  0  0  0  0  0  0  0  0
   14.7796   -0.4218   22.5999 O   0  0  0  0  0  0  0  0  0  0  0  0
    6.5952   -2.3348   20.4784 C   0  0  0  0  0  0  0  0  0  0  0  0
    6.7641   -2.5982   21.7624 C   0  0  0  0  0  0  0  0  0  0  0  0
    5.9975   -3.6123   22.5499 C   0  0  0  0  0  0  0  0  0  0  0  0
    6.6600   -4.9214   22.5851 N   0  0  0  0  0  0  0  0  0  0  0  0
    6.0507   -5.9358   21.7426 C   0  0  0  0  0  0  0  0  0  0  0  0
    5.0962   -6.8071   22.4959 C   0  0  0  0  0  0  0  0  0  0  0  0
    3.6992   -6.8175   22.4286 C   0  0  0  0  0  0  0  0  0  0  0  0
    3.3066   -7.7673   23.2854 C   0  0  0  0  0  0  0  0  0  0  0  0
    1.9812   -8.3076   23.7122 C   0  0  0  0  0  0  0  0  0  0  0  0
    4.3876   -8.3263   23.8620 O   0  0  0  0  0  0  0  0  0  0  0  0
    5.5407   -7.6916   23.3383 N   0  0  0  0  0  0  0  0  0  0  0  0
    7.7720   -5.2051   23.3212 C   0  0  0  0  0  0  0  0  0  0  0  0
    8.2418   -6.3360   23.2921 O   0  0  0  0  0  0  0  0  0  0  0  0
    8.3354   -4.2363   24.0685 N   0  0  0  0  0  0  0  0  0  0  0  0
    9.5167   -4.4912   24.8929 C   0  0  0  0  0  0  0  0  0  0  0  0
    8.7870   -5.0652   26.2498 C   0  0  0  0  0  0  0  0  0  0  0  0
    9.9967   -5.7275   25.6963 C   0  0  0  0  0  0  0  0  0  0  0  0
  1  2  1  0
  2  3  2  0
  3  4  1  0
  4  5  1  0
  5  6  1  0
  6  7  1  0
  7  8  1  0
  8  9  1  0
  9 10  2  0
 10 11  1  0
 11 12  2  0
 12 13  1  0
 13 14  2  0
 12 15  1  0
 15 16  1  0
 15 17  2  0
 15 18  2  0
  3 19  1  0
 19 20  2  0
 20 21  1  0
 21 22  1  0
 22 23  1  0
 23 24  1  0
 24 25  1  0
 25 26  2  0
 26 27  1  0
 26 28  1  0
 28 29  1  0
 22 30  1  0
 30 31  2  0
 30 32  1  0
 32 33  1  0
 33 34  1  0
 34 35  1  0
 14  5  1  0
 29 24  2  0
 35 33  1  0
 14  9  1  0
M  END
