CVD-0001049|dock_bobby27042020.25|mol2|16|dock2
     RDKit          3D

 34 38  0  0  0  0  0  0  0  0999 V2000
    5.5605    2.4532   18.7421 O   0  0  0  0  0  0  0  0  0  0  0  0
    6.0560    1.4361   18.2611 N   0  0  0  0  0  0  0  0  0  0  0  0
    6.3325    1.3030   17.0810 O   0  0  0  0  0  0  0  0  0  0  0  0
    6.3327    0.3104   19.1632 C   0  0  0  0  0  0  0  0  0  0  0  0
    7.0267    0.5312   20.3385 C   0  0  0  0  0  0  0  0  0  0  0  0
    7.2539   -0.5161   21.2104 C   0  0  0  0  0  0  0  0  0  0  0  0
    6.7883   -1.7945   20.9089 C   0  0  0  0  0  0  0  0  0  0  0  0
    6.1576   -2.0359   19.6681 C   0  0  0  0  0  0  0  0  0  0  0  0
    5.8978   -0.9597   18.8238 C   0  0  0  0  0  0  0  0  0  0  0  0
    5.7629   -3.3573   19.1962 N   0  0  0  0  0  0  0  0  0  0  0  0
    5.1191   -3.4680   18.1553 O   0  0  0  0  0  0  0  0  0  0  0  0
    6.0402   -4.3218   19.8886 O   0  0  0  0  0  0  0  0  0  0  0  0
    6.9695   -2.7925   21.9226 N   0  0  0  0  0  0  0  0  0  0  0  0
    5.8811   -3.6038   22.2031 N   0  0  0  0  0  0  0  0  0  0  0  0
    6.2791   -4.3885   23.2091 C   0  0  0  0  0  0  0  0  0  0  0  0
    7.6022   -4.1002   23.5745 C   0  0  0  0  0  0  0  0  0  0  0  0
    8.0352   -3.0852   22.7439 C   0  0  0  0  0  0  0  0  0  0  0  0
    9.3811   -2.4701   22.7721 C   0  0  0  0  0  0  0  0  0  0  0  0
   10.1278   -2.2133   21.6251 C   0  0  0  0  0  0  0  0  0  0  0  0
   11.3708   -1.6099   21.7020 C   0  0  0  0  0  0  0  0  0  0  0  0
   11.8855   -1.2823   22.9373 C   0  0  0  0  0  0  0  0  0  0  0  0
   13.5905   -0.4525   23.0484 Br  0  0  0  0  0  0  0  0  0  0  0  0
   11.1847   -1.5474   24.0932 C   0  0  0  0  0  0  0  0  0  0  0  0
    9.9382   -2.1407   24.0035 C   0  0  0  0  0  0  0  0  0  0  0  0
    5.3636   -5.3893   23.7789 C   0  0  0  0  0  0  0  0  0  0  0  0
    4.3474   -5.9293   22.9968 C   0  0  0  0  0  0  0  0  0  0  0  0
    3.4862   -6.8573   23.4992 C   0  0  0  0  0  0  0  0  0  0  0  0
    3.5963   -7.3044   24.8373 C   0  0  0  0  0  0  0  0  0  0  0  0
    2.7273   -8.2658   25.4063 C   0  0  0  0  0  0  0  0  0  0  0  0
    2.8809   -8.6596   26.7026 C   0  0  0  0  0  0  0  0  0  0  0  0
    3.8849   -8.1310   27.4872 C   0  0  0  0  0  0  0  0  0  0  0  0
    4.7469   -7.2021   26.9842 C   0  0  0  0  0  0  0  0  0  0  0  0
    4.6279   -6.7617   25.6446 C   0  0  0  0  0  0  0  0  0  0  0  0
    5.4988   -5.8011   25.0811 C   0  0  0  0  0  0  0  0  0  0  0  0
  1  2  1  0
  2  3  2  0
  2  4  1  0
  4  5  2  0
  5  6  1  0
  6  7  2  0
  7  8  1  0
  8  9  2  0
  8 10  1  0
 10 11  1  0
 10 12  2  0
  7 13  1  0
 13 14  1  0
 14 15  2  0
 15 16  1  0
 16 17  2  0
 17 18  1  0
 18 19  2  0
 19 20  1  0
 20 21  2  0
 21 22  1  0
 21 23  1  0
 23 24  2  0
 15 25  1  0
 25 26  2  0
 26 27  1  0
 27 28  2  0
 28 29  1  0
 29 30  2  0
 30 31  1  0
 31 32  2  0
 32 33  1  0
 33 34  2  0
  9  4  1  0
 17 13  1  0
 24 18  1  0
 34 25  1  0
 33 28  1  0
M  CHG  4   1  -1   2   1  10   1  11  -1
M  END
