CVD-0000359|dock_bobby27042020.41|mol2|40|dock3
     RDKit          3D

 29 31  0  0  0  0  0  0  0  0999 V2000
   13.3473    4.7614   22.4222 C   0  0  0  0  0  0  0  0  0  0  0  0
   12.3291    4.1428   23.3282 C   0  0  0  0  0  0  0  0  0  0  0  0
   11.2181    3.5834   22.5764 N   0  0  0  0  0  0  0  0  0  0  0  0
    9.9662    4.1182   22.5617 C   0  0  0  0  0  0  0  0  0  0  0  0
    9.7673    5.4966   22.6269 C   0  0  0  0  0  0  0  0  0  0  0  0
    8.4673    5.9663   22.6073 C   0  0  0  0  0  0  0  0  0  0  0  0
    7.4496    5.0480   22.5247 C   0  0  0  0  0  0  0  0  0  0  0  0
    6.1700    5.4863   22.5050 F   0  0  0  0  0  0  0  0  0  0  0  0
    7.6964    3.6906   22.4614 C   0  0  0  0  0  0  0  0  0  0  0  0
    6.5967    2.6600   22.3741 C   0  0  0  0  0  0  0  0  0  0  0  0
    6.8497    1.6268   21.2952 C   0  0  0  0  0  0  0  0  0  0  0  0
    6.1186    1.6459   20.1155 C   0  0  0  0  0  0  0  0  0  0  0  0
    6.3614    0.6946   19.1467 C   0  0  0  0  0  0  0  0  0  0  0  0
    5.4365    0.7323   17.6717 Cl  0  0  0  0  0  0  0  0  0  0  0  0
    7.3173   -0.2865   19.3147 C   0  0  0  0  0  0  0  0  0  0  0  0
    8.0555   -0.3151   20.4944 C   0  0  0  0  0  0  0  0  0  0  0  0
    9.0230   -1.2787   20.7070 N   0  0  0  0  0  0  0  0  0  0  0  0
    9.0102   -2.1850   21.8392 C   0  0  0  0  0  0  0  0  0  0  0  0
    9.9224   -1.7171   22.9565 C   0  0  0  0  0  0  0  0  0  0  0  0
    9.4552   -1.1458   23.9362 O   0  0  0  0  0  0  0  0  0  0  0  0
   11.2341   -1.9844   22.7466 N   0  0  0  0  0  0  0  0  0  0  0  0
   12.3571   -1.8568   23.6006 C   0  0  0  0  0  0  0  0  0  0  0  0
   12.3682   -1.0816   24.7557 C   0  0  0  0  0  0  0  0  0  0  0  0
   13.5201   -1.0252   25.5212 C   0  0  0  0  0  0  0  0  0  0  0  0
   14.6231   -1.7402   25.1149 C   0  0  0  0  0  0  0  0  0  0  0  0
   14.6421   -2.4912   24.0138 N   0  0  0  0  0  0  0  0  0  0  0  0
   13.5255   -2.5391   23.2816 C   0  0  0  0  0  0  0  0  0  0  0  0
    7.8127    0.6425   21.4732 C   0  0  0  0  0  0  0  0  0  0  0  0
    8.9583    3.2397   22.4821 N   0  0  0  0  0  0  0  0  0  0  0  0
  1  2  1  0
  2  3  1  0
  3  4  1  0
  4  5  2  0
  5  6  1  0
  6  7  2  0
  7  8  1  0
  7  9  1  0
  9 10  1  0
 10 11  1  0
 11 12  2  0
 12 13  1  0
 13 14  1  0
 13 15  2  0
 15 16  1  0
 16 17  1  0
 17 18  1  0
 18 19  1  0
 19 20  2  0
 19 21  1  0
 21 22  1  0
 22 23  2  0
 23 24  1  0
 24 25  2  0
 25 26  1  0
 26 27  2  0
 16 28  2  0
  9 29  2  0
 29  4  1  0
 28 11  1  0
 27 22  1  0
M  END
