CVD-0002463|dock_bobby27042020.91|mol2|21|dock3
     RDKit          3D

 30 33  0  0  0  0  0  0  0  0999 V2000
   13.7377    5.7808   23.0072 C   0  0  0  0  0  0  0  0  0  0  0  0
   13.0087    4.6086   23.4883 N   0  0  0  0  0  0  0  0  0  0  0  0
   13.0620    3.5473   22.5094 C   0  0  0  0  0  0  0  0  0  0  0  0
   12.3981    2.2908   22.9959 C   0  0  0  0  0  0  0  0  0  0  0  0
   11.0289    2.5124   23.4474 N   0  0  0  0  0  0  0  0  0  0  0  0
   10.9002    3.7028   24.2767 C   0  0  0  0  0  0  0  0  0  0  0  0
   11.6074    4.9022   23.7171 C   0  0  0  0  0  0  0  0  0  0  0  0
   10.3208    1.3711   23.9007 C   0  0  0  0  0  0  0  0  0  0  0  0
   10.7348    0.7660   25.0867 C   0  0  0  0  0  0  0  0  0  0  0  0
   10.0003   -0.2569   25.6547 C   0  0  0  0  0  0  0  0  0  0  0  0
    8.8361   -0.7089   25.0641 C   0  0  0  0  0  0  0  0  0  0  0  0
    7.9988   -1.7821   25.7179 C   0  0  0  0  0  0  0  0  0  0  0  0
    8.7628   -2.9887   26.0669 N   0  0  0  0  0  0  0  0  0  0  0  0
    9.4208   -3.5509   24.8815 C   0  0  0  0  0  0  0  0  0  0  0  0
   10.2594   -4.7660   25.2263 C   0  0  0  0  0  0  0  0  0  0  0  0
    9.4563   -5.8560   25.9255 C   0  0  0  0  0  0  0  0  0  0  0  0
   10.2478   -6.9590   26.3757 O   0  0  0  0  0  0  0  0  0  0  0  0
    8.7030   -5.2256   27.0916 C   0  0  0  0  0  0  0  0  0  0  0  0
    7.8987   -4.0073   26.6695 C   0  0  0  0  0  0  0  0  0  0  0  0
    8.4567   -0.1621   23.8481 C   0  0  0  0  0  0  0  0  0  0  0  0
    9.2096    0.8301   23.2097 C   0  0  0  0  0  0  0  0  0  0  0  0
    8.7808    1.2236   21.8214 C   0  0  0  0  0  0  0  0  0  0  0  0
    8.8328    2.3652   21.3960 O   0  0  0  0  0  0  0  0  0  0  0  0
    8.3440    0.1892   21.0804 O   0  0  0  0  0  0  0  0  0  0  0  0
    7.5687    0.4772   19.8805 C   0  0  0  0  0  0  0  0  0  0  0  0
    6.1536    0.7617   20.2379 C   0  0  0  0  0  0  0  0  0  0  0  0
    5.3555   -0.1037   19.6143 O   0  0  0  0  0  0  0  0  0  0  0  0
    6.1012   -1.0072   18.8685 C   0  0  0  0  0  0  0  0  0  0  0  0
    7.4873   -0.7028   19.0103 C   0  0  0  0  0  0  0  0  0  0  0  0
    8.1128   -1.8367   19.6135 O   0  0  0  0  0  0  0  0  0  0  0  0
  1  2  1  0
  2  3  1  0
  3  4  1  0
  4  5  1  0
  5  6  1  0
  6  7  1  0
  5  8  1  0
  8  9  2  0
  9 10  1  0
 10 11  2  0
 11 12  1  0
 12 13  1  0
 13 14  1  0
 14 15  1  0
 15 16  1  0
 16 17  1  0
 16 18  1  0
 18 19  1  0
 11 20  1  0
 20 21  2  0
 21 22  1  0
 22 23  2  0
 22 24  1  0
 24 25  1  0
 25 26  1  0
 26 27  1  0
 27 28  1  0
 28 29  1  0
 29 30  1  0
  7  2  1  0
 21  8  1  0
 29 25  1  0
 19 13  1  0
M  END
