CVD-0000044|dock_bobby27042020.99|mol2|48|dock1
     RDKit          3D

 22 23  0  0  0  0  0  0  0  0999 V2000
    3.8416    1.5844   20.3733 C   0  0  0  0  0  0  0  0  0  0  0  0
    4.7447    1.1334   19.2546 C   0  0  0  0  0  0  0  0  0  0  0  0
    4.9992    2.0580   18.2437 C   0  0  0  0  0  0  0  0  0  0  0  0
    5.8287    1.7373   17.1891 C   0  0  0  0  0  0  0  0  0  0  0  0
    6.4383    0.5554   17.0539 N   0  0  0  0  0  0  0  0  0  0  0  0
    6.1976   -0.3213   17.9921 C   0  0  0  0  0  0  0  0  0  0  0  0
    6.8227   -1.4956   17.8169 F   0  0  0  0  0  0  0  0  0  0  0  0
    5.3610   -0.1246   19.1248 C   0  0  0  0  0  0  0  0  0  0  0  0
    5.2280   -1.2419   20.0324 N   0  0  0  0  0  0  0  0  0  0  0  0
    5.8996   -2.7198   19.9592 S   0  0  0  0  0  0  0  0  0  0  0  0
    5.7681   -3.1982   18.6149 O   0  0  0  0  0  0  0  0  0  0  0  0
    5.4085   -3.4943   21.0599 O   0  0  0  0  0  0  0  0  0  0  0  0
    7.6199   -2.4952   20.2399 C   0  0  0  0  0  0  0  0  0  0  0  0
    8.1246   -1.2972   20.5711 C   0  0  0  0  0  0  0  0  0  0  0  0
    9.4851   -1.0861   20.8059 N   0  0  0  0  0  0  0  0  0  0  0  0
    9.9727   -0.3394   21.8254 C   0  0  0  0  0  0  0  0  0  0  0  0
    9.2092    0.2071   22.6203 O   0  0  0  0  0  0  0  0  0  0  0  0
   11.4360   -0.2049   21.9490 C   0  0  0  0  0  0  0  0  0  0  0  0
   12.4449   -1.1066   21.6872 C   0  0  0  0  0  0  0  0  0  0  0  0
   13.7175   -0.5445   21.9500 C   0  0  0  0  0  0  0  0  0  0  0  0
   13.6623    0.7240   22.3897 C   0  0  0  0  0  0  0  0  0  0  0  0
   12.0577    1.2943   22.5046 S   0  0  0  0  0  0  0  0  0  0  0  0
  1  2  1  0
  2  3  2  0
  3  4  1  0
  4  5  2  0
  5  6  1  0
  6  7  1  0
  6  8  2  0
  8  9  1  0
  9 10  1  0
 10 11  2  0
 10 12  2  0
 10 13  1  0
 13 14  2  0
 14 15  1  0
 15 16  1  0
 16 17  2  0
 16 18  1  0
 18 19  2  0
 19 20  1  0
 20 21  2  0
 21 22  1  0
  8  2  1  0
 22 18  1  0
M  END
