CVD-0002220|dock_bobby27042020.64|mol2|14|dock3
     RDKit          3D

 12 13  0  0  0  0  0  0  0  0999 V2000
   12.8209   -1.7071   23.5220 C   0  0  0  0  0  0  0  0  0  0  0  0
   12.9954   -0.2169   23.3575 C   0  0  0  0  0  0  0  0  0  0  0  0
   13.8951    0.3351   22.4635 C   0  0  0  0  0  0  0  0  0  0  0  0
   14.0691    1.6507   22.2983 N   0  0  0  0  0  0  0  0  0  0  0  0
   13.3059    2.4337   23.0648 C   0  0  0  0  0  0  0  0  0  0  0  0
   12.4036    2.0295   23.9623 N   0  0  0  0  0  0  0  0  0  0  0  0
   12.2684    0.7051   24.0887 C   0  0  0  0  0  0  0  0  0  0  0  0
   13.4756    3.8829   22.9047 C   0  0  0  0  0  0  0  0  0  0  0  0
   13.0151    4.8563   23.8301 C   0  0  0  0  0  0  0  0  0  0  0  0
   13.2864    6.1426   23.4712 C   0  0  0  0  0  0  0  0  0  0  0  0
   14.1135    6.1700   21.9872 S   0  0  0  0  0  0  0  0  0  0  0  0
   14.1022    4.4767   21.8378 C   0  0  0  0  0  0  0  0  0  0  0  0
  1  2  1  0
  2  3  2  0
  3  4  1  0
  4  5  2  0
  5  6  1  0
  6  7  2  0
  5  8  1  0
  8  9  1  0
  9 10  2  0
 10 11  1  0
 11 12  1  0
  7  2  1  0
 12  8  2  0
M  END
