CVD-0002195|dock_bobby27042020.64|mol2|18|dock2
     RDKit          3D

 22 24  0  0  0  0  0  0  0  0999 V2000
   13.7468   -2.0715   22.8963 C   0  0  0  0  0  0  0  0  0  0  0  0
   12.2582   -1.9456   22.9866 C   0  0  0  0  0  0  0  0  0  0  0  0
   11.7365   -1.0654   21.9542 N   0  0  0  0  0  0  0  0  0  0  0  0
   11.5890    0.2584   22.1309 C   0  0  0  0  0  0  0  0  0  0  0  0
   12.7178    0.9953   22.1373 N   0  0  0  0  0  0  0  0  0  0  0  0
   12.6038    2.3169   22.3092 C   0  0  0  0  0  0  0  0  0  0  0  0
   11.3877    2.9669   22.4810 C   0  0  0  0  0  0  0  0  0  0  0  0
   10.2306    2.1968   22.4737 C   0  0  0  0  0  0  0  0  0  0  0  0
   10.3061    0.8198   22.2992 C   0  0  0  0  0  0  0  0  0  0  0  0
    9.0284   -0.0005   22.2921 C   0  0  0  0  0  0  0  0  0  0  0  0
    8.1533    0.2227   21.0757 C   0  0  0  0  0  0  0  0  0  0  0  0
    8.3695   -0.4889   19.9028 C   0  0  0  0  0  0  0  0  0  0  0  0
    7.5745   -0.2871   18.7857 C   0  0  0  0  0  0  0  0  0  0  0  0
    6.5405    0.6419   18.8317 C   0  0  0  0  0  0  0  0  0  0  0  0
    5.5470    1.0477   17.7825 C   0  0  0  0  0  0  0  0  0  0  0  0
    4.7650    2.0351   18.4944 N   0  0  0  0  0  0  0  0  0  0  0  0
    5.1650    2.2578   19.7597 C   0  0  0  0  0  0  0  0  0  0  0  0
    4.6392    3.0469   20.5382 O   0  0  0  0  0  0  0  0  0  0  0  0
    6.3148    1.3572   19.9940 C   0  0  0  0  0  0  0  0  0  0  0  0
    7.1172    1.1505   21.1146 C   0  0  0  0  0  0  0  0  0  0  0  0
   11.3322    4.3947   22.6608 C   0  0  0  0  0  0  0  0  0  0  0  0
   11.3007    5.5236   22.8227 N   0  0  0  0  0  0  0  0  0  0  0  0
  1  2  1  0
  2  3  1  0
  3  4  1  0
  4  5  2  0
  5  6  1  0
  6  7  2  0
  7  8  1  0
  8  9  2  0
  9 10  1  0
 10 11  1  0
 11 12  2  0
 12 13  1  0
 13 14  2  0
 14 15  1  0
 15 16  1  0
 16 17  1  0
 17 18  2  0
 17 19  1  0
 19 20  2  0
  7 21  1  0
 21 22  3  0
  9  4  1  0
 20 11  1  0
 19 14  1  0
M  CHG  1  22   2
M  END
