CVD-0003256|dock_bobby27042020.60|mol2|22|dock2
     RDKit          3D

 33 37  0  0  0  0  0  0  0  0999 V2000
    6.3178    1.1509   17.3870 O   0  0  0  0  0  0  0  0  0  0  0  0
    5.7147    0.0290   18.0373 C   0  0  0  0  0  0  0  0  0  0  0  0
    6.8223   -0.8599   18.5427 C   0  0  0  0  0  0  0  0  0  0  0  0
    7.5949   -0.2241   19.6895 C   0  0  0  0  0  0  0  0  0  0  0  0
    6.6868    0.2118   20.8121 C   0  0  0  0  0  0  0  0  0  0  0  0
    7.4845    0.8736   21.9407 C   0  0  0  0  0  0  0  0  0  0  0  0
    8.7919    0.1904   22.2416 C   0  0  0  0  0  0  0  0  0  0  0  0
   10.1022    0.6891   22.3017 C   0  0  0  0  0  0  0  0  0  0  0  0
   10.6324    1.9637   22.1022 N   0  0  0  0  0  0  0  0  0  0  0  0
   11.3131    2.8553   22.9423 C   0  0  0  0  0  0  0  0  0  0  0  0
   11.5805    2.6331   24.1154 O   0  0  0  0  0  0  0  0  0  0  0  0
   11.6550    4.0231   22.3043 N   0  0  0  0  0  0  0  0  0  0  0  0
   12.3288    5.1776   22.7357 C   0  0  0  0  0  0  0  0  0  0  0  0
   12.2573    5.6407   24.0478 C   0  0  0  0  0  0  0  0  0  0  0  0
   12.9714    6.7881   24.3285 C   0  0  0  0  0  0  0  0  0  0  0  0
   13.6979    7.4420   23.4233 N   0  0  0  0  0  0  0  0  0  0  0  0
   13.6892    6.9055   22.2082 C   0  0  0  0  0  0  0  0  0  0  0  0
   13.0476    5.8083   21.8021 N   0  0  0  0  0  0  0  0  0  0  0  0
   11.2858   -0.5122   22.7003 S   0  0  0  0  0  0  0  0  0  0  0  0
   10.0802   -1.7375   22.8099 C   0  0  0  0  0  0  0  0  0  0  0  0
    9.9816   -3.1212   23.0906 C   0  0  0  0  0  0  0  0  0  0  0  0
    8.6466   -3.4256   22.9893 C   0  0  0  0  0  0  0  0  0  0  0  0
    7.9250   -4.7240   23.1747 C   0  0  0  0  0  0  0  0  0  0  0  0
    8.7405   -5.7825   23.8949 C   0  0  0  0  0  0  0  0  0  0  0  0
    9.0399   -5.4090   25.3058 C   0  0  0  0  0  0  0  0  0  0  0  0
    8.2654   -4.6687   26.0860 N   0  0  0  0  0  0  0  0  0  0  0  0
    8.9256   -4.5892   27.2888 C   0  0  0  0  0  0  0  0  0  0  0  0
   10.0848   -5.2809   27.2254 C   0  0  0  0  0  0  0  0  0  0  0  0
   10.1462   -5.7984   25.9625 N   0  0  0  0  0  0  0  0  0  0  0  0
    7.9610   -2.2802   22.6618 N   0  0  0  0  0  0  0  0  0  0  0  0
    8.8221   -1.2168   22.5434 C   0  0  0  0  0  0  0  0  0  0  0  0
    5.5904    1.1151   20.2965 C   0  0  0  0  0  0  0  0  0  0  0  0
    4.8142    0.4649   19.1690 C   0  0  0  0  0  0  0  0  0  0  0  0
  1  2  1  0
  2  3  1  0
  3  4  1  0
  4  5  1  0
  5  6  1  0
  6  7  1  0
  7  8  2  0
  8  9  1  0
  9 10  1  0
 10 11  2  0
 10 12  1  0
 12 13  1  0
 13 14  2  0
 14 15  1  0
 15 16  2  0
 16 17  1  0
 17 18  2  0
  8 19  1  0
 19 20  1  0
 20 21  1  0
 21 22  2  0
 22 23  1  0
 23 24  1  0
 24 25  1  0
 25 26  2  0
 26 27  1  0
 27 28  2  0
 28 29  1  0
 22 30  1  0
 30 31  1  0
  5 32  1  0
 32 33  1  0
 33  2  1  0
 31  7  1  0
 18 13  1  0
 31 20  2  0
 29 25  1  0
M  END
