CVD-0002669|dock_bobby27042020.62|mol2|20|dock3
     RDKit          3D

 19 20  0  0  0  0  0  0  0  0999 V2000
   13.5653    5.4139   22.4483 C   0  0  0  0  0  0  0  0  0  0  0  0
   12.8731    5.1157   23.7296 C   0  0  0  0  0  0  0  0  0  0  0  0
   12.4382    3.7226   23.7298 O   0  0  0  0  0  0  0  0  0  0  0  0
   11.3713    3.3836   22.9987 C   0  0  0  0  0  0  0  0  0  0  0  0
   10.5991    4.1715   22.5027 O   0  0  0  0  0  0  0  0  0  0  0  0
   11.2331    1.9122   22.8669 C   0  0  0  0  0  0  0  0  0  0  0  0
   10.3614    1.5334   21.8846 N   0  0  0  0  0  0  0  0  0  0  0  0
   10.1781    0.2362   21.6987 C   0  0  0  0  0  0  0  0  0  0  0  0
    9.3087   -0.2237   20.7204 N   0  0  0  0  0  0  0  0  0  0  0  0
    7.9996    0.1379   20.5295 C   0  0  0  0  0  0  0  0  0  0  0  0
    7.3343   -0.5319   19.3633 C   0  0  0  0  0  0  0  0  0  0  0  0
    7.3993    0.9496   21.2276 O   0  0  0  0  0  0  0  0  0  0  0  0
   10.8879   -0.7109   22.5199 C   0  0  0  0  0  0  0  0  0  0  0  0
   10.9582   -2.1323   22.6239 C   0  0  0  0  0  0  0  0  0  0  0  0
   11.8548   -2.4436   23.6463 C   0  0  0  0  0  0  0  0  0  0  0  0
   12.3164   -1.2384   24.1494 C   0  0  0  0  0  0  0  0  0  0  0  0
   13.5417   -0.9809   25.5349 Br  0  0  0  0  0  0  0  0  0  0  0  0
   11.7343   -0.1832   23.4711 N   0  0  0  0  0  0  0  0  0  0  0  0
   11.9492    1.1560   23.6922 N   0  0  0  0  0  0  0  0  0  0  0  0
  1  2  1  0
  2  3  1  0
  3  4  1  0
  4  5  2  0
  4  6  1  0
  6  7  1  0
  7  8  2  0
  8  9  1  0
  9 10  1  0
 10 11  1  0
 10 12  2  0
  8 13  1  0
 13 14  2  0
 14 15  1  0
 15 16  2  0
 16 17  1  0
 16 18  1  0
 18 19  1  0
 19  6  2  0
 18 13  1  0
M  END
