CVD-0003698|dock_bobby27042020.44|mol2|30|dock2
     RDKit          3D

 25 27  0  0  0  0  0  0  0  0999 V2000
    5.6463   -3.3089   22.6003 O   0  0  0  0  0  0  0  0  0  0  0  0
    6.7627   -3.7260   21.8109 C   0  0  0  0  0  0  0  0  0  0  0  0
    6.9291   -5.2250   21.9220 C   0  0  0  0  0  0  0  0  0  0  0  0
    7.9418   -5.6517   21.0591 F   0  0  0  0  0  0  0  0  0  0  0  0
    8.0489   -3.0049   22.2337 C   0  0  0  0  0  0  0  0  0  0  0  0
    8.0896   -2.8041   23.7844 C   0  0  0  0  0  0  0  0  0  0  0  0
    9.3029   -2.1073   24.1825 N   0  0  0  0  0  0  0  0  0  0  0  0
    9.4087   -0.8025   23.5332 C   0  0  0  0  0  0  0  0  0  0  0  0
   10.6266   -0.0687   24.1072 C   0  0  0  0  0  0  0  0  0  0  0  0
   11.9300   -0.8062   23.9183 C   0  0  0  0  0  0  0  0  0  0  0  0
   12.4790   -1.5430   24.9597 C   0  0  0  0  0  0  0  0  0  0  0  0
   13.6786   -2.2178   24.7862 C   0  0  0  0  0  0  0  0  0  0  0  0
   14.2061   -2.9385   25.8177 O   0  0  0  0  0  0  0  0  0  0  0  0
   14.3455   -2.1646   23.5711 C   0  0  0  0  0  0  0  0  0  0  0  0
   13.7986   -1.4279   22.5307 C   0  0  0  0  0  0  0  0  0  0  0  0
   14.4448   -1.3672   21.3306 O   0  0  0  0  0  0  0  0  0  0  0  0
   12.5991   -0.7525   22.7024 C   0  0  0  0  0  0  0  0  0  0  0  0
    9.4995   -0.9647   22.0237 C   0  0  0  0  0  0  0  0  0  0  0  0
    8.2628   -1.6794   21.4817 C   0  0  0  0  0  0  0  0  0  0  0  0
    7.0371   -0.7611   21.5199 C   0  0  0  0  0  0  0  0  0  0  0  0
    7.0497    0.3765   20.5012 C   0  0  0  0  0  0  0  0  0  0  0  0
    7.0623   -0.0363   19.1153 C   0  0  0  0  0  0  0  0  0  0  0  0
    5.8424    0.6564   18.4328 C   0  0  0  0  0  0  0  0  0  0  0  0
    5.1912    1.3970   19.5550 N   0  0  0  0  0  0  0  0  0  0  0  0
    5.8868    1.2227   20.8071 C   0  0  0  0  0  0  0  0  0  0  0  0
  1  2  1  0
  2  3  1  0
  3  4  1  0
  2  5  1  0
  5  6  1  0
  6  7  1  0
  7  8  1  0
  8  9  1  0
  9 10  1  0
 10 11  2  0
 11 12  1  0
 12 13  1  0
 12 14  2  0
 14 15  1  0
 15 16  1  0
 15 17  2  0
  8 18  1  0
 18 19  1  0
 19 20  1  0
 20 21  1  0
 21 22  1  0
 22 23  1  0
 23 24  1  0
 24 25  1  0
 19  5  1  0
 25 21  1  0
 17 10  1  0
M  END
