CVD-0002144|dock_bobby27042020.64|mol2|27|dock2
     RDKit          3D

 17 17  0  0  0  0  0  0  0  0999 V2000
   13.5314    0.0803   22.7886 C   0  0  0  0  0  0  0  0  0  0  0  0
   13.4899   -1.4389   21.9185 S   0  0  0  0  0  0  0  0  0  0  0  0
   14.0916   -1.2333   20.6373 O   0  0  0  0  0  0  0  0  0  0  0  0
   14.0282   -2.4536   22.7710 O   0  0  0  0  0  0  0  0  0  0  0  0
   11.9514   -1.8096   21.6607 N   0  0  0  0  0  0  0  0  0  0  0  0
   11.0766   -2.1107   22.8003 C   0  0  0  0  0  0  0  0  0  0  0  0
    9.9823   -1.0660   22.9259 C   0  0  0  0  0  0  0  0  0  0  0  0
    8.8289   -1.3123   21.9837 C   0  0  0  0  0  0  0  0  0  0  0  0
    7.9944   -2.4066   22.1489 C   0  0  0  0  0  0  0  0  0  0  0  0
    6.9368   -2.6222   21.2818 C   0  0  0  0  0  0  0  0  0  0  0  0
    6.7046   -1.7413   20.2394 C   0  0  0  0  0  0  0  0  0  0  0  0
    7.5253   -0.6401   20.0539 C   0  0  0  0  0  0  0  0  0  0  0  0
    7.2769    0.3294   18.9206 C   0  0  0  0  0  0  0  0  0  0  0  0
    5.8295    0.5582   18.6426 C   0  0  0  0  0  0  0  0  0  0  0  0
    5.0580    0.8009   19.6025 N   0  0  0  0  0  0  0  0  0  0  0  0
    5.4598    0.4934   17.3823 N   0  0  0  0  0  0  0  0  0  0  0  0
    8.5812   -0.4375   20.9335 C   0  0  0  0  0  0  0  0  0  0  0  0
  1  2  1  0
  2  3  2  0
  2  4  2  0
  2  5  1  0
  5  6  1  0
  6  7  1  0
  7  8  1  0
  8  9  2  0
  9 10  1  0
 10 11  2  0
 11 12  1  0
 12 13  1  0
 13 14  1  0
 14 15  1  0
 14 16  2  0
 12 17  2  0
 17  8  1  0
M  END
