CVD-0001623|dock_bobby27042020.23|mol2|20|dock2
     RDKit          3D

 20 21  0  0  0  0  0  0  0  0999 V2000
    5.6139   -1.3454   18.7255 C   0  0  0  0  0  0  0  0  0  0  0  0
    6.7432   -1.6230   19.5382 O   0  0  0  0  0  0  0  0  0  0  0  0
    6.4051   -2.3574   20.6958 C   0  0  0  0  0  0  0  0  0  0  0  0
    7.6205   -2.5960   21.5349 C   0  0  0  0  0  0  0  0  0  0  0  0
    8.8558   -1.9505   21.3018 C   0  0  0  0  0  0  0  0  0  0  0  0
    9.8510   -2.2918   22.1600 C   0  0  0  0  0  0  0  0  0  0  0  0
   11.2620   -1.7819   22.1616 C   0  0  0  0  0  0  0  0  0  0  0  0
   11.4383   -0.5214   22.8888 N   0  0  0  0  0  0  0  0  0  0  0  0
   10.4897    0.4862   22.4055 C   0  0  0  0  0  0  0  0  0  0  0  0
   10.6485    1.7757   23.1895 C   0  0  0  0  0  0  0  0  0  0  0  0
   12.0199    2.2770   23.0773 N   0  0  0  0  0  0  0  0  0  0  0  0
   12.9981    1.2687   23.4974 C   0  0  0  0  0  0  0  0  0  0  0  0
   12.7983   -0.0173   22.7163 C   0  0  0  0  0  0  0  0  0  0  0  0
   12.3112    3.5320   22.6613 C   0  0  0  0  0  0  0  0  0  0  0  0
   11.4281    4.3248   22.3584 O   0  0  0  0  0  0  0  0  0  0  0  0
   13.7676    3.9485   22.5830 C   0  0  0  0  0  0  0  0  0  0  0  0
   13.9141    5.6280   22.0490 Cl  0  0  0  0  0  0  0  0  0  0  0  0
    9.2991   -3.4543   23.3137 S   0  0  0  0  0  0  0  0  0  0  0  0
    7.7351   -3.4350   22.5922 C   0  0  0  0  0  0  0  0  0  0  0  0
    6.3920   -4.5259   23.3007 Br  0  0  0  0  0  0  0  0  0  0  0  0
  1  2  1  0
  2  3  1  0
  3  4  1  0
  4  5  1  0
  5  6  2  0
  6  7  1  0
  7  8  1  0
  8  9  1  0
  9 10  1  0
 10 11  1  0
 11 12  1  0
 12 13  1  0
 11 14  1  0
 14 15  2  0
 14 16  1  0
 16 17  1  0
  6 18  1  0
 18 19  1  0
 19 20  1  0
 19  4  2  0
 13  8  1  0
M  END
