CVD-0002156|dock_bobby27042020.50|mol2|5|dock3
     RDKit          3D

 17 17  0  0  0  0  0  0  0  0999 V2000
   10.5480    6.2723   25.3375 C   0  0  0  0  0  0  0  0  0  0  0  0
   12.2223    6.2061   24.8283 S   0  0  0  0  0  0  0  0  0  0  0  0
   12.7919    7.5059   25.0057 O   0  0  0  0  0  0  0  0  0  0  0  0
   12.8412    5.0942   25.4815 O   0  0  0  0  0  0  0  0  0  0  0  0
   12.2402    5.8961   23.2554 N   0  0  0  0  0  0  0  0  0  0  0  0
   13.5195    5.6540   22.5776 C   0  0  0  0  0  0  0  0  0  0  0  0
   13.3582    4.6125   21.4851 C   0  0  0  0  0  0  0  0  0  0  0  0
   13.0526    3.2380   22.0291 C   0  0  0  0  0  0  0  0  0  0  0  0
   11.7451    2.8245   22.2302 C   0  0  0  0  0  0  0  0  0  0  0  0
   11.4646    1.5634   22.7253 C   0  0  0  0  0  0  0  0  0  0  0  0
   12.4836    0.6762   23.0331 C   0  0  0  0  0  0  0  0  0  0  0  0
   12.1775   -0.7006   23.5781 C   0  0  0  0  0  0  0  0  0  0  0  0
   13.2672   -1.6898   23.3362 C   0  0  0  0  0  0  0  0  0  0  0  0
   13.3699   -2.2142   22.2004 N   0  0  0  0  0  0  0  0  0  0  0  0
   14.0554   -1.9509   24.3560 N   0  0  0  0  0  0  0  0  0  0  0  0
   13.7912    1.0886   22.8324 C   0  0  0  0  0  0  0  0  0  0  0  0
   14.0711    2.3498   22.3372 C   0  0  0  0  0  0  0  0  0  0  0  0
  1  2  1  0
  2  3  2  0
  2  4  2  0
  2  5  1  0
  5  6  1  0
  6  7  1  0
  7  8  1  0
  8  9  2  0
  9 10  1  0
 10 11  2  0
 11 12  1  0
 12 13  1  0
 13 14  1  0
 13 15  2  0
 11 16  1  0
 16 17  2  0
 17  8  1  0
M  END
