CVD-0000045|dock_bobby27042020.71|mol2|35|dock1
     RDKit          3D

 26 28  0  0  0  0  0  0  0  0999 V2000
    9.0785   -0.7519   22.0694 C   0  0  0  0  0  0  0  0  0  0  0  0
   10.2161   -0.3684   22.8395 O   0  0  0  0  0  0  0  0  0  0  0  0
   10.8405    0.8249   22.5963 C   0  0  0  0  0  0  0  0  0  0  0  0
   10.1841    1.9463   22.1150 C   0  0  0  0  0  0  0  0  0  0  0  0
   10.7922    3.1096   21.8697 N   0  0  0  0  0  0  0  0  0  0  0  0
   12.1051    3.1854   22.1047 C   0  0  0  0  0  0  0  0  0  0  0  0
   12.7499    4.5112   21.8101 C   0  0  0  0  0  0  0  0  0  0  0  0
   12.6741    5.6080   23.2120 S   0  0  0  0  0  0  0  0  0  0  0  0
   13.4873    6.7435   22.8965 O   0  0  0  0  0  0  0  0  0  0  0  0
   12.9545    4.8182   24.3726 O   0  0  0  0  0  0  0  0  0  0  0  0
   11.1241    6.1115   23.2926 N   0  0  0  0  0  0  0  0  0  0  0  0
   10.5640    7.0742   24.2141 C   0  0  0  0  0  0  0  0  0  0  0  0
    9.2250    7.5029   24.2766 C   0  0  0  0  0  0  0  0  0  0  0  0
    8.1004    7.1009   23.3576 C   0  0  0  0  0  0  0  0  0  0  0  0
    8.9089    8.4036   25.2920 C   0  0  0  0  0  0  0  0  0  0  0  0
    9.8829    8.8651   26.1529 C   0  0  0  0  0  0  0  0  0  0  0  0
   11.1685    8.5051   26.0846 N   0  0  0  0  0  0  0  0  0  0  0  0
   11.4690    7.6423   25.1511 C   0  0  0  0  0  0  0  0  0  0  0  0
   12.7643    7.2930   25.1215 F   0  0  0  0  0  0  0  0  0  0  0  0
   12.8406    2.1190   22.5889 C   0  0  0  0  0  0  0  0  0  0  0  0
   12.2268    0.8894   22.8561 C   0  0  0  0  0  0  0  0  0  0  0  0
   13.0724   -0.2177   23.3797 C   0  0  0  0  0  0  0  0  0  0  0  0
   13.6480   -1.2854   22.7191 C   0  0  0  0  0  0  0  0  0  0  0  0
   14.3893   -2.1300   23.5804 C   0  0  0  0  0  0  0  0  0  0  0  0
   14.3825   -1.7261   24.8581 C   0  0  0  0  0  0  0  0  0  0  0  0
   13.4698   -0.3001   25.0496 S   0  0  0  0  0  0  0  0  0  0  0  0
  1  2  1  0
  2  3  1  0
  3  4  2  0
  4  5  1  0
  5  6  2  0
  6  7  1  0
  7  8  1  0
  8  9  2  0
  8 10  2  0
  8 11  1  0
 11 12  1  0
 12 13  2  0
 13 14  1  0
 13 15  1  0
 15 16  2  0
 16 17  1  0
 17 18  2  0
 18 19  1  0
  6 20  1  0
 20 21  2  0
 21 22  1  0
 22 23  2  0
 23 24  1  0
 24 25  2  0
 25 26  1  0
 21  3  1  0
 26 22  1  0
 18 12  1  0
M  END
