CVD-0000810|dock_bobby27042020.69|mol2|10|dock2
     RDKit          3D

 21 23  0  0  0  0  0  0  0  0999 V2000
    7.0564    7.3801   23.3612 C   0  0  0  0  0  0  0  0  0  0  0  0
    7.4448    6.0084   23.6702 N   0  0  0  0  0  0  0  0  0  0  0  0
    7.9201    5.9340   25.0471 C   0  0  0  0  0  0  0  0  0  0  0  0
    8.4868    5.5460   22.7473 C   0  0  0  0  0  0  0  0  0  0  0  0
    8.9089    4.1208   22.9918 C   0  0  0  0  0  0  0  0  0  0  0  0
    8.1243    3.0871   23.3969 C   0  0  0  0  0  0  0  0  0  0  0  0
    8.8646    1.9428   23.5040 N   0  0  0  0  0  0  0  0  0  0  0  0
   10.1725    2.2036   23.1490 C   0  0  0  0  0  0  0  0  0  0  0  0
   11.3293    1.3973   23.0586 C   0  0  0  0  0  0  0  0  0  0  0  0
   12.5371    2.0176   22.7258 C   0  0  0  0  0  0  0  0  0  0  0  0
   12.5732    3.3695   22.4524 C   0  0  0  0  0  0  0  0  0  0  0  0
   14.0969    4.1038   22.0379 Cl  0  0  0  0  0  0  0  0  0  0  0  0
   11.4457    4.1565   22.4946 C   0  0  0  0  0  0  0  0  0  0  0  0
   10.2298    3.5828   22.8480 C   0  0  0  0  0  0  0  0  0  0  0  0
   11.3108   -0.0053   23.2900 N   0  0  0  0  0  0  0  0  0  0  0  0
   10.9879   -0.9649   22.2324 C   0  0  0  0  0  0  0  0  0  0  0  0
   12.1194   -1.7082   21.7240 C   0  0  0  0  0  0  0  0  0  0  0  0
   13.4873   -1.5386   22.1998 C   0  0  0  0  0  0  0  0  0  0  0  0
   13.8136   -1.7226   23.6120 C   0  0  0  0  0  0  0  0  0  0  0  0
   13.2780   -0.7379   24.5745 C   0  0  0  0  0  0  0  0  0  0  0  0
   11.8124   -0.5627   24.5420 C   0  0  0  0  0  0  0  0  0  0  0  0
  1  2  1  0
  2  3  1  0
  2  4  1  0
  4  5  1  0
  5  6  2  0
  6  7  1  0
  7  8  1  0
  8  9  2  0
  9 10  1  0
 10 11  2  0
 11 12  1  0
 11 13  1  0
 13 14  2  0
  9 15  1  0
 15 16  1  0
 16 17  1  0
 17 18  1  0
 18 19  1  0
 19 20  1  0
 20 21  1  0
 14  5  1  0
 21 15  1  0
 14  8  1  0
M  END
