CVD-0001128|dock_bobby27042020.68|mol2|7|dock1
     RDKit          3D

 25 27  0  0  0  0  0  0  0  0999 V2000
   13.4763    5.6437   23.2442 O   0  0  0  0  0  0  0  0  0  0  0  0
   13.3923    4.5302   22.7299 N   0  0  0  0  0  0  0  0  0  0  0  0
   14.2806    4.0101   22.0764 O   0  0  0  0  0  0  0  0  0  0  0  0
   12.1437    3.7790   22.9144 C   0  0  0  0  0  0  0  0  0  0  0  0
   11.0202    4.4263   23.4012 C   0  0  0  0  0  0  0  0  0  0  0  0
    9.8487    3.7092   23.5701 C   0  0  0  0  0  0  0  0  0  0  0  0
    9.8010    2.3607   23.2570 C   0  0  0  0  0  0  0  0  0  0  0  0
   10.9294    1.7092   22.7711 C   0  0  0  0  0  0  0  0  0  0  0  0
   12.1066    2.4302   22.5982 C   0  0  0  0  0  0  0  0  0  0  0  0
   10.8960    0.3031   22.4318 N   0  0  0  0  0  0  0  0  0  0  0  0
    9.8901   -0.2972   21.6312 C   0  0  0  0  0  0  0  0  0  0  0  0
    9.8361   -1.5177   21.5555 O   0  0  0  0  0  0  0  0  0  0  0  0
    8.9980    0.5106   20.9640 N   0  0  0  0  0  0  0  0  0  0  0  0
    7.8987    0.1684   20.1337 C   0  0  0  0  0  0  0  0  0  0  0  0
    7.8194   -0.9632   19.3254 C   0  0  0  0  0  0  0  0  0  0  0  0
    6.6805   -1.1795   18.5686 C   0  0  0  0  0  0  0  0  0  0  0  0
    5.6562   -0.2638   18.6315 C   0  0  0  0  0  0  0  0  0  0  0  0
    5.7039    0.8315   19.3887 N   0  0  0  0  0  0  0  0  0  0  0  0
    6.8062    1.0287   20.1174 C   0  0  0  0  0  0  0  0  0  0  0  0
   12.0069   -0.4669   22.9546 C   0  0  0  0  0  0  0  0  0  0  0  0
   12.5259   -0.2346   24.2248 C   0  0  0  0  0  0  0  0  0  0  0  0
   13.5832   -0.9911   24.7024 C   0  0  0  0  0  0  0  0  0  0  0  0
   14.1430   -1.9774   23.9212 C   0  0  0  0  0  0  0  0  0  0  0  0
   13.6448   -2.2109   22.6587 C   0  0  0  0  0  0  0  0  0  0  0  0
   12.5831   -1.4650   22.1747 C   0  0  0  0  0  0  0  0  0  0  0  0
  1  2  1  0
  2  3  2  0
  2  4  1  0
  4  5  2  0
  5  6  1  0
  6  7  2  0
  7  8  1  0
  8  9  2  0
  8 10  1  0
 10 11  1  0
 11 12  2  0
 11 13  1  0
 13 14  1  0
 14 15  2  0
 15 16  1  0
 16 17  2  0
 17 18  1  0
 18 19  2  0
 10 20  1  0
 20 21  2  0
 21 22  1  0
 22 23  2  0
 23 24  1  0
 24 25  2  0
  9  4  1  0
 19 14  1  0
 25 20  1  0
M  CHG  2   1  -1   2   1
M  END
