CVD-0001776|dock_bobby27042020.22|mol2|42|dock2
     RDKit          3D

 21 23  0  0  0  0  0  0  0  0999 V2000
    8.3823   -0.1255   23.3088 O   0  0  0  0  0  0  0  0  0  0  0  0
    9.1067   -1.0991   22.5567 C   0  0  0  0  0  0  0  0  0  0  0  0
    8.2016   -2.1535   21.9459 C   0  0  0  0  0  0  0  0  0  0  0  0
    7.5054   -1.6002   20.7348 C   0  0  0  0  0  0  0  0  0  0  0  0
    6.3510   -2.1987   20.2038 C   0  0  0  0  0  0  0  0  0  0  0  0
    5.8135   -3.3161   20.7708 O   0  0  0  0  0  0  0  0  0  0  0  0
    5.7112   -1.6844   19.0874 C   0  0  0  0  0  0  0  0  0  0  0  0
    6.2117   -0.5502   18.4676 C   0  0  0  0  0  0  0  0  0  0  0  0
    5.5829   -0.0436   17.3682 O   0  0  0  0  0  0  0  0  0  0  0  0
    7.3487    0.0705   18.9602 C   0  0  0  0  0  0  0  0  0  0  0  0
    7.9735   -0.4585   20.0763 C   0  0  0  0  0  0  0  0  0  0  0  0
    9.0980    0.2228   20.5015 O   0  0  0  0  0  0  0  0  0  0  0  0
    9.9478   -0.4454   21.4593 C   0  0  0  0  0  0  0  0  0  0  0  0
   10.9245    0.5697   21.9930 C   0  0  0  0  0  0  0  0  0  0  0  0
   12.1761    0.1790   22.4505 C   0  0  0  0  0  0  0  0  0  0  0  0
   13.0753    1.1068   22.9447 C   0  0  0  0  0  0  0  0  0  0  0  0
   12.7246    2.4498   22.9863 C   0  0  0  0  0  0  0  0  0  0  0  0
   13.5933    3.3766   23.4674 O   0  0  0  0  0  0  0  0  0  0  0  0
   11.4685    2.8503   22.5297 C   0  0  0  0  0  0  0  0  0  0  0  0
   11.1325    4.1657   22.5742 O   0  0  0  0  0  0  0  0  0  0  0  0
   10.5760    1.9124   22.0370 C   0  0  0  0  0  0  0  0  0  0  0  0
  1  2  1  0
  2  3  1  0
  3  4  1  0
  4  5  2  0
  5  6  1  0
  5  7  1  0
  7  8  2  0
  8  9  1  0
  8 10  1  0
 10 11  2  0
 11 12  1  0
 12 13  1  0
 13 14  1  0
 14 15  2  0
 15 16  1  0
 16 17  2  0
 17 18  1  0
 17 19  1  0
 19 20  1  0
 19 21  2  0
 13  2  1  0
 21 14  1  0
 11  4  1  0
M  END
