CVD-0002562|dock_bobby27042020.48|mol2|12|dock3
     RDKit          3D

 17 18  0  0  0  0  0  0  0  0999 V2000
   13.9958   -2.8242   23.2983 C   0  0  0  0  0  0  0  0  0  0  0  0
   13.6424   -1.3906   23.6300 C   0  0  0  0  0  0  0  0  0  0  0  0
   12.2965   -0.9328   23.0861 C   0  0  0  0  0  0  0  0  0  0  0  0
   11.8633    0.4945   23.3734 C   0  0  0  0  0  0  0  0  0  0  0  0
   12.8776    1.5130   22.9290 C   0  0  0  0  0  0  0  0  0  0  0  0
   12.3033    2.8970   22.7736 C   0  0  0  0  0  0  0  0  0  0  0  0
   13.1316    4.0058   22.5362 C   0  0  0  0  0  0  0  0  0  0  0  0
   14.4944    3.8968   22.4700 O   0  0  0  0  0  0  0  0  0  0  0  0
   12.5869    5.2874   22.4540 C   0  0  0  0  0  0  0  0  0  0  0  0
   13.4174    6.3496   22.2881 O   0  0  0  0  0  0  0  0  0  0  0  0
   11.2214    5.4810   22.6056 C   0  0  0  0  0  0  0  0  0  0  0  0
   10.4087    4.3879   22.8391 C   0  0  0  0  0  0  0  0  0  0  0  0
   10.9390    3.1001   22.9239 C   0  0  0  0  0  0  0  0  0  0  0  0
   10.0019    1.9257   23.0922 C   0  0  0  0  0  0  0  0  0  0  0  0
    8.7073    2.0647   22.3038 C   0  0  0  0  0  0  0  0  0  0  0  0
    8.0495    0.7639   22.0491 N   0  0  0  0  0  0  0  0  0  0  0  0
   10.6205    0.7018   22.6861 O   0  0  0  0  0  0  0  0  0  0  0  0
  1  2  1  0
  2  3  1  0
  3  4  1  0
  4  5  1  0
  5  6  1  0
  6  7  2  0
  7  8  1  0
  7  9  1  0
  9 10  1  0
  9 11  2  0
 11 12  1  0
 12 13  2  0
 13 14  1  0
 14 15  1  0
 15 16  1  0
 14 17  1  0
 17  4  1  0
 13  6  1  0
M  END
