CVD-0002984|dock_bobby27042020.89|mol2|25|dock1
     RDKit          3D

 30 33  0  0  0  0  0  0  0  0999 V2000
    4.3309   -6.5757   25.0182 N   0  0  0  0  0  0  0  0  0  0  0  0
    5.5220   -6.0419   25.2393 C   0  0  0  0  0  0  0  0  0  0  0  0
    6.4173   -6.6407   25.8394 O   0  0  0  0  0  0  0  0  0  0  0  0
    5.7441   -4.6410   24.7053 C   0  0  0  0  0  0  0  0  0  0  0  0
    5.4416   -4.5207   23.2104 C   0  0  0  0  0  0  0  0  0  0  0  0
    6.2169   -3.2733   22.7722 C   0  0  0  0  0  0  0  0  0  0  0  0
    7.5516   -3.4441   23.4942 C   0  0  0  0  0  0  0  0  0  0  0  0
    8.3816   -2.1583   23.5857 C   0  0  0  0  0  0  0  0  0  0  0  0
    8.8418   -1.5055   22.2710 C   0  0  0  0  0  0  0  0  0  0  0  0
    7.6592   -1.0177   21.5654 N   0  0  0  0  0  0  0  0  0  0  0  0
    7.5014   -1.1207   20.2441 C   0  0  0  0  0  0  0  0  0  0  0  0
    8.3317   -1.6330   19.4998 O   0  0  0  0  0  0  0  0  0  0  0  0
    6.1970   -0.5588   19.7229 C   0  0  0  0  0  0  0  0  0  0  0  0
    5.7640   -1.1960   18.1311 Cl  0  0  0  0  0  0  0  0  0  0  0  0
    9.8873   -0.4125   22.4607 C   0  0  0  0  0  0  0  0  0  0  0  0
    9.5796    0.9173   22.3180 C   0  0  0  0  0  0  0  0  0  0  0  0
   10.5293    1.9085   22.4974 C   0  0  0  0  0  0  0  0  0  0  0  0
   11.8141    1.5943   22.8221 C   0  0  0  0  0  0  0  0  0  0  0  0
   12.2055    0.2432   22.9744 C   0  0  0  0  0  0  0  0  0  0  0  0
   13.5315   -0.1254   23.3063 C   0  0  0  0  0  0  0  0  0  0  0  0
   13.8795   -1.4365   23.4377 C   0  0  0  0  0  0  0  0  0  0  0  0
   12.9464   -2.4332   23.2484 C   0  0  0  0  0  0  0  0  0  0  0  0
   11.6568   -2.1277   22.9299 C   0  0  0  0  0  0  0  0  0  0  0  0
   11.2310   -0.7815   22.7856 C   0  0  0  0  0  0  0  0  0  0  0  0
    7.1838   -3.9734   24.8907 C   0  0  0  0  0  0  0  0  0  0  0  0
    8.3234   -4.7364   25.5248 C   0  0  0  0  0  0  0  0  0  0  0  0
    8.9159   -4.3718   26.7684 C   0  0  0  0  0  0  0  0  0  0  0  0
    9.9336   -5.1891   27.1592 C   0  0  0  0  0  0  0  0  0  0  0  0
   10.1724   -6.4115   26.0039 S   0  0  0  0  0  0  0  0  0  0  0  0
    8.9257   -5.8407   24.9988 C   0  0  0  0  0  0  0  0  0  0  0  0
  1  2  1  0
  2  3  2  0
  2  4  1  0
  4  5  1  0
  5  6  1  0
  6  7  1  0
  7  8  1  0
  8  9  1  0
  9 10  1  0
 10 11  1  0
 11 12  2  0
 11 13  1  0
 13 14  1  0
  9 15  1  0
 15 16  2  0
 16 17  1  0
 17 18  2  0
 18 19  1  0
 19 20  2  0
 20 21  1  0
 21 22  2  0
 22 23  1  0
 23 24  2  0
  7 25  1  0
 25 26  1  0
 26 27  1  0
 27 28  2  0
 28 29  1  0
 29 30  1  0
 25  4  1  0
 30 26  2  0
 24 15  1  0
 24 19  1  0
M  END
