CVD-0003090|dock_bobby27042020.61|mol2|4|dock1
     RDKit          3D

 23 25  0  0  0  0  0  0  0  0999 V2000
   10.8543    5.3213   22.5475 N   0  0  0  0  0  0  0  0  0  0  0  0
   12.3615    4.7902   22.6435 S   0  0  0  0  0  0  0  0  0  0  0  0
   13.0035    5.1118   21.4043 O   0  0  0  0  0  0  0  0  0  0  0  0
   12.9141    5.3015   23.8618 O   0  0  0  0  0  0  0  0  0  0  0  0
   12.3269    3.0284   22.7782 C   0  0  0  0  0  0  0  0  0  0  0  0
   13.5076    2.3121   22.6769 C   0  0  0  0  0  0  0  0  0  0  0  0
   13.4622    0.9338   22.7478 C   0  0  0  0  0  0  0  0  0  0  0  0
   12.2595    0.2577   22.9181 C   0  0  0  0  0  0  0  0  0  0  0  0
   12.2279   -1.2412   23.0953 C   0  0  0  0  0  0  0  0  0  0  0  0
   10.8788   -1.8056   22.7020 C   0  0  0  0  0  0  0  0  0  0  0  0
    9.7733   -1.0726   23.4408 C   0  0  0  0  0  0  0  0  0  0  0  0
    9.8234    0.3500   23.1286 N   0  0  0  0  0  0  0  0  0  0  0  0
    8.5894    1.1201   23.2877 C   0  0  0  0  0  0  0  0  0  0  0  0
    8.0310    1.6552   21.9796 C   0  0  0  0  0  0  0  0  0  0  0  0
    7.2621    0.6517   21.2315 N   0  0  0  0  0  0  0  0  0  0  0  0
    8.0779    0.0567   20.1662 C   0  0  0  0  0  0  0  0  0  0  0  0
    7.3226   -1.0215   19.4143 C   0  0  0  0  0  0  0  0  0  0  0  0
    6.0093   -0.5191   18.8268 C   0  0  0  0  0  0  0  0  0  0  0  0
    5.2164   -1.5444   18.2224 O   0  0  0  0  0  0  0  0  0  0  0  0
    5.2262    0.1834   19.9304 C   0  0  0  0  0  0  0  0  0  0  0  0
    6.0540    1.2383   20.6454 C   0  0  0  0  0  0  0  0  0  0  0  0
   11.0615    0.9957   23.0202 C   0  0  0  0  0  0  0  0  0  0  0  0
   11.1094    2.3866   22.9484 C   0  0  0  0  0  0  0  0  0  0  0  0
  1  2  1  0
  2  3  2  0
  2  4  2  0
  2  5  1  0
  5  6  2  0
  6  7  1  0
  7  8  2  0
  8  9  1  0
  9 10  1  0
 10 11  1  0
 11 12  1  0
 12 13  1  0
 13 14  1  0
 14 15  1  0
 15 16  1  0
 16 17  1  0
 17 18  1  0
 18 19  1  0
 18 20  1  0
 20 21  1  0
 12 22  1  0
 22 23  2  0
 23  5  1  0
 22  8  1  0
 21 15  1  0
M  END
