CVD-0000755|dock_bobby27042020.55|mol2|4|dock3
     RDKit          3D

 18 20  0  0  0  0  0  0  0  0999 V2000
    9.2604   -1.8113   23.9592 O   0  0  0  0  0  0  0  0  0  0  0  0
    9.5179   -1.9816   22.7720 C   0  0  0  0  0  0  0  0  0  0  0  0
    8.5240   -2.6741   21.8636 C   0  0  0  0  0  0  0  0  0  0  0  0
    7.7249   -1.7155   21.0342 C   0  0  0  0  0  0  0  0  0  0  0  0
    6.4513   -1.2619   21.2176 C   0  0  0  0  0  0  0  0  0  0  0  0
    6.1638   -0.3632   20.1431 C   0  0  0  0  0  0  0  0  0  0  0  0
    5.0846    0.4297   19.7257 C   0  0  0  0  0  0  0  0  0  0  0  0
    5.2046    1.1948   18.5763 C   0  0  0  0  0  0  0  0  0  0  0  0
    6.3881    1.1570   17.8680 C   0  0  0  0  0  0  0  0  0  0  0  0
    7.4519    0.4188   18.2184 N   0  0  0  0  0  0  0  0  0  0  0  0
    7.3207   -0.3175   19.3348 C   0  0  0  0  0  0  0  0  0  0  0  0
    8.2523   -1.1461   19.8968 N   0  0  0  0  0  0  0  0  0  0  0  0
   10.6805   -1.5977   22.1610 N   0  0  0  0  0  0  0  0  0  0  0  0
   11.8021   -0.9480   22.7234 C   0  0  0  0  0  0  0  0  0  0  0  0
   12.9460   -1.6122   23.2787 C   0  0  0  0  0  0  0  0  0  0  0  0
   13.8839   -0.7452   23.7534 C   0  0  0  0  0  0  0  0  0  0  0  0
   13.3789    0.8585   23.5262 S   0  0  0  0  0  0  0  0  0  0  0  0
   11.9150    0.3972   22.7975 C   0  0  0  0  0  0  0  0  0  0  0  0
  1  2  2  0
  2  3  1  0
  3  4  1  0
  4  5  2  0
  5  6  1  0
  6  7  2  0
  7  8  1  0
  8  9  2  0
  9 10  1  0
 10 11  2  0
 11 12  1  0
  2 13  1  0
 13 14  1  0
 14 15  1  0
 15 16  2  0
 16 17  1  0
 17 18  1  0
 12  4  1  0
 18 14  2  0
 11  6  1  0
M  END
