CVD-0002229|dock_bobby27042020.35|mol2|13|dock1
     RDKit          3D

 19 20  0  0  0  0  0  0  0  0999 V2000
   13.8185   -2.4215   25.6931 C   0  0  0  0  0  0  0  0  0  0  0  0
   12.8265   -2.6259   24.5861 C   0  0  0  0  0  0  0  0  0  0  0  0
   12.3168   -3.7223   24.3832 O   0  0  0  0  0  0  0  0  0  0  0  0
   12.4994   -1.5543   23.8228 N   0  0  0  0  0  0  0  0  0  0  0  0
   11.5309   -1.6887   22.7471 C   0  0  0  0  0  0  0  0  0  0  0  0
   10.4569   -0.6543   22.8721 C   0  0  0  0  0  0  0  0  0  0  0  0
   11.0768    0.6777   22.9131 N   0  0  0  0  0  0  0  0  0  0  0  0
   11.9913    0.8189   24.0558 C   0  0  0  0  0  0  0  0  0  0  0  0
   13.0757   -0.2115   23.9448 C   0  0  0  0  0  0  0  0  0  0  0  0
   10.1376    1.9487   22.5125 S   0  0  0  0  0  0  0  0  0  0  0  0
    9.1205    2.0324   23.5142 O   0  0  0  0  0  0  0  0  0  0  0  0
    9.7735    1.7695   21.1413 O   0  0  0  0  0  0  0  0  0  0  0  0
   11.1371    3.3920   22.6279 C   0  0  0  0  0  0  0  0  0  0  0  0
   12.4215    3.3789   22.1078 C   0  0  0  0  0  0  0  0  0  0  0  0
   13.2009    4.5200   22.1977 C   0  0  0  0  0  0  0  0  0  0  0  0
   12.7040    5.6638   22.7994 C   0  0  0  0  0  0  0  0  0  0  0  0
   11.4299    5.6320   23.2972 C   0  0  0  0  0  0  0  0  0  0  0  0
   10.9379    6.7541   23.8883 F   0  0  0  0  0  0  0  0  0  0  0  0
   10.6176    4.5265   23.2329 C   0  0  0  0  0  0  0  0  0  0  0  0
  1  2  1  0
  2  3  2  0
  2  4  1  0
  4  5  1  0
  5  6  1  0
  6  7  1  0
  7  8  1  0
  8  9  1  0
  7 10  1  0
 10 11  2  0
 10 12  2  0
 10 13  1  0
 13 14  2  0
 14 15  1  0
 15 16  2  0
 16 17  1  0
 17 18  1  0
 17 19  2  0
  9  4  1  0
 19 13  1  0
M  END
