CVD-0002757|dock_bobby27042020.18|mol2|40|dock3
     RDKit          3D

 20 22  0  0  0  0  0  0  0  0999 V2000
   11.0183   -1.8513   21.4432 N   0  0  0  0  0  0  0  0  0  0  0  0
   12.1726   -1.6400   22.0560 C   0  0  0  0  0  0  0  0  0  0  0  0
   13.1917   -1.2949   21.4539 O   0  0  0  0  0  0  0  0  0  0  0  0
   12.1874   -1.8522   23.5564 C   0  0  0  0  0  0  0  0  0  0  0  0
   13.4871   -2.5292   24.0216 C   0  0  0  0  0  0  0  0  0  0  0  0
   14.0153   -1.6724   25.1705 C   0  0  0  0  0  0  0  0  0  0  0  0
   13.9685   -2.3683   26.4190 O   0  0  0  0  0  0  0  0  0  0  0  0
   13.2057   -0.5858   25.2984 C   0  0  0  0  0  0  0  0  0  0  0  0
   12.0576   -0.5482   24.4164 C   0  0  0  0  0  0  0  0  0  0  0  0
   11.9224    0.7442   23.6473 C   0  0  0  0  0  0  0  0  0  0  0  0
   12.9156    1.2960   22.8929 C   0  0  0  0  0  0  0  0  0  0  0  0
   12.4315    2.7612   22.1473 S   0  0  0  0  0  0  0  0  0  0  0  0
   10.8638    2.6632   22.8349 C   0  0  0  0  0  0  0  0  0  0  0  0
   10.7441    1.5431   23.6028 C   0  0  0  0  0  0  0  0  0  0  0  0
    9.8843    3.7086   22.5532 C   0  0  0  0  0  0  0  0  0  0  0  0
   10.2182    5.0540   22.5765 C   0  0  0  0  0  0  0  0  0  0  0  0
    9.3212    6.0093   22.3186 N   0  0  0  0  0  0  0  0  0  0  0  0
    8.0834    5.6026   22.0364 C   0  0  0  0  0  0  0  0  0  0  0  0
    7.7443    4.2648   22.0115 C   0  0  0  0  0  0  0  0  0  0  0  0
    8.6385    3.3024   22.2690 N   0  0  0  0  0  0  0  0  0  0  0  0
  1  2  1  0
  2  3  2  0
  4  2  1  0
  4  5  1  0
  5  6  1  0
  6  7  1  0
  6  8  1  0
  8  9  1  0
  9 10  1  0
 10 11  2  0
 11 12  1  0
 12 13  1  0
 13 14  2  0
 13 15  1  0
 15 16  2  0
 16 17  1  0
 17 18  2  0
 18 19  1  0
 19 20  2  0
  9  4  1  0
 14 10  1  0
 20 15  1  0
M  END
