CVD-0002685|dock_bobby27042020.19|mol2|4|dock1
     RDKit          3D

 28 30  0  0  0  0  0  0  0  0999 V2000
    4.7274   -6.7191   24.9044 C   0  0  0  0  0  0  0  0  0  0  0  0
    5.7164   -6.0638   24.0501 N   0  0  0  0  0  0  0  0  0  0  0  0
    5.7672   -4.6267   24.3339 C   0  0  0  0  0  0  0  0  0  0  0  0
    6.8238   -3.9584   23.4740 C   0  0  0  0  0  0  0  0  0  0  0  0
    6.5454   -4.1841   22.0539 N   0  0  0  0  0  0  0  0  0  0  0  0
    6.4289   -5.6134   21.7484 C   0  0  0  0  0  0  0  0  0  0  0  0
    5.3852   -6.2599   22.6411 C   0  0  0  0  0  0  0  0  0  0  0  0
    6.4443   -3.1794   21.1596 C   0  0  0  0  0  0  0  0  0  0  0  0
    6.1319   -3.4001   19.9954 O   0  0  0  0  0  0  0  0  0  0  0  0
    6.7042   -1.7019   21.5125 C   0  0  0  0  0  0  0  0  0  0  0  0
    6.1057   -1.1152   22.3975 O   0  0  0  0  0  0  0  0  0  0  0  0
    7.7595   -0.9482   20.7042 C   0  0  0  0  0  0  0  0  0  0  0  0
    7.5621    0.5689   20.8551 C   0  0  0  0  0  0  0  0  0  0  0  0
    6.3304    1.0811   20.1486 C   0  0  0  0  0  0  0  0  0  0  0  0
    6.3116    1.2227   18.7697 C   0  0  0  0  0  0  0  0  0  0  0  0
    5.1806    1.6896   18.1210 C   0  0  0  0  0  0  0  0  0  0  0  0
    4.0546    2.0198   18.8442 C   0  0  0  0  0  0  0  0  0  0  0  0
    4.0596    1.8825   20.2156 C   0  0  0  0  0  0  0  0  0  0  0  0
    5.1908    1.4155   20.8638 C   0  0  0  0  0  0  0  0  0  0  0  0
    9.0928   -1.3514   21.1224 N   0  0  0  0  0  0  0  0  0  0  0  0
    9.4721   -1.3215   22.4052 C   0  0  0  0  0  0  0  0  0  0  0  0
    8.7330   -0.9558   23.3179 O   0  0  0  0  0  0  0  0  0  0  0  0
   10.8631   -1.7638   22.6672 C   0  0  0  0  0  0  0  0  0  0  0  0
   11.9376   -1.9328   21.7171 C   0  0  0  0  0  0  0  0  0  0  0  0
   12.9921   -2.3502   22.4752 C   0  0  0  0  0  0  0  0  0  0  0  0
   12.5785   -2.4304   23.7488 N   0  0  0  0  0  0  0  0  0  0  0  0
   13.3622   -2.8064   24.9193 C   0  0  0  0  0  0  0  0  0  0  0  0
   11.2763   -2.0680   23.9139 N   0  0  0  0  0  0  0  0  0  0  0  0
  1  2  1  0
  2  3  1  0
  3  4  1  0
  4  5  1  0
  5  6  1  0
  6  7  1  0
  5  8  1  0
  8  9  2  0
  8 10  1  0
 10 11  2  0
 10 12  1  0
 12 13  1  0
 13 14  1  0
 14 15  2  0
 15 16  1  0
 16 17  2  0
 17 18  1  0
 18 19  2  0
 12 20  1  0
 20 21  1  0
 21 22  2  0
 21 23  1  0
 23 24  1  0
 24 25  2  0
 25 26  1  0
 26 27  1  0
 26 28  1  0
  7  2  1  0
 19 14  1  0
 28 23  2  0
M  END
