CVD-0000640|dock_bobby27042020.40|mol2|47|dock2
     RDKit          3D

 18 19  0  0  0  0  0  0  0  0999 V2000
    5.5344   -2.1092   18.1437 O   0  0  0  0  0  0  0  0  0  0  0  0
    6.0859   -0.9534   18.4064 C   0  0  0  0  0  0  0  0  0  0  0  0
    5.9650    0.0265   17.6918 O   0  0  0  0  0  0  0  0  0  0  0  0
    6.8861   -0.9208   19.6632 C   0  0  0  0  0  0  0  0  0  0  0  0
    6.7511   -1.9304   20.6093 C   0  0  0  0  0  0  0  0  0  0  0  0
    7.4889   -1.9090   21.7796 C   0  0  0  0  0  0  0  0  0  0  0  0
    8.3715   -0.8661   22.0090 C   0  0  0  0  0  0  0  0  0  0  0  0
    8.5216    0.1482   21.0775 C   0  0  0  0  0  0  0  0  0  0  0  0
    7.7785    0.1162   19.9109 C   0  0  0  0  0  0  0  0  0  0  0  0
    9.3177   -0.8351   23.4920 S   0  0  0  0  0  0  0  0  0  0  0  0
    8.9744    0.3515   24.2125 O   0  0  0  0  0  0  0  0  0  0  0  0
    9.1953   -2.1124   24.1232 O   0  0  0  0  0  0  0  0  0  0  0  0
   10.8827   -0.6786   23.0630 N   0  0  0  0  0  0  0  0  0  0  0  0
   11.5990    0.6189   23.1817 C   0  0  0  0  0  0  0  0  0  0  0  0
   12.9836    0.3768   23.6330 C   0  0  0  0  0  0  0  0  0  0  0  0
   13.7093   -0.6004   22.6993 C   0  0  0  0  0  0  0  0  0  0  0  0
   12.9268   -1.8739   22.5876 C   0  0  0  0  0  0  0  0  0  0  0  0
   11.5511   -1.6404   22.1631 C   0  0  0  0  0  0  0  0  0  0  0  0
  1  2  1  0
  2  3  2  0
  2  4  1  0
  4  5  2  0
  5  6  1  0
  6  7  2  0
  7  8  1  0
  8  9  2  0
  7 10  1  0
 10 11  2  0
 10 12  2  0
 10 13  1  0
 13 14  1  0
 14 15  1  0
 15 16  1  0
 16 17  1  0
 17 18  1  0
  9  4  1  0
 18 13  1  0
M  END
