CVD-0000464|dock_bobby27042020.56|mol2|3|dock3
     RDKit          3D

 22 23  0  0  0  0  0  0  0  0999 V2000
    6.9255   -6.5163   22.3605 C   0  0  0  0  0  0  0  0  0  0  0  0
    6.8311   -5.5353   21.2341 C   0  0  0  0  0  0  0  0  0  0  0  0
    6.2788   -4.2666   21.6786 N   0  0  0  0  0  0  0  0  0  0  0  0
    6.2814   -3.1632   20.9124 C   0  0  0  0  0  0  0  0  0  0  0  0
    5.8104   -3.3039   19.6573 N   0  0  0  0  0  0  0  0  0  0  0  0
    5.8092   -2.2281   18.8631 C   0  0  0  0  0  0  0  0  0  0  0  0
    6.2636   -0.9785   19.2654 C   0  0  0  0  0  0  0  0  0  0  0  0
    6.7412   -0.8464   20.5642 C   0  0  0  0  0  0  0  0  0  0  0  0
    6.7600   -1.9388   21.4244 C   0  0  0  0  0  0  0  0  0  0  0  0
    7.2794   -1.7488   22.8313 C   0  0  0  0  0  0  0  0  0  0  0  0
    8.6282   -1.1662   22.8703 N   0  0  0  0  0  0  0  0  0  0  0  0
    8.9483   -0.7044   24.2243 C   0  0  0  0  0  0  0  0  0  0  0  0
   10.3251   -0.0668   24.2499 C   0  0  0  0  0  0  0  0  0  0  0  0
   11.3380   -1.0179   23.7870 N   0  0  0  0  0  0  0  0  0  0  0  0
   11.0146   -1.5447   22.4575 C   0  0  0  0  0  0  0  0  0  0  0  0
    9.6232   -2.1514   22.4551 C   0  0  0  0  0  0  0  0  0  0  0  0
   12.4400   -1.3269   24.5104 C   0  0  0  0  0  0  0  0  0  0  0  0
   12.6512   -0.8149   25.6027 O   0  0  0  0  0  0  0  0  0  0  0  0
   13.4267   -2.3255   23.9359 C   0  0  0  0  0  0  0  0  0  0  0  0
   14.7991   -2.5678   25.0246 Cl  0  0  0  0  0  0  0  0  0  0  0  0
    6.2425    0.1501   18.3679 C   0  0  0  0  0  0  0  0  0  0  0  0
    6.2122    1.0245   17.6335 N   0  0  0  0  0  0  0  0  0  0  0  0
  1  2  1  0
  2  3  1  0
  3  4  1  0
  4  5  2  0
  5  6  1  0
  6  7  2  0
  7  8  1  0
  8  9  2  0
  9 10  1  0
 10 11  1  0
 11 12  1  0
 12 13  1  0
 13 14  1  0
 14 15  1  0
 15 16  1  0
 14 17  1  0
 17 18  2  0
 17 19  1  0
 19 20  1  0
  7 21  1  0
 21 22  3  0
  9  4  1  0
 16 11  1  0
M  END
