CVD-0000044|dock_bobby27042020.14|mol2|22|dock2
     RDKit          3D

 22 23  0  0  0  0  0  0  0  0999 V2000
    3.9696    1.3140   20.5722 C   0  0  0  0  0  0  0  0  0  0  0  0
    4.7639    1.0390   19.3218 C   0  0  0  0  0  0  0  0  0  0  0  0
    4.9019    2.0411   18.3656 C   0  0  0  0  0  0  0  0  0  0  0  0
    5.6242    1.7998   17.2153 C   0  0  0  0  0  0  0  0  0  0  0  0
    6.2226    0.6349   16.9393 N   0  0  0  0  0  0  0  0  0  0  0  0
    6.0972   -0.3131   17.8315 C   0  0  0  0  0  0  0  0  0  0  0  0
    6.7230   -1.4467   17.4820 F   0  0  0  0  0  0  0  0  0  0  0  0
    5.3793   -0.1907   19.0568 C   0  0  0  0  0  0  0  0  0  0  0  0
    5.2562   -1.2550   20.0248 N   0  0  0  0  0  0  0  0  0  0  0  0
    5.8876   -2.7472   19.9140 S   0  0  0  0  0  0  0  0  0  0  0  0
    5.2823   -3.5431   20.9406 O   0  0  0  0  0  0  0  0  0  0  0  0
    5.7768   -3.1558   18.5447 O   0  0  0  0  0  0  0  0  0  0  0  0
    7.5998   -2.6169   20.2884 C   0  0  0  0  0  0  0  0  0  0  0  0
    8.1509   -1.4228   20.5685 C   0  0  0  0  0  0  0  0  0  0  0  0
    9.4926   -1.1523   20.8802 N   0  0  0  0  0  0  0  0  0  0  0  0
   10.0071   -0.4292   21.9117 C   0  0  0  0  0  0  0  0  0  0  0  0
    9.3120    0.1192   22.7643 O   0  0  0  0  0  0  0  0  0  0  0  0
   11.4763   -0.3153   21.9846 C   0  0  0  0  0  0  0  0  0  0  0  0
   12.4681   -1.2320   21.7076 C   0  0  0  0  0  0  0  0  0  0  0  0
   13.7541   -0.6795   21.9199 C   0  0  0  0  0  0  0  0  0  0  0  0
   13.7263    0.5970   22.3381 C   0  0  0  0  0  0  0  0  0  0  0  0
   12.1320    1.1863   22.4931 S   0  0  0  0  0  0  0  0  0  0  0  0
  1  2  1  0
  2  3  2  0
  3  4  1  0
  4  5  2  0
  5  6  1  0
  6  7  1  0
  6  8  2  0
  8  9  1  0
  9 10  1  0
 10 11  2  0
 10 12  2  0
 10 13  1  0
 13 14  2  0
 14 15  1  0
 15 16  1  0
 16 17  2  0
 16 18  1  0
 18 19  2  0
 19 20  1  0
 20 21  2  0
 21 22  1  0
  8  2  1  0
 22 18  1  0
M  END
