CVD-0002288|dock_bobby27042020.35|mol2|4|dock3
     RDKit          3D

 40 43  0  0  0  0  0  0  0  0999 V2000
   13.5603    5.0722   22.0264 C   0  0  0  0  0  0  0  0  0  0  0  0
   12.1299    4.8187   21.8350 N   0  0  0  0  0  0  0  0  0  0  0  0
   11.3267    4.9179   23.0584 C   0  0  0  0  0  0  0  0  0  0  0  0
    9.8557    4.7651   22.7730 C   0  0  0  0  0  0  0  0  0  0  0  0
    8.9826    5.8120   22.4271 C   0  0  0  0  0  0  0  0  0  0  0  0
    7.7060    5.3172   22.2399 C   0  0  0  0  0  0  0  0  0  0  0  0
    6.5124    6.1167   21.8735 C   0  0  0  0  0  0  0  0  0  0  0  0
    6.7158    7.2008   21.0178 C   0  0  0  0  0  0  0  0  0  0  0  0
    5.6525    7.9706   20.5771 C   0  0  0  0  0  0  0  0  0  0  0  0
    4.3685    7.6820   20.9823 C   0  0  0  0  0  0  0  0  0  0  0  0
    4.1391    6.6383   21.8607 C   0  0  0  0  0  0  0  0  0  0  0  0
    5.2114    5.9033   22.3082 C   0  0  0  0  0  0  0  0  0  0  0  0
    4.9529    4.9481   23.2275 F   0  0  0  0  0  0  0  0  0  0  0  0
    7.7940    3.9145   22.4536 N   0  0  0  0  0  0  0  0  0  0  0  0
    9.1064    3.5975   22.7821 C   0  0  0  0  0  0  0  0  0  0  0  0
    6.6423    2.6726   22.3552 S   0  0  0  0  0  0  0  0  0  0  0  0
    6.2622    2.3195   23.6875 O   0  0  0  0  0  0  0  0  0  0  0  0
    5.6468    3.1604   21.4519 O   0  0  0  0  0  0  0  0  0  0  0  0
    7.4455    1.3164   21.5721 C   0  0  0  0  0  0  0  0  0  0  0  0
    7.3302    1.1476   20.2034 C   0  0  0  0  0  0  0  0  0  0  0  0
    7.9616    0.0697   19.6089 C   0  0  0  0  0  0  0  0  0  0  0  0
    8.6967   -0.8245   20.3695 C   0  0  0  0  0  0  0  0  0  0  0  0
    8.8233   -0.6510   21.7435 C   0  0  0  0  0  0  0  0  0  0  0  0
    8.1810    0.4288   22.3420 C   0  0  0  0  0  0  0  0  0  0  0  0
    9.5807   -1.5461   22.5722 N   0  0  0  0  0  0  0  0  0  0  0  0
   10.9198   -1.0464   22.9878 C   0  0  0  0  0  0  0  0  0  0  0  0
   12.0441   -1.8101   22.3039 C   0  0  0  0  0  0  0  0  0  0  0  0
   11.0809   -1.0118   24.5013 C   0  0  0  0  0  0  0  0  0  0  0  0
    9.1860   -2.8085   22.9650 C   0  0  0  0  0  0  0  0  0  0  0  0
    9.9212   -3.5058   23.6345 O   0  0  0  0  0  0  0  0  0  0  0  0
    7.8352   -3.3803   22.5543 C   0  0  0  0  0  0  0  0  0  0  0  0
    6.8014   -3.1794   23.6554 C   0  0  0  0  0  0  0  0  0  0  0  0
    5.4720   -3.7850   23.2548 C   0  0  0  0  0  0  0  0  0  0  0  0
    5.6406   -5.2047   22.9561 N   0  0  0  0  0  0  0  0  0  0  0  0
    6.5834   -5.4442   21.8689 C   0  0  0  0  0  0  0  0  0  0  0  0
    7.9491   -4.8674   22.2264 C   0  0  0  0  0  0  0  0  0  0  0  0
    4.8387   -6.2045   23.3934 C   0  0  0  0  0  0  0  0  0  0  0  0
    5.0613   -7.3742   23.1068 O   0  0  0  0  0  0  0  0  0  0  0  0
    3.6384   -5.8479   24.2494 C   0  0  0  0  0  0  0  0  0  0  0  0
    2.6435   -7.2750   24.5674 Cl  0  0  0  0  0  0  0  0  0  0  0  0
  1  2  1  0
  2  3  1  0
  3  4  1  0
  4  5  1  0
  5  6  2  0
  6  7  1  0
  7  8  2  0
  8  9  1  0
  9 10  2  0
 10 11  1  0
 11 12  2  0
 12 13  1  0
  6 14  1  0
 14 15  1  0
 14 16  1  0
 16 17  2  0
 16 18  2  0
 16 19  1  0
 19 20  2  0
 20 21  1  0
 21 22  2  0
 22 23  1  0
 23 24  2  0
 23 25  1  0
 25 26  1  0
 26 27  1  0
 26 28  1  0
 25 29  1  0
 29 30  2  0
 29 31  1  0
 31 32  1  0
 32 33  1  0
 33 34  1  0
 34 35  1  0
 35 36  1  0
 34 37  1  0
 37 38  2  0
 37 39  1  0
 39 40  1  0
 15  4  2  0
 24 19  1  0
 36 31  1  0
 12  7  1  0
M  END
