CVD-0003492|dock_bobby27042020.73|mol2|35|dock1
     RDKit          3D

 30 31  0  0  0  0  0  0  0  0999 V2000
   14.0710    5.4546   21.9450 C   0  0  0  0  0  0  0  0  0  0  0  0
   12.8359    4.9645   22.5466 N   0  0  0  0  0  0  0  0  0  0  0  0
   12.5045    5.7781   23.7106 C   0  0  0  0  0  0  0  0  0  0  0  0
   12.9589    3.5582   22.9235 C   0  0  0  0  0  0  0  0  0  0  0  0
   11.6537    2.7955   22.8145 C   0  0  0  0  0  0  0  0  0  0  0  0
   11.8506    1.4173   23.2345 N   0  0  0  0  0  0  0  0  0  0  0  0
   11.0426    0.3612   22.8748 C   0  0  0  0  0  0  0  0  0  0  0  0
    9.7542    0.5903   22.3989 C   0  0  0  0  0  0  0  0  0  0  0  0
    8.8598   -0.4405   22.1170 C   0  0  0  0  0  0  0  0  0  0  0  0
    7.5520   -0.1666   21.6899 N   0  0  0  0  0  0  0  0  0  0  0  0
    7.0257    0.3583   20.5449 C   0  0  0  0  0  0  0  0  0  0  0  0
    7.7980    0.3979   19.4483 N   0  0  0  0  0  0  0  0  0  0  0  0
    7.2212    0.9186   18.3579 C   0  0  0  0  0  0  0  0  0  0  0  0
    5.9241    1.3904   18.3256 C   0  0  0  0  0  0  0  0  0  0  0  0
    5.2099    1.3012   19.5144 C   0  0  0  0  0  0  0  0  0  0  0  0
    5.7554    0.7859   20.6250 N   0  0  0  0  0  0  0  0  0  0  0  0
    3.7848    1.7736   19.6368 C   0  0  0  0  0  0  0  0  0  0  0  0
    3.1261    1.5777   20.7735 N   0  0  0  0  0  0  0  0  0  0  0  0
    3.2599    2.3357   18.6690 O   0  0  0  0  0  0  0  0  0  0  0  0
    9.2822   -1.7707   22.2831 C   0  0  0  0  0  0  0  0  0  0  0  0
    8.3879   -2.8329   21.9808 N   0  0  0  0  0  0  0  0  0  0  0  0
    8.2739   -4.0697   22.5229 C   0  0  0  0  0  0  0  0  0  0  0  0
    8.9736   -4.5197   23.4408 O   0  0  0  0  0  0  0  0  0  0  0  0
    7.1932   -4.8707   21.9046 C   0  0  0  0  0  0  0  0  0  0  0  0
    7.1859   -6.1769   21.9390 C   0  0  0  0  0  0  0  0  0  0  0  0
   10.5831   -1.9996   22.7280 C   0  0  0  0  0  0  0  0  0  0  0  0
   11.4803   -0.9696   22.9926 C   0  0  0  0  0  0  0  0  0  0  0  0
   12.8281   -1.2772   23.3674 N   0  0  0  0  0  0  0  0  0  0  0  0
   13.7698   -1.7059   22.3457 C   0  0  0  0  0  0  0  0  0  0  0  0
   13.1730   -1.4605   24.7688 C   0  0  0  0  0  0  0  0  0  0  0  0
  1  2  1  0
  2  3  1  0
  2  4  1  0
  4  5  1  0
  5  6  1  0
  6  7  1  0
  7  8  2  0
  8  9  1  0
  9 10  1  0
 10 11  1  0
 11 12  2  0
 12 13  1  0
 13 14  2  0
 14 15  1  0
 15 16  2  0
 15 17  1  0
 17 18  1  0
 17 19  2  0
  9 20  2  0
 20 21  1  0
 21 22  1  0
 22 23  2  0
 22 24  1  0
 24 25  2  0
 20 26  1  0
 26 27  2  0
 27 28  1  0
 28 29  1  0
 28 30  1  0
 27  7  1  0
 16 11  1  0
M  END
