CVD-0001478|dock_bobby27042020.52|mol2|30|dock1
     RDKit          3D

 20 21  0  0  0  0  0  0  0  0999 V2000
   13.5777   -1.6152   21.4998 C   0  0  0  0  0  0  0  0  0  0  0  0
   13.5769   -1.6186   22.9964 C   0  0  0  0  0  0  0  0  0  0  0  0
   12.5301   -0.7625   23.5302 N   0  0  0  0  0  0  0  0  0  0  0  0
   12.3859    0.5680   23.2026 C   0  0  0  0  0  0  0  0  0  0  0  0
   13.5017    1.3372   22.8669 C   0  0  0  0  0  0  0  0  0  0  0  0
   13.3651    2.6783   22.5556 C   0  0  0  0  0  0  0  0  0  0  0  0
   12.1164    3.2306   22.5823 C   0  0  0  0  0  0  0  0  0  0  0  0
   11.9773    4.5505   22.2837 F   0  0  0  0  0  0  0  0  0  0  0  0
   10.9932    2.5107   22.8971 C   0  0  0  0  0  0  0  0  0  0  0  0
   11.1098    1.1597   23.2062 C   0  0  0  0  0  0  0  0  0  0  0  0
    9.8535    0.3823   23.5308 C   0  0  0  0  0  0  0  0  0  0  0  0
    9.4613   -0.5533   22.4658 N   0  0  0  0  0  0  0  0  0  0  0  0
    8.5265   -1.5568   22.9835 C   0  0  0  0  0  0  0  0  0  0  0  0
    8.1572   -2.5435   21.8914 C   0  0  0  0  0  0  0  0  0  0  0  0
    7.5667   -1.8440   20.7484 N   0  0  0  0  0  0  0  0  0  0  0  0
    8.4539   -0.7913   20.2439 C   0  0  0  0  0  0  0  0  0  0  0  0
    8.8274    0.1641   21.3626 C   0  0  0  0  0  0  0  0  0  0  0  0
    6.3545   -2.1760   20.2259 C   0  0  0  0  0  0  0  0  0  0  0  0
    5.8235   -1.4225   19.0410 C   0  0  0  0  0  0  0  0  0  0  0  0
    5.7010   -3.0941   20.7084 O   0  0  0  0  0  0  0  0  0  0  0  0
  1  2  1  0
  2  3  1  0
  3  4  1  0
  4  5  2  0
  5  6  1  0
  6  7  2  0
  7  8  1  0
  7  9  1  0
  9 10  2  0
 10 11  1  0
 11 12  1  0
 12 13  1  0
 13 14  1  0
 14 15  1  0
 15 16  1  0
 16 17  1  0
 15 18  1  0
 18 19  1  0
 18 20  2  0
 10  4  1  0
 17 12  1  0
M  END
