CVD-0003431|dock_bobby27042020.45|mol2|21|dock2
     RDKit          3D

 21 23  0  0  0  0  0  0  0  0999 V2000
    8.6370   -0.1970   18.9554 Cl  0  0  0  0  0  0  0  0  0  0  0  0
    7.7621   -1.5972   19.4884 C   0  0  0  0  0  0  0  0  0  0  0  0
    6.5687   -1.7604   18.9405 N   0  0  0  0  0  0  0  0  0  0  0  0
    5.8562   -2.8085   19.2893 C   0  0  0  0  0  0  0  0  0  0  0  0
    6.2784   -3.7408   20.2580 C   0  0  0  0  0  0  0  0  0  0  0  0
    5.4740   -4.7970   20.5926 N   0  0  0  0  0  0  0  0  0  0  0  0
    5.9233   -5.5988   21.5412 C   0  0  0  0  0  0  0  0  0  0  0  0
    7.1365   -5.4090   22.1755 C   0  0  0  0  0  0  0  0  0  0  0  0
    7.9529   -4.4152   21.8770 N   0  0  0  0  0  0  0  0  0  0  0  0
    7.5397   -3.5727   20.8872 C   0  0  0  0  0  0  0  0  0  0  0  0
    8.3185   -2.4612   20.4232 C   0  0  0  0  0  0  0  0  0  0  0  0
    9.6360   -2.2071   20.8949 N   0  0  0  0  0  0  0  0  0  0  0  0
   10.0679   -2.3218   22.1751 C   0  0  0  0  0  0  0  0  0  0  0  0
    9.3854   -2.6652   23.1346 O   0  0  0  0  0  0  0  0  0  0  0  0
   11.5339   -1.9913   22.3457 C   0  0  0  0  0  0  0  0  0  0  0  0
   11.8134   -0.4889   22.4524 C   0  0  0  0  0  0  0  0  0  0  0  0
   11.1890    0.1046   23.7318 C   0  0  0  0  0  0  0  0  0  0  0  0
   11.5119    1.5877   23.9042 C   0  0  0  0  0  0  0  0  0  0  0  0
   13.0135    1.8380   23.8526 C   0  0  0  0  0  0  0  0  0  0  0  0
   13.6198    1.2786   22.5736 C   0  0  0  0  0  0  0  0  0  0  0  0
   13.3261   -0.2111   22.4292 C   0  0  0  0  0  0  0  0  0  0  0  0
  1  2  1  0
  2  3  2  0
  3  4  1  0
  4  5  2  0
  5  6  1  0
  6  7  2  0
  7  8  1  0
  8  9  2  0
  9 10  1  0
 10 11  2  0
 11 12  1  0
 12 13  1  0
 13 14  2  0
 13 15  1  0
 15 16  1  0
 16 17  1  0
 17 18  1  0
 18 19  1  0
 19 20  1  0
 20 21  1  0
 11  2  1  0
 21 16  1  0
 10  5  1  0
M  END
