CVD-0001673|dock_bobby27042020.94|mol2|30|dock3
     RDKit          3D

 25 27  0  0  0  0  0  0  0  0999 V2000
    8.1503   -3.5980   23.7723 O   0  0  0  0  0  0  0  0  0  0  0  0
    9.2066   -3.0843   22.9702 C   0  0  0  0  0  0  0  0  0  0  0  0
    9.3552   -1.5748   23.1614 C   0  0  0  0  0  0  0  0  0  0  0  0
    8.4700   -0.8607   22.2075 N   0  0  0  0  0  0  0  0  0  0  0  0
    8.6405    0.5958   22.2160 C   0  0  0  0  0  0  0  0  0  0  0  0
    7.9539    1.2214   21.0128 C   0  0  0  0  0  0  0  0  0  0  0  0
    6.4617    0.9324   21.0569 C   0  0  0  0  0  0  0  0  0  0  0  0
    6.2556   -0.5732   21.1648 C   0  0  0  0  0  0  0  0  0  0  0  0
    7.0402   -1.1636   22.3330 C   0  0  0  0  0  0  0  0  0  0  0  0
    5.6753    1.6051   19.9108 C   0  0  0  0  0  0  0  0  0  0  0  0
    6.1980    1.1004   18.6404 C   0  0  0  0  0  0  0  0  0  0  0  0
    6.5973    0.7435   17.6351 N   0  0  0  0  0  0  0  0  0  0  0  0
    4.1419    1.4125   19.9635 C   0  0  0  0  0  0  0  0  0  0  0  0
    3.3851    2.3872   19.0660 C   0  0  0  0  0  0  0  0  0  0  0  0
    2.6276    3.2013   19.8523 C   0  0  0  0  0  0  0  0  0  0  0  0
    2.8529    2.8430   21.2904 C   0  0  0  0  0  0  0  0  0  0  0  0
    2.3967    3.6213   22.2964 F   0  0  0  0  0  0  0  0  0  0  0  0
    3.5503    1.6700   21.3404 C   0  0  0  0  0  0  0  0  0  0  0  0
   10.8130   -1.1809   23.0304 C   0  0  0  0  0  0  0  0  0  0  0  0
   11.5667   -1.6092   21.9463 C   0  0  0  0  0  0  0  0  0  0  0  0
   12.8998   -1.2545   21.8240 C   0  0  0  0  0  0  0  0  0  0  0  0
   13.5015   -0.4638   22.7883 C   0  0  0  0  0  0  0  0  0  0  0  0
   12.7395   -0.0548   23.8484 C   0  0  0  0  0  0  0  0  0  0  0  0
   13.3176    0.7221   24.8038 F   0  0  0  0  0  0  0  0  0  0  0  0
   11.4161   -0.3900   23.9973 C   0  0  0  0  0  0  0  0  0  0  0  0
  1  2  1  0
  2  3  1  0
  3  4  1  0
  4  5  1  0
  5  6  1  0
  6  7  1  0
  7  8  1  0
  8  9  1  0
  7 10  1  0
 10 11  1  0
 11 12  3  0
 10 13  1  0
 13 14  1  0
 14 15  2  0
 15 16  1  0
 16 17  1  0
 16 18  2  0
  3 19  1  0
 19 20  2  0
 20 21  1  0
 21 22  2  0
 22 23  1  0
 23 24  1  0
 23 25  2  0
  9  4  1  0
 18 13  1  0
 25 19  1  0
M  END
