CVD-0002581|dock_bobby27042020.33|mol2|38|dock2
     RDKit          3D

 37 40  0  0  0  0  0  0  0  0999 V2000
    2.4183    3.7685   18.4007 C   0  0  0  0  0  0  0  0  0  0  0  0
    3.1238    2.7590   19.1607 O   0  0  0  0  0  0  0  0  0  0  0  0
    4.1892    2.2247   18.5668 C   0  0  0  0  0  0  0  0  0  0  0  0
    4.6872    2.6629   17.5431 O   0  0  0  0  0  0  0  0  0  0  0  0
    4.7224    1.0241   19.2817 C   0  0  0  0  0  0  0  0  0  0  0  0
    5.1169   -0.0991   18.5633 C   0  0  0  0  0  0  0  0  0  0  0  0
    5.6127   -1.2180   19.2082 C   0  0  0  0  0  0  0  0  0  0  0  0
    5.7179   -1.2169   20.5894 C   0  0  0  0  0  0  0  0  0  0  0  0
    5.3286   -0.1091   21.3243 C   0  0  0  0  0  0  0  0  0  0  0  0
    4.8342    1.0043   20.6682 C   0  0  0  0  0  0  0  0  0  0  0  0
    6.3424   -2.6384   21.4171 S   0  0  0  0  0  0  0  0  0  0  0  0
    5.4945   -2.9060   22.5370 O   0  0  0  0  0  0  0  0  0  0  0  0
    6.5673   -3.6560   20.4380 O   0  0  0  0  0  0  0  0  0  0  0  0
    7.8035   -2.2392   22.0209 N   0  0  0  0  0  0  0  0  0  0  0  0
    8.1281   -2.5987   23.4056 C   0  0  0  0  0  0  0  0  0  0  0  0
    8.8807   -1.7716   21.1464 C   0  0  0  0  0  0  0  0  0  0  0  0
    9.5847   -0.5671   21.7180 C   0  0  0  0  0  0  0  0  0  0  0  0
    9.0572    0.7332   21.8087 C   0  0  0  0  0  0  0  0  0  0  0  0
    9.9778    1.5980   22.3753 C   0  0  0  0  0  0  0  0  0  0  0  0
    9.7846    3.0519   22.6307 C   0  0  0  0  0  0  0  0  0  0  0  0
   10.8647    3.9390   22.6309 C   0  0  0  0  0  0  0  0  0  0  0  0
   10.6878    5.2929   22.8625 C   0  0  0  0  0  0  0  0  0  0  0  0
    9.4314    5.8057   23.0880 C   0  0  0  0  0  0  0  0  0  0  0  0
    8.3377    4.9612   23.0902 C   0  0  0  0  0  0  0  0  0  0  0  0
    8.5363    3.6185   22.8713 C   0  0  0  0  0  0  0  0  0  0  0  0
    7.4285    2.8431   22.9068 F   0  0  0  0  0  0  0  0  0  0  0  0
   11.1224    0.7963   22.6524 N   0  0  0  0  0  0  0  0  0  0  0  0
   10.8663   -0.5059   22.2425 C   0  0  0  0  0  0  0  0  0  0  0  0
   12.6349    1.1267   23.3485 S   0  0  0  0  0  0  0  0  0  0  0  0
   13.4923    1.4169   22.2414 O   0  0  0  0  0  0  0  0  0  0  0  0
   12.4373    2.1259   24.3526 O   0  0  0  0  0  0  0  0  0  0  0  0
   13.2127   -0.3674   24.0770 C   0  0  0  0  0  0  0  0  0  0  0  0
   13.9396   -1.2764   23.3274 C   0  0  0  0  0  0  0  0  0  0  0  0
   14.3703   -2.4409   23.9391 C   0  0  0  0  0  0  0  0  0  0  0  0
   14.0581   -2.6481   25.2638 C   0  0  0  0  0  0  0  0  0  0  0  0
   13.3572   -1.7821   25.9973 N   0  0  0  0  0  0  0  0  0  0  0  0
   12.9444   -0.6600   25.4007 C   0  0  0  0  0  0  0  0  0  0  0  0
  1  2  1  0
  2  3  1  0
  3  4  2  0
  3  5  1  0
  5  6  2  0
  6  7  1  0
  7  8  2  0
  8  9  1  0
  9 10  2  0
  8 11  1  0
 11 12  2  0
 11 13  2  0
 11 14  1  0
 14 15  1  0
 14 16  1  0
 16 17  1  0
 17 18  1  0
 18 19  2  0
 19 20  1  0
 20 21  2  0
 21 22  1  0
 22 23  2  0
 23 24  1  0
 24 25  2  0
 25 26  1  0
 19 27  1  0
 27 28  1  0
 27 29  1  0
 29 30  2  0
 29 31  2  0
 29 32  1  0
 32 33  2  0
 33 34  1  0
 34 35  2  0
 35 36  1  0
 36 37  2  0
 10  5  1  0
 28 17  2  0
 37 32  1  0
 25 20  1  0
M  END
