CVD-0000084|dock_bobby27042020.71|mol2|28|dock1
     RDKit          3D

 16 17  0  0  0  0  0  0  0  0999 V2000
    8.7752   -0.2669   22.6307 O   0  0  0  0  0  0  0  0  0  0  0  0
    9.3244   -0.8081   21.6772 C   0  0  0  0  0  0  0  0  0  0  0  0
   10.6359   -1.5416   21.8503 C   0  0  0  0  0  0  0  0  0  0  0  0
   11.2444   -1.3830   23.2471 C   0  0  0  0  0  0  0  0  0  0  0  0
   12.3867   -2.3939   23.4754 C   0  0  0  0  0  0  0  0  0  0  0  0
   13.0627   -2.2129   24.8332 C   0  0  0  0  0  0  0  0  0  0  0  0
   13.5431   -0.7805   25.0271 C   0  0  0  0  0  0  0  0  0  0  0  0
   12.4053    0.2114   24.8321 C   0  0  0  0  0  0  0  0  0  0  0  0
   11.7618    0.0501   23.4587 C   0  0  0  0  0  0  0  0  0  0  0  0
    8.8577   -0.8299   20.4051 N   0  0  0  0  0  0  0  0  0  0  0  0
    7.6865   -0.2797   19.8273 C   0  0  0  0  0  0  0  0  0  0  0  0
    6.5595   -0.1138   20.6217 C   0  0  0  0  0  0  0  0  0  0  0  0
    5.4075    0.4219   20.0733 C   0  0  0  0  0  0  0  0  0  0  0  0
    5.4147    0.7772   18.7446 C   0  0  0  0  0  0  0  0  0  0  0  0
    6.4794    0.6307   17.9559 N   0  0  0  0  0  0  0  0  0  0  0  0
    7.5877    0.1123   18.4941 C   0  0  0  0  0  0  0  0  0  0  0  0
  1  2  2  0
  2  3  1  0
  3  4  1  0
  4  5  1  0
  5  6  1  0
  6  7  1  0
  7  8  1  0
  8  9  1  0
  2 10  1  0
 10 11  1  0
 11 12  2  0
 12 13  1  0
 13 14  2  0
 14 15  1  0
 15 16  2  0
  9  4  1  0
 16 11  1  0
M  END
