CVD-0002057|dock_bobby27042020.79|mol2|4|dock3
     RDKit          3D

 34 37  0  0  0  0  0  0  0  0999 V2000
    5.0962    1.2512   18.0919 C   0  0  0  0  0  0  0  0  0  0  0  0
    5.4113    0.0376   18.8500 N   0  0  0  0  0  0  0  0  0  0  0  0
    6.8406   -0.1587   19.1150 C   0  0  0  0  0  0  0  0  0  0  0  0
    7.0706   -1.1660   20.2108 C   0  0  0  0  0  0  0  0  0  0  0  0
    6.3326   -2.3490   20.3945 C   0  0  0  0  0  0  0  0  0  0  0  0
    6.7980   -3.0260   21.5056 C   0  0  0  0  0  0  0  0  0  0  0  0
    6.2688   -4.3120   22.0198 C   0  0  0  0  0  0  0  0  0  0  0  0
    6.1343   -4.4314   23.4043 C   0  0  0  0  0  0  0  0  0  0  0  0
    5.5964   -5.5741   23.9724 C   0  0  0  0  0  0  0  0  0  0  0  0
    5.1874   -6.6212   23.1772 C   0  0  0  0  0  0  0  0  0  0  0  0
    5.3438   -6.5487   21.8046 C   0  0  0  0  0  0  0  0  0  0  0  0
    5.9055   -5.4171   21.2624 C   0  0  0  0  0  0  0  0  0  0  0  0
    6.1162   -5.4222   19.9283 F   0  0  0  0  0  0  0  0  0  0  0  0
    7.8717   -2.2476   22.0180 N   0  0  0  0  0  0  0  0  0  0  0  0
    8.0174   -1.1167   21.2239 C   0  0  0  0  0  0  0  0  0  0  0  0
    8.9245   -2.4810   23.3279 S   0  0  0  0  0  0  0  0  0  0  0  0
    8.3887   -1.7764   24.4506 O   0  0  0  0  0  0  0  0  0  0  0  0
    9.1014   -3.8975   23.4136 O   0  0  0  0  0  0  0  0  0  0  0  0
   10.4712   -1.7850   22.8569 C   0  0  0  0  0  0  0  0  0  0  0  0
   11.0327   -2.1226   21.6364 C   0  0  0  0  0  0  0  0  0  0  0  0
   12.2480   -1.5631   21.2794 C   0  0  0  0  0  0  0  0  0  0  0  0
   12.8884   -0.6796   22.1320 C   0  0  0  0  0  0  0  0  0  0  0  0
   12.3287   -0.3394   23.3536 C   0  0  0  0  0  0  0  0  0  0  0  0
   13.0265    0.6272   24.2795 C   0  0  0  0  0  0  0  0  0  0  0  0
   13.5088    1.8263   23.6231 N   0  0  0  0  0  0  0  0  0  0  0  0
   12.7149    2.8840   23.2991 C   0  0  0  0  0  0  0  0  0  0  0  0
   13.2321    4.1754   23.1984 C   0  0  0  0  0  0  0  0  0  0  0  0
   12.3714    5.2058   22.8657 C   0  0  0  0  0  0  0  0  0  0  0  0
   11.0263    4.9365   22.6413 C   0  0  0  0  0  0  0  0  0  0  0  0
   10.6059    3.6159   22.7654 C   0  0  0  0  0  0  0  0  0  0  0  0
   11.4244    2.6076   23.0863 N   0  0  0  0  0  0  0  0  0  0  0  0
   10.1010    5.9863   22.2928 C   0  0  0  0  0  0  0  0  0  0  0  0
    9.3433    6.7994   22.0291 N   0  0  0  0  0  0  0  0  0  0  0  0
   11.1088   -0.8988   23.7118 C   0  0  0  0  0  0  0  0  0  0  0  0
  1  2  1  0
  2  3  1  0
  3  4  1  0
  4  5  1  0
  5  6  2  0
  6  7  1  0
  7  8  2  0
  8  9  1  0
  9 10  2  0
 10 11  1  0
 11 12  2  0
 12 13  1  0
  6 14  1  0
 14 15  1  0
 14 16  1  0
 16 17  2  0
 16 18  2  0
 16 19  1  0
 19 20  2  0
 20 21  1  0
 21 22  2  0
 22 23  1  0
 23 24  1  0
 24 25  1  0
 25 26  1  0
 26 27  2  0
 27 28  1  0
 28 29  2  0
 29 30  1  0
 30 31  2  0
 29 32  1  0
 32 33  3  0
 23 34  2  0
 15  4  2  0
 34 19  1  0
 12  7  1  0
 31 26  1  0
M  END
