CVD-0002358|dock_bobby27042020.77|mol2|33|dock1
     RDKit          3D

 38 42  0  0  0  0  0  0  0  0999 V2000
    5.7150   -1.5267   18.5999 C   0  0  0  0  0  0  0  0  0  0  0  0
    4.9716   -0.2644   18.5704 N   0  0  0  0  0  0  0  0  0  0  0  0
    5.8050    0.9265   18.3733 C   0  0  0  0  0  0  0  0  0  0  0  0
    6.6374    1.2315   19.5909 C   0  0  0  0  0  0  0  0  0  0  0  0
    7.8683    0.6258   19.9049 C   0  0  0  0  0  0  0  0  0  0  0  0
    8.3625    1.1467   21.0871 C   0  0  0  0  0  0  0  0  0  0  0  0
    9.6231    0.8176   21.7997 C   0  0  0  0  0  0  0  0  0  0  0  0
   10.5742    1.8367   21.9055 C   0  0  0  0  0  0  0  0  0  0  0  0
   11.7956    1.6210   22.5182 C   0  0  0  0  0  0  0  0  0  0  0  0
   12.1027    0.3780   23.0175 C   0  0  0  0  0  0  0  0  0  0  0  0
   11.1746   -0.6423   22.9276 C   0  0  0  0  0  0  0  0  0  0  0  0
    9.9178   -0.4454   22.3582 C   0  0  0  0  0  0  0  0  0  0  0  0
    8.9581   -1.6178   22.3903 C   0  0  0  0  0  0  0  0  0  0  0  0
    8.3225   -1.8479   23.6874 N   0  0  0  0  0  0  0  0  0  0  0  0
    8.8224   -1.0898   24.8273 C   0  0  0  0  0  0  0  0  0  0  0  0
    7.7505   -0.9971   25.8987 C   0  0  0  0  0  0  0  0  0  0  0  0
    7.3457   -2.3853   26.3496 C   0  0  0  0  0  0  0  0  0  0  0  0
    6.9672   -3.2475   25.1696 C   0  0  0  0  0  0  0  0  0  0  0  0
    6.1268   -4.3433   25.3291 C   0  0  0  0  0  0  0  0  0  0  0  0
    5.8320   -5.1840   24.2750 C   0  0  0  0  0  0  0  0  0  0  0  0
    6.3901   -4.9222   23.0359 C   0  0  0  0  0  0  0  0  0  0  0  0
    7.2328   -3.8379   22.8407 C   0  0  0  0  0  0  0  0  0  0  0  0
    7.5332   -2.9859   23.9029 C   0  0  0  0  0  0  0  0  0  0  0  0
    5.9873   -5.9586   21.6622 S   0  0  0  0  0  0  0  0  0  0  0  0
    4.5556   -6.6227   21.9304 N   0  0  0  0  0  0  0  0  0  0  0  0
    6.9477   -7.0206   21.6317 O   0  0  0  0  0  0  0  0  0  0  0  0
    5.8536   -5.1136   20.5137 O   0  0  0  0  0  0  0  0  0  0  0  0
    7.4045    2.1021   21.5160 N   0  0  0  0  0  0  0  0  0  0  0  0
    6.3651    2.1480   20.5963 C   0  0  0  0  0  0  0  0  0  0  0  0
    7.3817    3.0971   22.8882 S   0  0  0  0  0  0  0  0  0  0  0  0
    6.1683    2.8053   23.5863 O   0  0  0  0  0  0  0  0  0  0  0  0
    8.6519    2.9413   23.5264 O   0  0  0  0  0  0  0  0  0  0  0  0
    7.2767    4.7348   22.2535 C   0  0  0  0  0  0  0  0  0  0  0  0
    6.0476    5.2815   21.9265 C   0  0  0  0  0  0  0  0  0  0  0  0
    6.0116    6.5714   21.4257 C   0  0  0  0  0  0  0  0  0  0  0  0
    7.1962    7.2557   21.2723 C   0  0  0  0  0  0  0  0  0  0  0  0
    8.3872    6.7409   21.5813 N   0  0  0  0  0  0  0  0  0  0  0  0
    8.4149    5.4953   22.0641 C   0  0  0  0  0  0  0  0  0  0  0  0
  1  2  1  0
  2  3  1  0
  3  4  1  0
  4  5  1  0
  5  6  2  0
  6  7  1  0
  7  8  2  0
  8  9  1  0
  9 10  2  0
 10 11  1  0
 11 12  2  0
 12 13  1  0
 13 14  1  0
 14 15  1  0
 15 16  1  0
 16 17  1  0
 17 18  1  0
 18 19  2  0
 19 20  1  0
 20 21  2  0
 21 22  1  0
 22 23  2  0
 21 24  1  0
 24 25  1  0
 24 26  2  0
 24 27  2  0
  6 28  1  0
 28 29  1  0
 28 30  1  0
 30 31  2  0
 30 32  2  0
 30 33  1  0
 33 34  2  0
 34 35  1  0
 35 36  2  0
 36 37  1  0
 37 38  2  0
 29  4  2  0
 38 33  1  0
 12  7  1  0
 23 14  1  0
 23 18  1  0
M  END
