CVD-0001682|dock_bobby27042020.66|mol2|23|dock1
     RDKit          3D

 25 26  0  0  0  0  0  0  0  0999 V2000
   14.0772   -2.7821   25.3473 C   0  0  0  0  0  0  0  0  0  0  0  0
   13.8902   -2.0523   24.0488 C   0  0  0  0  0  0  0  0  0  0  0  0
   14.8323   -1.4513   23.5443 O   0  0  0  0  0  0  0  0  0  0  0  0
   12.6776   -2.0747   23.4316 N   0  0  0  0  0  0  0  0  0  0  0  0
   11.4870   -2.7650   23.9443 C   0  0  0  0  0  0  0  0  0  0  0  0
   10.3095   -1.8079   24.0684 C   0  0  0  0  0  0  0  0  0  0  0  0
   10.0380   -1.0991   22.7482 C   0  0  0  0  0  0  0  0  0  0  0  0
   11.3163   -0.4165   22.2544 C   0  0  0  0  0  0  0  0  0  0  0  0
   12.4820   -1.3885   22.1588 C   0  0  0  0  0  0  0  0  0  0  0  0
    8.9205   -0.0685   22.8609 C   0  0  0  0  0  0  0  0  0  0  0  0
    9.1158    0.7682   23.9644 F   0  0  0  0  0  0  0  0  0  0  0  0
    8.7384    0.7513   21.5906 C   0  0  0  0  0  0  0  0  0  0  0  0
    9.6259    1.9279   21.6344 C   0  0  0  0  0  0  0  0  0  0  0  0
   10.3381    2.8156   21.6801 N   0  0  0  0  0  0  0  0  0  0  0  0
    7.2849    1.1885   21.4344 C   0  0  0  0  0  0  0  0  0  0  0  0
    6.8317    2.2856   22.1695 C   0  0  0  0  0  0  0  0  0  0  0  0
    5.5348    2.7561   22.0675 C   0  0  0  0  0  0  0  0  0  0  0  0
    4.6347    2.1362   21.2218 C   0  0  0  0  0  0  0  0  0  0  0  0
    5.0586    1.0485   20.4983 C   0  0  0  0  0  0  0  0  0  0  0  0
    4.1445    0.4720   19.6851 F   0  0  0  0  0  0  0  0  0  0  0  0
    6.3595    0.5370   20.5740 C   0  0  0  0  0  0  0  0  0  0  0  0
    6.9007   -0.9005   19.6298 S   0  0  0  0  0  0  0  0  0  0  0  0
    8.0445   -0.3743   18.6407 N   0  0  0  0  0  0  0  0  0  0  0  0
    7.5258   -1.8227   20.5299 O   0  0  0  0  0  0  0  0  0  0  0  0
    5.8459   -1.3941   18.7963 O   0  0  0  0  0  0  0  0  0  0  0  0
  1  2  1  0
  2  3  2  0
  2  4  1  0
  4  5  1  0
  5  6  1  0
  6  7  1  0
  7  8  1  0
  8  9  1  0
  7 10  1  0
 10 11  1  0
 10 12  1  0
 12 13  1  0
 13 14  3  0
 12 15  1  0
 15 16  2  0
 16 17  1  0
 17 18  2  0
 18 19  1  0
 19 20  1  0
 19 21  2  0
 21 22  1  0
 22 23  1  0
 22 24  2  0
 22 25  2  0
  9  4  1  0
 21 15  1  0
M  END
