CVD-0001895|dock_bobby27042020.93|mol2|38|dock3
     RDKit          3D

 28 30  0  0  0  0  0  0  0  0999 V2000
   13.2301    4.6767   23.4068 C   0  0  0  0  0  0  0  0  0  0  0  0
   12.1162    4.0987   22.5453 C   0  0  0  0  0  0  0  0  0  0  0  0
   12.5893    3.9772   21.1037 C   0  0  0  0  0  0  0  0  0  0  0  0
   10.8883    4.9960   22.6113 C   0  0  0  0  0  0  0  0  0  0  0  0
   11.7621    2.7525   23.0479 N   0  0  0  0  0  0  0  0  0  0  0  0
   10.8456    1.9290   22.5222 C   0  0  0  0  0  0  0  0  0  0  0  0
   10.1773    2.2132   21.5316 O   0  0  0  0  0  0  0  0  0  0  0  0
   10.6820    0.5859   23.2636 C   0  0  0  0  0  0  0  0  0  0  0  0
    9.4790   -0.1339   22.7610 N   0  0  0  0  0  0  0  0  0  0  0  0
    9.3312   -1.4676   23.1115 C   0  0  0  0  0  0  0  0  0  0  0  0
   10.1514   -2.0594   23.8123 O   0  0  0  0  0  0  0  0  0  0  0  0
    8.1508   -2.2397   22.6262 C   0  0  0  0  0  0  0  0  0  0  0  0
    8.1281   -3.5438   22.7043 C   0  0  0  0  0  0  0  0  0  0  0  0
    8.5013    0.5484   21.9643 C   0  0  0  0  0  0  0  0  0  0  0  0
    7.8144    1.6620   22.4354 C   0  0  0  0  0  0  0  0  0  0  0  0
    6.8576    2.2991   21.6619 C   0  0  0  0  0  0  0  0  0  0  0  0
    6.5609    1.8443   20.3765 C   0  0  0  0  0  0  0  0  0  0  0  0
    5.6380    2.3593   19.4692 N   0  0  0  0  0  0  0  0  0  0  0  0
    5.6487    1.6703   18.3779 C   0  0  0  0  0  0  0  0  0  0  0  0
    6.7515    0.3341   18.2985 S   0  0  0  0  0  0  0  0  0  0  0  0
    7.2629    0.7297   19.9075 C   0  0  0  0  0  0  0  0  0  0  0  0
    8.2183    0.0876   20.6831 C   0  0  0  0  0  0  0  0  0  0  0  0
   11.9543   -0.2509   23.2112 C   0  0  0  0  0  0  0  0  0  0  0  0
   12.2359   -1.0519   22.1150 C   0  0  0  0  0  0  0  0  0  0  0  0
   13.3933   -1.8104   22.0919 C   0  0  0  0  0  0  0  0  0  0  0  0
   14.2408   -1.7463   23.1743 C   0  0  0  0  0  0  0  0  0  0  0  0
   14.0014   -0.9875   24.2446 N   0  0  0  0  0  0  0  0  0  0  0  0
   12.8800   -0.2606   24.2442 C   0  0  0  0  0  0  0  0  0  0  0  0
  1  2  1  0
  2  3  1  0
  2  4  1  0
  2  5  1  0
  5  6  1  0
  6  7  2  0
  6  8  1  0
  8  9  1  0
  9 10  1  0
 10 11  2  0
 10 12  1  0
 12 13  2  0
  9 14  1  0
 14 15  2  0
 15 16  1  0
 16 17  2  0
 17 18  1  0
 18 19  2  0
 19 20  1  0
 20 21  1  0
 21 22  2  0
  8 23  1  0
 23 24  2  0
 24 25  1  0
 25 26  2  0
 26 27  1  0
 27 28  2  0
 22 14  1  0
 28 23  1  0
 21 17  1  0
M  END
