CVD-0002821|dock_bobby27042020.4|mol2|22|dock3
     RDKit          3D

 30 34  0  0  0  0  0  0  0  0999 V2000
   12.3720    5.4610   22.9131 Cl  0  0  0  0  0  0  0  0  0  0  0  0
   11.5246    4.0570   23.5747 C   0  0  0  0  0  0  0  0  0  0  0  0
   11.3701    2.9609   22.5378 C   0  0  0  0  0  0  0  0  0  0  0  0
   11.8002    3.1177   21.4018 O   0  0  0  0  0  0  0  0  0  0  0  0
   10.7449    1.8157   22.8985 N   0  0  0  0  0  0  0  0  0  0  0  0
   10.1966    1.4883   24.2165 C   0  0  0  0  0  0  0  0  0  0  0  0
   10.7991    0.1957   24.7349 C   0  0  0  0  0  0  0  0  0  0  0  0
   10.5412   -0.8977   23.7931 N   0  0  0  0  0  0  0  0  0  0  0  0
    9.1090   -1.1999   23.6643 C   0  0  0  0  0  0  0  0  0  0  0  0
    8.5033   -1.8575   24.8859 C   0  0  0  0  0  0  0  0  0  0  0  0
    7.4889   -1.2438   25.5726 C   0  0  0  0  0  0  0  0  0  0  0  0
    6.9170   -1.8264   26.6912 C   0  0  0  0  0  0  0  0  0  0  0  0
    7.3490   -3.0369   27.1448 C   0  0  0  0  0  0  0  0  0  0  0  0
    8.3929   -3.7227   26.4785 C   0  0  0  0  0  0  0  0  0  0  0  0
    8.8753   -4.9813   26.9108 C   0  0  0  0  0  0  0  0  0  0  0  0
    9.8829   -5.6095   26.2406 C   0  0  0  0  0  0  0  0  0  0  0  0
   10.4552   -5.0332   25.1260 C   0  0  0  0  0  0  0  0  0  0  0  0
   10.0257   -3.8223   24.6706 C   0  0  0  0  0  0  0  0  0  0  0  0
    8.9811   -3.1219   25.3270 C   0  0  0  0  0  0  0  0  0  0  0  0
   11.1437   -0.5685   22.5040 C   0  0  0  0  0  0  0  0  0  0  0  0
   10.5558    0.7156   21.9479 C   0  0  0  0  0  0  0  0  0  0  0  0
    9.1062    0.5106   21.5917 C   0  0  0  0  0  0  0  0  0  0  0  0
    8.4910   -0.6089   20.9598 C   0  0  0  0  0  0  0  0  0  0  0  0
    7.1407   -0.4014   20.8168 N   0  0  0  0  0  0  0  0  0  0  0  0
    6.8557    0.7954   21.3260 C   0  0  0  0  0  0  0  0  0  0  0  0
    5.6433    1.4348   21.4099 N   0  0  0  0  0  0  0  0  0  0  0  0
    5.5410    2.6672   21.9686 C   0  0  0  0  0  0  0  0  0  0  0  0
    6.6394    3.2990   22.4595 C   0  0  0  0  0  0  0  0  0  0  0  0
    7.9057    2.6819   22.3954 C   0  0  0  0  0  0  0  0  0  0  0  0
    8.0546    1.4320   21.8366 C   0  0  0  0  0  0  0  0  0  0  0  0
  1  2  1  0
  2  3  1  0
  3  4  2  0
  3  5  1  0
  5  6  1  0
  6  7  1  0
  7  8  1  0
  8  9  1  0
  9 10  1  0
 10 11  2  0
 11 12  1  0
 12 13  2  0
 13 14  1  0
 14 15  2  0
 15 16  1  0
 16 17  2  0
 17 18  1  0
 18 19  2  0
  8 20  1  0
 20 21  1  0
 21 22  1  0
 22 23  2  0
 23 24  1  0
 24 25  2  0
 25 26  1  0
 26 27  1  0
 27 28  2  0
 28 29  1  0
 29 30  2  0
 21  5  1  0
 30 22  1  0
 19 10  1  0
 25 30  1  0
 19 14  1  0
M  END
