CVD-0000699|dock_bobby27042020.83|mol2|33|dock2
     RDKit          3D

 27 29  0  0  0  0  0  0  0  0999 V2000
   14.0520    2.8195   22.0650 O   0  0  0  0  0  0  0  0  0  0  0  0
   12.8415    2.6903   22.2123 C   0  0  0  0  0  0  0  0  0  0  0  0
   11.9037    3.8558   21.9677 C   0  0  0  0  0  0  0  0  0  0  0  0
   11.6828    4.6875   23.2108 C   0  0  0  0  0  0  0  0  0  0  0  0
   12.7297    4.9557   24.0791 C   0  0  0  0  0  0  0  0  0  0  0  0
   12.5270    5.7148   25.2196 C   0  0  0  0  0  0  0  0  0  0  0  0
   11.2742    6.2137   25.5053 C   0  0  0  0  0  0  0  0  0  0  0  0
   10.2245    5.9532   24.6509 C   0  0  0  0  0  0  0  0  0  0  0  0
   10.4277    5.1940   23.5106 C   0  0  0  0  0  0  0  0  0  0  0  0
   12.2025    1.5591   22.6002 N   0  0  0  0  0  0  0  0  0  0  0  0
   12.7194    0.2749   22.9279 C   0  0  0  0  0  0  0  0  0  0  0  0
   14.0719    0.0004   23.1295 C   0  0  0  0  0  0  0  0  0  0  0  0
   14.5490   -1.2095   23.4385 N   0  0  0  0  0  0  0  0  0  0  0  0
   13.6777   -2.2075   23.5597 C   0  0  0  0  0  0  0  0  0  0  0  0
   12.3208   -2.0512   23.3824 C   0  0  0  0  0  0  0  0  0  0  0  0
   11.8171   -0.7957   23.0599 C   0  0  0  0  0  0  0  0  0  0  0  0
   10.3195   -0.6705   22.8781 C   0  0  0  0  0  0  0  0  0  0  0  0
    9.9128   -0.6130   21.4166 C   0  0  0  0  0  0  0  0  0  0  0  0
    8.4994   -0.3013   21.2587 N   0  0  0  0  0  0  0  0  0  0  0  0
    7.9275   -0.3748   20.0434 C   0  0  0  0  0  0  0  0  0  0  0  0
    8.5855   -0.7179   19.0689 O   0  0  0  0  0  0  0  0  0  0  0  0
    6.6088   -0.0679   19.8743 N   0  0  0  0  0  0  0  0  0  0  0  0
    5.7898    0.7262   20.7921 C   0  0  0  0  0  0  0  0  0  0  0  0
    5.1849    1.9134   20.0723 C   0  0  0  0  0  0  0  0  0  0  0  0
    4.3969    1.4627   18.8431 C   0  0  0  0  0  0  0  0  0  0  0  0
    5.2665    0.6003   17.9446 C   0  0  0  0  0  0  0  0  0  0  0  0
    5.8656   -0.5592   18.7079 C   0  0  0  0  0  0  0  0  0  0  0  0
  1  2  2  0
  2  3  1  0
  3  4  1  0
  4  5  2  0
  5  6  1  0
  6  7  2  0
  7  8  1  0
  8  9  2  0
  2 10  1  0
 10 11  1  0
 11 12  2  0
 12 13  1  0
 13 14  2  0
 14 15  1  0
 15 16  2  0
 16 17  1  0
 17 18  1  0
 18 19  1  0
 19 20  1  0
 20 21  2  0
 20 22  1  0
 22 23  1  0
 23 24  1  0
 24 25  1  0
 25 26  1  0
 26 27  1  0
  9  4  1  0
 16 11  1  0
 27 22  1  0
M  END
