CVD-0001057|dock_bobby27042020.11|mol2|2|dock1
     RDKit          3D

 21 24  0  0  0  0  0  0  0  0999 V2000
    6.8260    0.0728   24.3283 Cl  0  0  0  0  0  0  0  0  0  0  0  0
    6.8670    0.2984   22.6076 C   0  0  0  0  0  0  0  0  0  0  0  0
    5.7389    0.7435   22.1405 N   0  0  0  0  0  0  0  0  0  0  0  0
    5.6340    0.9663   20.7944 C   0  0  0  0  0  0  0  0  0  0  0  0
    4.4195    1.4506   20.2550 C   0  0  0  0  0  0  0  0  0  0  0  0
    4.3064    1.6752   18.9144 C   0  0  0  0  0  0  0  0  0  0  0  0
    5.3661    1.4367   18.0628 C   0  0  0  0  0  0  0  0  0  0  0  0
    6.5548    0.9696   18.5409 C   0  0  0  0  0  0  0  0  0  0  0  0
    6.7179    0.7221   19.9241 C   0  0  0  0  0  0  0  0  0  0  0  0
    7.9121    0.2393   20.5009 C   0  0  0  0  0  0  0  0  0  0  0  0
    8.0140    0.0171   21.8520 C   0  0  0  0  0  0  0  0  0  0  0  0
    9.3208   -0.4887   22.3218 C   0  0  0  0  0  0  0  0  0  0  0  0
    9.7151   -0.5075   23.5617 N   0  0  0  0  0  0  0  0  0  0  0  0
   10.9907   -1.0617   23.5235 C   0  0  0  0  0  0  0  0  0  0  0  0
   11.9148   -1.3371   24.5307 C   0  0  0  0  0  0  0  0  0  0  0  0
   13.1210   -1.9019   24.1600 C   0  0  0  0  0  0  0  0  0  0  0  0
   14.3980   -2.2873   25.5122 Br  0  0  0  0  0  0  0  0  0  0  0  0
   13.4352   -2.1974   22.8467 C   0  0  0  0  0  0  0  0  0  0  0  0
   12.5134   -1.9214   21.8528 C   0  0  0  0  0  0  0  0  0  0  0  0
   11.3030   -1.3555   22.2174 C   0  0  0  0  0  0  0  0  0  0  0  0
   10.2331   -0.9910   21.4257 O   0  0  0  0  0  0  0  0  0  0  0  0
  1  2  1  0
  2  3  2  0
  3  4  1  0
  4  5  2  0
  5  6  1  0
  6  7  2  0
  7  8  1  0
  8  9  2  0
  9 10  1  0
 10 11  2  0
 11 12  1  0
 12 13  2  0
 13 14  1  0
 14 15  2  0
 15 16  1  0
 16 17  1  0
 16 18  2  0
 18 19  1  0
 19 20  2  0
 20 21  1  0
 11  2  1  0
 21 12  1  0
  9  4  1  0
 20 14  1  0
M  END
