CVD-0000167|dock_bobby27042020.57|mol2|6|dock2
     RDKit          3D

 20 21  0  0  0  0  0  0  0  0999 V2000
    4.5384    1.5726   19.0209 C   0  0  0  0  0  0  0  0  0  0  0  0
    5.5661    0.9942   18.1578 N   0  0  0  0  0  0  0  0  0  0  0  0
    6.5371   -0.1612   18.6871 S   0  0  0  0  0  0  0  0  0  0  0  0
    5.7247   -1.3125   18.9417 O   0  0  0  0  0  0  0  0  0  0  0  0
    7.6169   -0.2716   17.7531 O   0  0  0  0  0  0  0  0  0  0  0  0
    7.2039    0.3963   20.2426 C   0  0  0  0  0  0  0  0  0  0  0  0
    7.8011   -0.7207   21.0546 C   0  0  0  0  0  0  0  0  0  0  0  0
    6.9933   -1.7165   21.5859 C   0  0  0  0  0  0  0  0  0  0  0  0
    7.5248   -2.7531   22.3340 C   0  0  0  0  0  0  0  0  0  0  0  0
    8.8978   -2.7884   22.5515 C   0  0  0  0  0  0  0  0  0  0  0  0
    9.6856   -3.6778   23.2404 N   0  0  0  0  0  0  0  0  0  0  0  0
   10.9889   -3.2683   23.1591 C   0  0  0  0  0  0  0  0  0  0  0  0
   11.0820   -2.1210   22.4275 C   0  0  0  0  0  0  0  0  0  0  0  0
   12.3241   -1.3454   22.0998 C   0  0  0  0  0  0  0  0  0  0  0  0
   13.4674   -1.6401   23.0556 C   0  0  0  0  0  0  0  0  0  0  0  0
   13.0467   -1.7631   24.4493 N   0  0  0  0  0  0  0  0  0  0  0  0
   12.6738   -0.4633   24.9962 C   0  0  0  0  0  0  0  0  0  0  0  0
   14.1131   -2.3445   25.2565 C   0  0  0  0  0  0  0  0  0  0  0  0
    9.7436   -1.7945   22.0261 C   0  0  0  0  0  0  0  0  0  0  0  0
    9.1721   -0.7670   21.2781 C   0  0  0  0  0  0  0  0  0  0  0  0
  1  2  1  0
  2  3  1  0
  3  4  2  0
  3  5  2  0
  3  6  1  0
  6  7  1  0
  7  8  2  0
  8  9  1  0
  9 10  2  0
 10 11  1  0
 11 12  1  0
 12 13  2  0
 13 14  1  0
 14 15  1  0
 15 16  1  0
 16 17  1  0
 16 18  1  0
 13 19  1  0
 19 20  2  0
 20  7  1  0
 19 10  1  0
M  END
