CVD-0002188|dock_bobby27042020.78|mol2|19|dock2
     RDKit          3D

 31 34  0  0  0  0  0  0  0  0999 V2000
    2.0698    8.9081   21.5171 F   0  0  0  0  0  0  0  0  0  0  0  0
    3.3615    8.5433   21.2955 C   0  0  0  0  0  0  0  0  0  0  0  0
    4.0605    9.1988   20.3162 C   0  0  0  0  0  0  0  0  0  0  0  0
    5.3756    8.8378   20.0802 C   0  0  0  0  0  0  0  0  0  0  0  0
    5.9431    7.8234   20.8434 C   0  0  0  0  0  0  0  0  0  0  0  0
    7.2018    7.2743   20.8224 N   0  0  0  0  0  0  0  0  0  0  0  0
    7.2735    6.2956   21.7758 C   0  0  0  0  0  0  0  0  0  0  0  0
    6.0829    6.1839   22.4314 C   0  0  0  0  0  0  0  0  0  0  0  0
    5.7391    5.2362   23.5430 C   0  0  0  0  0  0  0  0  0  0  0  0
    4.8947    4.0647   23.0827 C   0  0  0  0  0  0  0  0  0  0  0  0
    5.6382    3.1704   22.2068 N   0  0  0  0  0  0  0  0  0  0  0  0
    5.0339    2.1753   21.5509 C   0  0  0  0  0  0  0  0  0  0  0  0
    3.8268    1.9866   21.6676 O   0  0  0  0  0  0  0  0  0  0  0  0
    5.8314    1.2692   20.6564 C   0  0  0  0  0  0  0  0  0  0  0  0
    5.3194    0.9746   19.3986 C   0  0  0  0  0  0  0  0  0  0  0  0
    6.0099    0.1458   18.5334 C   0  0  0  0  0  0  0  0  0  0  0  0
    7.2224   -0.4003   18.9138 C   0  0  0  0  0  0  0  0  0  0  0  0
    7.7576   -0.1219   20.1657 C   0  0  0  0  0  0  0  0  0  0  0  0
    9.0045   -0.7181   20.4846 N   0  0  0  0  0  0  0  0  0  0  0  0
    9.6717   -0.8331   21.6832 C   0  0  0  0  0  0  0  0  0  0  0  0
    9.2579   -0.4017   22.7542 O   0  0  0  0  0  0  0  0  0  0  0  0
   10.8672   -1.4964   21.5273 N   0  0  0  0  0  0  0  0  0  0  0  0
   11.8638   -1.8350   22.4772 C   0  0  0  0  0  0  0  0  0  0  0  0
   11.6357   -1.9700   23.8436 C   0  0  0  0  0  0  0  0  0  0  0  0
   12.6895   -2.3051   24.6764 C   0  0  0  0  0  0  0  0  0  0  0  0
   13.9362   -2.4955   24.1271 C   0  0  0  0  0  0  0  0  0  0  0  0
   14.1857   -2.3734   22.8236 N   0  0  0  0  0  0  0  0  0  0  0  0
   13.1620   -2.0498   22.0284 C   0  0  0  0  0  0  0  0  0  0  0  0
    7.0547    0.7157   21.0321 C   0  0  0  0  0  0  0  0  0  0  0  0
    5.2098    7.1606   21.8456 C   0  0  0  0  0  0  0  0  0  0  0  0
    3.8864    7.5365   22.0705 C   0  0  0  0  0  0  0  0  0  0  0  0
  1  2  1  0
  2  3  2  0
  3  4  1  0
  4  5  2  0
  5  6  1  0
  6  7  1  0
  7  8  2  0
  8  9  1  0
  9 10  1  0
 10 11  1  0
 11 12  1  0
 12 13  2  0
 12 14  1  0
 14 15  2  0
 15 16  1  0
 16 17  2  0
 17 18  1  0
 18 19  1  0
 19 20  1  0
 20 21  2  0
 20 22  1  0
 22 23  1  0
 23 24  2  0
 24 25  1  0
 25 26  2  0
 26 27  1  0
 27 28  2  0
 18 29  2  0
  8 30  1  0
 30 31  2  0
 31  2  1  0
 30  5  1  0
 29 14  1  0
 28 23  1  0
M  END
