CVD-0003838|dock_bobby27042020.86|mol2|33|dock3
     RDKit          3D

 16 17  0  0  0  0  0  0  0  0999 V2000
   13.5126   -1.9920   20.8524 N   0  0  0  0  0  0  0  0  0  0  0  0
   13.3006   -1.7069   22.4134 S   0  0  0  0  0  0  0  0  0  0  0  0
   12.1146   -2.4026   22.8137 O   0  0  0  0  0  0  0  0  0  0  0  0
   14.5361   -2.0108   23.0710 O   0  0  0  0  0  0  0  0  0  0  0  0
   12.9981    0.0206   22.6312 C   0  0  0  0  0  0  0  0  0  0  0  0
   11.7499    0.4565   23.0372 C   0  0  0  0  0  0  0  0  0  0  0  0
   11.5175    1.8102   23.2041 C   0  0  0  0  0  0  0  0  0  0  0  0
   12.5203    2.7488   22.9744 C   0  0  0  0  0  0  0  0  0  0  0  0
   13.7722    2.2834   22.5816 C   0  0  0  0  0  0  0  0  0  0  0  0
   14.0127    0.9325   22.4037 C   0  0  0  0  0  0  0  0  0  0  0  0
   12.2642    4.1046   23.1401 N   0  0  0  0  0  0  0  0  0  0  0  0
   13.2373    4.9974   23.7839 C   0  0  0  0  0  0  0  0  0  0  0  0
   12.6202    5.6966   24.9789 C   0  0  0  0  0  0  0  0  0  0  0  0
   11.2041    6.7137   24.5577 S   0  0  0  0  0  0  0  0  0  0  0  0
   10.2502    5.4201   23.7392 C   0  0  0  0  0  0  0  0  0  0  0  0
   11.0460    4.7674   22.6355 C   0  0  0  0  0  0  0  0  0  0  0  0
  1  2  1  0
  2  3  2  0
  2  4  2  0
  2  5  1  0
  5  6  2  0
  6  7  1  0
  7  8  2  0
  8  9  1  0
  9 10  2  0
  8 11  1  0
 11 12  1  0
 12 13  1  0
 13 14  1  0
 14 15  1  0
 15 16  1  0
 10  5  1  0
 16 11  1  0
M  END
