CVD-0003608|dock_bobby27042020.73|mol2|17|dock3
     RDKit          3D

 21 23  0  0  0  0  0  0  0  0999 V2000
   13.1743   -1.9901   21.0678 N   0  0  0  0  0  0  0  0  0  0  0  0
   12.8968   -1.6106   22.5982 S   0  0  0  0  0  0  0  0  0  0  0  0
   11.8088   -2.4269   23.0463 O   0  0  0  0  0  0  0  0  0  0  0  0
   14.1497   -1.6884   23.2876 O   0  0  0  0  0  0  0  0  0  0  0  0
   12.3589    0.0713   22.6692 C   0  0  0  0  0  0  0  0  0  0  0  0
   13.2950    1.0907   22.7258 C   0  0  0  0  0  0  0  0  0  0  0  0
   12.8661    2.4043   22.7861 C   0  0  0  0  0  0  0  0  0  0  0  0
   11.5028    2.6905   22.7909 C   0  0  0  0  0  0  0  0  0  0  0  0
   10.7687    4.2590   22.8606 S   0  0  0  0  0  0  0  0  0  0  0  0
    9.2042    3.5453   22.8164 C   0  0  0  0  0  0  0  0  0  0  0  0
    9.2016    2.1913   22.7530 C   0  0  0  0  0  0  0  0  0  0  0  0
    7.9576    1.3417   22.7030 C   0  0  0  0  0  0  0  0  0  0  0  0
    7.4024    1.1679   21.3580 N   0  0  0  0  0  0  0  0  0  0  0  0
    8.2163    0.2311   20.5743 C   0  0  0  0  0  0  0  0  0  0  0  0
    7.6921    0.0766   19.1602 C   0  0  0  0  0  0  0  0  0  0  0  0
    6.2330   -0.3612   19.1181 C   0  0  0  0  0  0  0  0  0  0  0  0
    5.6760   -0.3916   17.8012 O   0  0  0  0  0  0  0  0  0  0  0  0
    5.4263    0.5664   20.0201 C   0  0  0  0  0  0  0  0  0  0  0  0
    6.0217    0.6801   21.4135 C   0  0  0  0  0  0  0  0  0  0  0  0
   10.5384    1.6640   22.7357 C   0  0  0  0  0  0  0  0  0  0  0  0
   11.0004    0.3493   22.6755 C   0  0  0  0  0  0  0  0  0  0  0  0
  1  2  1  0
  2  3  2  0
  2  4  2  0
  2  5  1  0
  5  6  2  0
  6  7  1  0
  7  8  2  0
  8  9  1  0
  9 10  1  0
 10 11  2  0
 11 12  1  0
 12 13  1  0
 13 14  1  0
 14 15  1  0
 15 16  1  0
 16 17  1  0
 16 18  1  0
 18 19  1  0
 11 20  1  0
 20 21  2  0
 21  5  1  0
 20  8  1  0
 19 13  1  0
M  END
