CVD-0000877|dock_bobby27042020.26|mol2|1|dock2
     RDKit          3D

 27 28  0  0  0  0  0  0  0  0999 V2000
   12.6031    3.6551   21.9537 C   0  0  0  0  0  0  0  0  0  0  0  0
   12.4716    2.1655   22.0782 C   0  0  0  0  0  0  0  0  0  0  0  0
   13.4501    1.4251   22.0706 O   0  0  0  0  0  0  0  0  0  0  0  0
   11.2246    1.6931   22.1810 N   0  0  0  0  0  0  0  0  0  0  0  0
   10.9317    0.2659   22.2917 C   0  0  0  0  0  0  0  0  0  0  0  0
    9.6926    0.0715   23.1705 C   0  0  0  0  0  0  0  0  0  0  0  0
    9.3326   -1.4000   23.3702 C   0  0  0  0  0  0  0  0  0  0  0  0
    8.6709   -2.0131   22.1329 C   0  0  0  0  0  0  0  0  0  0  0  0
    8.2349   -3.3701   22.4530 N   0  0  0  0  0  0  0  0  0  0  0  0
    7.1856   -3.9576   21.8738 C   0  0  0  0  0  0  0  0  0  0  0  0
    6.4901   -3.4152   21.0206 O   0  0  0  0  0  0  0  0  0  0  0  0
    6.9077   -5.3635   22.3583 C   0  0  0  0  0  0  0  0  0  0  0  0
    5.7009   -6.2068   21.3787 Cl  0  0  0  0  0  0  0  0  0  0  0  0
    7.5122   -1.1541   21.6662 C   0  0  0  0  0  0  0  0  0  0  0  0
    6.4347   -0.8999   22.5028 C   0  0  0  0  0  0  0  0  0  0  0  0
    5.3784   -0.1129   22.0757 C   0  0  0  0  0  0  0  0  0  0  0  0
    5.3862    0.4323   20.8029 C   0  0  0  0  0  0  0  0  0  0  0  0
    6.4598    0.1764   19.9783 C   0  0  0  0  0  0  0  0  0  0  0  0
    6.4833    0.8560   18.3751 Cl  0  0  0  0  0  0  0  0  0  0  0  0
    7.5184   -0.6061   20.3921 C   0  0  0  0  0  0  0  0  0  0  0  0
   12.1119   -0.5005   22.8557 C   0  0  0  0  0  0  0  0  0  0  0  0
   12.6110   -1.6189   22.2033 C   0  0  0  0  0  0  0  0  0  0  0  0
   13.6898   -2.3206   22.7112 C   0  0  0  0  0  0  0  0  0  0  0  0
   14.2890   -1.9069   23.8902 C   0  0  0  0  0  0  0  0  0  0  0  0
   15.3529   -2.5950   24.3964 O   0  0  0  0  0  0  0  0  0  0  0  0
   13.8029   -0.7911   24.5528 C   0  0  0  0  0  0  0  0  0  0  0  0
   12.7235   -0.0979   24.0345 C   0  0  0  0  0  0  0  0  0  0  0  0
  1  2  1  0
  2  3  2  0
  2  4  1  0
  4  5  1  0
  5  6  1  0
  6  7  1  0
  7  8  1  0
  8  9  1  0
  9 10  1  0
 10 11  2  0
 10 12  1  0
 12 13  1  0
  8 14  1  0
 14 15  2  0
 15 16  1  0
 16 17  2  0
 17 18  1  0
 18 19  1  0
 18 20  2  0
  5 21  1  0
 21 22  2  0
 22 23  1  0
 23 24  2  0
 24 25  1  0
 24 26  1  0
 26 27  2  0
 20 14  1  0
 27 21  1  0
M  END
