CVD-0002739|dock_bobby27042020.76|mol2|13|dock2
     RDKit          3D

 21 22  0  0  0  0  0  0  0  0999 V2000
   10.1912   -5.3092   26.7762 C   0  0  0  0  0  0  0  0  0  0  0  0
   10.3269   -4.4214   25.6766 O   0  0  0  0  0  0  0  0  0  0  0  0
    9.5714   -4.8224   24.5489 C   0  0  0  0  0  0  0  0  0  0  0  0
    9.6917   -3.8407   23.4197 C   0  0  0  0  0  0  0  0  0  0  0  0
    8.6426   -3.6613   22.5278 C   0  0  0  0  0  0  0  0  0  0  0  0
    8.7716   -2.7522   21.4982 C   0  0  0  0  0  0  0  0  0  0  0  0
    7.4517   -2.5347   20.3832 Cl  0  0  0  0  0  0  0  0  0  0  0  0
    9.9239   -2.0117   21.3329 C   0  0  0  0  0  0  0  0  0  0  0  0
   10.9798   -2.1792   22.2192 C   0  0  0  0  0  0  0  0  0  0  0  0
   12.2510   -1.3813   22.0551 C   0  0  0  0  0  0  0  0  0  0  0  0
   12.2240   -0.1036   22.7802 N   0  0  0  0  0  0  0  0  0  0  0  0
   11.1839    0.7736   22.2347 C   0  0  0  0  0  0  0  0  0  0  0  0
   11.1329    2.0750   23.0134 C   0  0  0  0  0  0  0  0  0  0  0  0
   12.4336    2.7467   22.9731 N   0  0  0  0  0  0  0  0  0  0  0  0
   13.5065    1.8725   23.4573 C   0  0  0  0  0  0  0  0  0  0  0  0
   13.5164    0.5693   22.6790 C   0  0  0  0  0  0  0  0  0  0  0  0
   12.5855    4.0224   22.5632 C   0  0  0  0  0  0  0  0  0  0  0  0
   11.6328    4.7033   22.2046 O   0  0  0  0  0  0  0  0  0  0  0  0
   13.9976    4.5747   22.5615 C   0  0  0  0  0  0  0  0  0  0  0  0
   14.0550    6.2610   22.0318 Cl  0  0  0  0  0  0  0  0  0  0  0  0
   10.8520   -3.0950   23.2555 C   0  0  0  0  0  0  0  0  0  0  0  0
  1  2  1  0
  2  3  1  0
  3  4  1  0
  4  5  2  0
  5  6  1  0
  6  7  1  0
  6  8  2  0
  8  9  1  0
  9 10  1  0
 10 11  1  0
 11 12  1  0
 12 13  1  0
 13 14  1  0
 14 15  1  0
 15 16  1  0
 14 17  1  0
 17 18  2  0
 17 19  1  0
 19 20  1  0
  9 21  2  0
 21  4  1  0
 16 11  1  0
M  END
