CVD-0001399|dock_bobby27042020.52|mol2|41|dock2
     RDKit          3D

 21 23  0  0  0  0  0  0  0  0999 V2000
    4.0729    0.5618   19.5214 F   0  0  0  0  0  0  0  0  0  0  0  0
    5.3433    0.5674   20.0079 C   0  0  0  0  0  0  0  0  0  0  0  0
    6.3831    0.4290   19.1304 C   0  0  0  0  0  0  0  0  0  0  0  0
    7.6710    0.4346   19.6353 C   0  0  0  0  0  0  0  0  0  0  0  0
    7.9157    0.5759   20.9947 C   0  0  0  0  0  0  0  0  0  0  0  0
    6.8244    0.7161   21.8441 C   0  0  0  0  0  0  0  0  0  0  0  0
    5.5299    0.7113   21.3552 C   0  0  0  0  0  0  0  0  0  0  0  0
    9.3414    0.5746   21.5009 C   0  0  0  0  0  0  0  0  0  0  0  0
    9.9175   -0.8055   21.6622 C   0  0  0  0  0  0  0  0  0  0  0  0
   11.2927   -0.7073   22.1486 N   0  0  0  0  0  0  0  0  0  0  0  0
   11.4250    0.1275   23.3409 C   0  0  0  0  0  0  0  0  0  0  0  0
   10.7740    1.4586   23.1087 C   0  0  0  0  0  0  0  0  0  0  0  0
    9.4215    1.3201   22.7070 O   0  0  0  0  0  0  0  0  0  0  0  0
   12.3121   -1.3700   21.5631 C   0  0  0  0  0  0  0  0  0  0  0  0
   12.1414   -2.1026   20.5969 O   0  0  0  0  0  0  0  0  0  0  0  0
   13.7113   -1.1733   22.1436 C   0  0  0  0  0  0  0  0  0  0  0  0
   13.7965   -1.6805   23.5055 N   0  0  0  0  0  0  0  0  0  0  0  0
   13.0886   -2.6844   24.0523 C   0  0  0  0  0  0  0  0  0  0  0  0
   13.4787   -2.7893   25.3563 C   0  0  0  0  0  0  0  0  0  0  0  0
   14.4313   -1.7929   25.5239 C   0  0  0  0  0  0  0  0  0  0  0  0
   14.6318   -1.1039   24.4074 N   0  0  0  0  0  0  0  0  0  0  0  0
  1  2  1  0
  2  3  2  0
  3  4  1  0
  4  5  2  0
  5  6  1  0
  6  7  2  0
  5  8  1  0
  8  9  1  0
  9 10  1  0
 10 11  1  0
 11 12  1  0
 12 13  1  0
 10 14  1  0
 14 15  2  0
 14 16  1  0
 16 17  1  0
 17 18  1  0
 18 19  2  0
 19 20  1  0
 20 21  2  0
  7  2  1  0
 13  8  1  0
 21 17  1  0
M  END
