CVD-0000382|dock_bobby27042020.98|mol2|39|dock2
     RDKit          3D

 30 32  0  0  0  0  0  0  0  0999 V2000
   13.9287    5.4992   21.7606 C   0  0  0  0  0  0  0  0  0  0  0  0
   12.7233    4.6121   21.7740 C   0  0  0  0  0  0  0  0  0  0  0  0
   12.9110    3.4710   22.6550 N   0  0  0  0  0  0  0  0  0  0  0  0
   12.2830    2.2722   22.5022 C   0  0  0  0  0  0  0  0  0  0  0  0
   10.9366    2.2025   22.1421 C   0  0  0  0  0  0  0  0  0  0  0  0
   10.3488    0.9484   22.0013 C   0  0  0  0  0  0  0  0  0  0  0  0
    8.9951    0.7375   21.6351 N   0  0  0  0  0  0  0  0  0  0  0  0
    7.8980    0.3843   22.3485 C   0  0  0  0  0  0  0  0  0  0  0  0
    7.8641   -0.0969   23.6449 C   0  0  0  0  0  0  0  0  0  0  0  0
    9.1046   -0.4445   24.7696 Cl  0  0  0  0  0  0  0  0  0  0  0  0
    6.2505   -0.3926   24.1487 S   0  0  0  0  0  0  0  0  0  0  0  0
    5.6042    0.0825   22.6408 C   0  0  0  0  0  0  0  0  0  0  0  0
    6.5814    0.4693   21.7784 C   0  0  0  0  0  0  0  0  0  0  0  0
    6.2677    0.9354   20.3832 C   0  0  0  0  0  0  0  0  0  0  0  0
    4.8407    1.3783   20.1127 C   0  0  0  0  0  0  0  0  0  0  0  0
    4.8291    1.5958   18.6309 C   0  0  0  0  0  0  0  0  0  0  0  0
    5.8166    0.5689   18.0231 C   0  0  0  0  0  0  0  0  0  0  0  0
    6.5342   -0.0874   19.2381 C   0  0  0  0  0  0  0  0  0  0  0  0
    6.0711   -1.4983   19.5622 C   0  0  0  0  0  0  0  0  0  0  0  0
    5.1545   -2.0079   18.9229 O   0  0  0  0  0  0  0  0  0  0  0  0
    6.6567   -2.2378   20.5566 N   0  0  0  0  0  0  0  0  0  0  0  0
    6.5088   -3.5040   21.1047 C   0  0  0  0  0  0  0  0  0  0  0  0
    5.6316   -4.2409   20.6324 O   0  0  0  0  0  0  0  0  0  0  0  0
    7.3397   -4.0196   22.2221 C   0  0  0  0  0  0  0  0  0  0  0  0
    7.3577   -5.2948   22.5065 C   0  0  0  0  0  0  0  0  0  0  0  0
   11.1447   -0.1909   22.2077 C   0  0  0  0  0  0  0  0  0  0  0  0
   12.4864   -0.0127   22.5650 C   0  0  0  0  0  0  0  0  0  0  0  0
   13.0415    1.1931   22.7175 N   0  0  0  0  0  0  0  0  0  0  0  0
   10.6052   -1.5179   22.0616 C   0  0  0  0  0  0  0  0  0  0  0  0
   10.1458   -2.5582   21.9539 N   0  0  0  0  0  0  0  0  0  0  0  0
  1  2  1  0
  2  3  1  0
  3  4  1  0
  4  5  2  0
  5  6  1  0
  6  7  1  0
  7  8  1  0
  8  9  2  0
  9 10  1  0
  9 11  1  0
 11 12  1  0
 12 13  2  0
 14 13  1  0
 14 15  1  0
 15 16  1  0
 16 17  1  0
 17 18  1  0
 18 19  1  0
 19 20  2  0
 19 21  1  0
 21 22  1  0
 22 23  2  0
 22 24  1  0
 24 25  2  0
  6 26  2  0
 26 27  1  0
 27 28  2  0
 26 29  1  0
 29 30  3  0
 28  4  1  0
 13  8  1  0
 18 14  1  0
M  END
