CVD-0001976|dock_bobby27042020.7|mol2|44|dock1
     RDKit          3D

 11 11  0  0  0  0  0  0  0  0999 V2000
    9.1419   -0.8416   23.8501 C   0  0  0  0  0  0  0  0  0  0  0  0
   10.2523   -1.5046   23.0433 C   0  0  0  0  0  0  0  0  0  0  0  0
    9.6669   -2.0202   21.7329 C   0  0  0  0  0  0  0  0  0  0  0  0
   11.4185   -0.5248   22.8139 C   0  0  0  0  0  0  0  0  0  0  0  0
   12.6509   -1.1871   22.1718 C   0  0  0  0  0  0  0  0  0  0  0  0
   13.3648   -2.1343   23.1260 C   0  0  0  0  0  0  0  0  0  0  0  0
   13.7860   -1.4485   24.4304 C   0  0  0  0  0  0  0  0  0  0  0  0
   14.4380   -2.4320   25.3966 C   0  0  0  0  0  0  0  0  0  0  0  0
   12.5923   -0.7431   25.0678 C   0  0  0  0  0  0  0  0  0  0  0  0
   11.8687    0.1778   24.0978 C   0  0  0  0  0  0  0  0  0  0  0  0
   12.8036    1.1945   23.7344 O   0  0  0  0  0  0  0  0  0  0  0  0
  1  2  1  0
  2  3  1  0
  2  4  1  0
  4  5  1  0
  5  6  1  0
  6  7  1  0
  7  8  1  0
  7  9  1  0
  9 10  1  0
 10 11  1  0
 10  4  1  0
M  END
