CVD-0002307|dock_bobby27042020.49|mol2|18|dock2
     RDKit          3D

 40 43  0  0  0  0  0  0  0  0999 V2000
    1.6229    3.7009   18.5013 C   0  0  0  0  0  0  0  0  0  0  0  0
    2.8927    3.2301   19.0606 N   0  0  0  0  0  0  0  0  0  0  0  0
    3.0261    3.4212   20.5088 C   0  0  0  0  0  0  0  0  0  0  0  0
    4.4396    3.1875   20.9736 C   0  0  0  0  0  0  0  0  0  0  0  0
    5.2479    4.1358   21.6256 C   0  0  0  0  0  0  0  0  0  0  0  0
    6.4827    3.5882   21.9255 C   0  0  0  0  0  0  0  0  0  0  0  0
    7.6135    4.2658   22.6147 C   0  0  0  0  0  0  0  0  0  0  0  0
    8.1746    3.7417   23.7839 C   0  0  0  0  0  0  0  0  0  0  0  0
    9.2442    4.3624   24.4075 C   0  0  0  0  0  0  0  0  0  0  0  0
    9.7642    5.5331   23.9052 C   0  0  0  0  0  0  0  0  0  0  0  0
    9.2172    6.0948   22.7670 C   0  0  0  0  0  0  0  0  0  0  0  0
    8.1681    5.4540   22.1517 C   0  0  0  0  0  0  0  0  0  0  0  0
    7.6797    6.0400   21.0343 F   0  0  0  0  0  0  0  0  0  0  0  0
    6.4346    2.2544   21.4318 N   0  0  0  0  0  0  0  0  0  0  0  0
    5.1885    2.0259   20.8620 C   0  0  0  0  0  0  0  0  0  0  0  0
    7.6073    1.0966   21.4569 S   0  0  0  0  0  0  0  0  0  0  0  0
    8.6614    1.5614   20.5822 O   0  0  0  0  0  0  0  0  0  0  0  0
    8.1418    0.4695   22.8842 C   0  0  0  0  0  0  0  0  0  0  0  0
    9.4679   -0.2522   22.9762 C   0  0  0  0  0  0  0  0  0  0  0  0
   10.4034    0.4673   23.9389 C   0  0  0  0  0  0  0  0  0  0  0  0
    9.3000   -1.6738   23.3595 N   0  0  0  0  0  0  0  0  0  0  0  0
   10.0203   -2.6218   22.5141 C   0  0  0  0  0  0  0  0  0  0  0  0
    8.5511   -2.0423   24.4256 C   0  0  0  0  0  0  0  0  0  0  0  0
    8.0154   -1.2177   25.1418 O   0  0  0  0  0  0  0  0  0  0  0  0
    8.3794   -3.5203   24.7215 C   0  0  0  0  0  0  0  0  0  0  0  0
    6.9732   -3.8140   25.2293 C   0  0  0  0  0  0  0  0  0  0  0  0
    6.8225   -5.2848   25.5590 C   0  0  0  0  0  0  0  0  0  0  0  0
    7.8226   -5.6795   26.5475 N   0  0  0  0  0  0  0  0  0  0  0  0
    9.1890   -5.4662   26.0831 C   0  0  0  0  0  0  0  0  0  0  0  0
    9.4032   -3.9932   25.7511 C   0  0  0  0  0  0  0  0  0  0  0  0
    7.5895   -6.4228   27.6502 C   0  0  0  0  0  0  0  0  0  0  0  0
    8.4862   -6.6952   28.4385 O   0  0  0  0  0  0  0  0  0  0  0  0
    6.1700   -6.9033   27.8828 C   0  0  0  0  0  0  0  0  0  0  0  0
    6.1034   -8.0211   29.2516 Cl  0  0  0  0  0  0  0  0  0  0  0  0
    6.8893   -0.2770   20.5954 C   0  0  0  0  0  0  0  0  0  0  0  0
    6.8705   -0.3023   19.2116 C   0  0  0  0  0  0  0  0  0  0  0  0
    6.3231   -1.4061   18.5808 C   0  0  0  0  0  0  0  0  0  0  0  0
    5.8273   -2.4322   19.3533 C   0  0  0  0  0  0  0  0  0  0  0  0
    5.8478   -2.4245   20.6870 N   0  0  0  0  0  0  0  0  0  0  0  0
    6.3785   -1.3567   21.2900 C   0  0  0  0  0  0  0  0  0  0  0  0
  1  2  1  0
  2  3  1  0
  3  4  1  0
  4  5  1  0
  5  6  2  0
  6  7  1  0
  7  8  2  0
  8  9  1  0
  9 10  2  0
 10 11  1  0
 11 12  2  0
 12 13  1  0
  6 14  1  0
 14 15  1  0
 14 16  1  0
 16 17  2  0
 16 18  2  0
 18 19  1  0
 19 20  1  0
 19 21  1  0
 21 22  1  0
 21 23  1  0
 23 24  2  0
 23 25  1  0
 25 26  1  0
 26 27  1  0
 27 28  1  0
 28 29  1  0
 29 30  1  0
 28 31  1  0
 31 32  2  0
 31 33  1  0
 33 34  1  0
 16 35  1  0
 35 36  2  0
 36 37  1  0
 37 38  2  0
 38 39  1  0
 39 40  2  0
 15  4  2  0
 30 25  1  0
 40 35  1  0
 12  7  1  0
M  END
