CVD-0000704|dock_bobby27042020.12|mol2|12|dock3
     RDKit          3D

 18 19  0  0  0  0  0  0  0  0999 V2000
   12.8945   -0.6240   25.8234 N   0  0  0  0  0  0  0  0  0  0  0  0
   13.0423   -0.9427   24.4938 C   0  0  0  0  0  0  0  0  0  0  0  0
   14.2630   -1.3779   23.9911 C   0  0  0  0  0  0  0  0  0  0  0  0
   14.4411   -1.6953   22.7063 N   0  0  0  0  0  0  0  0  0  0  0  0
   13.4009   -1.5888   21.8735 C   0  0  0  0  0  0  0  0  0  0  0  0
   12.1345   -1.1634   22.2709 C   0  0  0  0  0  0  0  0  0  0  0  0
   11.0195   -1.0442   21.4028 N   0  0  0  0  0  0  0  0  0  0  0  0
    9.8368   -0.3549   21.5461 C   0  0  0  0  0  0  0  0  0  0  0  0
    9.5428    0.3174   22.5287 O   0  0  0  0  0  0  0  0  0  0  0  0
    9.0275   -0.5178   20.4445 N   0  0  0  0  0  0  0  0  0  0  0  0
    7.7384   -0.0020   20.1552 C   0  0  0  0  0  0  0  0  0  0  0  0
    6.8276    0.0671   21.2035 C   0  0  0  0  0  0  0  0  0  0  0  0
    5.5500    0.5591   20.9977 C   0  0  0  0  0  0  0  0  0  0  0  0
    5.1613    0.9901   19.7422 C   0  0  0  0  0  0  0  0  0  0  0  0
    6.0678    0.9190   18.7087 C   0  0  0  0  0  0  0  0  0  0  0  0
    5.5882    1.4590   17.1241 Cl  0  0  0  0  0  0  0  0  0  0  0  0
    7.3469    0.4323   18.8892 C   0  0  0  0  0  0  0  0  0  0  0  0
   11.9683   -0.8373   23.6121 C   0  0  0  0  0  0  0  0  0  0  0  0
  1  2  1  0
  2  3  2  0
  3  4  1  0
  4  5  2  0
  5  6  1  0
  6  7  1  0
  7  8  1  0
  8  9  2  0
  8 10  1  0
 10 11  1  0
 11 12  2  0
 12 13  1  0
 13 14  2  0
 14 15  1  0
 15 16  1  0
 15 17  2  0
  6 18  2  0
 18  2  1  0
 17 11  1  0
M  END
