CVD-0003964|dock_bobby27042020.58|mol2|9|dock2
     RDKit          3D

 16 17  0  0  0  0  0  0  0  0999 V2000
    8.8229   -0.6007   23.1950 O   0  0  0  0  0  0  0  0  0  0  0  0
    9.4059   -0.9480   22.1733 C   0  0  0  0  0  0  0  0  0  0  0  0
   10.7965   -1.5556   22.2473 C   0  0  0  0  0  0  0  0  0  0  0  0
   11.4399   -1.4217   23.5561 N   0  0  0  0  0  0  0  0  0  0  0  0
   11.7885   -0.0214   23.8072 C   0  0  0  0  0  0  0  0  0  0  0  0
   12.5092    0.1336   25.1275 C   0  0  0  0  0  0  0  0  0  0  0  0
   13.7224   -0.6956   25.1809 N   0  0  0  0  0  0  0  0  0  0  0  0
   13.3871   -2.0989   24.8892 C   0  0  0  0  0  0  0  0  0  0  0  0
   12.6576   -2.2278   23.5778 C   0  0  0  0  0  0  0  0  0  0  0  0
    8.9254   -0.8560   20.9094 N   0  0  0  0  0  0  0  0  0  0  0  0
    7.6927   -0.3670   20.4099 C   0  0  0  0  0  0  0  0  0  0  0  0
    6.5316   -0.3023   21.1766 C   0  0  0  0  0  0  0  0  0  0  0  0
    5.3596    0.1873   20.6239 C   0  0  0  0  0  0  0  0  0  0  0  0
    5.3279    0.6148   19.3146 C   0  0  0  0  0  0  0  0  0  0  0  0
    6.4712    0.5547   18.5489 C   0  0  0  0  0  0  0  0  0  0  0  0
    7.6488    0.0673   19.0900 C   0  0  0  0  0  0  0  0  0  0  0  0
  1  2  2  0
  2  3  1  0
  3  4  1  0
  4  5  1  0
  5  6  1  0
  6  7  1  0
  7  8  1  0
  8  9  1  0
  2 10  1  0
 10 11  1  0
 11 12  2  0
 12 13  1  0
 13 14  2  0
 14 15  1  0
 15 16  2  0
  9  4  1  0
 16 11  1  0
M  END
