CVD-0001078|dock_bobby27042020.10|mol2|46|dock3
     RDKit          3D

 21 23  0  0  0  0  0  0  0  0999 V2000
    1.6005    3.5369   19.7413 I   0  0  0  0  0  0  0  0  0  0  0  0
    3.2882    2.3333   19.4131 C   0  0  0  0  0  0  0  0  0  0  0  0
    4.0069    2.4623   18.2399 C   0  0  0  0  0  0  0  0  0  0  0  0
    5.1230    1.6711   18.0349 C   0  0  0  0  0  0  0  0  0  0  0  0
    5.5441    0.7463   18.9856 C   0  0  0  0  0  0  0  0  0  0  0  0
    4.7889    0.6246   20.1505 C   0  0  0  0  0  0  0  0  0  0  0  0
    3.6748    1.4151   20.3709 C   0  0  0  0  0  0  0  0  0  0  0  0
    6.7691   -0.0655   18.6904 C   0  0  0  0  0  0  0  0  0  0  0  0
    6.7721   -0.7039   17.6320 O   0  0  0  0  0  0  0  0  0  0  0  0
    7.9576   -0.1596   19.5637 C   0  0  0  0  0  0  0  0  0  0  0  0
    8.1649    0.5650   20.6617 C   0  0  0  0  0  0  0  0  0  0  0  0
    9.3349    0.4865   21.5411 C   0  0  0  0  0  0  0  0  0  0  0  0
    9.5030    1.3519   22.6192 C   0  0  0  0  0  0  0  0  0  0  0  0
   10.5353    1.3136   23.4293 N   0  0  0  0  0  0  0  0  0  0  0  0
   11.4779    0.3563   23.1674 C   0  0  0  0  0  0  0  0  0  0  0  0
   12.6226    0.2435   23.9893 C   0  0  0  0  0  0  0  0  0  0  0  0
   13.5593   -0.7121   23.7243 C   0  0  0  0  0  0  0  0  0  0  0  0
   13.4101   -1.5790   22.6598 C   0  0  0  0  0  0  0  0  0  0  0  0
   12.3216   -1.5063   21.8408 C   0  0  0  0  0  0  0  0  0  0  0  0
   11.3246   -0.5320   22.0764 C   0  0  0  0  0  0  0  0  0  0  0  0
   10.2294   -0.4526   21.2592 N   0  0  0  0  0  0  0  0  0  0  0  0
  1  2  1  0
  2  3  2  0
  3  4  1  0
  4  5  2  0
  5  6  1  0
  6  7  2  0
  5  8  1  0
  8  9  2  0
  8 10  1  0
 10 11  2  0
 11 12  1  0
 12 13  2  0
 13 14  1  0
 14 15  2  0
 15 16  1  0
 16 17  2  0
 17 18  1  0
 18 19  2  0
 19 20  1  0
 20 21  2  0
  7  2  1  0
 21 12  1  0
 20 15  1  0
M  END
