CVD-0002144|dock_bobby27042020.78|mol2|27|dock2
     RDKit          3D

 17 17  0  0  0  0  0  0  0  0999 V2000
   14.1735    5.5816   21.9037 C   0  0  0  0  0  0  0  0  0  0  0  0
   12.8152    5.3306   22.9802 S   0  0  0  0  0  0  0  0  0  0  0  0
   11.6132    5.5584   22.2389 O   0  0  0  0  0  0  0  0  0  0  0  0
   13.0415    6.0968   24.1666 O   0  0  0  0  0  0  0  0  0  0  0  0
   12.8154    3.7864   23.4113 N   0  0  0  0  0  0  0  0  0  0  0  0
   11.5399    3.0873   23.6082 C   0  0  0  0  0  0  0  0  0  0  0  0
   11.0762    2.4440   22.3138 C   0  0  0  0  0  0  0  0  0  0  0  0
   11.1363    0.9362   22.3566 C   0  0  0  0  0  0  0  0  0  0  0  0
   10.0632    0.1676   21.9337 C   0  0  0  0  0  0  0  0  0  0  0  0
   10.1262   -1.2147   21.9801 C   0  0  0  0  0  0  0  0  0  0  0  0
   11.2672   -1.8410   22.4518 C   0  0  0  0  0  0  0  0  0  0  0  0
   12.3529   -1.0939   22.8799 C   0  0  0  0  0  0  0  0  0  0  0  0
   13.6015   -1.7692   23.4004 C   0  0  0  0  0  0  0  0  0  0  0  0
   13.9153   -1.4245   24.8173 C   0  0  0  0  0  0  0  0  0  0  0  0
   14.8080   -2.0725   25.4162 N   0  0  0  0  0  0  0  0  0  0  0  0
   13.2218   -0.4401   25.3459 N   0  0  0  0  0  0  0  0  0  0  0  0
   12.2731    0.2920   22.8282 C   0  0  0  0  0  0  0  0  0  0  0  0
  1  2  1  0
  2  3  2  0
  2  4  2  0
  2  5  1  0
  5  6  1  0
  6  7  1  0
  7  8  1  0
  8  9  2  0
  9 10  1  0
 10 11  2  0
 11 12  1  0
 12 13  1  0
 13 14  1  0
 14 15  1  0
 14 16  2  0
 12 17  2  0
 17  8  1  0
M  END
