CVD-0001870|dock_bobby27042020.51|mol2|10|dock3
     RDKit          3D

 29 30  0  0  0  0  0  0  0  0999 V2000
   10.7570    0.3793   22.0661 C   0  0  0  0  0  0  0  0  0  0  0  0
   11.6470   -0.3917   23.0311 C   0  0  0  0  0  0  0  0  0  0  0  0
   11.6158    0.2614   24.4059 C   0  0  0  0  0  0  0  0  0  0  0  0
   13.0753   -0.4121   22.5056 C   0  0  0  0  0  0  0  0  0  0  0  0
   11.1612   -1.7858   23.1395 N   0  0  0  0  0  0  0  0  0  0  0  0
    9.9753   -2.1716   23.6345 C   0  0  0  0  0  0  0  0  0  0  0  0
    9.1495   -1.3683   24.0610 O   0  0  0  0  0  0  0  0  0  0  0  0
    9.7103   -3.6959   23.6525 C   0  0  0  0  0  0  0  0  0  0  0  0
    8.6188   -4.0894   22.7196 N   0  0  0  0  0  0  0  0  0  0  0  0
    8.1148   -5.3807   22.8455 C   0  0  0  0  0  0  0  0  0  0  0  0
    8.5716   -6.1443   23.6931 O   0  0  0  0  0  0  0  0  0  0  0  0
    7.0220   -5.9493   21.9959 C   0  0  0  0  0  0  0  0  0  0  0  0
    6.2268   -6.9233   22.3585 C   0  0  0  0  0  0  0  0  0  0  0  0
    8.1354   -3.0958   21.8027 C   0  0  0  0  0  0  0  0  0  0  0  0
    8.9998   -2.4198   20.9511 C   0  0  0  0  0  0  0  0  0  0  0  0
    8.5266   -1.4719   20.0612 C   0  0  0  0  0  0  0  0  0  0  0  0
    7.1723   -1.1667   19.9804 C   0  0  0  0  0  0  0  0  0  0  0  0
    6.3125   -1.8452   20.8374 C   0  0  0  0  0  0  0  0  0  0  0  0
    6.7821   -2.7940   21.7283 C   0  0  0  0  0  0  0  0  0  0  0  0
    6.6462   -0.1238   18.9814 C   0  0  0  0  0  0  0  0  0  0  0  0
    5.9564    1.0220   19.7273 C   0  0  0  0  0  0  0  0  0  0  0  0
    7.7882    0.4622   18.1453 C   0  0  0  0  0  0  0  0  0  0  0  0
    5.6355   -0.7486   18.0147 C   0  0  0  0  0  0  0  0  0  0  0  0
    9.5401   -4.2811   25.0543 C   0  0  0  0  0  0  0  0  0  0  0  0
    8.3919   -4.0228   25.7895 C   0  0  0  0  0  0  0  0  0  0  0  0
    8.2433   -4.5485   27.0612 C   0  0  0  0  0  0  0  0  0  0  0  0
    9.2528   -5.3325   27.5700 C   0  0  0  0  0  0  0  0  0  0  0  0
   10.3663   -5.6118   26.8928 N   0  0  0  0  0  0  0  0  0  0  0  0
   10.4848   -5.0923   25.6673 C   0  0  0  0  0  0  0  0  0  0  0  0
  1  2  1  0
  2  3  1  0
  2  4  1  0
  2  5  1  0
  5  6  1  0
  6  7  2  0
  6  8  1  0
  8  9  1  0
  9 10  1  0
 10 11  2  0
 10 12  1  0
 12 13  2  0
  9 14  1  0
 14 15  2  0
 15 16  1  0
 16 17  2  0
 17 18  1  0
 18 19  2  0
 17 20  1  0
 20 21  1  0
 20 22  1  0
 20 23  1  0
  8 24  1  0
 24 25  2  0
 25 26  1  0
 26 27  2  0
 27 28  1  0
 28 29  2  0
 19 14  1  0
 29 24  1  0
M  END
