AAR-POS-dddeddbf-1
     RDKit          3D

 21 23  0  0  0  0  0  0  0  0999 V2000
    9.4150   -1.0260   22.1490 C   0  0  0  0  0  0  0  0  0  0  0  0
   10.4310   -1.1030   23.1940 C   0  0  0  0  0  0  0  0  0  0  0  0
   10.2370   -0.5230   24.3800 C   0  0  0  0  0  0  0  0  0  0  0  0
   11.2710   -0.5840   25.4220 C   0  0  0  0  0  0  0  0  0  0  0  0
   12.4640   -1.2930   25.1780 C   0  0  0  0  0  0  0  0  0  0  0  0
   13.5980   -1.4080   26.0900 N   0  0  0  0  0  0  0  0  0  0  0  0
   14.6970   -2.1250   25.5440 C   0  0  0  0  0  0  0  0  0  0  0  0
   16.1810   -1.9730   26.1060 C   0  0  0  0  0  0  0  0  0  0  0  0
   17.6140   -2.2210   25.7850 C   0  0  0  0  0  0  0  0  0  0  0  0
   19.1560   -2.1170   26.0580 C   0  0  0  0  0  0  0  0  0  0  0  0
   19.4780   -1.6120   26.9090 C   0  0  0  0  0  0  0  0  0  0  0  0
   20.7040   -1.4030   27.3750 N   0  0  0  0  0  0  0  0  0  0  0  0
   18.3590   -1.2850   27.2120 C   0  0  0  0  0  0  0  0  0  0  0  0
   16.6790   -1.3890   26.8770 C   0  0  0  0  0  0  0  0  0  0  0  0
   14.0970   -2.7610   23.9650 S   0  0  0  0  0  0  0  0  0  0  0  0
   12.6150   -1.8900   24.0220 C   0  0  0  0  0  0  0  0  0  0  0  0
   11.7060   -1.8120   22.9750 C   0  0  0  0  0  0  0  0  0  0  0  0
   12.1680   -2.5080   21.4410 S   0  0  0  0  0  0  0  0  0  0  0  0
   12.6960   -1.4610   20.6430 O   0  0  0  0  0  0  0  0  0  0  0  0
   13.1130   -3.5380   21.6600 O   0  0  0  0  0  0  0  0  0  0  0  0
   10.7830   -2.9070   20.7530 O   0  0  0  0  0  0  0  0  0  0  0  0
  1  2  1  0
  2  3  2  0
  3  4  1  0
  4  5  2  0
  5  6  1  0
  6  7  2  0
  7  8  1  0
  8  9  2  0
  9 10  1  0
 10 11  2  0
 11 12  1  0
 11 13  1  0
  8 14  1  0
 13 14  2  0
  7 15  1  0
  5 16  1  0
 15 16  1  0
  2 17  1  0
 16 17  2  0
 17 18  1  0
 18 19  2  0
 18 20  2  0
 18 21  1  0
M  END
