AAR-POS-fca48359-1
     RDKit          3D

 36 39  0  0  0  0  0  0  0  0999 V2000
    6.6840   -6.3560   27.2970 O   0  0  0  0  0  0  0  0  0  0  0  0
    5.5830   -6.2050   26.7920 C   0  0  0  0  0  0  0  0  0  0  0  0
    5.3310   -5.7040   25.5240 N   0  0  0  0  0  0  0  0  0  0  0  0
    5.7260   -4.4320   25.0760 C   0  0  0  0  0  0  0  0  0  0  0  0
    6.9430   -4.2140   24.5610 C   0  0  0  0  0  0  0  0  0  0  0  0
    7.4120   -2.8960   24.1170 C   0  0  0  0  0  0  0  0  0  0  0  0
    8.6900   -2.8490   23.6540 N   0  0  0  0  0  0  0  0  0  0  0  0
    8.9840   -1.6600   22.8460 C   0  0  0  0  0  0  0  0  0  0  0  0
    8.1660   -1.0830   22.1220 O   0  0  0  0  0  0  0  0  0  0  0  0
   10.3770   -1.1440   22.9110 C   0  0  0  0  0  0  0  0  0  0  0  0
   10.6430    0.1420   23.1230 C   0  0  0  0  0  0  0  0  0  0  0  0
   12.0340    0.6280   23.1570 C   0  0  0  0  0  0  0  0  0  0  0  0
   13.0550   -0.4000   22.9510 C   0  0  0  0  0  0  0  0  0  0  0  0
   12.7290   -1.7370   22.7380 C   0  0  0  0  0  0  0  0  0  0  0  0
   11.4230   -2.1500   22.7090 C   0  0  0  0  0  0  0  0  0  0  0  0
    6.5270   -1.8300   24.2100 C   0  0  0  0  0  0  0  0  0  0  0  0
    5.2200   -2.0490   24.7310 C   0  0  0  0  0  0  0  0  0  0  0  0
    4.2710   -0.9710   24.8320 C   0  0  0  0  0  0  0  0  0  0  0  0
    3.2400   -1.2770   25.4210 O   0  0  0  0  0  0  0  0  0  0  0  0
    4.4700    0.2930   24.3330 N   0  0  0  0  0  0  0  0  0  0  0  0
    3.4000    0.6920   23.5410 C   0  0  0  0  0  0  0  0  0  0  0  0
    2.2480    0.9300   24.3000 C   0  0  0  0  0  0  0  0  0  0  0  0
    1.0610    1.3450   23.7030 C   0  0  0  0  0  0  0  0  0  0  0  0
    0.9400    1.5500   22.3160 C   0  0  0  0  0  0  0  0  0  0  0  0
   -0.3670    1.9900   21.8010 N   0  0  0  0  0  0  0  0  0  0  0  0
   -0.4140    2.4150   20.6380 O   0  0  0  0  0  0  0  0  0  0  0  0
   -1.3650    1.7880   22.5080 O   0  0  0  0  0  0  0  0  0  0  0  0
    2.0880    1.3160   21.5210 C   0  0  0  0  0  0  0  0  0  0  0  0
    3.3840    0.8630   22.1550 C   0  0  0  0  0  0  0  0  0  0  0  0
    4.8490   -3.3390   25.1590 C   0  0  0  0  0  0  0  0  0  0  0  0
    4.4090   -6.5910   27.6060 C   0  0  0  0  0  0  0  0  0  0  0  0
    4.5790   -7.3560   28.7400 C   0  0  0  0  0  0  0  0  0  0  0  0
    3.3610   -7.7410   29.5660 C   0  0  0  0  0  0  0  0  0  0  0  0
    2.0010   -7.2690   29.1100 C   0  0  0  0  0  0  0  0  0  0  0  0
    1.9600   -6.4890   27.9290 C   0  0  0  0  0  0  0  0  0  0  0  0
    3.1300   -6.1630   27.2050 C   0  0  0  0  0  0  0  0  0  0  0  0
  1  2  2  0
  2  3  1  0
  3  4  1  0
  4  5  2  0
  5  6  1  0
  6  7  1  0
  7  8  1  0
  8  9  2  0
  8 10  1  0
 10 11  2  0
 11 12  1  0
 12 13  2  0
 13 14  1  0
 10 15  1  0
 14 15  2  0
  6 16  2  0
 16 17  1  0
 17 18  1  0
 18 19  2  0
 18 20  1  0
 20 21  1  0
 21 22  2  0
 22 23  1  0
 23 24  2  0
 24 25  1  0
 25 26  2  0
 25 27  1  0
 24 28  1  0
 21 29  1  0
 28 29  2  0
  4 30  1  0
 17 30  2  0
  2 31  1  0
 31 32  2  0
 32 33  1  0
 33 34  2  0
 34 35  1  0
 31 36  1  0
 35 36  2  0
M  CHG  2  25   1  27  -1
M  END
