AAR-POS-fca48359-4
     RDKit          3D

 31 34  0  0  0  0  0  0  0  0999 V2000
    3.0140    0.7870   32.2310 C   0  0  0  0  0  0  0  0  0  0  0  0
    1.8920   -0.0690   32.4110 O   0  0  0  0  0  0  0  0  0  0  0  0
    1.6290   -0.9070   31.2870 C   0  0  0  0  0  0  0  0  0  0  0  0
    0.6430   -0.4410   30.2730 C   0  0  0  0  0  0  0  0  0  0  0  0
    0.3820   -1.3210   29.1140 C   0  0  0  0  0  0  0  0  0  0  0  0
    1.0690   -2.5480   29.0240 C   0  0  0  0  0  0  0  0  0  0  0  0
    0.8310   -3.3880   27.9320 C   0  0  0  0  0  0  0  0  0  0  0  0
   -0.0920   -4.1990   27.8920 O   0  0  0  0  0  0  0  0  0  0  0  0
    1.8300   -3.1650   26.8740 N   0  0  0  0  0  0  0  0  0  0  0  0
    3.0480   -2.5400   26.9920 C   0  0  0  0  0  0  0  0  0  0  0  0
    3.4910   -2.0590   25.7670 C   0  0  0  0  0  0  0  0  0  0  0  0
    3.8050   -3.1110   24.8840 C   0  0  0  0  0  0  0  0  0  0  0  0
    5.0460   -3.7010   25.1730 C   0  0  0  0  0  0  0  0  0  0  0  0
    5.1300   -4.2910   26.4040 O   0  0  0  0  0  0  0  0  0  0  0  0
    6.0690   -3.7090   24.3380 N   0  0  0  0  0  0  0  0  0  0  0  0
    7.1980   -3.3020   24.9560 C   0  0  0  0  0  0  0  0  0  0  0  0
    7.5160   -1.9920   24.7380 C   0  0  0  0  0  0  0  0  0  0  0  0
    8.1510   -1.9860   23.5070 C   0  0  0  0  0  0  0  0  0  0  0  0
    9.4780   -2.3900   23.3980 C   0  0  0  0  0  0  0  0  0  0  0  0
   10.5870   -1.5480   23.2340 C   0  0  0  0  0  0  0  0  0  0  0  0
   10.5060   -0.1690   23.2350 C   0  0  0  0  0  0  0  0  0  0  0  0
   11.7050    0.7190   23.0470 C   0  0  0  0  0  0  0  0  0  0  0  0
   13.0240   -0.0140   22.8640 C   0  0  0  0  0  0  0  0  0  0  0  0
   13.0120   -1.5010   22.8780 C   0  0  0  0  0  0  0  0  0  0  0  0
   11.8400   -2.1510   23.0540 C   0  0  0  0  0  0  0  0  0  0  0  0
    7.2650   -2.7490   22.5180 C   0  0  0  0  0  0  0  0  0  0  0  0
    6.0230   -3.2250   22.9490 C   0  0  0  0  0  0  0  0  0  0  0  0
    2.7950   -4.2580   25.1360 C   0  0  0  0  0  0  0  0  0  0  0  0
    1.6120   -3.8200   25.5900 C   0  0  0  0  0  0  0  0  0  0  0  0
    1.9960   -2.9450   30.0150 C   0  0  0  0  0  0  0  0  0  0  0  0
    2.2730   -2.1400   31.1290 C   0  0  0  0  0  0  0  0  0  0  0  0
  1  2  1  0
  2  3  1  0
  3  4  2  0
  4  5  1  0
  5  6  2  0
  6  7  1  0
  7  8  2  0
  7  9  1  0
  9 10  1  0
 10 11  1  0
 11 12  1  0
 12 13  1  0
 13 14  2  0
 13 15  1  0
 15 16  1  0
 16 17  1  0
 17 18  1  0
 18 19  1  0
 19 20  1  0
 20 21  2  0
 21 22  1  0
 22 23  2  0
 23 24  1  0
 20 25  1  0
 24 25  2  0
 18 26  1  0
 15 27  1  0
 26 27  1  0
 12 28  1  0
  9 29  1  0
 28 29  1  0
  6 30  1  0
  3 31  1  0
 30 31  2  0
M  END
