AAR-POS-fca48359-2
     RDKit          3D

 27 29  0  0  0  0  0  0  0  0999 V2000
   10.6520   -9.1030   26.4710 O   0  0  0  0  0  0  0  0  0  0  0  0
    9.8700   -9.2570   26.7010 C   0  0  0  0  0  0  0  0  0  0  0  0
    9.7860  -10.7220   28.0220 C   0  0  0  0  0  0  0  0  0  0  0  0
   10.1250  -12.0930   28.4150 C   0  0  0  0  0  0  0  0  0  0  0  0
    9.7930  -12.6340   29.7410 C   0  0  0  0  0  0  0  0  0  0  0  0
   10.4150  -13.8700   30.2520 C   0  0  0  0  0  0  0  0  0  0  0  0
   10.0810  -14.3080   31.4960 C   0  0  0  0  0  0  0  0  0  0  0  0
    9.1240  -13.6720   32.4040 C   0  0  0  0  0  0  0  0  0  0  0  0
    8.4870  -12.4510   31.8510 C   0  0  0  0  0  0  0  0  0  0  0  0
    8.8840  -11.9620   30.4530 C   0  0  0  0  0  0  0  0  0  0  0  0
    9.2470   -7.6830   26.7040 N   0  0  0  0  0  0  0  0  0  0  0  0
    8.7180   -6.6020   25.7600 C   0  0  0  0  0  0  0  0  0  0  0  0
    9.7380   -5.8690   25.0270 C   0  0  0  0  0  0  0  0  0  0  0  0
    9.4350   -4.9220   24.1740 C   0  0  0  0  0  0  0  0  0  0  0  0
    8.1140   -4.5470   23.9240 C   0  0  0  0  0  0  0  0  0  0  0  0
    8.3260   -3.5490   23.0410 C   0  0  0  0  0  0  0  0  0  0  0  0
    7.9690   -2.1120   23.2840 C   0  0  0  0  0  0  0  0  0  0  0  0
    8.4550   -1.0910   22.4530 C   0  0  0  0  0  0  0  0  0  0  0  0
    7.7730   -0.4790   21.6310 O   0  0  0  0  0  0  0  0  0  0  0  0
    9.8300   -0.8220   22.6600 C   0  0  0  0  0  0  0  0  0  0  0  0
   10.0480    0.5610   22.6940 C   0  0  0  0  0  0  0  0  0  0  0  0
   11.4140    1.1740   22.8930 C   0  0  0  0  0  0  0  0  0  0  0  0
   12.5940    0.1460   23.0670 C   0  0  0  0  0  0  0  0  0  0  0  0
   12.3410   -1.1820   23.0360 C   0  0  0  0  0  0  0  0  0  0  0  0
   11.0350   -1.6330   22.8470 C   0  0  0  0  0  0  0  0  0  0  0  0
    7.0590   -5.1770   24.5690 C   0  0  0  0  0  0  0  0  0  0  0  0
    7.3640   -6.2010   25.4870 C   0  0  0  0  0  0  0  0  0  0  0  0
  1  2  2  0
  2  3  1  0
  3  4  2  3
  4  5  1  0
  5  6  2  0
  6  7  1  0
  7  8  2  0
  8  9  1  0
  5 10  1  0
  9 10  2  0
  2 11  1  0
 11 12  1  0
 12 13  2  0
 13 14  1  0
 14 15  2  0
 15 16  1  0
 16 17  2  3
 17 18  1  0
 18 19  2  0
 18 20  1  0
 20 21  2  0
 21 22  1  0
 22 23  2  0
 23 24  1  0
 20 25  1  0
 24 25  2  0
 15 26  1  0
 12 27  1  0
 26 27  2  0
M  END
