AAR-POS-8a4e0f60-4
     RDKit          3D

 28 30  0  0  0  0  0  0  0  0999 V2000
    5.8060   -6.1370   27.6580 C   0  0  0  0  0  0  0  0  0  0  0  0
    5.6430   -4.9310   26.8270 C   0  0  0  0  0  0  0  0  0  0  0  0
    6.1250   -4.8870   25.6930 O   0  0  0  0  0  0  0  0  0  0  0  0
    6.7190   -3.6190   25.3520 C   0  0  0  0  0  0  0  0  0  0  0  0
    7.6650   -3.6360   24.1940 C   0  0  0  0  0  0  0  0  0  0  0  0
    7.6020   -4.5160   23.3500 O   0  0  0  0  0  0  0  0  0  0  0  0
    8.6070   -2.5840   24.1440 N   0  0  0  0  0  0  0  0  0  0  0  0
    9.8360   -2.8460   23.3660 C   0  0  0  0  0  0  0  0  0  0  0  0
   10.5970   -1.5960   23.2240 C   0  0  0  0  0  0  0  0  0  0  0  0
    9.9260   -0.4930   23.3220 C   0  0  0  0  0  0  0  0  0  0  0  0
   10.4780    0.8020   23.2170 C   0  0  0  0  0  0  0  0  0  0  0  0
   11.8810    1.0200   22.9910 C   0  0  0  0  0  0  0  0  0  0  0  0
   12.1200    2.4100   22.9470 C   0  0  0  0  0  0  0  0  0  0  0  0
   13.3000    2.9900   22.7440 N   0  0  0  0  0  0  0  0  0  0  0  0
   13.2100    4.3950   22.6420 C   0  0  0  0  0  0  0  0  0  0  0  0
   14.1590    5.1610   22.6350 O   0  0  0  0  0  0  0  0  0  0  0  0
   12.0140    5.1080   22.5490 C   0  0  0  0  0  0  0  0  0  0  0  0
   11.6620    5.7080   23.7590 N   0  0  0  0  0  0  0  0  0  0  0  0
   12.1900    6.7680   24.1400 N   0  0  0  0  0  0  0  0  0  0  0  0
   11.7290    7.2150   25.3700 N   0  0  0  0  0  0  0  0  0  0  0  0
   10.7950    6.2800   25.7570 C   0  0  0  0  0  0  0  0  0  0  0  0
    9.9560    6.1430   26.9130 C   0  0  0  0  0  0  0  0  0  0  0  0
    9.0550    5.0520   27.0640 C   0  0  0  0  0  0  0  0  0  0  0  0
    8.9860    4.0940   26.0600 C   0  0  0  0  0  0  0  0  0  0  0  0
    9.7890    4.2170   24.9510 C   0  0  0  0  0  0  0  0  0  0  0  0
   10.6870    5.2770   24.7750 C   0  0  0  0  0  0  0  0  0  0  0  0
   12.6910   -0.1390   22.8680 C   0  0  0  0  0  0  0  0  0  0  0  0
   11.9980   -1.5270   22.9910 C   0  0  0  0  0  0  0  0  0  0  0  0
  1  2  1  0
  2  3  1  0
  3  4  1  0
  4  5  1  0
  5  6  2  0
  5  7  1  0
  7  8  1  0
  8  9  1  0
  9 10  2  0
 10 11  1  0
 11 12  2  0
 12 13  1  0
 13 14  1  0
 14 15  1  0
 15 16  2  0
 15 17  1  0
 17 18  1  0
 18 19  1  0
 19 20  2  0
 20 21  1  0
 21 22  1  0
 22 23  2  0
 23 24  1  0
 24 25  2  0
 18 26  1  0
 21 26  2  0
 25 26  1  0
 12 27  1  0
  9 28  1  0
 27 28  2  0
M  END
