AAR-POS-fca48359-8
     RDKit          3D

 34 39  0  0  0  0  0  0  0  0999 V2000
    5.2370   -2.9250   21.8170 O   0  0  0  0  0  0  0  0  0  0  0  0
    5.5110   -3.7670   22.6610 C   0  0  0  0  0  0  0  0  0  0  0  0
    6.9970   -4.2420   22.9420 C   0  0  1  0  0  0  0  0  0  0  0  0
    8.0470   -3.4670   23.7310 C   0  0  0  0  0  0  0  0  0  0  0  0
    9.4600   -2.9360   23.3210 C   0  0  0  0  0  0  0  0  0  0  0  0
    9.2800   -4.1250   23.8650 C   0  0  0  0  0  0  0  0  0  0  0  0
    8.4660   -2.9120   23.4160 N   0  0  0  0  0  0  0  0  0  0  0  0
    9.7840   -2.1040   22.9460 C   0  0  0  0  0  0  0  0  0  0  0  0
   10.3510   -0.9800   22.4490 C   0  0  0  0  0  0  0  0  0  0  0  0
   10.6890   -0.9550   22.4040 C   0  0  0  0  0  0  0  0  0  0  0  0
   12.0920   -0.8520   22.2160 C   0  0  0  0  0  0  0  0  0  0  0  0
   12.2830   -2.2130   22.6940 C   0  0  0  0  0  0  0  0  0  0  0  0
   10.8260   -2.9510   23.1450 C   0  0  0  0  0  0  0  0  0  0  0  0
    8.2380   -5.0480   24.5150 C   0  0  1  0  0  0  0  0  0  0  0  0
    8.0980   -5.6280   25.9760 C   0  0  0  0  0  0  0  0  0  0  0  0
    6.5700   -5.8810   26.2180 C   0  0  0  0  0  0  0  0  0  0  0  0
    6.0890   -6.3640   27.5520 C   0  0  0  0  0  0  0  0  0  0  0  0
    7.1280   -6.6130   28.6670 C   0  0  0  0  0  0  0  0  0  0  0  0
    6.6040   -7.1600   30.2260 Cl  0  0  0  0  0  0  0  0  0  0  0  0
    8.5810   -6.3280   28.2580 C   0  0  0  0  0  0  0  0  0  0  0  0
    8.9820   -5.8670   26.9680 C   0  0  0  0  0  0  0  0  0  0  0  0
    6.9320   -5.2030   23.9380 N   0  0  0  0  0  0  0  0  0  0  0  0
    6.1080   -4.7400   24.9450 C   0  0  0  0  0  0  0  0  0  0  0  0
    6.4650   -4.0730   25.9490 O   0  0  0  0  0  0  0  0  0  0  0  0
    4.6820   -4.9590   24.7090 C   0  0  0  0  0  0  0  0  0  0  0  0
    4.4420   -4.4540   23.3690 N   0  0  0  0  0  0  0  0  0  0  0  0
    3.1180   -4.4800   23.0110 C   0  0  0  0  0  0  0  0  0  0  0  0
    2.6360   -5.9210   22.8930 C   0  0  0  0  0  0  0  0  0  0  0  0
    2.6210   -6.6550   24.2440 C   0  0  0  0  0  0  0  0  0  0  0  0
    1.2800   -7.1460   24.6150 N   0  0  0  0  0  0  0  0  0  0  0  0
    0.7720   -8.4020   24.4540 C   0  0  0  0  0  0  0  0  0  0  0  0
   -0.6310   -8.3170   25.0040 C   0  0  0  0  0  0  0  0  0  0  0  0
   -0.8370   -7.0020   25.4700 N   0  0  0  0  0  0  0  0  0  0  0  0
    0.2910   -6.3970   25.2130 C   0  0  0  0  0  0  0  0  0  0  0  0
  1  2  2  0
  2  3  1  0
  3  4  1  1
  4  5  1  0
  5  6  2  0
  6  7  1  0
  7  8  1  0
  8  9  1  0
  9 10  2  0
 10 11  1  0
 11 12  2  0
  5 13  1  0
  8 13  2  0
 12 13  1  0
  6 14  1  0
 14 15  1  1
 15 16  2  0
 16 17  1  0
 17 18  2  0
 18 19  1  0
 18 20  1  0
 15 21  1  0
 20 21  2  0
  3 22  1  0
 14 22  1  0
 22 23  1  0
 23 24  2  0
 23 25  1  0
  2 26  1  0
 25 26  1  0
 26 27  1  0
 27 28  1  0
 28 29  1  0
 29 30  1  0
 30 31  1  0
 31 32  2  0
 32 33  1  0
 30 34  1  0
 33 34  2  0
M  END
