AAR-POS-fca48359-18
     RDKit          3D

 20 22  0  0  0  0  0  0  0  0999 V2000
    9.0010   -3.1330   22.3120 C   0  0  0  0  0  0  0  0  0  0  0  0
    8.1850   -2.1180   22.8460 C   0  0  1  0  0  0  0  0  0  0  0  0
    7.2300   -2.1990   23.8260 C   0  0  0  0  0  0  0  0  0  0  0  0
    6.5740   -1.2100   24.1490 O   0  0  0  0  0  0  0  0  0  0  0  0
    7.1530   -3.4640   24.3330 O   0  0  0  0  0  0  0  0  0  0  0  0
    9.0870   -0.8980   22.9380 C   0  0  0  0  0  0  0  0  0  0  0  0
    8.4330    0.3860   23.2380 C   0  0  0  0  0  0  0  0  0  0  0  0
    8.9900    1.6050   23.3220 C   0  0  0  0  0  0  0  0  0  0  0  0
   10.4090    1.4550   23.0480 C   0  0  0  0  0  0  0  0  0  0  0  0
   11.1970    2.5010   23.0150 C   0  0  0  0  0  0  0  0  0  0  0  0
   10.3880    3.7940   23.2920 C   0  0  0  0  0  0  0  0  0  0  0  0
   11.5200    4.8040   23.1700 C   0  0  0  0  0  0  0  0  0  0  0  0
   11.0620    6.4450   23.4130 Cl  0  0  0  0  0  0  0  0  0  0  0  0
   12.8650    4.6170   22.8930 C   0  0  0  0  0  0  0  0  0  0  0  0
   13.4730    3.2660   22.6510 C   0  0  0  0  0  0  0  0  0  0  0  0
   12.4770    2.1640   22.7450 C   0  0  0  0  0  0  0  0  0  0  0  0
   12.4220    0.7100   22.6290 N   0  0  0  0  0  0  0  0  0  0  0  0
   13.3690   -0.3760   22.3760 C   0  0  0  0  0  0  0  0  0  0  0  0
   11.0480    0.3210   22.8040 C   0  0  0  0  0  0  0  0  0  0  0  0
   10.4930   -0.9410   22.7290 C   0  0  0  0  0  0  0  0  0  0  0  0
  2  1  1  1
  2  3  1  0
  3  4  2  0
  3  5  1  0
  2  6  1  0
  6  7  2  0
  7  8  1  0
  8  9  2  0
  9 10  1  0
 10 11  2  0
 11 12  1  0
 12 13  1  0
 12 14  2  0
 14 15  1  0
 10 16  1  0
 15 16  2  0
 16 17  1  0
 17 18  1  0
  9 19  1  0
 17 19  1  0
  6 20  1  0
 19 20  2  0
M  END
