AAR-POS-8a4e0f60-5
     RDKit          3D

 33 36  0  0  0  0  0  0  0  0999 V2000
   12.1590   -3.1580   24.6360 C   0  0  0  0  0  0  0  0  0  0  0  0
   11.7050   -2.9580   23.3150 O   0  0  0  0  0  0  0  0  0  0  0  0
   11.7470   -1.6320   23.1930 C   0  0  0  0  0  0  0  0  0  0  0  0
   13.0270   -1.1010   23.1420 C   0  0  0  0  0  0  0  0  0  0  0  0
   12.9720    0.2910   23.0510 C   0  0  0  0  0  0  0  0  0  0  0  0
   11.7660    1.1080   23.0150 C   0  0  0  0  0  0  0  0  0  0  0  0
   10.4830    0.6670   23.0520 C   0  0  0  0  0  0  0  0  0  0  0  0
   10.4090   -0.8400   23.1440 C   0  0  0  0  0  0  0  0  0  0  0  0
    9.1180   -1.3590   23.1720 C   0  0  2  0  0  0  0  0  0  0  0  0
    9.0330   -2.7730   23.6950 C   0  0  0  0  0  0  0  0  0  0  0  0
    7.7230   -2.9830   24.2580 N   0  0  0  0  0  0  0  0  0  0  0  0
    7.1750   -4.3270   24.4750 C   0  0  0  0  0  0  0  0  0  0  0  0
    7.7320   -5.3680   24.1300 O   0  0  0  0  0  0  0  0  0  0  0  0
    5.9640   -4.3950   25.1930 C   0  0  0  0  0  0  0  0  0  0  0  0
    5.1090   -5.1490   24.4270 N   0  0  0  0  0  0  0  0  0  0  0  0
    5.0230   -4.8740   23.0500 N   0  0  0  0  0  0  0  0  0  0  0  0
    4.1120   -5.7590   22.5290 N   0  0  0  0  0  0  0  0  0  0  0  0
    3.6780   -6.5390   23.6150 C   0  0  0  0  0  0  0  0  0  0  0  0
    2.6480   -7.6800   23.5520 C   0  0  0  0  0  0  0  0  0  0  0  0
    2.3280   -8.3920   24.8490 C   0  0  0  0  0  0  0  0  0  0  0  0
    2.9920   -7.9570   26.0060 C   0  0  0  0  0  0  0  0  0  0  0  0
    3.9200   -6.9110   25.9940 C   0  0  0  0  0  0  0  0  0  0  0  0
    4.2510   -6.2230   24.8290 C   0  0  0  0  0  0  0  0  0  0  0  0
    8.5550   -1.3390   21.8190 N   0  0  0  0  0  0  0  0  0  0  0  0
    7.4950   -0.6580   21.3310 C   0  0  0  0  0  0  0  0  0  0  0  0
    6.7260   -0.1210   22.1270 O   0  0  0  0  0  0  0  0  0  0  0  0
    7.3310   -0.5880   19.9480 C   0  0  0  0  0  0  0  0  0  0  0  0
    6.0950   -0.8620   19.6520 N   0  0  0  0  0  0  0  0  0  0  0  0
    5.4710    0.1880   19.1050 C   0  0  0  0  0  0  0  0  0  0  0  0
    5.8210    0.7230   17.9500 N   0  0  0  0  0  0  0  0  0  0  0  0
    4.9940    1.7920   17.7080 C   0  0  0  0  0  0  0  0  0  0  0  0
    4.0300    2.0460   18.6760 C   0  0  0  0  0  0  0  0  0  0  0  0
    4.1420    0.9210   19.9380 S   0  0  0  0  0  0  0  0  0  0  0  0
  1  2  1  0
  2  3  1  0
  3  4  2  0
  4  5  1  0
  5  6  2  0
  6  7  1  0
  3  8  1  0
  7  8  2  0
  8  9  1  0
  9 10  1  6
 10 11  1  0
 11 12  1  0
 12 13  2  0
 12 14  1  0
 14 15  1  0
 15 16  1  0
 16 17  2  0
 17 18  1  0
 18 19  1  0
 19 20  2  0
 20 21  1  0
 21 22  2  0
 15 23  1  0
 18 23  2  0
 22 23  1  0
  9 24  1  0
 24 25  1  0
 25 26  2  0
 25 27  1  0
 27 28  1  0
 28 29  1  0
 29 30  2  0
 30 31  1  0
 31 32  2  0
 29 33  1  0
 32 33  1  0
M  END
