AAR-POS-fca48359-21
     RDKit          3D

 12 12  0  0  0  0  0  0  0  0999 V2000
    7.8830   -1.2790   22.7020 O   0  0  0  0  0  0  0  0  0  0  0  0
    8.7430   -1.9200   23.3180 C   0  0  0  0  0  0  0  0  0  0  0  0
    8.5710   -3.1100   23.9440 O   0  0  0  0  0  0  0  0  0  0  0  0
   10.1390   -1.4180   23.4440 C   0  0  0  0  0  0  0  0  0  0  0  0
   11.1470   -1.8830   22.4730 C   0  0  0  0  0  0  0  0  0  0  0  0
   12.5690   -1.4580   22.5200 C   0  0  2  0  0  0  0  0  0  0  0  0
   13.2560   -2.2740   23.1180 O   0  0  0  0  0  0  0  0  0  0  0  0
   12.8830   -0.2190   23.3250 C   0  0  1  0  0  0  0  0  0  0  0  0
   13.1440    0.8190   22.4670 O   0  0  0  0  0  0  0  0  0  0  0  0
   11.8380    0.1720   24.0620 C   0  0  1  0  0  0  0  0  0  0  0  0
   11.4810    1.4340   23.5200 O   0  0  0  0  0  0  0  0  0  0  0  0
   10.5990   -0.5310   24.4320 C   0  0  0  0  0  0  0  0  0  0  0  0
  1  2  2  0
  2  3  1  0
  2  4  1  0
  4  5  2  0
  5  6  1  0
  6  7  1  1
  6  8  1  0
  8  9  1  6
  8 10  1  0
 10 11  1  6
  4 12  1  0
 10 12  1  0
M  END
