AAR-POS-8a4e0f60-1
     RDKit          3D

 28 31  0  0  0  0  0  0  0  0999 V2000
    8.0720   -4.2110   25.9070 C   0  0  0  0  0  0  0  0  0  0  0  0
    7.5720   -3.3490   24.7950 C   0  0  0  0  0  0  0  0  0  0  0  0
    8.5170   -2.7910   23.8230 N   0  0  0  0  0  0  0  0  0  0  0  0
    8.2400   -1.6060   23.1860 C   0  0  0  0  0  0  0  0  0  0  0  0
    9.1520   -0.4850   23.2650 C   0  0  0  0  0  0  0  0  0  0  0  0
    8.7200    0.2810   24.2860 C   0  0  0  0  0  0  0  0  0  0  0  0
    9.3250    1.4730   24.6950 C   0  0  0  0  0  0  0  0  0  0  0  0
   10.2950    1.8390   24.0350 C   0  0  0  0  0  0  0  0  0  0  0  0
   10.8110    1.1620   22.9510 C   0  0  0  0  0  0  0  0  0  0  0  0
   11.7410    2.1900   22.7310 C   0  0  0  0  0  0  0  0  0  0  0  0
   11.0890    3.3830   22.4140 C   0  0  0  0  0  0  0  0  0  0  0  0
   11.6860    4.5780   22.1900 C   0  0  0  0  0  0  0  0  0  0  0  0
   12.8080    4.7030   22.2470 N   0  0  0  0  0  0  0  0  0  0  0  0
   13.5030    3.5920   22.5450 C   0  0  0  0  0  0  0  0  0  0  0  0
   13.0480    2.2670   22.8020 C   0  0  0  0  0  0  0  0  0  0  0  0
   10.2970   -0.0740   22.5040 C   0  0  0  0  0  0  0  0  0  0  0  0
    8.7420   -3.3820   22.6630 C   0  0  0  0  0  0  0  0  0  0  0  0
    8.1840   -4.4400   22.3600 O   0  0  0  0  0  0  0  0  0  0  0  0
    9.6120   -2.6120   21.8510 C   0  0  0  0  0  0  0  0  0  0  0  0
   10.8730   -2.4270   22.3780 N   0  0  0  0  0  0  0  0  0  0  0  0
   11.7650   -1.8390   21.7370 N   0  0  0  0  0  0  0  0  0  0  0  0
   12.9670   -1.7510   22.3920 N   0  0  0  0  0  0  0  0  0  0  0  0
   12.6930   -2.3960   23.5630 C   0  0  0  0  0  0  0  0  0  0  0  0
   13.4670   -2.6850   24.6710 C   0  0  0  0  0  0  0  0  0  0  0  0
   13.0220   -3.3860   25.8060 C   0  0  0  0  0  0  0  0  0  0  0  0
   11.5680   -3.8390   25.8160 C   0  0  0  0  0  0  0  0  0  0  0  0
   10.7640   -3.5580   24.7370 C   0  0  0  0  0  0  0  0  0  0  0  0
   11.3500   -2.8250   23.5730 C   0  0  0  0  0  0  0  0  0  0  0  0
  1  2  1  0
  2  3  1  0
  3  4  1  0
  4  5  1  0
  5  6  2  0
  6  7  1  0
  7  8  2  0
  8  9  1  0
  9 10  1  0
 10 11  2  0
 11 12  1  0
 12 13  2  0
 13 14  1  0
 10 15  1  0
 14 15  2  0
  5 16  1  0
  9 16  2  0
  3 17  1  0
 17 18  2  0
 17 19  1  0
 19 20  1  0
 20 21  1  0
 21 22  2  0
 22 23  1  0
 23 24  1  0
 24 25  2  0
 25 26  1  0
 26 27  2  0
 20 28  1  0
 23 28  2  0
 27 28  1  0
M  END
