AAR-POS-8a4e0f60-8
     RDKit          3D

 28 31  0  0  0  0  0  0  0  0999 V2000
    6.7030   -2.2350   23.7320 C   0  0  0  0  0  0  0  0  0  0  0  0
    7.7780   -3.0010   23.3870 N   0  0  0  0  0  0  0  0  0  0  0  0
    8.8600   -2.5890   22.5190 C   0  0  0  0  0  0  0  0  0  0  0  0
    9.8450   -1.7570   22.9160 C   0  0  0  0  0  0  0  0  0  0  0  0
    9.5950   -0.3840   23.4360 C   0  0  0  0  0  0  0  0  0  0  0  0
   10.6140    0.4430   23.8780 C   0  0  0  0  0  0  0  0  0  0  0  0
   11.9800   -0.0210   23.8390 C   0  0  0  0  0  0  0  0  0  0  0  0
   12.8710    0.8560   24.2480 O   0  0  0  0  0  0  0  0  0  0  0  0
   13.1860    1.3090   22.9860 C   0  0  0  0  0  0  0  0  0  0  0  0
   12.5400    0.1630   22.4100 C   0  0  0  0  0  0  0  0  0  0  0  0
   11.0790    0.0550   22.3150 C   0  0  0  0  0  0  0  0  0  0  0  0
   10.6840   -1.1150   21.7430 C   0  0  0  0  0  0  0  0  0  0  0  0
   11.7270   -1.9240   21.3900 C   0  0  0  0  0  0  0  0  0  0  0  0
   13.2890   -1.2700   21.7560 S   0  0  0  0  0  0  0  0  0  0  0  0
   12.2980   -1.3300   23.3490 C   0  0  0  0  0  0  0  0  0  0  0  0
   11.2180   -2.1740   22.8860 C   0  0  0  0  0  0  0  0  0  0  0  0
    7.9540   -4.0820   24.4530 C   0  0  0  0  0  0  0  0  0  0  0  0
    8.8420   -4.9200   24.4990 O   0  0  0  0  0  0  0  0  0  0  0  0
    6.9660   -4.0380   25.4990 C   0  0  0  0  0  0  0  0  0  0  0  0
    5.8520   -4.5930   24.9890 N   0  0  0  0  0  0  0  0  0  0  0  0
    4.6270   -4.6190   25.5650 N   0  0  0  0  0  0  0  0  0  0  0  0
    3.8480   -5.2260   24.7710 N   0  0  0  0  0  0  0  0  0  0  0  0
    4.6190   -5.5840   23.6800 C   0  0  0  0  0  0  0  0  0  0  0  0
    4.2960   -6.2470   22.5410 C   0  0  0  0  0  0  0  0  0  0  0  0
    5.2680   -6.4900   21.5660 C   0  0  0  0  0  0  0  0  0  0  0  0
    6.6050   -6.1030   21.6620 C   0  0  0  0  0  0  0  0  0  0  0  0
    6.9300   -5.3850   22.9050 C   0  0  0  0  0  0  0  0  0  0  0  0
    5.9080   -5.1830   23.8130 C   0  0  0  0  0  0  0  0  0  0  0  0
  1  2  1  0
  2  3  1  0
  3  4  1  0
  4  5  2  0
  5  6  1  0
  6  7  2  0
  7  8  1  0
  8  9  1  0
  9 10  1  0
 10 11  2  0
 11 12  1  0
 12 13  2  0
 10 14  1  0
 13 14  1  0
  7 15  1  0
  4 16  1  0
 15 16  2  0
  2 17  1  0
 17 18  2  0
 17 19  1  0
 19 20  1  0
 20 21  1  0
 21 22  2  0
 22 23  1  0
 23 24  1  0
 24 25  2  0
 25 26  1  0
 26 27  2  0
 20 28  1  0
 23 28  2  0
 27 28  1  0
M  END
