AAR-POS-8a4e0f60-11
     RDKit          3D

 28 31  0  0  0  0  0  0  0  0999 V2000
    6.3080   -3.9940   25.6380 C   0  0  0  0  0  0  0  0  0  0  0  0
    6.5800   -3.4820   24.3690 N   0  0  0  0  0  0  0  0  0  0  0  0
    5.6600   -3.4750   23.3400 C   0  0  0  0  0  0  0  0  0  0  0  0
    4.9830   -4.6240   23.2620 C   0  0  0  0  0  0  0  0  0  0  0  0
    5.3170   -5.5870   22.3480 N   0  0  0  0  0  0  0  0  0  0  0  0
    4.4470   -6.6250   22.5330 N   0  0  0  0  0  0  0  0  0  0  0  0
    3.6130   -6.3200   23.5110 C   0  0  0  0  0  0  0  0  0  0  0  0
    2.4400   -7.1010   24.1400 C   0  0  0  0  0  0  0  0  0  0  0  0
    1.7240   -6.3600   25.2670 C   0  0  0  0  0  0  0  0  0  0  0  0
    2.1130   -5.1010   25.6720 C   0  0  0  0  0  0  0  0  0  0  0  0
    3.1840   -4.4510   25.0690 C   0  0  0  0  0  0  0  0  0  0  0  0
    3.9070   -5.0430   24.0210 N   0  0  0  0  0  0  0  0  0  0  0  0
    7.8910   -3.1900   23.9900 C   0  0  0  0  0  0  0  0  0  0  0  0
    8.8010   -3.9960   24.0550 O   0  0  0  0  0  0  0  0  0  0  0  0
    8.1340   -1.9200   23.5130 N   0  0  0  0  0  0  0  0  0  0  0  0
    6.9990   -0.9900   23.3440 C   0  0  0  0  0  0  0  0  0  0  0  0
    6.7920   -0.7580   21.9750 C   0  0  0  0  0  0  0  0  0  0  0  0
    5.6510   -1.4490   21.2680 C   0  0  0  0  0  0  0  0  0  0  0  0
    5.6310   -1.0890   19.9240 C   0  0  0  0  0  0  0  0  0  0  0  0
    6.6930   -0.1700   19.6060 C   0  0  0  0  0  0  0  0  0  0  0  0
    7.6960    0.2490   20.9380 S   0  0  0  0  0  0  0  0  0  0  0  0
    9.4340   -1.4210   23.3360 C   0  0  0  0  0  0  0  0  0  0  0  0
    9.6880    0.0590   23.3270 C   0  0  0  0  0  0  0  0  0  0  0  0
   10.9130    0.6200   23.1590 C   0  0  0  0  0  0  0  0  0  0  0  0
   11.9120   -0.2790   23.0020 C   0  0  0  0  0  0  0  0  0  0  0  0
   13.4570    0.5490   22.7930 Br  0  0  0  0  0  0  0  0  0  0  0  0
   11.9600   -1.6100   22.9730 C   0  0  0  0  0  0  0  0  0  0  0  0
   10.6480   -2.2920   23.1490 C   0  0  0  0  0  0  0  0  0  0  0  0
  1  2  1  0
  2  3  1  0
  3  4  1  0
  4  5  2  0
  5  6  1  0
  6  7  2  0
  7  8  1  0
  8  9  2  0
  9 10  1  0
 10 11  2  0
  4 12  1  0
  7 12  1  0
 11 12  1  0
  2 13  1  0
 13 14  2  0
 13 15  1  0
 15 16  1  0
 16 17  1  0
 17 18  2  0
 18 19  1  0
 19 20  2  0
 17 21  1  0
 20 21  1  0
 15 22  1  0
 22 23  2  0
 23 24  1  0
 24 25  2  0
 25 26  1  0
 25 27  1  0
 22 28  1  0
 27 28  2  0
M  END
