AAR-POS-dddeddbf-3
     RDKit          3D

 18 19  0  0  0  0  0  0  0  0999 V2000
    4.8810   -2.3510   19.2770 N   0  0  0  0  0  0  0  0  0  0  0  0
    5.5670   -2.4690   20.2020 C   0  0  0  0  0  0  0  0  0  0  0  0
    5.3460   -3.4680   21.0710 N   0  0  0  0  0  0  0  0  0  0  0  0
    6.1980   -3.5440   22.1140 C   0  0  0  0  0  0  0  0  0  0  0  0
    7.3300   -2.5910   22.3240 C   0  0  0  0  0  0  0  0  0  0  0  0
    8.3730   -2.7670   23.6830 S   0  0  0  0  0  0  0  0  0  0  0  0
    7.6960   -2.0920   24.7710 O   0  0  0  0  0  0  0  0  0  0  0  0
    8.6770   -4.1670   23.7330 O   0  0  0  0  0  0  0  0  0  0  0  0
    9.9290   -1.8380   23.4370 C   0  0  0  0  0  0  0  0  0  0  0  0
    9.7410   -0.4630   23.3780 C   0  0  0  0  0  0  0  0  0  0  0  0
   10.8060    0.3900   23.1960 C   0  0  0  0  0  0  0  0  0  0  0  0
   12.0790   -0.0970   23.0780 C   0  0  0  0  0  0  0  0  0  0  0  0
   13.1460    1.2360   22.8880 Cl  0  0  0  0  0  0  0  0  0  0  0  0
   12.4280   -1.5520   23.1190 C   0  0  0  0  0  0  0  0  0  0  0  0
   11.2080   -2.3990   23.3170 C   0  0  0  0  0  0  0  0  0  0  0  0
    7.4440   -1.6130   21.3730 C   0  0  0  0  0  0  0  0  0  0  0  0
    8.3630   -0.6840   21.3680 N   0  0  0  0  0  0  0  0  0  0  0  0
    6.5510   -1.5530   20.3080 N   0  0  0  0  0  0  0  0  0  0  0  0
  1  2  1  0
  2  3  2  0
  3  4  1  0
  4  5  2  0
  6  5  1  0
  6  7  2  0
  6  8  2  0
  6  9  1  0
  9 10  2  0
 10 11  1  0
 11 12  2  0
 12 13  1  0
 12 14  1  0
  9 15  1  0
 14 15  2  0
  5 16  1  0
 16 17  1  0
  2 18  1  0
 16 18  2  0
M  END
