AAR-POS-fca48359-22
     RDKit          3D

 22 25  0  0  0  0  0  0  0  0999 V2000
   14.8080   -4.6170   21.4300 C   0  0  0  0  0  0  0  0  0  0  0  0
   14.0070   -3.4760   22.6160 C   0  0  2  0  0  0  0  0  0  0  0  0
   13.3410   -3.3370   24.0150 C   0  0  0  0  0  0  0  0  0  0  0  0
   12.1720   -3.5670   23.9900 O   0  0  0  0  0  0  0  0  0  0  0  0
   12.1960   -2.5670   23.1620 C   0  0  0  0  0  0  0  0  0  0  0  0
   13.2580   -2.3910   22.3210 C   0  0  0  0  0  0  0  0  0  0  0  0
   13.4100   -1.2780   21.6240 C   0  0  0  0  0  0  0  0  0  0  0  0
   13.7830   -1.1650   20.4610 O   0  0  0  0  0  0  0  0  0  0  0  0
   13.0460   -0.2840   22.5090 C   0  0  0  0  0  0  0  0  0  0  0  0
   13.7460    0.6490   22.8300 O   0  0  0  0  0  0  0  0  0  0  0  0
   11.7870   -0.5390   22.9370 C   0  0  0  0  0  0  0  0  0  0  0  0
   11.3180   -1.7470   23.2370 C   0  0  0  0  0  0  0  0  0  0  0  0
   10.0840   -2.1280   23.5950 C   0  0  0  0  0  0  0  0  0  0  0  0
    9.2620   -1.0290   23.5970 C   0  0  0  0  0  0  0  0  0  0  0  0
    9.7540    0.2200   23.3020 C   0  0  0  0  0  0  0  0  0  0  0  0
   11.0770    0.5250   22.9910 C   0  0  0  0  0  0  0  0  0  0  0  0
   11.4950    1.7950   22.7680 C   0  0  0  0  0  0  0  0  0  0  0  0
   10.4900    2.7140   22.6680 C   0  0  0  0  0  0  0  0  0  0  0  0
    9.2520    2.1520   22.3100 C   0  0  0  0  0  0  0  0  0  0  0  0
    8.6920    1.1940   23.2990 C   0  0  0  0  0  0  0  0  0  0  0  0
    7.6280    0.1130   22.9560 C   0  0  0  0  0  0  0  0  0  0  0  0
    8.2140    2.1180   24.4490 C   0  0  0  0  0  0  0  0  0  0  0  0
  2  1  1  6
  2  3  1  0
  3  4  1  0
  4  5  1  0
  2  6  1  0
  5  6  2  0
  6  7  1  0
  7  8  2  0
  7  9  1  0
  9 10  2  0
  9 11  1  0
  5 12  1  0
 11 12  2  0
 12 13  1  0
 13 14  2  0
 14 15  1  0
 11 16  1  0
 15 16  2  0
 16 17  1  0
 17 18  1  0
 18 19  1  0
 15 20  1  0
 19 20  1  0
 20 21  1  0
 20 22  1  0
M  END
