AAR-POS-fca48359-17
     RDKit          3D

 11 11  0  0  0  0  0  0  0  0999 V2000
   13.4280    0.8550   22.8020 C   0  0  0  0  0  0  0  0  0  0  0  0
   13.0900   -0.4080   22.1910 C   0  0  0  0  0  0  0  0  0  0  0  0
   13.4970   -1.3940   21.3490 C   0  0  0  0  0  0  0  0  0  0  0  0
   11.7730   -0.7650   22.6200 C   0  0  0  0  0  0  0  0  0  0  0  0
   10.9780    0.0410   23.4870 C   0  0  0  0  0  0  0  0  0  0  0  0
    9.6450    0.0680   23.2720 C   0  0  0  0  0  0  0  0  0  0  0  0
    9.1090   -1.3560   23.2300 C   0  0  1  0  0  0  0  0  0  0  0  0
    7.8130   -1.2710   23.6260 C   0  0  0  0  0  0  0  0  0  0  0  0
    9.7290   -2.0250   22.0840 C   0  0  0  0  0  0  0  0  0  0  0  0
   11.1920   -2.0040   22.1460 C   0  0  0  0  0  0  0  0  0  0  0  0
   11.8900   -2.9390   21.8410 O   0  0  0  0  0  0  0  0  0  0  0  0
  1  2  1  0
  2  3  1  0
  2  4  2  3
  4  5  1  0
  5  6  1  0
  6  7  1  0
  7  8  1  6
  7  9  1  0
  4 10  1  0
  9 10  1  0
 10 11  2  0
M  END
