AAR-POS-fca48359-23
     RDKit          3D

 43 47  0  0  0  0  0  0  0  0999 V2000
    9.5760   -6.3820   26.3090 C   0  0  0  0  0  0  0  0  0  0  0  0
    9.5610   -6.5210   25.1010 O   0  0  0  0  0  0  0  0  0  0  0  0
    8.9480   -5.5320   24.5630 C   0  0  0  0  0  0  0  0  0  0  0  0
    9.4230   -4.4910   25.0960 C   0  0  0  0  0  0  0  0  0  0  0  0
    8.9450   -3.2380   24.7120 C   0  0  0  0  0  0  0  0  0  0  0  0
    7.9580   -3.2070   23.7450 C   0  0  0  0  0  0  0  0  0  0  0  0
    7.5660   -1.9250   23.4130 C   0  0  2  0  0  0  0  0  0  0  0  0
    7.3880   -1.7720   22.1420 C   0  0  0  0  0  0  0  0  0  0  0  0
    7.3420   -0.3780   21.8010 C   0  0  0  0  0  0  0  0  0  0  0  0
    6.4000    0.1330   21.2010 O   0  0  0  0  0  0  0  0  0  0  0  0
    8.5010    0.3400   22.2400 C   0  0  0  0  0  0  0  0  0  0  0  0
    8.9010    1.5450   21.7270 C   0  0  0  0  0  0  0  0  0  0  0  0
    8.2040    2.1830   20.7500 O   0  0  0  0  0  0  0  0  0  0  0  0
   10.0270    2.1900   22.1500 C   0  0  0  0  0  0  0  0  0  0  0  0
   10.7730    1.6370   23.1000 C   0  0  0  0  0  0  0  0  0  0  0  0
   11.8460    2.1500   23.5310 O   0  0  0  0  0  0  0  0  0  0  0  0
   12.5080    3.2300   22.8080 C   0  0  2  0  0  0  0  0  0  0  0  0
   13.9320    3.4750   23.1090 O   0  0  0  0  0  0  0  0  0  0  0  0
   14.4270    4.7690   23.7090 C   0  0  1  0  0  0  0  0  0  0  0  0
   16.3210    4.7360   24.4220 C   0  0  0  0  0  0  0  0  0  0  0  0
   17.8840    4.6500   23.8780 O   0  0  0  0  0  0  0  0  0  0  0  0
   19.2580    5.5230   24.2010 C   0  0  1  0  0  0  0  0  0  0  0  0
   19.7850    4.9600   25.4380 O   0  0  0  0  0  0  0  0  0  0  0  0
   21.1840    4.8210   25.7600 C   0  0  2  0  0  0  0  0  0  0  0  0
   21.2020    4.9770   27.1490 C   0  0  0  0  0  0  0  0  0  0  0  0
   21.9350    5.7110   25.0110 C   0  0  1  0  0  0  0  0  0  0  0  0
   23.3280    5.3930   25.1180 O   0  0  0  0  0  0  0  0  0  0  0  0
   21.6420    5.6960   23.5330 C   0  0  2  0  0  0  0  0  0  0  0  0
   22.3870    6.8040   23.0030 O   0  0  0  0  0  0  0  0  0  0  0  0
   20.2980    5.9730   23.2820 C   0  0  2  0  0  0  0  0  0  0  0  0
   20.3480    7.4060   23.3880 O   0  0  0  0  0  0  0  0  0  0  0  0
   13.7830    5.7480   22.6070 C   0  0  2  0  0  0  0  0  0  0  0  0
   13.7030    7.1240   23.0020 O   0  0  0  0  0  0  0  0  0  0  0  0
   12.4650    5.4470   22.2710 C   0  0  2  0  0  0  0  0  0  0  0  0
   11.6080    6.5710   22.1710 O   0  0  0  0  0  0  0  0  0  0  0  0
   11.7560    4.4880   23.1570 C   0  0  1  0  0  0  0  0  0  0  0  0
   10.3500    4.4860   22.8600 O   0  0  0  0  0  0  0  0  0  0  0  0
   10.2690    0.3730   23.6190 C   0  0  0  0  0  0  0  0  0  0  0  0
    9.1770   -0.2310   23.1880 C   0  0  0  0  0  0  0  0  0  0  0  0
    8.8460   -1.3840   23.7650 O   0  0  0  0  0  0  0  0  0  0  0  0
    7.4430   -4.3690   23.1660 C   0  0  0  0  0  0  0  0  0  0  0  0
    7.9540   -5.5710   23.5870 C   0  0  0  0  0  0  0  0  0  0  0  0
    7.4910   -6.7420   23.0520 O   0  0  0  0  0  0  0  0  0  0  0  0
  1  2  1  0
  2  3  1  0
  3  4  2  0
  4  5  1  0
  5  6  2  0
  7  6  1  6
  7  8  1  0
  8  9  1  0
  9 10  2  0
  9 11  1  0
 11 12  2  0
 12 13  1  0
 12 14  1  0
 14 15  2  0
 15 16  1  0
 17 16  1  1
 17 18  1  0
 18 19  1  0
 19 20  1  6
 20 21  1  0
 22 21  1  6
 22 23  1  0
 23 24  1  0
 24 25  1  1
 24 26  1  0
 26 27  1  6
 26 28  1  0
 28 29  1  6
 22 30  1  0
 28 30  1  0
 30 31  1  1
 19 32  1  0
 32 33  1  1
 32 34  1  0
 34 35  1  1
 17 36  1  0
 34 36  1  0
 36 37  1  6
 15 38  1  0
 11 39  1  0
 38 39  2  0
  7 40  1  0
 39 40  1  0
  6 41  1  0
  3 42  1  0
 41 42  2  0
 42 43  1  0
M  END
