ABB-MCD-f549d731-1
     RDKit          3D

 36 39  0  0  0  0  0  0  0  0999 V2000
    4.8980   -0.2920   25.9070 O   0  0  0  0  0  0  0  0  0  0  0  0
    5.9180   -0.0090   25.2880 C   0  0  0  0  0  0  0  0  0  0  0  0
    6.0750    1.1270   24.4800 N   0  0  0  0  0  0  0  0  0  0  0  0
    6.4060    1.2080   23.1430 C   0  0  0  0  0  0  0  0  0  0  0  0
    7.7160    1.3260   22.8490 C   0  0  0  0  0  0  0  0  0  0  0  0
    8.1670    1.4160   21.4320 C   0  0  0  0  0  0  0  0  0  0  0  0
    7.0900    1.3670   20.3630 C   0  0  0  0  0  0  0  0  0  0  0  0
    5.6430    1.2350   20.8020 C   0  0  0  0  0  0  0  0  0  0  0  0
    4.3750    1.1750   19.6420 Cl  0  0  0  0  0  0  0  0  0  0  0  0
    5.3720    1.1610   22.1740 C   0  0  0  0  0  0  0  0  0  0  0  0
    7.0780   -0.8230   25.3600 N   0  0  0  0  0  0  0  0  0  0  0  0
    7.5660   -1.3920   24.2810 C   0  0  0  0  0  0  0  0  0  0  0  0
    8.9190   -1.6660   24.0750 C   0  0  0  0  0  0  0  0  0  0  0  0
    9.4540   -2.2430   22.9740 N   0  0  0  0  0  0  0  0  0  0  0  0
    8.5770   -2.5710   22.0060 C   0  0  0  0  0  0  0  0  0  0  0  0
    7.2000   -2.3500   22.1040 C   0  0  0  0  0  0  0  0  0  0  0  0
    6.3340   -2.7700   20.9240 C   0  0  0  0  0  0  0  0  0  0  0  0
    6.0670   -4.1440   20.8430 C   0  0  0  0  0  0  0  0  0  0  0  0
    5.4260   -4.5350   19.8680 O   0  0  0  0  0  0  0  0  0  0  0  0
    6.4900   -5.0330   21.8160 N   0  0  0  0  0  0  0  0  0  0  0  0
    7.1940   -4.6830   23.0440 C   0  0  0  0  0  0  0  0  0  0  0  0
    6.2400   -4.3310   23.9770 C   0  0  0  0  0  0  0  0  0  0  0  0
    5.3280   -5.4610   24.3140 N   0  0  0  0  0  0  0  0  0  0  0  0
    4.6350   -5.5610   25.8870 S   0  0  0  0  0  0  0  0  0  0  0  0
    3.9720   -6.8450   25.9660 O   0  0  0  0  0  0  0  0  0  0  0  0
    5.6210   -5.2060   26.8820 O   0  0  0  0  0  0  0  0  0  0  0  0
    3.3610   -4.3010   25.8830 C   0  0  0  0  0  0  0  0  0  0  0  0
    2.0100   -4.6890   25.7900 C   0  0  0  0  0  0  0  0  0  0  0  0
    1.0120   -3.7190   25.8010 C   0  0  0  0  0  0  0  0  0  0  0  0
    1.2090   -2.3830   25.8960 C   0  0  0  0  0  0  0  0  0  0  0  0
    2.6370   -1.8920   25.9900 C   0  0  0  0  0  0  0  0  0  0  0  0
    2.9190   -0.5880   26.0830 F   0  0  0  0  0  0  0  0  0  0  0  0
    3.6890   -2.9590   25.9760 C   0  0  0  0  0  0  0  0  0  0  0  0
    4.6610   -6.1300   23.1740 C   0  0  0  0  0  0  0  0  0  0  0  0
    5.6450   -6.1740   22.0230 C   0  0  0  0  0  0  0  0  0  0  0  0
    6.6940   -1.7500   23.2590 C   0  0  0  0  0  0  0  0  0  0  0  0
  1  2  2  0
  2  3  1  0
  3  4  1  0
  4  5  2  0
  5  6  1  0
  6  7  2  0
  7  8  1  0
  8  9  1  0
  4 10  1  0
  8 10  2  0
  2 11  1  0
 11 12  1  0
 12 13  2  0
 13 14  1  0
 14 15  2  0
 15 16  1  0
 16 17  1  0
 17 18  1  0
 18 19  2  0
 18 20  1  0
 20 21  1  0
 21 22  1  0
 22 23  1  0
 23 24  1  0
 24 25  2  0
 24 26  2  0
 24 27  1  0
 27 28  2  0
 28 29  1  0
 29 30  2  0
 30 31  1  0
 31 32  1  0
 27 33  1  0
 31 33  2  0
 23 34  1  0
 20 35  1  0
 34 35  1  0
 12 36  1  0
 16 36  2  0
M  END
