ABH-HOE-1cbf6cd9-4
     RDKit          3D

 51 52  0  0  0  0  0  0  0  0999 V2000
    6.6970   -0.7740   29.8310 C   0  0  0  0  0  0  0  0  0  0  0  0
    6.3580    0.4090   29.0900 C   0  0  0  0  0  0  0  0  0  0  0  0
    4.9140    0.8390   29.2100 C   0  0  1  0  0  0  0  0  0  0  0  0
    4.7200    2.1250   29.9410 C   0  0  0  0  0  0  0  0  0  0  0  0
    4.1600    0.9260   27.8500 C   0  0  1  0  0  0  0  0  0  0  0  0
    4.4080   -0.2340   26.9970 N   0  0  0  0  0  0  0  0  0  0  0  0
    5.1450   -0.1390   25.7860 C   0  0  0  0  0  0  0  0  0  0  0  0
    4.9770    0.7830   24.9840 O   0  0  0  0  0  0  0  0  0  0  0  0
    6.0770   -1.1580   25.5580 C   0  0  2  0  0  0  0  0  0  0  0  0
    6.2830   -1.9930   26.6700 C   0  0  0  0  0  0  0  0  0  0  0  0
    5.2240   -2.7010   27.2740 C   0  0  0  0  0  0  0  0  0  0  0  0
    5.4740   -3.9190   27.9380 C   0  0  0  0  0  0  0  0  0  0  0  0
    4.5080   -4.6160   28.5170 N   0  0  0  0  0  0  0  0  0  0  0  0
    4.9330   -5.8930   28.8290 C   0  0  0  0  0  0  0  0  0  0  0  0
    5.5090   -6.2870   30.0050 N   0  0  0  0  0  0  0  0  0  0  0  0
    4.6950   -6.7360   27.8070 N   0  0  0  0  0  0  0  0  0  0  0  0
    7.1500   -0.6820   24.9460 N   0  0  0  0  0  0  0  0  0  0  0  0
    7.5910   -1.0130   23.6750 C   0  0  0  0  0  0  0  0  0  0  0  0
    7.5030   -0.2040   22.7500 O   0  0  0  0  0  0  0  0  0  0  0  0
    8.1440   -2.2840   23.4790 C   0  0  1  0  0  0  0  0  0  0  0  0
    9.5230   -2.5220   23.4060 C   0  0  0  0  0  0  0  0  0  0  0  0
   10.5650   -1.5830   23.2450 C   0  0  0  0  0  0  0  0  0  0  0  0
   10.4100   -0.2030   23.2300 C   0  0  0  0  0  0  0  0  0  0  0  0
   11.6020    0.7100   23.0400 C   0  0  0  0  0  0  0  0  0  0  0  0
   12.9540    0.0220   22.8820 C   0  0  0  0  0  0  0  0  0  0  0  0
   12.9960   -1.4550   22.9160 C   0  0  0  0  0  0  0  0  0  0  0  0
   11.8480   -2.1390   23.0870 C   0  0  0  0  0  0  0  0  0  0  0  0
    7.4350   -3.1030   24.4720 N   0  0  0  0  0  0  0  0  0  0  0  0
    7.1100   -4.4410   24.3290 C   0  0  0  0  0  0  0  0  0  0  0  0
    8.0010   -5.4000   23.9040 O   0  0  0  0  0  0  0  0  0  0  0  0
    5.8340   -4.7780   24.7200 C   0  0  0  0  0  0  0  0  0  0  0  0
    5.1070   -5.3910   23.5890 N   0  0  0  0  0  0  0  0  0  0  0  0
    2.6050    1.0280   27.9220 C   0  0  0  0  0  0  0  0  0  0  0  0
    1.8890    0.3370   27.1900 O   0  0  0  0  0  0  0  0  0  0  0  0
    2.0680    1.9120   28.8260 N   0  0  0  0  0  0  0  0  0  0  0  0
    1.0440    1.5170   29.8060 C   0  0  1  0  0  0  0  0  0  0  0  0
    1.3660    1.7620   31.1440 C   0  0  0  0  0  0  0  0  0  0  0  0
    2.3570    1.0030   31.7540 C   0  0  0  0  0  0  0  0  0  0  0  0
    2.3170   -0.3950   31.6840 C   0  0  0  0  0  0  0  0  0  0  0  0
    3.3050   -1.1720   32.2950 C   0  0  0  0  0  0  0  0  0  0  0  0
    4.3580   -0.5540   32.9900 C   0  0  0  0  0  0  0  0  0  0  0  0
    4.4060    0.8350   33.0630 C   0  0  0  0  0  0  0  0  0  0  0  0
    3.4140    1.6070   32.4500 C   0  0  0  0  0  0  0  0  0  0  0  0
   -0.3050    2.1610   29.4000 C   0  0  0  0  0  0  0  0  0  0  0  0
   -0.3810    3.1100   28.6210 O   0  0  0  0  0  0  0  0  0  0  0  0
   -1.4260    1.5970   29.9760 N   0  0  0  0  0  0  0  0  0  0  0  0
   -2.7200    1.5400   29.2990 C   0  0  2  0  0  0  0  0  0  0  0  0
   -3.6050    2.6570   29.8370 C   0  0  0  0  0  0  0  0  0  0  0  0
   -4.6260    2.4600   30.5030 O   0  0  0  0  0  0  0  0  0  0  0  0
   -3.4420    0.2080   29.5280 C   0  0  0  0  0  0  0  0  0  0  0  0
   -4.3470   -0.1230   28.4810 O   0  0  0  0  0  0  0  0  0  0  0  0
  1  2  1  0
  2  3  1  0
  3  4  1  6
  3  5  1  0
  5  6  1  6
  6  7  1  0
  7  8  2  0
  7  9  1  0
  9 10  1  1
 10 11  1  0
 11 12  1  0
 12 13  1  0
 13 14  1  0
 14 15  2  3
 14 16  1  0
  9 17  1  0
 17 18  1  0
 18 19  2  0
 18 20  1  0
 20 21  1  1
 21 22  1  0
 22 23  2  0
 23 24  1  0
 24 25  2  0
 25 26  1  0
 22 27  1  0
 26 27  2  0
 20 28  1  0
 28 29  1  0
 29 30  2  0
 29 31  1  0
 31 32  1  0
  5 33  1  0
 33 34  2  0
 33 35  1  0
 35 36  1  0
 36 37  1  1
 37 38  1  0
 38 39  2  0
 39 40  1  0
 40 41  2  0
 41 42  1  0
 38 43  1  0
 42 43  2  0
 36 44  1  0
 44 45  2  0
 44 46  1  0
 46 47  1  0
 47 48  1  1
 48 49  2  0
 47 50  1  0
 50 51  1  0
M  END
