ABH-HOE-1cbf6cd9-3
     RDKit          3D

 44 45  0  0  0  0  0  0  0  0999 V2000
    7.3710   -0.5920   20.1890 N   0  0  0  0  0  0  0  0  0  0  0  0
    7.8170   -1.0950   21.3010 C   0  0  0  0  0  0  0  0  0  0  0  0
    9.2840   -1.1320   21.6620 C   0  0  0  0  0  0  0  0  0  0  0  0
    9.8700   -2.4710   22.1250 C   0  0  0  0  0  0  0  0  0  0  0  0
   10.2080   -2.7210   23.6150 C   0  0  1  0  0  0  0  0  0  0  0  0
    9.5450   -3.8420   24.2390 N   0  0  0  0  0  0  0  0  0  0  0  0
    9.1290   -3.2770   25.4620 C   0  0  0  0  0  0  0  0  0  0  0  0
    9.4670   -3.7080   26.5690 O   0  0  0  0  0  0  0  0  0  0  0  0
    8.3640   -2.3070   25.1320 C   0  0  1  0  0  0  0  0  0  0  0  0
    8.6030   -1.4630   23.9170 C   0  0  0  0  0  0  0  0  0  0  0  0
   10.0340   -0.9590   23.5360 C   0  0  0  0  0  0  0  0  0  0  0  0
   10.5100    0.3530   24.1090 C   0  0  0  0  0  0  0  0  0  0  0  0
   11.8910    0.8510   23.7340 C   0  0  0  0  0  0  0  0  0  0  0  0
   12.6570   -0.0260   22.8150 C   0  0  0  0  0  0  0  0  0  0  0  0
   12.2510   -1.1800   22.3020 C   0  0  0  0  0  0  0  0  0  0  0  0
   10.9380   -1.6610   22.6550 C   0  0  0  0  0  0  0  0  0  0  0  0
    7.2330   -3.2290   24.9760 N   0  0  0  0  0  0  0  0  0  0  0  0
    7.2270   -4.4440   25.7280 C   0  0  0  0  0  0  0  0  0  0  0  0
    8.1820   -5.2330   25.7530 O   0  0  0  0  0  0  0  0  0  0  0  0
    6.0720   -4.8880   26.5780 C   0  0  0  0  0  0  0  0  0  0  0  0
    4.8350   -4.1900   26.1780 N   0  0  0  0  0  0  0  0  0  0  0  0
   11.4320   -3.0310   24.2080 C   0  0  0  0  0  0  0  0  0  0  0  0
   11.4660   -3.8400   25.1530 O   0  0  0  0  0  0  0  0  0  0  0  0
   12.5720   -2.4470   23.8260 N   0  0  0  0  0  0  0  0  0  0  0  0
   13.1380   -1.6250   24.8450 C   0  0  0  0  0  0  0  0  0  0  0  0
   13.9190   -2.5010   25.5740 C   0  0  0  0  0  0  0  0  0  0  0  0
   13.4830   -3.3820   26.3100 O   0  0  0  0  0  0  0  0  0  0  0  0
   15.2280   -2.3060   25.3070 N   0  0  0  0  0  0  0  0  0  0  0  0
   16.3540   -1.8030   26.1710 C   0  0  1  0  0  0  0  0  0  0  0  0
   18.1650   -1.8790   25.7610 C   0  0  0  0  0  0  0  0  0  0  0  0
   19.5070   -1.3160   25.8410 C   0  0  0  0  0  0  0  0  0  0  0  0
   20.3010   -1.2870   26.9790 C   0  0  0  0  0  0  0  0  0  0  0  0
   21.6760   -0.7200   26.9200 C   0  0  0  0  0  0  0  0  0  0  0  0
   22.1950   -0.2080   25.7470 C   0  0  0  0  0  0  0  0  0  0  0  0
   21.4080   -0.2040   24.4920 C   0  0  0  0  0  0  0  0  0  0  0  0
   20.0310   -0.7990   24.6320 C   0  0  0  0  0  0  0  0  0  0  0  0
   16.0380   -0.6690   27.0900 C   0  0  0  0  0  0  0  0  0  0  0  0
   15.2200    0.5970   26.9730 O   0  0  0  0  0  0  0  0  0  0  0  0
   16.6410    0.1600   28.0710 N   0  0  0  0  0  0  0  0  0  0  0  0
   16.9200    2.2710   28.2620 C   0  0  2  0  0  0  0  0  0  0  0  0
   18.2600    3.1950   29.3560 C   0  0  0  0  0  0  0  0  0  0  0  0
   19.4950    3.2750   29.2590 O   0  0  0  0  0  0  0  0  0  0  0  0
   15.3110    2.8540   28.2240 C   0  0  0  0  0  0  0  0  0  0  0  0
   14.4160    1.8390   28.0670 O   0  0  0  0  0  0  0  0  0  0  0  0
  1  2  1  0
  2  3  1  0
  3  4  1  0
  5  4  1  6
  5  6  1  0
  6  7  1  0
  7  8  2  0
  7  9  1  0
  9 10  1  6
 10 11  1  0
 11 12  2  0
 12 13  1  0
 13 14  2  0
 14 15  1  0
 11 16  1  0
 15 16  2  0
  9 17  1  0
 17 18  1  0
 18 19  2  0
 18 20  1  0
 20 21  1  0
  5 22  1  0
 22 23  2  0
 22 24  1  0
 24 25  1  0
 25 26  1  0
 26 27  2  0
 26 28  1  0
 28 29  1  0
 29 30  1  6
 30 31  1  0
 31 32  2  0
 32 33  1  0
 33 34  2  0
 34 35  1  0
 31 36  1  0
 35 36  2  0
 29 37  1  0
 37 38  2  0
 37 39  1  0
 39 40  1  0
 40 41  1  1
 41 42  2  0
 40 43  1  0
 43 44  1  0
M  END
