ABH-HOE-1cbf6cd9-1
     RDKit          3D

 47 48  0  0  0  0  0  0  0  0999 V2000
    4.9990    2.0730   17.6070 N   0  0  0  0  0  0  0  0  0  0  0  0
    4.8770    1.9740   18.7430 C   0  0  0  0  0  0  0  0  0  0  0  0
    4.2470    3.0040   19.4500 N   0  0  0  0  0  0  0  0  0  0  0  0
    5.3250    0.8900   19.4900 N   0  0  0  0  0  0  0  0  0  0  0  0
    4.7710    0.5720   20.7860 C   0  0  0  0  0  0  0  0  0  0  0  0
    5.2300    1.4210   21.7180 C   0  0  0  0  0  0  0  0  0  0  0  0
    6.4370    1.1030   22.5200 C   0  0  0  0  0  0  0  0  0  0  0  0
    6.3300    0.3850   23.7420 C   0  0  1  0  0  0  0  0  0  0  0  0
    7.6100   -0.2130   24.1650 N   0  0  0  0  0  0  0  0  0  0  0  0
    7.6510   -1.5200   24.5880 C   0  0  0  0  0  0  0  0  0  0  0  0
    6.9250   -1.9670   25.6710 O   0  0  0  0  0  0  0  0  0  0  0  0
    8.4130   -2.3800   23.9090 C   0  0  2  0  0  0  0  0  0  0  0  0
    9.1710   -1.8900   22.7470 C   0  0  0  0  0  0  0  0  0  0  0  0
   10.5770   -1.3890   22.8750 C   0  0  0  0  0  0  0  0  0  0  0  0
   10.6940    0.0150   23.0350 C   0  0  0  0  0  0  0  0  0  0  0  0
   11.8970    0.6050   23.1310 C   0  0  0  0  0  0  0  0  0  0  0  0
   12.9210   -0.2180   23.0720 C   0  0  0  0  0  0  0  0  0  0  0  0
   12.8280   -1.5930   22.9240 C   0  0  0  0  0  0  0  0  0  0  0  0
   11.6150   -2.4160   22.7980 C   0  0  0  0  0  0  0  0  0  0  0  0
    7.4440   -3.4460   23.5960 N   0  0  0  0  0  0  0  0  0  0  0  0
    7.5490   -4.7570   24.0060 C   0  0  0  0  0  0  0  0  0  0  0  0
    7.2890   -5.8010   24.5750 O   0  0  0  0  0  0  0  0  0  0  0  0
    6.3700   -4.4250   24.7250 C   0  0  0  0  0  0  0  0  0  0  0  0
    5.6830   -5.6030   25.2830 N   0  0  0  0  0  0  0  0  0  0  0  0
    5.6480    1.1970   24.8830 C   0  0  0  0  0  0  0  0  0  0  0  0
    4.6950    0.6030   25.8000 O   0  0  0  0  0  0  0  0  0  0  0  0
    6.0140    2.5300   24.9540 N   0  0  0  0  0  0  0  0  0  0  0  0
    4.9890    3.5550   24.8990 C   0  0  0  0  0  0  0  0  0  0  0  0
    5.3590    4.7560   25.5720 C   0  0  0  0  0  0  0  0  0  0  0  0
    6.5180    5.3250   25.1330 O   0  0  0  0  0  0  0  0  0  0  0  0
    4.5320    5.2150   26.5760 N   0  0  0  0  0  0  0  0  0  0  0  0
    3.3090    5.9930   26.3180 C   0  0  1  0  0  0  0  0  0  0  0  0
    2.1730    5.2180   26.5660 C   0  0  0  0  0  0  0  0  0  0  0  0
    1.2820    4.8590   25.4020 C   0  0  0  0  0  0  0  0  0  0  0  0
    1.7550    4.7160   24.1640 C   0  0  0  0  0  0  0  0  0  0  0  0
    0.7980    4.3490   23.0340 C   0  0  0  0  0  0  0  0  0  0  0  0
   -0.7300    4.0920   23.0460 C   0  0  0  0  0  0  0  0  0  0  0  0
   -0.9260    4.3180   24.4720 C   0  0  0  0  0  0  0  0  0  0  0  0
   -0.0600    4.6580   25.5430 C   0  0  0  0  0  0  0  0  0  0  0  0
    3.3640    7.2340   27.2430 C   0  0  0  0  0  0  0  0  0  0  0  0
    3.5580    8.3710   26.8200 O   0  0  0  0  0  0  0  0  0  0  0  0
    3.1790    6.9830   28.5870 N   0  0  0  0  0  0  0  0  0  0  0  0
    2.1860    7.6800   29.4040 C   0  0  1  0  0  0  0  0  0  0  0  0
    2.3950    7.3400   30.7420 C   0  0  0  0  0  0  0  0  0  0  0  0
    1.4970    7.1440   31.5600 O   0  0  0  0  0  0  0  0  0  0  0  0
    2.2860    9.2010   29.2700 C   0  0  0  0  0  0  0  0  0  0  0  0
    1.3990    9.8750   30.1590 O   0  0  0  0  0  0  0  0  0  0  0  0
  1  2  2  3
  2  3  1  0
  2  4  1  0
  4  5  1  0
  5  6  1  0
  6  7  1  0
  8  7  1  6
  8  9  1  0
  9 10  1  0
 10 11  2  0
 10 12  1  0
 12 13  1  6
 13 14  1  0
 14 15  2  0
 15 16  1  0
 16 17  2  0
 17 18  1  0
 14 19  1  0
 18 19  2  0
 12 20  1  0
 20 21  1  0
 21 22  2  0
 21 23  1  0
 23 24  1  0
  8 25  1  0
 25 26  2  0
 25 27  1  0
 27 28  1  0
 28 29  1  0
 29 30  2  0
 29 31  1  0
 31 32  1  0
 32 33  1  1
 33 34  1  0
 34 35  2  0
 35 36  1  0
 36 37  2  0
 37 38  1  0
 34 39  1  0
 38 39  2  0
 32 40  1  0
 40 41  2  0
 40 42  1  0
 42 43  1  0
 43 44  1  1
 44 45  2  0
 43 46  1  0
 46 47  1  0
M  END
