ABH-HOE-8c83008f-1
     RDKit          3D

 42 47  0  0  0  0  0  0  0  0999 V2000
    3.4910    4.2740   32.4530 C   0  0  0  0  0  0  0  0  0  0  0  0
    3.5980    4.7210   31.0260 C   0  0  0  0  0  0  0  0  0  0  0  0
    2.6420    5.0020   30.3140 O   0  0  0  0  0  0  0  0  0  0  0  0
    4.9940    4.8320   30.4710 C   0  0  0  0  0  0  0  0  0  0  0  0
    5.9890    3.6820   30.5240 C   0  0  0  0  0  0  0  0  0  0  0  0
    5.7820    2.2960   31.1060 C   0  0  1  0  0  0  0  0  0  0  0  0
    5.8510    2.3560   32.4310 C   0  0  0  0  0  0  0  0  0  0  0  0
    6.4400    1.3090   33.2830 C   0  0  0  0  0  0  0  0  0  0  0  0
    5.5070    0.5120   34.1450 C   0  0  0  0  0  0  0  0  0  0  0  0
    6.0430   -0.5680   35.0320 C   0  0  0  0  0  0  0  0  0  0  0  0
    7.5400   -0.7990   35.0070 C   0  0  0  0  0  0  0  0  0  0  0  0
    8.3550    0.0840   34.0890 C   0  0  0  0  0  0  0  0  0  0  0  0
    7.8190    1.0450   33.3070 C   0  0  0  0  0  0  0  0  0  0  0  0
    4.5600    1.5280   30.5970 C   0  0  0  0  0  0  0  0  0  0  0  0
    5.0130    0.1810   30.5310 O   0  0  0  0  0  0  0  0  0  0  0  0
    6.3520    0.3120   30.3820 C   0  0  0  0  0  0  0  0  0  0  0  0
    7.0990   -0.9040   29.9220 C   0  0  0  0  0  0  0  0  0  0  0  0
    6.5290   -1.5840   28.7830 N   0  0  0  0  0  0  0  0  0  0  0  0
    6.3540   -1.0480   27.5330 C   0  0  0  0  0  0  0  0  0  0  0  0
    5.8050   -2.0550   26.8000 C   0  0  0  0  0  0  0  0  0  0  0  0
    5.6830   -3.1390   27.6570 C   0  0  0  0  0  0  0  0  0  0  0  0
    6.1170   -2.8840   28.8860 N   0  0  0  0  0  0  0  0  0  0  0  0
    5.0990   -4.3400   27.0090 C   0  0  0  0  0  0  0  0  0  0  0  0
    4.6170   -3.7700   25.6070 C   0  0  2  0  0  0  0  0  0  0  0  0
    4.9790   -4.6930   24.4990 N   0  0  0  0  0  0  0  0  0  0  0  0
    4.2140   -4.7410   23.3760 C   0  0  0  0  0  0  0  0  0  0  0  0
    4.5650   -4.3100   22.2190 N   0  0  0  0  0  0  0  0  0  0  0  0
    3.0150   -5.3080   23.6270 N   0  0  0  0  0  0  0  0  0  0  0  0
    5.3280   -2.3480   25.4410 C   0  0  2  0  0  0  0  0  0  0  0  0
    6.5230   -2.3300   24.5580 C   0  0  0  0  0  0  0  0  0  0  0  0
    7.7380   -2.7080   24.7790 N   0  0  0  0  0  0  0  0  0  0  0  0
    8.6750   -2.5230   23.7380 C   0  0  0  0  0  0  0  0  0  0  0  0
    9.3920   -2.2090   22.4930 C   0  0  0  0  0  0  0  0  0  0  0  0
   10.6500   -1.4180   22.7230 C   0  0  0  0  0  0  0  0  0  0  0  0
   10.6540   -0.0340   22.9320 C   0  0  0  0  0  0  0  0  0  0  0  0
   11.8630    0.6380   23.0990 C   0  0  0  0  0  0  0  0  0  0  0  0
   13.0520   -0.0500   23.0700 C   0  0  0  0  0  0  0  0  0  0  0  0
   13.0560   -1.4170   22.8750 C   0  0  0  0  0  0  0  0  0  0  0  0
   11.8630   -2.0880   22.7030 C   0  0  0  0  0  0  0  0  0  0  0  0
    7.6470   -1.9720   22.9040 C   0  0  0  0  0  0  0  0  0  0  0  0
    6.3860   -1.8520   23.3610 O   0  0  0  0  0  0  0  0  0  0  0  0
    6.9090    1.4530   30.6540 N   0  0  0  0  0  0  0  0  0  0  0  0
  1  2  1  0
  2  3  2  0
  2  4  1  0
  4  5  2  3
  6  5  1  6
  6  7  1  0
  7  8  1  0
  8  9  2  0
  9 10  1  0
 10 11  2  0
 11 12  1  0
  8 13  1  0
 12 13  2  0
  6 14  1  0
 14 15  1  0
 15 16  1  0
 16 17  1  0
 17 18  1  0
 18 19  1  0
 19 20  2  0
 20 21  1  0
 18 22  1  0
 21 22  2  0
 21 23  1  0
 23 24  1  0
 24 25  1  6
 25 26  1  0
 26 27  2  3
 26 28  1  0
 20 29  1  0
 24 29  1  0
 29 30  1  6
 30 31  2  0
 31 32  1  0
 32 33  1  0
 33 34  1  0
 34 35  2  0
 35 36  1  0
 36 37  2  0
 37 38  1  0
 34 39  1  0
 38 39  2  0
 32 40  2  0
 30 41  1  0
 40 41  1  0
  6 42  1  0
 16 42  2  0
M  END
