ADA-UNI-f8e79267-2
     RDKit          3D

 23 24  0  0  0  0  0  0  0  0999 V2000
    6.0780   -4.7610   25.7920 C   0  0  0  0  0  0  0  0  0  0  0  0
    6.5730   -4.8150   24.0350 S   0  0  0  0  0  0  0  0  0  0  0  0
    5.9150   -3.7090   23.3780 O   0  0  0  0  0  0  0  0  0  0  0  0
    6.3650   -6.1590   23.5630 O   0  0  0  0  0  0  0  0  0  0  0  0
    8.2370   -4.5690   23.8940 N   0  0  0  0  0  0  0  0  0  0  0  0
    8.7760   -3.2080   24.0500 C   0  0  0  0  0  0  0  0  0  0  0  0
    8.3330   -2.4270   23.1020 C   0  0  0  0  0  0  0  0  0  0  0  0
    9.2110   -1.6640   22.1550 C   0  0  1  0  0  0  0  0  0  0  0  0
    8.6440   -0.2770   21.7670 C   0  0  0  0  0  0  0  0  0  0  0  0
    9.4110    0.6690   21.5640 O   0  0  0  0  0  0  0  0  0  0  0  0
    7.3050   -0.1620   21.6630 N   0  0  0  0  0  0  0  0  0  0  0  0
    6.7170    0.2600   20.5050 C   0  0  0  0  0  0  0  0  0  0  0  0
    5.5530    1.2730   20.4950 C   0  0  0  0  0  0  0  0  0  0  0  0
    4.9260    1.7070   19.1760 C   0  0  0  0  0  0  0  0  0  0  0  0
    5.4470    1.1570   18.0070 C   0  0  0  0  0  0  0  0  0  0  0  0
    6.5520    0.1950   18.0290 N   0  0  0  0  0  0  0  0  0  0  0  0
    7.1940   -0.2740   19.1820 C   0  0  0  0  0  0  0  0  0  0  0  0
   10.6330   -1.6300   22.6840 C   0  0  0  0  0  0  0  0  0  0  0  0
   11.7410   -1.6550   21.8560 C   0  0  0  0  0  0  0  0  0  0  0  0
   13.0220   -1.6280   22.3110 C   0  0  0  0  0  0  0  0  0  0  0  0
   13.2150   -1.5870   23.6560 C   0  0  0  0  0  0  0  0  0  0  0  0
   12.1840   -1.5690   24.5430 C   0  0  0  0  0  0  0  0  0  0  0  0
   10.8690   -1.5860   24.0730 C   0  0  0  0  0  0  0  0  0  0  0  0
  1  2  1  0
  2  3  2  0
  2  4  2  0
  2  5  1  0
  5  6  1  0
  6  7  1  0
  8  7  1  1
  8  9  1  0
  9 10  2  0
  9 11  1  0
 11 12  1  0
 12 13  2  0
 13 14  1  0
 14 15  2  0
 15 16  1  0
 12 17  1  0
 16 17  2  0
  8 18  1  0
 18 19  2  0
 19 20  1  0
 20 21  2  0
 21 22  1  0
 18 23  1  0
 22 23  2  0
M  END
