ADA-UNI-f8e79267-10
     RDKit          3D

 22 23  0  0  0  0  0  0  0  0999 V2000
    7.7120   -3.9310   26.6050 C   0  0  0  0  0  0  0  0  0  0  0  0
    9.0670   -4.4230   26.5040 N   0  0  0  0  0  0  0  0  0  0  0  0
    9.5520   -4.1680   25.1400 C   0  0  0  0  0  0  0  0  0  0  0  0
    9.5380   -2.8700   24.7510 C   0  0  0  0  0  0  0  0  0  0  0  0
    8.5920   -2.3730   24.0790 O   0  0  0  0  0  0  0  0  0  0  0  0
    8.8960   -1.9640   22.6920 C   0  0  1  0  0  0  0  0  0  0  0  0
    8.3070   -0.6840   22.0000 C   0  0  0  0  0  0  0  0  0  0  0  0
    9.2950    0.3310   21.7300 O   0  0  0  0  0  0  0  0  0  0  0  0
    6.9910   -0.5880   21.7010 N   0  0  0  0  0  0  0  0  0  0  0  0
    6.5400   -0.0250   20.5400 C   0  0  0  0  0  0  0  0  0  0  0  0
    5.3510    0.9640   20.5190 C   0  0  0  0  0  0  0  0  0  0  0  0
    4.8740    1.5630   19.1960 C   0  0  0  0  0  0  0  0  0  0  0  0
    5.5470    1.1850   18.0390 C   0  0  0  0  0  0  0  0  0  0  0  0
    6.6730    0.2450   18.0690 N   0  0  0  0  0  0  0  0  0  0  0  0
    7.1860   -0.3620   19.2260 C   0  0  0  0  0  0  0  0  0  0  0  0
   10.3800   -1.8100   22.7240 C   0  0  0  0  0  0  0  0  0  0  0  0
   11.2600   -2.1730   21.7180 C   0  0  0  0  0  0  0  0  0  0  0  0
   12.6160   -2.0150   21.7940 C   0  0  0  0  0  0  0  0  0  0  0  0
   13.0960   -1.4890   22.9360 C   0  0  0  0  0  0  0  0  0  0  0  0
   12.2560   -1.1370   23.9470 C   0  0  0  0  0  0  0  0  0  0  0  0
   12.8140   -0.5420   25.3430 Cl  0  0  0  0  0  0  0  0  0  0  0  0
   10.9240   -1.2780   23.8530 C   0  0  0  0  0  0  0  0  0  0  0  0
  1  2  1  0
  2  3  1  0
  3  4  1  0
  4  5  1  0
  6  5  1  1
  6  7  1  0
  7  8  2  0
  7  9  1  0
  9 10  1  0
 10 11  2  0
 11 12  1  0
 12 13  2  0
 13 14  1  0
 10 15  1  0
 14 15  2  0
  6 16  1  0
 16 17  2  0
 17 18  1  0
 18 19  2  0
 19 20  1  0
 20 21  1  0
 16 22  1  0
 20 22  2  0
M  END
