ADA-UNI-f8e79267-6
     RDKit          3D

 21 23  0  0  0  0  0  0  0  0999 V2000
    7.8920   -4.3320   26.3930 C   0  0  0  0  0  0  0  0  0  0  0  0
    8.6360   -4.8460   25.2470 N   0  0  0  0  0  0  0  0  0  0  0  0
    9.4390   -3.7530   24.6430 C   0  0  0  0  0  0  0  0  0  0  0  0
    8.7540   -2.9830   23.7850 C   0  0  1  0  0  0  0  0  0  0  0  0
    8.4500   -1.6850   24.1980 C   0  0  0  0  0  0  0  0  0  0  0  0
    9.2290   -1.5130   22.9980 C   0  0  2  0  0  0  0  0  0  0  0  0
    8.4300   -0.6650   21.9480 C   0  0  0  0  0  0  0  0  0  0  0  0
    8.8340    0.3830   21.4250 O   0  0  0  0  0  0  0  0  0  0  0  0
    7.0980   -0.9800   21.4520 N   0  0  0  0  0  0  0  0  0  0  0  0
    6.5890   -0.2540   20.2810 C   0  0  0  0  0  0  0  0  0  0  0  0
    5.3540    0.6260   20.5690 C   0  0  0  0  0  0  0  0  0  0  0  0
    4.8430    1.3210   19.4800 C   0  0  0  0  0  0  0  0  0  0  0  0
    5.5270    1.1650   18.1350 C   0  0  0  0  0  0  0  0  0  0  0  0
    6.5990    0.3930   17.9230 N   0  0  0  0  0  0  0  0  0  0  0  0
    7.0910   -0.2820   18.9680 C   0  0  0  0  0  0  0  0  0  0  0  0
   10.5160   -1.0810   23.0470 C   0  0  0  0  0  0  0  0  0  0  0  0
   11.4850   -1.7000   22.2670 C   0  0  0  0  0  0  0  0  0  0  0  0
   12.8120   -1.3190   22.2070 C   0  0  0  0  0  0  0  0  0  0  0  0
   13.1810   -0.2330   22.9860 C   0  0  0  0  0  0  0  0  0  0  0  0
   12.3010    0.4420   23.8020 C   0  0  0  0  0  0  0  0  0  0  0  0
   10.8820   -0.0120   23.8370 C   0  0  0  0  0  0  0  0  0  0  0  0
  1  2  1  0
  2  3  1  0
  4  3  1  1
  4  5  1  0
  4  6  1  0
  5  6  1  0
  6  7  1  6
  7  8  2  0
  7  9  1  0
  9 10  1  0
 10 11  2  0
 11 12  1  0
 12 13  2  0
 13 14  1  0
 10 15  1  0
 14 15  2  0
  6 16  1  0
 16 17  2  0
 17 18  1  0
 18 19  2  0
 19 20  1  0
 16 21  1  0
 20 21  2  0
M  END
