ADA-UNI-f8e79267-8
     RDKit          3D

 24 25  0  0  0  0  0  0  0  0999 V2000
   10.5600   -2.4640   22.0280 C   0  0  0  0  0  0  0  0  0  0  0  0
   10.4940   -2.7400   23.7890 S   0  0  0  0  0  0  0  0  0  0  0  0
   11.5250   -3.6270   24.2370 O   0  0  0  0  0  0  0  0  0  0  0  0
   10.3790   -1.4780   24.4550 O   0  0  0  0  0  0  0  0  0  0  0  0
    8.9830   -3.3940   23.9120 N   0  0  0  0  0  0  0  0  0  0  0  0
    7.9390   -2.3740   23.9600 C   0  0  0  0  0  0  0  0  0  0  0  0
    8.2770   -1.0580   24.3500 C   0  0  0  0  0  0  0  0  0  0  0  0
    9.1560   -0.2230   23.5980 C   0  0  2  0  0  0  0  0  0  0  0  0
    8.7190    0.1870   22.2680 C   0  0  0  0  0  0  0  0  0  0  0  0
    9.3000    1.1440   21.7330 O   0  0  0  0  0  0  0  0  0  0  0  0
    7.5910   -0.5200   21.5940 N   0  0  0  0  0  0  0  0  0  0  0  0
    6.8960    0.0260   20.4630 C   0  0  0  0  0  0  0  0  0  0  0  0
    5.7250    1.0320   20.6530 C   0  0  0  0  0  0  0  0  0  0  0  0
    5.0020    1.5890   19.4460 C   0  0  0  0  0  0  0  0  0  0  0  0
    5.5210    1.0920   18.1690 C   0  0  0  0  0  0  0  0  0  0  0  0
    6.5610    0.2020   18.0570 N   0  0  0  0  0  0  0  0  0  0  0  0
    7.2160   -0.3130   19.1350 C   0  0  0  0  0  0  0  0  0  0  0  0
   10.5450   -0.6560   23.4790 C   0  0  0  0  0  0  0  0  0  0  0  0
   11.2030   -0.6650   22.2710 C   0  0  0  0  0  0  0  0  0  0  0  0
   12.5220   -1.0970   22.0650 C   0  0  0  0  0  0  0  0  0  0  0  0
   13.2250   -1.5660   23.1310 C   0  0  0  0  0  0  0  0  0  0  0  0
   12.6590   -1.5970   24.3660 C   0  0  0  0  0  0  0  0  0  0  0  0
   13.6390   -2.2560   25.5970 Cl  0  0  0  0  0  0  0  0  0  0  0  0
   11.3330   -1.1340   24.5710 C   0  0  0  0  0  0  0  0  0  0  0  0
  1  2  1  0
  2  3  2  0
  2  4  2  0
  2  5  1  0
  5  6  1  0
  6  7  1  0
  8  7  1  6
  8  9  1  0
  9 10  2  0
  9 11  1  0
 11 12  1  0
 12 13  2  0
 13 14  1  0
 14 15  2  0
 15 16  1  0
 12 17  1  0
 16 17  2  0
  8 18  1  0
 18 19  2  0
 19 20  1  0
 20 21  2  0
 21 22  1  0
 22 23  1  0
 18 24  1  0
 22 24  2  0
M  END
