ADA-UNI-f8e79267-12
     RDKit          3D

 22 24  0  0  0  0  0  0  0  0999 V2000
    8.2980   -4.6370   26.7490 C   0  0  0  0  0  0  0  0  0  0  0  0
    9.1060   -4.8480   25.5470 N   0  0  0  0  0  0  0  0  0  0  0  0
    9.8220   -3.6200   25.0810 C   0  0  0  0  0  0  0  0  0  0  0  0
    9.0560   -2.8940   24.2120 C   0  0  1  0  0  0  0  0  0  0  0  0
    8.7570   -1.5660   24.4910 C   0  0  0  0  0  0  0  0  0  0  0  0
    9.4110   -1.5080   23.2110 C   0  0  2  0  0  0  0  0  0  0  0  0
    8.5200   -0.7130   22.1530 C   0  0  0  0  0  0  0  0  0  0  0  0
    8.8250    0.3950   21.6870 O   0  0  0  0  0  0  0  0  0  0  0  0
    7.2420   -1.1210   21.5550 N   0  0  0  0  0  0  0  0  0  0  0  0
    6.7000   -0.3710   20.3890 C   0  0  0  0  0  0  0  0  0  0  0  0
    5.4900    0.5370   20.7030 C   0  0  0  0  0  0  0  0  0  0  0  0
    4.9600    1.2480   19.6270 C   0  0  0  0  0  0  0  0  0  0  0  0
    5.5980    1.0810   18.2590 C   0  0  0  0  0  0  0  0  0  0  0  0
    6.6480    0.2880   18.0160 N   0  0  0  0  0  0  0  0  0  0  0  0
    7.1580   -0.4000   19.0510 C   0  0  0  0  0  0  0  0  0  0  0  0
   10.6830   -1.0310   23.1390 C   0  0  0  0  0  0  0  0  0  0  0  0
   11.8050   -1.8280   23.0680 C   0  0  0  0  0  0  0  0  0  0  0  0
   13.0860   -1.3250   22.9630 C   0  0  0  0  0  0  0  0  0  0  0  0
   13.2380    0.0640   22.9230 C   0  0  0  0  0  0  0  0  0  0  0  0
   12.1930    0.9710   22.9900 C   0  0  0  0  0  0  0  0  0  0  0  0
   12.3270    2.6690   22.9220 Cl  0  0  0  0  0  0  0  0  0  0  0  0
   10.8520    0.3320   23.1100 C   0  0  0  0  0  0  0  0  0  0  0  0
  1  2  1  0
  2  3  1  0
  4  3  1  1
  4  5  1  0
  4  6  1  0
  5  6  1  0
  6  7  1  6
  7  8  2  0
  7  9  1  0
  9 10  1  0
 10 11  2  0
 11 12  1  0
 12 13  2  0
 13 14  1  0
 10 15  1  0
 14 15  2  0
  6 16  1  0
 16 17  2  0
 17 18  1  0
 18 19  2  0
 19 20  1  0
 20 21  1  0
 16 22  1  0
 20 22  2  0
M  END
