ADA-UNI-f8e79267-1
     RDKit          3D

 24 25  0  0  0  0  0  0  0  0999 V2000
    9.1460   -5.8230   26.9970 C   0  0  0  0  0  0  0  0  0  0  0  0
    7.5420   -5.0690   27.1880 S   0  0  0  0  0  0  0  0  0  0  0  0
    7.2660   -4.9690   28.6010 O   0  0  0  0  0  0  0  0  0  0  0  0
    6.5970   -5.7210   26.3050 O   0  0  0  0  0  0  0  0  0  0  0  0
    7.7150   -3.4870   26.5670 N   0  0  0  0  0  0  0  0  0  0  0  0
    7.8370   -3.2360   25.2390 C   0  0  0  0  0  0  0  0  0  0  0  0
    8.8160   -2.4780   24.7340 C   0  0  0  0  0  0  0  0  0  0  0  0
    8.3640   -1.3940   23.9180 O   0  0  0  0  0  0  0  0  0  0  0  0
    9.0020   -1.3500   22.6230 C   0  0  1  0  0  0  0  0  0  0  0  0
    8.4180   -0.2070   21.7890 C   0  0  0  0  0  0  0  0  0  0  0  0
    9.0230    0.8520   21.6000 O   0  0  0  0  0  0  0  0  0  0  0  0
    7.1080   -0.5570   21.2970 N   0  0  0  0  0  0  0  0  0  0  0  0
    6.5260    0.0400   20.2220 C   0  0  0  0  0  0  0  0  0  0  0  0
    5.2950    0.9090   20.4400 C   0  0  0  0  0  0  0  0  0  0  0  0
    4.7770    1.5090   19.1260 C   0  0  0  0  0  0  0  0  0  0  0  0
    5.3650    1.2830   17.9120 C   0  0  0  0  0  0  0  0  0  0  0  0
    6.4610    0.4940   17.7980 N   0  0  0  0  0  0  0  0  0  0  0  0
    7.0050   -0.0970   18.9040 C   0  0  0  0  0  0  0  0  0  0  0  0
   10.4660   -1.0370   22.6720 C   0  0  0  0  0  0  0  0  0  0  0  0
   11.5410   -1.9220   22.1280 C   0  0  0  0  0  0  0  0  0  0  0  0
   12.8650   -1.5640   22.1850 C   0  0  0  0  0  0  0  0  0  0  0  0
   13.2080   -0.3500   22.7610 C   0  0  0  0  0  0  0  0  0  0  0  0
   12.2370    0.4810   23.2730 C   0  0  0  0  0  0  0  0  0  0  0  0
   10.8990    0.1550   23.2330 C   0  0  0  0  0  0  0  0  0  0  0  0
  1  2  1  0
  2  3  2  0
  2  4  2  0
  2  5  1  0
  5  6  1  0
  6  7  1  0
  7  8  1  0
  9  8  1  1
  9 10  1  0
 10 11  2  0
 10 12  1  0
 12 13  1  0
 13 14  2  0
 14 15  1  0
 15 16  2  0
 16 17  1  0
 13 18  1  0
 17 18  2  0
  9 19  1  0
 19 20  2  0
 20 21  1  0
 21 22  2  0
 22 23  1  0
 19 24  1  0
 23 24  2  0
M  END
