ADA-UNI-f8e79267-9
     RDKit          3D

 25 27  0  0  0  0  0  0  0  0999 V2000
    9.3120   -5.9350   26.8910 C   0  0  0  0  0  0  0  0  0  0  0  0
    7.9540   -4.8180   26.6410 S   0  0  0  0  0  0  0  0  0  0  0  0
    6.9510   -5.4870   25.8480 O   0  0  0  0  0  0  0  0  0  0  0  0
    7.6300   -4.2000   27.9090 O   0  0  0  0  0  0  0  0  0  0  0  0
    8.6590   -3.6090   25.7000 N   0  0  0  0  0  0  0  0  0  0  0  0
    8.9290   -3.8330   24.3410 C   0  0  0  0  0  0  0  0  0  0  0  0
    8.4330   -2.7750   23.4510 C   0  0  1  0  0  0  0  0  0  0  0  0
    8.5620   -1.5720   23.9180 C   0  0  0  0  0  0  0  0  0  0  0  0
    9.0810   -1.3340   22.7450 C   0  0  2  0  0  0  0  0  0  0  0  0
    8.3600   -0.5130   21.8490 C   0  0  0  0  0  0  0  0  0  0  0  0
    8.7750    0.6160   21.5600 O   0  0  0  0  0  0  0  0  0  0  0  0
    7.2240   -1.0890   21.3770 N   0  0  0  0  0  0  0  0  0  0  0  0
    6.6120   -0.3130   20.3890 C   0  0  0  0  0  0  0  0  0  0  0  0
    5.4120    0.5970   20.6220 C   0  0  0  0  0  0  0  0  0  0  0  0
    4.9120    1.3400   19.3930 C   0  0  0  0  0  0  0  0  0  0  0  0
    5.5660    1.1690   18.0810 C   0  0  0  0  0  0  0  0  0  0  0  0
    6.6030    0.3640   17.9570 N   0  0  0  0  0  0  0  0  0  0  0  0
    7.0830   -0.3340   19.0720 C   0  0  0  0  0  0  0  0  0  0  0  0
   10.3420   -0.9540   22.6870 C   0  0  0  0  0  0  0  0  0  0  0  0
   11.4410   -1.9380   22.3190 C   0  0  0  0  0  0  0  0  0  0  0  0
   12.8700   -1.3970   22.2520 C   0  0  0  0  0  0  0  0  0  0  0  0
   13.1590    0.0730   22.5330 C   0  0  0  0  0  0  0  0  0  0  0  0
   12.0420    1.0310   22.8700 C   0  0  0  0  0  0  0  0  0  0  0  0
   12.2260    2.6950   23.1270 Cl  0  0  0  0  0  0  0  0  0  0  0  0
   10.6570    0.4980   22.9570 C   0  0  0  0  0  0  0  0  0  0  0  0
  1  2  1  0
  2  3  2  0
  2  4  2  0
  2  5  1  0
  5  6  1  0
  7  6  1  1
  7  8  1  0
  7  9  1  0
  8  9  1  0
  9 10  1  6
 10 11  2  0
 10 12  1  0
 12 13  1  0
 13 14  2  0
 14 15  1  0
 15 16  2  0
 16 17  1  0
 13 18  1  0
 17 18  2  0
  9 19  1  0
 19 20  2  0
 20 21  1  0
 21 22  2  0
 22 23  1  0
 23 24  1  0
 19 25  1  0
 23 25  2  0
M  END
