ADA-UNI-f8e79267-5
     RDKit          3D

 20 21  0  0  0  0  0  0  0  0999 V2000
   10.2090   -4.8020   26.1950 C   0  0  0  0  0  0  0  0  0  0  0  0
    9.1800   -3.9490   25.6070 N   0  0  0  0  0  0  0  0  0  0  0  0
    9.7500   -2.8860   24.7630 C   0  0  0  0  0  0  0  0  0  0  0  0
    8.7910   -2.2220   24.0530 C   0  0  0  0  0  0  0  0  0  0  0  0
    9.2590   -1.4980   22.7580 C   0  0  1  0  0  0  0  0  0  0  0  0
    8.5230   -0.4700   21.9900 C   0  0  0  0  0  0  0  0  0  0  0  0
    9.0650    0.6230   21.7970 O   0  0  0  0  0  0  0  0  0  0  0  0
    7.2740   -0.7090   21.4760 N   0  0  0  0  0  0  0  0  0  0  0  0
    6.6640   -0.0730   20.3640 C   0  0  0  0  0  0  0  0  0  0  0  0
    5.5600    0.7440   20.6440 C   0  0  0  0  0  0  0  0  0  0  0  0
    4.8920    1.4380   19.4530 C   0  0  0  0  0  0  0  0  0  0  0  0
    5.5270    1.1440   18.1140 C   0  0  0  0  0  0  0  0  0  0  0  0
    6.5800    0.3510   17.9370 N   0  0  0  0  0  0  0  0  0  0  0  0
    7.1090   -0.2280   19.0310 C   0  0  0  0  0  0  0  0  0  0  0  0
   10.5680   -1.0820   22.8360 C   0  0  0  0  0  0  0  0  0  0  0  0
   11.5950   -1.7400   22.0040 C   0  0  0  0  0  0  0  0  0  0  0  0
   12.9170   -1.2020   22.1510 C   0  0  0  0  0  0  0  0  0  0  0  0
   13.1670   -0.1440   23.0160 C   0  0  0  0  0  0  0  0  0  0  0  0
   12.1700    0.4250   23.7800 C   0  0  0  0  0  0  0  0  0  0  0  0
   10.8800   -0.0360   23.6970 C   0  0  0  0  0  0  0  0  0  0  0  0
  1  2  1  0
  2  3  1  0
  3  4  1  0
  5  4  1  1
  5  6  1  0
  6  7  2  0
  6  8  1  0
  8  9  1  0
  9 10  2  0
 10 11  1  0
 11 12  2  0
 12 13  1  0
  9 14  1  0
 13 14  2  0
  5 15  1  0
 15 16  2  0
 16 17  1  0
 17 18  2  0
 18 19  1  0
 15 20  1  0
 19 20  2  0
M  END
