AGN-NEW-c7b24fe3-2
     RDKit          3D

 19 20  0  0  0  0  0  0  0  0999 V2000
    7.6560   -1.8730   18.2600 C   0  0  0  0  0  0  0  0  0  0  0  0
    6.4120   -1.6830   18.5450 C   0  0  0  0  0  0  0  0  0  0  0  0
    6.0060   -0.3470   18.8740 C   0  0  0  0  0  0  0  0  0  0  0  0
    5.5160    0.3270   17.8190 N   0  0  0  0  0  0  0  0  0  0  0  0
    5.0840    1.5680   18.0450 C   0  0  0  0  0  0  0  0  0  0  0  0
    5.1270    2.1610   19.2820 C   0  0  0  0  0  0  0  0  0  0  0  0
    5.6620    1.4460   20.3540 C   0  0  0  0  0  0  0  0  0  0  0  0
    6.1280    0.1570   20.1670 C   0  0  0  0  0  0  0  0  0  0  0  0
    6.7040   -0.6290   21.2050 N   0  0  0  0  0  0  0  0  0  0  0  0
    7.9480   -0.4310   21.7960 C   0  0  0  0  0  0  0  0  0  0  0  0
    8.8380    0.3130   21.3690 O   0  0  0  0  0  0  0  0  0  0  0  0
    8.1570   -1.2150   23.1030 C   0  0  0  0  0  0  0  0  0  0  0  0
    7.4570   -2.5580   23.2170 C   0  0  0  0  0  0  0  0  0  0  0  0
    8.2030   -3.7210   23.4320 C   0  0  0  0  0  0  0  0  0  0  0  0
    7.5710   -4.9660   23.5420 C   0  0  0  0  0  0  0  0  0  0  0  0
    6.1970   -5.0690   23.4420 C   0  0  0  0  0  0  0  0  0  0  0  0
    5.4280   -3.9300   23.2300 C   0  0  0  0  0  0  0  0  0  0  0  0
    3.9460   -4.0650   23.1280 C   0  0  0  0  0  0  0  0  0  0  0  0
    6.0550   -2.6780   23.1170 C   0  0  0  0  0  0  0  0  0  0  0  0
  1  2  2  3
  2  3  1  0
  3  4  2  0
  4  5  1  0
  5  6  2  0
  6  7  1  0
  3  8  1  0
  7  8  2  0
  8  9  1  0
  9 10  1  0
 10 11  2  0
 10 12  1  0
 12 13  1  0
 13 14  2  0
 14 15  1  0
 15 16  2  0
 16 17  1  0
 17 18  1  0
 13 19  1  0
 17 19  2  0
M  END
