AGN-NEW-9315dc74-1
     RDKit          3D

 22 23  0  0  0  0  0  0  0  0999 V2000
    6.0530    2.4390   21.6100 C   0  0  0  0  0  0  0  0  0  0  0  0
    6.0040    1.5970   20.3100 C   0  0  0  0  0  0  0  0  0  0  0  0
    5.1740    2.1510   19.1800 C   0  0  0  0  0  0  0  0  0  0  0  0
    5.1450    1.4260   18.0380 C   0  0  0  0  0  0  0  0  0  0  0  0
    5.7770    0.2800   17.8520 N   0  0  0  0  0  0  0  0  0  0  0  0
    6.5410   -0.2720   18.8450 C   0  0  0  0  0  0  0  0  0  0  0  0
    7.1340   -1.4180   18.5520 F   0  0  0  0  0  0  0  0  0  0  0  0
    6.7300    0.2940   20.1240 C   0  0  0  0  0  0  0  0  0  0  0  0
    7.5800   -0.3930   21.1180 N   0  0  0  0  0  0  0  0  0  0  0  0
    7.2280   -0.2110   22.7870 S   0  0  0  0  0  0  0  0  0  0  0  0
    8.0340    0.9140   23.2240 O   0  0  0  0  0  0  0  0  0  0  0  0
    7.3750   -1.5280   23.3640 O   0  0  0  0  0  0  0  0  0  0  0  0
    5.5600    0.1770   22.8510 C   0  0  0  0  0  0  0  0  0  0  0  0
    5.0420    1.2670   23.5880 C   0  0  0  0  0  0  0  0  0  0  0  0
    3.7070    1.6380   23.6780 N   0  0  0  0  0  0  0  0  0  0  0  0
    3.3120    2.9950   23.2630 C   0  0  0  0  0  0  0  0  0  0  0  0
    3.3920    3.9630   24.0200 O   0  0  0  0  0  0  0  0  0  0  0  0
    2.8290    3.1250   21.9540 C   0  0  0  0  0  0  0  0  0  0  0  0
    3.4040    3.7960   20.8970 C   0  0  0  0  0  0  0  0  0  0  0  0
    2.7000    3.7620   19.7050 C   0  0  0  0  0  0  0  0  0  0  0  0
    1.5080    3.0340   19.8080 C   0  0  0  0  0  0  0  0  0  0  0  0
    1.2630    2.3900   21.3930 S   0  0  0  0  0  0  0  0  0  0  0  0
  1  2  1  0
  2  3  2  0
  3  4  1  0
  4  5  2  0
  5  6  1  0
  6  7  1  0
  2  8  1  0
  6  8  2  0
  8  9  1  0
  9 10  1  0
 10 11  2  0
 10 12  2  0
 10 13  1  0
 13 14  2  3
 14 15  1  0
 15 16  1  0
 16 17  2  0
 16 18  1  0
 18 19  2  0
 19 20  1  0
 20 21  2  0
 18 22  1  0
 21 22  1  0
M  END
