AGN-NEW-817c14da-4
     RDKit          3D

 29 31  0  0  0  0  0  0  0  0999 V2000
    5.6810   -4.3080   27.9880 C   0  0  0  0  0  0  0  0  0  0  0  0
    5.5560   -3.6550   26.6470 C   0  0  0  0  0  0  0  0  0  0  0  0
    6.3130   -2.6110   26.2980 C   0  0  0  0  0  0  0  0  0  0  0  0
    6.5860   -1.5260   27.2940 C   0  0  0  0  0  0  0  0  0  0  0  0
    7.4750   -0.3920   26.7670 C   0  0  0  0  0  0  0  0  0  0  0  0
    7.9460   -0.5340   25.3160 C   0  0  0  0  0  0  0  0  0  0  0  0
    7.5680   -1.6430   24.5510 C   0  0  0  0  0  0  0  0  0  0  0  0
    8.0110   -1.7530   23.2300 C   0  0  0  0  0  0  0  0  0  0  0  0
    8.6050   -0.4800   22.7940 N   0  0  0  0  0  0  0  0  0  0  0  0
    8.1060    0.1870   21.6880 C   0  0  0  0  0  0  0  0  0  0  0  0
    8.6830    1.1280   21.0990 O   0  0  0  0  0  0  0  0  0  0  0  0
    6.7910   -0.3620   21.3090 N   0  0  0  0  0  0  0  0  0  0  0  0
    6.2030    0.2980   20.1580 C   0  0  0  0  0  0  0  0  0  0  0  0
    5.3100    1.3390   20.3640 C   0  0  0  0  0  0  0  0  0  0  0  0
    4.7210    2.0260   19.1280 C   0  0  0  0  0  0  0  0  0  0  0  0
    5.0640    1.6310   17.8400 C   0  0  0  0  0  0  0  0  0  0  0  0
    5.9480    0.5880   17.7430 N   0  0  0  0  0  0  0  0  0  0  0  0
    6.5130   -0.0800   18.8870 C   0  0  0  0  0  0  0  0  0  0  0  0
    7.3590   -1.0970   18.6470 C   0  0  0  0  0  0  0  0  0  0  0  0
    9.9520   -0.3310   23.1410 C   0  0  0  0  0  0  0  0  0  0  0  0
   10.5370    0.8930   23.1180 N   0  0  0  0  0  0  0  0  0  0  0  0
   11.8410    0.9360   23.4660 C   0  0  0  0  0  0  0  0  0  0  0  0
   12.5380   -0.1940   23.8240 C   0  0  0  0  0  0  0  0  0  0  0  0
   11.8600   -1.3340   23.8140 C   0  0  0  0  0  0  0  0  0  0  0  0
   12.6000   -2.5620   24.1840 C   0  0  0  0  0  0  0  0  0  0  0  0
   13.5110   -2.2620   25.3240 C   0  0  0  0  0  0  0  0  0  0  0  0
   13.4800   -2.7520   22.9770 C   0  0  0  0  0  0  0  0  0  0  0  0
   10.5930   -1.4350   23.4840 N   0  0  0  0  0  0  0  0  0  0  0  0
    6.7730   -2.6570   25.0180 N   0  0  0  0  0  0  0  0  0  0  0  0
  1  2  3  0
  2  3  1  0
  3  4  2  0
  4  5  1  0
  5  6  2  0
  6  7  1  0
  7  8  1  0
  8  9  1  0
  9 10  1  0
 10 11  2  0
 10 12  1  0
 12 13  1  0
 13 14  2  0
 14 15  1  0
 15 16  2  0
 16 17  1  0
 13 18  1  0
 17 18  2  0
 18 19  1  0
  9 20  1  0
 20 21  2  0
 21 22  1  0
 22 23  2  0
 23 24  1  0
 24 25  1  0
 25 26  1  0
 25 27  1  0
 20 28  1  0
 24 28  2  0
  3 29  1  0
  7 29  2  0
M  END
