AGN-NEW-95323f67-3
     RDKit          3D

 26 28  0  0  0  0  0  0  0  0999 V2000
   13.6760   -2.4560   24.9890 C   0  0  0  0  0  0  0  0  0  0  0  0
   13.6540   -1.1360   24.4560 O   0  0  0  0  0  0  0  0  0  0  0  0
   12.3440   -0.7560   24.2460 C   0  0  0  0  0  0  0  0  0  0  0  0
   11.4150   -0.1080   25.1090 C   0  0  0  0  0  0  0  0  0  0  0  0
   10.1410    0.1460   24.7570 N   0  0  0  0  0  0  0  0  0  0  0  0
    9.7230   -0.2340   23.5490 C   0  0  0  0  0  0  0  0  0  0  0  0
    8.4170   -0.0440   23.2190 C   0  0  0  0  0  0  0  0  0  0  0  0
    7.9530    0.8940   21.8320 S   0  0  0  0  0  0  0  0  0  0  0  0
    9.1030    1.2760   21.0760 O   0  0  0  0  0  0  0  0  0  0  0  0
    7.0120    1.8780   22.3000 O   0  0  0  0  0  0  0  0  0  0  0  0
    7.0140   -0.2580   21.0560 N   0  0  0  0  0  0  0  0  0  0  0  0
    6.3380    0.3160   20.0300 C   0  0  0  0  0  0  0  0  0  0  0  0
    5.3020    1.2020   20.3560 C   0  0  0  0  0  0  0  0  0  0  0  0
    4.8670    1.5440   21.7840 C   0  0  0  0  0  0  0  0  0  0  0  0
    4.6120    1.8320   19.1630 C   0  0  0  0  0  0  0  0  0  0  0  0
    5.1210    1.4310   17.8230 C   0  0  0  0  0  0  0  0  0  0  0  0
    6.1110    0.5600   17.6270 N   0  0  0  0  0  0  0  0  0  0  0  0
    6.6770    0.0340   18.7200 C   0  0  0  0  0  0  0  0  0  0  0  0
    7.6830   -0.8670   18.5010 F   0  0  0  0  0  0  0  0  0  0  0  0
   10.5760   -0.8420   22.6630 C   0  0  0  0  0  0  0  0  0  0  0  0
   11.8690   -1.0910   23.0400 C   0  0  0  0  0  0  0  0  0  0  0  0
   12.6200   -1.7400   22.1830 C   0  0  0  0  0  0  0  0  0  0  0  0
   12.8770   -3.0820   22.4590 C   0  0  0  0  0  0  0  0  0  0  0  0
   13.5710   -3.6310   21.4660 C   0  0  0  0  0  0  0  0  0  0  0  0
   13.8680   -2.9160   20.5140 C   0  0  0  0  0  0  0  0  0  0  0  0
   13.3880   -1.3680   20.7470 S   0  0  0  0  0  0  0  0  0  0  0  0
  1  2  1  0
  2  3  1  0
  3  4  2  0
  4  5  1  0
  5  6  2  0
  6  7  1  0
  7  8  1  0
  8  9  2  0
  8 10  2  0
  8 11  1  0
 11 12  1  0
 12 13  2  0
 13 14  1  0
 13 15  1  0
 15 16  2  0
 16 17  1  0
 12 18  1  0
 17 18  2  0
 18 19  1  0
  6 20  1  0
  3 21  1  0
 20 21  2  0
 21 22  1  0
 22 23  2  0
 23 24  1  0
 24 25  2  0
 22 26  1  0
 25 26  1  0
M  END
