AGN-NEW-c197b967-2
     RDKit          3D

 36 39  0  0  0  0  0  0  0  0999 V2000
    7.2190   -6.4800   22.8100 C   0  0  0  0  0  0  0  0  0  0  0  0
    6.3960   -5.4260   22.1060 C   0  0  0  0  0  0  0  0  0  0  0  0
    6.1630   -4.2320   22.6630 C   0  0  0  0  0  0  0  0  0  0  0  0
    4.7480   -3.8500   23.0590 C   0  0  0  0  0  0  0  0  0  0  0  0
    4.5280   -2.4630   23.6960 C   0  0  0  0  0  0  0  0  0  0  0  0
    5.7780   -1.6000   23.8600 C   0  0  0  0  0  0  0  0  0  0  0  0
    7.1030   -2.2270   23.3720 C   0  0  0  0  0  0  0  0  0  0  0  0
    8.3160   -1.2410   23.6040 C   0  0  0  0  0  0  0  0  0  0  0  0
    9.0320   -1.0310   22.4360 N   0  0  0  0  0  0  0  0  0  0  0  0
    8.2320   -0.1420   21.6570 C   0  0  0  0  0  0  0  0  0  0  0  0
    8.6870    0.9060   21.1910 O   0  0  0  0  0  0  0  0  0  0  0  0
    6.8340   -0.5390   21.4490 N   0  0  0  0  0  0  0  0  0  0  0  0
    6.1890    0.1630   20.3220 C   0  0  0  0  0  0  0  0  0  0  0  0
    5.2830    1.1380   20.5670 C   0  0  0  0  0  0  0  0  0  0  0  0
    4.8570    1.5860   21.9520 C   0  0  0  0  0  0  0  0  0  0  0  0
    3.9750    2.6130   22.1660 N   0  0  0  0  0  0  0  0  0  0  0  0
    2.7570    2.6580   21.3380 C   0  0  0  0  0  0  0  0  0  0  0  0
    1.6370    3.0000   22.1000 C   0  0  0  0  0  0  0  0  0  0  0  0
    1.8440    4.0430   22.7170 O   0  0  0  0  0  0  0  0  0  0  0  0
    2.8540    3.8680   23.7150 C   0  0  0  0  0  0  0  0  0  0  0  0
    3.6910    2.7770   23.5960 C   0  0  0  0  0  0  0  0  0  0  0  0
    4.6510    1.8400   19.5090 C   0  0  0  0  0  0  0  0  0  0  0  0
    5.0020    1.4850   18.2270 C   0  0  0  0  0  0  0  0  0  0  0  0
    5.8690    0.5470   17.9310 N   0  0  0  0  0  0  0  0  0  0  0  0
    6.4490   -0.0990   18.9900 C   0  0  0  0  0  0  0  0  0  0  0  0
    7.4380   -1.1640   18.6780 C   0  0  0  0  0  0  0  0  0  0  0  0
   10.4080   -0.5240   22.5880 C   0  0  0  0  0  0  0  0  0  0  0  0
   10.4280    0.9780   22.7890 C   0  0  0  0  0  0  0  0  0  0  0  0
   11.6780    1.5450   22.9250 C   0  0  0  0  0  0  0  0  0  0  0  0
   11.7620    2.9490   23.1070 N   0  0  0  0  0  0  0  0  0  0  0  0
   12.8040    3.7810   22.4970 C   0  0  0  0  0  0  0  0  0  0  0  0
   10.5700    3.6830   23.5310 C   0  0  0  0  0  0  0  0  0  0  0  0
   12.8100    0.7170   22.8820 C   0  0  0  0  0  0  0  0  0  0  0  0
   12.6840   -0.6560   22.6970 C   0  0  0  0  0  0  0  0  0  0  0  0
   11.5100   -1.2800   22.5480 N   0  0  0  0  0  0  0  0  0  0  0  0
    7.2600   -3.4560   22.8200 N   0  0  0  0  0  0  0  0  0  0  0  0
  1  2  3  0
  2  3  1  0
  3  4  2  0
  4  5  1  0
  5  6  2  0
  6  7  1  0
  7  8  1  0
  8  9  1  0
  9 10  1  0
 10 11  2  0
 10 12  1  0
 12 13  1  0
 13 14  1  0
 14 15  1  0
 15 16  1  0
 16 17  1  0
 17 18  1  0
 18 19  1  0
 19 20  1  0
 16 21  1  0
 20 21  1  0
 14 22  2  0
 22 23  1  0
 23 24  2  0
 13 25  2  0
 24 25  1  0
 25 26  1  0
  9 27  1  0
 27 28  2  0
 28 29  1  0
 29 30  1  0
 30 31  1  0
 30 32  1  0
 29 33  2  0
 33 34  1  0
 27 35  1  0
 34 35  2  0
  3 36  1  0
  7 36  2  0
M  END
