AGN-NEW-891393a6-1
     RDKit          3D

 19 20  0  0  0  0  0  0  0  0999 V2000
   13.3300   -2.4810   24.4740 C   0  0  0  0  0  0  0  0  0  0  0  0
   13.4330   -1.8070   23.2190 O   0  0  0  0  0  0  0  0  0  0  0  0
   12.5310   -0.8070   23.0370 C   0  0  0  0  0  0  0  0  0  0  0  0
   12.8020    0.5630   23.0470 C   0  0  0  0  0  0  0  0  0  0  0  0
   11.7630    1.4820   22.8620 C   0  0  0  0  0  0  0  0  0  0  0  0
   12.0660    3.1820   22.8560 Cl  0  0  0  0  0  0  0  0  0  0  0  0
   10.5110    1.0670   22.6770 C   0  0  0  0  0  0  0  0  0  0  0  0
   10.2050   -0.3510   22.6490 C   0  0  0  0  0  0  0  0  0  0  0  0
    8.9170   -0.7880   22.4370 O   0  0  0  0  0  0  0  0  0  0  0  0
    8.2310   -0.0750   21.4650 C   0  0  0  0  0  0  0  0  0  0  0  0
    8.6210    1.1670   21.0170 O   0  0  0  0  0  0  0  0  0  0  0  0
    7.1690   -0.7910   21.0910 N   0  0  0  0  0  0  0  0  0  0  0  0
    6.4960   -0.0710   20.1100 C   0  0  0  0  0  0  0  0  0  0  0  0
    5.3180    0.6800   20.3550 C   0  0  0  0  0  0  0  0  0  0  0  0
    4.6680    1.3980   19.3200 C   0  0  0  0  0  0  0  0  0  0  0  0
    5.2050    1.3600   18.0420 C   0  0  0  0  0  0  0  0  0  0  0  0
    6.4050    0.5960   17.7870 N   0  0  0  0  0  0  0  0  0  0  0  0
    6.9870   -0.0790   18.8130 C   0  0  0  0  0  0  0  0  0  0  0  0
   11.2290   -1.2700   22.8320 C   0  0  0  0  0  0  0  0  0  0  0  0
  1  2  1  0
  2  3  1  0
  3  4  2  0
  4  5  1  0
  5  6  1  0
  5  7  2  0
  7  8  1  0
  8  9  1  0
  9 10  1  0
 10 11  2  0
 10 12  1  0
 12 13  1  0
 13 14  2  0
 14 15  1  0
 15 16  2  0
 16 17  1  0
 13 18  1  0
 17 18  2  0
  3 19  1  0
  8 19  2  0
M  END
