AGN-NEW-891393a6-3
     RDKit          3D

 19 20  0  0  0  0  0  0  0  0999 V2000
    8.6590    0.8350   21.2690 O   0  0  0  0  0  0  0  0  0  0  0  0
    7.7500    0.0010   22.0370 S   0  0  0  0  0  0  0  0  0  0  0  0
    6.8070    0.5940   22.9660 O   0  0  0  0  0  0  0  0  0  0  0  0
    8.7030   -1.1650   22.8640 C   0  0  0  0  0  0  0  0  0  0  0  0
    9.9640   -0.6710   22.9020 C   0  0  0  0  0  0  0  0  0  0  0  0
   10.2150    0.5670   23.5120 C   0  0  0  0  0  0  0  0  0  0  0  0
   11.5890    1.1030   23.5210 C   0  0  0  0  0  0  0  0  0  0  0  0
   11.7720    2.1570   24.0250 O   0  0  0  0  0  0  0  0  0  0  0  0
   12.6680    0.2860   22.8840 C   0  0  0  0  0  0  0  0  0  0  0  0
   12.2340   -0.9090   22.3300 C   0  0  0  0  0  0  0  0  0  0  0  0
   13.2940   -2.0260   21.4950 Cl  0  0  0  0  0  0  0  0  0  0  0  0
   10.9630   -1.3880   22.3220 C   0  0  0  0  0  0  0  0  0  0  0  0
    6.8800   -0.9860   20.9810 N   0  0  0  0  0  0  0  0  0  0  0  0
    6.3060   -0.1960   19.9580 C   0  0  0  0  0  0  0  0  0  0  0  0
    5.1290    0.5090   20.1940 C   0  0  0  0  0  0  0  0  0  0  0  0
    4.5230    1.3810   19.0600 C   0  0  0  0  0  0  0  0  0  0  0  0
    5.1710    1.4360   17.8450 C   0  0  0  0  0  0  0  0  0  0  0  0
    6.3230    0.7190   17.6640 N   0  0  0  0  0  0  0  0  0  0  0  0
    6.8670   -0.0770   18.7120 C   0  0  0  0  0  0  0  0  0  0  0  0
  1  2  2  0
  2  3  2  0
  2  4  1  0
  4  5  1  0
  5  6  2  0
  6  7  1  0
  7  8  1  0
  7  9  2  0
  9 10  1  0
 10 11  1  0
  5 12  1  0
 10 12  2  0
  2 13  1  0
 13 14  1  0
 14 15  2  0
 15 16  1  0
 16 17  2  0
 17 18  1  0
 14 19  1  0
 18 19  2  0
M  END
