AGN-NEW-95323f67-6
     RDKit          3D

 22 23  0  0  0  0  0  0  0  0999 V2000
    4.8470    1.2270   21.8810 C   0  0  0  0  0  0  0  0  0  0  0  0
    5.3490    0.9380   20.4970 C   0  0  0  0  0  0  0  0  0  0  0  0
    4.7510    1.7200   19.3640 C   0  0  0  0  0  0  0  0  0  0  0  0
    5.1810    1.5110   17.9570 C   0  0  0  0  0  0  0  0  0  0  0  0
    6.1470    0.5700   17.7350 N   0  0  0  0  0  0  0  0  0  0  0  0
    6.7630   -0.2210   18.7710 C   0  0  0  0  0  0  0  0  0  0  0  0
    7.6840   -1.1160   18.4430 F   0  0  0  0  0  0  0  0  0  0  0  0
    6.3410   -0.0210   20.2110 C   0  0  0  0  0  0  0  0  0  0  0  0
    6.9910   -0.8450   21.2040 N   0  0  0  0  0  0  0  0  0  0  0  0
    8.2740   -0.2140   22.1310 S   0  0  0  0  0  0  0  0  0  0  0  0
    8.0530   -0.7390   23.5250 O   0  0  0  0  0  0  0  0  0  0  0  0
    9.5920   -0.6940   21.5860 O   0  0  0  0  0  0  0  0  0  0  0  0
    8.2260    1.5130   22.1360 C   0  0  0  0  0  0  0  0  0  0  0  0
    9.4350    2.3100   22.5580 C   0  0  0  0  0  0  0  0  0  0  0  0
    9.3900    3.6600   22.5660 N   0  0  0  0  0  0  0  0  0  0  0  0
    9.7410    4.1810   23.8330 C   0  0  0  0  0  0  0  0  0  0  0  0
    9.2370    3.7150   24.8490 O   0  0  0  0  0  0  0  0  0  0  0  0
   10.6540    5.2280   23.9480 C   0  0  0  0  0  0  0  0  0  0  0  0
   11.4980    5.6940   22.9480 C   0  0  0  0  0  0  0  0  0  0  0  0
   12.3320    6.8210   23.4130 C   0  0  0  0  0  0  0  0  0  0  0  0
   12.0770    7.1510   24.7400 C   0  0  0  0  0  0  0  0  0  0  0  0
   10.8720    6.1300   25.4160 S   0  0  0  0  0  0  0  0  0  0  0  0
  1  2  1  0
  2  3  2  0
  3  4  1  0
  4  5  2  0
  5  6  1  0
  6  7  1  0
  2  8  1  0
  6  8  2  0
  8  9  1  0
  9 10  1  0
 10 11  2  0
 10 12  2  0
 10 13  1  0
 13 14  2  3
 14 15  1  0
 15 16  1  0
 16 17  2  0
 16 18  1  0
 18 19  2  0
 19 20  1  0
 20 21  2  0
 18 22  1  0
 21 22  1  0
M  END
