AGN-NEW-fad6815c-1
     RDKit          3D

 36 39  0  0  0  0  0  0  0  0999 V2000
    5.9850   -3.4480   27.8710 C   0  0  0  0  0  0  0  0  0  0  0  0
    6.1220   -1.9930   28.2090 C   0  0  0  0  0  0  0  0  0  0  0  0
    6.3540   -1.1800   26.9440 C   0  0  0  0  0  0  0  0  0  0  0  0
    5.7560    0.2270   26.9340 C   0  0  0  0  0  0  0  0  0  0  0  0
    6.0260    0.9850   25.6460 C   0  0  0  0  0  0  0  0  0  0  0  0
    6.8010    0.3420   24.5780 N   0  0  0  0  0  0  0  0  0  0  0  0
    7.2830   -1.0380   24.8180 C   0  0  0  0  0  0  0  0  0  0  0  0
    8.1130   -1.7330   23.6970 C   0  0  0  0  0  0  0  0  0  0  0  0
    8.7090   -0.9720   22.6700 N   0  0  0  0  0  0  0  0  0  0  0  0
    8.0750   -0.3830   21.5290 C   0  0  0  0  0  0  0  0  0  0  0  0
    8.4220    0.6980   21.0440 O   0  0  0  0  0  0  0  0  0  0  0  0
    7.0530   -1.0670   20.9550 N   0  0  0  0  0  0  0  0  0  0  0  0
    6.2630   -0.2720   20.1290 C   0  0  0  0  0  0  0  0  0  0  0  0
    5.2430    0.3890   20.6140 C   0  0  0  0  0  0  0  0  0  0  0  0
    5.0670    0.1510   21.9810 C   0  0  0  0  0  0  0  0  0  0  0  0
    4.7530   -1.3280   22.2040 N   0  0  0  0  0  0  0  0  0  0  0  0
    5.5240   -2.2320   21.3140 C   0  0  0  0  0  0  0  0  0  0  0  0
    5.4530   -3.5540   21.7200 C   0  0  0  0  0  0  0  0  0  0  0  0
    4.2170   -3.8330   22.3600 O   0  0  0  0  0  0  0  0  0  0  0  0
    4.1630   -3.1630   23.6400 C   0  0  0  0  0  0  0  0  0  0  0  0
    4.7750   -1.8770   23.6050 C   0  0  0  0  0  0  0  0  0  0  0  0
    4.4870    1.2080   19.7500 C   0  0  0  0  0  0  0  0  0  0  0  0
    4.9480    1.2420   18.2860 C   0  0  0  0  0  0  0  0  0  0  0  0
    6.0060    0.5180   17.8600 N   0  0  0  0  0  0  0  0  0  0  0  0
    6.6080   -0.2100   18.8310 C   0  0  0  0  0  0  0  0  0  0  0  0
    7.6610   -0.9670   18.5270 C   0  0  0  0  0  0  0  0  0  0  0  0
    9.9310   -0.4020   22.7950 C   0  0  0  0  0  0  0  0  0  0  0  0
    9.8720    0.9350   22.9390 N   0  0  0  0  0  0  0  0  0  0  0  0
   10.9980    1.5960   22.9980 C   0  0  0  0  0  0  0  0  0  0  0  0
   12.2960    0.8490   22.9190 C   0  0  0  0  0  0  0  0  0  0  0  0
   12.1460   -0.5010   22.7820 C   0  0  0  0  0  0  0  0  0  0  0  0
   13.3690   -1.1670   22.6780 C   0  0  0  0  0  0  0  0  0  0  0  0
   13.4060   -1.9160   21.3980 C   0  0  0  0  0  0  0  0  0  0  0  0
   13.8180    0.2640   22.6430 C   0  0  0  0  0  0  0  0  0  0  0  0
   11.0140   -1.1390   22.7230 N   0  0  0  0  0  0  0  0  0  0  0  0
    7.0600   -1.7560   25.9540 N   0  0  0  0  0  0  0  0  0  0  0  0
  1  2  3  0
  2  3  1  0
  3  4  2  0
  4  5  1  0
  5  6  2  0
  6  7  1  0
  7  8  1  0
  8  9  1  0
  9 10  1  0
 10 11  2  0
 10 12  1  0
 12 13  1  0
 13 14  1  0
 14 15  1  0
 15 16  1  0
 16 17  1  0
 17 18  1  0
 18 19  1  0
 19 20  1  0
 16 21  1  0
 20 21  1  0
 14 22  2  0
 22 23  1  0
 23 24  2  0
 13 25  2  0
 24 25  1  0
 25 26  1  0
  9 27  1  0
 27 28  2  0
 28 29  1  0
 29 30  2  0
 30 31  1  0
 31 32  1  0
 32 33  1  0
 32 34  1  0
 27 35  1  0
 31 35  2  0
  3 36  1  0
  7 36  2  0
M  END
