AGN-NEW-9315dc74-2
     RDKit          3D

 26 28  0  0  0  0  0  0  0  0999 V2000
   13.5420   -0.9490   23.1050 C   0  0  0  0  0  0  0  0  0  0  0  0
   13.6440    0.3110   22.4170 O   0  0  0  0  0  0  0  0  0  0  0  0
   12.4060    0.6320   22.6170 C   0  0  0  0  0  0  0  0  0  0  0  0
   11.7120    1.8700   23.0560 C   0  0  0  0  0  0  0  0  0  0  0  0
   10.2300    1.6930   23.2180 N   0  0  0  0  0  0  0  0  0  0  0  0
    9.5870    0.5060   22.9860 C   0  0  0  0  0  0  0  0  0  0  0  0
    8.2700    0.1960   23.1330 C   0  0  0  0  0  0  0  0  0  0  0  0
    7.6130    1.0150   21.7480 S   0  0  0  0  0  0  0  0  0  0  0  0
    8.7220    1.4350   20.9170 O   0  0  0  0  0  0  0  0  0  0  0  0
    6.6190    1.9640   22.2030 O   0  0  0  0  0  0  0  0  0  0  0  0
    6.7220   -0.2360   21.0340 N   0  0  0  0  0  0  0  0  0  0  0  0
    6.1420    0.3240   19.9570 C   0  0  0  0  0  0  0  0  0  0  0  0
    5.0860    1.2200   20.1060 C   0  0  0  0  0  0  0  0  0  0  0  0
    4.5430    1.5700   21.3520 C   0  0  0  0  0  0  0  0  0  0  0  0
    4.5740    1.7860   18.9530 C   0  0  0  0  0  0  0  0  0  0  0  0
    5.1210    1.4400   17.7460 C   0  0  0  0  0  0  0  0  0  0  0  0
    6.1340    0.5600   17.5720 N   0  0  0  0  0  0  0  0  0  0  0  0
    6.6100    0.0250   18.6960 C   0  0  0  0  0  0  0  0  0  0  0  0
    7.6010   -0.8460   18.5690 F   0  0  0  0  0  0  0  0  0  0  0  0
   10.3270   -0.5110   22.5270 C   0  0  0  0  0  0  0  0  0  0  0  0
   11.6470   -0.4390   22.3400 C   0  0  0  0  0  0  0  0  0  0  0  0
   12.1400   -1.5100   21.7690 C   0  0  0  0  0  0  0  0  0  0  0  0
   13.3960   -1.8080   21.4270 C   0  0  0  0  0  0  0  0  0  0  0  0
   13.4340   -2.9690   20.7100 C   0  0  0  0  0  0  0  0  0  0  0  0
   12.1870   -3.5660   20.5000 C   0  0  0  0  0  0  0  0  0  0  0  0
   11.0230   -2.6040   21.3040 S   0  0  0  0  0  0  0  0  0  0  0  0
  1  2  1  0
  2  3  1  0
  3  4  2  0
  4  5  1  0
  5  6  2  0
  6  7  1  0
  7  8  1  0
  8  9  2  0
  8 10  2  0
  8 11  1  0
 11 12  1  0
 12 13  2  0
 13 14  1  0
 13 15  1  0
 15 16  2  0
 16 17  1  0
 12 18  1  0
 17 18  2  0
 18 19  1  0
  6 20  1  0
  3 21  1  0
 20 21  2  0
 21 22  1  0
 22 23  2  0
 23 24  1  0
 24 25  2  0
 22 26  1  0
 25 26  1  0
M  END
