AGN-NEW-817c14da-3
     RDKit          3D

 36 39  0  0  0  0  0  0  0  0999 V2000
    6.2220   -1.8080   28.5810 C   0  0  0  0  0  0  0  0  0  0  0  0
    6.2860   -1.2470   27.1570 C   0  0  0  0  0  0  0  0  0  0  0  0
    6.3990   -2.1260   26.0760 C   0  0  0  0  0  0  0  0  0  0  0  0
    5.7070   -3.3510   26.0760 C   0  0  0  0  0  0  0  0  0  0  0  0
    5.8860   -4.1540   24.9630 C   0  0  0  0  0  0  0  0  0  0  0  0
    6.7190   -3.7180   23.9350 N   0  0  0  0  0  0  0  0  0  0  0  0
    7.3680   -2.5060   23.9960 C   0  0  0  0  0  0  0  0  0  0  0  0
    8.2060   -2.0760   22.9540 C   0  0  0  0  0  0  0  0  0  0  0  0
    8.5240   -0.6330   22.8580 N   0  0  0  0  0  0  0  0  0  0  0  0
    7.9420   -0.0900   21.6910 C   0  0  0  0  0  0  0  0  0  0  0  0
    8.5030    0.8210   21.0770 O   0  0  0  0  0  0  0  0  0  0  0  0
    6.7210   -0.6090   21.2740 N   0  0  0  0  0  0  0  0  0  0  0  0
    6.0870    0.1050   20.1770 C   0  0  0  0  0  0  0  0  0  0  0  0
    5.1000    1.0280   20.4620 C   0  0  0  0  0  0  0  0  0  0  0  0
    4.6860    1.2670   21.7620 C   0  0  0  0  0  0  0  0  0  0  0  0
    3.5900    2.0970   21.9070 N   0  0  0  0  0  0  0  0  0  0  0  0
    3.8510    3.1890   22.6670 C   0  0  0  0  0  0  0  0  0  0  0  0
    3.6320    3.1260   24.1790 C   0  0  0  0  0  0  0  0  0  0  0  0
    2.4130    2.4410   24.4850 O   0  0  0  0  0  0  0  0  0  0  0  0
    1.6580    2.1310   23.3060 C   0  0  0  0  0  0  0  0  0  0  0  0
    2.4180    1.3280   22.4550 C   0  0  0  0  0  0  0  0  0  0  0  0
    4.5570    1.6990   19.3630 C   0  0  0  0  0  0  0  0  0  0  0  0
    5.0150    1.4140   18.0930 C   0  0  0  0  0  0  0  0  0  0  0  0
    5.9600    0.5070   17.8100 N   0  0  0  0  0  0  0  0  0  0  0  0
    6.4630   -0.1230   18.8650 C   0  0  0  0  0  0  0  0  0  0  0  0
    7.5020   -1.1570   18.6040 C   0  0  0  0  0  0  0  0  0  0  0  0
    9.8780   -0.3160   23.0770 C   0  0  0  0  0  0  0  0  0  0  0  0
   10.2890    0.8790   23.5530 N   0  0  0  0  0  0  0  0  0  0  0  0
   11.6210    1.0510   23.7080 C   0  0  0  0  0  0  0  0  0  0  0  0
   12.5300    0.0520   23.4050 C   0  0  0  0  0  0  0  0  0  0  0  0
   11.9850   -1.1220   22.9360 C   0  0  0  0  0  0  0  0  0  0  0  0
   12.6530   -2.2610   22.5880 C   0  0  0  0  0  0  0  0  0  0  0  0
   13.1850   -2.1030   21.3130 C   0  0  0  0  0  0  0  0  0  0  0  0
   13.6150   -2.5950   23.7090 C   0  0  0  0  0  0  0  0  0  0  0  0
   10.7040   -1.2850   22.7760 N   0  0  0  0  0  0  0  0  0  0  0  0
    7.2120   -1.6950   25.0750 N   0  0  0  0  0  0  0  0  0  0  0  0
  1  2  3  0
  2  3  1  0
  3  4  2  0
  4  5  1  0
  5  6  2  0
  6  7  1  0
  7  8  1  0
  8  9  1  0
  9 10  1  0
 10 11  2  0
 10 12  1  0
 12 13  1  0
 13 14  1  0
 14 15  1  0
 15 16  1  0
 16 17  1  0
 17 18  1  0
 18 19  1  0
 19 20  1  0
 16 21  1  0
 20 21  1  0
 14 22  2  0
 22 23  1  0
 23 24  2  0
 13 25  2  0
 24 25  1  0
 25 26  1  0
  9 27  1  0
 27 28  2  0
 28 29  1  0
 29 30  2  0
 30 31  1  0
 31 32  1  0
 32 33  1  0
 32 34  1  0
 27 35  1  0
 31 35  2  0
  3 36  1  0
  7 36  2  0
M  END
