AGN-NEW-9d245c51-1
     RDKit          3D

 36 38  0  0  0  0  0  0  0  0999 V2000
    7.7010   -1.7150   18.2810 C   0  0  0  0  0  0  0  0  0  0  0  0
    6.2690   -1.7170   18.4320 C   0  0  0  0  0  0  0  0  0  0  0  0
    5.7460   -0.4560   18.8010 C   0  0  0  0  0  0  0  0  0  0  0  0
    5.1540    0.4170   17.9600 N   0  0  0  0  0  0  0  0  0  0  0  0
    4.6730    1.5540   18.4490 C   0  0  0  0  0  0  0  0  0  0  0  0
    4.7290    1.8870   19.7910 C   0  0  0  0  0  0  0  0  0  0  0  0
    4.1750    3.0830   20.1960 C   0  0  0  0  0  0  0  0  0  0  0  0
    5.3960    0.9370   20.7840 C   0  0  0  0  0  0  0  0  0  0  0  0
    5.4870    1.1970   22.2900 C   0  0  0  0  0  0  0  0  0  0  0  0
    5.4600    2.6770   22.6310 C   0  0  0  0  0  0  0  0  0  0  0  0
    4.1000    3.2500   22.6830 N   0  0  0  0  0  0  0  0  0  0  0  0
    2.9960    2.5520   23.0860 C   0  0  0  0  0  0  0  0  0  0  0  0
    1.7460    2.6140   22.3380 C   0  0  0  0  0  0  0  0  0  0  0  0
    3.2310    1.8160   24.2920 O   0  0  0  0  0  0  0  0  0  0  0  0
    5.9380   -0.2280   20.2880 C   0  0  0  0  0  0  0  0  0  0  0  0
    6.6170   -1.1260   21.1220 N   0  0  0  0  0  0  0  0  0  0  0  0
    7.9200   -0.5250   21.5490 C   0  0  0  0  0  0  0  0  0  0  0  0
    8.3150    0.4990   20.9910 O   0  0  0  0  0  0  0  0  0  0  0  0
    8.6190   -1.1580   22.5890 N   0  0  0  0  0  0  0  0  0  0  0  0
    7.9370   -1.3590   23.8480 C   0  0  0  0  0  0  0  0  0  0  0  0
    6.9040   -2.5060   23.9670 C   0  0  0  0  0  0  0  0  0  0  0  0
    6.5890   -2.8520   25.2180 N   0  0  0  0  0  0  0  0  0  0  0  0
    5.6980   -3.8300   25.3330 C   0  0  0  0  0  0  0  0  0  0  0  0
    5.3630   -4.2000   26.5790 F   0  0  0  0  0  0  0  0  0  0  0  0
    5.0930   -4.4910   24.3110 N   0  0  0  0  0  0  0  0  0  0  0  0
    5.4750   -4.0720   23.1140 C   0  0  0  0  0  0  0  0  0  0  0  0
    4.9160   -4.6900   22.0010 O   0  0  0  0  0  0  0  0  0  0  0  0
    5.3130   -6.0640   21.9140 C   0  0  0  0  0  0  0  0  0  0  0  0
    6.3710   -3.0920   22.8710 N   0  0  0  0  0  0  0  0  0  0  0  0
   10.0440   -0.7330   22.7240 C   0  0  0  0  0  0  0  0  0  0  0  0
   10.2830    0.7580   22.7630 C   0  0  0  0  0  0  0  0  0  0  0  0
   11.7460    1.1920   22.8870 C   0  0  0  0  0  0  0  0  0  0  0  0
   12.0900    2.7040   22.9140 C   0  0  0  0  0  0  0  0  0  0  0  0
   12.7290    0.2210   22.9640 C   0  0  0  0  0  0  0  0  0  0  0  0
   12.3450   -1.1150   22.9190 C   0  0  0  0  0  0  0  0  0  0  0  0
   11.0590   -1.5730   22.8030 N   0  0  0  0  0  0  0  0  0  0  0  0
  1  2  2  3
  2  3  1  0
  3  4  2  0
  4  5  1  0
  5  6  2  0
  6  7  1  0
  6  8  1  0
  8  9  1  0
  9 10  1  0
 10 11  1  0
 11 12  1  0
 12 13  1  0
 12 14  2  0
  3 15  1  0
  8 15  2  0
 15 16  1  0
 16 17  1  0
 17 18  2  0
 17 19  1  0
 19 20  1  0
 20 21  1  0
 21 22  2  0
 22 23  1  0
 23 24  1  0
 23 25  2  0
 25 26  1  0
 26 27  1  0
 27 28  1  0
 21 29  1  0
 26 29  2  0
 19 30  1  0
 30 31  2  0
 31 32  1  0
 32 33  1  0
 32 34  2  0
 34 35  1  0
 30 36  1  0
 35 36  2  0
M  END
