ALB-THE-e2bfce8e-1
     RDKit          3D

 28 30  0  0  0  0  0  0  0  0999 V2000
   10.3670    6.9690   23.8470 N   0  0  0  0  0  0  0  0  0  0  0  0
    9.4710    5.5650   24.0660 S   0  0  0  0  0  0  0  0  0  0  0  0
    9.3300    5.3840   25.4890 O   0  0  0  0  0  0  0  0  0  0  0  0
    8.3580    5.5930   23.1460 O   0  0  0  0  0  0  0  0  0  0  0  0
   10.5870    4.3610   23.5070 C   0  0  0  0  0  0  0  0  0  0  0  0
   11.7990    4.8900   22.9120 C   0  0  0  0  0  0  0  0  0  0  0  0
   12.7270    4.0450   22.4540 C   0  0  0  0  0  0  0  0  0  0  0  0
   12.4960    2.7020   22.5850 C   0  0  0  0  0  0  0  0  0  0  0  0
   11.3430    2.1500   23.1330 C   0  0  0  0  0  0  0  0  0  0  0  0
   10.3510    3.0030   23.6070 C   0  0  0  0  0  0  0  0  0  0  0  0
    8.8890    2.4200   24.2890 Cl  0  0  0  0  0  0  0  0  0  0  0  0
   13.5420    1.9180   22.1040 N   0  0  0  0  0  0  0  0  0  0  0  0
   14.8390    2.4180   21.7690 C   0  0  0  0  0  0  0  0  0  0  0  0
   15.3780    3.7430   21.9800 N   0  0  0  0  0  0  0  0  0  0  0  0
   16.5340    4.0930   22.8420 C   0  0  0  0  0  0  0  0  0  0  0  0
   17.9470    4.5380   22.5260 C   0  0  0  0  0  0  0  0  0  0  0  0
   18.9780    4.7190   23.6410 C   0  0  0  0  0  0  0  0  0  0  0  0
   18.8880    4.2600   24.7230 O   0  0  0  0  0  0  0  0  0  0  0  0
   20.0400    5.5200   23.2360 N   0  0  0  0  0  0  0  0  0  0  0  0
   21.3980    5.2850   23.5400 C   0  0  0  0  0  0  0  0  0  0  0  0
   22.5690    5.4910   22.5630 C   0  0  0  0  0  0  0  0  0  0  0  0
   23.8370    5.1980   23.0690 C   0  0  0  0  0  0  0  0  0  0  0  0
   24.0080    4.7100   24.5030 C   0  0  0  0  0  0  0  0  0  0  0  0
   22.9560    4.5480   25.3290 N   0  0  0  0  0  0  0  0  0  0  0  0
   21.7120    4.8320   24.8340 C   0  0  0  0  0  0  0  0  0  0  0  0
   14.1280    4.7990   21.7310 S   0  0  0  0  0  0  0  0  0  0  0  0
   14.2750    5.9440   22.5600 O   0  0  0  0  0  0  0  0  0  0  0  0
   13.9160    4.9350   20.3040 O   0  0  0  0  0  0  0  0  0  0  0  0
  2  1  1  0
  2  3  2  0
  2  4  2  0
  2  5  1  0
  5  6  2  0
  6  7  1  0
  7  8  2  0
  8  9  1  0
  5 10  1  0
  9 10  2  0
 10 11  1  0
  8 12  1  0
 12 13  1  0
 13 14  1  0
 14 15  1  0
 15 16  1  0
 16 17  1  0
 17 18  2  0
 17 19  1  0
 19 20  1  0
 20 21  2  0
 21 22  1  0
 22 23  2  0
 23 24  1  0
 20 25  1  0
 24 25  2  0
  7 26  1  0
 26 14  1  0
 26 27  2  0
 26 28  2  0
M  END
