ALE-HEI-f28a35b5-9
     RDKit          3D

 16 17  0  0  0  0  0  0  0  0999 V2000
    9.2300    1.4010   21.3630 O   0  0  0  0  0  0  0  0  0  0  0  0
    8.8120    0.3180   21.8030 C   0  0  0  0  0  0  0  0  0  0  0  0
    9.3620   -0.2940   23.0480 C   0  0  0  0  0  0  0  0  0  0  0  0
   10.2160   -1.3390   23.1280 C   0  0  0  0  0  0  0  0  0  0  0  0
   11.0710   -1.6630   21.9120 C   0  0  0  0  0  0  0  0  0  0  0  0
   12.5150   -1.8970   22.0260 C   0  0  0  0  0  0  0  0  0  0  0  0
   13.1380   -1.7500   23.2700 C   0  0  0  0  0  0  0  0  0  0  0  0
   12.3050   -2.0810   24.3160 C   0  0  0  0  0  0  0  0  0  0  0  0
   11.1860   -1.0760   24.2570 C   0  0  0  0  0  0  0  0  0  0  0  0
    7.7450   -0.4810   21.2270 N   0  0  0  0  0  0  0  0  0  0  0  0
    6.8110    0.1300   20.2910 C   0  0  0  0  0  0  0  0  0  0  0  0
    5.7710    0.9810   20.6260 C   0  0  0  0  0  0  0  0  0  0  0  0
    4.9650    1.4990   19.5760 C   0  0  0  0  0  0  0  0  0  0  0  0
    5.1520    1.1930   18.1510 C   0  0  0  0  0  0  0  0  0  0  0  0
    6.1140    0.3840   17.7150 N   0  0  0  0  0  0  0  0  0  0  0  0
    6.9320   -0.1370   18.7900 C   0  0  0  0  0  0  0  0  0  0  0  0
  1  2  2  0
  2  3  1  0
  3  4  1  0
  4  5  1  0
  5  6  1  0
  6  7  1  0
  7  8  1  0
  4  9  1  0
  8  9  1  0
  2 10  1  0
 10 11  1  0
 11 12  2  0
 12 13  1  0
 13 14  2  0
 14 15  1  0
 11 16  1  0
 15 16  2  0
M  END
