ALE-UNK-fca05062-6
     RDKit          3D

 16 16  0  0  0  0  0  0  0  0999 V2000
    4.4050   -3.4820   24.3460 C   0  0  0  0  0  0  0  0  0  0  0  0
    5.2310   -4.6210   24.6540 C   0  0  0  0  0  0  0  0  0  0  0  0
    6.0110   -4.5080   25.9440 C   0  0  0  0  0  0  0  0  0  0  0  0
    7.4570   -4.1700   25.8110 C   0  0  0  0  0  0  0  0  0  0  0  0
    8.3430   -4.6740   26.4950 O   0  0  0  0  0  0  0  0  0  0  0  0
    7.6410   -3.1460   24.7360 N   0  0  0  0  0  0  0  0  0  0  0  0
    8.8450   -2.8480   24.3810 C   0  0  1  0  0  0  0  0  0  0  0  0
    9.4240   -4.0700   24.1090 C   0  0  0  0  0  0  0  0  0  0  0  0
    9.5400   -5.0370   25.1060 C   0  0  0  0  0  0  0  0  0  0  0  0
    9.1420   -1.8900   23.3340 C   0  0  0  0  0  0  0  0  0  0  0  0
   10.3940   -1.2840   23.0760 C   0  0  0  0  0  0  0  0  0  0  0  0
   10.6830    0.0210   23.4530 C   0  0  0  0  0  0  0  0  0  0  0  0
   12.0030    0.6090   23.2140 C   0  0  0  0  0  0  0  0  0  0  0  0
   12.9640   -0.1540   22.6000 C   0  0  0  0  0  0  0  0  0  0  0  0
   12.7010   -1.4560   22.1930 C   0  0  0  0  0  0  0  0  0  0  0  0
   11.4250   -2.0080   22.4310 C   0  0  0  0  0  0  0  0  0  0  0  0
  1  2  1  0
  2  3  1  0
  3  4  1  0
  4  5  2  0
  4  6  1  0
  6  7  1  0
  7  8  1  6
  8  9  1  0
  7 10  1  0
 10 11  1  0
 11 12  2  0
 12 13  1  0
 13 14  2  0
 14 15  1  0
 11 16  1  0
 15 16  2  0
M  END
