ALE-UNK-fca05062-9
     RDKit          3D

 20 20  0  0  0  0  0  0  0  0999 V2000
   10.7670   -1.4460   23.4170 C   0  0  0  0  0  0  0  0  0  0  0  0
    9.5370   -1.8270   23.0470 C   0  0  0  0  0  0  0  0  0  0  0  0
    8.8140   -2.7930   23.9100 C   0  0  0  0  0  0  0  0  0  0  0  0
    7.6270   -3.3220   23.4020 N   0  0  0  0  0  0  0  0  0  0  0  0
    7.0700   -4.5920   23.7900 C   0  0  0  0  0  0  0  0  0  0  0  0
    7.6640   -5.6480   23.5890 O   0  0  0  0  0  0  0  0  0  0  0  0
    5.8100   -4.6100   24.4160 C   0  0  2  0  0  0  0  0  0  0  0  0
    5.6510   -4.0370   25.6830 C   0  0  0  0  0  0  0  0  0  0  0  0
    5.2560   -5.9620   24.3490 N   0  0  0  0  0  0  0  0  0  0  0  0
    4.0620   -6.2810   23.7480 C   0  0  0  0  0  0  0  0  0  0  0  0
    3.6420   -5.6700   22.7640 O   0  0  0  0  0  0  0  0  0  0  0  0
    3.3940   -7.3380   24.3540 N   0  0  0  0  0  0  0  0  0  0  0  0
    3.3870   -7.5630   25.7940 C   0  0  0  0  0  0  0  0  0  0  0  0
    2.2650   -7.9400   23.6330 C   0  0  0  0  0  0  0  0  0  0  0  0
    1.0720   -7.2450   23.7740 C   0  0  0  0  0  0  0  0  0  0  0  0
    0.7980   -5.9650   23.0810 C   0  0  0  0  0  0  0  0  0  0  0  0
   -0.7660   -5.4280   23.5050 S   0  0  0  0  0  0  0  0  0  0  0  0
   -0.9820   -6.8210   24.5110 C   0  0  0  0  0  0  0  0  0  0  0  0
   -2.1900   -6.9850   25.2110 C   0  0  0  0  0  0  0  0  0  0  0  0
    0.0210   -7.6790   24.5720 N   0  0  0  0  0  0  0  0  0  0  0  0
  1  2  1  0
  2  3  1  0
  3  4  1  0
  4  5  1  0
  5  6  2  0
  5  7  1  0
  7  8  1  1
  7  9  1  0
  9 10  1  0
 10 11  2  0
 10 12  1  0
 12 13  1  0
 12 14  1  0
 14 15  1  0
 15 16  2  0
 16 17  1  0
 17 18  1  0
 18 19  1  0
 15 20  1  0
 18 20  2  0
M  END
