ALE-UNK-fca05062-1
     RDKit          3D

 46 49  0  0  0  0  0  0  0  0999 V2000
    6.3540   -5.7810   28.5790 C   0  0  0  0  0  0  0  0  0  0  0  0
    5.2040   -6.3080   27.7680 C   0  0  0  0  0  0  0  0  0  0  0  0
    4.0470   -6.8680   28.5040 C   0  0  0  0  0  0  0  0  0  0  0  0
    2.9360   -7.3820   27.6550 C   0  0  0  0  0  0  0  0  0  0  0  0
    2.9490   -7.3510   26.1460 C   0  0  0  0  0  0  0  0  0  0  0  0
    4.0500   -6.8200   25.5770 C   0  0  0  0  0  0  0  0  0  0  0  0
    4.1700   -6.7420   24.1150 C   0  0  0  0  0  0  0  0  0  0  0  0
    5.1470   -6.3120   26.3560 C   0  0  0  0  0  0  0  0  0  0  0  0
    6.2380   -5.7950   25.7060 O   0  0  0  0  0  0  0  0  0  0  0  0
    5.9640   -4.6840   24.8640 C   0  0  0  0  0  0  0  0  0  0  0  0
    6.9780   -3.5650   25.0110 C   0  0  0  0  0  0  0  0  0  0  0  0
    7.0640   -2.9280   26.0360 O   0  0  0  0  0  0  0  0  0  0  0  0
    7.8480   -3.3520   23.9370 N   0  0  0  0  0  0  0  0  0  0  0  0
    8.7140   -2.1480   23.8140 C   0  0  1  0  0  0  0  0  0  0  0  0
    9.6530   -2.2240   22.8560 C   0  0  0  0  0  0  0  0  0  0  0  0
   10.8410   -1.4160   23.0250 C   0  0  0  0  0  0  0  0  0  0  0  0
   10.5940   -0.0470   23.2910 C   0  0  0  0  0  0  0  0  0  0  0  0
   12.0830    0.2930   23.3600 C   0  0  0  0  0  0  0  0  0  0  0  0
   11.8460   -0.9760   23.1140 C   0  0  0  0  0  0  0  0  0  0  0  0
   13.1560   -1.1770   23.0740 C   0  0  0  0  0  0  0  0  0  0  0  0
   12.1340   -2.0400   22.9040 C   0  0  0  0  0  0  0  0  0  0  0  0
    7.8120   -0.9120   23.5970 C   0  0  2  0  0  0  0  0  0  0  0  0
    7.0100   -0.7210   24.7620 O   0  0  0  0  0  0  0  0  0  0  0  0
    6.8380   -1.1980   22.3830 C   0  0  0  0  0  0  0  0  0  0  0  0
    5.8760   -0.2330   22.1560 C   0  0  1  0  0  0  0  0  0  0  0  0
    5.3710    0.4570   23.2740 C   0  0  0  0  0  0  0  0  0  0  0  0
    4.5960   -0.3140   24.3050 C   0  0  0  0  0  0  0  0  0  0  0  0
    4.0320    0.3840   25.3670 C   0  0  0  0  0  0  0  0  0  0  0  0
    3.2390   -0.3040   26.4290 C   0  0  0  0  0  0  0  0  0  0  0  0
    3.1200   -1.7970   26.2270 C   0  0  0  0  0  0  0  0  0  0  0  0
    3.7130   -2.4370   25.1350 C   0  0  0  0  0  0  0  0  0  0  0  0
    4.4380   -1.7090   24.1940 C   0  0  0  0  0  0  0  0  0  0  0  0
    6.3430    0.6800   21.0900 N   0  0  0  0  0  0  0  0  0  0  0  0
    6.2020    2.0600   21.1260 C   0  0  0  0  0  0  0  0  0  0  0  0
    7.1530    2.7890   21.4520 O   0  0  0  0  0  0  0  0  0  0  0  0
    4.9530    2.5670   20.7580 C   0  0  1  0  0  0  0  0  0  0  0  0
    4.0060    1.6370   20.3220 C   0  0  0  0  0  0  0  0  0  0  0  0
    4.4780    0.9790   19.0120 C   0  0  0  0  0  0  0  0  0  0  0  0
    2.5480    2.0810   20.1640 C   0  0  0  0  0  0  0  0  0  0  0  0
    4.3860    3.6670   21.6120 N   0  0  0  0  0  0  0  0  0  0  0  0
    3.4420    4.6380   21.0830 C   0  0  0  0  0  0  0  0  0  0  0  0
    2.3640    4.9580   22.1070 C   0  0  0  0  0  0  0  0  0  0  0  0
    3.0500    5.4840   23.3510 C   0  0  0  0  0  0  0  0  0  0  0  0
    4.1870    4.6720   23.7030 N   0  0  0  0  0  0  0  0  0  0  0  0
    4.9770    3.9790   22.8270 C   0  0  0  0  0  0  0  0  0  0  0  0
    6.1230    3.7030   23.1700 O   0  0  0  0  0  0  0  0  0  0  0  0
  1  2  1  0
  2  3  2  0
  3  4  1  0
  4  5  2  0
  5  6  1  0
  6  7  1  0
  2  8  1  0
  6  8  2  0
  8  9  1  0
  9 10  1  0
 10 11  1  0
 11 12  2  0
 11 13  1  0
 13 14  1  0
 14 15  1  6
 15 16  1  0
 16 17  2  0
 17 18  1  0
 18 19  2  0
 19 20  1  0
 16 21  1  0
 20 21  2  0
 14 22  1  0
 22 23  1  1
 22 24  1  0
 25 24  1  1
 25 26  1  0
 26 27  1  0
 27 28  2  0
 28 29  1  0
 29 30  2  0
 30 31  1  0
 27 32  1  0
 31 32  2  0
 25 33  1  0
 33 34  1  0
 34 35  2  0
 36 34  1  1
 36 37  1  0
 37 38  1  0
 37 39  1  0
 36 40  1  0
 40 41  1  0
 41 42  1  0
 42 43  1  0
 43 44  1  0
 40 45  1  0
 44 45  1  0
 45 46  2  0
M  END
