ALE-HEI-f28a35b5-15
     RDKit          3D

 13 13  0  0  0  0  0  0  0  0999 V2000
    9.1900    0.6760   21.6520 O   0  0  0  0  0  0  0  0  0  0  0  0
    8.6470   -0.4060   21.8580 C   0  0  0  0  0  0  0  0  0  0  0  0
    9.1830   -1.4550   22.5830 N   0  0  0  0  0  0  0  0  0  0  0  0
   10.5400   -1.8280   22.6900 C   0  0  0  0  0  0  0  0  0  0  0  0
   11.1750   -1.3070   23.8980 C   0  0  0  0  0  0  0  0  0  0  0  0
   12.7980   -2.3420   24.2040 Br  0  0  0  0  0  0  0  0  0  0  0  0
    7.3420   -0.6350   21.3500 N   0  0  0  0  0  0  0  0  0  0  0  0
    6.7100   -0.0480   20.1960 C   0  0  0  0  0  0  0  0  0  0  0  0
    5.6460    0.8150   20.5020 C   0  0  0  0  0  0  0  0  0  0  0  0
    4.9360    1.4570   19.5040 C   0  0  0  0  0  0  0  0  0  0  0  0
    5.2410    1.2810   18.1520 C   0  0  0  0  0  0  0  0  0  0  0  0
    6.2700    0.4500   17.7910 N   0  0  0  0  0  0  0  0  0  0  0  0
    7.0210   -0.2340   18.8600 C   0  0  0  0  0  0  0  0  0  0  0  0
  1  2  2  0
  2  3  1  0
  3  4  1  0
  4  5  1  0
  5  6  1  0
  2  7  1  0
  7  8  1  0
  8  9  2  0
  9 10  1  0
 10 11  2  0
 11 12  1  0
  8 13  1  0
 12 13  2  0
M  END
