ALI-DIA-59c2fdb0-7
     RDKit          3D

 27 28  0  0  0  0  0  0  0  0999 V2000
    3.5680    2.3320   19.2620 C   0  0  0  0  0  0  0  0  0  0  0  0
    4.5690    1.4420   18.9080 C   0  0  0  0  0  0  0  0  0  0  0  0
    4.9410    0.2830   19.5390 C   0  0  0  0  0  0  0  0  0  0  0  0
    6.0120   -0.2090   18.7320 C   0  0  0  0  0  0  0  0  0  0  0  0
    6.7780   -1.4590   18.9810 C   0  0  0  0  0  0  0  0  0  0  0  0
    6.7990   -1.9630   20.2260 N   0  0  0  0  0  0  0  0  0  0  0  0
    7.6350   -1.3680   21.1050 C   0  0  0  0  0  0  0  0  0  0  0  0
    8.9510   -1.8280   21.3110 N   0  0  0  0  0  0  0  0  0  0  0  0
    9.4120   -2.3010   22.5350 C   0  0  0  0  0  0  0  0  0  0  0  0
    8.8910   -3.1900   23.2080 O   0  0  0  0  0  0  0  0  0  0  0  0
   10.5660   -1.6850   22.9960 C   0  0  0  0  0  0  0  0  0  0  0  0
   11.4920   -1.8330   21.9770 C   0  0  0  0  0  0  0  0  0  0  0  0
   12.8970   -1.3320   22.3520 C   0  0  0  0  0  0  0  0  0  0  0  0
   12.9350   -0.9750   23.6700 C   0  0  0  0  0  0  0  0  0  0  0  0
   12.3900   -1.9920   24.4460 C   0  0  0  0  0  0  0  0  0  0  0  0
   11.0260   -2.1490   24.2340 C   0  0  0  0  0  0  0  0  0  0  0  0
    6.0680   -3.1010   20.6410 C   0  0  0  0  0  0  0  0  0  0  0  0
    5.4140   -3.8860   19.7170 O   0  0  0  0  0  0  0  0  0  0  0  0
    6.0270   -3.4480   22.0380 N   0  0  0  0  0  0  0  0  0  0  0  0
    5.4840   -4.5430   22.6330 C   0  0  0  0  0  0  0  0  0  0  0  0
    5.4040   -5.9210   22.7990 C   0  0  0  0  0  0  0  0  0  0  0  0
    4.5450   -6.5960   23.6720 C   0  0  0  0  0  0  0  0  0  0  0  0
    4.3420   -6.0670   24.9740 C   0  0  0  0  0  0  0  0  0  0  0  0
    5.4600   -5.6080   25.6740 C   0  0  0  0  0  0  0  0  0  0  0  0
    3.7670   -7.2080   25.8150 C   0  0  0  0  0  0  0  0  0  0  0  0
    6.2510    0.6160   17.6900 N   0  0  0  0  0  0  0  0  0  0  0  0
    5.4080    1.5760   17.7990 O   0  0  0  0  0  0  0  0  0  0  0  0
  1  2  1  0
  2  3  2  0
  3  4  1  0
  4  5  1  0
  5  6  1  0
  6  7  1  0
  7  8  1  0
  8  9  1  0
  9 10  2  0
  9 11  1  0
 11 12  1  0
 12 13  1  0
 13 14  1  0
 14 15  1  0
 11 16  1  0
 15 16  1  0
  6 17  1  0
 17 18  2  0
 17 19  1  0
 19 20  1  0
 20 21  2  3
 21 22  1  0
 22 23  1  0
 23 24  1  0
 23 25  1  0
  4 26  2  0
  2 27  1  0
 26 27  1  0
M  END
