ALI-DIA-59c2fdb0-4
     RDKit          3D

 29 31  0  0  0  0  0  0  0  0999 V2000
    1.2580   -4.9780   24.8090 C   0  0  0  0  0  0  0  0  0  0  0  0
    1.7070   -5.8980   23.6390 C   0  0  0  0  0  0  0  0  0  0  0  0
    3.0960   -6.5530   23.7120 C   0  0  0  0  0  0  0  0  0  0  0  0
    4.0110   -5.8010   22.8170 N   0  0  0  0  0  0  0  0  0  0  0  0
    5.3790   -5.9110   22.7710 C   0  0  1  0  0  0  0  0  0  0  0  0
    6.2410   -5.6050   21.8620 C   0  0  0  0  0  0  0  0  0  0  0  0
    6.3160   -4.5460   22.5940 C   0  0  1  0  0  0  0  0  0  0  0  0
    5.8580   -3.2710   22.0090 N   0  0  0  0  0  0  0  0  0  0  0  0
    6.0310   -3.0130   20.5750 C   0  0  0  0  0  0  0  0  0  0  0  0
    5.5040   -3.7830   19.7500 O   0  0  0  0  0  0  0  0  0  0  0  0
    6.7470   -1.9320   20.1640 N   0  0  0  0  0  0  0  0  0  0  0  0
    7.8470   -1.6440   20.9030 C   0  0  0  0  0  0  0  0  0  0  0  0
    7.4940   -0.7260   21.9650 N   0  0  0  0  0  0  0  0  0  0  0  0
    8.6300   -0.5060   23.1630 S   0  0  0  0  0  0  0  0  0  0  0  0
    8.4850    0.8980   23.4810 O   0  0  0  0  0  0  0  0  0  0  0  0
    8.4320   -1.5520   24.1460 O   0  0  0  0  0  0  0  0  0  0  0  0
   10.1800   -0.6870   22.4540 C   0  0  0  0  0  0  0  0  0  0  0  0
   11.1520    0.0110   23.1430 C   0  0  0  0  0  0  0  0  0  0  0  0
   12.5030   -0.0370   22.8130 C   0  0  0  0  0  0  0  0  0  0  0  0
   13.0070   -1.2070   22.2490 C   0  0  0  0  0  0  0  0  0  0  0  0
   12.1160   -2.2430   21.9900 C   0  0  0  0  0  0  0  0  0  0  0  0
   10.7460   -2.0970   22.2340 C   0  0  0  0  0  0  0  0  0  0  0  0
    6.7150   -1.5280   18.7560 C   0  0  0  0  0  0  0  0  0  0  0  0
    6.0120   -0.3470   18.6570 C   0  0  0  0  0  0  0  0  0  0  0  0
    4.9420    0.1600   19.4670 C   0  0  0  0  0  0  0  0  0  0  0  0
    4.4890    1.4550   19.0130 C   0  0  0  0  0  0  0  0  0  0  0  0
    3.8780    2.4780   18.9360 C   0  0  0  0  0  0  0  0  0  0  0  0
    5.2850    1.6000   18.0270 O   0  0  0  0  0  0  0  0  0  0  0  0
    6.2130    0.5820   17.7480 N   0  0  0  0  0  0  0  0  0  0  0  0
  1  2  2  3
  2  3  1  0
  3  4  1  0
  5  4  1  6
  5  6  1  0
  5  7  1  0
  6  7  1  0
  7  8  1  6
  8  9  1  0
  9 10  2  0
  9 11  1  0
 11 12  1  0
 12 13  1  0
 14 13  1  0
 14 15  2  0
 14 16  2  0
 14 17  1  0
 17 18  1  0
 18 19  1  0
 19 20  1  0
 20 21  1  0
 17 22  1  0
 21 22  1  0
 11 23  1  0
 23 24  1  0
 24 25  1  0
 25 26  2  0
 26 27  1  0
 26 28  1  0
 24 29  2  0
 28 29  1  0
M  END
