ALV-UNI-7ff1a6f9-33
     RDKit          3D

 23 26  0  0  0  0  0  0  0  0999 V2000
    5.6190   -2.6070   18.5660 C   0  0  0  0  0  0  0  0  0  0  0  0
    5.5140   -1.1840   18.6960 C   0  0  0  0  0  0  0  0  0  0  0  0
    4.7360   -0.3080   17.9910 C   0  0  0  0  0  0  0  0  0  0  0  0
    4.6190    1.0850   18.5120 C   0  0  0  0  0  0  0  0  0  0  0  0
    5.3510    1.2640   19.6330 C   0  0  0  0  0  0  0  0  0  0  0  0
    5.5290    2.2130   20.5040 C   0  0  0  0  0  0  0  0  0  0  0  0
    4.9450    3.4740   20.5960 C   0  0  0  0  0  0  0  0  0  0  0  0
    5.6580    4.6010   21.3090 C   0  0  0  0  0  0  0  0  0  0  0  0
    4.8530    5.6890   21.2630 N   0  0  0  0  0  0  0  0  0  0  0  0
    3.7390    5.2600   20.5770 N   0  0  0  0  0  0  0  0  0  0  0  0
    2.5890    6.0690   20.2690 C   0  0  0  0  0  0  0  0  0  0  0  0
    3.7230    3.8480   20.1140 C   0  0  0  0  0  0  0  0  0  0  0  0
    6.4040    1.7150   21.3730 C   0  0  0  0  0  0  0  0  0  0  0  0
    6.8820    2.2740   22.4370 C   0  0  0  0  0  0  0  0  0  0  0  0
    8.2590    2.2920   22.7490 C   0  0  0  0  0  0  0  0  0  0  0  0
    7.6930    2.8850   23.6920 C   0  0  0  0  0  0  0  0  0  0  0  0
    7.7560    3.4980   24.7940 C   0  0  0  0  0  0  0  0  0  0  0  0
    8.7220    3.8700   25.6460 F   0  0  0  0  0  0  0  0  0  0  0  0
    6.4010    3.6170   24.7330 C   0  0  0  0  0  0  0  0  0  0  0  0
    5.9070    2.9880   23.5120 C   0  0  0  0  0  0  0  0  0  0  0  0
    6.7960    0.5040   21.1420 N   0  0  0  0  0  0  0  0  0  0  0  0
    6.1180    0.2470   20.0940 N   0  0  0  0  0  0  0  0  0  0  0  0
    6.2380   -0.9400   19.6710 N   0  0  0  0  0  0  0  0  0  0  0  0
  1  2  1  0
  2  3  1  0
  3  4  2  0
  4  5  1  0
  5  6  2  0
  6  7  1  0
  7  8  1  0
  8  9  2  0
  9 10  1  0
 10 11  1  0
  7 12  2  0
 10 12  1  0
  6 13  1  0
 13 14  1  0
 14 15  2  0
 15 16  1  0
 16 17  2  0
 17 18  1  0
 17 19  1  0
 14 20  1  0
 19 20  2  0
 13 21  2  0
  5 22  1  0
 21 22  1  0
  2 23  2  0
 22 23  1  0
M  END
