ALV-UNI-7ff1a6f9-32
     RDKit          3D

 23 26  0  0  0  0  0  0  0  0999 V2000
    4.6810    0.3690   17.6850 C   0  0  0  0  0  0  0  0  0  0  0  0
    5.7460   -0.0880   18.5220 C   0  0  0  0  0  0  0  0  0  0  0  0
    6.4270   -1.3170   18.3760 C   0  0  0  0  0  0  0  0  0  0  0  0
    7.4180   -1.6040   19.2880 C   0  0  0  0  0  0  0  0  0  0  0  0
    7.5990   -0.7460   20.2770 C   0  0  0  0  0  0  0  0  0  0  0  0
    8.3010   -0.5660   21.4600 C   0  0  0  0  0  0  0  0  0  0  0  0
    9.2830   -1.4050   22.1960 C   0  0  0  0  0  0  0  0  0  0  0  0
   10.5410   -1.6630   21.9230 C   0  0  0  0  0  0  0  0  0  0  0  0
   11.0120   -2.5140   22.9660 C   0  0  0  0  0  0  0  0  0  0  0  0
   10.0120   -2.7530   23.8450 N   0  0  0  0  0  0  0  0  0  0  0  0
    8.9320   -2.0450   23.3430 N   0  0  0  0  0  0  0  0  0  0  0  0
    7.6870   -2.0930   24.0690 C   0  0  0  0  0  0  0  0  0  0  0  0
    7.8030    0.6530   21.8360 C   0  0  0  0  0  0  0  0  0  0  0  0
    7.9040    1.4800   22.8090 C   0  0  0  0  0  0  0  0  0  0  0  0
    7.4100    2.4390   23.7370 C   0  0  0  0  0  0  0  0  0  0  0  0
    6.3370    2.2870   23.2190 C   0  0  0  0  0  0  0  0  0  0  0  0
    5.1170    2.7580   23.3540 C   0  0  0  0  0  0  0  0  0  0  0  0
    4.4370    3.6320   24.1150 F   0  0  0  0  0  0  0  0  0  0  0  0
    4.8500    1.8400   22.2420 C   0  0  0  0  0  0  0  0  0  0  0  0
    6.3850    1.3630   22.1940 C   0  0  0  0  0  0  0  0  0  0  0  0
    6.9050    1.2740   21.0530 N   0  0  0  0  0  0  0  0  0  0  0  0
    6.8260    0.3710   20.1670 N   0  0  0  0  0  0  0  0  0  0  0  0
    5.9570    0.7700   19.3650 N   0  0  0  0  0  0  0  0  0  0  0  0
  1  2  1  0
  2  3  1  0
  3  4  2  0
  4  5  1  0
  5  6  2  0
  6  7  1  0
  7  8  2  0
  8  9  1  0
  9 10  2  0
  7 11  1  0
 10 11  1  0
 11 12  1  0
  6 13  1  0
 13 14  1  0
 14 15  2  0
 15 16  1  0
 16 17  2  0
 17 18  1  0
 17 19  1  0
 14 20  1  0
 19 20  2  0
 13 21  2  0
  5 22  1  0
 21 22  1  0
  2 23  2  0
 22 23  1  0
M  END
