ALV-UNI-7ff1a6f9-37
     RDKit          3D

 23 26  0  0  0  0  0  0  0  0999 V2000
   11.7230   -2.0380   23.1240 C   0  0  0  0  0  0  0  0  0  0  0  0
   10.5330   -1.2100   22.6840 C   0  0  0  0  0  0  0  0  0  0  0  0
    9.6470   -1.7750   21.6830 C   0  0  0  0  0  0  0  0  0  0  0  0
    8.5540   -1.0090   21.2700 C   0  0  0  0  0  0  0  0  0  0  0  0
    8.3750    0.2450   21.8540 N   0  0  0  0  0  0  0  0  0  0  0  0
    7.3900    1.2260   21.6620 C   0  0  0  0  0  0  0  0  0  0  0  0
    6.3260    1.1440   20.7750 C   0  0  0  0  0  0  0  0  0  0  0  0
    6.5920    0.7030   19.4510 C   0  0  0  0  0  0  0  0  0  0  0  0
    5.4890    0.6010   18.3960 C   0  0  0  0  0  0  0  0  0  0  0  0
    4.1720    0.9890   18.8800 N   0  0  0  0  0  0  0  0  0  0  0  0
    3.8970    1.4110   20.1540 C   0  0  0  0  0  0  0  0  0  0  0  0
    5.0110    1.4920   21.1350 C   0  0  0  0  0  0  0  0  0  0  0  0
    7.7450    2.2400   22.5410 C   0  0  0  0  0  0  0  0  0  0  0  0
    7.1730    3.4840   22.8460 C   0  0  0  0  0  0  0  0  0  0  0  0
    6.2900    3.6750   24.0820 C   0  0  0  0  0  0  0  0  0  0  0  0
    5.6880    5.0480   24.3770 C   0  0  0  0  0  0  0  0  0  0  0  0
    5.9660    6.2240   23.4390 C   0  0  0  0  0  0  0  0  0  0  0  0
    5.4360    7.4250   23.7030 F   0  0  0  0  0  0  0  0  0  0  0  0
    6.8450    6.0370   22.2070 C   0  0  0  0  0  0  0  0  0  0  0  0
    7.4400    4.6670   21.9240 C   0  0  0  0  0  0  0  0  0  0  0  0
    8.8740    2.0080   23.2670 N   0  0  0  0  0  0  0  0  0  0  0  0
    9.2840    0.7020   22.8180 C   0  0  0  0  0  0  0  0  0  0  0  0
   10.3670   -0.0410   23.2170 N   0  0  0  0  0  0  0  0  0  0  0  0
  1  2  1  0
  2  3  1  0
  3  4  2  0
  4  5  1  0
  5  6  1  0
  6  7  1  0
  7  8  2  0
  8  9  1  0
  9 10  2  0
 10 11  1  0
  7 12  1  0
 11 12  2  0
  6 13  2  0
 13 14  1  0
 14 15  2  0
 15 16  1  0
 16 17  2  0
 17 18  1  0
 17 19  1  0
 14 20  1  0
 19 20  2  0
 13 21  1  0
  5 22  1  0
 21 22  2  0
  2 23  2  0
 22 23  1  0
M  END
