ALV-UNI-7ff1a6f9-28
     RDKit          3D

 23 26  0  0  0  0  0  0  0  0999 V2000
    6.4010    1.6800   16.6510 C   0  0  0  0  0  0  0  0  0  0  0  0
    6.0390    1.5630   18.0730 C   0  0  0  0  0  0  0  0  0  0  0  0
    4.7560    2.2480   18.4930 C   0  0  0  0  0  0  0  0  0  0  0  0
    4.5880    1.6860   17.9320 N   0  0  0  0  0  0  0  0  0  0  0  0
    5.7000    1.1680   18.9090 C   0  0  0  0  0  0  0  0  0  0  0  0
    5.1500    1.1030   20.3040 C   0  0  0  0  0  0  0  0  0  0  0  0
    6.5810    0.6660   20.5130 C   0  0  0  0  0  0  0  0  0  0  0  0
    5.7060   -0.3080   19.5500 C   0  0  0  0  0  0  0  0  0  0  0  0
    6.7330   -1.4260   19.0630 C   0  0  0  0  0  0  0  0  0  0  0  0
    7.6660   -2.2630   18.7490 C   0  0  0  0  0  0  0  0  0  0  0  0
    7.9440   -0.9740   19.8390 N   0  0  0  0  0  0  0  0  0  0  0  0
    7.8170    0.0720   20.5540 N   0  0  0  0  0  0  0  0  0  0  0  0
    5.3420    0.8350   21.6100 C   0  0  0  0  0  0  0  0  0  0  0  0
    4.0590    1.2100   21.8390 C   0  0  0  0  0  0  0  0  0  0  0  0
    3.5750    2.3890   22.3050 C   0  0  0  0  0  0  0  0  0  0  0  0
    3.1950    3.5090   22.7460 C   0  0  0  0  0  0  0  0  0  0  0  0
    1.8680    2.9790   22.6910 C   0  0  0  0  0  0  0  0  0  0  0  0
    0.8620    3.7950   23.0790 F   0  0  0  0  0  0  0  0  0  0  0  0
    1.7100    1.5970   22.1810 C   0  0  0  0  0  0  0  0  0  0  0  0
    2.8210    0.6860   21.7500 C   0  0  0  0  0  0  0  0  0  0  0  0
    6.6480    0.5210   21.0220 N   0  0  0  0  0  0  0  0  0  0  0  0
    6.5560    0.7700   19.6600 N   0  0  0  0  0  0  0  0  0  0  0  0
    7.1070    0.7660   18.6680 C   0  0  0  0  0  0  0  0  0  0  0  0
  1  2  1  0
  2  3  1  0
  3  4  2  0
  4  5  1  0
  5  6  2  0
  6  7  1  0
  7  8  2  0
  8  9  1  0
  9 10  1  0
  9 11  2  0
  7 12  1  0
 11 12  1  0
  6 13  1  0
 13 14  1  0
 14 15  2  0
 15 16  1  0
 16 17  2  0
 17 18  1  0
 17 19  1  0
 14 20  1  0
 19 20  2  0
 13 21  2  0
  5 22  1  0
 21 22  1  0
  2 23  2  0
 22 23  1  0
M  END
