ALV-UNI-7ff1a6f9-1
     RDKit          3D

 23 26  0  0  0  0  0  0  0  0999 V2000
   11.9050    2.6250   22.9760 C   0  0  0  0  0  0  0  0  0  0  0  0
   10.6060    1.9230   22.6600 C   0  0  0  0  0  0  0  0  0  0  0  0
    9.5920    2.6280   21.9010 C   0  0  0  0  0  0  0  0  0  0  0  0
    8.4290    1.9670   21.5140 C   0  0  0  0  0  0  0  0  0  0  0  0
    8.2540    0.6500   21.9190 C   0  0  0  0  0  0  0  0  0  0  0  0
    7.1930   -0.1570   21.6400 C   0  0  0  0  0  0  0  0  0  0  0  0
    6.1440    0.3070   20.8090 C   0  0  0  0  0  0  0  0  0  0  0  0
    6.3400    0.1880   19.3000 C   0  0  0  0  0  0  0  0  0  0  0  0
    5.1780    0.7450   18.5070 C   0  0  0  0  0  0  0  0  0  0  0  0
    4.0940    1.2840   19.0780 N   0  0  0  0  0  0  0  0  0  0  0  0
    3.9590    1.3630   20.4410 C   0  0  0  0  0  0  0  0  0  0  0  0
    4.9940    0.8690   21.3620 C   0  0  0  0  0  0  0  0  0  0  0  0
    7.4520   -1.3750   22.3260 C   0  0  0  0  0  0  0  0  0  0  0  0
    6.6810   -2.6840   22.4880 C   0  0  0  0  0  0  0  0  0  0  0  0
    7.5760   -3.8890   22.7160 C   0  0  0  0  0  0  0  0  0  0  0  0
    6.8780   -5.2260   22.9080 C   0  0  0  0  0  0  0  0  0  0  0  0
    5.3470   -5.2270   22.8570 C   0  0  0  0  0  0  0  0  0  0  0  0
    4.6930   -6.3800   23.0280 F   0  0  0  0  0  0  0  0  0  0  0  0
    4.5660   -3.9270   22.6200 C   0  0  0  0  0  0  0  0  0  0  0  0
    5.2930   -2.7220   22.4450 C   0  0  0  0  0  0  0  0  0  0  0  0
    8.6780   -1.2950   22.9670 N   0  0  0  0  0  0  0  0  0  0  0  0
    9.1560   -0.0370   22.6860 N   0  0  0  0  0  0  0  0  0  0  0  0
   10.4070    0.5970   23.0690 C   0  0  0  0  0  0  0  0  0  0  0  0
  1  2  1  0
  2  3  1  0
  3  4  2  0
  4  5  1  0
  5  6  2  0
  6  7  1  0
  7  8  2  0
  8  9  1  0
  9 10  2  0
 10 11  1  0
  7 12  1  0
 11 12  2  0
  6 13  1  0
 13 14  1  0
 14 15  2  0
 15 16  1  0
 16 17  2  0
 17 18  1  0
 17 19  1  0
 14 20  1  0
 19 20  2  0
 13 21  2  0
  5 22  1  0
 21 22  1  0
  2 23  2  0
 22 23  1  0
M  END
