ALV-UNI-7ff1a6f9-23
     RDKit          3D

 26 30  0  0  0  0  0  0  0  0999 V2000
    4.5780    0.4640   18.2160 C   0  0  0  0  0  0  0  0  0  0  0  0
    5.5130    0.2170   19.3220 C   0  0  0  0  0  0  0  0  0  0  0  0
    6.7870   -0.2510   19.1420 C   0  0  0  0  0  0  0  0  0  0  0  0
    7.6290   -0.4290   20.0980 N   0  0  0  0  0  0  0  0  0  0  0  0
    7.2790   -0.1300   21.3800 C   0  0  0  0  0  0  0  0  0  0  0  0
    7.9860   -0.1520   22.5200 C   0  0  0  0  0  0  0  0  0  0  0  0
    9.3930   -0.5130   22.5460 C   0  0  0  0  0  0  0  0  0  0  0  0
    9.8720   -1.7560   22.2900 C   0  0  0  0  0  0  0  0  0  0  0  0
   11.3350   -1.9930   22.2840 C   0  0  0  0  0  0  0  0  0  0  0  0
   12.0710   -0.7440   22.5770 C   0  0  0  0  0  0  0  0  0  0  0  0
   13.4710   -0.6260   22.6250 C   0  0  0  0  0  0  0  0  0  0  0  0
   13.8070    0.6390   22.9010 N   0  0  0  0  0  0  0  0  0  0  0  0
   12.6070    1.2890   23.0350 N   0  0  0  0  0  0  0  0  0  0  0  0
   11.5210    0.4310   22.8270 C   0  0  0  0  0  0  0  0  0  0  0  0
   10.1940    0.5880   22.8280 C   0  0  0  0  0  0  0  0  0  0  0  0
    7.1190    0.2740   23.6500 C   0  0  0  0  0  0  0  0  0  0  0  0
    7.4490    0.4100   24.9970 C   0  0  0  0  0  0  0  0  0  0  0  0
    6.6820    1.2490   25.8010 C   0  0  0  0  0  0  0  0  0  0  0  0
    6.8930    1.4960   27.1630 C   0  0  0  0  0  0  0  0  0  0  0  0
    8.0800    0.7700   27.8180 C   0  0  0  0  0  0  0  0  0  0  0  0
    8.3430    0.9590   29.1160 F   0  0  0  0  0  0  0  0  0  0  0  0
    8.9600   -0.1700   26.9740 C   0  0  0  0  0  0  0  0  0  0  0  0
    8.5510   -0.2930   25.5130 C   0  0  0  0  0  0  0  0  0  0  0  0
    5.9010    0.5440   23.1230 N   0  0  0  0  0  0  0  0  0  0  0  0
    6.0280    0.3110   21.7650 N   0  0  0  0  0  0  0  0  0  0  0  0
    5.0920    0.4910   20.7630 C   0  0  0  0  0  0  0  0  0  0  0  0
  1  2  1  0
  2  3  1  0
  3  4  2  0
  4  5  1  0
  5  6  2  0
  6  7  1  0
  7  8  2  0
  8  9  1  0
  9 10  2  0
 10 11  1  0
 11 12  2  0
 12 13  1  0
 10 14  1  0
 13 14  1  0
  7 15  1  0
 14 15  2  0
  6 16  1  0
 16 17  1  0
 17 18  2  0
 18 19  1  0
 19 20  2  0
 20 21  1  0
 20 22  1  0
 17 23  1  0
 22 23  2  0
 16 24  2  0
  5 25  1  0
 24 25  1  0
  2 26  2  0
 25 26  1  0
M  END
