ALV-UNI-7ff1a6f9-48
     RDKit          3D

 21 24  0  0  0  0  0  0  0  0999 V2000
   13.3900   -3.0290   25.1650 C   0  0  0  0  0  0  0  0  0  0  0  0
   12.0940   -3.0430   24.3670 C   0  0  0  0  0  0  0  0  0  0  0  0
   11.0850   -3.5180   24.6060 C   0  0  0  0  0  0  0  0  0  0  0  0
    9.7340   -3.5390   23.8710 C   0  0  0  0  0  0  0  0  0  0  0  0
    9.6010   -2.9610   22.7060 N   0  0  0  0  0  0  0  0  0  0  0  0
   10.8510   -2.4490   22.4770 C   0  0  0  0  0  0  0  0  0  0  0  0
   11.3520   -1.7480   21.4260 N   0  0  0  0  0  0  0  0  0  0  0  0
   12.5800   -1.5340   21.8690 C   0  0  0  0  0  0  0  0  0  0  0  0
   13.5680   -0.8480   21.4180 C   0  0  0  0  0  0  0  0  0  0  0  0
   12.8650    0.3120   22.2110 C   0  0  0  0  0  0  0  0  0  0  0  0
   13.4810    1.4130   22.6090 C   0  0  0  0  0  0  0  0  0  0  0  0
   12.7310    2.5500   23.1720 C   0  0  0  0  0  0  0  0  0  0  0  0
   11.4480    2.3910   23.3450 C   0  0  0  0  0  0  0  0  0  0  0  0
   10.6920    3.5240   23.9420 C   0  0  0  0  0  0  0  0  0  0  0  0
    9.3620    3.3940   24.2070 C   0  0  0  0  0  0  0  0  0  0  0  0
    8.7080    2.1940   23.9030 C   0  0  0  0  0  0  0  0  0  0  0  0
    9.4020    1.1130   23.3120 C   0  0  0  0  0  0  0  0  0  0  0  0
   10.7650    1.2130   23.0340 C   0  0  0  0  0  0  0  0  0  0  0  0
   11.4720    0.1920   22.4590 C   0  0  0  0  0  0  0  0  0  0  0  0
   13.0940   -1.9350   22.9340 N   0  0  0  0  0  0  0  0  0  0  0  0
   11.9940   -2.5180   23.3240 C   0  0  0  0  0  0  0  0  0  0  0  0
  1  2  1  0
  2  3  2  0
  3  4  1  0
  4  5  2  0
  5  6  1  0
  6  7  1  0
  7  8  1  0
  8  9  1  0
  9 10  1  0
 10 11  2  0
 11 12  1  0
 12 13  2  0
 13 14  1  0
 14 15  2  0
 15 16  1  0
 16 17  2  0
 13 18  1  0
 17 18  1  0
 10 19  1  0
 18 19  2  0
  8 20  2  0
  2 21  1  0
  6 21  2  0
 20 21  1  0
M  END
