ALV-UNI-7ff1a6f9-11
     RDKit          3D

 23 26  0  0  0  0  0  0  0  0999 V2000
   -2.7820    1.6540   22.4110 C   0  0  0  0  0  0  0  0  0  0  0  0
   -1.3070    1.6600   22.2600 C   0  0  0  0  0  0  0  0  0  0  0  0
   -0.7930    1.1560   21.0760 C   0  0  0  0  0  0  0  0  0  0  0  0
    0.4780    1.0860   20.8020 N   0  0  0  0  0  0  0  0  0  0  0  0
    1.3730    1.5570   21.7590 C   0  0  0  0  0  0  0  0  0  0  0  0
    2.7750    1.6600   21.8490 C   0  0  0  0  0  0  0  0  0  0  0  0
    3.7620    1.2180   20.7800 C   0  0  0  0  0  0  0  0  0  0  0  0
    4.5940    0.1750   20.9960 C   0  0  0  0  0  0  0  0  0  0  0  0
    5.5780   -0.2510   19.9400 C   0  0  0  0  0  0  0  0  0  0  0  0
    5.5230    0.5860   18.6860 C   0  0  0  0  0  0  0  0  0  0  0  0
    4.6880    1.6110   18.5080 N   0  0  0  0  0  0  0  0  0  0  0  0
    3.8430    1.8930   19.5420 C   0  0  0  0  0  0  0  0  0  0  0  0
    3.0250    2.2510   23.1220 C   0  0  0  0  0  0  0  0  0  0  0  0
    4.2570    2.5790   23.7060 C   0  0  0  0  0  0  0  0  0  0  0  0
    4.4710    2.3680   25.0640 C   0  0  0  0  0  0  0  0  0  0  0  0
    5.6910    2.6940   25.6620 C   0  0  0  0  0  0  0  0  0  0  0  0
    6.7430    3.2420   24.9230 C   0  0  0  0  0  0  0  0  0  0  0  0
    7.8880    3.5400   25.5460 F   0  0  0  0  0  0  0  0  0  0  0  0
    6.6400    3.4910   23.5510 C   0  0  0  0  0  0  0  0  0  0  0  0
    5.2890    3.1250   22.9270 C   0  0  0  0  0  0  0  0  0  0  0  0
    1.8840    2.4970   23.7860 N   0  0  0  0  0  0  0  0  0  0  0  0
    0.8960    2.0790   22.9660 N   0  0  0  0  0  0  0  0  0  0  0  0
   -0.4680    2.1220   23.2040 C   0  0  0  0  0  0  0  0  0  0  0  0
  1  2  1  0
  2  3  1  0
  3  4  2  0
  4  5  1  0
  5  6  2  0
  6  7  1  0
  7  8  2  0
  8  9  1  0
  9 10  2  0
 10 11  1  0
  7 12  1  0
 11 12  2  0
  6 13  1  0
 13 14  1  0
 14 15  2  0
 15 16  1  0
 16 17  2  0
 17 18  1  0
 17 19  1  0
 14 20  1  0
 19 20  2  0
 13 21  2  0
  5 22  1  0
 21 22  1  0
  2 23  2  0
 22 23  1  0
M  END
