ALV-UNI-7ff1a6f9-34
     RDKit          3D

 24 27  0  0  0  0  0  0  0  0999 V2000
   11.6090    2.3780   23.1140 C   0  0  0  0  0  0  0  0  0  0  0  0
   10.2580    1.7400   22.8460 C   0  0  0  0  0  0  0  0  0  0  0  0
    9.4540    2.4020   21.8240 C   0  0  0  0  0  0  0  0  0  0  0  0
    8.2430    1.9010   21.4200 C   0  0  0  0  0  0  0  0  0  0  0  0
    7.8320    0.7700   22.0470 C   0  0  0  0  0  0  0  0  0  0  0  0
    6.7050    0.0790   21.8080 C   0  0  0  0  0  0  0  0  0  0  0  0
    5.8390    0.5150   20.7930 C   0  0  0  0  0  0  0  0  0  0  0  0
    6.2830    0.3260   19.3480 C   0  0  0  0  0  0  0  0  0  0  0  0
    5.2750    0.8750   18.3540 C   0  0  0  0  0  0  0  0  0  0  0  0
    4.1210    1.4600   18.7080 N   0  0  0  0  0  0  0  0  0  0  0  0
    3.7530    1.5970   20.0180 C   0  0  0  0  0  0  0  0  0  0  0  0
    2.5510    2.1990   20.2100 N   0  0  0  0  0  0  0  0  0  0  0  0
    4.6260    1.1190   21.0930 C   0  0  0  0  0  0  0  0  0  0  0  0
    6.7180   -0.9870   22.7240 C   0  0  0  0  0  0  0  0  0  0  0  0
    5.7250   -2.1250   22.9890 C   0  0  0  0  0  0  0  0  0  0  0  0
    6.0810   -3.4420   22.3280 C   0  0  0  0  0  0  0  0  0  0  0  0
    5.1210   -4.6020   22.5720 C   0  0  0  0  0  0  0  0  0  0  0  0
    3.8970   -4.3440   23.4550 C   0  0  0  0  0  0  0  0  0  0  0  0
    3.0340   -5.3470   23.6840 F   0  0  0  0  0  0  0  0  0  0  0  0
    3.6640   -2.9550   24.0620 C   0  0  0  0  0  0  0  0  0  0  0  0
    4.6040   -1.9250   23.7840 C   0  0  0  0  0  0  0  0  0  0  0  0
    7.8980   -0.9030   23.4820 N   0  0  0  0  0  0  0  0  0  0  0  0
    8.5460    0.1890   23.0180 N   0  0  0  0  0  0  0  0  0  0  0  0
    9.7320    0.5860   23.4840 N   0  0  0  0  0  0  0  0  0  0  0  0
  1  2  1  0
  2  3  1  0
  3  4  2  0
  4  5  1  0
  5  6  2  0
  6  7  1  0
  7  8  2  0
  8  9  1  0
  9 10  2  0
 10 11  1  0
 11 12  1  0
  7 13  1  0
 11 13  2  0
  6 14  1  0
 14 15  1  0
 15 16  2  0
 16 17  1  0
 17 18  2  0
 18 19  1  0
 18 20  1  0
 15 21  1  0
 20 21  2  0
 14 22  2  0
  5 23  1  0
 22 23  1  0
  2 24  2  0
 23 24  1  0
M  END
