ALV-UNI-7ff1a6f9-35
     RDKit          3D

 24 27  0  0  0  0  0  0  0  0999 V2000
    9.4350   -3.9160   23.1360 C   0  0  0  0  0  0  0  0  0  0  0  0
    9.2420   -2.6830   22.5160 C   0  0  0  0  0  0  0  0  0  0  0  0
    7.8770   -2.4190   22.0150 C   0  0  0  0  0  0  0  0  0  0  0  0
    7.5170   -1.1660   21.4790 C   0  0  0  0  0  0  0  0  0  0  0  0
    8.5410   -0.2580   21.6160 C   0  0  0  0  0  0  0  0  0  0  0  0
    8.4370    0.9800   21.5250 C   0  0  0  0  0  0  0  0  0  0  0  0
    7.3430    1.8330   21.4100 C   0  0  0  0  0  0  0  0  0  0  0  0
    6.9800    2.6000   20.2520 C   0  0  0  0  0  0  0  0  0  0  0  0
    5.9600    3.5760   20.4430 N   0  0  0  0  0  0  0  0  0  0  0  0
    5.8180    3.3050   21.5650 C   0  0  0  0  0  0  0  0  0  0  0  0
    6.5790    2.0990   21.7570 N   0  0  0  0  0  0  0  0  0  0  0  0
    5.6690    3.0190   22.7480 N   0  0  0  0  0  0  0  0  0  0  0  0
    6.6810    2.0430   22.5540 C   0  0  0  0  0  0  0  0  0  0  0  0
    9.9400    1.3750   21.8480 C   0  0  0  0  0  0  0  0  0  0  0  0
   10.6270    2.8080   22.0060 C   0  0  0  0  0  0  0  0  0  0  0  0
   10.0960    3.5010   23.1800 C   0  0  0  0  0  0  0  0  0  0  0  0
   10.5240    4.8020   23.4750 C   0  0  0  0  0  0  0  0  0  0  0  0
   11.5370    5.4560   22.6720 C   0  0  0  0  0  0  0  0  0  0  0  0
   12.0170    6.7250   22.9550 F   0  0  0  0  0  0  0  0  0  0  0  0
   12.0460    4.7510   21.5180 C   0  0  0  0  0  0  0  0  0  0  0  0
   11.6130    3.5010   21.1330 C   0  0  0  0  0  0  0  0  0  0  0  0
   10.8170    0.3290   22.0870 N   0  0  0  0  0  0  0  0  0  0  0  0
    9.9060   -0.6800   22.0710 N   0  0  0  0  0  0  0  0  0  0  0  0
   10.2970   -1.8960   22.3420 N   0  0  0  0  0  0  0  0  0  0  0  0
  1  2  1  0
  2  3  1  0
  3  4  2  0
  4  5  1  0
  5  6  2  0
  6  7  1  0
  7  8  2  0
  8  9  1  0
  9 10  2  0
 10 11  1  0
 10 12  1  0
  7 13  1  0
 12 13  2  0
  6 14  1  0
 14 15  1  0
 15 16  2  0
 16 17  1  0
 17 18  2  0
 18 19  1  0
 18 20  1  0
 15 21  1  0
 20 21  2  0
 14 22  2  0
  5 23  1  0
 22 23  1  0
  2 24  2  0
 23 24  1  0
M  END
