ALV-UNI-7ff1a6f9-41
     RDKit          3D

 23 26  0  0  0  0  0  0  0  0999 V2000
   11.9420    5.3660   22.2890 C   0  0  0  0  0  0  0  0  0  0  0  0
   11.7420    3.8870   22.4880 C   0  0  0  0  0  0  0  0  0  0  0  0
   12.8900    3.1300   22.7430 C   0  0  0  0  0  0  0  0  0  0  0  0
   12.7470    1.7640   22.9360 C   0  0  0  0  0  0  0  0  0  0  0  0
   11.5420    1.2560   22.8550 N   0  0  0  0  0  0  0  0  0  0  0  0
   11.2350   -0.0110   23.0040 C   0  0  0  0  0  0  0  0  0  0  0  0
   12.1150   -1.0240   23.3140 C   0  0  0  0  0  0  0  0  0  0  0  0
   12.6100   -2.1600   22.5720 C   0  0  0  0  0  0  0  0  0  0  0  0
   13.4540   -2.9310   23.3110 N   0  0  0  0  0  0  0  0  0  0  0  0
   13.4650   -2.2470   24.5250 N   0  0  0  0  0  0  0  0  0  0  0  0
   14.1700   -2.6770   25.7100 C   0  0  0  0  0  0  0  0  0  0  0  0
   12.7250   -1.1310   24.5210 C   0  0  0  0  0  0  0  0  0  0  0  0
    9.8200   -0.0150   22.8020 C   0  0  0  0  0  0  0  0  0  0  0  0
    8.8180   -1.1030   22.8410 C   0  0  0  0  0  0  0  0  0  0  0  0
    7.5590   -0.7310   23.3410 C   0  0  0  0  0  0  0  0  0  0  0  0
    6.4590   -1.7840   23.4290 C   0  0  0  0  0  0  0  0  0  0  0  0
    6.6490   -3.0860   23.0400 C   0  0  0  0  0  0  0  0  0  0  0  0
    5.6510   -3.9740   23.1370 F   0  0  0  0  0  0  0  0  0  0  0  0
    7.9940   -3.5170   22.4970 C   0  0  0  0  0  0  0  0  0  0  0  0
    9.0800   -2.4220   22.4180 C   0  0  0  0  0  0  0  0  0  0  0  0
    9.3780    1.2360   22.5590 N   0  0  0  0  0  0  0  0  0  0  0  0
   10.4330    2.0120   22.6000 C   0  0  0  0  0  0  0  0  0  0  0  0
   10.5350    3.3830   22.4200 N   0  0  0  0  0  0  0  0  0  0  0  0
  1  2  1  0
  2  3  1  0
  3  4  2  0
  4  5  1  0
  5  6  1  0
  6  7  1  0
  7  8  1  0
  8  9  2  0
  9 10  1  0
 10 11  1  0
  7 12  2  0
 10 12  1  0
  6 13  2  0
 13 14  1  0
 14 15  2  0
 15 16  1  0
 16 17  2  0
 17 18  1  0
 17 19  1  0
 14 20  1  0
 19 20  2  0
 13 21  1  0
  5 22  1  0
 21 22  2  0
  2 23  2  0
 22 23  1  0
M  END
