ALV-UNI-7ff1a6f9-10
     RDKit          3D

 23 26  0  0  0  0  0  0  0  0999 V2000
   11.2090   -2.2520   22.9420 C   0  0  0  0  0  0  0  0  0  0  0  0
   10.1960   -1.1770   22.5370 C   0  0  0  0  0  0  0  0  0  0  0  0
    9.0750   -1.5920   21.7800 C   0  0  0  0  0  0  0  0  0  0  0  0
    8.0820   -0.7100   21.3410 N   0  0  0  0  0  0  0  0  0  0  0  0
    8.3030    0.5110   21.7070 C   0  0  0  0  0  0  0  0  0  0  0  0
    7.4670    1.5710   21.3910 C   0  0  0  0  0  0  0  0  0  0  0  0
    6.3050    1.4050   20.6260 C   0  0  0  0  0  0  0  0  0  0  0  0
    6.4900    1.0820   19.2620 C   0  0  0  0  0  0  0  0  0  0  0  0
    5.4160    0.9100   18.4150 C   0  0  0  0  0  0  0  0  0  0  0  0
    4.1750    1.0650   18.9520 N   0  0  0  0  0  0  0  0  0  0  0  0
    3.9370    1.3730   20.2910 C   0  0  0  0  0  0  0  0  0  0  0  0
    5.0120    1.5520   21.1640 C   0  0  0  0  0  0  0  0  0  0  0  0
    8.1120    2.6970   22.0130 C   0  0  0  0  0  0  0  0  0  0  0  0
    7.7190    4.1790   22.0640 C   0  0  0  0  0  0  0  0  0  0  0  0
    6.2920    4.4720   21.6380 C   0  0  0  0  0  0  0  0  0  0  0  0
    5.8090    5.7750   21.6330 C   0  0  0  0  0  0  0  0  0  0  0  0
    6.6660    6.8160   22.0260 C   0  0  0  0  0  0  0  0  0  0  0  0
    6.1990    8.0750   22.0220 F   0  0  0  0  0  0  0  0  0  0  0  0
    7.9860    6.5480   22.4240 C   0  0  0  0  0  0  0  0  0  0  0  0
    8.5090    5.2650   22.4440 C   0  0  0  0  0  0  0  0  0  0  0  0
    9.2510    2.3030   22.6370 N   0  0  0  0  0  0  0  0  0  0  0  0
    9.3420    0.9940   22.4360 N   0  0  0  0  0  0  0  0  0  0  0  0
   10.3040    0.1170   22.8490 C   0  0  0  0  0  0  0  0  0  0  0  0
  1  2  1  0
  2  3  1  0
  3  4  2  0
  4  5  1  0
  5  6  2  0
  6  7  1  0
  7  8  2  0
  8  9  1  0
  9 10  2  0
 10 11  1  0
  7 12  1  0
 11 12  2  0
  6 13  1  0
 13 14  1  0
 14 15  2  0
 15 16  1  0
 16 17  2  0
 17 18  1  0
 17 19  1  0
 14 20  1  0
 19 20  2  0
 13 21  2  0
  5 22  1  0
 21 22  1  0
  2 23  2  0
 22 23  1  0
M  END
