ALV-UNI-7ff1a6f9-19
     RDKit          3D

 24 27  0  0  0  0  0  0  0  0999 V2000
    3.9380    2.6160   20.7420 C   0  0  0  0  0  0  0  0  0  0  0  0
    4.7460    1.8880   19.6790 C   0  0  0  0  0  0  0  0  0  0  0  0
    4.2310    2.5230   18.2720 C   0  0  0  0  0  0  0  0  0  0  0  0
    4.2100    2.4480   19.4410 C   0  0  0  0  0  0  0  0  0  0  0  0
    5.2050    1.4660   18.9590 N   0  0  0  0  0  0  0  0  0  0  0  0
    5.7300    0.8740   20.2310 C   0  0  0  0  0  0  0  0  0  0  0  0
    5.3240    1.2300   21.5360 C   0  0  0  0  0  0  0  0  0  0  0  0
    4.3180    0.5170   22.2440 C   0  0  0  0  0  0  0  0  0  0  0  0
    3.9160    0.8370   23.4950 N   0  0  0  0  0  0  0  0  0  0  0  0
    4.5180    1.8870   24.0700 C   0  0  0  0  0  0  0  0  0  0  0  0
    4.0910    2.2520   25.4340 N   0  0  0  0  0  0  0  0  0  0  0  0
    5.4770    2.6310   23.5050 N   0  0  0  0  0  0  0  0  0  0  0  0
    5.8640    2.2920   22.2520 C   0  0  0  0  0  0  0  0  0  0  0  0
    6.7600   -0.1520   19.8920 C   0  0  0  0  0  0  0  0  0  0  0  0
    7.4860   -0.9380   20.8990 C   0  0  0  0  0  0  0  0  0  0  0  0
    8.7050   -0.4470   21.3850 C   0  0  0  0  0  0  0  0  0  0  0  0
    9.5490   -1.1690   22.4350 C   0  0  0  0  0  0  0  0  0  0  0  0
    9.0130   -2.4870   22.9750 C   0  0  0  0  0  0  0  0  0  0  0  0
    9.6950   -3.1750   23.8940 F   0  0  0  0  0  0  0  0  0  0  0  0
    7.6780   -2.9950   22.4390 C   0  0  0  0  0  0  0  0  0  0  0  0
    6.9680   -2.1440   21.3840 C   0  0  0  0  0  0  0  0  0  0  0  0
    6.8440   -0.1670   18.5140 N   0  0  0  0  0  0  0  0  0  0  0  0
    6.0740    0.5810   19.0580 C   0  0  0  0  0  0  0  0  0  0  0  0
    5.6770    0.9130   20.1520 C   0  0  0  0  0  0  0  0  0  0  0  0
  1  2  1  0
  2  3  1  0
  3  4  2  0
  4  5  1  0
  5  6  1  0
  6  7  1  0
  7  8  2  0
  8  9  1  0
  9 10  2  0
 10 11  1  0
 10 12  1  0
  7 13  1  0
 12 13  2  0
  6 14  2  0
 14 15  1  0
 15 16  2  0
 16 17  1  0
 17 18  2  0
 18 19  1  0
 18 20  1  0
 15 21  1  0
 20 21  2  0
 14 22  1  0
  5 23  1  0
 22 23  2  0
  2 24  2  0
 23 24  1  0
M  END
