ALV-UNI-7ff1a6f9-13
     RDKit          3D

 24 27  0  0  0  0  0  0  0  0999 V2000
    5.7900   -0.3740   22.0070 C   0  0  0  0  0  0  0  0  0  0  0  0
    5.0190    0.9350   21.8710 C   0  0  0  0  0  0  0  0  0  0  0  0
    4.4660    1.8990   21.1740 C   0  0  0  0  0  0  0  0  0  0  0  0
    3.7820    3.0380   21.3090 C   0  0  0  0  0  0  0  0  0  0  0  0
    3.9090    2.8950   20.0210 N   0  0  0  0  0  0  0  0  0  0  0  0
    4.6130    1.7060   20.4490 C   0  0  0  0  0  0  0  0  0  0  0  0
    4.7480    1.4260   21.8520 C   0  0  0  0  0  0  0  0  0  0  0  0
    3.7130    0.4390   22.4510 C   0  0  0  0  0  0  0  0  0  0  0  0
    3.8970    0.1790   23.9490 C   0  0  0  0  0  0  0  0  0  0  0  0
    4.8610    0.7390   24.7370 N   0  0  0  0  0  0  0  0  0  0  0  0
    5.7520    1.6000   24.1930 C   0  0  0  0  0  0  0  0  0  0  0  0
    6.7110    2.1500   25.0550 N   0  0  0  0  0  0  0  0  0  0  0  0
    5.7370    1.9940   22.6820 C   0  0  0  0  0  0  0  0  0  0  0  0
    5.0460    1.0260   19.2030 C   0  0  0  0  0  0  0  0  0  0  0  0
    5.6970   -0.0740   19.0380 C   0  0  0  0  0  0  0  0  0  0  0  0
    5.1590   -1.3130   19.2960 C   0  0  0  0  0  0  0  0  0  0  0  0
    5.8740   -2.4660   19.1070 C   0  0  0  0  0  0  0  0  0  0  0  0
    7.1650   -2.3290   18.6430 C   0  0  0  0  0  0  0  0  0  0  0  0
    8.0280   -3.2660   18.3890 F   0  0  0  0  0  0  0  0  0  0  0  0
    7.6890   -1.0250   18.3800 C   0  0  0  0  0  0  0  0  0  0  0  0
    6.9110    0.1500   18.5970 C   0  0  0  0  0  0  0  0  0  0  0  0
    4.6380    1.7930   18.1900 N   0  0  0  0  0  0  0  0  0  0  0  0
    4.5080    1.9360   19.3910 C   0  0  0  0  0  0  0  0  0  0  0  0
    5.1340    0.8320   20.4500 C   0  0  0  0  0  0  0  0  0  0  0  0
  1  2  1  0
  2  3  1  0
  3  4  2  0
  4  5  1  0
  5  6  1  0
  6  7  1  0
  7  8  2  0
  8  9  1  0
  9 10  2  0
 10 11  1  0
 11 12  1  0
  7 13  1  0
 11 13  2  0
  6 14  2  0
 14 15  1  0
 15 16  2  0
 16 17  1  0
 17 18  2  0
 18 19  1  0
 18 20  1  0
 15 21  1  0
 20 21  2  0
 14 22  1  0
  5 23  1  0
 22 23  2  0
  2 24  2  0
 23 24  1  0
M  END
