ALV-UNI-7ff1a6f9-5
     RDKit          3D

 23 26  0  0  0  0  0  0  0  0999 V2000
   -1.9670    3.6560   21.0590 C   0  0  0  0  0  0  0  0  0  0  0  0
   -0.5770    3.0190   21.1220 C   0  0  0  0  0  0  0  0  0  0  0  0
    0.2200    3.0950   19.9630 C   0  0  0  0  0  0  0  0  0  0  0  0
    1.4890    2.5120   19.9560 C   0  0  0  0  0  0  0  0  0  0  0  0
    1.8310    1.9030   21.1350 C   0  0  0  0  0  0  0  0  0  0  0  0
    2.9990    1.2280   21.4390 C   0  0  0  0  0  0  0  0  0  0  0  0
    4.0550    1.0480   20.5430 C   0  0  0  0  0  0  0  0  0  0  0  0
    5.1000    0.2390   20.6620 C   0  0  0  0  0  0  0  0  0  0  0  0
    6.2090   -0.1170   19.9820 C   0  0  0  0  0  0  0  0  0  0  0  0
    6.3200    0.5670   18.7550 C   0  0  0  0  0  0  0  0  0  0  0  0
    5.1960    1.5250   18.4790 N   0  0  0  0  0  0  0  0  0  0  0  0
    4.1350    1.7340   19.3490 C   0  0  0  0  0  0  0  0  0  0  0  0
    2.7640    0.8330   22.8070 C   0  0  0  0  0  0  0  0  0  0  0  0
    3.5980    0.0530   23.8290 C   0  0  0  0  0  0  0  0  0  0  0  0
    2.9800   -0.6610   24.8620 C   0  0  0  0  0  0  0  0  0  0  0  0
    3.6770   -1.3940   25.8260 C   0  0  0  0  0  0  0  0  0  0  0  0
    5.0690   -1.4530   25.8120 C   0  0  0  0  0  0  0  0  0  0  0  0
    5.5950   -2.2070   26.8190 F   0  0  0  0  0  0  0  0  0  0  0  0
    5.8240   -0.8080   24.8670 C   0  0  0  0  0  0  0  0  0  0  0  0
    5.1420    0.0120   23.7790 C   0  0  0  0  0  0  0  0  0  0  0  0
    1.4500    1.2770   23.2960 N   0  0  0  0  0  0  0  0  0  0  0  0
    0.9740    1.9060   22.2050 N   0  0  0  0  0  0  0  0  0  0  0  0
   -0.2360    2.4460   22.2580 N   0  0  0  0  0  0  0  0  0  0  0  0
  1  2  1  0
  2  3  1  0
  3  4  2  0
  4  5  1  0
  5  6  2  0
  6  7  1  0
  7  8  2  0
  8  9  1  0
  9 10  2  0
 10 11  1  0
  7 12  1  0
 11 12  2  0
  6 13  1  0
 13 14  1  0
 14 15  2  0
 15 16  1  0
 16 17  2  0
 17 18  1  0
 17 19  1  0
 14 20  1  0
 19 20  2  0
 13 21  2  0
  5 22  1  0
 21 22  1  0
  2 23  2  0
 22 23  1  0
M  END
