AMD-UAU-3d234461-1
     RDKit          3D

 16 17  0  0  0  0  0  0  0  0999 V2000
   13.7080    0.4650   22.6860 C   0  0  0  0  0  0  0  0  0  0  0  0
   13.9090   -0.7000   22.4890 O   0  0  0  0  0  0  0  0  0  0  0  0
   12.8540   -1.3530   22.9100 C   0  0  0  0  0  0  0  0  0  0  0  0
   13.0700   -2.4650   23.7640 C   0  0  0  0  0  0  0  0  0  0  0  0
   11.8130   -3.0920   24.1730 C   0  0  0  0  0  0  0  0  0  0  0  0
   11.0970   -2.1340   23.4020 C   0  0  0  0  0  0  0  0  0  0  0  0
    9.8560   -2.2170   23.3930 N   0  0  0  0  0  0  0  0  0  0  0  0
   10.7890   -1.3680   22.7770 C   0  0  0  0  0  0  0  0  0  0  0  0
   11.0320   -2.5820   23.7320 C   0  0  0  0  0  0  0  0  0  0  0  0
    9.6060   -2.4220   23.5250 C   0  0  0  0  0  0  0  0  0  0  0  0
    8.3850   -3.0130   23.8940 C   0  0  0  0  0  0  0  0  0  0  0  0
    7.6940   -2.5340   24.7890 O   0  0  0  0  0  0  0  0  0  0  0  0
    7.9450   -4.1320   23.1920 N   0  0  0  0  0  0  0  0  0  0  0  0
    7.0730   -5.1000   23.7230 N   0  0  0  0  0  0  0  0  0  0  0  0
   10.1710   -1.3670   22.7650 C   0  0  0  0  0  0  0  0  0  0  0  0
   11.5540   -0.8290   22.4410 C   0  0  0  0  0  0  0  0  0  0  0  0
  1  2  1  0
  2  3  1  0
  3  4  2  0
  4  5  1  0
  5  6  2  0
  6  7  1  0
  7  8  2  0
  8  9  1  0
  9 10  2  0
 10 11  1  0
 11 12  2  0
 11 13  1  0
 13 14  1  0
  6 15  1  0
 10 15  1  0
  3 16  1  0
 15 16  2  0
M  END
