AMI-CSI-2ea5bed6-9
     RDKit          3D

 24 27  0  0  0  0  0  0  0  0999 V2000
    9.4610   -2.7940   22.2340 N   0  0  0  0  0  0  0  0  0  0  0  0
   10.9360   -2.0320   21.8540 S   0  0  0  0  0  0  0  0  0  0  0  0
   11.7020   -2.7370   20.7760 O   0  0  0  0  0  0  0  0  0  0  0  0
   10.5740   -0.6370   21.4340 O   0  0  0  0  0  0  0  0  0  0  0  0
   12.0650   -1.8800   23.1870 C   0  0  0  0  0  0  0  0  0  0  0  0
   12.4670   -0.6100   23.5070 C   0  0  0  0  0  0  0  0  0  0  0  0
   13.4020   -0.5570   24.5730 C   0  0  0  0  0  0  0  0  0  0  0  0
   14.0930   -1.6240   25.4820 C   0  0  0  0  0  0  0  0  0  0  0  0
   15.2660   -1.4810   26.7160 C   0  0  0  0  0  0  0  0  0  0  0  0
   16.2510   -0.0910   27.7540 N   0  0  0  0  0  0  0  0  0  0  0  0
   18.4060    0.9580   28.1330 Se  0  0  0  0  0  2  0  0  0  0  0  0
   18.2030    2.7180   28.3060 C   0  0  2  0  0  0  0  0  0  0  0  0
   18.7210    3.4180   29.6770 C   0  0  0  0  0  0  0  0  0  0  0  0
   17.6860    4.0320   30.7340 C   0  0  0  0  0  0  0  0  0  0  0  0
   16.2000    4.1150   30.6550 C   0  0  0  0  0  0  0  0  0  0  0  0
   15.3550    3.6790   29.4790 C   0  0  0  0  0  0  0  0  0  0  0  0
   16.0720    2.8790   28.0780 C   0  0  2  0  0  0  0  0  0  0  0  0
   15.5830    1.4460   27.8560 C   0  0  0  0  0  0  0  0  0  0  0  0
   14.3760    1.9240   28.1390 O   0  0  0  0  0  0  0  0  0  0  0  0
   15.3060   -2.5460   27.0440 C   0  0  0  0  0  0  0  0  0  0  0  0
   14.7120   -3.5620   26.6760 C   0  0  0  0  0  0  0  0  0  0  0  0
   13.8420   -3.7990   25.7700 C   0  0  0  0  0  0  0  0  0  0  0  0
   13.5190   -2.7580   25.0710 C   0  0  0  0  0  0  0  0  0  0  0  0
   12.6100   -2.8350   23.9870 C   0  0  0  0  0  0  0  0  0  0  0  0
  2  1  1  0
  2  3  2  0
  2  4  2  0
  2  5  1  0
  5  6  2  0
  6  7  1  0
  7  8  2  0
  8  9  1  0
  9 10  1  0
 10 11  1  0
 11 12  1  0
 12 13  1  1
 13 14  2  0
 14 15  1  0
 15 16  2  0
 12 17  1  0
 17 16  1  1
 10 18  1  0
 17 18  1  0
 18 19  2  0
  9 20  2  0
 20 21  1  0
 21 22  2  0
  8 23  1  0
 22 23  1  0
  5 24  1  0
 23 24  2  0
M  END
