AMI-CSI-2ea5bed6-8
     RDKit          3D

 20 23  0  0  0  0  0  0  0  0999 V2000
    6.9580   -1.2130   23.7700 O   0  0  0  0  0  0  0  0  0  0  0  0
    7.3230   -2.3350   23.4730 C   0  0  0  0  0  0  0  0  0  0  0  0
    6.4030   -3.3410   23.2420 C   0  0  1  0  0  0  0  0  0  0  0  0
    6.5450   -3.8670   21.9480 C   0  0  0  0  0  0  0  0  0  0  0  0
    6.3380   -5.2960   21.6480 C   0  0  0  0  0  0  0  0  0  0  0  0
    5.9820   -6.2090   22.7440 C   0  0  0  0  0  0  0  0  0  0  0  0
    6.0420   -5.6540   24.0120 C   0  0  0  0  0  0  0  0  0  0  0  0
    6.4300   -4.3200   24.2520 C   0  0  1  0  0  0  0  0  0  0  0  0
    8.3840   -4.3780   24.2520 Se  0  0  0  0  0  2  0  0  0  0  0  0
    8.5530   -2.7290   23.3430 N   0  0  0  0  0  0  0  0  0  0  0  0
    9.7640   -2.0970   23.5160 C   0  0  0  0  0  0  0  0  0  0  0  0
   10.2140   -0.8500   23.1020 C   0  0  0  0  0  0  0  0  0  0  0  0
   11.6570   -0.5110   23.4920 C   0  0  0  0  0  0  0  0  0  0  0  0
   12.2900   -1.4820   24.1890 C   0  0  0  0  0  0  0  0  0  0  0  0
   13.5050   -1.3400   24.5830 C   0  0  0  0  0  0  0  0  0  0  0  0
   14.1500   -2.3560   25.3250 C   0  0  0  0  0  0  0  0  0  0  0  0
   13.5270   -3.4620   25.6050 C   0  0  0  0  0  0  0  0  0  0  0  0
   12.2740   -3.5470   25.1570 C   0  0  0  0  0  0  0  0  0  0  0  0
   11.7210   -2.6280   24.5140 C   0  0  0  0  0  0  0  0  0  0  0  0
   10.5170   -2.9300   24.1980 C   0  0  0  0  0  0  0  0  0  0  0  0
  1  2  2  0
  2  3  1  0
  3  4  1  6
  4  5  2  0
  5  6  1  0
  6  7  2  0
  3  8  1  0
  8  7  1  6
  8  9  1  0
  2 10  1  0
  9 10  1  0
 10 11  1  0
 11 12  2  0
 12 13  1  0
 13 14  2  0
 14 15  1  0
 15 16  2  0
 16 17  1  0
 17 18  2  0
 14 19  1  0
 18 19  1  0
 11 20  1  0
 19 20  2  0
M  END
