AMI-CSI-2ea5bed6-3
     RDKit          3D

 19 21  0  0  0  0  0  0  0  0999 V2000
    7.5220   -1.3230   25.1090 N   0  0  0  0  0  0  0  0  0  0  0  0
    8.3030   -0.5360   24.1350 C   0  0  0  0  0  0  0  0  0  0  0  0
    7.6450    0.2590   23.1410 O   0  0  0  0  0  0  0  0  0  0  0  0
    9.7960   -0.6640   24.2930 C   0  0  0  0  0  0  0  0  0  0  0  0
   10.7680    0.4020   23.9100 C   0  0  0  0  0  0  0  0  0  0  0  0
   12.2350    0.2350   24.0860 C   0  0  0  0  0  0  0  0  0  0  0  0
   12.6720   -0.9440   24.6080 C   0  0  0  0  0  0  0  0  0  0  0  0
   11.6900   -2.0350   24.9860 C   0  0  0  0  0  0  0  0  0  0  0  0
   12.2800   -3.1230   25.4220 N   0  0  0  0  0  0  0  0  0  0  0  0
   13.7780   -3.0890   24.4260 Se  0  0  0  0  0  2  0  0  0  0  0  0
   13.8470   -4.4460   25.8760 C   0  0  1  0  0  0  0  0  0  0  0  0
   14.5880   -5.5630   26.2520 C   0  0  0  0  0  0  0  0  0  0  0  0
   15.3230   -6.3030   27.2970 C   0  0  0  0  0  0  0  0  0  0  0  0
   15.1910   -5.8650   28.1200 C   0  0  0  0  0  0  0  0  0  0  0  0
   14.5740   -4.7220   27.9200 C   0  0  0  0  0  0  0  0  0  0  0  0
   14.2240   -3.6470   26.6150 C   0  0  2  0  0  0  0  0  0  0  0  0
   13.0630   -3.5790   26.4140 C   0  0  0  0  0  0  0  0  0  0  0  0
   13.2100   -4.3120   27.4650 O   0  0  0  0  0  0  0  0  0  0  0  0
   10.3540   -1.9140   24.8510 C   0  0  0  0  0  0  0  0  0  0  0  0
  1  2  1  0
  2  3  2  0
  2  4  1  0
  4  5  2  0
  5  6  1  0
  6  7  2  0
  7  8  1  0
  8  9  1  0
  9 10  1  0
 10 11  1  0
 11 12  1  6
 12 13  2  0
 13 14  1  0
 14 15  2  0
 11 16  1  0
 16 15  1  1
  9 17  1  0
 16 17  1  0
 17 18  2  0
  4 19  1  0
  8 19  2  0
M  END
