AMI-SHA-46bf737e-1
     RDKit          3D

 22 23  0  0  0  0  0  0  0  0999 V2000
   13.9870   -2.5220   25.9170 C   0  0  0  0  0  0  0  0  0  0  0  0
   13.6300   -1.9230   24.6480 C   0  0  0  0  0  0  0  0  0  0  0  0
   13.7670   -2.7330   23.6030 C   0  0  0  0  0  0  0  0  0  0  0  0
   13.5060   -2.3160   22.3560 C   0  0  0  0  0  0  0  0  0  0  0  0
   13.1290   -1.0500   22.1760 C   0  0  0  0  0  0  0  0  0  0  0  0
   12.9480   -0.1370   23.2210 C   0  0  0  0  0  0  0  0  0  0  0  0
   12.4560    1.2060   22.7450 C   0  0  2  0  0  0  0  0  0  0  0  0
   12.3920    2.6660   23.1430 C   0  0  0  0  0  0  0  0  0  0  0  0
   11.1950    0.6310   22.9440 C   0  0  0  0  0  0  0  0  0  0  0  0
   11.4830   -0.5910   23.4120 C   0  0  0  0  0  0  0  0  0  0  0  0
   10.5690   -1.5070   23.7360 C   0  0  0  0  0  0  0  0  0  0  0  0
   11.2280   -2.7360   24.1740 C   0  0  0  0  0  0  0  0  0  0  0  0
   12.2110   -2.9680   23.1570 N   0  0  0  0  0  0  0  0  0  0  0  0
    9.2420   -1.1770   23.5990 C   0  0  0  0  0  0  0  0  0  0  0  0
    8.0260   -2.0030   23.9100 C   0  0  0  0  0  0  0  0  0  0  0  0
    7.9880   -3.4770   23.6380 C   0  0  0  0  0  0  0  0  0  0  0  0
    7.9750   -4.0670   22.5730 O   0  0  0  0  0  0  0  0  0  0  0  0
    7.9200   -4.1900   24.7740 O   0  0  0  0  0  0  0  0  0  0  0  0
    8.9630    0.0920   23.1090 C   0  0  0  0  0  0  0  0  0  0  0  0
    9.9320    1.0250   22.7680 C   0  0  0  0  0  0  0  0  0  0  0  0
    9.4810    2.3670   22.2500 C   0  0  0  0  0  0  0  0  0  0  0  0
   13.1920   -0.6120   24.4940 C   0  0  0  0  0  0  0  0  0  0  0  0
  1  2  1  0
  2  3  2  0
  3  4  1  0
  4  5  2  0
  5  6  1  0
  6  7  1  0
  7  8  1  1
  7  9  1  0
  9 10  2  0
 10 11  1  0
 11 12  1  0
 12 13  1  0
 11 14  2  0
 14 15  1  0
 15 16  1  0
 16 17  2  0
 16 18  1  0
 14 19  1  0
  9 20  1  0
 19 20  2  0
 20 21  1  0
  2 22  1  0
  6 22  2  0
M  END
