AMI-CSI-2ea5bed6-5
     RDKit          3D

 13 14  0  0  0  0  0  0  0  0999 V2000
    8.4070   -2.8700   21.4360 O   0  0  0  0  0  0  0  0  0  0  0  0
    7.2950   -3.2440   21.8120 C   0  0  0  0  0  0  0  0  0  0  0  0
    7.0460   -3.1120   23.1030 C   0  0  2  0  0  0  0  0  0  0  0  0
    8.2830   -2.3430   23.5840 C   0  0  0  0  0  0  0  0  0  0  0  0
    9.0480   -3.4620   24.0080 C   0  0  0  0  0  0  0  0  0  0  0  0
    8.0150   -4.2590   23.7810 C   0  0  0  0  0  0  0  0  0  0  0  0
    7.7100   -5.5200   23.5980 C   0  0  0  0  0  0  0  0  0  0  0  0
    6.7160   -4.5050   23.5570 C   0  0  2  0  0  0  0  0  0  0  0  0
    5.4260   -4.9960   22.1400 Se  0  0  0  0  0  2  0  0  0  0  0  0
    6.2800   -3.7900   20.9800 N   0  0  0  0  0  0  0  0  0  0  0  0
    5.6780   -3.1500   19.9490 C   0  0  0  0  0  0  0  0  0  0  0  0
    6.2640   -1.8660   19.3660 C   0  0  0  0  0  0  0  0  0  0  0  0
    7.0140   -1.0280   20.1560 O   0  0  0  0  0  0  0  0  0  0  0  0
  1  2  2  0
  2  3  1  0
  3  4  1  1
  4  5  2  0
  5  6  1  0
  6  7  2  0
  3  8  1  0
  8  7  1  6
  8  9  1  0
  2 10  1  0
  9 10  1  0
 10 11  1  0
 11 12  1  0
 12 13  1  0
M  END
