AMI-CSI-2ea5bed6-1
     RDKit          3D

 18 20  0  0  0  0  0  0  0  0999 V2000
    7.9290   -1.3090   22.8670 O   0  0  0  0  0  0  0  0  0  0  0  0
    8.2590   -2.4490   23.1420 C   0  0  0  0  0  0  0  0  0  0  0  0
    7.6040   -3.5170   22.5440 C   0  0  2  0  0  0  0  0  0  0  0  0
    6.6850   -3.2140   21.5580 C   0  0  0  0  0  0  0  0  0  0  0  0
    5.8000   -4.2900   21.0650 C   0  0  0  0  0  0  0  0  0  0  0  0
    5.9510   -5.6500   21.6720 C   0  0  0  0  0  0  0  0  0  0  0  0
    6.6120   -5.6480   22.9050 C   0  0  0  0  0  0  0  0  0  0  0  0
    7.0160   -4.4010   23.4340 C   0  0  1  0  0  0  0  0  0  0  0  0
    8.7100   -4.5670   24.3500 Se  0  0  0  0  0  2  0  0  0  0  0  0
    9.2180   -2.7850   24.0020 N   0  0  0  0  0  0  0  0  0  0  0  0
   10.5740   -2.3570   24.1060 C   0  0  0  0  0  0  0  0  0  0  0  0
   11.0310   -1.1480   23.6030 C   0  0  0  0  0  0  0  0  0  0  0  0
   12.5230   -0.8370   23.7870 C   0  0  0  0  0  0  0  0  0  0  0  0
   12.8790    0.4310   23.2150 O   0  0  0  0  0  0  0  0  0  0  0  0
   13.3310   -1.7260   24.4260 C   0  0  0  0  0  0  0  0  0  0  0  0
   12.8190   -2.8850   24.9070 C   0  0  0  0  0  0  0  0  0  0  0  0
   13.5580   -3.8150   25.5710 O   0  0  0  0  0  0  0  0  0  0  0  0
   11.4840   -3.1940   24.7440 C   0  0  0  0  0  0  0  0  0  0  0  0
  1  2  2  0
  2  3  1  0
  3  4  1  6
  4  5  2  0
  5  6  1  0
  6  7  2  0
  3  8  1  0
  8  7  1  6
  8  9  1  0
  2 10  1  0
  9 10  1  0
 10 11  1  0
 11 12  2  0
 12 13  1  0
 13 14  1  0
 13 15  2  0
 15 16  1  0
 16 17  1  0
 11 18  1  0
 16 18  2  0
M  END
