AMI-CSI-2339ae1c-1
     RDKit          3D

 17 19  0  0  0  0  0  0  0  0999 V2000
    9.5890   -2.8230   21.3880 O   0  0  0  0  0  0  0  0  0  0  0  0
    9.0160   -2.9470   22.4390 C   0  0  0  0  0  0  0  0  0  0  0  0
    7.8660   -3.7620   22.4560 C   0  0  2  0  0  0  0  0  0  0  0  0
    6.7250   -3.1340   21.9750 C   0  0  0  0  0  0  0  0  0  0  0  0
    5.4560   -3.6550   22.2880 C   0  0  0  0  0  0  0  0  0  0  0  0
    5.3900   -4.7490   23.0540 C   0  0  0  0  0  0  0  0  0  0  0  0
    6.5670   -5.0770   23.8490 C   0  0  0  0  0  0  0  0  0  0  0  0
    7.7450   -4.3190   23.8530 C   0  0  2  0  0  0  0  0  0  0  0  0
    7.7830   -2.5000   24.5600 Se  0  0  0  0  0  2  0  0  0  0  0  0
    9.4600   -2.2700   23.5920 N   0  0  0  0  0  0  0  0  0  0  0  0
   10.7900   -2.1010   23.9700 C   0  0  0  0  0  0  0  0  0  0  0  0
   11.5000   -0.9270   23.7250 C   0  0  0  0  0  0  0  0  0  0  0  0
   12.8380   -0.8210   24.1170 C   0  0  0  0  0  0  0  0  0  0  0  0
   13.4630   -1.8800   24.7630 C   0  0  0  0  0  0  0  0  0  0  0  0
   12.8810   -3.0270   25.0480 C   0  0  0  0  0  0  0  0  0  0  0  0
   13.5170   -3.8910   25.6340 O   0  0  0  0  0  0  0  0  0  0  0  0
   11.5650   -3.1920   24.6640 C   0  0  0  0  0  0  0  0  0  0  0  0
  1  2  2  0
  2  3  1  0
  3  4  1  1
  4  5  2  0
  5  6  1  0
  6  7  2  0
  3  8  1  0
  8  7  1  6
  8  9  1  0
  2 10  1  0
  9 10  1  0
 10 11  1  0
 11 12  2  0
 12 13  1  0
 13 14  2  0
 14 15  1  0
 15 16  1  0
 11 17  1  0
 15 17  2  0
M  END
