AMI-SHA-be6e1b75-1
     RDKit          3D

 20 21  0  0  0  0  0  0  0  0999 V2000
   11.3810   -2.4040   24.8210 C   0  0  0  0  0  0  0  0  0  0  0  0
   10.4680   -3.2210   24.2670 C   0  0  0  0  0  0  0  0  0  0  0  0
    9.0120   -3.0030   24.5400 C   0  0  0  0  0  0  0  0  0  0  0  0
    8.0650   -2.8620   23.5630 C   0  0  1  0  0  0  0  0  0  0  0  0
    7.8830   -3.9090   22.6690 C   0  0  0  0  0  0  0  0  0  0  0  0
    6.7200   -2.6770   24.3330 C   0  0  0  0  0  0  0  0  0  0  0  0
    6.1110   -3.8190   24.8700 C   0  0  0  0  0  0  0  0  0  0  0  0
    6.0510   -4.9340   24.3530 O   0  0  0  0  0  0  0  0  0  0  0  0
    5.6060   -3.5960   25.9710 O   0  0  0  0  0  0  0  0  0  0  0  0
    8.3650   -1.5540   22.8000 C   0  0  0  0  0  0  0  0  0  0  0  0
    9.8180   -1.2340   22.7460 C   0  0  0  0  0  0  0  0  0  0  0  0
   10.7020   -2.3260   22.5520 C   0  0  0  0  0  0  0  0  0  0  0  0
   11.9290   -1.8580   22.5380 N   0  0  0  0  0  0  0  0  0  0  0  0
   11.5920   -0.5010   22.7230 C   0  0  0  0  0  0  0  0  0  0  0  0
   12.2860    0.6760   22.8250 C   0  0  0  0  0  0  0  0  0  0  0  0
   13.1120   -0.2900   22.7010 C   0  0  0  0  0  0  0  0  0  0  0  0
   13.0720    1.2100   22.8300 C   0  0  0  0  0  0  0  0  0  0  0  0
   12.5940    2.7030   22.9730 C   0  0  0  0  0  0  0  0  0  0  0  0
   11.4920    1.1860   22.9200 C   0  0  0  0  0  0  0  0  0  0  0  0
   10.4140    0.0980   22.8630 C   0  0  0  0  0  0  0  0  0  0  0  0
  1  2  1  0
  2  3  1  0
  4  3  1  0
  4  5  1  6
  4  6  1  0
  6  7  1  0
  7  8  2  0
  7  9  1  0
  4 10  1  0
 10 11  1  0
 11 12  2  0
 12 13  1  0
 13 14  1  0
 14 15  1  0
 15 16  2  0
 16 17  1  0
 17 18  1  0
 17 19  2  0
 11 20  1  0
 14 20  2  0
 19 20  1  0
M  END
