AMI-CSI-2ea5bed6-12
     RDKit          3D

 20 22  0  0  0  0  0  0  0  0999 V2000
    8.5380   -3.5560   23.0820 N   0  0  0  0  0  0  0  0  0  0  0  0
    8.6340   -2.3860   24.2880 S   0  0  0  0  0  0  0  0  0  0  0  0
    8.0600   -1.1620   23.7770 O   0  0  0  0  0  0  0  0  0  0  0  0
    8.0940   -2.9930   25.4860 O   0  0  0  0  0  0  0  0  0  0  0  0
   10.3860   -2.1700   24.4810 C   0  0  0  0  0  0  0  0  0  0  0  0
   11.0120   -0.9600   24.1250 C   0  0  0  0  0  0  0  0  0  0  0  0
   12.3900   -0.8130   24.2850 C   0  0  0  0  0  0  0  0  0  0  0  0
   13.1400   -1.8650   24.8020 C   0  0  0  0  0  0  0  0  0  0  0  0
   12.6190   -3.0290   25.1670 C   0  0  0  0  0  0  0  0  0  0  0  0
   13.5290   -3.9160   25.6750 N   0  0  0  0  0  0  0  0  0  0  0  0
   14.7130   -2.7350   26.2150 Se  0  0  0  0  0  2  0  0  0  0  0  0
   14.6610   -4.7770   26.5780 C   0  0  2  0  0  0  0  0  0  0  0  0
   14.3660   -5.9910   26.2430 C   0  0  0  0  0  0  0  0  0  0  0  0
   14.7570   -7.6770   26.5990 C   0  0  0  0  0  0  0  0  0  0  0  0
   15.6420   -7.6540   27.2620 C   0  0  0  0  0  0  0  0  0  0  0  0
   15.6840   -6.3980   27.8100 C   0  0  0  0  0  0  0  0  0  0  0  0
   14.8090   -5.1790   27.8080 C   0  0  2  0  0  0  0  0  0  0  0  0
   13.7600   -4.4860   27.0080 C   0  0  0  0  0  0  0  0  0  0  0  0
   12.9690   -4.2750   27.5740 O   0  0  0  0  0  0  0  0  0  0  0  0
   11.2270   -3.2650   25.0300 C   0  0  0  0  0  0  0  0  0  0  0  0
  2  1  1  0
  2  3  2  0
  2  4  2  0
  2  5  1  0
  5  6  2  0
  6  7  1  0
  7  8  2  0
  8  9  1  0
  9 10  1  0
 10 11  1  0
 11 12  1  0
 12 13  1  1
 13 14  2  0
 14 15  1  0
 15 16  2  0
 12 17  1  0
 17 16  1  6
 10 18  1  0
 17 18  1  0
 18 19  2  0
  5 20  1  0
  9 20  2  0
M  END
