AMI-CSI-2ea5bed6-6
     RDKit          3D

 15 16  0  0  0  0  0  0  0  0999 V2000
    7.2060   -2.6910   21.2240 C   0  0  0  0  0  0  0  0  0  0  0  0
    5.8880   -3.0860   21.0990 C   0  0  0  0  0  0  0  0  0  0  0  0
    5.0260   -2.3380   21.9320 C   0  0  0  0  0  0  0  0  0  0  0  0
    5.4790   -2.9100   19.6540 C   0  0  0  0  0  0  0  0  0  0  0  0
    5.0720   -4.2200   19.2910 O   0  0  0  0  0  0  0  0  0  0  0  0
    5.6830   -4.5380   21.4370 N   0  0  0  0  0  0  0  0  0  0  0  0
    6.9820   -5.8960   21.8080 Se  0  0  0  0  0  2  0  0  0  0  0  0
    7.2510   -5.0090   23.5180 C   0  0  1  0  0  0  0  0  0  0  0  0
    7.9200   -3.8130   23.8030 C   0  0  0  0  0  0  0  0  0  0  0  0
    7.4820   -2.8610   24.7470 C   0  0  0  0  0  0  0  0  0  0  0  0
    6.3150   -3.0520   25.5180 C   0  0  0  0  0  0  0  0  0  0  0  0
    5.4940   -3.9940   24.9100 C   0  0  0  0  0  0  0  0  0  0  0  0
    5.9360   -4.6170   23.5820 C   0  0  2  0  0  0  0  0  0  0  0  0
    5.0680   -4.9310   22.5800 C   0  0  0  0  0  0  0  0  0  0  0  0
    3.9820   -5.4470   22.8090 O   0  0  0  0  0  0  0  0  0  0  0  0
  2  1  1  0
  2  3  1  0
  2  4  1  0
  4  5  1  0
  2  6  1  0
  6  7  1  0
  7  8  1  0
  8  9  1  6
  9 10  2  0
 10 11  1  0
 11 12  2  0
  8 13  1  0
 13 12  1  1
  6 14  1  0
 13 14  1  0
 14 15  2  0
M  END
