AND-WAB-bfd3647f-2
     RDKit          3D

 16 17  0  0  0  0  0  0  0  0999 V2000
   13.3320   -1.1960   23.0300 C   0  0  0  0  0  0  0  0  0  0  0  0
   12.0360   -0.9870   23.3850 N   0  0  0  0  0  0  0  0  0  0  0  0
   10.9420   -1.7220   22.8980 C   0  0  0  0  0  0  0  0  0  0  0  0
    9.6690   -1.5790   23.4310 C   0  0  0  0  0  0  0  0  0  0  0  0
    9.3040   -0.2040   23.0990 N   0  0  0  0  0  0  0  0  0  0  0  0
    8.9210    0.0780   21.6970 C   0  0  2  0  0  0  0  0  0  0  0  0
    8.8840    1.5010   21.4910 O   0  0  0  0  0  0  0  0  0  0  0  0
    7.7390   -0.4870   21.2270 C   0  0  0  0  0  0  0  0  0  0  0  0
    6.8410    0.0160   20.2670 C   0  0  0  0  0  0  0  0  0  0  0  0
    6.9980   -0.2270   18.7800 C   0  0  0  0  0  0  0  0  0  0  0  0
    6.1370    0.2660   17.8780 N   0  0  0  0  0  0  0  0  0  0  0  0
    5.1190    0.9890   18.3640 C   0  0  0  0  0  0  0  0  0  0  0  0
    4.8690    1.2690   19.6650 N   0  0  0  0  0  0  0  0  0  0  0  0
    5.7360    0.7750   20.5780 C   0  0  0  0  0  0  0  0  0  0  0  0
   10.2510    0.7380   23.7360 C   0  0  0  0  0  0  0  0  0  0  0  0
   11.7340    0.4460   23.4850 C   0  0  0  0  0  0  0  0  0  0  0  0
  1  2  1  0
  2  3  1  0
  3  4  1  0
  4  5  1  0
  5  6  1  0
  6  7  1  1
  6  8  1  0
  8  9  1  0
  9 10  2  0
 10 11  1  0
 11 12  2  0
 12 13  1  0
  9 14  1  0
 13 14  2  0
  5 15  1  0
  2 16  1  0
 15 16  1  0
M  END
