AND-WAB-34fc5141-1
     RDKit          3D

 27 29  0  0  0  0  0  0  0  0999 V2000
    5.3060   -4.7570   20.8440 N   0  0  0  0  0  0  0  0  0  0  0  0
    5.5760   -5.3000   21.9700 C   0  0  0  0  0  0  0  0  0  0  0  0
    4.7450   -6.2460   22.4980 N   0  0  0  0  0  0  0  0  0  0  0  0
    6.8030   -4.8720   22.6850 C   0  0  0  0  0  0  0  0  0  0  0  0
    6.8650   -3.9720   23.6860 C   0  0  1  0  0  0  0  0  0  0  0  0
    7.4700   -2.5880   23.3210 C   0  0  0  0  0  0  0  0  0  0  0  0
    8.5150   -2.2520   22.3580 C   0  0  0  0  0  0  0  0  0  0  0  0
    9.0550   -0.9830   22.0780 N   0  0  0  0  0  0  0  0  0  0  0  0
    8.3520    0.0970   21.4740 C   0  0  0  0  0  0  0  0  0  0  0  0
    8.8940    1.1450   21.0840 O   0  0  0  0  0  0  0  0  0  0  0  0
    6.9770   -0.0570   21.4000 N   0  0  0  0  0  0  0  0  0  0  0  0
    6.1290   -0.3200   20.2220 C   0  0  2  0  0  0  0  0  0  0  0  0
    6.8880   -0.1380   18.9220 C   0  0  0  0  0  0  0  0  0  0  0  0
    6.4530    0.5370   17.8990 N   0  0  0  0  0  0  0  0  0  0  0  0
    5.1330    1.1670   18.0500 C   0  0  0  0  0  0  0  0  0  0  0  0
    4.9440    1.6600   19.3230 C   0  0  0  0  0  0  0  0  0  0  0  0
    4.8910    0.5710   20.2400 C   0  0  0  0  0  0  0  0  0  0  0  0
   10.1490   -0.6040   23.0020 C   0  0  0  0  0  0  0  0  0  0  0  0
   10.5680    0.7860   22.9900 C   0  0  0  0  0  0  0  0  0  0  0  0
   11.9370    0.9270   22.7850 C   0  0  0  0  0  0  0  0  0  0  0  0
   12.4800   -0.3240   22.6190 C   0  0  0  0  0  0  0  0  0  0  0  0
   11.4890   -1.2970   22.7090 C   0  0  0  0  0  0  0  0  0  0  0  0
    5.5370   -3.8770   24.5020 C   0  0  0  0  0  0  0  0  0  0  0  0
    4.3640   -3.8080   23.7280 C   0  0  0  0  0  0  0  0  0  0  0  0
    3.4900   -4.7680   24.0780 C   0  0  0  0  0  0  0  0  0  0  0  0
    4.0550   -5.5540   25.1350 C   0  0  0  0  0  0  0  0  0  0  0  0
    5.2620   -5.0620   25.4100 C   0  0  0  0  0  0  0  0  0  0  0  0
  1  2  2  3
  2  3  1  0
  2  4  1  0
  5  4  1  6
  5  6  1  0
  6  7  2  3
  7  8  1  0
  8  9  1  0
  9 10  2  0
  9 11  1  0
 12 11  1  1
 12 13  1  0
 13 14  2  0
 14 15  1  0
 15 16  1  0
 12 17  1  0
 16 17  1  0
  8 18  1  0
 18 19  1  0
 19 20  2  0
 20 21  1  0
 18 22  1  0
 21 22  2  0
  5 23  1  0
 23 24  1  0
 24 25  2  0
 25 26  1  0
 23 27  1  0
 26 27  2  0
M  END
