AND-UNI-23ac02e4-1
     RDKit          3D

 33 34  0  0  0  0  0  0  0  0999 V2000
   13.2400   -1.7590   23.8200 C   0  0  0  0  0  0  0  0  0  0  0  0
   13.2960   -0.3280   23.9690 O   0  0  0  0  0  0  0  0  0  0  0  0
   13.3780    0.3840   22.7650 C   0  0  0  0  0  0  0  0  0  0  0  0
   13.6930   -0.2210   21.7770 O   0  0  0  0  0  0  0  0  0  0  0  0
   13.0070    1.7900   22.8220 C   0  0  0  0  0  0  0  0  0  0  0  0
   11.5680    1.8940   23.0620 C   0  0  0  0  0  0  0  0  0  0  0  0
   10.7880    3.1210   23.2810 C   0  0  0  0  0  0  0  0  0  0  0  0
   11.4460    4.3190   23.2600 C   0  0  0  0  0  0  0  0  0  0  0  0
   10.4680    5.7500   23.6050 S   0  0  0  0  0  0  0  0  0  0  0  0
    9.0570    5.4360   22.6990 N   0  0  0  0  0  0  0  0  0  0  0  0
   11.1350    6.9060   23.0660 O   0  0  0  0  0  0  0  0  0  0  0  0
   10.0560    5.6780   24.9970 O   0  0  0  0  0  0  0  0  0  0  0  0
   12.8410    4.3940   22.9780 C   0  0  0  0  0  0  0  0  0  0  0  0
   13.7330    3.3000   22.7100 C   0  0  0  0  0  0  0  0  0  0  0  0
   15.3620    3.5890   22.3740 C   0  0  0  0  0  0  0  0  0  0  0  0
   16.3200    4.5680   23.2520 C   0  0  0  0  0  0  0  0  0  0  0  0
   17.7370    4.3180   23.1880 C   0  0  0  0  0  0  0  0  0  0  0  0
   18.5410    5.3330   22.6370 C   0  0  0  0  0  0  0  0  0  0  0  0
   19.9230    5.2450   22.5610 C   0  0  0  0  0  0  0  0  0  0  0  0
   20.5400    6.4950   22.4670 C   0  0  0  0  0  0  0  0  0  0  0  0
   20.3850    7.1110   21.2090 C   0  0  0  0  0  0  0  0  0  0  0  0
   20.4920    8.8840   21.1400 S   0  0  0  0  0  0  0  0  0  0  0  0
   20.1800    9.2380   22.5030 O   0  0  0  0  0  0  0  0  0  0  0  0
   19.6240    9.2730   20.0340 O   0  0  0  0  0  0  0  0  0  0  0  0
   22.0370    9.3960   20.8100 N   0  0  0  0  0  0  0  0  0  0  0  0
   22.7280   10.2410   21.5920 C   0  0  0  0  0  0  0  0  0  0  0  0
   24.1190   10.2820   21.4550 C   0  0  0  0  0  0  0  0  0  0  0  0
   24.7460    9.7900   20.3580 N   0  0  0  0  0  0  0  0  0  0  0  0
   26.1820    9.5240   20.4840 C   0  0  0  0  0  0  0  0  0  0  0  0
   26.8430   10.3310   21.4060 C   0  0  0  0  0  0  0  0  0  0  0  0
   26.7790    8.6600   19.8380 O   0  0  0  0  0  0  0  0  0  0  0  0
   23.9320    9.1360   19.3790 C   0  0  0  0  0  0  0  0  0  0  0  0
   22.5650    9.4660   19.4500 C   0  0  0  0  0  0  0  0  0  0  0  0
  1  2  1  0
  2  3  1  0
  3  4  2  0
  3  5  1  0
  5  6  2  0
  6  7  1  0
  7  8  2  0
  8  9  1  0
  9 10  1  0
  9 11  2  0
  9 12  2  0
  8 13  1  0
  5 14  1  0
 13 14  2  0
 14 15  1  0
 15 16  1  0
 16 17  1  0
 17 18  1  0
 18 19  1  0
 19 20  1  0
 20 21  1  0
 21 22  1  0
 22 23  1  0
 22 24  1  0
 22 25  1  0
 25 26  1  0
 26 27  1  0
 27 28  1  0
 28 29  1  0
 29 30  1  0
 29 31  2  0
 28 32  1  0
 25 33  1  0
 32 33  1  0
M  END
