ANN-UNI-26382800-2
     RDKit          3D

 14 15  0  0  0  0  0  0  0  0999 V2000
    6.4780    1.5920   20.1950 C   0  0  0  0  0  0  0  0  0  0  0  0
    7.3470    0.8570   21.1270 C   0  0  0  0  0  0  0  0  0  0  0  0
    8.3730    1.5630   21.7430 N   0  0  0  0  0  0  0  0  0  0  0  0
    9.4630    0.7440   22.1940 C   0  0  0  0  0  0  0  0  0  0  0  0
   10.5320    1.3590   22.7500 C   0  0  0  0  0  0  0  0  0  0  0  0
   11.5020    0.5360   23.1360 C   0  0  0  0  0  0  0  0  0  0  0  0
   11.3050   -0.9160   22.9250 C   0  0  0  0  0  0  0  0  0  0  0  0
   12.4040   -1.7570   23.3860 C   0  0  0  0  0  0  0  0  0  0  0  0
   12.6500   -2.1150   24.7740 C   0  0  0  0  0  0  0  0  0  0  0  0
   13.6580   -2.8770   24.9370 N   0  0  0  0  0  0  0  0  0  0  0  0
   13.9630   -2.9400   23.6220 C   0  0  0  0  0  0  0  0  0  0  0  0
   13.2300   -2.2730   22.6860 O   0  0  0  0  0  0  0  0  0  0  0  0
   10.2560   -1.6740   22.3640 C   0  0  0  0  0  0  0  0  0  0  0  0
    9.3190   -0.5670   22.0140 N   0  0  0  0  0  0  0  0  0  0  0  0
  1  2  1  0
  2  3  1  0
  3  4  1  0
  4  5  2  0
  5  6  1  0
  6  7  2  0
  7  8  1  0
  8  9  2  0
  9 10  1  0
 10 11  2  0
  8 12  1  0
 11 12  1  0
  7 13  1  0
  4 14  1  0
 13 14  2  0
M  END
