ANT-OPE-997bdc93-2
     RDKit          3D

 19 21  0  0  0  0  0  0  0  0999 V2000
    7.9790    6.3060   21.9900 C   0  0  0  0  0  0  0  0  0  0  0  0
    9.0010    7.0070   22.8440 C   0  0  0  0  0  0  0  0  0  0  0  0
   10.0810    6.2830   23.3820 C   0  0  0  0  0  0  0  0  0  0  0  0
   10.2010    6.0320   24.5740 O   0  0  0  0  0  0  0  0  0  0  0  0
   10.9830    5.9060   22.4150 N   0  0  0  0  0  0  0  0  0  0  0  0
   12.1500    5.1100   22.7050 C   0  0  0  0  0  0  0  0  0  0  0  0
   11.9530    3.6990   22.2340 C   0  0  0  0  0  0  0  0  0  0  0  0
   12.1870    2.6320   23.0810 C   0  0  1  0  0  0  0  0  0  0  0  0
   11.1200    1.9030   23.6050 C   0  0  0  0  0  0  0  0  0  0  0  0
   11.3730    0.3300   23.1830 C   0  0  0  0  0  0  0  0  0  0  0  0
   12.7730    0.3260   22.5240 C   0  0  0  0  0  0  0  0  0  0  0  0
   12.8180   -1.0490   22.3450 C   0  0  0  0  0  0  0  0  0  0  0  0
   11.6930   -1.7020   22.7810 C   0  0  0  0  0  0  0  0  0  0  0  0
   10.6900   -0.8890   23.3340 C   0  0  0  0  0  0  0  0  0  0  0  0
   10.8020    0.5230   23.4490 C   0  0  0  0  0  0  0  0  0  0  0  0
   11.9790    1.2270   22.9880 C   0  0  0  0  0  0  0  0  0  0  0  0
    9.4970    0.9400   24.1050 C   0  0  0  0  0  0  0  0  0  0  0  0
    8.9110   -0.2980   24.4680 C   0  0  0  0  0  0  0  0  0  0  0  0
    9.5020   -1.3710   23.8200 C   0  0  0  0  0  0  0  0  0  0  0  0
  1  2  1  0
  2  3  1  0
  3  4  2  0
  3  5  1  0
  5  6  1  0
  6  7  1  0
  8  7  1  6
  8  9  1  0
  9 10  1  0
 10 11  1  0
 11 12  2  0
 12 13  1  0
 13 14  2  0
 14 15  1  0
  8 16  1  0
 11 16  1  0
 15 16  2  0
 15 17  1  0
 17 18  1  0
 14 19  1  0
 18 19  1  0
M  END
