ANT-DIA-3c79be55-4
     RDKit          3D

 19 20  0  0  0  0  0  0  0  0999 V2000
   12.9600    0.8270   23.1200 C   0  0  0  0  0  0  0  0  0  0  0  0
   12.5430   -0.7300   23.8890 S   0  0  0  0  0  0  0  0  0  0  0  0
   11.1470   -0.7400   24.2470 O   0  0  0  0  0  0  0  0  0  0  0  0
   13.5110   -1.2200   24.8190 O   0  0  0  0  0  0  0  0  0  0  0  0
   12.6770   -1.6580   22.5020 C   0  0  0  0  0  0  0  0  0  0  0  0
   11.6350   -2.4160   21.9010 C   0  0  0  0  0  0  0  0  0  0  0  0
   10.5450   -2.1940   21.6700 C   0  0  0  0  0  0  0  0  0  0  0  0
   10.7730   -0.8750   22.2490 C   0  0  0  0  0  0  0  0  0  0  0  0
    9.8020   -0.2600   22.1960 C   0  0  0  0  0  0  0  0  0  0  0  0
    8.4910   -0.4420   21.7180 C   0  0  0  0  0  0  0  0  0  0  0  0
    8.1840   -1.6480   21.2280 O   0  0  0  0  0  0  0  0  0  0  0  0
    7.5340    0.6360   21.7330 N   0  0  0  0  0  0  0  0  0  0  0  0
    6.7260    0.7840   20.5050 C   0  0  0  0  0  0  0  0  0  0  0  0
    5.5330    1.7140   20.5480 C   0  0  0  0  0  0  0  0  0  0  0  0
    5.0760    1.5720   19.2110 C   0  0  0  0  0  0  0  0  0  0  0  0
    5.2410    0.9860   17.9670 C   0  0  0  0  0  0  0  0  0  0  0  0
    6.3400    0.1350   17.9700 N   0  0  0  0  0  0  0  0  0  0  0  0
    7.0070    0.0940   19.2510 C   0  0  0  0  0  0  0  0  0  0  0  0
   10.2820   -1.5740   21.8310 O   0  0  0  0  0  0  0  0  0  0  0  0
  2  1  1  0
  2  3  2  0
  2  4  2  0
  2  5  1  0
  5  6  1  0
  6  7  2  0
  7  8  1  0
  8  9  2  0
  9 10  1  0
 10 11  2  0
 10 12  1  0
 12 13  1  0
 13 14  2  0
 14 15  1  0
 15 16  2  0
 16 17  1  0
 13 18  1  0
 17 18  2  0
  6 19  1  0
  9 19  1  0
M  END
