ANT-OPE-7824651a-2
     RDKit          3D

 24 26  0  0  0  0  0  0  0  0999 V2000
    6.5690   -2.7470   21.0240 C   0  0  0  0  0  0  0  0  0  0  0  0
    6.1030   -4.1690   20.8430 C   0  0  0  0  0  0  0  0  0  0  0  0
    5.4000   -4.4640   19.8700 O   0  0  0  0  0  0  0  0  0  0  0  0
    6.5110   -5.0870   21.7910 N   0  0  0  0  0  0  0  0  0  0  0  0
    7.2800   -4.5770   22.9320 C   0  0  0  0  0  0  0  0  0  0  0  0
    6.3250   -4.1010   24.0240 C   0  0  0  0  0  0  0  0  0  0  0  0
    5.3970   -5.2030   24.3930 N   0  0  0  0  0  0  0  0  0  0  0  0
    4.7380   -5.2360   25.9420 S   0  0  0  0  0  0  0  0  0  0  0  0
    5.8100   -5.0090   26.8850 O   0  0  0  0  0  0  0  0  0  0  0  0
    3.8850   -6.4000   26.0350 O   0  0  0  0  0  0  0  0  0  0  0  0
    3.6810   -3.8040   25.9910 C   0  0  0  0  0  0  0  0  0  0  0  0
    4.2340   -2.5260   26.0880 C   0  0  0  0  0  0  0  0  0  0  0  0
    3.3860   -1.4210   26.1340 C   0  0  0  0  0  0  0  0  0  0  0  0
    2.0030   -1.6020   26.0840 C   0  0  0  0  0  0  0  0  0  0  0  0
    1.4350   -2.8820   25.9840 C   0  0  0  0  0  0  0  0  0  0  0  0
   -0.0180   -3.0730   25.9270 C   0  0  0  0  0  0  0  0  0  0  0  0
   -0.6100   -3.8370   24.9090 C   0  0  0  0  0  0  0  0  0  0  0  0
   -1.9920   -4.0160   24.8540 C   0  0  0  0  0  0  0  0  0  0  0  0
   -2.8090   -3.4330   25.8220 C   0  0  0  0  0  0  0  0  0  0  0  0
   -2.2430   -2.6730   26.8400 C   0  0  0  0  0  0  0  0  0  0  0  0
   -0.8580   -2.4930   26.8930 C   0  0  0  0  0  0  0  0  0  0  0  0
    2.2970   -3.9850   25.9370 C   0  0  0  0  0  0  0  0  0  0  0  0
    4.7050   -5.8970   23.2740 C   0  0  0  0  0  0  0  0  0  0  0  0
    5.6840   -6.2340   22.1430 C   0  0  0  0  0  0  0  0  0  0  0  0
  1  2  1  0
  2  3  2  0
  2  4  1  0
  4  5  1  0
  5  6  1  0
  6  7  1  0
  7  8  1  0
  8  9  2  0
  8 10  2  0
  8 11  1  0
 11 12  2  0
 12 13  1  0
 13 14  2  0
 14 15  1  0
 15 16  1  0
 16 17  2  0
 17 18  1  0
 18 19  2  0
 19 20  1  0
 16 21  1  0
 20 21  2  0
 11 22  1  0
 15 22  2  0
  7 23  1  0
  4 24  1  0
 23 24  1  0
M  END
