ANT-OPE-6a16a9ad-1
     RDKit          3D

 15 16  0  0  0  0  0  0  0  0999 V2000
   13.3950   -2.5420   25.0460 C   0  0  0  0  0  0  0  0  0  0  0  0
   12.2100   -2.9000   24.2080 C   0  0  0  0  0  0  0  0  0  0  0  0
   11.1240   -1.9010   24.1000 C   0  0  0  0  0  0  0  0  0  0  0  0
   10.6070   -1.3770   25.0470 O   0  0  0  0  0  0  0  0  0  0  0  0
   10.7310   -1.5850   22.8420 N   0  0  0  0  0  0  0  0  0  0  0  0
   10.1230   -0.2990   22.7620 C   0  0  0  0  0  0  0  0  0  0  0  0
    9.3170   -0.1900   21.6640 C   0  0  2  0  0  0  0  0  0  0  0  0
    8.6040    1.0420   21.5450 C   0  0  0  0  0  0  0  0  0  0  0  0
    7.6630   -0.0340   21.7150 C   0  0  1  0  0  0  0  0  0  0  0  0
    6.6950    0.1250   20.5760 C   0  0  0  0  0  0  0  0  0  0  0  0
    6.8780   -0.5090   19.3320 C   0  0  0  0  0  0  0  0  0  0  0  0
    5.9570   -0.3370   18.2890 C   0  0  0  0  0  0  0  0  0  0  0  0
    4.8430    0.4700   18.4350 C   0  0  0  0  0  0  0  0  0  0  0  0
    4.6450    1.1350   19.7340 C   0  0  0  0  0  0  0  0  0  0  0  0
    5.5650    0.9370   20.7480 C   0  0  0  0  0  0  0  0  0  0  0  0
  1  2  1  0
  2  3  1  0
  3  4  2  0
  3  5  1  0
  5  6  1  0
  7  6  1  1
  7  8  1  0
  7  9  1  0
  8  9  1  0
  9 10  1  6
 10 11  2  0
 11 12  1  0
 12 13  2  0
 13 14  1  0
 10 15  1  0
 14 15  2  0
M  END
