ANT-DIA-045cfdc4-1
     RDKit          3D

 14 15  0  0  0  0  0  0  0  0999 V2000
   10.4470    4.0740   22.7960 C   0  0  0  0  0  0  0  0  0  0  0  0
   10.4180    2.7110   22.5800 N   0  0  0  0  0  0  0  0  0  0  0  0
    9.3070    1.8800   22.3420 C   0  0  0  0  0  0  0  0  0  0  0  0
    8.6520    1.7880   21.0550 O   0  0  0  0  0  0  0  0  0  0  0  0
    8.8200    1.1150   23.4160 C   0  0  1  0  0  0  0  0  0  0  0  0
    7.4560    0.9170   23.4240 C   0  0  0  0  0  0  0  0  0  0  0  0
    7.1870   -0.3720   23.0470 C   0  0  0  0  0  0  0  0  0  0  0  0
    8.5470   -1.0210   22.7920 C   0  0  0  0  0  0  0  0  0  0  0  0
    9.6110   -0.0930   23.3880 C   0  0  1  0  0  0  0  0  0  0  0  0
   10.9380   -0.2880   22.9930 C   0  0  0  0  0  0  0  0  0  0  0  0
   12.0310    0.5260   23.1030 C   0  0  0  0  0  0  0  0  0  0  0  0
   13.2300    0.0900   22.6370 C   0  0  0  0  0  0  0  0  0  0  0  0
   13.1040   -1.4980   21.9640 S   0  0  0  0  0  0  0  0  0  0  0  0
   11.4100   -1.5730   22.3180 C   0  0  0  0  0  0  0  0  0  0  0  0
  1  2  1  0
  2  3  1  0
  3  4  2  0
  5  3  1  6
  5  6  1  0
  6  7  1  0
  7  8  1  0
  5  9  1  0
  8  9  1  0
  9 10  1  6
 10 11  1  0
 11 12  2  0
 12 13  1  0
 10 14  2  0
 13 14  1  0
M  END
