ANT-DIA-045cfdc4-4
     RDKit          3D

 20 22  0  0  0  0  0  0  0  0999 V2000
    8.7800    1.7590   21.1330 O   0  0  0  0  0  0  0  0  0  0  0  0
    9.3390    1.8730   22.2120 C   0  0  0  0  0  0  0  0  0  0  0  0
   10.3040    2.7730   22.5000 N   0  0  0  0  0  0  0  0  0  0  0  0
    9.8100    3.8410   23.1630 C   0  0  0  0  0  0  0  0  0  0  0  0
   10.8310    4.8150   23.1040 C   0  0  0  0  0  0  0  0  0  0  0  0
   10.8200    6.0960   23.8580 C   0  0  0  0  0  0  0  0  0  0  0  0
   11.9460    7.0550   23.7230 C   0  0  0  0  0  0  0  0  0  0  0  0
   12.9440    6.6350   22.8570 C   0  0  0  0  0  0  0  0  0  0  0  0
   12.8980    5.4130   22.1740 C   0  0  0  0  0  0  0  0  0  0  0  0
   11.8390    4.4990   22.3000 N   0  0  0  0  0  0  0  0  0  0  0  0
    8.9340    0.9620   23.3580 C   0  0  1  0  0  0  0  0  0  0  0  0
    7.5670    0.8490   23.4970 C   0  0  0  0  0  0  0  0  0  0  0  0
    7.2910   -0.5810   23.0340 C   0  0  0  0  0  0  0  0  0  0  0  0
    8.5460   -1.0860   22.7210 C   0  0  0  0  0  0  0  0  0  0  0  0
    9.5370   -0.3270   23.3980 C   0  0  1  0  0  0  0  0  0  0  0  0
   10.8730   -0.4650   22.9770 C   0  0  0  0  0  0  0  0  0  0  0  0
   11.8600    0.5070   23.0930 C   0  0  0  0  0  0  0  0  0  0  0  0
   13.1060    0.1400   22.6330 C   0  0  0  0  0  0  0  0  0  0  0  0
   13.0890   -1.4590   22.0100 S   0  0  0  0  0  0  0  0  0  0  0  0
   11.4180   -1.6040   22.3850 C   0  0  0  0  0  0  0  0  0  0  0  0
  1  2  2  0
  2  3  1  0
  3  4  1  0
  4  5  1  0
  5  6  2  0
  6  7  1  0
  7  8  2  0
  8  9  1  0
  5 10  1  0
  9 10  2  0
 11  2  1  6
 11 12  1  0
 12 13  1  0
 13 14  1  0
 11 15  1  0
 14 15  1  0
 15 16  1  6
 16 17  1  0
 17 18  2  0
 18 19  1  0
 16 20  2  0
 19 20  1  0
M  END
