ANT-OPE-a517596a-1
     RDKit          3D

 24 26  0  0  0  0  0  0  0  0999 V2000
    5.2470   -3.9360   26.0580 C   0  0  0  0  0  0  0  0  0  0  0  0
    6.2270   -4.9370   26.1040 N   0  0  0  0  0  0  0  0  0  0  0  0
    5.9230   -5.9420   27.1350 C   0  0  0  0  0  0  0  0  0  0  0  0
    7.6100   -4.5110   25.8290 C   0  0  0  0  0  0  0  0  0  0  0  0
    7.7810   -3.4410   24.8970 C   0  0  0  0  0  0  0  0  0  0  0  0
    9.0300   -3.0020   24.3660 C   0  0  0  0  0  0  0  0  0  0  0  0
    9.0180   -1.9430   23.5460 C   0  0  0  0  0  0  0  0  0  0  0  0
   10.3990   -1.4320   23.0520 C   0  0  0  0  0  0  0  0  0  0  0  0
   10.7230   -0.1540   23.5050 C   0  0  0  0  0  0  0  0  0  0  0  0
   12.0580    0.6630   23.2740 C   0  0  0  0  0  0  0  0  0  0  0  0
   12.8550   -0.3150   22.4460 C   0  0  0  0  0  0  0  0  0  0  0  0
   12.5380   -1.5670   21.9850 C   0  0  0  0  0  0  0  0  0  0  0  0
   11.2240   -2.1760   22.2960 C   0  0  0  0  0  0  0  0  0  0  0  0
    7.7480   -1.5590   23.3760 N   0  0  0  0  0  0  0  0  0  0  0  0
    7.1180   -0.2810   22.4400 S   0  0  0  0  0  0  0  0  0  0  0  0
    7.4780   -0.5840   21.0720 O   0  0  0  0  0  0  0  0  0  0  0  0
    5.7370   -0.0900   22.8270 O   0  0  0  0  0  0  0  0  0  0  0  0
    7.9800    1.1530   22.9740 C   0  0  0  0  0  0  0  0  0  0  0  0
    9.2540    1.6060   22.2690 C   0  0  0  0  0  0  0  0  0  0  0  0
    9.9050    2.7660   22.7330 C   0  0  0  0  0  0  0  0  0  0  0  0
    9.3850    3.4670   23.8100 C   0  0  0  0  0  0  0  0  0  0  0  0
    8.2080    3.0450   24.4620 N   0  0  0  0  0  0  0  0  0  0  0  0
    7.5170    1.9050   24.0490 C   0  0  0  0  0  0  0  0  0  0  0  0
    6.9150   -2.5110   24.2390 C   0  0  0  0  0  0  0  0  0  0  0  0
  1  2  1  0
  2  3  1  0
  2  4  1  0
  4  5  1  0
  5  6  1  0
  6  7  2  0
  7  8  1  0
  8  9  2  0
  9 10  1  0
 10 11  2  0
 11 12  1  0
  8 13  1  0
 12 13  2  0
  7 14  1  0
 14 15  1  0
 15 16  2  0
 15 17  2  0
 15 18  1  0
 18 19  2  0
 19 20  1  0
 20 21  2  0
 21 22  1  0
 18 23  1  0
 22 23  2  0
  5 24  2  0
 14 24  1  0
M  END
