ANT-OPE-6a16a9ad-2
     RDKit          3D

 19 21  0  0  0  0  0  0  0  0999 V2000
   13.0180    0.1900   23.0560 C   0  0  0  0  0  0  0  0  0  0  0  0
   12.9400   -1.0860   23.4740 C   0  0  0  0  0  0  0  0  0  0  0  0
   11.6630   -1.6830   23.8860 C   0  0  0  0  0  0  0  0  0  0  0  0
   11.7360   -2.7820   24.4140 O   0  0  0  0  0  0  0  0  0  0  0  0
   10.5350   -0.9630   23.6450 N   0  0  0  0  0  0  0  0  0  0  0  0
    9.7270   -1.4460   22.6890 C   0  0  0  0  0  0  0  0  0  0  0  0
    9.1930   -0.6940   21.6650 C   0  0  2  0  0  0  0  0  0  0  0  0
    8.4880    0.3550   21.8720 C   0  0  0  0  0  0  0  0  0  0  0  0
    7.5410   -0.4750   21.5070 C   0  0  1  0  0  0  0  0  0  0  0  0
    6.6790    0.1420   20.3830 C   0  0  0  0  0  0  0  0  0  0  0  0
    6.9980   -0.1160   18.9190 C   0  0  0  0  0  0  0  0  0  0  0  0
    6.0130    0.5950   18.0140 C   0  0  0  0  0  0  0  0  0  0  0  0
    4.9880    1.3500   18.4910 C   0  0  0  0  0  0  0  0  0  0  0  0
    4.7620    1.5300   19.8360 C   0  0  0  0  0  0  0  0  0  0  0  0
    3.7180    2.2920   20.1980 C   0  0  0  0  0  0  0  0  0  0  0  0
    3.4800    2.4840   21.4910 C   0  0  0  0  0  0  0  0  0  0  0  0
    4.3880    1.8370   22.4790 C   0  0  0  0  0  0  0  0  0  0  0  0
    5.5390    0.9960   22.2840 C   0  0  0  0  0  0  0  0  0  0  0  0
    5.6070    0.9280   20.8350 C   0  0  0  0  0  0  0  0  0  0  0  0
  1  2  1  0
  2  3  1  0
  3  4  2  0
  3  5  1  0
  5  6  1  0
  7  6  1  1
  7  8  1  0
  7  9  1  0
  8  9  1  0
  9 10  1  6
 10 11  2  0
 11 12  1  0
 12 13  2  0
 13 14  1  0
 14 15  1  0
 15 16  2  0
 16 17  1  0
 17 18  2  0
 10 19  1  0
 14 19  2  0
 18 19  1  0
M  END
