ANT-OPE-81f9835f-1
     RDKit          3D

 16 17  0  0  0  0  0  0  0  0999 V2000
    9.0190    6.6730   22.6340 C   0  0  0  0  0  0  0  0  0  0  0  0
   10.0720    6.2470   23.3620 C   0  0  0  0  0  0  0  0  0  0  0  0
    9.9650    6.3780   24.7910 O   0  0  0  0  0  0  0  0  0  0  0  0
   11.1630    5.7110   22.5970 N   0  0  0  0  0  0  0  0  0  0  0  0
   12.1900    5.0580   23.2390 C   0  0  0  0  0  0  0  0  0  0  0  0
   12.6480    3.7230   22.6030 C   0  0  0  0  0  0  0  0  0  0  0  0
   12.0620    2.5350   23.0190 C   0  0  0  0  0  0  0  0  0  0  0  0
   12.4350    1.3500   22.9440 C   0  0  0  0  0  0  0  0  0  0  0  0
   13.2130    0.4160   22.6420 C   0  0  0  0  0  0  0  0  0  0  0  0
   12.0820   -0.3230   23.2690 C   0  0  0  0  0  0  0  0  0  0  0  0
   10.9440    0.8080   23.7410 C   0  0  0  0  0  0  0  0  0  0  0  0
    9.7010    0.3910   24.4010 N   0  0  0  0  0  0  0  0  0  0  0  0
    9.7990   -0.9310   24.4640 C   0  0  0  0  0  0  0  0  0  0  0  0
   10.5430    0.1360   24.0010 C   0  0  0  0  0  0  0  0  0  0  0  0
    9.9710    1.4560   24.1790 N   0  0  0  0  0  0  0  0  0  0  0  0
   10.8560    2.2680   23.6560 C   0  0  0  0  0  0  0  0  0  0  0  0
  1  2  1  0
  2  3  2  0
  2  4  1  0
  4  5  1  0
  5  6  1  0
  6  7  1  0
  7  8  2  0
  8  9  1  0
  9 10  2  0
 10 11  1  0
 11 12  1  0
 12 13  2  0
 13 14  1  0
 14 15  2  0
  7 16  1  0
 11 16  2  0
 15 16  1  0
M  END
