ANT-DIA-b7f58f21-1
     RDKit          3D

 13 13  0  0  0  0  0  0  0  0999 V2000
    9.1810   -5.4720   26.2260 C   0  0  0  0  0  0  0  0  0  0  0  0
    7.7090   -4.6040   25.7830 S   0  0  0  0  0  0  0  0  0  0  0  0
    6.6490   -5.5570   25.5510 O   0  0  0  0  0  0  0  0  0  0  0  0
    7.5330   -3.5500   26.7630 O   0  0  0  0  0  0  0  0  0  0  0  0
    7.9100   -3.7300   24.3280 N   0  0  0  0  0  0  0  0  0  0  0  0
    9.1090   -2.9340   24.2310 C   0  0  0  0  0  0  0  0  0  0  0  0
    9.1880   -2.0790   23.1140 C   0  0  0  0  0  0  0  0  0  0  0  0
   10.3920   -1.4050   22.9680 C   0  0  0  0  0  0  0  0  0  0  0  0
   10.7890   -0.1480   23.3820 C   0  0  0  0  0  0  0  0  0  0  0  0
   12.0380    0.5470   23.2520 C   0  0  0  0  0  0  0  0  0  0  0  0
   13.2860    0.0340   22.5940 C   0  0  0  0  0  0  0  0  0  0  0  0
   12.4720   -0.9990   22.4130 N   0  0  0  0  0  0  0  0  0  0  0  0
   11.4830   -1.8950   22.3550 C   0  0  0  0  0  0  0  0  0  0  0  0
  1  2  1  0
  2  3  2  0
  2  4  2  0
  2  5  1  0
  5  6  1  0
  6  7  1  0
  7  8  1  0
  8  9  2  0
  9 10  1  0
 10 11  2  0
 11 12  1  0
  8 13  1  0
 12 13  2  0
M  END
