AUS-ARG-7cfdce8f-6
     RDKit          3D

 21 23  0  0  0  0  0  0  0  0999 V2000
    8.6510    0.0880   22.3370 C   0  0  0  0  0  0  0  0  0  0  0  0
    9.9050   -0.6070   22.7510 C   0  0  0  0  0  0  0  0  0  0  0  0
   10.7320   -1.1280   21.7650 C   0  0  0  0  0  0  0  0  0  0  0  0
   11.9350   -1.7960   21.9890 C   0  0  0  0  0  0  0  0  0  0  0  0
   12.2250   -1.8880   23.4120 C   0  0  0  0  0  0  0  0  0  0  0  0
   13.1480   -2.3680   24.1880 C   0  0  0  0  0  0  0  0  0  0  0  0
   14.0060   -3.4500   24.1470 N   0  0  0  0  0  0  0  0  0  0  0  0
   14.5360   -3.3150   25.3410 N   0  0  0  0  0  0  0  0  0  0  0  0
   14.0710   -2.2750   25.9140 C   0  0  0  0  0  0  0  0  0  0  0  0
   13.0630   -1.4830   25.2050 C   0  0  0  0  0  0  0  0  0  0  0  0
   12.2700   -0.3470   25.3380 C   0  0  0  0  0  0  0  0  0  0  0  0
   12.3820    0.5630   24.1760 N   0  0  0  0  0  0  0  0  0  0  0  0
   11.2940    1.3160   23.7000 C   0  0  0  0  0  0  0  0  0  0  0  0
   11.4780    2.6440   23.3120 C   0  0  0  0  0  0  0  0  0  0  0  0
   12.6640    3.0790   22.7400 C   0  0  0  0  0  0  0  0  0  0  0  0
   12.8250    4.4060   22.3550 C   0  0  0  0  0  0  0  0  0  0  0  0
   11.7700    5.2850   22.5620 C   0  0  0  0  0  0  0  0  0  0  0  0
   10.5950    4.9020   23.1240 N   0  0  0  0  0  0  0  0  0  0  0  0
   10.4770    3.5970   23.4790 C   0  0  0  0  0  0  0  0  0  0  0  0
   11.3620   -1.3540   24.3670 C   0  0  0  0  0  0  0  0  0  0  0  0
   10.2190   -0.7230   24.0650 C   0  0  0  0  0  0  0  0  0  0  0  0
  1  2  1  0
  2  3  2  0
  3  4  1  0
  4  5  2  0
  5  6  1  0
  6  7  2  0
  7  8  1  0
  8  9  1  0
  6 10  1  0
  9 10  2  0
 10 11  1  0
 11 12  1  0
 12 13  1  0
 13 14  1  0
 14 15  2  0
 15 16  1  0
 16 17  2  0
 17 18  1  0
 14 19  1  0
 18 19  2  0
  5 20  1  0
  2 21  1  0
 20 21  2  0
M  END
