AUS-ARG-7cfdce8f-9
     RDKit          3D

 25 28  0  0  0  0  0  0  0  0999 V2000
    8.6000   -1.8780   21.6460 F   0  0  0  0  0  0  0  0  0  0  0  0
    9.4460   -1.5890   22.6080 C   0  0  0  0  0  0  0  0  0  0  0  0
   10.8790   -1.9080   22.5140 C   0  0  0  0  0  0  0  0  0  0  0  0
   11.8190   -1.5560   23.6000 C   0  0  0  0  0  0  0  0  0  0  0  0
   11.1860   -0.8460   24.7880 C   0  0  0  0  0  0  0  0  0  0  0  0
   11.8710   -0.4550   25.6450 O   0  0  0  0  0  0  0  0  0  0  0  0
   12.1090    0.2630   24.5840 C   0  0  0  0  0  0  0  0  0  0  0  0
   11.8330    1.6370   24.3200 N   0  0  0  0  0  0  0  0  0  0  0  0
   12.1730    2.0370   23.0630 C   0  0  0  0  0  0  0  0  0  0  0  0
   11.9230    3.5130   22.8240 C   0  0  0  0  0  0  0  0  0  0  0  0
   12.8450    4.5090   22.2170 C   0  0  0  0  0  0  0  0  0  0  0  0
   12.4070    5.8390   22.1240 C   0  0  0  0  0  0  0  0  0  0  0  0
   11.1250    6.2770   22.5770 C   0  0  0  0  0  0  0  0  0  0  0  0
   10.1990    5.3090   23.1730 N   0  0  0  0  0  0  0  0  0  0  0  0
   10.5760    3.9760   23.2960 C   0  0  0  0  0  0  0  0  0  0  0  0
   12.6840    1.0940   22.1930 N   0  0  0  0  0  0  0  0  0  0  0  0
   12.8580   -0.2020   22.5640 C   0  0  0  0  0  0  0  0  0  0  0  0
   13.3080   -1.1340   21.6550 C   0  0  0  0  0  0  0  0  0  0  0  0
   13.4480   -2.4320   22.0630 C   0  0  0  0  0  0  0  0  0  0  0  0
   13.1790   -2.8390   23.4800 C   0  0  0  0  0  0  0  0  0  0  0  0
   12.7470   -1.8650   24.2580 C   0  0  0  0  0  0  0  0  0  0  0  0
   12.5830   -0.6100   23.7970 C   0  0  0  0  0  0  0  0  0  0  0  0
    9.6980   -0.6120   24.7520 C   0  0  0  0  0  0  0  0  0  0  0  0
    8.6090    0.2170   26.0510 Br  0  0  0  0  0  0  0  0  0  0  0  0
    8.9430   -0.9820   23.7030 C   0  0  0  0  0  0  0  0  0  0  0  0
  1  2  1  0
  2  3  2  0
  3  4  1  0
  4  5  2  0
  5  6  1  0
  6  7  1  0
  7  8  2  0
  8  9  1  0
  9 10  1  0
 10 11  2  0
 11 12  1  0
 12 13  2  0
 13 14  1  0
 10 15  1  0
 14 15  2  0
  9 16  2  0
 16 17  1  0
 17 18  1  0
 18 19  2  0
 19 20  1  0
 20 21  2  0
  7 22  1  0
 17 22  2  0
 21 22  1  0
  5 23  1  0
 23 24  1  0
  2 25  1  0
 23 25  2  0
M  END
