AUS-ARG-7cfdce8f-8
     RDKit          3D

 24 27  0  0  0  0  0  0  0  0999 V2000
    5.5940    4.2990   21.4420 C   0  0  0  0  0  0  0  0  0  0  0  0
    6.1810    3.0390   21.4270 C   0  0  0  0  0  0  0  0  0  0  0  0
    7.4710    2.8750   22.0840 N   0  0  0  0  0  0  0  0  0  0  0  0
    7.8480    1.4760   21.9220 C   0  0  0  0  0  0  0  0  0  0  0  0
    9.1550    1.0830   22.5320 C   0  0  2  0  0  0  0  0  0  0  0  0
    9.6270   -0.2240   22.2080 N   0  0  0  0  0  0  0  0  0  0  0  0
   10.7600   -0.6490   22.7880 C   0  0  0  0  0  0  0  0  0  0  0  0
   11.7260   -1.3980   22.1230 C   0  0  0  0  0  0  0  0  0  0  0  0
   12.9020   -1.8230   22.7190 C   0  0  0  0  0  0  0  0  0  0  0  0
   13.2200   -1.5360   24.0350 C   0  0  0  0  0  0  0  0  0  0  0  0
   12.3030   -0.7930   24.7680 C   0  0  0  0  0  0  0  0  0  0  0  0
   10.9820   -0.3230   24.1140 C   0  0  0  0  0  0  0  0  0  0  0  0
    9.9810    0.4000   24.7340 C   0  0  0  0  0  0  0  0  0  0  0  0
    9.8060    0.2380   25.9300 O   0  0  0  0  0  0  0  0  0  0  0  0
    9.1860    1.2270   24.0010 N   0  0  0  0  0  0  0  0  0  0  0  0
    8.1230    1.7380   24.6660 C   0  0  0  0  0  0  0  0  0  0  0  0
    7.0660    0.8990   25.0460 C   0  0  0  0  0  0  0  0  0  0  0  0
    5.8270    0.9990   24.4110 C   0  0  0  0  0  0  0  0  0  0  0  0
    4.8090    0.1480   24.8160 C   0  0  0  0  0  0  0  0  0  0  0  0
    5.0320   -0.7710   25.8220 C   0  0  0  0  0  0  0  0  0  0  0  0
    6.2110   -0.9060   26.4660 N   0  0  0  0  0  0  0  0  0  0  0  0
    7.2060   -0.0650   26.0630 C   0  0  0  0  0  0  0  0  0  0  0  0
    6.9200    0.7090   21.2100 C   0  0  0  0  0  0  0  0  0  0  0  0
    5.5430    1.6260   20.7010 S   0  0  0  0  0  0  0  0  0  0  0  0
  1  2  1  0
  2  3  2  0
  3  4  1  0
  5  4  1  1
  5  6  1  0
  6  7  1  0
  7  8  2  0
  8  9  1  0
  9 10  2  0
 10 11  1  0
  7 12  1  0
 11 12  2  0
 12 13  1  0
 13 14  2  0
  5 15  1  0
 13 15  1  0
 15 16  1  0
 16 17  1  0
 17 18  2  0
 18 19  1  0
 19 20  2  0
 20 21  1  0
 17 22  1  0
 21 22  2  0
  4 23  2  0
  2 24  1  0
 23 24  1  0
M  END
