AUS-ARG-7cfdce8f-5
     RDKit          3D

 27 31  0  0  0  0  0  0  0  0999 V2000
    9.7440   -1.3200   22.6890 C   0  0  0  0  0  0  0  0  0  0  0  0
   11.0880   -1.3010   23.4580 C   0  0  0  0  0  0  0  0  0  0  0  0
   11.5220   -2.4580   24.1150 C   0  0  0  0  0  0  0  0  0  0  0  0
   12.7540   -2.5130   24.8660 C   0  0  0  0  0  0  0  0  0  0  0  0
   13.2350   -3.5080   25.5210 N   0  0  0  0  0  0  0  0  0  0  0  0
   14.3770   -3.1930   26.1080 C   0  0  0  0  0  0  0  0  0  0  0  0
   14.9060   -1.9760   25.9450 N   0  0  0  0  0  0  0  0  0  0  0  0
   16.3560   -1.3920   26.5360 C   0  0  0  0  0  0  0  0  0  0  0  0
   16.4800   -0.0290   27.7990 N   0  0  0  0  0  0  0  0  0  0  0  0
   18.2530    0.7610   28.1060 C   0  0  0  0  0  0  0  0  0  0  0  0
   18.7630    2.4440   28.9990 C   0  0  0  0  0  0  0  0  0  0  0  0
   18.2140    3.5920   29.8820 C   0  0  0  0  0  0  0  0  0  0  0  0
   18.9580    4.6750   30.4040 C   0  0  0  0  0  0  0  0  0  0  0  0
   20.2570    4.7770   30.0980 C   0  0  0  0  0  0  0  0  0  0  0  0
   20.8200    3.8680   29.3430 N   0  0  0  0  0  0  0  0  0  0  0  0
   20.0270    2.8390   28.9080 C   0  0  0  0  0  0  0  0  0  0  0  0
   19.4050   -0.1090   27.5750 N   0  0  0  0  0  0  0  0  0  0  0  0
   19.3270   -0.9590   26.6460 C   0  0  0  0  0  0  0  0  0  0  0  0
   20.8290   -1.0700   26.3830 C   0  0  0  0  0  0  0  0  0  0  0  0
   21.2930   -1.6850   25.1840 C   0  0  0  0  0  0  0  0  0  0  0  0
   20.3060   -2.0410   24.3850 C   0  0  0  0  0  0  0  0  0  0  0  0
   18.8370   -1.9150   24.8140 C   0  0  0  0  0  0  0  0  0  0  0  0
   18.1220   -1.5090   25.9490 C   0  0  0  0  0  0  0  0  0  0  0  0
   13.6530   -1.4850   25.0300 C   0  0  0  0  0  0  0  0  0  0  0  0
   13.0680   -0.2530   24.2360 C   0  0  0  0  0  0  0  0  0  0  0  0
   11.8900   -0.2110   23.5400 C   0  0  0  0  0  0  0  0  0  0  0  0
   11.5430    1.1050   22.8710 C   0  0  0  0  0  0  0  0  0  0  0  0
  1  2  1  0
  2  3  2  0
  3  4  1  0
  4  5  1  0
  5  6  2  0
  6  7  1  0
  7  8  1  0
  8  9  2  0
  9 10  1  0
 10 11  1  0
 11 12  2  0
 12 13  1  0
 13 14  2  0
 14 15  1  0
 11 16  1  0
 15 16  2  0
 10 17  2  0
 17 18  1  0
 18 19  1  0
 19 20  2  0
 20 21  1  0
 21 22  2  0
  8 23  1  0
 18 23  2  0
 22 23  1  0
  4 24  2  0
  7 24  1  0
 24 25  1  0
  2 26  1  0
 25 26  2  0
 26 27  1  0
M  END
