AUS-ARG-7cfdce8f-7
     RDKit          3D

 25 28  0  0  0  0  0  0  0  0999 V2000
   10.2120   -2.4670   22.4080 C   0  0  0  0  0  0  0  0  0  0  0  0
   11.4970   -1.6790   22.5230 C   0  0  0  0  0  0  0  0  0  0  0  0
   12.3680   -1.6670   21.4960 C   0  0  0  0  0  0  0  0  0  0  0  0
   13.5010   -0.8470   21.5180 C   0  0  0  0  0  0  0  0  0  0  0  0
   13.8490    0.0360   22.5700 C   0  0  0  0  0  0  0  0  0  0  0  0
   15.0330    1.1080   22.4580 O   0  0  0  0  0  0  0  0  0  0  0  0
   15.0640    2.4830   21.7660 C   0  0  0  0  0  0  0  0  0  0  0  0
   14.6340    3.8390   22.5610 N   0  0  0  0  0  0  0  0  0  0  0  0
   14.2100    5.1330   22.0320 C   0  0  0  0  0  0  0  0  0  0  0  0
   13.4960    6.2260   22.9400 C   0  0  0  0  0  0  0  0  0  0  0  0
   12.6880    6.1140   24.2440 C   0  0  0  0  0  0  0  0  0  0  0  0
   12.1260    7.1030   24.9680 C   0  0  0  0  0  0  0  0  0  0  0  0
   12.2740    8.3250   24.5570 C   0  0  0  0  0  0  0  0  0  0  0  0
   12.9440    8.5260   23.4550 N   0  0  0  0  0  0  0  0  0  0  0  0
   13.4740    7.5220   22.7070 C   0  0  0  0  0  0  0  0  0  0  0  0
   14.6130    5.0010   20.5740 N   0  0  0  0  0  0  0  0  0  0  0  0
   14.9860    3.8280   19.8450 C   0  0  0  0  0  0  0  0  0  0  0  0
   15.2830    3.6220   18.3470 C   0  0  0  0  0  0  0  0  0  0  0  0
   15.3820    2.3060   17.8510 C   0  0  0  0  0  0  0  0  0  0  0  0
   15.2220    1.3480   18.5750 C   0  0  0  0  0  0  0  0  0  0  0  0
   15.1310    1.5550   19.8080 C   0  0  0  0  0  0  0  0  0  0  0  0
   15.0850    2.6280   20.4090 C   0  0  0  0  0  0  0  0  0  0  0  0
   12.9620   -0.0770   23.6830 C   0  0  0  0  0  0  0  0  0  0  0  0
   11.7350   -0.9900   23.6080 C   0  0  0  0  0  0  0  0  0  0  0  0
   10.7810   -1.1960   24.5200 C   0  0  0  0  0  0  0  0  0  0  0  0
  1  2  1  0
  2  3  2  0
  3  4  1  0
  4  5  2  0
  5  6  1  0
  6  7  1  0
  7  8  2  0
  8  9  1  0
  9 10  1  0
 10 11  2  0
 11 12  1  0
 12 13  2  0
 13 14  1  0
 10 15  1  0
 14 15  2  0
  9 16  2  0
 16 17  1  0
 17 18  1  0
 18 19  2  0
 19 20  1  0
 20 21  2  0
  7 22  1  0
 17 22  2  0
 21 22  1  0
  5 23  1  0
  2 24  1  0
 23 24  2  0
 24 25  1  0
M  END
