AUS-ARG-7cfdce8f-13
     RDKit          3D

 24 26  0  0  0  0  0  0  0  0999 V2000
    9.1940    3.2030   24.3800 O   0  0  0  0  0  0  0  0  0  0  0  0
    9.9210    3.1930   23.3800 C   0  0  0  0  0  0  0  0  0  0  0  0
    9.8730    2.1420   22.3780 N   0  0  0  0  0  0  0  0  0  0  0  0
    8.7170    1.5700   21.8900 C   0  0  0  0  0  0  0  0  0  0  0  0
    8.8640    0.0950   21.8360 C   0  0  0  0  0  0  0  0  0  0  0  0
    9.2330   -0.5750   23.1870 C   0  0  0  0  0  0  0  0  0  0  0  0
   10.5360   -1.0150   23.2680 C   0  0  0  0  0  0  0  0  0  0  0  0
   11.2730   -1.2640   22.1120 C   0  0  0  0  0  0  0  0  0  0  0  0
   12.6060   -1.7100   22.0630 C   0  0  0  0  0  0  0  0  0  0  0  0
   13.2720   -1.9300   23.4130 C   0  0  0  0  0  0  0  0  0  0  0  0
   12.5190   -1.6800   24.6750 C   0  0  0  0  0  0  0  0  0  0  0  0
   11.1090   -1.2160   24.5110 C   0  0  0  0  0  0  0  0  0  0  0  0
    8.3390   -1.7820   23.5310 C   0  0  0  0  0  0  0  0  0  0  0  0
    7.4180   -1.7820   24.5890 C   0  0  0  0  0  0  0  0  0  0  0  0
    6.6090   -2.8840   24.8970 C   0  0  0  0  0  0  0  0  0  0  0  0
    6.7000   -4.0500   24.1370 C   0  0  0  0  0  0  0  0  0  0  0  0
    7.6830   -4.0470   23.0120 C   0  0  0  0  0  0  0  0  0  0  0  0
    8.4680   -2.9300   22.7400 C   0  0  0  0  0  0  0  0  0  0  0  0
   10.9180    4.2960   23.1880 C   0  0  0  0  0  0  0  0  0  0  0  0
   11.9110    4.3220   22.0130 C   0  0  0  0  0  0  0  0  0  0  0  0
   12.8020    5.3330   21.8600 N   0  0  0  0  0  0  0  0  0  0  0  0
   12.7280    6.3700   22.9040 C   0  0  0  0  0  0  0  0  0  0  0  0
   11.8010    6.2740   23.9370 C   0  0  0  0  0  0  0  0  0  0  0  0
   10.8930    5.2820   24.1210 N   0  0  0  0  0  0  0  0  0  0  0  0
  1  2  2  0
  2  3  1  0
  3  4  1  0
  4  5  1  0
  5  6  1  0
  6  7  1  0
  7  8  2  0
  8  9  1  0
  9 10  2  0
 10 11  1  0
  7 12  1  0
 11 12  2  0
  6 13  1  0
 13 14  2  0
 14 15  1  0
 15 16  2  0
 16 17  1  0
 13 18  1  0
 17 18  2  0
  2 19  1  0
 19 20  2  0
 20 21  1  0
 21 22  2  0
 22 23  1  0
 19 24  1  0
 23 24  2  0
M  END
