AVI-UNI-cf069e49-1
     RDKit          3D

 27 31  0  0  0  0  0  0  0  0999 V2000
   13.2100   -1.3320   23.7000 C   0  0  0  0  0  0  0  0  0  0  0  0
   11.9030   -0.9500   23.4350 N   0  0  0  0  0  0  0  0  0  0  0  0
   10.9290   -1.5050   24.4010 C   0  0  0  0  0  0  0  0  0  0  0  0
   10.1280   -0.5840   25.1480 C   0  0  0  0  0  0  0  0  0  0  0  0
    9.9860    0.6930   24.4710 N   0  0  0  0  0  0  0  0  0  0  0  0
   10.5180    0.8080   23.2010 C   0  0  0  0  0  0  0  0  0  0  0  0
    9.7310    1.3120   22.0990 C   0  0  0  0  0  0  0  0  0  0  0  0
    8.7420    1.2310   23.1310 C   0  0  0  0  0  0  0  0  0  0  0  0
    7.9870    0.5950   21.9370 C   0  0  0  0  0  0  0  0  0  0  0  0
    7.0940    1.3240   21.0540 C   0  0  0  0  0  0  0  0  0  0  0  0
    6.6080    0.3820   20.0880 C   0  0  0  0  0  0  0  0  0  0  0  0
    5.7340    0.6230   19.0780 O   0  0  0  0  0  0  0  0  0  0  0  0
    7.2380   -0.7820   20.4660 C   0  0  0  0  0  0  0  0  0  0  0  0
    8.0220   -0.7440   21.5070 O   0  0  0  0  0  0  0  0  0  0  0  0
    9.7510    1.8960   23.7760 C   0  0  0  0  0  0  0  0  0  0  0  0
   10.9770    2.4940   23.3760 C   0  0  0  0  0  0  0  0  0  0  0  0
   12.1590    1.8250   23.1140 C   0  0  0  0  0  0  0  0  0  0  0  0
   13.1840    2.7110   22.7380 O   0  0  0  0  0  0  0  0  0  0  0  0
   12.6300    3.9490   22.7710 C   0  0  0  0  0  0  0  0  0  0  0  0
   13.3420    5.0490   22.4680 N   0  0  0  0  0  0  0  0  0  0  0  0
   12.6920    6.2310   22.5400 C   0  0  0  0  0  0  0  0  0  0  0  0
   11.3360    6.3280   22.9050 C   0  0  0  0  0  0  0  0  0  0  0  0
   10.5850    5.1910   23.2200 C   0  0  0  0  0  0  0  0  0  0  0  0
   11.2870    3.8710   23.1540 C   0  0  0  0  0  0  0  0  0  0  0  0
    9.4310    1.8660   25.0480 C   0  0  0  0  0  0  0  0  0  0  0  0
    9.0030    3.0190   24.9520 O   0  0  0  0  0  0  0  0  0  0  0  0
   11.8390    0.3970   23.1260 C   0  0  0  0  0  0  0  0  0  0  0  0
  1  2  1  0
  2  3  1  0
  3  4  1  0
  4  5  1  0
  5  6  1  0
  6  7  2  0
  7  8  1  0
  8  9  1  0
  9 10  2  0
 10 11  1  0
 11 12  2  0
 11 13  1  0
  9 14  1  0
 13 14  1  0
  8 15  2  0
 15 16  1  0
 16 17  2  0
 17 18  1  0
 18 19  1  0
 19 20  1  0
 20 21  2  0
 21 22  1  0
 22 23  2  0
 16 24  1  0
 19 24  2  0
 23 24  1  0
  5 25  1  0
 15 25  1  0
 25 26  2  0
  2 27  1  0
  6 27  1  0
M  END
