BAR-COM-4e090d3a-57
     RDKit          3D

 28 30  0  0  0  0  0  0  0  0999 V2000
    8.6050    1.3170   20.9820 O   0  0  0  0  0  0  0  0  0  0  0  0
    8.1430    0.3600   21.6130 C   0  0  0  0  0  0  0  0  0  0  0  0
    8.7160   -0.1440   22.7650 N   0  0  0  0  0  0  0  0  0  0  0  0
   10.0880   -0.1950   22.9580 C   0  0  0  0  0  0  0  0  0  0  0  0
   10.6950    0.9860   23.3550 C   0  0  0  0  0  0  0  0  0  0  0  0
   12.0640    1.0750   23.5570 C   0  0  0  0  0  0  0  0  0  0  0  0
   12.8790   -0.0200   23.3700 C   0  0  0  0  0  0  0  0  0  0  0  0
   12.2830   -1.3480   22.9450 C   0  0  0  0  0  0  0  0  0  0  0  0
   10.7840   -1.3490   22.7530 C   0  0  0  0  0  0  0  0  0  0  0  0
   10.0760   -2.5760   22.3460 N   0  0  0  0  0  0  0  0  0  0  0  0
    9.2600   -3.5860   23.5070 S   0  0  0  0  0  0  0  0  0  0  0  0
    8.5840   -4.5750   22.6920 O   0  0  0  0  0  0  0  0  0  0  0  0
   10.2420   -3.9520   24.5040 O   0  0  0  0  0  0  0  0  0  0  0  0
    7.9150   -2.7550   24.3170 C   0  0  0  0  0  0  0  0  0  0  0  0
    7.1180   -1.8050   23.6780 C   0  0  0  0  0  0  0  0  0  0  0  0
    6.0570   -1.1700   24.3300 C   0  0  0  0  0  0  0  0  0  0  0  0
    5.7420   -1.4620   25.6580 C   0  0  0  0  0  0  0  0  0  0  0  0
    4.7200   -0.8390   26.2590 F   0  0  0  0  0  0  0  0  0  0  0  0
    6.4940   -2.4080   26.3690 C   0  0  0  0  0  0  0  0  0  0  0  0
    7.6420   -3.0870   25.6540 C   0  0  0  0  0  0  0  0  0  0  0  0
    6.8430   -0.3560   21.1610 C   0  0  2  0  0  0  0  0  0  0  0  0
    7.1050   -1.6870   20.7140 O   0  0  0  0  0  0  0  0  0  0  0  0
    6.2200    0.2780   20.0900 C   0  0  0  0  0  0  0  0  0  0  0  0
    4.9150    1.0440   20.4160 C   0  0  0  0  0  0  0  0  0  0  0  0
    4.5160    1.6160   19.0180 C   0  0  0  0  0  0  0  0  0  0  0  0
    5.2410    1.4120   17.8540 C   0  0  0  0  0  0  0  0  0  0  0  0
    6.3680    0.7100   17.7340 N   0  0  0  0  0  0  0  0  0  0  0  0
    6.8390    0.1540   18.8440 C   0  0  0  0  0  0  0  0  0  0  0  0
  1  2  2  0
  2  3  1  0
  3  4  1  0
  4  5  2  0
  5  6  1  0
  6  7  2  0
  7  8  1  0
  4  9  1  0
  8  9  2  0
  9 10  1  0
 11 10  1  0
 11 12  2  0
 11 13  2  0
 11 14  1  0
 14 15  2  0
 15 16  1  0
 16 17  2  0
 17 18  1  0
 17 19  1  0
 14 20  1  0
 19 20  2  0
  2 21  1  0
 21 22  1  6
 21 23  1  0
 23 24  2  0
 24 25  1  0
 25 26  2  0
 26 27  1  0
 23 28  1  0
 27 28  2  0
M  END
