BAR-COM-4e090d3a-26
     RDKit          3D

 24 26  0  0  0  0  0  0  0  0999 V2000
    5.8940   -0.1710   23.7330 C   0  0  0  0  0  0  0  0  0  0  0  0
    5.9680    0.4200   22.5240 C   0  0  1  0  0  0  0  0  0  0  0  0
    7.2560    1.0840   22.3340 N   0  0  0  0  0  0  0  0  0  0  0  0
    8.1380    1.3520   23.3690 C   0  0  0  0  0  0  0  0  0  0  0  0
    7.9220    1.9440   24.4210 O   0  0  0  0  0  0  0  0  0  0  0  0
    9.6310    0.8890   23.2580 C   0  0  0  0  0  0  0  0  0  0  0  0
   10.5990    1.4210   24.0360 C   0  0  0  0  0  0  0  0  0  0  0  0
   11.9370    1.0390   23.9680 C   0  0  0  0  0  0  0  0  0  0  0  0
   12.5100    0.1040   23.1560 C   0  0  0  0  0  0  0  0  0  0  0  0
   11.5220   -0.5550   22.2520 C   0  0  0  0  0  0  0  0  0  0  0  0
   10.0360   -0.1730   22.2690 C   0  0  0  0  0  0  0  0  0  0  0  0
    9.1060   -0.7340   21.4750 O   0  0  0  0  0  0  0  0  0  0  0  0
    9.4320   -2.0670   21.6540 C   0  0  0  0  0  0  0  0  0  0  0  0
   10.8150   -1.8740   21.8700 C   0  0  0  0  0  0  0  0  0  0  0  0
   11.4500   -2.1060   23.1000 C   0  0  0  0  0  0  0  0  0  0  0  0
   10.6370   -2.7090   24.0380 C   0  0  0  0  0  0  0  0  0  0  0  0
    9.2610   -2.4420   24.0200 C   0  0  0  0  0  0  0  0  0  0  0  0
    8.6450   -2.5410   22.6850 C   0  0  0  0  0  0  0  0  0  0  0  0
    5.7450   -0.5770   21.3910 C   0  0  0  0  0  0  0  0  0  0  0  0
    5.6310   -1.9530   21.6760 C   0  0  0  0  0  0  0  0  0  0  0  0
    5.4410   -2.9330   20.7450 N   0  0  0  0  0  0  0  0  0  0  0  0
    5.3700   -2.3450   19.4100 C   0  0  0  0  0  0  0  0  0  0  0  0
    5.4760   -0.9920   19.1210 C   0  0  0  0  0  0  0  0  0  0  0  0
    5.6660   -0.0750   20.1230 N   0  0  0  0  0  0  0  0  0  0  0  0
  2  1  1  1
  2  3  1  0
  3  4  1  0
  4  5  2  0
  4  6  1  0
  6  7  2  0
  7  8  1  0
  8  9  2  0
  9 10  1  0
  6 11  1  0
 10 11  2  0
 11 12  1  0
 12 13  1  0
 13 14  1  0
 14 15  1  0
 15 16  1  0
 16 17  1  0
 13 18  1  0
 17 18  1  0
  2 19  1  0
 19 20  2  0
 20 21  1  0
 21 22  2  0
 22 23  1  0
 19 24  1  0
 23 24  2  0
M  END
