BAR-COM-4e090d3a-22
     RDKit          3D

 22 24  0  0  0  0  0  0  0  0999 V2000
    7.1290   -0.5580   19.3250 C   0  0  0  0  0  0  0  0  0  0  0  0
    7.1990   -1.5220   20.3670 O   0  0  0  0  0  0  0  0  0  0  0  0
    7.9880   -1.1640   21.5020 C   0  0  0  0  0  0  0  0  0  0  0  0
    7.4790   -0.7260   22.8020 C   0  0  0  0  0  0  0  0  0  0  0  0
    8.4170   -0.3710   23.9460 C   0  0  0  0  0  0  0  0  0  0  0  0
    7.9660    0.0440   25.1850 C   0  0  0  0  0  0  0  0  0  0  0  0
    6.6830   -0.3240   25.5500 N   0  0  0  0  0  0  0  0  0  0  0  0
    5.9990   -1.6210   25.5240 C   0  0  0  0  0  0  0  0  0  0  0  0
    6.2470   -2.5160   26.3280 O   0  0  0  0  0  0  0  0  0  0  0  0
    5.0550   -1.6810   24.4890 C   0  0  0  0  0  0  0  0  0  0  0  0
    3.7380   -2.1770   25.1090 C   0  0  0  0  0  0  0  0  0  0  0  0
    2.9480   -1.4100   25.9880 N   0  0  0  0  0  0  0  0  0  0  0  0
    1.9020   -2.2540   26.2600 C   0  0  0  0  0  0  0  0  0  0  0  0
    2.0800   -3.5230   25.5360 C   0  0  0  0  0  0  0  0  0  0  0  0
    3.2220   -3.4500   24.8340 N   0  0  0  0  0  0  0  0  0  0  0  0
    9.9210   -0.4730   23.7200 C   0  0  0  0  0  0  0  0  0  0  0  0
   10.7870   -0.1510   24.7390 C   0  0  0  0  0  0  0  0  0  0  0  0
   12.1610   -0.2220   24.5940 C   0  0  0  0  0  0  0  0  0  0  0  0
   12.7040   -0.6300   23.4000 C   0  0  0  0  0  0  0  0  0  0  0  0
   11.7810   -0.9920   22.2900 C   0  0  0  0  0  0  0  0  0  0  0  0
   10.3840   -0.8990   22.4710 C   0  0  0  0  0  0  0  0  0  0  0  0
    9.5200   -1.2170   21.4560 N   0  0  0  0  0  0  0  0  0  0  0  0
  1  2  1  0
  2  3  1  0
  3  4  2  0
  4  5  1  0
  5  6  1  0
  6  7  1  0
  7  8  1  0
  8  9  2  0
  8 10  1  0
 10 11  1  0
 11 12  2  0
 12 13  1  0
 13 14  2  0
 11 15  1  0
 14 15  1  0
  5 16  2  0
 16 17  1  0
 17 18  2  0
 18 19  1  0
 19 20  2  0
 16 21  1  0
 20 21  1  0
  3 22  1  0
 21 22  2  0
M  END
