BAR-COM-4e090d3a-53
     RDKit          3D

 23 25  0  0  0  0  0  0  0  0999 V2000
    6.3740   -0.6850   19.3490 C   0  0  0  0  0  0  0  0  0  0  0  0
    6.4600   -0.3000   20.8160 C   0  0  2  0  0  0  0  0  0  0  0  0
    7.7700    0.0520   21.1460 C   0  0  0  0  0  0  0  0  0  0  0  0
    8.2570    1.1420   20.8610 O   0  0  0  0  0  0  0  0  0  0  0  0
    8.3690   -0.9800   21.8270 N   0  0  0  0  0  0  0  0  0  0  0  0
    9.4840   -0.9380   22.6480 C   0  0  0  0  0  0  0  0  0  0  0  0
    9.3350   -0.3380   23.9070 C   0  0  0  0  0  0  0  0  0  0  0  0
   10.3800   -0.2570   24.8120 C   0  0  0  0  0  0  0  0  0  0  0  0
   11.5750   -0.7900   24.4130 C   0  0  0  0  0  0  0  0  0  0  0  0
   11.7000   -1.3760   23.1590 C   0  0  0  0  0  0  0  0  0  0  0  0
   12.8490   -1.8480   22.8120 O   0  0  0  0  0  0  0  0  0  0  0  0
   13.4700   -0.7580   23.3640 C   0  0  1  0  0  0  0  0  0  0  0  0
   13.5440    0.4050   22.5610 C   0  0  0  0  0  0  0  0  0  0  0  0
   12.6020    1.1990   23.1150 C   0  0  0  0  0  0  0  0  0  0  0  0
   12.0750    2.2760   22.9820 O   0  0  0  0  0  0  0  0  0  0  0  0
   12.4790    0.1610   24.0170 N   0  0  0  0  0  0  0  0  0  0  0  0
   10.6880   -1.4630   22.2710 C   0  0  0  0  0  0  0  0  0  0  0  0
    5.8990   -1.2920   21.6430 C   0  0  0  0  0  0  0  0  0  0  0  0
    5.5650   -1.0560   22.9720 C   0  0  0  0  0  0  0  0  0  0  0  0
    5.0330   -2.0020   23.7850 N   0  0  0  0  0  0  0  0  0  0  0  0
    4.8470   -3.2090   23.2190 C   0  0  0  0  0  0  0  0  0  0  0  0
    5.1730   -3.4610   21.9020 C   0  0  0  0  0  0  0  0  0  0  0  0
    5.6970   -2.5160   21.0910 N   0  0  0  0  0  0  0  0  0  0  0  0
  2  1  1  6
  2  3  1  0
  3  4  2  0
  3  5  1  0
  5  6  1  0
  6  7  2  0
  7  8  1  0
  8  9  2  0
  9 10  1  0
 10 11  1  0
 12 11  1  6
 12 13  1  0
 13 14  1  0
 14 15  2  0
 12 16  1  0
 14 16  1  0
  6 17  1  0
 10 17  2  0
  2 18  1  0
 18 19  2  0
 19 20  1  0
 20 21  2  0
 21 22  1  0
 18 23  1  0
 22 23  2  0
M  END
