BAR-COM-4e090d3a-5
     RDKit          3D

 26 28  0  0  0  0  0  0  0  0999 V2000
    4.3140    1.5950   22.4440 N   0  0  0  0  0  0  0  0  0  0  0  0
    4.4410    1.7510   20.9840 C   0  0  0  0  0  0  0  0  0  0  0  0
    3.7960    2.7750   20.3090 N   0  0  0  0  0  0  0  0  0  0  0  0
    3.9370    2.9310   18.8470 C   0  0  0  0  0  0  0  0  0  0  0  0
    4.6820    2.1280   18.0620 N   0  0  0  0  0  0  0  0  0  0  0  0
    5.1480    1.2770   18.9310 C   0  0  0  0  0  0  0  0  0  0  0  0
    5.2140    0.8730   20.2260 C   0  0  0  0  0  0  0  0  0  0  0  0
    5.9510   -0.2260   20.6040 C   0  0  0  0  0  0  0  0  0  0  0  0
    6.8540    0.1240   21.6750 N   0  0  0  0  0  0  0  0  0  0  0  0
    8.1840   -0.4490   21.5700 C   0  0  0  0  0  0  0  0  0  0  0  0
    8.5610   -0.8650   20.5190 O   0  0  0  0  0  0  0  0  0  0  0  0
    8.9100   -0.4560   22.7240 N   0  0  0  0  0  0  0  0  0  0  0  0
   10.2810   -0.1970   22.8030 C   0  0  0  0  0  0  0  0  0  0  0  0
   10.7660    1.0910   22.8940 C   0  0  0  0  0  0  0  0  0  0  0  0
   12.1280    1.3430   22.9630 C   0  0  0  0  0  0  0  0  0  0  0  0
   13.0380    0.3130   22.9420 C   0  0  0  0  0  0  0  0  0  0  0  0
   12.5710   -0.9950   22.8530 C   0  0  0  0  0  0  0  0  0  0  0  0
   11.1910   -1.2780   22.7830 C   0  0  0  0  0  0  0  0  0  0  0  0
   10.7470   -2.4310   22.7060 O   0  0  0  0  0  0  0  0  0  0  0  0
    9.6830   -2.7410   23.6400 C   0  0  0  0  0  0  0  0  0  0  0  0
    8.3130   -2.8300   22.9280 C   0  0  0  0  0  0  0  0  0  0  0  0
    7.3950   -3.8530   23.4140 N   0  0  0  0  0  0  0  0  0  0  0  0
    6.6850   -3.7540   24.5710 C   0  0  0  0  0  0  0  0  0  0  0  0
    5.8810   -5.0450   24.6300 C   0  0  0  0  0  0  0  0  0  0  0  0
    6.1690   -5.7810   23.5260 N   0  0  0  0  0  0  0  0  0  0  0  0
    7.0570   -5.0690   22.8310 C   0  0  0  0  0  0  0  0  0  0  0  0
  1  2  1  0
  2  3  2  0
  3  4  1  0
  4  5  2  0
  5  6  1  0
  2  7  1  0
  6  7  2  0
  7  8  1  0
  8  9  1  0
  9 10  1  0
 10 11  2  0
 10 12  1  0
 12 13  1  0
 13 14  2  0
 14 15  1  0
 15 16  2  0
 16 17  1  0
 13 18  1  0
 17 18  2  0
 18 19  1  0
 19 20  1  0
 20 21  1  0
 21 22  1  0
 22 23  1  0
 23 24  2  0
 24 25  1  0
 22 26  1  0
 25 26  2  0
M  END
