BAR-COM-21d20d65-2
     RDKit          3D

 24 26  0  0  0  0  0  0  0  0999 V2000
   15.2860    1.0150   19.1680 C   0  0  0  0  0  0  0  0  0  0  0  0
   14.8420    1.8910   19.8920 C   0  0  2  0  0  0  0  0  0  0  0  0
   14.2560    1.4290   21.3510 C   0  0  0  0  0  0  0  0  0  0  0  0
   13.5380   -0.0630   21.6620 C   0  0  0  0  0  0  0  0  0  0  0  0
   12.4420   -0.3220   22.5420 C   0  0  0  0  0  0  0  0  0  0  0  0
   12.7240   -0.1040   23.8410 C   0  0  0  0  0  0  0  0  0  0  0  0
   11.8260   -0.2850   24.8760 C   0  0  0  0  0  0  0  0  0  0  0  0
   10.3990   -0.7340   24.5770 C   0  0  0  0  0  0  0  0  0  0  0  0
   10.1120   -0.9810   23.1270 C   0  0  0  0  0  0  0  0  0  0  0  0
    8.8840   -1.3900   22.5480 N   0  0  0  0  0  0  0  0  0  0  0  0
    8.2340   -0.5700   21.6170 C   0  0  0  0  0  0  0  0  0  0  0  0
    8.6440    0.5050   21.2900 O   0  0  0  0  0  0  0  0  0  0  0  0
    7.0530   -1.0380   21.0760 N   0  0  0  0  0  0  0  0  0  0  0  0
    6.3530   -0.2600   20.1120 C   0  0  0  0  0  0  0  0  0  0  0  0
    5.1550    0.4310   20.3290 C   0  0  0  0  0  0  0  0  0  0  0  0
    4.5780    1.1720   19.2920 C   0  0  0  0  0  0  0  0  0  0  0  0
    5.2160    1.2080   18.0530 C   0  0  0  0  0  0  0  0  0  0  0  0
    6.3640    0.5540   17.8170 N   0  0  0  0  0  0  0  0  0  0  0  0
    6.8970   -0.1570   18.8380 C   0  0  0  0  0  0  0  0  0  0  0  0
   11.1220   -0.7910   22.2240 C   0  0  0  0  0  0  0  0  0  0  0  0
   14.1470    2.6440   18.7220 N   0  0  0  0  0  0  0  0  0  0  0  0
   15.3540    3.0230   18.2400 C   0  0  0  0  0  0  0  0  0  0  0  0
   15.6010    3.2320   19.6930 C   0  0  2  0  0  0  0  0  0  0  0  0
   16.9820    3.2430   19.9030 O   0  0  0  0  0  0  0  0  0  0  0  0
  2  1  1  6
  2  3  1  0
  3  4  1  0
  4  5  1  0
  5  6  2  0
  6  7  1  0
  7  8  2  0
  8  9  1  0
  9 10  1  0
 10 11  1  0
 11 12  2  0
 11 13  1  0
 13 14  1  0
 14 15  2  0
 15 16  1  0
 16 17  2  0
 17 18  1  0
 14 19  1  0
 18 19  2  0
  5 20  1  0
  9 20  2  0
  2 21  1  0
 21 22  1  0
  2 23  1  0
 22 23  1  0
 23 24  1  6
M  END
