BAR-COM-4e090d3a-29
     RDKit          3D

 24 26  0  0  0  0  0  0  0  0999 V2000
    6.5960   -0.4900   18.8290 O   0  0  0  0  0  0  0  0  0  0  0  0
    6.6440   -0.1080   19.9790 C   0  0  0  0  0  0  0  0  0  0  0  0
    6.1110    1.0490   20.4500 N   0  0  0  0  0  0  0  0  0  0  0  0
    5.1880    1.5240   19.5660 C   0  0  0  0  0  0  0  0  0  0  0  0
    4.2160    2.2630   20.2880 C   0  0  0  0  0  0  0  0  0  0  0  0
    2.7810    1.8900   20.2680 C   0  0  0  0  0  0  0  0  0  0  0  0
    1.7620    2.6650   21.0250 C   0  0  0  0  0  0  0  0  0  0  0  0
    2.2810    3.7430   21.7290 C   0  0  0  0  0  0  0  0  0  0  0  0
    3.6620    4.0970   21.7460 N   0  0  0  0  0  0  0  0  0  0  0  0
    4.5910    3.3640   21.0370 N   0  0  0  0  0  0  0  0  0  0  0  0
    7.2480   -0.8010   21.0080 N   0  0  0  0  0  0  0  0  0  0  0  0
    8.2700   -0.2280   21.8720 C   0  0  2  0  0  0  0  0  0  0  0  0
    9.1370   -1.2000   22.3680 C   0  0  0  0  0  0  0  0  0  0  0  0
   10.4180   -0.6750   22.5210 C   0  0  0  0  0  0  0  0  0  0  0  0
   10.6360    0.8120   22.8470 C   0  0  0  0  0  0  0  0  0  0  0  0
   11.9140    1.3090   22.9860 C   0  0  0  0  0  0  0  0  0  0  0  0
   13.0040    0.4580   22.8380 C   0  0  0  0  0  0  0  0  0  0  0  0
   12.8350   -0.8960   22.5440 C   0  0  0  0  0  0  0  0  0  0  0  0
   11.5620   -1.4550   22.3850 C   0  0  0  0  0  0  0  0  0  0  0  0
    7.5260    0.4550   23.0020 C   0  0  0  0  0  0  0  0  0  0  0  0
    7.5080    1.8030   23.3380 C   0  0  0  0  0  0  0  0  0  0  0  0
    6.7240    2.0940   24.4260 C   0  0  0  0  0  0  0  0  0  0  0  0
    6.0750    0.9990   25.0170 C   0  0  0  0  0  0  0  0  0  0  0  0
    6.5100   -0.4150   24.1240 S   0  0  0  0  0  0  0  0  0  0  0  0
  1  2  2  0
  2  3  1  0
  3  4  1  0
  4  5  1  0
  5  6  2  0
  6  7  1  0
  7  8  2  0
  8  9  1  0
  5 10  1  0
  9 10  2  0
  2 11  1  0
 11 12  1  0
 12 13  1  1
 13 14  1  0
 14 15  2  0
 15 16  1  0
 16 17  2  0
 17 18  1  0
 14 19  1  0
 18 19  2  0
 12 20  1  0
 20 21  2  0
 21 22  1  0
 22 23  2  0
 20 24  1  0
 23 24  1  0
M  END
