BAR-COM-4e090d3a-24
     RDKit          3D

 26 28  0  0  0  0  0  0  0  0999 V2000
   13.5760   -1.9620   25.4960 C   0  0  0  0  0  0  0  0  0  0  0  0
   12.9750   -1.6050   24.2540 N   0  0  0  0  0  0  0  0  0  0  0  0
   11.5480   -1.1800   24.4240 C   0  0  0  0  0  0  0  0  0  0  0  0
   10.3570   -1.7820   23.6930 C   0  0  0  0  0  0  0  0  0  0  0  0
   10.9160   -2.8100   22.9440 N   0  0  0  0  0  0  0  0  0  0  0  0
   11.6000   -2.1640   21.9580 C   0  0  0  0  0  0  0  0  0  0  0  0
   12.1400   -2.6120   20.9490 O   0  0  0  0  0  0  0  0  0  0  0  0
   11.6190   -0.8510   22.2930 C   0  0  0  0  0  0  0  0  0  0  0  0
   12.9300   -0.1030   22.4730 C   0  0  0  0  0  0  0  0  0  0  0  0
   12.8140    1.3480   22.8630 C   0  0  0  0  0  0  0  0  0  0  0  0
   11.4530    1.9070   23.0340 C   0  0  0  0  0  0  0  0  0  0  0  0
   10.2840    1.1880   22.8650 C   0  0  0  0  0  0  0  0  0  0  0  0
   10.3230   -0.1480   22.5060 C   0  0  0  0  0  0  0  0  0  0  0  0
    9.0890   -0.7400   22.3790 N   0  0  0  0  0  0  0  0  0  0  0  0
    8.2820   -0.0640   21.5300 C   0  0  0  0  0  0  0  0  0  0  0  0
    8.5250    1.0390   21.0500 O   0  0  0  0  0  0  0  0  0  0  0  0
    6.9740   -0.6990   21.1460 C   0  0  1  0  0  0  0  0  0  0  0  0
    6.1170   -0.5010   22.2620 O   0  0  0  0  0  0  0  0  0  0  0  0
    6.3520    0.0050   20.1250 C   0  0  0  0  0  0  0  0  0  0  0  0
    5.2050    0.7140   20.3290 C   0  0  0  0  0  0  0  0  0  0  0  0
    4.5780    1.4720   19.1960 C   0  0  0  0  0  0  0  0  0  0  0  0
    5.1540    1.4720   17.9020 C   0  0  0  0  0  0  0  0  0  0  0  0
    6.4150    0.6880   17.6660 N   0  0  0  0  0  0  0  0  0  0  0  0
    6.8790    0.0120   18.8790 C   0  0  0  0  0  0  0  0  0  0  0  0
   11.6780   -3.2350   24.0600 C   0  0  0  0  0  0  0  0  0  0  0  0
   12.9450   -2.9070   23.7570 C   0  0  0  0  0  0  0  0  0  0  0  0
  1  2  1  0
  2  3  1  0
  3  4  1  0
  4  5  1  0
  5  6  1  0
  6  7  2  0
  6  8  1  0
  8  9  2  0
  9 10  1  0
 10 11  2  0
 11 12  1  0
  8 13  1  0
 12 13  2  0
 13 14  1  0
 14 15  1  0
 15 16  2  0
 15 17  1  0
 17 18  1  1
 17 19  1  0
 19 20  2  0
 20 21  1  0
 21 22  2  0
 22 23  1  0
 19 24  1  0
 23 24  2  0
  5 25  1  0
  2 26  1  0
 25 26  1  0
M  END
