BAR-COM-4e090d3a-20
     RDKit          3D

 23 25  0  0  0  0  0  0  0  0999 V2000
    6.5030   -0.9200   19.2710 C   0  0  0  0  0  0  0  0  0  0  0  0
    6.5630   -0.7150   20.6500 C   0  0  2  0  0  0  0  0  0  0  0  0
    7.7090   -0.0740   21.1950 C   0  0  0  0  0  0  0  0  0  0  0  0
    8.1750    0.9600   20.7240 O   0  0  0  0  0  0  0  0  0  0  0  0
    8.2780   -0.6850   22.2990 N   0  0  0  0  0  0  0  0  0  0  0  0
    9.5040   -0.1010   22.7490 C   0  0  0  0  0  0  0  0  0  0  0  0
    9.7510    1.0170   23.7300 C   0  0  0  0  0  0  0  0  0  0  0  0
   11.0280    1.4740   24.0060 C   0  0  0  0  0  0  0  0  0  0  0  0
   12.1630    0.9820   23.4500 C   0  0  0  0  0  0  0  0  0  0  0  0
   12.1200   -0.0320   22.5600 C   0  0  0  0  0  0  0  0  0  0  0  0
   13.1410   -0.5570   22.0070 N   0  0  0  0  0  0  0  0  0  0  0  0
   13.5490   -1.3510   22.8900 C   0  0  0  0  0  0  0  0  0  0  0  0
   13.1640   -0.9330   24.3020 C   0  0  0  0  0  0  0  0  0  0  0  0
   13.4180   -2.0670   24.9960 C   0  0  0  0  0  0  0  0  0  0  0  0
   13.2670   -3.0340   24.0410 C   0  0  0  0  0  0  0  0  0  0  0  0
   12.9710   -2.5340   22.7980 C   0  0  0  0  0  0  0  0  0  0  0  0
   10.8070   -0.6210   22.1700 C   0  0  0  0  0  0  0  0  0  0  0  0
    6.2200   -1.9660   21.4250 C   0  0  0  0  0  0  0  0  0  0  0  0
    5.3060   -2.8900   20.9670 C   0  0  0  0  0  0  0  0  0  0  0  0
    4.9650   -4.0060   21.6230 N   0  0  0  0  0  0  0  0  0  0  0  0
    5.6060   -4.2500   22.8810 C   0  0  0  0  0  0  0  0  0  0  0  0
    6.5750   -3.4010   23.4970 C   0  0  0  0  0  0  0  0  0  0  0  0
    6.8870   -2.2190   22.7380 N   0  0  0  0  0  0  0  0  0  0  0  0
  2  1  1  6
  2  3  1  0
  3  4  2  0
  3  5  1  0
  5  6  1  0
  6  7  2  0
  7  8  1  0
  8  9  2  0
  9 10  1  0
 10 11  1  0
 11 12  1  0
 12 13  1  0
 13 14  1  0
 14 15  1  0
 12 16  1  0
 15 16  1  0
  6 17  1  0
 10 17  2  0
  2 18  1  0
 18 19  2  0
 19 20  1  0
 20 21  2  0
 21 22  1  0
 18 23  1  0
 22 23  2  0
M  END
