BAR-COM-4e090d3a-51
     RDKit          3D

 23 25  0  0  0  0  0  0  0  0999 V2000
   13.0380   -2.3650   21.3130 C   0  0  0  0  0  0  0  0  0  0  0  0
   11.5490   -2.1650   21.5010 C   0  0  0  0  0  0  0  0  0  0  0  0
   11.2070   -1.9520   22.8220 N   0  0  0  0  0  0  0  0  0  0  0  0
    9.8950   -2.2200   23.2680 C   0  0  0  0  0  0  0  0  0  0  0  0
    9.3500   -3.4520   23.7920 O   0  0  0  0  0  0  0  0  0  0  0  0
    9.2170   -1.0070   23.0600 N   0  0  0  0  0  0  0  0  0  0  0  0
    7.8090   -0.8640   22.7910 C   0  0  0  0  0  0  0  0  0  0  0  0
    7.6620   -0.2130   21.5740 C   0  0  0  0  0  0  0  0  0  0  0  0
    8.1460    0.8910   21.3270 O   0  0  0  0  0  0  0  0  0  0  0  0
    6.9190   -0.9050   20.6390 N   0  0  0  0  0  0  0  0  0  0  0  0
    5.4720   -0.8060   20.5890 C   0  0  0  0  0  0  0  0  0  0  0  0
    4.9880    0.3580   19.9820 C   0  0  0  0  0  0  0  0  0  0  0  0
    4.2340    1.2860   20.7040 C   0  0  0  0  0  0  0  0  0  0  0  0
    3.7410    2.4200   20.1580 N   0  0  0  0  0  0  0  0  0  0  0  0
    4.0340    2.5920   18.8540 C   0  0  0  0  0  0  0  0  0  0  0  0
    4.7900    1.6730   18.1260 C   0  0  0  0  0  0  0  0  0  0  0  0
    5.2800    0.5440   18.6680 N   0  0  0  0  0  0  0  0  0  0  0  0
   10.1890   -0.0050   23.0270 C   0  0  0  0  0  0  0  0  0  0  0  0
   10.0470    1.4690   23.0960 C   0  0  0  0  0  0  0  0  0  0  0  0
   11.3630    2.2540   23.0380 C   0  0  0  0  0  0  0  0  0  0  0  0
   12.6900    1.5200   22.9120 C   0  0  0  0  0  0  0  0  0  0  0  0
   12.6450    0.0340   22.8510 C   0  0  0  0  0  0  0  0  0  0  0  0
   11.4260   -0.6170   22.9080 C   0  0  0  0  0  0  0  0  0  0  0  0
  1  2  1  0
  2  3  1  0
  3  4  1  0
  4  5  2  0
  4  6  1  0
  6  7  1  0
  7  8  1  0
  8  9  2  0
  8 10  1  0
 10 11  1  0
 11 12  1  0
 12 13  2  0
 13 14  1  0
 14 15  2  0
 15 16  1  0
 12 17  1  0
 16 17  2  0
  6 18  1  0
 18 19  1  0
 19 20  2  0
 20 21  1  0
 21 22  2  0
  3 23  1  0
 18 23  2  0
 22 23  1  0
M  END
