BAR-COM-4e090d3a-68
     RDKit          3D

 22 24  0  0  0  0  0  0  0  0999 V2000
    8.5200    1.1990   20.9880 O   0  0  0  0  0  0  0  0  0  0  0  0
    8.0570    0.2210   21.5800 C   0  0  0  0  0  0  0  0  0  0  0  0
    8.4420   -0.2280   22.7730 N   0  0  0  0  0  0  0  0  0  0  0  0
    9.7040    0.1610   22.9270 C   0  0  0  0  0  0  0  0  0  0  0  0
   10.1070    1.4970   22.7540 C   0  0  0  0  0  0  0  0  0  0  0  0
   11.5100    1.9600   22.9040 C   0  0  0  0  0  0  0  0  0  0  0  0
   12.5840    1.0200   23.2560 C   0  0  0  0  0  0  0  0  0  0  0  0
   12.1760   -0.2730   23.4450 C   0  0  0  0  0  0  0  0  0  0  0  0
   12.8760   -1.3130   23.7850 C   0  0  0  0  0  0  0  0  0  0  0  0
   13.4180   -2.0470   22.8190 C   0  0  0  0  0  0  0  0  0  0  0  0
   14.0280   -2.9820   23.4960 C   0  0  0  0  0  0  0  0  0  0  0  0
   13.8900   -2.8830   24.8130 N   0  0  0  0  0  0  0  0  0  0  0  0
   13.1410   -1.8060   25.0950 N   0  0  0  0  0  0  0  0  0  0  0  0
   10.7840   -0.7760   23.2930 C   0  0  0  0  0  0  0  0  0  0  0  0
    6.9110   -0.6610   21.0440 C   0  0  1  0  0  0  0  0  0  0  0  0
    6.0780   -0.8230   21.9240 O   0  0  0  0  0  0  0  0  0  0  0  0
    6.3050    0.0400   20.0200 C   0  0  0  0  0  0  0  0  0  0  0  0
    5.1390    0.7510   20.1930 C   0  0  0  0  0  0  0  0  0  0  0  0
    4.5390    1.4700   19.1730 C   0  0  0  0  0  0  0  0  0  0  0  0
    5.1230    1.4890   17.9100 C   0  0  0  0  0  0  0  0  0  0  0  0
    6.3890    0.7470   17.5960 N   0  0  0  0  0  0  0  0  0  0  0  0
    6.8710    0.0510   18.7790 C   0  0  0  0  0  0  0  0  0  0  0  0
  1  2  2  0
  2  3  1  0
  3  4  1  0
  4  5  2  0
  5  6  1  0
  6  7  2  0
  7  8  1  0
  8  9  1  0
  9 10  1  0
 10 11  2  0
 11 12  1  0
  9 13  2  0
 12 13  1  0
  4 14  1  0
  8 14  2  0
  2 15  1  0
 15 16  1  1
 15 17  1  0
 17 18  2  0
 18 19  1  0
 19 20  2  0
 20 21  1  0
 17 22  1  0
 21 22  2  0
M  END
