BAR-COM-4e090d3a-13
     RDKit          3D

 27 30  0  0  0  0  0  0  0  0999 V2000
    8.7250    1.2790   20.9680 O   0  0  0  0  0  0  0  0  0  0  0  0
    8.0970    0.3440   21.4820 C   0  0  0  0  0  0  0  0  0  0  0  0
    8.2940    0.0080   22.9600 C   0  0  0  0  0  0  0  0  0  0  0  0
    9.3310    0.7720   23.4130 N   0  0  0  0  0  0  0  0  0  0  0  0
   10.4850    1.2150   23.7260 C   0  0  0  0  0  0  0  0  0  0  0  0
   11.5690    0.4780   23.4860 C   0  0  0  0  0  0  0  0  0  0  0  0
   12.4740    0.6020   22.5270 C   0  0  0  0  0  0  0  0  0  0  0  0
   13.4360   -0.3370   22.3750 C   0  0  0  0  0  0  0  0  0  0  0  0
   13.5560   -1.4310   23.2200 C   0  0  0  0  0  0  0  0  0  0  0  0
   12.7140   -1.6310   24.2700 C   0  0  0  0  0  0  0  0  0  0  0  0
   13.1080   -3.0190   25.1570 Cl  0  0  0  0  0  0  0  0  0  0  0  0
   11.6010   -0.6510   24.4750 C   0  0  0  0  0  0  0  0  0  0  0  0
   10.3250   -0.5830   25.6250 Cl  0  0  0  0  0  0  0  0  0  0  0  0
    9.6180    2.1090   24.0610 N   0  0  0  0  0  0  0  0  0  0  0  0
    9.0380    0.8610   23.4400 C   0  0  0  0  0  0  0  0  0  0  0  0
   10.3750    0.9060   23.5130 C   0  0  0  0  0  0  0  0  0  0  0  0
   11.6570    1.2950   23.7450 C   0  0  0  0  0  0  0  0  0  0  0  0
   12.2960    0.2170   23.2650 C   0  0  0  0  0  0  0  0  0  0  0  0
   11.2970   -0.6960   22.7900 C   0  0  0  0  0  0  0  0  0  0  0  0
    9.8540   -0.3710   22.8840 C   0  0  0  0  0  0  0  0  0  0  0  0
    7.1970   -0.4260   20.8690 N   0  0  0  0  0  0  0  0  0  0  0  0
    6.4240    0.1410   19.7980 C   0  0  0  0  0  0  0  0  0  0  0  0
    5.1110    0.7230   20.1190 C   0  0  0  0  0  0  0  0  0  0  0  0
    4.3680    1.3030   19.0220 C   0  0  0  0  0  0  0  0  0  0  0  0
    4.8770    1.2950   17.7720 N   0  0  0  0  0  0  0  0  0  0  0  0
    6.0770    0.7500   17.5220 N   0  0  0  0  0  0  0  0  0  0  0  0
    6.8220    0.1930   18.4990 C   0  0  0  0  0  0  0  0  0  0  0  0
  1  2  2  0
  2  3  1  0
  3  4  1  0
  4  5  1  0
  5  6  1  0
  6  7  2  0
  7  8  1  0
  8  9  2  0
  9 10  1  0
 10 11  1  0
  6 12  1  0
 10 12  2  0
 12 13  1  0
  5 14  2  0
 14 15  1  0
 15 16  2  0
 16 17  1  0
 17 18  2  0
 18 19  1  0
  4 20  1  0
 15 20  1  0
 19 20  2  0
  2 21  1  0
 21 22  1  0
 22 23  2  0
 23 24  1  0
 24 25  2  0
 25 26  1  0
 22 27  1  0
 26 27  2  0
M  END
