BAR-COM-4e090d3a-50
     RDKit          3D

 22 24  0  0  0  0  0  0  0  0999 V2000
    8.0670   -0.0790   23.9340 O   0  0  0  0  0  0  0  0  0  0  0  0
    8.2260   -0.9760   23.1170 C   0  0  0  0  0  0  0  0  0  0  0  0
    9.4540   -1.0950   22.2040 C   0  0  0  0  0  0  0  0  0  0  0  0
   10.4160   -0.1100   22.4790 C   0  0  0  0  0  0  0  0  0  0  0  0
   10.0790    1.2050   22.7550 C   0  0  0  0  0  0  0  0  0  0  0  0
   11.0990    2.1230   23.0160 C   0  0  0  0  0  0  0  0  0  0  0  0
   12.4400    1.7650   23.0100 C   0  0  0  0  0  0  0  0  0  0  0  0
   12.7820    0.4620   22.7400 C   0  0  0  0  0  0  0  0  0  0  0  0
   11.7590   -0.4160   22.4870 C   0  0  0  0  0  0  0  0  0  0  0  0
   12.2300   -1.6720   22.2670 O   0  0  0  0  0  0  0  0  0  0  0  0
   12.3580   -1.9590   23.6040 C   0  0  2  0  0  0  0  0  0  0  0  0
   13.5000   -2.5980   23.9340 C   0  0  0  0  0  0  0  0  0  0  0  0
   13.3300   -3.1120   25.1700 C   0  0  0  0  0  0  0  0  0  0  0  0
   12.0010   -3.6530   25.0550 O   0  0  0  0  0  0  0  0  0  0  0  0
   11.2880   -2.8210   24.1650 C   0  0  0  0  0  0  0  0  0  0  0  0
    7.3600   -2.0150   22.8990 O   0  0  0  0  0  0  0  0  0  0  0  0
    7.8760   -3.3000   23.2770 C   0  0  0  0  0  0  0  0  0  0  0  0
    6.8380   -4.3370   22.8700 C   0  0  0  0  0  0  0  0  0  0  0  0
    6.9820   -5.8210   22.8130 C   0  0  0  0  0  0  0  0  0  0  0  0
    5.7620   -6.2670   22.3890 N   0  0  0  0  0  0  0  0  0  0  0  0
    4.9300   -5.1990   22.1940 N   0  0  0  0  0  0  0  0  0  0  0  0
    5.5600   -4.0490   22.4750 N   0  0  0  0  0  0  0  0  0  0  0  0
  1  2  2  0
  2  3  1  0
  3  4  1  0
  4  5  2  0
  5  6  1  0
  6  7  2  0
  7  8  1  0
  4  9  1  0
  8  9  2  0
  9 10  1  0
 11 10  1  6
 11 12  1  0
 12 13  1  0
 13 14  1  0
 11 15  1  0
 14 15  1  0
  2 16  1  0
 16 17  1  0
 17 18  1  0
 18 19  2  0
 19 20  1  0
 20 21  2  0
 18 22  1  0
 21 22  1  0
M  END
