BAR-COM-4e090d3a-41
     RDKit          3D

 23 25  0  0  0  0  0  0  0  0999 V2000
    5.9780   -1.1300   22.0310 O   0  0  0  0  0  0  0  0  0  0  0  0
    6.7210   -0.3730   21.4190 C   0  0  0  0  0  0  0  0  0  0  0  0
    8.0150   -0.0890   21.8050 N   0  0  0  0  0  0  0  0  0  0  0  0
    8.2980   -1.0450   22.8650 C   0  0  0  0  0  0  0  0  0  0  0  0
    9.7590   -0.8990   23.2000 C   0  0  0  0  0  0  0  0  0  0  0  0
   10.2340   -1.7960   24.1180 C   0  0  0  0  0  0  0  0  0  0  0  0
   11.5610   -1.6450   24.3610 N   0  0  0  0  0  0  0  0  0  0  0  0
   11.8130   -0.6590   23.5690 N   0  0  0  0  0  0  0  0  0  0  0  0
   13.1080   -0.2440   23.4450 C   0  0  0  0  0  0  0  0  0  0  0  0
   13.4330    1.0260   22.8940 C   0  0  0  0  0  0  0  0  0  0  0  0
   12.3830    1.8350   22.6240 C   0  0  0  0  0  0  0  0  0  0  0  0
   12.0540    0.5410   22.7280 C   0  0  0  0  0  0  0  0  0  0  0  0
   10.7500   -0.0280   22.7770 C   0  0  0  0  0  0  0  0  0  0  0  0
    6.1900    0.2680   20.2080 C   0  0  0  0  0  0  0  0  0  0  0  0
    5.6620    1.5290   20.2900 C   0  0  0  0  0  0  0  0  0  0  0  0
    5.1410    2.1770   19.1740 C   0  0  0  0  0  0  0  0  0  0  0  0
    5.1450    1.5620   17.9110 C   0  0  0  0  0  0  0  0  0  0  0  0
    5.6810    0.2870   17.8700 N   0  0  0  0  0  0  0  0  0  0  0  0
    6.1660   -0.3060   18.9790 C   0  0  0  0  0  0  0  0  0  0  0  0
    6.5920   -1.4380   18.8980 O   0  0  0  0  0  0  0  0  0  0  0  0
    5.5140   -2.3260   19.2240 C   0  0  0  0  0  0  0  0  0  0  0  0
    5.5860   -3.0730   20.4030 C   0  0  0  0  0  0  0  0  0  0  0  0
    5.2280   -4.2490   20.2250 O   0  0  0  0  0  0  0  0  0  0  0  0
  1  2  2  0
  2  3  1  0
  3  4  1  0
  4  5  1  0
  5  6  1  0
  6  7  2  0
  7  8  1  0
  8  9  1  0
  9 10  2  0
 10 11  1  0
 11 12  2  0
  5 13  2  0
  8 13  1  0
 12 13  1  0
  2 14  1  0
 14 15  2  0
 15 16  1  0
 16 17  2  0
 17 18  1  0
 14 19  1  0
 18 19  2  0
 19 20  1  0
 20 21  1  0
 21 22  1  0
 22 23  1  0
M  END
