BAR-COM-4e090d3a-19
     RDKit          3D

 28 30  0  0  0  0  0  0  0  0999 V2000
    7.4190    2.4050   22.3290 O   0  0  0  0  0  0  0  0  0  0  0  0
    8.5700    2.0010   22.1870 C   0  0  0  0  0  0  0  0  0  0  0  0
    8.9180    0.7940   21.5150 N   0  0  0  0  0  0  0  0  0  0  0  0
    8.1670   -0.2910   22.0890 C   0  0  2  0  0  0  0  0  0  0  0  0
    9.0570   -1.2740   22.5630 C   0  0  0  0  0  0  0  0  0  0  0  0
   10.3440   -0.8030   22.7050 C   0  0  0  0  0  0  0  0  0  0  0  0
   10.5050    0.4650   23.4970 C   0  0  0  0  0  0  0  0  0  0  0  0
   11.7250    1.0880   23.7230 C   0  0  0  0  0  0  0  0  0  0  0  0
   12.8640    0.4890   23.1800 C   0  0  0  0  0  0  0  0  0  0  0  0
   12.8130   -0.7870   22.3840 C   0  0  0  0  0  0  0  0  0  0  0  0
   11.4800   -1.4300   22.1550 C   0  0  0  0  0  0  0  0  0  0  0  0
    7.2810   -0.9340   21.0050 C   0  0  0  0  0  0  0  0  0  0  0  0
    7.2580   -0.5110   19.6740 O   0  0  0  0  0  0  0  0  0  0  0  0
    6.5070   -1.9550   21.4760 N   0  0  0  0  0  0  0  0  0  0  0  0
    5.2450   -1.6690   22.1910 C   0  0  0  0  0  0  0  0  0  0  0  0
    4.6780   -2.8080   22.7500 C   0  0  0  0  0  0  0  0  0  0  0  0
    4.4210   -2.9260   24.0680 C   0  0  0  0  0  0  0  0  0  0  0  0
    3.8680   -4.1280   24.3440 C   0  0  0  0  0  0  0  0  0  0  0  0
    3.7510   -4.8750   23.0670 N   0  0  0  0  0  0  0  0  0  0  0  0
    4.2830   -3.9850   22.0760 O   0  0  0  0  0  0  0  0  0  0  0  0
    9.7020    2.5980   22.6240 O   0  0  0  0  0  0  0  0  0  0  0  0
    9.5680    3.9690   23.0050 C   0  0  0  0  0  0  0  0  0  0  0  0
   10.7320    4.7250   22.8950 C   0  0  0  0  0  0  0  0  0  0  0  0
   10.8340    5.9460   23.5500 C   0  0  0  0  0  0  0  0  0  0  0  0
   11.9600    6.7490   23.4790 C   0  0  0  0  0  0  0  0  0  0  0  0
   13.0380    6.3240   22.7200 C   0  0  0  0  0  0  0  0  0  0  0  0
   12.9820    5.1120   22.0490 C   0  0  0  0  0  0  0  0  0  0  0  0
   11.8350    4.3200   22.1410 C   0  0  0  0  0  0  0  0  0  0  0  0
  1  2  2  0
  2  3  1  0
  3  4  1  0
  4  5  1  6
  5  6  1  0
  6  7  2  0
  7  8  1  0
  8  9  2  0
  9 10  1  0
  6 11  1  0
 10 11  2  0
  4 12  1  0
 12 13  2  0
 12 14  1  0
 14 15  1  0
 15 16  1  0
 16 17  2  0
 17 18  1  0
 18 19  2  0
 16 20  1  0
 19 20  1  0
  2 21  1  0
 21 22  1  0
 22 23  1  0
 23 24  2  0
 24 25  1  0
 25 26  2  0
 26 27  1  0
 23 28  1  0
 27 28  2  0
M  END
