BAR-COM-4e090d3a-37
     RDKit          3D

 25 27  0  0  0  0  0  0  0  0999 V2000
    8.2920   -0.9520   21.6090 C   0  0  0  0  0  0  0  0  0  0  0  0
    8.4040   -1.6230   22.6510 O   0  0  0  0  0  0  0  0  0  0  0  0
    9.4500   -1.1610   23.4100 C   0  0  0  0  0  0  0  0  0  0  0  0
    9.3110   -0.5880   24.6430 C   0  0  0  0  0  0  0  0  0  0  0  0
   10.3560   -0.0940   25.3860 C   0  0  0  0  0  0  0  0  0  0  0  0
   11.6480   -0.1480   24.8830 C   0  0  0  0  0  0  0  0  0  0  0  0
   11.8870   -0.7490   23.5760 C   0  0  0  0  0  0  0  0  0  0  0  0
   10.6790   -1.2630   22.8880 C   0  0  0  0  0  0  0  0  0  0  0  0
   10.9540   -1.7290   21.7520 C   0  0  1  0  0  0  0  0  0  0  0  0
   11.8570   -0.6860   22.2110 N   0  0  0  0  0  0  0  0  0  0  0  0
   11.3770    0.6550   22.6030 C   0  0  0  0  0  0  0  0  0  0  0  0
   10.2290    1.0550   22.4850 O   0  0  0  0  0  0  0  0  0  0  0  0
   12.3730    1.4390   23.1340 C   0  0  0  0  0  0  0  0  0  0  0  0
   12.4030    2.7000   22.5500 C   0  0  0  0  0  0  0  0  0  0  0  0
   13.3740    3.2990   21.8490 C   0  0  0  0  0  0  0  0  0  0  0  0
   12.8990    4.5790   21.4900 N   0  0  0  0  0  0  0  0  0  0  0  0
   11.6170    4.6420   22.0340 N   0  0  0  0  0  0  0  0  0  0  0  0
   11.3240    3.4540   22.6930 N   0  0  0  0  0  0  0  0  0  0  0  0
   10.0620    3.2360   23.3520 C   0  0  0  0  0  0  0  0  0  0  0  0
   11.9400   -2.8400   21.2760 C   0  0  0  0  0  0  0  0  0  0  0  0
   11.6620   -3.5790   20.1880 N   0  0  0  0  0  0  0  0  0  0  0  0
   12.7330   -4.4420   19.8950 O   0  0  0  0  0  0  0  0  0  0  0  0
   13.7100   -4.2170   20.8920 C   0  0  0  0  0  0  0  0  0  0  0  0
   14.9880   -5.1370   20.7200 C   0  0  0  0  0  0  0  0  0  0  0  0
   13.2430   -3.2740   21.7170 N   0  0  0  0  0  0  0  0  0  0  0  0
  1  2  1  0
  2  3  1  0
  3  4  2  0
  4  5  1  0
  5  6  2  0
  6  7  1  0
  3  8  1  0
  7  8  2  0
  8  9  1  0
  9 10  1  6
 10 11  1  0
 11 12  2  0
 11 13  1  0
 13 14  1  0
 14 15  2  0
 15 16  1  0
 16 17  2  0
 14 18  1  0
 17 18  1  0
 18 19  1  0
  9 20  1  0
 20 21  2  0
 21 22  1  0
 22 23  1  0
 23 24  1  0
 20 25  1  0
 23 25  2  0
M  END
