BAR-COM-4e090d3a-34
     RDKit          3D

 23 25  0  0  0  0  0  0  0  0999 V2000
    8.6500   -1.4950   24.0380 O   0  0  0  0  0  0  0  0  0  0  0  0
    8.9790   -0.8030   23.0810 C   0  0  0  0  0  0  0  0  0  0  0  0
    8.1030   -0.5110   21.9980 N   0  0  0  0  0  0  0  0  0  0  0  0
    7.5470   -1.7660   21.5600 C   0  0  0  0  0  0  0  0  0  0  0  0
    6.7030   -2.2610   22.5690 C   0  0  1  0  0  0  0  0  0  0  0  0
    5.6030   -2.6570   22.1670 O   0  0  0  0  0  0  0  0  0  0  0  0
    7.2540   -3.3700   23.2090 C   0  0  0  0  0  0  0  0  0  0  0  0
    6.6680   -4.6460   22.9630 N   0  0  0  0  0  0  0  0  0  0  0  0
    5.2930   -4.9650   22.9850 C   0  0  0  0  0  0  0  0  0  0  0  0
    5.1880   -6.2870   22.6970 C   0  0  0  0  0  0  0  0  0  0  0  0
    6.4180   -6.8140   22.4980 N   0  0  0  0  0  0  0  0  0  0  0  0
    7.3340   -5.7960   22.6630 N   0  0  0  0  0  0  0  0  0  0  0  0
   10.3590   -0.2000   23.0220 C   0  0  0  0  0  0  0  0  0  0  0  0
   10.4070    1.2880   23.3190 C   0  0  0  0  0  0  0  0  0  0  0  0
   11.7640    1.8940   23.2620 C   0  0  0  0  0  0  0  0  0  0  0  0
   12.8610    1.1240   22.9530 C   0  0  0  0  0  0  0  0  0  0  0  0
   12.7470   -0.2190   22.7010 C   0  0  0  0  0  0  0  0  0  0  0  0
   11.5400   -0.9120   22.7320 C   0  0  0  0  0  0  0  0  0  0  0  0
   11.5160   -2.2660   22.5140 O   0  0  0  0  0  0  0  0  0  0  0  0
   11.8260   -2.7170   23.8450 C   0  0  0  0  0  0  0  0  0  0  0  0
   11.9060   -1.6080   24.6860 C   0  0  0  0  0  0  0  0  0  0  0  0
   13.1800   -1.6810   24.9100 C   0  0  0  0  0  0  0  0  0  0  0  0
   13.3960   -2.8410   24.2190 C   0  0  0  0  0  0  0  0  0  0  0  0
  1  2  2  0
  2  3  1  0
  3  4  1  0
  4  5  1  0
  5  6  1  6
  5  7  1  0
  7  8  1  0
  8  9  1  0
  9 10  2  0
 10 11  1  0
  8 12  1  0
 11 12  2  0
  2 13  1  0
 13 14  2  0
 14 15  1  0
 15 16  2  0
 16 17  1  0
 13 18  1  0
 17 18  2  0
 18 19  1  0
 19 20  1  0
 20 21  1  0
 21 22  1  0
 20 23  1  0
 22 23  1  0
M  END
