BAR-COM-4e090d3a-63
     RDKit          3D

 26 28  0  0  0  0  0  0  0  0999 V2000
    9.9270    5.3860   23.3810 C   0  0  0  0  0  0  0  0  0  0  0  0
   11.2370    5.0920   22.7070 C   0  0  1  0  0  0  0  0  0  0  0  0
   12.3440    5.5770   23.4250 C   0  0  0  0  0  0  0  0  0  0  0  0
   13.5920    5.1400   23.0150 C   0  0  0  0  0  0  0  0  0  0  0  0
   13.5170    3.9210   22.2210 C   0  0  0  0  0  0  0  0  0  0  0  0
   12.5300    3.0820   22.5200 C   0  0  2  0  0  0  0  0  0  0  0  0
   12.4760    1.6010   22.0800 O   0  0  0  0  0  0  0  0  0  0  0  0
   13.3260    0.3150   22.2520 C   0  0  0  0  0  0  0  0  0  0  0  0
   12.4500   -0.7890   22.7290 C   0  0  0  0  0  0  0  0  0  0  0  0
   12.8580   -1.6450   23.8230 C   0  0  0  0  0  0  0  0  0  0  0  0
   11.9330   -2.5320   24.2890 C   0  0  0  0  0  0  0  0  0  0  0  0
   10.6310   -2.6430   23.7590 C   0  0  0  0  0  0  0  0  0  0  0  0
   10.2520   -1.8250   22.6960 C   0  0  0  0  0  0  0  0  0  0  0  0
    8.9600   -1.8620   22.1330 N   0  0  0  0  0  0  0  0  0  0  0  0
    8.3090   -0.6740   21.5290 C   0  0  0  0  0  0  0  0  0  0  0  0
    8.9530    0.6130   21.4820 O   0  0  0  0  0  0  0  0  0  0  0  0
    6.9460   -0.9040   20.9840 N   0  0  0  0  0  0  0  0  0  0  0  0
    6.7410   -0.2640   19.7960 C   0  0  1  0  0  0  0  0  0  0  0  0
    6.7050   -1.0760   18.6850 C   0  0  0  0  0  0  0  0  0  0  0  0
    5.5930    0.5960   20.0360 C   0  0  0  0  0  0  0  0  0  0  0  0
    4.7270    1.5250   19.4220 C   0  0  0  0  0  0  0  0  0  0  0  0
    4.8370    1.8960   18.1220 C   0  0  0  0  0  0  0  0  0  0  0  0
    5.8520    1.2010   17.7090 N   0  0  0  0  0  0  0  0  0  0  0  0
    6.2500    0.5010   18.7700 N   0  0  0  0  0  0  0  0  0  0  0  0
   11.1480   -0.9430   22.2060 C   0  0  0  0  0  0  0  0  0  0  0  0
   11.3700    3.7760   22.1920 C   0  0  0  0  0  0  0  0  0  0  0  0
  2  1  1  1
  2  3  1  0
  3  4  1  0
  4  5  1  0
  5  6  1  0
  6  7  1  6
  7  8  1  0
  8  9  1  0
  9 10  2  0
 10 11  1  0
 11 12  2  0
 12 13  1  0
 13 14  1  0
 14 15  1  0
 15 16  2  0
 15 17  1  0
 17 18  1  0
 18 19  1  6
 18 20  1  0
 20 21  2  0
 21 22  1  0
 22 23  2  0
 20 24  1  0
 23 24  1  0
  9 25  1  0
 13 25  2  0
  2 26  1  0
  6 26  1  0
M  END
