BAR-COM-4e090d3a-47
     RDKit          3D

 26 28  0  0  0  0  0  0  0  0999 V2000
    6.5620   -2.7520   28.8000 C   0  0  0  0  0  0  0  0  0  0  0  0
    5.7330   -2.5010   27.6360 N   0  0  0  0  0  0  0  0  0  0  0  0
    6.1900   -2.6140   26.2900 C   0  0  0  0  0  0  0  0  0  0  0  0
    5.0670   -2.2840   25.4570 C   0  0  0  0  0  0  0  0  0  0  0  0
    4.9770   -2.2390   23.9640 C   0  0  0  0  0  0  0  0  0  0  0  0
    5.8830   -1.3650   23.3160 N   0  0  0  0  0  0  0  0  0  0  0  0
    6.2610   -1.8320   21.9870 C   0  0  0  0  0  0  0  0  0  0  0  0
    5.8750   -2.9330   21.5980 O   0  0  0  0  0  0  0  0  0  0  0  0
    7.0410   -0.9930   21.2060 N   0  0  0  0  0  0  0  0  0  0  0  0
    8.3230   -0.6770   21.5300 C   0  0  0  0  0  0  0  0  0  0  0  0
    9.0680   -1.3080   22.7000 C   0  0  0  0  0  0  0  0  0  0  0  0
   10.4480   -0.7130   22.7490 C   0  0  0  0  0  0  0  0  0  0  0  0
   10.5960    0.6610   23.0640 C   0  0  0  0  0  0  0  0  0  0  0  0
   11.8700    1.2380   23.1160 C   0  0  0  0  0  0  0  0  0  0  0  0
   13.0150    0.5300   22.8750 C   0  0  0  0  0  0  0  0  0  0  0  0
   12.8890   -0.8990   22.5440 C   0  0  0  0  0  0  0  0  0  0  0  0
   11.6230   -1.4660   22.4910 C   0  0  0  0  0  0  0  0  0  0  0  0
    6.5770   -0.7650   19.8700 C   0  0  0  0  0  0  0  0  0  0  0  0
    5.4500    0.2050   20.0360 C   0  0  0  0  0  0  0  0  0  0  0  0
    4.5460    1.2710   19.6510 C   0  0  0  0  0  0  0  0  0  0  0  0
    4.1080    2.2250   18.6750 C   0  0  0  0  0  0  0  0  0  0  0  0
    4.9860    1.9510   17.6660 C   0  0  0  0  0  0  0  0  0  0  0  0
    5.9810    0.9610   17.7540 N   0  0  0  0  0  0  0  0  0  0  0  0
    6.1030    0.2580   18.8180 C   0  0  0  0  0  0  0  0  0  0  0  0
    3.9920   -1.9890   26.2720 N   0  0  0  0  0  0  0  0  0  0  0  0
    4.4090   -2.1260   27.5870 N   0  0  0  0  0  0  0  0  0  0  0  0
  1  2  1  0
  2  3  1  0
  3  4  2  0
  4  5  1  0
  5  6  1  0
  6  7  1  0
  7  8  2  0
  7  9  1  0
  9 10  1  0
 10 11  1  0
 11 12  1  0
 12 13  2  0
 13 14  1  0
 14 15  2  0
 15 16  1  0
 12 17  1  0
 16 17  2  0
  9 18  1  0
 18 19  1  0
 19 20  2  0
 20 21  1  0
 21 22  2  0
 22 23  1  0
 19 24  1  0
 23 24  2  0
  4 25  1  0
  2 26  1  0
 25 26  2  0
M  END
