BAR-COM-4e090d3a-69
     RDKit          3D

 22 23  0  0  0  0  0  0  0  0999 V2000
    8.3910    0.7940   21.0750 O   0  0  0  0  0  0  0  0  0  0  0  0
    8.1060   -0.3040   21.5710 C   0  0  0  0  0  0  0  0  0  0  0  0
    6.9190   -1.0300   21.2440 N   0  0  0  0  0  0  0  0  0  0  0  0
    6.3490   -1.0160   20.0110 C   0  0  0  0  0  0  0  0  0  0  0  0
    5.3670    0.0670   20.0120 C   0  0  0  0  0  0  0  0  0  0  0  0
    4.4430    1.3210   19.6340 C   0  0  0  0  0  0  0  0  0  0  0  0
    4.1550    2.2720   18.6150 C   0  0  0  0  0  0  0  0  0  0  0  0
    5.0540    1.8460   17.6890 C   0  0  0  0  0  0  0  0  0  0  0  0
    5.9150    0.8300   17.7910 N   0  0  0  0  0  0  0  0  0  0  0  0
    6.0730    0.0270   18.8080 C   0  0  0  0  0  0  0  0  0  0  0  0
    8.9530   -0.8960   22.5030 N   0  0  0  0  0  0  0  0  0  0  0  0
   10.1310   -0.3490   22.8230 C   0  0  0  0  0  0  0  0  0  0  0  0
   10.1740    1.1100   23.2260 C   0  0  0  0  0  0  0  0  0  0  0  0
   11.4870    1.6900   23.5340 C   0  0  0  0  0  0  0  0  0  0  0  0
   12.5660    0.8750   23.4420 C   0  0  0  0  0  0  0  0  0  0  0  0
   12.4910   -0.4470   23.0970 C   0  0  0  0  0  0  0  0  0  0  0  0
   13.5200   -1.0860   23.0760 O   0  0  0  0  0  0  0  0  0  0  0  0
   13.2540   -2.4320   22.7480 C   0  0  0  0  0  0  0  0  0  0  0  0
   13.0470   -2.6310   21.3960 C   0  0  0  0  0  0  0  0  0  0  0  0
   11.7770   -2.5790   21.0310 F   0  0  0  0  0  0  0  0  0  0  0  0
   13.6010   -1.5550   20.7850 F   0  0  0  0  0  0  0  0  0  0  0  0
   11.2800   -1.0640   22.7820 N   0  0  0  0  0  0  0  0  0  0  0  0
  1  2  2  0
  2  3  1  0
  3  4  1  0
  4  5  1  0
  5  6  2  0
  6  7  1  0
  7  8  2  0
  8  9  1  0
  5 10  1  0
  9 10  2  0
  2 11  1  0
 11 12  1  0
 12 13  2  0
 13 14  1  0
 14 15  2  0
 15 16  1  0
 16 17  1  0
 17 18  1  0
 18 19  1  0
 19 20  1  0
 19 21  1  0
 12 22  1  0
 16 22  2  0
M  END
