BAR-COM-4e090d3a-28
     RDKit          3D

 25 27  0  0  0  0  0  0  0  0999 V2000
    6.2860    3.4960   21.6480 C   0  0  0  0  0  0  0  0  0  0  0  0
    5.4850    2.5160   21.0780 C   0  0  1  0  0  0  0  0  0  0  0  0
    5.8330    1.1800   21.6200 N   0  0  0  0  0  0  0  0  0  0  0  0
    7.2080    0.7640   21.2960 C   0  0  0  0  0  0  0  0  0  0  0  0
    7.4310    0.3850   20.1480 O   0  0  0  0  0  0  0  0  0  0  0  0
    8.2080    0.7990   22.1560 N   0  0  0  0  0  0  0  0  0  0  0  0
    8.7030   -0.4700   22.3440 C   0  0  1  0  0  0  0  0  0  0  0  0
    8.3380   -1.6490   21.4950 C   0  0  0  0  0  0  0  0  0  0  0  0
    7.8940   -2.7380   22.2260 C   0  0  0  0  0  0  0  0  0  0  0  0
    6.6260   -3.3310   21.9880 N   0  0  0  0  0  0  0  0  0  0  0  0
    6.4700   -4.3750   22.8160 C   0  0  0  0  0  0  0  0  0  0  0  0
    7.6320   -4.4490   23.5880 C   0  0  0  0  0  0  0  0  0  0  0  0
    8.5220   -3.4210   23.2270 N   0  0  0  0  0  0  0  0  0  0  0  0
    9.8290   -3.0900   23.7420 C   0  0  0  0  0  0  0  0  0  0  0  0
   10.2170   -0.2640   22.5060 C   0  0  0  0  0  0  0  0  0  0  0  0
   10.7010    0.9800   22.8770 C   0  0  0  0  0  0  0  0  0  0  0  0
   12.0850    1.2090   23.0320 C   0  0  0  0  0  0  0  0  0  0  0  0
   13.0180    0.2190   22.8340 C   0  0  0  0  0  0  0  0  0  0  0  0
   12.5830   -1.0320   22.4640 C   0  0  0  0  0  0  0  0  0  0  0  0
   11.2470   -1.3640   22.2770 C   0  0  0  0  0  0  0  0  0  0  0  0
    4.0650    2.6330   21.0780 C   0  0  0  0  0  0  0  0  0  0  0  0
    3.2820    3.2710   21.9700 N   0  0  0  0  0  0  0  0  0  0  0  0
    2.0180    3.0700   21.4860 C   0  0  0  0  0  0  0  0  0  0  0  0
    2.1140    2.3140   20.3170 C   0  0  0  0  0  0  0  0  0  0  0  0
    3.3970    2.0170   20.0310 O   0  0  0  0  0  0  0  0  0  0  0  0
  2  1  1  1
  2  3  1  0
  3  4  1  0
  4  5  2  0
  4  6  1  0
  6  7  1  0
  7  8  1  6
  8  9  1  0
  9 10  2  0
 10 11  1  0
 11 12  2  0
  9 13  1  0
 12 13  1  0
 13 14  1  0
  7 15  1  0
 15 16  2  0
 16 17  1  0
 17 18  2  0
 18 19  1  0
 15 20  1  0
 19 20  2  0
  2 21  1  0
 21 22  2  0
 22 23  1  0
 23 24  2  0
 21 25  1  0
 24 25  1  0
M  END
