BAR-COM-4e090d3a-46
     RDKit          3D

 29 32  0  0  0  0  0  0  0  0999 V2000
    6.1070   -6.2690   22.1130 C   0  0  0  0  0  0  0  0  0  0  0  0
    6.8270   -5.0960   22.7700 C   0  0  0  0  0  0  0  0  0  0  0  0
    7.6770   -5.4540   23.8760 N   0  0  0  0  0  0  0  0  0  0  0  0
    8.1670   -4.1950   24.2190 O   0  0  0  0  0  0  0  0  0  0  0  0
    7.6120   -3.2630   23.3660 C   0  0  0  0  0  0  0  0  0  0  0  0
    7.9960   -1.9210   23.5710 C   0  0  0  0  0  0  0  0  0  0  0  0
    8.8390   -1.4490   22.5400 C   0  0  1  0  0  0  0  0  0  0  0  0
    8.4570   -0.1270   22.2960 N   0  0  0  0  0  0  0  0  0  0  0  0
    7.4330    0.3910   23.0940 C   0  0  0  0  0  0  0  0  0  0  0  0
    6.5090   -0.2680   23.5490 O   0  0  0  0  0  0  0  0  0  0  0  0
    7.5590    1.7550   23.2940 N   0  0  0  0  0  0  0  0  0  0  0  0
    6.3660    2.5640   23.5230 C   0  0  1  0  0  0  0  0  0  0  0  0
    5.8640    2.4660   24.9740 C   0  0  0  0  0  0  0  0  0  0  0  0
    6.6240    3.2110   26.0570 C   0  0  0  0  0  0  0  0  0  0  0  0
    6.3480    3.2520   27.3690 N   0  0  0  0  0  0  0  0  0  0  0  0
    5.2680    2.5400   27.7200 C   0  0  0  0  0  0  0  0  0  0  0  0
    4.4340    1.7880   26.8890 C   0  0  0  0  0  0  0  0  0  0  0  0
    2.9740    0.8810   27.6600 Br  0  0  0  0  0  0  0  0  0  0  0  0
    4.6370    1.6790   25.4980 C   0  0  0  0  0  0  0  0  0  0  0  0
    6.5320    4.0280   23.1490 C   0  0  0  0  0  0  0  0  0  0  0  0
    7.1930    4.4790   22.0640 C   0  0  0  0  0  0  0  0  0  0  0  0
    7.9720    4.8240   23.0450 C   0  0  0  0  0  0  0  0  0  0  0  0
   10.1890   -1.3950   22.9410 C   0  0  0  0  0  0  0  0  0  0  0  0
   10.6150   -1.5240   24.2510 C   0  0  0  0  0  0  0  0  0  0  0  0
   11.9760   -1.4600   24.5470 C   0  0  0  0  0  0  0  0  0  0  0  0
   12.9210   -1.2570   23.5630 C   0  0  0  0  0  0  0  0  0  0  0  0
   12.5210   -1.1280   22.2520 C   0  0  0  0  0  0  0  0  0  0  0  0
   11.1590   -1.2040   21.9700 C   0  0  0  0  0  0  0  0  0  0  0  0
    6.7800   -3.7700   22.4620 N   0  0  0  0  0  0  0  0  0  0  0  0
  1  2  1  0
  2  3  2  0
  3  4  1  0
  4  5  1  0
  5  6  1  0
  7  6  1  1
  7  8  1  0
  8  9  1  0
  9 10  2  0
  9 11  1  0
 12 11  1  1
 12 13  1  0
 13 14  2  0
 14 15  1  0
 15 16  2  0
 16 17  1  0
 17 18  1  0
 13 19  1  0
 17 19  2  0
 12 20  1  0
 20 21  1  0
 20 22  1  0
 21 22  1  0
  7 23  1  0
 23 24  2  0
 24 25  1  0
 25 26  2  0
 26 27  1  0
 23 28  1  0
 27 28  2  0
  2 29  1  0
  5 29  2  0
M  END
