BAR-COM-4e090d3a-2
     RDKit          3D

 30 34  0  0  0  0  0  0  0  0999 V2000
   12.3800   -2.3100   25.0680 N   0  0  0  0  0  0  0  0  0  0  0  0
   12.3690   -2.2930   23.6100 C   0  0  0  0  0  0  0  0  0  0  0  0
   13.5460   -2.4570   22.9370 N   0  0  0  0  0  0  0  0  0  0  0  0
   13.1950   -2.3880   21.6330 N   0  0  0  0  0  0  0  0  0  0  0  0
   11.8790   -2.1920   21.4750 N   0  0  0  0  0  0  0  0  0  0  0  0
   11.3420   -2.1300   22.6870 N   0  0  0  0  0  0  0  0  0  0  0  0
    9.9620   -1.9210   22.7890 C   0  0  0  0  0  0  0  0  0  0  0  0
    9.1300   -2.7470   23.5770 C   0  0  0  0  0  0  0  0  0  0  0  0
    7.6850   -2.4200   23.5940 C   0  0  0  0  0  0  0  0  0  0  0  0
    7.1390   -1.2690   22.8080 C   0  0  0  0  0  0  0  0  0  0  0  0
    8.0590   -0.5220   22.0630 C   0  0  0  0  0  0  0  0  0  0  0  0
    7.6640    0.5610   21.2970 C   0  0  0  0  0  0  0  0  0  0  0  0
    8.5110    1.4130   20.9700 O   0  0  0  0  0  0  0  0  0  0  0  0
    6.3150    0.6710   20.9110 N   0  0  0  0  0  0  0  0  0  0  0  0
    5.5670    1.8420   20.5510 C   0  0  0  0  0  0  0  0  0  0  0  0
    5.3820    1.1780   19.2030 C   0  0  0  0  0  0  0  0  0  0  0  0
    5.9170   -0.1280   18.9210 C   0  0  0  0  0  0  0  0  0  0  0  0
    5.1730   -1.2400   19.0610 C   0  0  0  0  0  0  0  0  0  0  0  0
    5.8030   -2.4070   18.7480 C   0  0  0  0  0  0  0  0  0  0  0  0
    7.1240   -2.4090   18.3260 C   0  0  0  0  0  0  0  0  0  0  0  0
    7.8600   -1.3410   18.1970 N   0  0  0  0  0  0  0  0  0  0  0  0
    7.1800   -0.1200   18.5260 C   0  0  0  0  0  0  0  0  0  0  0  0
    4.7060    1.9860   18.4390 N   0  0  0  0  0  0  0  0  0  0  0  0
    5.2000    1.8040   19.5660 C   0  0  0  0  0  0  0  0  0  0  0  0
    5.7300    1.6960   20.9010 C   0  0  0  0  0  0  0  0  0  0  0  0
    5.6830    2.5890   22.0250 C   0  0  0  0  0  0  0  0  0  0  0  0
    5.0400    3.8040   21.9260 C   0  0  0  0  0  0  0  0  0  0  0  0
    4.5190    3.9660   20.7080 C   0  0  0  0  0  0  0  0  0  0  0  0
    4.7510    2.8910   19.8530 N   0  0  0  0  0  0  0  0  0  0  0  0
    9.4140   -0.8280   22.0490 C   0  0  0  0  0  0  0  0  0  0  0  0
  1  2  1  0
  2  3  2  0
  3  4  1  0
  4  5  2  0
  2  6  1  0
  5  6  1  0
  6  7  1  0
  7  8  2  0
  8  9  1  0
  9 10  2  0
 10 11  1  0
 11 12  1  0
 12 13  2  0
 12 14  1  0
 14 15  1  0
 15 16  2  0
 16 17  1  0
 17 18  2  0
 18 19  1  0
 19 20  2  0
 20 21  1  0
 17 22  1  0
 21 22  2  0
 16 23  1  0
 23 24  2  0
 24 25  1  0
 25 26  2  0
 26 27  1  0
 27 28  2  0
 15 29  1  0
 24 29  1  0
 28 29  1  0
  7 30  1  0
 11 30  2  0
M  END
