BAR-COM-4e090d3a-23
     RDKit          3D

 26 29  0  0  0  0  0  0  0  0999 V2000
    8.1250    0.8760   20.6100 O   0  0  0  0  0  0  0  0  0  0  0  0
    7.8010    0.0470   21.4600 C   0  0  0  0  0  0  0  0  0  0  0  0
    6.9720   -1.0970   21.1900 N   0  0  0  0  0  0  0  0  0  0  0  0
    5.6270   -1.0690   20.8990 C   0  0  0  0  0  0  0  0  0  0  0  0
    5.4300   -0.0580   19.8350 C   0  0  0  0  0  0  0  0  0  0  0  0
    4.1800    0.8450   19.9040 C   0  0  0  0  0  0  0  0  0  0  0  0
    4.0000    1.7800   18.9190 C   0  0  0  0  0  0  0  0  0  0  0  0
    4.9640    1.8570   17.9140 C   0  0  0  0  0  0  0  0  0  0  0  0
    6.1030    1.0090   17.8840 N   0  0  0  0  0  0  0  0  0  0  0  0
    6.3240    0.0690   18.8350 N   0  0  0  0  0  0  0  0  0  0  0  0
    8.1990    0.1150   22.7690 N   0  0  0  0  0  0  0  0  0  0  0  0
    9.3250    0.8740   23.0590 C   0  0  0  0  0  0  0  0  0  0  0  0
    9.3890    2.3450   23.4760 C   0  0  0  0  0  0  0  0  0  0  0  0
   10.7970    2.8920   23.6740 C   0  0  0  0  0  0  0  0  0  0  0  0
   11.9400    2.0000   23.4710 C   0  0  0  0  0  0  0  0  0  0  0  0
   11.6910    0.7510   23.1320 C   0  0  0  0  0  0  0  0  0  0  0  0
   12.4720   -0.1510   22.9340 C   0  0  0  0  0  0  0  0  0  0  0  0
   13.1440   -0.0320   21.8750 N   0  0  0  0  0  0  0  0  0  0  0  0
   13.7240   -1.1320   21.8800 C   0  0  0  0  0  0  0  0  0  0  0  0
   13.4640   -1.8810   22.9720 C   0  0  0  0  0  0  0  0  0  0  0  0
   12.6050   -1.1640   23.6440 N   0  0  0  0  0  0  0  0  0  0  0  0
   11.9510   -1.4680   24.8490 C   0  0  0  0  0  0  0  0  0  0  0  0
   12.1210   -2.7960   24.9120 C   0  0  0  0  0  0  0  0  0  0  0  0
   13.4350   -3.1220   24.9140 C   0  0  0  0  0  0  0  0  0  0  0  0
   13.8400   -3.1020   23.4420 C   0  0  0  0  0  0  0  0  0  0  0  0
   10.4710    0.1960   22.9260 C   0  0  0  0  0  0  0  0  0  0  0  0
  1  2  2  0
  2  3  1  0
  3  4  1  0
  4  5  1  0
  5  6  2  0
  6  7  1  0
  7  8  2  0
  8  9  1  0
  5 10  1  0
  9 10  2  0
  2 11  1  0
 11 12  1  0
 12 13  2  0
 13 14  1  0
 14 15  2  0
 15 16  1  0
 16 17  1  0
 17 18  2  0
 18 19  1  0
 19 20  2  0
 17 21  1  0
 20 21  1  0
 21 22  1  0
 22 23  1  0
 23 24  1  0
 20 25  1  0
 24 25  1  0
 12 26  1  0
 16 26  2  0
M  END
