BAR-COM-4e090d3a-56
     RDKit          3D

 25 27  0  0  0  0  0  0  0  0999 V2000
    8.5920    1.3440   20.9450 O   0  0  0  0  0  0  0  0  0  0  0  0
    8.3810    0.1460   21.1240 C   0  0  0  0  0  0  0  0  0  0  0  0
    7.1970   -0.5000   20.9430 N   0  0  0  0  0  0  0  0  0  0  0  0
    6.5310    0.0730   19.9200 C   0  0  0  0  0  0  0  0  0  0  0  0
    5.3470    0.6920   20.2800 C   0  0  0  0  0  0  0  0  0  0  0  0
    4.5410    1.3550   19.2530 C   0  0  0  0  0  0  0  0  0  0  0  0
    5.0140    1.3360   17.9190 N   0  0  0  0  0  0  0  0  0  0  0  0
    6.1920    0.7150   17.5740 N   0  0  0  0  0  0  0  0  0  0  0  0
    6.8850    0.1160   18.5890 C   0  0  0  0  0  0  0  0  0  0  0  0
    9.3190   -0.7630   21.5390 N   0  0  0  0  0  0  0  0  0  0  0  0
    9.0560   -1.2600   22.8660 C   0  0  2  0  0  0  0  0  0  0  0  0
    8.3800   -0.1690   23.4340 C   0  0  0  0  0  0  0  0  0  0  0  0
    7.9560   -0.0780   24.7440 C   0  0  0  0  0  0  0  0  0  0  0  0
    6.6710    0.4670   24.8520 C   0  0  0  0  0  0  0  0  0  0  0  0
    5.9770    0.6660   26.2240 C   0  0  0  0  0  0  0  0  0  0  0  0
    6.7200    0.2690   27.3080 C   0  0  0  0  0  0  0  0  0  0  0  0
    7.9950   -0.2690   27.1720 C   0  0  0  0  0  0  0  0  0  0  0  0
    8.5990   -0.4400   25.9180 C   0  0  0  0  0  0  0  0  0  0  0  0
   10.3680   -1.5590   23.5840 C   0  0  0  0  0  0  0  0  0  0  0  0
   10.4400   -1.3750   24.9140 O   0  0  0  0  0  0  0  0  0  0  0  0
   11.4770   -1.9560   22.9430 N   0  0  0  0  0  0  0  0  0  0  0  0
   12.3010   -1.0360   22.2230 C   0  0  0  0  0  0  0  0  0  0  0  0
   13.3930   -0.9310   23.0220 C   0  0  0  0  0  0  0  0  0  0  0  0
   13.2480   -1.7390   24.1320 C   0  0  0  0  0  0  0  0  0  0  0  0
   12.3830   -2.7410   23.7870 C   0  0  0  0  0  0  0  0  0  0  0  0
  1  2  2  0
  2  3  1  0
  3  4  1  0
  4  5  2  0
  5  6  1  0
  6  7  2  0
  7  8  1  0
  4  9  1  0
  8  9  2  0
  2 10  1  0
 10 11  1  0
 11 12  1  1
 12 13  1  0
 13 14  2  0
 14 15  1  0
 15 16  2  0
 16 17  1  0
 13 18  1  0
 17 18  2  0
 11 19  1  0
 19 20  2  0
 19 21  1  0
 21 22  1  0
 22 23  1  0
 23 24  1  0
 21 25  1  0
 24 25  1  0
M  END
