BAR-COM-4e090d3a-4
     RDKit          3D

 25 27  0  0  0  0  0  0  0  0999 V2000
   14.2270   -4.4240   20.2410 C   0  0  0  0  0  0  0  0  0  0  0  0
   13.6000   -3.1310   20.8080 C   0  0  2  0  0  0  0  0  0  0  0  0
   12.2890   -3.0470   20.7030 C   0  0  0  0  0  0  0  0  0  0  0  0
   11.9370   -1.7150   20.8490 N   0  0  0  0  0  0  0  0  0  0  0  0
   10.7280   -1.5000   21.3520 C   0  0  0  0  0  0  0  0  0  0  0  0
   10.8410   -1.4190   22.5360 C   0  0  0  0  0  0  0  0  0  0  0  0
   12.3110   -1.4140   22.9460 C   0  0  0  0  0  0  0  0  0  0  0  0
   12.3540   -1.3540   24.3920 C   0  0  0  0  0  0  0  0  0  0  0  0
   11.1430   -1.3280   25.0360 C   0  0  0  0  0  0  0  0  0  0  0  0
    9.9050   -1.3320   24.4810 C   0  0  0  0  0  0  0  0  0  0  0  0
    9.7180   -1.3640   23.2260 C   0  0  0  0  0  0  0  0  0  0  0  0
    8.4790   -1.3480   22.5530 N   0  0  0  0  0  0  0  0  0  0  0  0
    8.1270   -0.3630   21.6420 C   0  0  0  0  0  0  0  0  0  0  0  0
    8.7640    0.6560   21.4030 O   0  0  0  0  0  0  0  0  0  0  0  0
    6.9940   -0.6220   21.0220 N   0  0  0  0  0  0  0  0  0  0  0  0
    6.7950   -0.0710   19.6950 C   0  0  0  0  0  0  0  0  0  0  0  0
    5.4070    0.5330   19.5450 C   0  0  0  0  0  0  0  0  0  0  0  0
    4.0840    1.3800   19.5620 C   0  0  0  0  0  0  0  0  0  0  0  0
    3.9410    2.6450   20.2560 N   0  0  0  0  0  0  0  0  0  0  0  0
    5.3510    2.9360   20.9400 S   0  0  0  0  0  0  0  0  0  0  0  0
    6.0840    1.5040   20.3610 C   0  0  0  0  0  0  0  0  0  0  0  0
   13.0400   -0.8970   21.4520 C   0  0  0  0  0  0  0  0  0  0  0  0
   13.8260   -0.8150   20.1950 C   0  0  1  0  0  0  0  0  0  0  0  0
   14.5800    0.2500   19.5040 C   0  0  0  0  0  0  0  0  0  0  0  0
   14.2450   -2.1170   20.1490 O   0  0  0  0  0  0  0  0  0  0  0  0
  2  1  1  6
  2  3  1  0
  3  4  1  0
  4  5  1  0
  5  6  1  0
  6  7  2  0
  7  8  1  0
  8  9  2  0
  9 10  1  0
  6 11  1  0
 10 11  2  0
 11 12  1  0
 12 13  1  0
 13 14  2  0
 13 15  1  0
 15 16  1  0
 16 17  1  0
 17 18  1  0
 18 19  2  0
 19 20  1  0
 17 21  2  0
 20 21  1  0
  4 22  1  0
 22 23  1  0
 23 24  1  1
  2 25  1  0
 23 25  1  0
M  END
