BAR-COM-4e090d3a-36
     RDKit          3D

 24 25  0  0  0  0  0  0  0  0999 V2000
    8.7840    2.8870   22.5170 C   0  0  0  0  0  0  0  0  0  0  0  0
    8.1120    1.6160   22.5440 O   0  0  0  0  0  0  0  0  0  0  0  0
    8.4060    0.8840   21.4120 C   0  0  0  0  0  0  0  0  0  0  0  0
    8.7010    1.9770   20.9640 O   0  0  0  0  0  0  0  0  0  0  0  0
    7.9910   -0.2190   22.1980 C   0  0  2  0  0  0  0  0  0  0  0  0
    9.0580   -1.2390   22.4450 C   0  0  0  0  0  0  0  0  0  0  0  0
   10.4700   -0.7440   22.5710 C   0  0  0  0  0  0  0  0  0  0  0  0
   10.6490    0.5640   22.9860 C   0  0  0  0  0  0  0  0  0  0  0  0
   11.9060    1.1280   23.1240 C   0  0  0  0  0  0  0  0  0  0  0  0
   13.0610    0.4390   22.8730 C   0  0  0  0  0  0  0  0  0  0  0  0
   12.9850   -0.8820   22.4580 C   0  0  0  0  0  0  0  0  0  0  0  0
   11.5880   -1.5230   22.2900 C   0  0  0  0  0  0  0  0  0  0  0  0
    6.8410   -1.0200   21.5440 C   0  0  1  0  0  0  0  0  0  0  0  0
    6.8700   -1.0130   20.1450 C   0  0  0  0  0  0  0  0  0  0  0  0
    6.9710   -2.3200   21.9510 N   0  0  0  0  0  0  0  0  0  0  0  0
    5.8550   -3.3410   21.8720 C   0  0  0  0  0  0  0  0  0  0  0  0
    4.8320   -3.2570   21.1910 O   0  0  0  0  0  0  0  0  0  0  0  0
    5.9380   -4.5300   22.6130 C   0  0  1  0  0  0  0  0  0  0  0  0
    7.1150   -5.2710   22.5050 C   0  0  0  0  0  0  0  0  0  0  0  0
    5.6130   -4.2740   23.9640 N   0  0  0  0  0  0  0  0  0  0  0  0
    6.0220   -4.9140   25.0700 C   0  0  0  0  0  0  0  0  0  0  0  0
    5.5200   -4.4250   26.2660 C   0  0  0  0  0  0  0  0  0  0  0  0
    4.7040   -3.3760   26.0420 N   0  0  0  0  0  0  0  0  0  0  0  0
    4.7400   -3.2500   24.5750 C   0  0  0  0  0  0  0  0  0  0  0  0
  1  2  1  0
  2  3  1  0
  3  4  2  0
  3  5  1  0
  5  6  1  6
  6  7  1  0
  7  8  2  0
  8  9  1  0
  9 10  2  0
 10 11  1  0
  7 12  1  0
 11 12  2  0
  5 13  1  0
 13 14  1  6
 13 15  1  0
 15 16  1  0
 16 17  2  0
 16 18  1  0
 18 19  1  1
 18 20  1  0
 20 21  1  0
 21 22  2  0
 22 23  1  0
 20 24  1  0
 23 24  2  0
M  END
