BAR-COM-4e090d3a-30
     RDKit          3D

 23 25  0  0  0  0  0  0  0  0999 V2000
    8.7220    2.0830   21.0680 O   0  0  0  0  0  0  0  0  0  0  0  0
    8.5290    0.8930   21.2620 C   0  0  0  0  0  0  0  0  0  0  0  0
    7.5890    1.3660   22.4140 C   0  0  0  0  0  0  0  0  0  0  0  0
    7.5980    2.7540   22.6220 C   0  0  0  0  0  0  0  0  0  0  0  0
    6.8580    3.2790   23.6820 C   0  0  0  0  0  0  0  0  0  0  0  0
    6.6870    2.6710   24.8970 C   0  0  0  0  0  0  0  0  0  0  0  0
    5.8550    3.5320   25.7350 N   0  0  0  0  0  0  0  0  0  0  0  0
    5.5740    4.6010   24.9840 N   0  0  0  0  0  0  0  0  0  0  0  0
    6.1610    4.4580   23.7720 N   0  0  0  0  0  0  0  0  0  0  0  0
    8.0690   -0.2910   21.7730 N   0  0  0  0  0  0  0  0  0  0  0  0
    8.9390   -1.2570   22.4610 C   0  0  2  0  0  0  0  0  0  0  0  0
    8.4210   -1.7020   23.8240 C   0  0  0  0  0  0  0  0  0  0  0  0
    7.7020   -2.9710   23.8070 N   0  0  0  0  0  0  0  0  0  0  0  0
    6.6180   -3.2840   24.5880 C   0  0  0  0  0  0  0  0  0  0  0  0
    6.2840   -4.5470   24.2460 C   0  0  0  0  0  0  0  0  0  0  0  0
    7.1250   -5.0080   23.2870 C   0  0  0  0  0  0  0  0  0  0  0  0
    8.0390   -4.0410   22.9770 N   0  0  0  0  0  0  0  0  0  0  0  0
   10.3700   -0.7090   22.5730 C   0  0  0  0  0  0  0  0  0  0  0  0
   10.4880    0.6590   22.8720 C   0  0  0  0  0  0  0  0  0  0  0  0
   11.8550    1.3060   22.9940 C   0  0  0  0  0  0  0  0  0  0  0  0
   13.0920    0.4490   22.8020 C   0  0  0  0  0  0  0  0  0  0  0  0
   12.9370   -0.9080   22.5110 C   0  0  0  0  0  0  0  0  0  0  0  0
   11.5130   -1.4980   22.3910 C   0  0  0  0  0  0  0  0  0  0  0  0
  1  2  2  0
  2  3  1  0
  3  4  1  0
  4  5  1  0
  5  6  2  0
  6  7  1  0
  7  8  2  0
  5  9  1  0
  8  9  1  0
  2 10  1  0
 10 11  1  0
 11 12  1  1
 12 13  1  0
 13 14  1  0
 14 15  2  0
 15 16  1  0
 13 17  1  0
 16 17  2  0
 11 18  1  0
 18 19  2  0
 19 20  1  0
 20 21  2  0
 21 22  1  0
 18 23  1  0
 22 23  2  0
M  END
