BAR-COM-4e090d3a-16
     RDKit          3D

 26 29  0  0  0  0  0  0  0  0999 V2000
    7.5470   -0.3120   27.0140 C   0  0  0  0  0  0  0  0  0  0  0  0
    8.1750   -0.4570   25.6040 C   0  0  0  0  0  0  0  0  0  0  0  0
    7.9820   -1.6860   25.0100 C   0  0  0  0  0  0  0  0  0  0  0  0
    6.8140   -2.4960   25.0820 N   0  0  0  0  0  0  0  0  0  0  0  0
    7.1890   -3.5480   24.3470 N   0  0  0  0  0  0  0  0  0  0  0  0
    8.4770   -3.4210   23.8560 N   0  0  0  0  0  0  0  0  0  0  0  0
    9.0430   -2.2450   24.2460 N   0  0  0  0  0  0  0  0  0  0  0  0
   10.3970   -1.9200   23.8280 C   0  0  0  0  0  0  0  0  0  0  0  0
   11.5220   -1.7860   24.6330 C   0  0  0  0  0  0  0  0  0  0  0  0
   12.8820   -1.4610   24.0910 C   0  0  0  0  0  0  0  0  0  0  0  0
   12.9340   -1.3040   22.6310 C   0  0  0  0  0  0  0  0  0  0  0  0
   11.7420   -1.4750   21.9400 C   0  0  0  0  0  0  0  0  0  0  0  0
   10.5410   -1.7490   22.5060 C   0  0  0  0  0  0  0  0  0  0  0  0
    9.3690   -1.8770   21.7920 N   0  0  0  0  0  0  0  0  0  0  0  0
    8.5870   -0.7800   21.5690 C   0  0  0  0  0  0  0  0  0  0  0  0
    8.9940    0.5540   21.4010 O   0  0  0  0  0  0  0  0  0  0  0  0
    7.2460   -1.0710   21.5270 C   0  0  0  0  0  0  0  0  0  0  0  0
    6.4310   -0.2570   20.8160 C   0  0  0  0  0  0  0  0  0  0  0  0
    5.2440    0.4750   21.4420 C   0  0  0  0  0  0  0  0  0  0  0  0
    4.3530    1.3170   20.8910 N   0  0  0  0  0  0  0  0  0  0  0  0
    4.5160    1.5520   19.6190 C   0  0  0  0  0  0  0  0  0  0  0  0
    5.5230    0.9830   18.9100 C   0  0  0  0  0  0  0  0  0  0  0  0
    5.5960    1.4100   17.2520 Br  0  0  0  0  0  0  0  0  0  0  0  0
    6.5510    0.0460   19.4240 C   0  0  0  0  0  0  0  0  0  0  0  0
    6.7250   -2.3890   22.0760 C   0  0  0  0  0  0  0  0  0  0  0  0
    6.6720   -1.2610   22.9220 C   0  0  0  0  0  0  0  0  0  0  0  0
  1  2  1  0
  2  3  1  0
  3  4  2  0
  4  5  1  0
  5  6  2  0
  3  7  1  0
  6  7  1  0
  7  8  1  0
  8  9  2  0
  9 10  1  0
 10 11  2  0
 11 12  1  0
  8 13  1  0
 12 13  2  0
 13 14  1  0
 14 15  1  0
 15 16  2  0
 17 15  1  0
 17 18  1  0
 18 19  2  0
 19 20  1  0
 20 21  2  0
 21 22  1  0
 22 23  1  0
 18 24  1  0
 22 24  2  0
 17 25  1  0
 17 26  1  0
 25 26  1  0
M  END
