BAR-COM-4e090d3a-35
     RDKit          3D

 25 27  0  0  0  0  0  0  0  0999 V2000
    7.6190   -0.2730   20.9950 O   0  0  0  0  0  0  0  0  0  0  0  0
    7.5950   -1.2550   21.7360 C   0  0  0  0  0  0  0  0  0  0  0  0
    6.4340   -1.6590   22.4010 C   0  0  0  0  0  0  0  0  0  0  0  0
    6.5510   -3.0050   22.8770 C   0  0  0  0  0  0  0  0  0  0  0  0
    7.0670   -4.3630   22.6680 C   0  0  0  0  0  0  0  0  0  0  0  0
    6.7940   -5.4380   23.6640 C   0  0  0  0  0  0  0  0  0  0  0  0
    6.0280   -5.1580   24.8250 C   0  0  0  0  0  0  0  0  0  0  0  0
    5.4850   -3.7820   25.0820 N   0  0  0  0  0  0  0  0  0  0  0  0
    5.7540   -2.7110   24.0990 C   0  0  0  0  0  0  0  0  0  0  0  0
    5.0000   -1.0210   24.5690 Br  0  0  0  0  0  0  0  0  0  0  0  0
    8.7070   -2.0210   22.0140 N   0  0  0  0  0  0  0  0  0  0  0  0
    9.8660   -1.2560   22.2840 C   0  0  0  0  0  0  0  0  0  0  0  0
    9.4350   -0.0760   22.8450 C   0  0  0  0  0  0  0  0  0  0  0  0
   10.4280    0.9670   23.2260 C   0  0  0  0  0  0  0  0  0  0  0  0
   11.7420    0.7060   23.0160 C   0  0  0  0  0  0  0  0  0  0  0  0
   12.1680   -0.4860   22.4440 C   0  0  0  0  0  0  0  0  0  0  0  0
   13.4370   -0.5720   22.2760 O   0  0  0  0  0  0  0  0  0  0  0  0
   13.5560    0.6470   22.9540 C   0  0  0  0  0  0  0  0  0  0  0  0
   12.3030    1.2830   22.8350 C   0  0  0  0  0  0  0  0  0  0  0  0
   12.2260    2.7530   22.7040 N   0  0  0  0  0  0  0  0  0  0  0  0
   13.2110    3.6820   22.6000 C   0  0  0  0  0  0  0  0  0  0  0  0
   12.6000    5.0290   22.4840 N   0  0  0  0  0  0  0  0  0  0  0  0
   11.2040    4.6390   22.5410 C   0  0  0  0  0  0  0  0  0  0  0  0
   10.9920    3.3340   22.6690 N   0  0  0  0  0  0  0  0  0  0  0  0
   11.1930   -1.5530   22.0450 C   0  0  0  0  0  0  0  0  0  0  0  0
  1  2  2  0
  2  3  1  0
  3  4  1  0
  4  5  2  0
  5  6  1  0
  6  7  2  0
  7  8  1  0
  4  9  1  0
  8  9  2  0
  9 10  1  0
  2 11  1  0
 11 12  1  0
 12 13  2  0
 13 14  1  0
 14 15  2  0
 15 16  1  0
 16 17  1  0
 17 18  1  0
 18 19  1  0
 19 20  1  0
 20 21  1  0
 21 22  2  0
 22 23  1  0
 20 24  1  0
 23 24  2  0
 12 25  1  0
 16 25  2  0
M  END
