BAR-COM-4e090d3a-32
     RDKit          3D

 32 36  0  0  0  0  0  0  0  0999 V2000
    3.3960    2.1980   19.3950 C   0  0  0  0  0  0  0  0  0  0  0  0
    4.5950    1.4880   19.2460 C   0  0  0  0  0  0  0  0  0  0  0  0
    5.1430    1.2510   17.9890 C   0  0  0  0  0  0  0  0  0  0  0  0
    6.2620    0.5840   17.7600 N   0  0  0  0  0  0  0  0  0  0  0  0
    6.8410    0.1510   18.9200 C   0  0  0  0  0  0  0  0  0  0  0  0
    6.4550    0.3030   20.1940 C   0  0  0  0  0  0  0  0  0  0  0  0
    7.1040   -0.1500   21.3090 N   0  0  0  0  0  0  0  0  0  0  0  0
    6.9930   -1.5860   21.6170 C   0  0  0  0  0  0  0  0  0  0  0  0
    6.0010   -1.8670   22.5830 C   0  0  0  0  0  0  0  0  0  0  0  0
    5.2870   -3.0010   22.6550 N   0  0  0  0  0  0  0  0  0  0  0  0
    4.4580   -2.8380   23.7310 C   0  0  0  0  0  0  0  0  0  0  0  0
    4.6830   -1.5980   24.3000 C   0  0  0  0  0  0  0  0  0  0  0  0
    5.6400   -0.9870   23.5930 N   0  0  0  0  0  0  0  0  0  0  0  0
    8.1930    0.7360   21.7870 C   0  0  0  0  0  0  0  0  0  0  0  0
    8.8590    1.5570   20.9300 O   0  0  0  0  0  0  0  0  0  0  0  0
    8.6200    0.9010   23.1130 C   0  0  0  0  0  0  0  0  0  0  0  0
    9.9900    1.2050   23.0290 N   0  0  0  0  0  0  0  0  0  0  0  0
   11.0420    0.3450   23.1240 C   0  0  0  0  0  0  0  0  0  0  0  0
   10.7890   -0.9820   23.3740 C   0  0  0  0  0  0  0  0  0  0  0  0
    9.3610   -1.8510   23.1270 S   0  0  0  0  0  0  0  0  0  0  0  0
   10.1430   -3.1870   23.8070 C   0  0  0  0  0  0  0  0  0  0  0  0
   11.4020   -3.0510   24.1950 N   0  0  0  0  0  0  0  0  0  0  0  0
   11.8190   -1.7630   23.9540 C   0  0  0  0  0  0  0  0  0  0  0  0
   13.1140   -1.4160   24.3020 C   0  0  0  0  0  0  0  0  0  0  0  0
   12.2190    0.9200   22.9880 N   0  0  0  0  0  0  0  0  0  0  0  0
   11.9270    2.2480   22.8260 C   0  0  0  0  0  0  0  0  0  0  0  0
   12.8070    3.3940   22.6470 C   0  0  0  0  0  0  0  0  0  0  0  0
   12.2660    4.6680   22.5150 C   0  0  0  0  0  0  0  0  0  0  0  0
   10.8850    4.8410   22.5510 C   0  0  0  0  0  0  0  0  0  0  0  0
   10.0200    3.7510   22.7120 C   0  0  0  0  0  0  0  0  0  0  0  0
   10.5390    2.4680   22.8500 C   0  0  0  0  0  0  0  0  0  0  0  0
    5.2650    1.0060   20.3490 C   0  0  0  0  0  0  0  0  0  0  0  0
  1  2  1  0
  2  3  2  0
  3  4  1  0
  4  5  2  0
  5  6  1  0
  6  7  1  0
  7  8  1  0
  8  9  1  0
  9 10  2  0
 10 11  1  0
 11 12  2  0
  9 13  1  0
 12 13  1  0
  7 14  1  0
 14 15  2  0
 14 16  1  0
 16 17  1  0
 17 18  1  0
 18 19  1  0
 19 20  1  0
 20 21  1  0
 21 22  2  0
 19 23  2  0
 22 23  1  0
 23 24  1  0
 18 25  2  0
 25 26  1  0
 26 27  2  0
 27 28  1  0
 28 29  2  0
 29 30  1  0
 17 31  1  0
 26 31  1  0
 30 31  2  0
  2 32  1  0
  6 32  2  0
M  END
