BAR-COM-4e090d3a-33
     RDKit          3D

 27 30  0  0  0  0  0  0  0  0999 V2000
   13.3110   -2.2150   25.0790 C   0  0  0  0  0  0  0  0  0  0  0  0
   13.0830   -0.7960   23.9850 S   0  0  0  0  0  0  0  0  0  0  0  0
   12.2880   -1.7540   22.6970 C   0  0  0  0  0  0  0  0  0  0  0  0
   11.1390   -1.1280   22.2880 C   0  0  0  0  0  0  0  0  0  0  0  0
   10.0100   -1.0460   21.6200 N   0  0  0  0  0  0  0  0  0  0  0  0
    9.5970    0.4140   22.1390 C   0  0  0  0  0  0  0  0  0  0  0  0
    8.4770    1.3040   21.9100 C   0  0  0  0  0  0  0  0  0  0  0  0
    8.5150    2.8300   22.0680 C   0  0  0  0  0  0  0  0  0  0  0  0
    9.8040    2.7700   22.0960 C   0  0  0  0  0  0  0  0  0  0  0  0
    9.9320    1.9610   23.3000 C   0  0  0  0  0  0  0  0  0  0  0  0
   10.5380    0.8400   23.1320 C   0  0  0  0  0  0  0  0  0  0  0  0
   10.4890   -0.0840   22.4620 N   0  0  0  0  0  0  0  0  0  0  0  0
    9.3680   -0.0740   21.5520 C   0  0  0  0  0  0  0  0  0  0  0  0
    8.1130   -0.5780   21.7880 C   0  0  0  0  0  0  0  0  0  0  0  0
    7.4950   -0.4270   22.8100 O   0  0  0  0  0  0  0  0  0  0  0  0
    7.6800   -1.2650   20.6640 N   0  0  0  0  0  0  0  0  0  0  0  0
    6.6580   -0.7190   19.7630 C   0  0  1  0  0  0  0  0  0  0  0  0
    5.3490   -0.8740   20.2280 C   0  0  0  0  0  0  0  0  0  0  0  0
    4.7500    0.2900   20.7220 C   0  0  0  0  0  0  0  0  0  0  0  0
    5.9120    1.1180   20.8570 O   0  0  0  0  0  0  0  0  0  0  0  0
    6.6370    0.7930   19.6570 C   0  0  2  0  0  0  0  0  0  0  0  0
    5.8300    1.2760   18.6770 C   0  0  0  0  0  0  0  0  0  0  0  0
    4.8310    1.9900   18.0260 C   0  0  0  0  0  0  0  0  0  0  0  0
    3.8290    2.9490   18.5000 C   0  0  0  0  0  0  0  0  0  0  0  0
    3.6580    3.3660   19.7150 N   0  0  0  0  0  0  0  0  0  0  0  0
    4.5640    2.7670   20.4200 C   0  0  0  0  0  0  0  0  0  0  0  0
    5.5310    1.8410   19.9820 C   0  0  0  0  0  0  0  0  0  0  0  0
  1  2  1  0
  2  3  1  0
  3  4  1  0
  4  5  2  0
  5  6  1  0
  6  7  2  0
  7  8  1  0
  8  9  2  0
  9 10  1  0
  6 11  1  0
 10 11  2  0
  4 12  1  0
 11 12  1  0
 12 13  1  0
 13 14  1  0
 14 15  2  0
 14 16  1  0
 17 16  1  1
 17 18  1  0
 18 19  1  0
 19 20  1  0
 17 21  1  0
 20 21  1  0
 21 22  1  6
 22 23  2  0
 23 24  1  0
 24 25  2  0
 25 26  1  0
 22 27  1  0
 26 27  2  0
M  END
