BAR-COM-4e090d3a-59
     RDKit          3D

 28 30  0  0  0  0  0  0  0  0999 V2000
    4.5570    2.4180   18.1320 C   0  0  0  0  0  0  0  0  0  0  0  0
    5.5250    1.5590   17.6320 C   0  0  0  0  0  0  0  0  0  0  0  0
    6.0890    1.6930   16.6050 O   0  0  0  0  0  0  0  0  0  0  0  0
    5.8170    0.4720   18.4810 N   0  0  0  0  0  0  0  0  0  0  0  0
    4.5270    0.0500   18.9010 C   0  0  0  0  0  0  0  0  0  0  0  0
    4.4090    0.7210   20.1900 C   0  0  0  0  0  0  0  0  0  0  0  0
    5.7890    1.1490   20.5240 C   0  0  0  0  0  0  0  0  0  0  0  0
    6.6210    0.5490   19.5480 C   0  0  1  0  0  0  0  0  0  0  0  0
    7.1560   -0.6580   19.8800 C   0  0  0  0  0  0  0  0  0  0  0  0
    7.4120   -1.4100   18.6780 O   0  0  0  0  0  0  0  0  0  0  0  0
    7.3710   -1.0330   21.1880 N   0  0  0  0  0  0  0  0  0  0  0  0
    8.3130   -0.2420   21.9780 C   0  0  0  0  0  0  0  0  0  0  0  0
    9.2280   -1.0830   22.6020 C   0  0  2  0  0  0  0  0  0  0  0  0
    8.8330   -1.3960   23.9940 N   0  0  0  0  0  0  0  0  0  0  0  0
    7.6200   -2.2230   24.0970 C   0  0  0  0  0  0  0  0  0  0  0  0
    6.5470   -1.9360   24.6450 O   0  0  0  0  0  0  0  0  0  0  0  0
    7.6060   -3.4940   23.5480 C   0  0  0  0  0  0  0  0  0  0  0  0
    6.5470   -4.3120   24.1590 N   0  0  0  0  0  0  0  0  0  0  0  0
    5.9700   -5.4670   23.5030 C   0  0  0  0  0  0  0  0  0  0  0  0
    5.0630   -5.9480   24.3250 N   0  0  0  0  0  0  0  0  0  0  0  0
    5.1130   -5.1070   25.4180 C   0  0  0  0  0  0  0  0  0  0  0  0
    5.9970   -4.0950   25.3660 N   0  0  0  0  0  0  0  0  0  0  0  0
   10.5340   -0.6310   22.6580 C   0  0  0  0  0  0  0  0  0  0  0  0
   10.7370    0.7130   22.9170 C   0  0  0  0  0  0  0  0  0  0  0  0
   12.0030    1.2760   22.9960 C   0  0  0  0  0  0  0  0  0  0  0  0
   13.1060    0.4680   22.8170 C   0  0  0  0  0  0  0  0  0  0  0  0
   12.9270   -0.9040   22.5520 C   0  0  0  0  0  0  0  0  0  0  0  0
   11.6500   -1.4540   22.4710 C   0  0  0  0  0  0  0  0  0  0  0  0
  1  2  1  0
  2  3  2  0
  2  4  1  0
  4  5  1  0
  5  6  1  0
  6  7  1  0
  4  8  1  0
  7  8  1  0
  8  9  1  1
  9 10  2  0
  9 11  1  0
 11 12  1  0
 13 12  1  1
 13 14  1  0
 14 15  1  0
 15 16  2  0
 15 17  1  0
 17 18  1  0
 18 19  1  0
 19 20  2  0
 20 21  1  0
 18 22  1  0
 21 22  2  0
 13 23  1  0
 23 24  2  0
 24 25  1  0
 25 26  2  0
 26 27  1  0
 23 28  1  0
 27 28  2  0
M  END
