BAR-COM-21d20d65-1
     RDKit          3D

 24 26  0  0  0  0  0  0  0  0999 V2000
   11.9890   -4.1800   19.9050 N   0  0  0  0  0  0  0  0  0  0  0  0
   13.0220   -3.8620   20.5570 C   0  0  0  0  0  0  0  0  0  0  0  0
   13.0060   -2.4300   21.1430 C   0  0  2  0  0  0  0  0  0  0  0  0
   13.7240   -1.6160   20.5840 O   0  0  0  0  0  0  0  0  0  0  0  0
   13.2130   -2.4880   22.6470 C   0  0  0  0  0  0  0  0  0  0  0  0
   13.3720   -1.2070   23.0760 C   0  0  0  0  0  0  0  0  0  0  0  0
   12.2430   -0.4750   23.1470 C   0  0  0  0  0  0  0  0  0  0  0  0
   12.2770    0.8120   23.5820 C   0  0  0  0  0  0  0  0  0  0  0  0
   11.1660    1.5760   23.6860 C   0  0  0  0  0  0  0  0  0  0  0  0
    9.9160    1.0930   23.3490 C   0  0  0  0  0  0  0  0  0  0  0  0
    9.8400   -0.3280   22.8460 C   0  0  0  0  0  0  0  0  0  0  0  0
    8.6770   -0.8740   22.4780 N   0  0  0  0  0  0  0  0  0  0  0  0
    8.0950   -0.1780   21.4970 C   0  0  0  0  0  0  0  0  0  0  0  0
    8.5000    0.9110   21.1080 O   0  0  0  0  0  0  0  0  0  0  0  0
    6.9890   -0.8090   20.9950 N   0  0  0  0  0  0  0  0  0  0  0  0
    6.3250   -0.0810   20.0760 C   0  0  0  0  0  0  0  0  0  0  0  0
    5.1420    0.6490   20.3060 C   0  0  0  0  0  0  0  0  0  0  0  0
    4.6300    1.3400   19.2160 C   0  0  0  0  0  0  0  0  0  0  0  0
    5.2220    1.3280   17.9740 C   0  0  0  0  0  0  0  0  0  0  0  0
    6.3410    0.6400   17.7270 N   0  0  0  0  0  0  0  0  0  0  0  0
    6.8560   -0.0420   18.7800 C   0  0  0  0  0  0  0  0  0  0  0  0
   11.0270   -1.0490   22.7720 C   0  0  0  0  0  0  0  0  0  0  0  0
   14.1470   -4.8580   20.8420 C   0  0  0  0  0  0  0  0  0  0  0  0
   14.1810   -4.1870   19.7380 C   0  0  0  0  0  0  0  0  0  0  0  0
  2  1  1  0
  2  3  1  0
  3  4  1  6
  3  5  1  0
  5  6  1  0
  6  7  1  0
  7  8  2  0
  8  9  1  0
  9 10  2  0
 10 11  1  0
 11 12  1  0
 12 13  1  0
 13 14  2  0
 13 15  1  0
 15 16  1  0
 16 17  2  0
 17 18  1  0
 18 19  2  0
 19 20  1  0
 16 21  1  0
 20 21  2  0
  7 22  1  0
 11 22  2  0
  2 23  1  0
  2 24  1  0
 23 24  1  0
M  END
