BEN-VAN-d8fd1356-26
     RDKit          3D

 23 25  0  0  0  0  0  0  0  0999 V2000
   12.8600    4.9340   22.8870 C   0  0  0  0  0  0  0  0  0  0  0  0
   11.6500    4.0890   23.2820 C   0  0  0  0  0  0  0  0  0  0  0  0
   11.7860    2.7090   23.1730 C   0  0  0  0  0  0  0  0  0  0  0  0
   10.5310    2.6800   23.8420 C   0  0  0  0  0  0  0  0  0  0  0  0
    9.8990    1.5570   24.1460 N   0  0  0  0  0  0  0  0  0  0  0  0
   10.6460    0.5890   23.7140 C   0  0  0  0  0  0  0  0  0  0  0  0
   10.4580   -0.7970   23.7570 C   0  0  0  0  0  0  0  0  0  0  0  0
    9.3120   -1.2760   24.3270 O   0  0  0  0  0  0  0  0  0  0  0  0
    8.4860   -2.0800   23.4700 C   0  0  0  0  0  0  0  0  0  0  0  0
    8.6590   -1.6620   22.1930 C   0  0  0  0  0  0  0  0  0  0  0  0
    8.1990   -0.9530   21.1280 C   0  0  0  0  0  0  0  0  0  0  0  0
    6.7690   -0.8330   21.3040 N   0  0  0  0  0  0  0  0  0  0  0  0
    6.0870   -0.4700   20.1400 C   0  0  0  0  0  0  0  0  0  0  0  0
    5.4010   -1.4560   19.4530 C   0  0  0  0  0  0  0  0  0  0  0  0
    6.0960    0.6860   19.7140 O   0  0  0  0  0  0  0  0  0  0  0  0
    6.1950   -1.7040   22.3670 C   0  0  0  0  0  0  0  0  0  0  0  0
    7.0010   -1.7650   23.7050 C   0  0  0  0  0  0  0  0  0  0  0  0
   11.4690   -1.5780   23.1920 C   0  0  0  0  0  0  0  0  0  0  0  0
   12.5780   -0.9750   22.6290 C   0  0  0  0  0  0  0  0  0  0  0  0
   13.5260   -1.7440   22.0880 F   0  0  0  0  0  0  0  0  0  0  0  0
   12.6840    0.4100   22.6300 C   0  0  0  0  0  0  0  0  0  0  0  0
   13.9570    1.2820   21.9950 Cl  0  0  0  0  0  0  0  0  0  0  0  0
   11.7490    1.2320   23.1530 C   0  0  0  0  0  0  0  0  0  0  0  0
  1  2  1  0
  2  3  1  0
  3  4  2  0
  4  5  1  0
  5  6  1  0
  6  7  1  0
  7  8  1  0
  8  9  1  0
  9 10  1  0
 10 11  1  0
 11 12  1  0
 12 13  1  0
 13 14  1  0
 13 15  2  0
 12 16  1  0
  9 17  1  0
 16 17  1  0
  7 18  2  0
 18 19  1  0
 19 20  1  0
 19 21  2  0
 21 22  1  0
  3 23  1  0
  6 23  2  0
 21 23  1  0
M  END
