BEN-DND-362d364a-12
     RDKit          3D

 22 23  0  0  0  0  0  0  0  0999 V2000
    7.1130    7.3850   20.9920 C   0  0  0  0  0  0  0  0  0  0  0  0
    6.8540    7.6700   22.7060 S   0  0  0  0  0  0  0  0  0  0  0  0
    5.4390    7.8540   22.9410 O   0  0  0  0  0  0  0  0  0  0  0  0
    7.8050    8.6630   23.1520 O   0  0  0  0  0  0  0  0  0  0  0  0
    7.3300    6.2750   23.5570 N   0  0  0  0  0  0  0  0  0  0  0  0
    8.6810    5.8200   23.3010 C   0  0  0  0  0  0  0  0  0  0  0  0
    8.8140    4.4260   23.1700 C   0  0  2  0  0  0  0  0  0  0  0  0
    8.1240    3.6570   24.0980 C   0  0  0  0  0  0  0  0  0  0  0  0
    8.0110    3.9870   25.2730 O   0  0  0  0  0  0  0  0  0  0  0  0
    7.5410    2.4350   23.4930 N   0  0  0  0  0  0  0  0  0  0  0  0
    7.4200    1.3630   24.4950 C   0  0  0  0  0  0  0  0  0  0  0  0
    8.5590    1.0090   25.2330 C   0  0  0  0  0  0  0  0  0  0  0  0
    8.4490   -0.0610   26.2400 C   0  0  0  0  0  0  0  0  0  0  0  0
    7.2570   -0.6830   26.4340 C   0  0  0  0  0  0  0  0  0  0  0  0
    6.1370   -0.3100   25.6810 N   0  0  0  0  0  0  0  0  0  0  0  0
    6.2350    0.6760   24.7540 C   0  0  0  0  0  0  0  0  0  0  0  0
   10.3160    4.1480   23.0210 C   0  0  0  0  0  0  0  0  0  0  0  0
   11.6150    3.6410   22.9420 C   0  0  0  0  0  0  0  0  0  0  0  0
   13.0000    3.5960   22.7630 C   0  0  0  0  0  0  0  0  0  0  0  0
   12.0320    2.6700   23.0680 C   0  0  0  0  0  0  0  0  0  0  0  0
   11.2770    1.7660   23.3400 C   0  0  0  0  0  0  0  0  0  0  0  0
    9.8720    2.6000   23.3710 C   0  0  0  0  0  0  0  0  0  0  0  0
  1  2  1  0
  2  3  2  0
  2  4  2  0
  2  5  1  0
  5  6  1  0
  7  6  1  1
  7  8  1  0
  8  9  2  0
  8 10  1  0
 10 11  1  0
 11 12  2  0
 12 13  1  0
 13 14  2  0
 14 15  1  0
 11 16  1  0
 15 16  2  0
  7 17  1  0
 17 18  2  0
 18 19  1  0
 19 20  2  0
 20 21  1  0
 17 22  1  0
 21 22  2  0
M  END
