BEN-VAN-5787f7d3-12
     RDKit          3D

 28 31  0  0  0  0  0  0  0  0999 V2000
    4.3380   -0.8360   24.6790 C   0  0  0  0  0  0  0  0  0  0  0  0
    5.2970   -0.4870   23.6090 C   0  0  0  0  0  0  0  0  0  0  0  0
    6.2250   -1.2600   23.2920 O   0  0  0  0  0  0  0  0  0  0  0  0
    6.3900   -1.5670   21.9550 C   0  0  0  0  0  0  0  0  0  0  0  0
    7.0340   -0.6010   20.8160 C   0  0  0  0  0  0  0  0  0  0  0  0
    7.1270   -0.9900   19.4680 N   0  0  0  0  0  0  0  0  0  0  0  0
    6.5910   -2.1520   19.6590 C   0  0  0  0  0  0  0  0  0  0  0  0
    6.8090   -1.2600   20.9350 C   0  0  0  0  0  0  0  0  0  0  0  0
    5.9890    0.0940   21.0620 C   0  0  0  0  0  0  0  0  0  0  0  0
    6.0270    1.0620   22.0170 N   0  0  0  0  0  0  0  0  0  0  0  0
    6.9780    0.7020   22.9910 C   0  0  0  0  0  0  0  0  0  0  0  0
    7.8140   -0.4360   23.0970 C   0  0  0  0  0  0  0  0  0  0  0  0
    7.7980   -1.5560   22.0390 C   0  0  0  0  0  0  0  0  0  0  0  0
    8.7210   -2.7520   22.1890 C   0  0  0  0  0  0  0  0  0  0  0  0
    6.0380   -3.1410   20.3800 C   0  0  0  0  0  0  0  0  0  0  0  0
    5.9070   -2.8800   21.6590 C   0  0  0  0  0  0  0  0  0  0  0  0
    5.3500   -3.7980   22.5440 C   0  0  0  0  0  0  0  0  0  0  0  0
    5.3780   -5.1680   22.2780 C   0  0  0  0  0  0  0  0  0  0  0  0
    4.8450   -6.1510   23.0910 C   0  0  0  0  0  0  0  0  0  0  0  0
    4.1770   -5.7140   24.3710 C   0  0  0  0  0  0  0  0  0  0  0  0
    4.1420   -4.2090   24.6770 C   0  0  0  0  0  0  0  0  0  0  0  0
    3.5800   -3.6950   25.7900 N   0  0  0  0  0  0  0  0  0  0  0  0
    2.2100   -3.6300   25.8410 C   0  0  0  0  0  0  0  0  0  0  0  0
    1.8220   -2.4780   26.8280 C   0  0  0  0  0  0  0  0  0  0  0  0
    3.1250   -1.8370   27.3160 C   0  0  0  0  0  0  0  0  0  0  0  0
    4.0760   -2.6650   26.5200 C   0  0  0  0  0  0  0  0  0  0  0  0
    5.2580   -2.3670   26.5690 O   0  0  0  0  0  0  0  0  0  0  0  0
    4.7370   -3.3570   23.7300 C   0  0  0  0  0  0  0  0  0  0  0  0
  1  2  1  0
  2  3  1  0
  3  4  1  0
  4  5  2  0
  5  6  1  0
  6  7  2  0
  7  8  1  0
  8  9  2  0
  9 10  1  0
 10 11  2  0
 11 12  1  0
  8 13  1  0
 12 13  2  0
 13 14  1  0
  7 15  1  0
  4 16  1  0
 15 16  2  0
 16 17  1  0
 17 18  2  0
 18 19  1  0
 19 20  2  0
 20 21  1  0
 21 22  1  0
 22 23  1  0
 23 24  1  0
 24 25  1  0
 22 26  1  0
 25 26  1  0
 26 27  2  0
 17 28  1  0
 21 28  2  0
M  END
