BEN-VAN-c986b20b-2
     RDKit          3D

 24 26  0  0  0  0  0  0  0  0999 V2000
    5.9940   -1.9640   18.8700 C   0  0  0  0  0  0  0  0  0  0  0  0
    5.8210   -2.9720   19.9760 C   0  0  0  0  0  0  0  0  0  0  0  0
    5.3330   -4.0870   19.7660 O   0  0  0  0  0  0  0  0  0  0  0  0
    6.2940   -2.5580   21.2080 N   0  0  0  0  0  0  0  0  0  0  0  0
    6.3230   -3.5190   22.3060 C   0  0  0  0  0  0  0  0  0  0  0  0
    7.2340   -3.2110   23.3150 C   0  0  0  0  0  0  0  0  0  0  0  0
    8.5670   -2.9020   22.7640 N   0  0  0  0  0  0  0  0  0  0  0  0
    9.5660   -2.7200   23.8340 C   0  0  0  0  0  0  0  0  0  0  0  0
   10.3070   -1.5690   23.6430 C   0  0  0  0  0  0  0  0  0  0  0  0
    9.7090   -0.3420   24.1250 C   0  0  0  0  0  0  0  0  0  0  0  0
   10.2730    0.8540   23.9510 C   0  0  0  0  0  0  0  0  0  0  0  0
   11.5170    1.0400   23.2730 C   0  0  0  0  0  0  0  0  0  0  0  0
   11.7070    2.3630   23.2030 C   0  0  0  0  0  0  0  0  0  0  0  0
   12.8140    3.1760   22.6990 C   0  0  0  0  0  0  0  0  0  0  0  0
   12.6400    4.5730   22.7110 C   0  0  0  0  0  0  0  0  0  0  0  0
   13.6930    5.5200   22.1730 C   0  0  0  0  0  0  0  0  0  0  0  0
   11.4240    5.2330   23.2320 N   0  0  0  0  0  0  0  0  0  0  0  0
   10.4460    4.2750   23.7050 C   0  0  0  0  0  0  0  0  0  0  0  0
   10.5800    2.9500   23.6860 N   0  0  0  0  0  0  0  0  0  0  0  0
   12.2180   -0.1270   22.8130 C   0  0  0  0  0  0  0  0  0  0  0  0
   13.4020   -0.1330   22.1850 F   0  0  0  0  0  0  0  0  0  0  0  0
   11.5530   -1.4900   23.0170 C   0  0  0  0  0  0  0  0  0  0  0  0
    8.4820   -1.7980   21.7630 C   0  0  0  0  0  0  0  0  0  0  0  0
    7.1990   -1.4050   21.3640 C   0  0  0  0  0  0  0  0  0  0  0  0
  1  2  1  0
  2  3  2  0
  2  4  1  0
  4  5  1  0
  5  6  1  0
  6  7  1  0
  7  8  1  0
  8  9  1  0
  9 10  2  0
 10 11  1  0
 11 12  2  0
 12 13  1  0
 13 14  2  0
 14 15  1  0
 15 16  1  0
 15 17  2  0
 17 18  1  0
 13 19  1  0
 18 19  2  0
 12 20  1  0
 20 21  1  0
  9 22  1  0
 20 22  2  0
  7 23  1  0
  4 24  1  0
 23 24  1  0
M  END
