BEN-VAN-ed886787-17
     RDKit          3D

 33 35  0  0  0  0  0  0  0  0999 V2000
    5.5720   -1.1760   18.2750 C   0  0  0  0  0  0  0  0  0  0  0  0
    5.2730    0.2840   18.4800 C   0  0  0  0  0  0  0  0  0  0  0  0
    4.0900    0.4810   19.3170 N   0  0  0  0  0  0  0  0  0  0  0  0
    4.1850    1.4050   20.3720 C   0  0  0  0  0  0  0  0  0  0  0  0
    4.1460    2.7550   20.0360 C   0  0  0  0  0  0  0  0  0  0  0  0
    4.2430    3.6090   21.1320 C   0  0  0  0  0  0  0  0  0  0  0  0
    4.3700    3.2640   22.4810 C   0  0  0  0  0  0  0  0  0  0  0  0
    4.4560    4.1700   23.4660 F   0  0  0  0  0  0  0  0  0  0  0  0
    4.3970    1.8530   22.6730 C   0  0  0  0  0  0  0  0  0  0  0  0
    4.5370    1.3840   24.1300 C   0  0  0  0  0  0  0  0  0  0  0  0
    5.2990    0.0840   24.2540 C   0  0  0  0  0  0  0  0  0  0  0  0
    5.7540   -0.5160   23.0880 C   0  0  0  0  0  0  0  0  0  0  0  0
    6.4650   -1.7050   23.0950 C   0  0  0  0  0  0  0  0  0  0  0  0
    6.8470   -2.1530   21.8370 N   0  0  0  0  0  0  0  0  0  0  0  0
    7.1380   -1.0750   20.8910 C   0  0  0  0  0  0  0  0  0  0  0  0
    8.0770   -0.1850   21.4030 C   0  0  0  0  0  0  0  0  0  0  0  0
    8.2580    0.9190   20.8910 O   0  0  0  0  0  0  0  0  0  0  0  0
    8.7610   -0.6880   22.4830 N   0  0  0  0  0  0  0  0  0  0  0  0
   10.1580   -0.3640   22.6080 C   0  0  0  0  0  0  0  0  0  0  0  0
   10.4130    0.9780   23.2440 C   0  0  0  0  0  0  0  0  0  0  0  0
   11.9560    0.9970   23.1400 C   0  0  0  0  0  0  0  0  0  0  0  0
   12.8440    0.0920   22.6620 C   0  0  0  0  0  0  0  0  0  0  0  0
   12.3620   -1.0570   22.1490 C   0  0  0  0  0  0  0  0  0  0  0  0
   13.1930   -2.0590   21.5810 C   0  0  0  0  0  0  0  0  0  0  0  0
   12.4590   -2.7460   20.7310 F   0  0  0  0  0  0  0  0  0  0  0  0
   13.7190   -2.8820   22.5190 F   0  0  0  0  0  0  0  0  0  0  0  0
   14.0940   -1.5320   20.7480 F   0  0  0  0  0  0  0  0  0  0  0  0
   11.0310   -1.2840   22.1210 C   0  0  0  0  0  0  0  0  0  0  0  0
    6.7370   -2.3290   24.3130 C   0  0  0  0  0  0  0  0  0  0  0  0
    6.2940   -1.7540   25.5030 C   0  0  0  0  0  0  0  0  0  0  0  0
    5.5760   -0.5490   25.4790 C   0  0  0  0  0  0  0  0  0  0  0  0
    5.0700    0.0880   27.0040 Cl  0  0  0  0  0  0  0  0  0  0  0  0
    4.3090    0.9690   21.6470 N   0  0  0  0  0  0  0  0  0  0  0  0
  1  2  1  0
  2  3  1  0
  3  4  1  0
  4  5  2  0
  5  6  1  0
  6  7  2  0
  7  8  1  0
  7  9  1  0
  9 10  1  0
 10 11  1  0
 11 12  2  0
 12 13  1  0
 13 14  1  0
 14 15  1  0
 15 16  1  0
 16 17  2  0
 16 18  1  0
 18 19  1  0
 19 20  2  0
 20 21  1  0
 21 22  2  0
 22 23  1  0
 23 24  1  0
 24 25  1  0
 24 26  1  0
 24 27  1  0
 19 28  1  0
 23 28  2  0
 13 29  2  0
 29 30  1  0
 11 31  1  0
 30 31  2  0
 31 32  1  0
  4 33  1  0
  9 33  2  0
M  END
