BEN-VAN-c986b20b-18
     RDKit          3D

 29 31  0  0  0  0  0  0  0  0999 V2000
   10.3940    6.0600   24.3060 C   0  0  0  0  0  0  0  0  0  0  0  0
   11.3180    5.0670   23.7210 C   0  0  0  0  0  0  0  0  0  0  0  0
   11.1420    3.7500   23.7490 C   0  0  0  0  0  0  0  0  0  0  0  0
   12.1090    2.7810   23.1510 C   0  0  0  0  0  0  0  0  0  0  0  0
   11.7490    1.2860   23.2500 C   0  0  0  0  0  0  0  0  0  0  0  0
   10.4420    1.0680   23.9670 C   0  0  0  0  0  0  0  0  0  0  0  0
    9.7890   -0.2950   24.1430 C   0  0  0  0  0  0  0  0  0  0  0  0
   10.5770   -1.4460   23.5260 C   0  0  0  0  0  0  0  0  0  0  0  0
    9.8900   -2.6090   23.6560 C   0  0  0  0  0  0  0  0  0  0  0  0
    8.6080   -2.1300   23.1690 N   0  0  0  0  0  0  0  0  0  0  0  0
    7.4470   -2.9720   23.4820 C   0  0  0  0  0  0  0  0  0  0  0  0
    6.2130   -2.2670   22.9840 C   0  0  0  0  0  0  0  0  0  0  0  0
    6.2200   -2.0210   21.6410 N   0  0  0  0  0  0  0  0  0  0  0  0
    5.4250   -2.9110   20.9490 C   0  0  0  0  0  0  0  0  0  0  0  0
    4.5450   -3.5150   21.5320 O   0  0  0  0  0  0  0  0  0  0  0  0
    5.6010   -3.1860   19.6370 C   0  0  0  0  0  0  0  0  0  0  0  0
    5.7100   -4.6200   19.6680 O   0  0  0  0  0  0  0  0  0  0  0  0
    6.0300   -5.0970   20.9960 C   0  0  0  0  0  0  0  0  0  0  0  0
    6.6220   -4.1390   21.7100 F   0  0  0  0  0  0  0  0  0  0  0  0
    4.9290   -5.4980   21.6570 F   0  0  0  0  0  0  0  0  0  0  0  0
    6.8810   -6.1220   21.0010 F   0  0  0  0  0  0  0  0  0  0  0  0
    7.4160   -1.4680   21.1760 C   0  0  0  0  0  0  0  0  0  0  0  0
    8.6580   -1.7700   21.7390 C   0  0  0  0  0  0  0  0  0  0  0  0
   11.8050   -1.3240   22.8950 C   0  0  0  0  0  0  0  0  0  0  0  0
   12.5130    0.0140   22.6990 C   0  0  0  0  0  0  0  0  0  0  0  0
   13.6740   -0.0360   22.0670 F   0  0  0  0  0  0  0  0  0  0  0  0
   13.2290    3.3290   22.5450 N   0  0  0  0  0  0  0  0  0  0  0  0
   13.2920    4.6990   22.5750 C   0  0  0  0  0  0  0  0  0  0  0  0
   12.4120    5.5640   23.1230 N   0  0  0  0  0  0  0  0  0  0  0  0
  1  2  1  0
  2  3  2  0
  3  4  1  0
  4  5  1  0
  5  6  2  0
  6  7  1  0
  7  8  2  0
  8  9  1  0
  9 10  1  0
 10 11  1  0
 11 12  1  0
 12 13  1  0
 13 14  1  0
 14 15  2  0
 14 16  1  0
 16 17  1  0
 17 18  1  0
 18 19  1  0
 18 20  1  0
 18 21  1  0
 13 22  1  0
 10 23  1  0
 22 23  1  0
  8 24  1  0
  5 25  1  0
 24 25  2  0
 25 26  1  0
  4 27  2  0
 27 28  1  0
  2 29  1  0
 28 29  2  0
M  END
