BEN-VAN-3ef6186a-1
     RDKit          3D

 26 29  0  0  0  0  0  0  0  0999 V2000
    8.3650    4.8570   24.8870 C   0  0  0  0  0  0  0  0  0  0  0  0
    7.8470    3.1600   25.0410 S   0  0  0  0  0  0  0  0  0  0  0  0
    9.2160    2.3310   24.3950 C   0  0  0  0  0  0  0  0  0  0  0  0
   10.4060    2.7310   23.7260 C   0  0  0  0  0  0  0  0  0  0  0  0
   11.1140    1.6360   23.4440 C   0  0  0  0  0  0  0  0  0  0  0  0
   12.2680    1.7140   22.8120 C   0  0  0  0  0  0  0  0  0  0  0  0
   12.5300    3.1170   22.4810 N   0  0  0  0  0  0  0  0  0  0  0  0
   13.6930    3.8470   22.5840 C   0  0  0  0  0  0  0  0  0  0  0  0
   11.4870    3.7900   21.8580 C   0  0  0  0  0  0  0  0  0  0  0  0
   12.9630    0.4700   22.5850 C   0  0  0  0  0  0  0  0  0  0  0  0
   12.3210   -0.8590   23.0400 C   0  0  0  0  0  0  0  0  0  0  0  0
   10.9940   -0.8370   23.7240 C   0  0  0  0  0  0  0  0  0  0  0  0
   10.3870   -2.0550   24.1290 O   0  0  0  0  0  0  0  0  0  0  0  0
    8.9970   -2.0470   24.0950 C   0  0  0  0  0  0  0  0  0  0  0  0
    8.2470   -3.1130   23.6310 C   0  0  0  0  0  0  0  0  0  0  0  0
    6.7510   -3.0350   23.6320 C   0  0  0  0  0  0  0  0  0  0  0  0
    5.9630   -4.2260   23.1250 C   0  0  0  0  0  0  0  0  0  0  0  0
    4.4630   -4.4180   23.2080 C   0  0  0  0  0  0  0  0  0  0  0  0
    4.1830   -5.6350   22.6310 N   0  0  0  0  0  0  0  0  0  0  0  0
    5.5280   -6.1210   22.2160 C   0  0  0  0  0  0  0  0  0  0  0  0
    6.5390   -5.2890   22.5170 N   0  0  0  0  0  0  0  0  0  0  0  0
    6.1500   -1.8830   24.0980 C   0  0  0  0  0  0  0  0  0  0  0  0
    6.9380   -0.7750   24.5760 C   0  0  0  0  0  0  0  0  0  0  0  0
    8.3270   -0.9140   24.5500 N   0  0  0  0  0  0  0  0  0  0  0  0
   10.4460    0.4280   23.9090 C   0  0  0  0  0  0  0  0  0  0  0  0
    9.2870    0.9290   24.4830 N   0  0  0  0  0  0  0  0  0  0  0  0
  1  2  1  0
  2  3  1  0
  3  4  2  0
  4  5  1  0
  5  6  2  0
  6  7  1  0
  7  8  1  0
  7  9  1  0
  6 10  1  0
 10 11  2  0
 11 12  1  0
 12 13  1  0
 13 14  1  0
 14 15  2  0
 15 16  1  0
 16 17  1  0
 17 18  2  0
 18 19  1  0
 19 20  2  0
 17 21  1  0
 20 21  1  0
 16 22  2  0
 22 23  1  0
 14 24  1  0
 23 24  2  0
  5 25  1  0
 12 25  2  0
  3 26  1  0
 25 26  1  0
M  END
