BEN-BAS-3b12fa42-1
     RDKit          3D

 30 33  0  0  0  0  0  0  0  0999 V2000
    8.7060    1.1890   21.0960 O   0  0  0  0  0  0  0  0  0  0  0  0
    8.3790    0.0780   21.5460 C   0  0  0  0  0  0  0  0  0  0  0  0
    7.1550   -0.6230   21.1960 N   0  0  0  0  0  0  0  0  0  0  0  0
    6.4850    0.0300   20.0770 C   0  0  0  0  0  0  0  0  0  0  0  0
    5.3430    0.8090   20.3420 C   0  0  0  0  0  0  0  0  0  0  0  0
    4.6740    1.4620   19.2860 C   0  0  0  0  0  0  0  0  0  0  0  0
    5.1480    1.3270   18.0500 C   0  0  0  0  0  0  0  0  0  0  0  0
    6.2430    0.5860   17.7170 N   0  0  0  0  0  0  0  0  0  0  0  0
    6.9630   -0.1080   18.7740 C   0  0  0  0  0  0  0  0  0  0  0  0
    9.1560   -0.6400   22.4400 N   0  0  0  0  0  0  0  0  0  0  0  0
   10.4540   -0.3420   22.5880 C   0  0  0  0  0  0  0  0  0  0  0  0
   10.7820    0.9320   22.9840 C   0  0  0  0  0  0  0  0  0  0  0  0
   12.0960    1.3180   23.1470 C   0  0  0  0  0  0  0  0  0  0  0  0
   13.1040    0.4030   22.9100 C   0  0  0  0  0  0  0  0  0  0  0  0
   12.7950   -0.8910   22.5130 C   0  0  0  0  0  0  0  0  0  0  0  0
   11.4700   -1.2760   22.3470 C   0  0  0  0  0  0  0  0  0  0  0  0
    8.6570   -1.7340   23.2170 C   0  0  0  0  0  0  0  0  0  0  0  0
    8.2710   -2.8950   22.5800 C   0  0  0  0  0  0  0  0  0  0  0  0
    7.7870   -3.9930   23.3000 C   0  0  0  0  0  0  0  0  0  0  0  0
    7.4420   -5.1360   22.4950 O   0  0  0  0  0  0  0  0  0  0  0  0
    6.1080   -5.6390   22.5390 C   0  0  0  0  0  0  0  0  0  0  0  0
    5.5900   -5.3330   23.7340 F   0  0  0  0  0  0  0  0  0  0  0  0
    5.3560   -4.9750   21.6250 F   0  0  0  0  0  0  0  0  0  0  0  0
    7.6770   -3.9370   24.7160 C   0  0  0  0  0  0  0  0  0  0  0  0
    7.1900   -4.9980   25.5860 C   0  0  0  0  0  0  0  0  0  0  0  0
    7.1040   -4.8970   26.9310 N   0  0  0  0  0  0  0  0  0  0  0  0
    7.4980   -3.7350   27.4860 C   0  0  0  0  0  0  0  0  0  0  0  0
    7.9810   -2.6510   26.7490 C   0  0  0  0  0  0  0  0  0  0  0  0
    8.0710   -2.7530   25.3630 C   0  0  0  0  0  0  0  0  0  0  0  0
    8.5490   -1.6900   24.6080 C   0  0  0  0  0  0  0  0  0  0  0  0
  1  2  2  0
  2  3  1  0
  3  4  1  0
  4  5  2  0
  5  6  1  0
  6  7  2  0
  7  8  1  0
  4  9  1  0
  8  9  2  0
  2 10  1  0
 10 11  1  0
 11 12  2  0
 12 13  1  0
 13 14  2  0
 14 15  1  0
 11 16  1  0
 15 16  2  0
 10 17  1  0
 17 18  2  0
 18 19  1  0
 19 20  1  0
 20 21  1  0
 21 22  1  0
 21 23  1  0
 19 24  2  0
 24 25  1  0
 25 26  2  0
 26 27  1  0
 27 28  2  0
 24 29  1  0
 28 29  1  0
 17 30  1  0
 29 30  2  0
M  END
