BEN-VAN-d8fd1356-17
     RDKit          3D

 25 28  0  0  0  0  0  0  0  0999 V2000
   12.2940    4.8940   21.9420 C   0  0  0  0  0  0  0  0  0  0  0  0
   12.3670    4.0440   23.1490 C   0  0  0  0  0  0  0  0  0  0  0  0
   12.3300    2.6500   23.0010 C   0  0  0  0  0  0  0  0  0  0  0  0
   10.9130    2.8950   22.9620 C   0  0  0  0  0  0  0  0  0  0  0  0
   10.4450    4.1450   23.0920 F   0  0  0  0  0  0  0  0  0  0  0  0
   10.0390    1.9190   22.7980 N   0  0  0  0  0  0  0  0  0  0  0  0
   10.7020    0.8170   22.6930 C   0  0  0  0  0  0  0  0  0  0  0  0
   10.2280   -0.4790   22.4750 C   0  0  0  0  0  0  0  0  0  0  0  0
    8.9000   -0.8520   22.2640 O   0  0  0  0  0  0  0  0  0  0  0  0
    7.8840   -1.0660   23.1790 C   0  0  0  0  0  0  0  0  0  0  0  0
    7.2650   -2.3630   23.2700 C   0  0  0  0  0  0  0  0  0  0  0  0
    6.1570   -2.7670   24.1900 C   0  0  0  0  0  0  0  0  0  0  0  0
    5.6380   -4.2040   24.1200 C   0  0  0  0  0  0  0  0  0  0  0  0
    5.1200   -4.7910   25.2630 C   0  0  0  0  0  0  0  0  0  0  0  0
    4.6920   -6.0780   25.0420 N   0  0  0  0  0  0  0  0  0  0  0  0
    5.0080   -6.2190   23.6230 C   0  0  0  0  0  0  0  0  0  0  0  0
    5.5700   -5.1090   23.0810 N   0  0  0  0  0  0  0  0  0  0  0  0
    5.7160   -1.7480   25.0210 C   0  0  0  0  0  0  0  0  0  0  0  0
    6.4200   -0.3720   24.8720 C   0  0  0  0  0  0  0  0  0  0  0  0
    7.4350   -0.0820   23.9920 N   0  0  0  0  0  0  0  0  0  0  0  0
   11.1960   -1.4830   22.4250 C   0  0  0  0  0  0  0  0  0  0  0  0
   12.5340   -1.1610   22.5710 C   0  0  0  0  0  0  0  0  0  0  0  0
   13.4450   -2.1280   22.5110 F   0  0  0  0  0  0  0  0  0  0  0  0
   12.9470    0.1560   22.7680 C   0  0  0  0  0  0  0  0  0  0  0  0
   12.0400    1.1980   22.8300 C   0  0  0  0  0  0  0  0  0  0  0  0
  1  2  1  0
  2  3  1  0
  3  4  2  0
  4  5  1  0
  4  6  1  0
  6  7  1  0
  7  8  1  0
  8  9  1  0
  9 10  1  0
 10 11  2  0
 11 12  1  0
 12 13  1  0
 13 14  2  0
 14 15  1  0
 15 16  2  0
 13 17  1  0
 16 17  1  0
 12 18  2  0
 18 19  1  0
 10 20  1  0
 19 20  2  0
  8 21  2  0
 21 22  1  0
 22 23  1  0
 22 24  2  0
  3 25  1  0
  7 25  2  0
 24 25  1  0
M  END
