BEN-VAN-d8fd1356-9
     RDKit          3D

 26 29  0  0  0  0  0  0  0  0999 V2000
   13.1530    5.3940   21.7990 C   0  0  0  0  0  0  0  0  0  0  0  0
   11.9910    4.4840   22.0570 C   0  0  0  0  0  0  0  0  0  0  0  0
   12.1440    3.6950   23.1810 C   0  0  0  0  0  0  0  0  0  0  0  0
   11.8750    2.3250   23.2000 C   0  0  0  0  0  0  0  0  0  0  0  0
   10.6110    2.7370   23.7220 C   0  0  0  0  0  0  0  0  0  0  0  0
    9.6860    1.7960   24.0250 N   0  0  0  0  0  0  0  0  0  0  0  0
   10.1880    0.6230   23.7480 C   0  0  0  0  0  0  0  0  0  0  0  0
    9.6350   -0.7460   23.8690 C   0  0  0  0  0  0  0  0  0  0  0  0
    8.4960   -0.9370   24.3070 O   0  0  0  0  0  0  0  0  0  0  0  0
    7.5840   -1.6840   23.5610 C   0  0  0  0  0  0  0  0  0  0  0  0
    6.9980   -2.8360   24.2480 C   0  0  0  0  0  0  0  0  0  0  0  0
    6.0990   -3.6210   23.6370 C   0  0  0  0  0  0  0  0  0  0  0  0
    5.4850   -4.7860   24.3240 C   0  0  0  0  0  0  0  0  0  0  0  0
    4.9020   -5.8990   23.7150 C   0  0  0  0  0  0  0  0  0  0  0  0
    4.4290   -6.7700   24.6670 N   0  0  0  0  0  0  0  0  0  0  0  0
    4.7110   -6.2230   25.8390 C   0  0  0  0  0  0  0  0  0  0  0  0
    5.3490   -5.0220   25.6970 N   0  0  0  0  0  0  0  0  0  0  0  0
    5.7530   -3.2970   22.3290 C   0  0  0  0  0  0  0  0  0  0  0  0
    6.3830   -2.0980   21.6570 C   0  0  0  0  0  0  0  0  0  0  0  0
    7.2820   -1.3220   22.2890 N   0  0  0  0  0  0  0  0  0  0  0  0
   10.5330   -1.8890   23.4370 C   0  0  0  0  0  0  0  0  0  0  0  0
   11.7770   -1.5450   22.9840 C   0  0  0  0  0  0  0  0  0  0  0  0
   12.6710   -2.4630   22.5720 F   0  0  0  0  0  0  0  0  0  0  0  0
   12.1400   -0.2350   22.9400 C   0  0  0  0  0  0  0  0  0  0  0  0
   13.6230    0.0380   22.4150 Cl  0  0  0  0  0  0  0  0  0  0  0  0
   11.4430    0.8990   23.2790 C   0  0  0  0  0  0  0  0  0  0  0  0
  1  2  1  0
  2  3  1  0
  3  4  1  0
  4  5  2  0
  5  6  1  0
  6  7  1  0
  7  8  1  0
  8  9  1  0
  9 10  1  0
 10 11  2  0
 11 12  1  0
 12 13  1  0
 13 14  2  0
 14 15  1  0
 15 16  2  0
 13 17  1  0
 16 17  1  0
 12 18  2  0
 18 19  1  0
 10 20  1  0
 19 20  2  0
  8 21  2  0
 21 22  1  0
 22 23  1  0
 22 24  2  0
 24 25  1  0
  4 26  1  0
  7 26  2  0
 24 26  1  0
M  END
