BEN-VAN-5787f7d3-3
     RDKit          3D

 23 25  0  0  0  0  0  0  0  0999 V2000
    5.5480    0.9600   22.2210 C   0  0  0  0  0  0  0  0  0  0  0  0
    5.7450    0.8570   20.7350 C   0  0  0  0  0  0  0  0  0  0  0  0
    6.7260   -0.1530   20.3020 C   0  0  0  0  0  0  0  0  0  0  0  0
    7.5900   -1.1400   21.4160 Cl  0  0  0  0  0  0  0  0  0  0  0  0
    6.9770   -0.3210   18.8260 C   0  0  0  0  0  0  0  0  0  0  0  0
    6.3090    0.4460   17.9290 N   0  0  0  0  0  0  0  0  0  0  0  0
    5.4080    1.3730   18.4040 C   0  0  0  0  0  0  0  0  0  0  0  0
    5.0920    1.6240   19.7500 C   0  0  0  0  0  0  0  0  0  0  0  0
    4.0850    2.6850   20.1420 C   0  0  0  0  0  0  0  0  0  0  0  0
    4.3920    4.0160   20.4670 C   0  0  0  0  0  0  0  0  0  0  0  0
    3.2890    5.0020   20.7730 C   0  0  0  0  0  0  0  0  0  0  0  0
    1.9850    4.5230   20.7160 C   0  0  0  0  0  0  0  0  0  0  0  0
    1.0850    5.3540   20.8270 O   0  0  0  0  0  0  0  0  0  0  0  0
    1.7590    3.2040   20.5440 N   0  0  0  0  0  0  0  0  0  0  0  0
    0.7170    2.6790   21.2500 C   0  0  0  0  0  0  0  0  0  0  0  0
   -0.5130    2.5510   20.4920 N   0  0  0  0  0  0  0  0  0  0  0  0
   -1.2260    3.7560   20.0790 C   0  0  0  0  0  0  0  0  0  0  0  0
   -2.6790    3.3660   20.2810 C   0  0  0  0  0  0  0  0  0  0  0  0
   -2.6560    1.9200   20.7060 C   0  0  0  0  0  0  0  0  0  0  0  0
   -1.3460    1.4510   20.6260 C   0  0  0  0  0  0  0  0  0  0  0  0
   -1.0360    0.2720   20.6700 O   0  0  0  0  0  0  0  0  0  0  0  0
    2.7940    2.3380   20.1990 C   0  0  0  0  0  0  0  0  0  0  0  0
    2.5080    1.0840   19.9120 F   0  0  0  0  0  0  0  0  0  0  0  0
  1  2  1  0
  2  3  2  0
  3  4  1  0
  3  5  1  0
  5  6  2  0
  6  7  1  0
  2  8  1  0
  7  8  2  0
  8  9  1  0
  9 10  1  0
 10 11  2  0
 11 12  1  0
 12 13  2  0
 12 14  1  0
 14 15  1  0
 15 16  1  0
 16 17  1  0
 17 18  1  0
 18 19  1  0
 16 20  1  0
 19 20  1  0
 20 21  2  0
  9 22  2  0
 14 22  1  0
 22 23  1  0
M  END
