BEN-DND-031a96cc-4
     RDKit          3D

 21 22  0  0  0  0  0  0  0  0999 V2000
    5.7710    0.9900   18.6720 N   0  0  0  0  0  0  0  0  0  0  0  0
    6.5280    0.0680   19.3220 C   0  0  0  0  0  0  0  0  0  0  0  0
    7.3770    0.3960   20.1410 O   0  0  0  0  0  0  0  0  0  0  0  0
    6.2000   -1.3290   18.9600 C   0  0  0  0  0  0  0  0  0  0  0  0
    5.9600   -2.2420   19.9200 C   0  0  0  0  0  0  0  0  0  0  0  0
    5.6320   -3.5340   20.6170 C   0  0  0  0  0  0  0  0  0  0  0  0
    6.7260   -4.0790   21.4210 N   0  0  0  0  0  0  0  0  0  0  0  0
    6.3210   -5.1960   22.2700 C   0  0  0  0  0  0  0  0  0  0  0  0
    5.6050   -4.7200   23.5320 C   0  0  0  0  0  0  0  0  0  0  0  0
    5.9490   -3.2640   23.8990 C   0  0  0  0  0  0  0  0  0  0  0  0
    5.6610   -2.9850   25.3770 C   0  0  0  0  0  0  0  0  0  0  0  0
    4.6580   -3.4160   25.9240 O   0  0  0  0  0  0  0  0  0  0  0  0
    6.6480   -2.2100   25.9550 N   0  0  0  0  0  0  0  0  0  0  0  0
    6.4600   -1.1650   26.8760 C   0  0  0  0  0  0  0  0  0  0  0  0
    5.8350    0.0410   26.5600 C   0  0  0  0  0  0  0  0  0  0  0  0
    5.6940    1.0360   27.5310 C   0  0  0  0  0  0  0  0  0  0  0  0
    6.1780    0.8310   28.8250 C   0  0  0  0  0  0  0  0  0  0  0  0
    6.8000   -0.3690   29.1500 C   0  0  0  0  0  0  0  0  0  0  0  0
    6.9360   -1.3570   28.1820 C   0  0  0  0  0  0  0  0  0  0  0  0
    7.3830   -2.8900   23.5230 C   0  0  0  0  0  0  0  0  0  0  0  0
    7.6090   -3.0700   22.0330 C   0  0  0  0  0  0  0  0  0  0  0  0
  1  2  1  0
  2  3  2  0
  2  4  1  0
  4  5  2  3
  5  6  1  0
  6  7  1  0
  7  8  1  0
  8  9  1  0
  9 10  1  0
 10 11  1  0
 11 12  2  0
 11 13  1  0
 13 14  1  0
 14 15  2  0
 15 16  1  0
 16 17  2  0
 17 18  1  0
 14 19  1  0
 18 19  2  0
 10 20  1  0
  7 21  1  0
 20 21  1  0
M  END
