BEN-BAS-d50bea19-1
     RDKit          3D

 21 22  0  0  0  0  0  0  0  0999 V2000
    5.6740   -5.3120   25.2250 C   0  0  0  0  0  0  0  0  0  0  0  0
    6.6700   -5.5310   24.2650 C   0  0  0  0  0  0  0  0  0  0  0  0
    6.4160   -5.2760   22.9240 C   0  0  0  0  0  0  0  0  0  0  0  0
    6.1820   -3.9630   22.5130 C   0  0  0  0  0  0  0  0  0  0  0  0
    4.9650   -3.3750   22.4780 N   0  0  0  0  0  0  0  0  0  0  0  0
    5.1900   -2.1450   22.0230 C   0  0  0  0  0  0  0  0  0  0  0  0
    6.5730   -1.8680   21.7400 C   0  0  0  0  0  0  0  0  0  0  0  0
    7.1820   -0.6610   21.2360 N   0  0  0  0  0  0  0  0  0  0  0  0
    8.4660   -0.2220   21.5060 C   0  0  0  0  0  0  0  0  0  0  0  0
    8.8610    0.9280   21.3300 O   0  0  0  0  0  0  0  0  0  0  0  0
    9.3330   -1.1980   22.0190 C   0  0  0  0  0  0  0  0  0  0  0  0
   10.5420   -0.6030   22.3930 C   0  0  0  0  0  0  0  0  0  0  0  0
   10.6790   -0.3800   23.7250 C   0  0  0  0  0  0  0  0  0  0  0  0
   11.7260   -1.5250   22.0320 C   0  0  0  0  0  0  0  0  0  0  0  0
    6.5440   -0.0500   20.1830 C   0  0  0  0  0  0  0  0  0  0  0  0
    5.4040    0.6990   20.4140 C   0  0  0  0  0  0  0  0  0  0  0  0
    4.6820    1.3790   19.4250 C   0  0  0  0  0  0  0  0  0  0  0  0
    5.0990    1.3380   18.0790 C   0  0  0  0  0  0  0  0  0  0  0  0
    6.3050    0.5480   17.7520 N   0  0  0  0  0  0  0  0  0  0  0  0
    6.9740   -0.1230   18.8740 C   0  0  0  0  0  0  0  0  0  0  0  0
    7.1680   -3.0740   22.0850 N   0  0  0  0  0  0  0  0  0  0  0  0
  1  2  1  0
  2  3  3  0
  3  4  1  0
  4  5  2  0
  5  6  1  0
  6  7  2  0
  7  8  1  0
  8  9  1  0
  9 10  2  0
  9 11  1  0
 11 12  1  0
 12 13  1  0
 12 14  1  0
  8 15  1  0
 15 16  2  0
 16 17  1  0
 17 18  2  0
 18 19  1  0
 15 20  1  0
 19 20  2  0
  4 21  1  0
  7 21  1  0
M  END
