BEN-VAN-d2b455e2-17
     RDKit          3D

 23 25  0  0  0  0  0  0  0  0999 V2000
    9.5790    3.5010   24.2620 C   0  0  0  0  0  0  0  0  0  0  0  0
   10.0640    3.0170   22.9990 N   0  0  0  0  0  0  0  0  0  0  0  0
    9.2290    2.3800   22.1010 C   0  0  0  0  0  0  0  0  0  0  0  0
    8.9950    2.7770   21.0080 O   0  0  0  0  0  0  0  0  0  0  0  0
    8.5860    1.1230   22.5410 C   0  0  2  0  0  0  0  0  0  0  0  0
    7.3030    1.2740   23.3430 C   0  0  0  0  0  0  0  0  0  0  0  0
    7.0400   -0.0640   23.9990 C   0  0  0  0  0  0  0  0  0  0  0  0
    8.3410   -0.8140   23.7130 C   0  0  0  0  0  0  0  0  0  0  0  0
    9.4020    0.3110   23.4970 C   0  0  1  0  0  0  0  0  0  0  0  0
   10.7630   -0.1710   23.0330 C   0  0  0  0  0  0  0  0  0  0  0  0
   12.0990    0.5040   23.0250 C   0  0  0  0  0  0  0  0  0  0  0  0
   13.0920   -0.2750   22.5290 C   0  0  0  0  0  0  0  0  0  0  0  0
   12.4900   -1.8180   22.0540 S   0  0  0  0  0  0  0  0  0  0  0  0
   10.8640   -1.4190   22.5320 C   0  0  0  0  0  0  0  0  0  0  0  0
    9.7060   -2.1710   22.4730 C   0  0  0  0  0  0  0  0  0  0  0  0
    8.8020   -1.6870   21.5990 N   0  0  0  0  0  0  0  0  0  0  0  0
    7.6280   -2.3330   21.5510 C   0  0  0  0  0  0  0  0  0  0  0  0
    7.3000   -3.4410   22.3170 C   0  0  0  0  0  0  0  0  0  0  0  0
    6.0810   -4.1030   22.2590 N   0  0  0  0  0  0  0  0  0  0  0  0
    4.9370   -3.2840   21.9400 C   0  0  0  0  0  0  0  0  0  0  0  0
    8.3230   -3.8280   23.1580 C   0  0  0  0  0  0  0  0  0  0  0  0
    8.0720   -4.8980   23.9260 F   0  0  0  0  0  0  0  0  0  0  0  0
    9.5310   -3.2250   23.2700 N   0  0  0  0  0  0  0  0  0  0  0  0
  1  2  1  0
  2  3  1  0
  3  4  2  0
  5  3  1  1
  5  6  1  0
  6  7  1  0
  7  8  1  0
  5  9  1  0
  8  9  1  0
  9 10  1  6
 10 11  1  0
 11 12  2  0
 12 13  1  0
 10 14  2  0
 13 14  1  0
 14 15  1  0
 15 16  2  0
 16 17  1  0
 17 18  2  0
 18 19  1  0
 19 20  1  0
 18 21  1  0
 21 22  1  0
 15 23  1  0
 21 23  2  0
M  END
