BEN-VAN-d8fd1356-2
     RDKit          3D

 23 25  0  0  0  0  0  0  0  0999 V2000
   12.5410    6.0090   22.0240 C   0  0  0  0  0  0  0  0  0  0  0  0
   12.5490    4.6890   21.8880 C   0  0  0  0  0  0  0  0  0  0  0  0
   12.3540    3.8400   23.0450 C   0  0  0  0  0  0  0  0  0  0  0  0
   12.1910    2.4660   22.9310 C   0  0  0  0  0  0  0  0  0  0  0  0
   10.8300    2.8520   23.1210 C   0  0  0  0  0  0  0  0  0  0  0  0
    9.8940    1.8680   23.1350 N   0  0  0  0  0  0  0  0  0  0  0  0
   10.5240    0.7130   22.9500 C   0  0  0  0  0  0  0  0  0  0  0  0
   10.0260   -0.6880   22.8640 C   0  0  0  0  0  0  0  0  0  0  0  0
    8.6920   -1.0500   22.9670 O   0  0  0  0  0  0  0  0  0  0  0  0
    7.7400   -0.3010   23.6530 C   0  0  0  0  0  0  0  0  0  0  0  0
    7.9430    1.0210   23.9250 N   0  0  0  0  0  0  0  0  0  0  0  0
    6.9650    1.6680   24.5970 C   0  0  0  0  0  0  0  0  0  0  0  0
    5.7670    1.0890   25.0270 C   0  0  0  0  0  0  0  0  0  0  0  0
    5.5600   -0.3910   24.7100 C   0  0  0  0  0  0  0  0  0  0  0  0
    4.4020   -1.0420   25.0990 C   0  0  0  0  0  0  0  0  0  0  0  0
    6.5840   -1.0320   24.0210 C   0  0  0  0  0  0  0  0  0  0  0  0
    6.4670   -2.3350   23.7110 F   0  0  0  0  0  0  0  0  0  0  0  0
   10.9740   -1.6850   22.6540 C   0  0  0  0  0  0  0  0  0  0  0  0
   12.4260   -1.2590   22.5290 C   0  0  0  0  0  0  0  0  0  0  0  0
   13.3740   -2.1700   22.3150 F   0  0  0  0  0  0  0  0  0  0  0  0
   12.7650    0.0680   22.6300 C   0  0  0  0  0  0  0  0  0  0  0  0
   14.0050    0.4020   22.5220 F   0  0  0  0  0  0  0  0  0  0  0  0
   11.8700    1.0770   22.8340 C   0  0  0  0  0  0  0  0  0  0  0  0
  1  2  1  0
  2  3  1  0
  3  4  1  0
  4  5  2  0
  5  6  1  0
  6  7  1  0
  7  8  1  0
  8  9  1  0
  9 10  1  0
 10 11  2  0
 11 12  1  0
 12 13  2  0
 13 14  1  0
 14 15  1  0
 10 16  1  0
 14 16  2  0
 16 17  1  0
  8 18  2  0
 18 19  1  0
 19 20  1  0
 19 21  2  0
 21 22  1  0
  4 23  1  0
  7 23  2  0
 21 23  1  0
M  END
