BEN-VAN-5787f7d3-8
     RDKit          3D

 29 32  0  0  0  0  0  0  0  0999 V2000
    0.0540   -5.1820   25.7680 C   0  0  0  0  0  0  0  0  0  0  0  0
   -0.7140   -4.0500   26.4090 C   0  0  0  0  0  0  0  0  0  0  0  0
   -2.1740   -4.2120   26.5260 C   0  0  0  0  0  0  0  0  0  0  0  0
   -2.9370   -3.1950   27.1140 C   0  0  0  0  0  0  0  0  0  0  0  0
   -2.2500   -2.0730   27.5580 N   0  0  0  0  0  0  0  0  0  0  0  0
   -0.8860   -1.9060   27.4530 C   0  0  0  0  0  0  0  0  0  0  0  0
   -0.0790   -2.8710   26.8850 C   0  0  0  0  0  0  0  0  0  0  0  0
    1.3120   -2.6750   26.7880 C   0  0  0  0  0  0  0  0  0  0  0  0
    2.0800   -1.9930   27.9170 C   0  0  0  0  0  0  0  0  0  0  0  0
    3.5760   -1.8060   27.6270 C   0  0  0  0  0  0  0  0  0  0  0  0
    4.0760   -2.3070   26.3050 C   0  0  0  0  0  0  0  0  0  0  0  0
    5.4470   -1.9920   26.0590 O   0  0  0  0  0  0  0  0  0  0  0  0
    3.2960   -2.9850   25.4400 N   0  0  0  0  0  0  0  0  0  0  0  0
    3.8680   -4.0070   24.5810 C   0  0  0  0  0  0  0  0  0  0  0  0
    5.1340   -3.7490   24.0370 C   0  0  0  0  0  0  0  0  0  0  0  0
    5.8530   -4.7540   23.1110 C   0  0  0  0  0  0  0  0  0  0  0  0
    7.4030   -4.3690   22.5030 Cl  0  0  0  0  0  0  0  0  0  0  0  0
    5.1420   -6.0810   22.7730 C   0  0  0  0  0  0  0  0  0  0  0  0
    3.7760   -6.2160   23.4370 C   0  0  0  0  0  0  0  0  0  0  0  0
    2.8490   -7.4220   23.2840 C   0  0  0  0  0  0  0  0  0  0  0  0
    2.2850   -7.6420   22.2240 O   0  0  0  0  0  0  0  0  0  0  0  0
    2.6310   -8.2070   24.3580 N   0  0  0  0  0  0  0  0  0  0  0  0
    1.3280   -8.5490   24.5100 C   0  0  0  0  0  0  0  0  0  0  0  0
    0.3460   -9.1430   23.6540 C   0  0  0  0  0  0  0  0  0  0  0  0
   -0.8970   -9.2200   24.4930 C   0  0  0  0  0  0  0  0  0  0  0  0
   -0.4150   -8.6240   25.7810 C   0  0  0  0  0  0  0  0  0  0  0  0
    0.7810   -8.2670   25.7770 O   0  0  0  0  0  0  0  0  0  0  0  0
    3.1830   -5.1740   24.3210 C   0  0  0  0  0  0  0  0  0  0  0  0
    1.9330   -3.1020   25.6840 C   0  0  0  0  0  0  0  0  0  0  0  0
  1  2  1  0
  2  3  2  0
  3  4  1  0
  4  5  2  0
  5  6  1  0
  2  7  1  0
  6  7  2  0
  7  8  1  0
  8  9  1  0
  9 10  2  0
 10 11  1  0
 11 12  2  0
 11 13  1  0
 13 14  1  0
 14 15  2  0
 15 16  1  0
 16 17  1  0
 16 18  2  0
 18 19  1  0
 19 20  1  0
 20 21  2  0
 20 22  1  0
 22 23  1  0
 23 24  2  0
 24 25  1  0
 25 26  2  0
 23 27  1  0
 26 27  1  0
 14 28  1  0
 19 28  2  0
  8 29  2  0
 13 29  1  0
M  END
