BEN-VAN-c4cc60be-1
     RDKit          3D

 29 31  0  0  0  0  0  0  0  0999 V2000
    9.9300  -10.4170   19.7390 C   0  0  0  0  0  0  0  0  0  0  0  0
   10.0510   -9.2280   20.7840 C   0  0  0  0  0  0  0  0  0  0  0  0
    8.9370   -9.0830   22.0280 N   0  0  0  0  0  0  0  0  0  0  0  0
    8.2430   -8.0380   23.1160 C   0  0  0  0  0  0  0  0  0  0  0  0
    8.9980   -7.5590   24.0930 C   0  0  0  0  0  0  0  0  0  0  0  0
    8.7030   -6.7190   25.1340 C   0  0  0  0  0  0  0  0  0  0  0  0
    7.5010   -6.2010   25.2840 C   0  0  0  0  0  0  0  0  0  0  0  0
    7.1820   -5.3520   26.2730 F   0  0  0  0  0  0  0  0  0  0  0  0
    6.6440   -6.6210   24.3100 C   0  0  0  0  0  0  0  0  0  0  0  0
    5.4270   -6.0490   24.3980 C   0  0  0  0  0  0  0  0  0  0  0  0
    4.8580   -4.8080   24.4670 C   0  0  0  0  0  0  0  0  0  0  0  0
    3.6710   -4.4660   25.0790 C   0  0  0  0  0  0  0  0  0  0  0  0
    3.1170   -3.1940   25.1690 C   0  0  0  0  0  0  0  0  0  0  0  0
    1.6220   -2.9130   25.9740 Cl  0  0  0  0  0  0  0  0  0  0  0  0
    3.9390   -2.0510   24.5040 C   0  0  0  0  0  0  0  0  0  0  0  0
    5.2480   -2.5110   23.8310 C   0  0  0  0  0  0  0  0  0  0  0  0
    6.0500   -1.4720   23.1900 N   0  0  0  0  0  0  0  0  0  0  0  0
    7.3890   -1.6830   22.7060 C   0  0  0  0  0  0  0  0  0  0  0  0
    7.8370   -0.6890   21.8320 C   0  0  0  0  0  0  0  0  0  0  0  0
    8.9990   -0.5010   21.4650 O   0  0  0  0  0  0  0  0  0  0  0  0
    6.7500    0.0470   21.4890 N   0  0  0  0  0  0  0  0  0  0  0  0
    6.2680    0.4750   20.1970 C   0  0  0  0  0  0  0  0  0  0  0  0
    5.1250    1.2450   20.2750 C   0  0  0  0  0  0  0  0  0  0  0  0
    4.5310    1.7680   19.0010 C   0  0  0  0  0  0  0  0  0  0  0  0
    5.2610    1.3910   17.7550 C   0  0  0  0  0  0  0  0  0  0  0  0
    6.3640    0.6320   17.7420 N   0  0  0  0  0  0  0  0  0  0  0  0
    6.8380    0.1900   18.9500 C   0  0  0  0  0  0  0  0  0  0  0  0
    5.6200   -3.8290   23.8520 C   0  0  0  0  0  0  0  0  0  0  0  0
    6.9780   -7.4960   23.3100 N   0  0  0  0  0  0  0  0  0  0  0  0
  1  2  1  0
  2  3  1  0
  3  4  1  0
  4  5  2  0
  5  6  1  0
  6  7  2  0
  7  8  1  0
  7  9  1  0
  9 10  1  0
 10 11  1  0
 11 12  2  0
 12 13  1  0
 13 14  1  0
 13 15  2  0
 15 16  1  0
 16 17  1  0
 17 18  1  0
 18 19  1  0
 19 20  2  0
 19 21  1  0
 21 22  1  0
 22 23  2  0
 23 24  1  0
 24 25  2  0
 25 26  1  0
 22 27  1  0
 26 27  2  0
 11 28  1  0
 16 28  2  0
  4 29  1  0
  9 29  2  0
M  END
