BEN-DND-031a96cc-1
     RDKit          3D

 26 28  0  0  0  0  0  0  0  0999 V2000
    4.5370   -3.1650   25.6360 O   0  0  0  0  0  0  0  0  0  0  0  0
    5.7230   -3.0660   25.3680 C   0  0  0  0  0  0  0  0  0  0  0  0
    6.7010   -2.3880   26.1820 N   0  0  0  0  0  0  0  0  0  0  0  0
    6.4990   -1.2520   26.8820 C   0  0  0  0  0  0  0  0  0  0  0  0
    5.8450   -0.1620   26.4480 C   0  0  0  0  0  0  0  0  0  0  0  0
    5.6770    1.0720   27.3110 C   0  0  0  0  0  0  0  0  0  0  0  0
    6.2640    1.1040   28.7300 C   0  0  0  0  0  0  0  0  0  0  0  0
    6.9980   -0.1300   29.2080 C   0  0  0  0  0  0  0  0  0  0  0  0
    7.0530   -1.2730   28.1790 C   0  0  0  0  0  0  0  0  0  0  0  0
    6.3530   -3.6630   24.1080 C   0  0  0  0  0  0  0  0  0  0  0  0
    5.4050   -4.4320   23.4350 C   0  0  0  0  0  0  0  0  0  0  0  0
    6.1470   -4.9410   22.1790 C   0  0  0  0  0  0  0  0  0  0  0  0
    6.6560   -3.9800   21.3820 N   0  0  0  0  0  0  0  0  0  0  0  0
    5.9920   -3.4640   20.1730 C   0  0  0  0  0  0  0  0  0  0  0  0
    5.2200   -4.1570   19.5260 O   0  0  0  0  0  0  0  0  0  0  0  0
    6.3470   -2.0230   19.7210 C   0  0  2  0  0  0  0  0  0  0  0  0
    7.5050   -1.1460   20.6450 Cl  0  0  0  0  0  0  0  0  0  0  0  0
    5.2380   -1.2760   19.3670 C   0  0  0  0  0  0  0  0  0  0  0  0
    4.9720   -0.1090   20.0820 C   0  0  0  0  0  0  0  0  0  0  0  0
    5.3130    0.0320   21.4110 C   0  0  0  0  0  0  0  0  0  0  0  0
    5.1030    1.1280   22.2190 C   0  0  0  0  0  0  0  0  0  0  0  0
    4.4790    2.2820   21.7400 C   0  0  0  0  0  0  0  0  0  0  0  0
    4.0490    2.2900   20.3340 N   0  0  0  0  0  0  0  0  0  0  0  0
    4.2740    1.1200   19.4660 C   0  0  0  0  0  0  0  0  0  0  0  0
    7.6530   -3.1590   22.0460 C   0  0  0  0  0  0  0  0  0  0  0  0
    6.9980   -2.5410   23.2750 C   0  0  0  0  0  0  0  0  0  0  0  0
  1  2  2  0
  2  3  1  0
  3  4  1  0
  4  5  2  0
  5  6  1  0
  6  7  2  0
  7  8  1  0
  4  9  1  0
  8  9  2  0
  2 10  1  0
 10 11  1  0
 11 12  1  0
 12 13  1  0
 13 14  1  0
 14 15  2  0
 14 16  1  0
 16 17  1  0
 16 18  1  1
 18 19  1  0
 19 20  2  0
 20 21  1  0
 21 22  2  0
 22 23  1  0
 19 24  1  0
 23 24  2  0
 13 25  1  0
 10 26  1  0
 25 26  1  0
M  END
