BEN-BAS-e0d85f98-1
     RDKit          3D

 30 33  0  0  0  0  0  0  0  0999 V2000
   13.0000   -2.2020   21.5410 C   0  0  0  0  0  0  0  0  0  0  0  0
   12.5860   -2.1440   23.0120 C   0  0  0  0  0  0  0  0  0  0  0  0
   13.5690   -2.3410   23.9530 C   0  0  0  0  0  0  0  0  0  0  0  0
   11.3470   -2.9350   23.4000 C   0  0  0  0  0  0  0  0  0  0  0  0
   11.9940   -0.8130   23.1660 C   0  0  0  0  0  0  0  0  0  0  0  0
   12.6080    0.3820   23.4250 C   0  0  0  0  0  0  0  0  0  0  0  0
   11.8380    1.5210   23.5330 C   0  0  0  0  0  0  0  0  0  0  0  0
   10.4660    1.4350   23.3810 C   0  0  0  0  0  0  0  0  0  0  0  0
    9.8550    0.2280   23.1110 C   0  0  0  0  0  0  0  0  0  0  0  0
    8.4300    0.0930   22.9250 N   0  0  0  0  0  0  0  0  0  0  0  0
    8.1500    0.3720   21.5430 C   0  0  0  0  0  0  0  0  0  0  0  0
    8.6860    1.4780   20.9320 O   0  0  0  0  0  0  0  0  0  0  0  0
    7.3330   -0.5300   20.9620 N   0  0  0  0  0  0  0  0  0  0  0  0
    6.5140    0.1290   20.0650 C   0  0  0  0  0  0  0  0  0  0  0  0
    5.2350    0.8750   20.3690 C   0  0  0  0  0  0  0  0  0  0  0  0
    4.5230    1.5510   19.1870 C   0  0  0  0  0  0  0  0  0  0  0  0
    5.1420    1.4320   17.8040 C   0  0  0  0  0  0  0  0  0  0  0  0
    6.2990    0.7050   17.7220 N   0  0  0  0  0  0  0  0  0  0  0  0
    6.9520    0.0830   18.7780 C   0  0  0  0  0  0  0  0  0  0  0  0
    7.7780   -1.0130   23.4880 C   0  0  0  0  0  0  0  0  0  0  0  0
    6.9450   -0.8270   24.7210 C   0  0  0  0  0  0  0  0  0  0  0  0
    6.3100   -1.9330   25.2160 C   0  0  0  0  0  0  0  0  0  0  0  0
    6.4400   -3.2790   24.5530 C   0  0  0  0  0  0  0  0  0  0  0  0
    5.6700   -4.4280   25.1930 C   0  0  0  0  0  0  0  0  0  0  0  0
    5.7200   -5.7760   24.6200 N   0  0  0  0  0  0  0  0  0  0  0  0
    6.5780   -5.8870   23.4140 C   0  0  0  0  0  0  0  0  0  0  0  0
    7.3210   -4.6950   22.8370 C   0  0  0  0  0  0  0  0  0  0  0  0
    7.2150   -3.4310   23.4300 C   0  0  0  0  0  0  0  0  0  0  0  0
    7.8760   -2.3090   22.9080 C   0  0  0  0  0  0  0  0  0  0  0  0
   10.6360   -0.8650   23.0080 C   0  0  0  0  0  0  0  0  0  0  0  0
  2  1  1  0
  2  3  1  0
  2  4  1  0
  2  5  1  0
  5  6  2  0
  6  7  1  0
  7  8  2  0
  8  9  1  0
  9 10  1  0
 10 11  1  0
 11 12  2  0
 11 13  1  0
 13 14  1  0
 14 15  2  0
 15 16  1  0
 16 17  2  0
 17 18  1  0
 14 19  1  0
 18 19  2  0
 10 20  1  0
 20 21  2  0
 21 22  1  0
 22 23  2  0
 23 24  1  0
 24 25  2  0
 25 26  1  0
 26 27  2  0
 23 28  1  0
 27 28  1  0
 20 29  1  0
 28 29  2  0
  5 30  1  0
  9 30  2  0
M  END
