BEN-VAN-c986b20b-5
     RDKit          3D

 25 27  0  0  0  0  0  0  0  0999 V2000
   13.2270    6.6490   22.3230 C   0  0  0  0  0  0  0  0  0  0  0  0
   13.6170    5.2370   22.5990 C   0  0  0  0  0  0  0  0  0  0  0  0
   12.6510    4.4910   22.9740 C   0  0  0  0  0  0  0  0  0  0  0  0
   12.6760    3.0040   22.8650 C   0  0  0  0  0  0  0  0  0  0  0  0
   11.4380    2.3350   23.3260 C   0  0  0  0  0  0  0  0  0  0  0  0
   11.2140    0.8750   23.2420 C   0  0  0  0  0  0  0  0  0  0  0  0
    9.8770    0.8560   23.9290 C   0  0  0  0  0  0  0  0  0  0  0  0
    9.2990   -0.5220   23.9460 C   0  0  0  0  0  0  0  0  0  0  0  0
    9.8030   -1.6520   23.4480 C   0  0  0  0  0  0  0  0  0  0  0  0
    9.0040   -2.9240   23.5690 C   0  0  0  0  0  0  0  0  0  0  0  0
    8.0100   -2.9050   22.6990 N   0  0  0  0  0  0  0  0  0  0  0  0
    6.7170   -3.2910   23.1950 C   0  0  0  0  0  0  0  0  0  0  0  0
    5.4940   -2.9490   22.3720 C   0  0  0  0  0  0  0  0  0  0  0  0
    5.9030   -2.3810   21.0890 N   0  0  0  0  0  0  0  0  0  0  0  0
    5.6370   -3.0180   19.8110 C   0  0  0  0  0  0  0  0  0  0  0  0
    5.8430   -2.1370   18.7530 C   0  0  0  0  0  0  0  0  0  0  0  0
    5.2930   -4.1950   19.6620 O   0  0  0  0  0  0  0  0  0  0  0  0
    7.0230   -1.4420   21.1000 C   0  0  0  0  0  0  0  0  0  0  0  0
    7.9750   -1.5700   22.0730 C   0  0  0  0  0  0  0  0  0  0  0  0
   11.1890   -1.6370   22.7700 C   0  0  0  0  0  0  0  0  0  0  0  0
   11.8400   -0.4220   22.7150 C   0  0  0  0  0  0  0  0  0  0  0  0
   13.3650   -0.6390   21.9850 Cl  0  0  0  0  0  0  0  0  0  0  0  0
   10.3940    3.1490   23.8300 N   0  0  0  0  0  0  0  0  0  0  0  0
   10.5450    4.4820   23.8680 C   0  0  0  0  0  0  0  0  0  0  0  0
   11.6060    5.1750   23.4680 N   0  0  0  0  0  0  0  0  0  0  0  0
  1  2  1  0
  2  3  1  0
  3  4  2  0
  4  5  1  0
  5  6  1  0
  6  7  2  0
  7  8  1  0
  8  9  2  0
  9 10  1  0
 10 11  1  0
 11 12  1  0
 12 13  1  0
 13 14  1  0
 14 15  1  0
 15 16  1  0
 15 17  2  0
 14 18  1  0
 11 19  1  0
 18 19  1  0
  9 20  1  0
  6 21  1  0
 20 21  2  0
 21 22  1  0
  5 23  2  0
 23 24  1  0
  3 25  1  0
 24 25  2  0
M  END
