BEN-DND-362d364a-10
     RDKit          3D

 23 24  0  0  0  0  0  0  0  0999 V2000
    4.3440   -4.0130   26.0650 C   0  0  0  0  0  0  0  0  0  0  0  0
    6.0930   -4.1210   25.8250 S   0  0  0  0  0  0  0  0  0  0  0  0
    6.4060   -5.5260   25.6300 O   0  0  0  0  0  0  0  0  0  0  0  0
    6.7250   -3.3210   26.8550 O   0  0  0  0  0  0  0  0  0  0  0  0
    6.3870   -3.3330   24.3590 N   0  0  0  0  0  0  0  0  0  0  0  0
    7.6110   -2.6250   24.1730 C   0  0  0  0  0  0  0  0  0  0  0  0
    8.6980   -3.1680   23.4990 C   0  0  0  0  0  0  0  0  0  0  0  0
    9.5570   -2.3620   22.7780 C   0  0  1  0  0  0  0  0  0  0  0  0
    9.3460   -1.0010   22.7810 C   0  0  0  0  0  0  0  0  0  0  0  0
   10.2060   -0.4210   21.9140 C   0  0  0  0  0  0  0  0  0  0  0  0
   11.4930   -0.8190   22.2530 C   0  0  0  0  0  0  0  0  0  0  0  0
   11.7030   -2.0790   21.8870 C   0  0  0  0  0  0  0  0  0  0  0  0
   11.0270   -2.6160   22.9110 N   0  0  0  0  0  0  0  0  0  0  0  0
   11.4610   -2.2710   24.1840 C   0  0  0  0  0  0  0  0  0  0  0  0
   12.1870   -3.2560   24.7660 C   0  0  0  0  0  0  0  0  0  0  0  0
   11.6790   -4.1190   25.2000 O   0  0  0  0  0  0  0  0  0  0  0  0
   13.4950   -3.2310   24.7350 N   0  0  0  0  0  0  0  0  0  0  0  0
   13.4540   -2.2710   23.9330 C   0  0  0  0  0  0  0  0  0  0  0  0
   13.5090   -2.4190   22.4610 C   0  0  0  0  0  0  0  0  0  0  0  0
   13.4200   -1.1090   21.7390 C   0  0  0  0  0  0  0  0  0  0  0  0
   13.2820    0.1050   22.3930 C   0  0  0  0  0  0  0  0  0  0  0  0
   13.2360    0.0780   23.8080 N   0  0  0  0  0  0  0  0  0  0  0  0
   13.3290   -1.1440   24.5700 C   0  0  0  0  0  0  0  0  0  0  0  0
  1  2  1  0
  2  3  2  0
  2  4  2  0
  2  5  1  0
  5  6  1  0
  6  7  1  0
  8  7  1  1
  8  9  1  0
  9 10  1  0
 10 11  1  0
 11 12  1  0
  8 13  1  0
 12 13  1  0
 13 14  1  0
 14 15  1  0
 15 16  2  0
 15 17  1  0
 17 18  1  0
 18 19  2  0
 19 20  1  0
 20 21  2  0
 21 22  1  0
 18 23  1  0
 22 23  2  0
M  END
