BEN-DND-031a96cc-5
     RDKit          3D

 21 22  0  0  0  0  0  0  0  0999 V2000
    5.4760    0.0910   18.1500 C   0  0  0  0  0  0  0  0  0  0  0  0
    5.8380    0.1510   19.6150 C   0  0  0  0  0  0  0  0  0  0  0  0
    6.2960    1.1870   20.0810 O   0  0  0  0  0  0  0  0  0  0  0  0
    5.5910   -1.0700   20.3870 C   0  0  0  0  0  0  0  0  0  0  0  0
    5.8740   -2.3290   19.8240 C   0  0  0  0  0  0  0  0  0  0  0  0
    5.6130   -3.4950   20.5870 C   0  0  0  0  0  0  0  0  0  0  0  0
    6.6640   -3.9860   21.4370 N   0  0  0  0  0  0  0  0  0  0  0  0
    6.3710   -5.0720   22.3160 C   0  0  0  0  0  0  0  0  0  0  0  0
    5.7840   -4.7150   23.5360 C   0  0  0  0  0  0  0  0  0  0  0  0
    6.0800   -3.2550   23.8140 C   0  0  0  0  0  0  0  0  0  0  0  0
    5.7000   -2.9350   25.2650 C   0  0  0  0  0  0  0  0  0  0  0  0
    4.6140   -3.2550   25.7400 O   0  0  0  0  0  0  0  0  0  0  0  0
    6.7980   -2.2300   25.9320 N   0  0  0  0  0  0  0  0  0  0  0  0
    6.5630   -1.2750   26.8760 C   0  0  0  0  0  0  0  0  0  0  0  0
    5.8460   -0.0660   26.4660 C   0  0  0  0  0  0  0  0  0  0  0  0
    5.5820    0.9670   27.3750 C   0  0  0  0  0  0  0  0  0  0  0  0
    6.0100    0.9200   28.8360 C   0  0  0  0  0  0  0  0  0  0  0  0
    6.7470   -0.3300   29.2640 C   0  0  0  0  0  0  0  0  0  0  0  0
    6.9970   -1.4140   28.2290 C   0  0  0  0  0  0  0  0  0  0  0  0
    7.5710   -2.9260   23.4920 C   0  0  0  0  0  0  0  0  0  0  0  0
    7.3970   -2.9030   21.9630 C   0  0  0  0  0  0  0  0  0  0  0  0
  1  2  1  0
  2  3  2  0
  2  4  1  0
  4  5  2  3
  5  6  1  0
  6  7  1  0
  7  8  1  0
  8  9  1  0
  9 10  1  0
 10 11  1  0
 11 12  2  0
 11 13  1  0
 13 14  1  0
 14 15  2  0
 15 16  1  0
 16 17  2  0
 17 18  1  0
 14 19  1  0
 18 19  2  0
 10 20  1  0
  7 21  1  0
 20 21  1  0
M  END
