BEN-DND-362d364a-1
     RDKit          3D

 28 30  0  0  0  0  0  0  0  0999 V2000
    7.8360    3.5890   27.3610 C   0  0  0  0  0  0  0  0  0  0  0  0
    6.6430    4.4430   27.5000 C   0  0  0  0  0  0  0  0  0  0  0  0
    6.3580    4.9290   28.5950 O   0  0  0  0  0  0  0  0  0  0  0  0
    5.8880    4.6550   26.3490 N   0  0  0  0  0  0  0  0  0  0  0  0
    4.7690    3.7520   26.0290 C   0  0  0  0  0  0  0  0  0  0  0  0
    4.1250    4.1830   24.8630 C   0  0  0  0  0  0  0  0  0  0  0  0
    5.0350    4.2010   23.6970 N   0  0  0  0  0  0  0  0  0  0  0  0
    4.4810    5.0340   22.3140 S   0  0  0  0  0  0  0  0  0  0  0  0
    5.6090    5.1700   21.4220 O   0  0  0  0  0  0  0  0  0  0  0  0
    3.7300    6.1780   22.7910 O   0  0  0  0  0  0  0  0  0  0  0  0
    3.3530    3.8840   21.5520 C   0  0  0  0  0  0  0  0  0  0  0  0
    3.8450    2.9600   20.4710 C   0  0  0  0  0  0  0  0  0  0  0  0
    2.8370    2.0020   19.8610 C   0  0  0  0  0  0  0  0  0  0  0  0
    1.4370    2.0590   20.3850 C   0  0  0  0  0  0  0  0  0  0  0  0
    1.0580    3.0140   21.4560 C   0  0  0  0  0  0  0  0  0  0  0  0
   -0.5660    3.0450   22.0270 Cl  0  0  0  0  0  0  0  0  0  0  0  0
    1.9980    3.8630   21.9830 C   0  0  0  0  0  0  0  0  0  0  0  0
    6.3560    4.4890   24.0860 C   0  0  1  0  0  0  0  0  0  0  0  0
    6.9350    5.2530   23.0280 N   0  0  0  0  0  0  0  0  0  0  0  0
    8.2780    5.0720   22.5810 C   0  0  0  0  0  0  0  0  0  0  0  0
    9.3450    4.8830   23.4700 C   0  0  0  0  0  0  0  0  0  0  0  0
   10.1560    3.7520   23.2260 C   0  0  0  0  0  0  0  0  0  0  0  0
   11.4610    3.6210   23.0200 C   0  0  0  0  0  0  0  0  0  0  0  0
   12.6760    4.2110   22.9080 C   0  0  0  0  0  0  0  0  0  0  0  0
   12.4060    2.8240   22.7890 C   0  0  0  0  0  0  0  0  0  0  0  0
   11.2640    1.7750   22.8360 C   0  0  0  0  0  0  0  0  0  0  0  0
    9.9500    2.3630   23.0980 C   0  0  0  0  0  0  0  0  0  0  0  0
    6.5020    5.2420   25.2500 C   0  0  0  0  0  0  0  0  0  0  0  0
  1  2  1  0
  2  3  2  0
  2  4  1  0
  4  5  1  0
  5  6  1  0
  6  7  1  0
  7  8  1  0
  8  9  2  0
  8 10  2  0
  8 11  1  0
 11 12  2  0
 12 13  1  0
 13 14  2  0
 14 15  1  0
 15 16  1  0
 11 17  1  0
 15 17  2  0
  7 18  1  0
 18 19  1  6
 19 20  1  0
 20 21  1  0
 21 22  1  0
 22 23  2  0
 23 24  1  0
 24 25  2  0
 25 26  1  0
 22 27  1  0
 26 27  2  0
  4 28  1  0
 18 28  1  0
M  END
