BEN-VAN-c986b20b-1
     RDKit          3D

 24 26  0  0  0  0  0  0  0  0999 V2000
    5.9360   -1.9750   18.7260 C   0  0  0  0  0  0  0  0  0  0  0  0
    5.7080   -2.9470   19.8870 C   0  0  0  0  0  0  0  0  0  0  0  0
    5.3150   -4.1040   19.6870 O   0  0  0  0  0  0  0  0  0  0  0  0
    6.0030   -2.4910   21.1620 N   0  0  0  0  0  0  0  0  0  0  0  0
    5.9190   -3.3820   22.3210 C   0  0  0  0  0  0  0  0  0  0  0  0
    6.7690   -2.9650   23.3550 C   0  0  0  0  0  0  0  0  0  0  0  0
    8.1630   -2.7970   22.9290 N   0  0  0  0  0  0  0  0  0  0  0  0
    9.0190   -2.4830   24.0700 C   0  0  0  0  0  0  0  0  0  0  0  0
    9.7160   -1.3280   23.8230 C   0  0  0  0  0  0  0  0  0  0  0  0
    9.2790   -0.0800   24.2300 C   0  0  0  0  0  0  0  0  0  0  0  0
   10.1320    0.8580   23.8340 C   0  0  0  0  0  0  0  0  0  0  0  0
   11.2680    1.0980   23.2020 C   0  0  0  0  0  0  0  0  0  0  0  0
   11.5270    2.4730   23.1220 C   0  0  0  0  0  0  0  0  0  0  0  0
   12.6180    3.2080   22.7120 C   0  0  0  0  0  0  0  0  0  0  0  0
   12.4500    4.7580   22.7260 C   0  0  0  0  0  0  0  0  0  0  0  0
   13.6820    5.4530   22.2290 C   0  0  0  0  0  0  0  0  0  0  0  0
   11.3300    5.3950   23.1290 N   0  0  0  0  0  0  0  0  0  0  0  0
   10.2400    4.5500   23.5560 C   0  0  0  0  0  0  0  0  0  0  0  0
   10.2570    3.1100   23.5790 N   0  0  0  0  0  0  0  0  0  0  0  0
   11.7850   -0.1870   22.8220 C   0  0  0  0  0  0  0  0  0  0  0  0
   13.3130   -0.8720   21.9830 Br  0  0  0  0  0  0  0  0  0  0  0  0
   10.9790   -1.2780   23.1220 C   0  0  0  0  0  0  0  0  0  0  0  0
    8.2990   -1.8670   21.8060 C   0  0  0  0  0  0  0  0  0  0  0  0
    6.9790   -1.3940   21.2220 C   0  0  0  0  0  0  0  0  0  0  0  0
  1  2  1  0
  2  3  2  0
  2  4  1  0
  4  5  1  0
  5  6  1  0
  6  7  1  0
  7  8  1  0
  8  9  1  0
  9 10  2  0
 10 11  1  0
 11 12  2  0
 12 13  1  0
 13 14  2  0
 14 15  1  0
 15 16  1  0
 15 17  2  0
 17 18  1  0
 13 19  1  0
 18 19  2  0
 12 20  1  0
 20 21  1  0
  9 22  1  0
 20 22  2  0
  7 23  1  0
  4 24  1  0
 23 24  1  0
M  END
