BEN-VAN-5787f7d3-7
     RDKit          3D

 30 33  0  0  0  0  0  0  0  0999 V2000
    5.1270   -0.7060   20.8910 C   0  0  0  0  0  0  0  0  0  0  0  0
    5.9480   -1.6640   21.7310 C   0  0  0  0  0  0  0  0  0  0  0  0
    6.7710   -2.4280   21.1630 O   0  0  0  0  0  0  0  0  0  0  0  0
    6.6220   -2.4040   19.8030 C   0  0  0  0  0  0  0  0  0  0  0  0
    7.3810   -1.3560   20.0730 C   0  0  0  0  0  0  0  0  0  0  0  0
    7.7900   -1.4000   21.4060 C   0  0  0  0  0  0  0  0  0  0  0  0
    8.6410   -0.4140   21.8800 C   0  0  0  0  0  0  0  0  0  0  0  0
    8.1130    0.9000   21.8300 C   0  0  0  0  0  0  0  0  0  0  0  0
    8.7480    2.1210   22.2350 N   0  0  0  0  0  0  0  0  0  0  0  0
   10.0800    1.8960   22.7370 C   0  0  0  0  0  0  0  0  0  0  0  0
   10.6810    0.4910   22.8050 C   0  0  0  0  0  0  0  0  0  0  0  0
    9.9570   -0.7690   22.3620 C   0  0  0  0  0  0  0  0  0  0  0  0
    9.8960   -2.2110   22.1590 C   0  0  0  0  0  0  0  0  0  0  0  0
    7.3400   -2.4880   22.2070 C   0  0  0  0  0  0  0  0  0  0  0  0
    6.4710   -3.5830   21.8000 N   0  0  0  0  0  0  0  0  0  0  0  0
    5.4870   -4.1710   22.6980 C   0  0  0  0  0  0  0  0  0  0  0  0
    4.9380   -5.6140   22.5520 C   0  0  0  0  0  0  0  0  0  0  0  0
    3.8720   -6.1380   23.5390 C   0  0  0  0  0  0  0  0  0  0  0  0
    3.0740   -7.6530   23.6210 Cl  0  0  0  0  0  0  0  0  0  0  0  0
    3.4660   -5.1700   24.5790 C   0  0  0  0  0  0  0  0  0  0  0  0
    4.0290   -3.8010   24.6730 C   0  0  0  0  0  0  0  0  0  0  0  0
    3.5310   -3.0030   25.7080 N   0  0  0  0  0  0  0  0  0  0  0  0
    2.2720   -3.3600   26.3280 C   0  0  0  0  0  0  0  0  0  0  0  0
    1.9730   -2.1910   27.2510 C   0  0  0  0  0  0  0  0  0  0  0  0
    3.3080   -1.5410   27.5380 C   0  0  0  0  0  0  0  0  0  0  0  0
    4.2660   -2.1090   26.4910 C   0  0  0  0  0  0  0  0  0  0  0  0
    5.4390   -1.7960   26.4100 O   0  0  0  0  0  0  0  0  0  0  0  0
    4.9930   -3.3700   23.7530 C   0  0  0  0  0  0  0  0  0  0  0  0
    6.0590   -3.5980   20.4330 C   0  0  0  0  0  0  0  0  0  0  0  0
    5.3990   -4.4320   19.8170 O   0  0  0  0  0  0  0  0  0  0  0  0
  1  2  1  0
  2  3  1  0
  3  4  1  0
  4  5  2  0
  5  6  1  0
  6  7  1  0
  7  8  2  0
  8  9  1  0
  9 10  2  0
 10 11  1  0
  7 12  1  0
 11 12  2  0
 12 13  1  0
  6 14  2  0
 14 15  1  0
 15 16  1  0
 16 17  2  0
 17 18  1  0
 18 19  1  0
 18 20  2  0
 20 21  1  0
 21 22  1  0
 22 23  1  0
 23 24  1  0
 24 25  1  0
 22 26  1  0
 25 26  1  0
 26 27  2  0
 16 28  1  0
 21 28  2  0
  4 29  1  0
 15 29  1  0
 29 30  2  0
M  END
