BEN-VAN-5787f7d3-13
     RDKit          3D

 30 33  0  0  0  0  0  0  0  0999 V2000
    5.6000    1.2990   17.8700 C   0  0  0  0  0  0  0  0  0  0  0  0
    6.9200    0.9140   18.4670 C   0  0  0  0  0  0  0  0  0  0  0  0
    7.8850    0.6030   17.7440 O   0  0  0  0  0  0  0  0  0  0  0  0
    7.5620   -0.2470   16.7530 C   0  0  0  0  0  0  0  0  0  0  0  0
    7.6510   -0.0910   15.4790 C   0  0  0  0  0  0  0  0  0  0  0  0
    7.2330   -0.9200   14.5080 N   0  0  0  0  0  0  0  0  0  0  0  0
    6.6430   -2.1570   14.5730 C   0  0  0  0  0  0  0  0  0  0  0  0
    6.2570   -2.6220   13.0870 C   0  0  0  0  0  0  0  0  0  0  0  0
    5.3450   -2.4940   13.5100 C   0  0  0  0  0  0  0  0  0  0  0  0
    4.2790   -2.5990   12.8680 N   0  0  0  0  0  0  0  0  0  0  0  0
    3.1510   -2.6820   12.3130 C   0  0  0  0  0  0  0  0  0  0  0  0
    3.9640   -2.9300   11.4360 C   0  0  0  0  0  0  0  0  0  0  0  0
    5.2310   -2.8930   11.8450 C   0  0  0  0  0  0  0  0  0  0  0  0
    5.2740   -3.1610   10.4970 C   0  0  0  0  0  0  0  0  0  0  0  0
    6.6300   -2.4120   15.9850 C   0  0  0  0  0  0  0  0  0  0  0  0
    7.0690   -1.4130   17.1000 C   0  0  0  0  0  0  0  0  0  0  0  0
    6.9880   -1.5560   18.4620 C   0  0  0  0  0  0  0  0  0  0  0  0
    7.4610   -0.3900   19.3160 C   0  0  0  0  0  0  0  0  0  0  0  0
    7.3710   -0.5650   20.8150 C   0  0  0  0  0  0  0  0  0  0  0  0
    6.8770   -1.7350   21.3130 C   0  0  0  0  0  0  0  0  0  0  0  0
    6.4620   -2.7340   20.4510 C   0  0  0  0  0  0  0  0  0  0  0  0
    5.9890   -3.8650   20.9750 C   0  0  0  0  0  0  0  0  0  0  0  0
    5.3470   -4.5790   20.1990 O   0  0  0  0  0  0  0  0  0  0  0  0
    6.2590   -4.1240   22.2530 N   0  0  0  0  0  0  0  0  0  0  0  0
    5.3640   -4.8870   22.8410 C   0  0  0  0  0  0  0  0  0  0  0  0
    5.2050   -6.3580   22.7990 C   0  0  0  0  0  0  0  0  0  0  0  0
    4.1410   -6.6780   23.5580 C   0  0  0  0  0  0  0  0  0  0  0  0
    3.6150   -5.4810   24.0810 C   0  0  0  0  0  0  0  0  0  0  0  0
    4.3640   -4.3870   23.6380 O   0  0  0  0  0  0  0  0  0  0  0  0
    6.5070   -2.6500   19.0860 C   0  0  0  0  0  0  0  0  0  0  0  0
  1  2  1  0
  2  3  1  0
  3  4  1  0
  4  5  2  0
  5  6  1  0
  6  7  2  0
  7  8  1  0
  8  9  2  0
  9 10  1  0
 10 11  2  0
 11 12  1  0
  8 13  1  0
 12 13  2  0
 13 14  1  0
  7 15  1  0
  4 16  1  0
 15 16  2  0
 16 17  1  0
 17 18  2  0
 18 19  1  0
 19 20  2  0
 20 21  1  0
 21 22  1  0
 22 23  2  0
 22 24  1  0
 24 25  1  0
 25 26  2  0
 26 27  1  0
 27 28  2  0
 25 29  1  0
 28 29  1  0
 17 30  1  0
 21 30  2  0
M  END
