BEN-DND-031a96cc-8
     RDKit          3D

 17 18  0  0  0  0  0  0  0  0999 V2000
    3.2670   -0.2560   23.8630 C   0  0  0  0  0  0  0  0  0  0  0  0
    3.2880    1.0100   23.0670 C   0  0  0  0  0  0  0  0  0  0  0  0
    2.5550    2.0810   23.6100 C   0  0  0  0  0  0  0  0  0  0  0  0
    2.5820    2.1870   24.8320 O   0  0  0  0  0  0  0  0  0  0  0  0
    1.8190    2.9790   22.8980 N   0  0  0  0  0  0  0  0  0  0  0  0
    0.6700    3.4580   23.4420 C   0  0  0  0  0  0  0  0  0  0  0  0
    0.5980    4.5090   24.3430 C   0  0  0  0  0  0  0  0  0  0  0  0
   -0.6070    4.9560   24.8580 C   0  0  0  0  0  0  0  0  0  0  0  0
   -1.8680    4.3410   24.4760 C   0  0  0  0  0  0  0  0  0  0  0  0
   -1.8460    3.3000   23.5930 C   0  0  0  0  0  0  0  0  0  0  0  0
   -0.5510    2.8440   23.0610 C   0  0  0  0  0  0  0  0  0  0  0  0
    4.0620    1.0810   21.8070 C   0  0  0  0  0  0  0  0  0  0  0  0
    3.4110    1.1650   20.4780 C   0  0  0  0  0  0  0  0  0  0  0  0
    4.1700    1.2240   19.2990 C   0  0  0  0  0  0  0  0  0  0  0  0
    5.7030    1.2050   19.3520 C   0  0  0  0  0  0  0  0  0  0  0  0
    6.3320    1.1260   20.6320 N   0  0  0  0  0  0  0  0  0  0  0  0
    5.4680    1.0650   21.8460 C   0  0  0  0  0  0  0  0  0  0  0  0
  1  2  2  3
  2  3  1  0
  3  4  2  0
  3  5  1  0
  5  6  1  0
  6  7  2  0
  7  8  1  0
  8  9  2  0
  9 10  1  0
  6 11  1  0
 10 11  2  0
  2 12  1  0
 12 13  2  0
 13 14  1  0
 14 15  2  0
 15 16  1  0
 12 17  1  0
 16 17  2  0
M  END
