BEN-VAN-ed886787-2
     RDKit          3D

 29 31  0  0  0  0  0  0  0  0999 V2000
   10.4300  -11.7740   29.7510 C   0  0  0  0  0  0  0  0  0  0  0  0
    9.7850  -11.5640   28.4480 C   0  0  0  0  0  0  0  0  0  0  0  0
   10.2040  -10.4310   27.6630 N   0  0  0  0  0  0  0  0  0  0  0  0
    9.8980   -8.8170   26.2390 C   0  0  0  0  0  0  0  0  0  0  0  0
    9.2330   -8.1390   24.3690 C   0  0  0  0  0  0  0  0  0  0  0  0
    9.0730   -6.9410   23.8490 C   0  0  0  0  0  0  0  0  0  0  0  0
    9.2890   -5.7720   24.5040 C   0  0  0  0  0  0  0  0  0  0  0  0
    9.0650   -4.5400   24.0430 F   0  0  0  0  0  0  0  0  0  0  0  0
    9.7780   -6.1290   25.8400 C   0  0  0  0  0  0  0  0  0  0  0  0
    9.7780   -4.8460   26.2200 C   0  0  0  0  0  0  0  0  0  0  0  0
    8.6090   -4.0810   25.6670 C   0  0  0  0  0  0  0  0  0  0  0  0
    7.3060   -4.5400   25.8180 C   0  0  0  0  0  0  0  0  0  0  0  0
    6.2170   -3.8320   25.3080 C   0  0  0  0  0  0  0  0  0  0  0  0
    4.9660   -4.2940   25.4640 F   0  0  0  0  0  0  0  0  0  0  0  0
    6.4410   -2.6320   24.6310 C   0  0  0  0  0  0  0  0  0  0  0  0
    7.7360   -2.1410   24.4640 C   0  0  0  0  0  0  0  0  0  0  0  0
    8.0440   -0.9500   23.8080 N   0  0  0  0  0  0  0  0  0  0  0  0
    8.8540   -1.0220   22.7200 C   0  0  0  0  0  0  0  0  0  0  0  0
    8.3790   -0.1930   21.7110 C   0  0  0  0  0  0  0  0  0  0  0  0
    8.9750    0.8340   21.4090 O   0  0  0  0  0  0  0  0  0  0  0  0
    7.2040   -0.6410   21.1320 N   0  0  0  0  0  0  0  0  0  0  0  0
    6.5620   -0.0100   20.0610 C   0  0  0  0  0  0  0  0  0  0  0  0
    5.3090    0.8310   20.2780 C   0  0  0  0  0  0  0  0  0  0  0  0
    4.6720    1.4780   19.2350 C   0  0  0  0  0  0  0  0  0  0  0  0
    5.0990    1.4280   17.9280 C   0  0  0  0  0  0  0  0  0  0  0  0
    6.2960    0.6040   17.7630 N   0  0  0  0  0  0  0  0  0  0  0  0
    6.9520   -0.0520   18.7500 C   0  0  0  0  0  0  0  0  0  0  0  0
    8.8020   -2.8740   24.9840 C   0  0  0  0  0  0  0  0  0  0  0  0
   10.1210   -7.2470   26.6550 N   0  0  0  0  0  0  0  0  0  0  0  0
  1  2  1  0
  2  3  1  0
  3  4  1  0
  4  5  2  0
  5  6  1  0
  6  7  2  0
  7  8  1  0
  7  9  1  0
  9 10  1  0
 10 11  1  0
 11 12  2  0
 12 13  1  0
 13 14  1  0
 13 15  2  0
 15 16  1  0
 16 17  1  0
 17 18  1  0
 18 19  1  0
 19 20  2  0
 19 21  1  0
 21 22  1  0
 22 23  2  0
 23 24  1  0
 24 25  2  0
 25 26  1  0
 22 27  1  0
 26 27  2  0
 11 28  1  0
 16 28  2  0
  4 29  1  0
  9 29  2  0
M  END
