BEN-VAN-ed886787-5
     RDKit          3D

 30 32  0  0  0  0  0  0  0  0999 V2000
    4.3070   -7.7670   29.1020 C   0  0  0  0  0  0  0  0  0  0  0  0
    5.0690   -6.6060   29.7050 C   0  0  0  0  0  0  0  0  0  0  0  0
    6.4640   -6.5990   29.2800 N   0  0  0  0  0  0  0  0  0  0  0  0
    6.8810   -5.5260   28.3880 C   0  0  0  0  0  0  0  0  0  0  0  0
    6.5070   -4.1070   28.7500 C   0  0  0  0  0  0  0  0  0  0  0  0
    6.9300   -2.9610   27.8480 C   0  0  0  0  0  0  0  0  0  0  0  0
    7.7010   -3.3340   26.6160 C   0  0  0  0  0  0  0  0  0  0  0  0
    8.1290   -2.4320   25.7240 F   0  0  0  0  0  0  0  0  0  0  0  0
    7.9400   -4.8540   26.4760 C   0  0  0  0  0  0  0  0  0  0  0  0
    8.6940   -5.1200   25.1730 C   0  0  0  0  0  0  0  0  0  0  0  0
    8.1800   -4.5320   24.0610 C   0  0  0  0  0  0  0  0  0  0  0  0
    6.7440   -4.9630   23.6750 C   0  0  0  0  0  0  0  0  0  0  0  0
    6.1430   -4.3940   22.5850 C   0  0  0  0  0  0  0  0  0  0  0  0
    4.9010   -4.7180   22.1960 F   0  0  0  0  0  0  0  0  0  0  0  0
    6.9800   -3.3690   21.8530 C   0  0  0  0  0  0  0  0  0  0  0  0
    8.2770   -3.0070   22.2210 C   0  0  0  0  0  0  0  0  0  0  0  0
    8.9430   -2.0730   21.4850 N   0  0  0  0  0  0  0  0  0  0  0  0
    9.3870   -0.8160   22.0060 C   0  0  0  0  0  0  0  0  0  0  0  0
    8.4430    0.0450   21.5360 C   0  0  0  0  0  0  0  0  0  0  0  0
    8.7740    1.2060   21.3150 O   0  0  0  0  0  0  0  0  0  0  0  0
    7.2000   -0.4360   21.3180 N   0  0  0  0  0  0  0  0  0  0  0  0
    6.5390    0.2090   20.2080 C   0  0  0  0  0  0  0  0  0  0  0  0
    5.4410    1.0240   20.4550 C   0  0  0  0  0  0  0  0  0  0  0  0
    4.8630    1.6470   19.3790 C   0  0  0  0  0  0  0  0  0  0  0  0
    5.4090    1.4300   18.0970 C   0  0  0  0  0  0  0  0  0  0  0  0
    4.8780    2.0530   17.0820 F   0  0  0  0  0  0  0  0  0  0  0  0
    6.4490    0.6340   17.8450 N   0  0  0  0  0  0  0  0  0  0  0  0
    6.9910    0.0390   18.9130 C   0  0  0  0  0  0  0  0  0  0  0  0
    8.8590   -3.5930   23.3190 C   0  0  0  0  0  0  0  0  0  0  0  0
    7.5630   -5.8560   27.3010 N   0  0  0  0  0  0  0  0  0  0  0  0
  1  2  1  0
  2  3  1  0
  3  4  1  0
  4  5  2  0
  5  6  1  0
  6  7  2  0
  7  8  1  0
  7  9  1  0
  9 10  1  0
 10 11  1  0
 11 12  2  0
 12 13  1  0
 13 14  1  0
 13 15  2  0
 15 16  1  0
 16 17  1  0
 17 18  1  0
 18 19  1  0
 19 20  2  0
 19 21  1  0
 21 22  1  0
 22 23  2  0
 23 24  1  0
 24 25  2  0
 25 26  1  0
 25 27  1  0
 22 28  1  0
 27 28  2  0
 11 29  1  0
 16 29  2  0
  4 30  1  0
  9 30  2  0
M  END
