BEN-VAN-ed886787-7
     RDKit          3D

 30 32  0  0  0  0  0  0  0  0999 V2000
    3.4010   -7.7110   29.3370 C   0  0  0  0  0  0  0  0  0  0  0  0
    3.9800   -7.2180   28.0600 C   0  0  0  0  0  0  0  0  0  0  0  0
    5.3540   -6.7940   28.3030 N   0  0  0  0  0  0  0  0  0  0  0  0
    5.5870   -5.4460   28.0310 C   0  0  0  0  0  0  0  0  0  0  0  0
    6.3910   -4.5460   28.9300 C   0  0  0  0  0  0  0  0  0  0  0  0
    6.6070   -3.1580   28.6540 C   0  0  0  0  0  0  0  0  0  0  0  0
    6.0380   -2.6650   27.4920 C   0  0  0  0  0  0  0  0  0  0  0  0
    6.1950   -1.3770   27.1590 F   0  0  0  0  0  0  0  0  0  0  0  0
    5.3110   -3.5530   26.6950 C   0  0  0  0  0  0  0  0  0  0  0  0
    4.7670   -2.9020   25.4470 C   0  0  0  0  0  0  0  0  0  0  0  0
    5.6450   -3.5590   24.4030 C   0  0  0  0  0  0  0  0  0  0  0  0
    5.3200   -4.8490   24.0230 C   0  0  0  0  0  0  0  0  0  0  0  0
    6.1810   -5.4250   23.0530 C   0  0  0  0  0  0  0  0  0  0  0  0
    5.9400   -6.7960   22.5720 C   0  0  0  0  0  0  0  0  0  0  0  0
    7.2550   -4.7330   22.5380 C   0  0  0  0  0  0  0  0  0  0  0  0
    7.5690   -3.4380   22.9300 C   0  0  0  0  0  0  0  0  0  0  0  0
    8.6790   -2.7680   22.3770 N   0  0  0  0  0  0  0  0  0  0  0  0
    8.8720   -1.3550   22.7530 C   0  0  0  0  0  0  0  0  0  0  0  0
    8.4030   -0.4720   21.7830 C   0  0  0  0  0  0  0  0  0  0  0  0
    9.0210    0.5540   21.5030 O   0  0  0  0  0  0  0  0  0  0  0  0
    7.2030   -0.8640   21.2140 N   0  0  0  0  0  0  0  0  0  0  0  0
    6.5100   -0.1100   20.2700 C   0  0  0  0  0  0  0  0  0  0  0  0
    5.3580    0.6870   20.4750 C   0  0  0  0  0  0  0  0  0  0  0  0
    4.7970    1.3900   19.4630 C   0  0  0  0  0  0  0  0  0  0  0  0
    5.4110    1.2990   18.1770 C   0  0  0  0  0  0  0  0  0  0  0  0
    4.8920    1.9940   17.2010 F   0  0  0  0  0  0  0  0  0  0  0  0
    6.4690    0.5820   17.8640 N   0  0  0  0  0  0  0  0  0  0  0  0
    6.9980   -0.0950   18.8560 C   0  0  0  0  0  0  0  0  0  0  0  0
    6.7400   -2.8560   23.8780 C   0  0  0  0  0  0  0  0  0  0  0  0
    5.0650   -4.9000   26.9170 N   0  0  0  0  0  0  0  0  0  0  0  0
  1  2  1  0
  2  3  1  0
  3  4  1  0
  4  5  2  0
  5  6  1  0
  6  7  2  0
  7  8  1  0
  7  9  1  0
  9 10  1  0
 10 11  1  0
 11 12  2  0
 12 13  1  0
 13 14  1  0
 13 15  2  0
 15 16  1  0
 16 17  1  0
 17 18  1  0
 18 19  1  0
 19 20  2  0
 19 21  1  0
 21 22  1  0
 22 23  2  0
 23 24  1  0
 24 25  2  0
 25 26  1  0
 25 27  1  0
 22 28  1  0
 27 28  2  0
 11 29  1  0
 16 29  2  0
  4 30  1  0
  9 30  2  0
M  END
