BEN-VAN-d8fd1356-15
     RDKit          3D

 24 26  0  0  0  0  0  0  0  0999 V2000
   11.5340    4.8450   23.7790 C   0  0  0  0  0  0  0  0  0  0  0  0
   12.4820    4.0380   22.9930 C   0  0  0  0  0  0  0  0  0  0  0  0
   12.4170    2.6370   22.9290 C   0  0  0  0  0  0  0  0  0  0  0  0
   11.0880    2.8460   23.3780 C   0  0  0  0  0  0  0  0  0  0  0  0
   10.2350    1.9010   23.5920 N   0  0  0  0  0  0  0  0  0  0  0  0
   10.8160    0.7880   23.3180 C   0  0  0  0  0  0  0  0  0  0  0  0
   10.3150   -0.6220   23.3600 C   0  0  0  0  0  0  0  0  0  0  0  0
    9.1570   -0.9110   23.6860 O   0  0  0  0  0  0  0  0  0  0  0  0
    8.1710   -0.3920   22.8350 C   0  0  0  0  0  0  0  0  0  0  0  0
    8.1980   -0.8120   21.3890 C   0  0  0  0  0  0  0  0  0  0  0  0
    7.1720   -0.2680   20.4870 C   0  0  0  0  0  0  0  0  0  0  0  0
    7.0720   -0.5520   19.1690 C   0  0  0  0  0  0  0  0  0  0  0  0
    6.1170    0.6970   21.0290 C   0  0  0  0  0  0  0  0  0  0  0  0
    6.1430    1.0550   22.4060 C   0  0  0  0  0  0  0  0  0  0  0  0
    4.9620    2.1780   23.1400 S   0  0  0  0  0  0  0  0  0  0  0  0
    3.9960    1.2370   24.1010 N   0  0  0  0  0  0  0  0  0  0  0  0
    5.6530    3.0830   24.0320 O   0  0  0  0  0  0  0  0  0  0  0  0
    4.1020    2.6830   22.0910 O   0  0  0  0  0  0  0  0  0  0  0  0
    7.2030    0.4830   23.3050 N   0  0  0  0  0  0  0  0  0  0  0  0
   11.2480   -1.5800   22.9940 C   0  0  0  0  0  0  0  0  0  0  0  0
   12.5480   -1.2150   22.6200 C   0  0  0  0  0  0  0  0  0  0  0  0
   13.4160   -2.1580   22.2670 F   0  0  0  0  0  0  0  0  0  0  0  0
   12.9550    0.1090   22.5990 C   0  0  0  0  0  0  0  0  0  0  0  0
   12.1090    1.1720   22.9380 C   0  0  0  0  0  0  0  0  0  0  0  0
  1  2  1  0
  2  3  1  0
  3  4  2  0
  4  5  1  0
  5  6  1  0
  6  7  1  0
  7  8  1  0
  8  9  1  0
  9 10  2  0
 10 11  1  0
 11 12  1  0
 11 13  2  0
 13 14  1  0
 14 15  1  0
 15 16  1  0
 15 17  2  0
 15 18  2  0
  9 19  1  0
 14 19  2  0
  7 20  2  0
 20 21  1  0
 21 22  1  0
 21 23  2  0
  3 24  1  0
  6 24  2  0
 23 24  1  0
M  END
