BEN-VAN-5787f7d3-6
     RDKit          3D

 27 30  0  0  0  0  0  0  0  0999 V2000
    9.9190   -3.2330   23.8210 C   0  0  0  0  0  0  0  0  0  0  0  0
   10.2890   -1.9170   23.3960 C   0  0  0  0  0  0  0  0  0  0  0  0
   11.3480   -1.2260   23.7990 C   0  0  0  0  0  0  0  0  0  0  0  0
   11.7070    0.1590   23.3500 C   0  0  0  0  0  0  0  0  0  0  0  0
   10.9200    0.8370   22.4790 N   0  0  0  0  0  0  0  0  0  0  0  0
    9.8310    0.0990   22.0500 C   0  0  0  0  0  0  0  0  0  0  0  0
    9.4690   -1.3210   22.4790 C   0  0  0  0  0  0  0  0  0  0  0  0
    8.2270   -2.0450   21.8680 C   0  0  0  0  0  0  0  0  0  0  0  0
    7.7640   -1.5160   20.5140 C   0  0  0  0  0  0  0  0  0  0  0  0
    6.7910   -2.2800   19.9250 C   0  0  0  0  0  0  0  0  0  0  0  0
    6.1940   -3.5220   20.5670 C   0  0  0  0  0  0  0  0  0  0  0  0
    5.4430   -4.2810   19.9470 O   0  0  0  0  0  0  0  0  0  0  0  0
    6.5070   -3.8050   21.8550 N   0  0  0  0  0  0  0  0  0  0  0  0
    5.5000   -4.2290   22.6570 C   0  0  0  0  0  0  0  0  0  0  0  0
    4.9000   -5.5050   22.5530 C   0  0  0  0  0  0  0  0  0  0  0  0
    3.8520   -5.9000   23.4040 C   0  0  0  0  0  0  0  0  0  0  0  0
    3.0310   -7.4030   23.3810 Cl  0  0  0  0  0  0  0  0  0  0  0  0
    3.3900   -5.0480   24.3640 C   0  0  0  0  0  0  0  0  0  0  0  0
    3.9450   -3.7950   24.5040 C   0  0  0  0  0  0  0  0  0  0  0  0
    3.4690   -2.9840   25.4490 N   0  0  0  0  0  0  0  0  0  0  0  0
    2.2480   -3.3630   25.9610 C   0  0  0  0  0  0  0  0  0  0  0  0
    1.9030   -2.2740   26.9680 C   0  0  0  0  0  0  0  0  0  0  0  0
    3.2520   -1.6910   27.3710 C   0  0  0  0  0  0  0  0  0  0  0  0
    4.2050   -2.2330   26.3020 C   0  0  0  0  0  0  0  0  0  0  0  0
    5.3970   -1.9540   26.3270 O   0  0  0  0  0  0  0  0  0  0  0  0
    4.9910   -3.3900   23.6570 C   0  0  0  0  0  0  0  0  0  0  0  0
    7.5980   -3.1140   22.4440 C   0  0  0  0  0  0  0  0  0  0  0  0
  1  2  1  0
  2  3  2  0
  3  4  1  0
  4  5  2  0
  5  6  1  0
  2  7  1  0
  6  7  2  0
  7  8  1  0
  8  9  1  0
  9 10  2  0
 10 11  1  0
 11 12  2  0
 11 13  1  0
 13 14  1  0
 14 15  2  0
 15 16  1  0
 16 17  1  0
 16 18  2  0
 18 19  1  0
 19 20  1  0
 20 21  1  0
 21 22  1  0
 22 23  1  0
 20 24  1  0
 23 24  1  0
 24 25  2  0
 14 26  1  0
 19 26  2  0
  8 27  2  0
 13 27  1  0
M  END
