BEN-VAN-d8fd1356-8
     RDKit          3D

 25 28  0  0  0  0  0  0  0  0999 V2000
   11.6540    4.8040   23.8680 C   0  0  0  0  0  0  0  0  0  0  0  0
   12.2950    4.0000   22.8010 C   0  0  0  0  0  0  0  0  0  0  0  0
   12.2680    2.6510   22.7820 C   0  0  0  0  0  0  0  0  0  0  0  0
   10.7610    2.8190   23.0080 C   0  0  0  0  0  0  0  0  0  0  0  0
    9.9540    1.8090   23.1120 N   0  0  0  0  0  0  0  0  0  0  0  0
   10.7200    0.7490   22.9730 C   0  0  0  0  0  0  0  0  0  0  0  0
   10.1940   -0.6770   23.0150 C   0  0  0  0  0  0  0  0  0  0  0  0
    8.8730   -1.0750   23.1990 O   0  0  0  0  0  0  0  0  0  0  0  0
    7.9540   -0.4950   22.3420 C   0  0  0  0  0  0  0  0  0  0  0  0
    6.8670    0.4140   22.9240 C   0  0  0  0  0  0  0  0  0  0  0  0
    5.8900    1.0290   21.9750 C   0  0  0  0  0  0  0  0  0  0  0  0
    4.8780    1.8680   22.4600 C   0  0  0  0  0  0  0  0  0  0  0  0
    3.9430    2.3920   21.5520 C   0  0  0  0  0  0  0  0  0  0  0  0
    3.4970    1.8810   20.3690 C   0  0  0  0  0  0  0  0  0  0  0  0
    2.5840    2.6620   19.7430 C   0  0  0  0  0  0  0  0  0  0  0  0
    2.3390    3.8130   20.5110 N   0  0  0  0  0  0  0  0  0  0  0  0
    3.1970    3.6140   21.6250 N   0  0  0  0  0  0  0  0  0  0  0  0
    6.0350    0.7330   20.6190 C   0  0  0  0  0  0  0  0  0  0  0  0
    7.0530   -0.1090   20.1600 C   0  0  0  0  0  0  0  0  0  0  0  0
    7.9810   -0.7110   20.9560 N   0  0  0  0  0  0  0  0  0  0  0  0
   11.1680   -1.6480   22.8430 C   0  0  0  0  0  0  0  0  0  0  0  0
   12.6110   -1.1740   22.6410 C   0  0  0  0  0  0  0  0  0  0  0  0
   13.5540   -2.0900   22.4650 F   0  0  0  0  0  0  0  0  0  0  0  0
   12.9640    0.1780   22.6300 C   0  0  0  0  0  0  0  0  0  0  0  0
   12.0340    1.1840   22.7900 C   0  0  0  0  0  0  0  0  0  0  0  0
  1  2  1  0
  2  3  1  0
  3  4  2  0
  4  5  1  0
  5  6  1  0
  6  7  1  0
  7  8  1  0
  8  9  1  0
  9 10  2  0
 10 11  1  0
 11 12  1  0
 12 13  1  0
 13 14  2  0
 14 15  1  0
 15 16  2  0
 13 17  1  0
 16 17  1  0
 11 18  2  0
 18 19  1  0
  9 20  1  0
 19 20  2  0
  7 21  2  0
 21 22  1  0
 22 23  1  0
 22 24  2  0
  3 25  1  0
  6 25  2  0
 24 25  1  0
M  END
