BEN-VAN-ed886787-3
     RDKit          3D

 29 31  0  0  0  0  0  0  0  0999 V2000
   15.1020   -5.8330   19.5420 C   0  0  0  0  0  0  0  0  0  0  0  0
   15.6470   -4.9070   20.3070 C   0  0  0  0  0  0  0  0  0  0  0  0
   14.5980   -4.7020   21.1480 N   0  0  0  0  0  0  0  0  0  0  0  0
   13.7030   -3.5990   21.4770 C   0  0  0  0  0  0  0  0  0  0  0  0
   12.8610   -2.9990   20.6630 C   0  0  0  0  0  0  0  0  0  0  0  0
   12.1220   -1.9500   21.1130 C   0  0  0  0  0  0  0  0  0  0  0  0
   12.1830   -1.4920   22.3520 C   0  0  0  0  0  0  0  0  0  0  0  0
   11.3910   -0.4320   22.6800 F   0  0  0  0  0  0  0  0  0  0  0  0
   13.0010   -2.0980   23.2480 C   0  0  0  0  0  0  0  0  0  0  0  0
   12.9790   -1.6000   24.6670 C   0  0  0  0  0  0  0  0  0  0  0  0
   11.4780   -1.7670   24.8950 C   0  0  0  0  0  0  0  0  0  0  0  0
   10.7390   -2.9090   25.4330 C   0  0  0  0  0  0  0  0  0  0  0  0
    9.4270   -3.3470   25.7310 C   0  0  0  0  0  0  0  0  0  0  0  0
    8.8450   -4.8150   26.3900 Cl  0  0  0  0  0  0  0  0  0  0  0  0
    8.5450   -2.3000   25.3740 C   0  0  0  0  0  0  0  0  0  0  0  0
    9.0350   -0.9330   24.7630 C   0  0  0  0  0  0  0  0  0  0  0  0
    8.0810    0.0420   24.4330 N   0  0  0  0  0  0  0  0  0  0  0  0
    7.2540    0.0880   23.3060 C   0  0  0  0  0  0  0  0  0  0  0  0
    7.9930   -0.0790   21.9560 C   0  0  0  0  0  0  0  0  0  0  0  0
    9.0770    0.4420   21.7090 O   0  0  0  0  0  0  0  0  0  0  0  0
    7.2090   -0.8920   21.0230 N   0  0  0  0  0  0  0  0  0  0  0  0
    6.3760   -0.0710   20.1330 C   0  0  0  0  0  0  0  0  0  0  0  0
    5.1350    0.7480   20.4020 C   0  0  0  0  0  0  0  0  0  0  0  0
    4.5460    1.4570   19.3180 C   0  0  0  0  0  0  0  0  0  0  0  0
    5.1610    1.3860   17.9230 C   0  0  0  0  0  0  0  0  0  0  0  0
    6.3530    0.5530   17.8150 N   0  0  0  0  0  0  0  0  0  0  0  0
    6.8980   -0.1160   18.8540 C   0  0  0  0  0  0  0  0  0  0  0  0
   10.4220   -0.6880   24.5450 C   0  0  0  0  0  0  0  0  0  0  0  0
   13.7600   -3.1370   22.8210 N   0  0  0  0  0  0  0  0  0  0  0  0
  1  2  1  0
  2  3  1  0
  3  4  1  0
  4  5  2  0
  5  6  1  0
  6  7  2  0
  7  8  1  0
  7  9  1  0
  9 10  1  0
 10 11  1  0
 11 12  2  0
 12 13  1  0
 13 14  1  0
 13 15  2  0
 15 16  1  0
 16 17  1  0
 17 18  1  0
 18 19  1  0
 19 20  2  0
 19 21  1  0
 21 22  1  0
 22 23  2  0
 23 24  1  0
 24 25  2  0
 25 26  1  0
 22 27  1  0
 26 27  2  0
 11 28  1  0
 16 28  2  0
  4 29  1  0
  9 29  2  0
M  END
