BEN-VAN-c986b20b-12
     RDKit          3D

 28 30  0  0  0  0  0  0  0  0999 V2000
    8.6330    2.6190   22.3090 C   0  0  0  0  0  0  0  0  0  0  0  0
    8.6530    2.5200   23.8350 C   0  0  0  0  0  0  0  0  0  0  0  0
    9.7030    2.1740   24.3860 O   0  0  0  0  0  0  0  0  0  0  0  0
   10.3200    1.0510   23.9350 C   0  0  0  0  0  0  0  0  0  0  0  0
    9.7100   -0.2880   24.0860 C   0  0  0  0  0  0  0  0  0  0  0  0
   10.4470   -1.4700   23.5370 C   0  0  0  0  0  0  0  0  0  0  0  0
    9.7040   -2.7530   23.6820 C   0  0  0  0  0  0  0  0  0  0  0  0
    8.4550   -2.6230   22.9290 N   0  0  0  0  0  0  0  0  0  0  0  0
    7.2480   -2.8110   23.5610 C   0  0  0  0  0  0  0  0  0  0  0  0
    6.0120   -3.0150   22.6290 C   0  0  0  0  0  0  0  0  0  0  0  0
    6.1660   -2.4370   21.2920 N   0  0  0  0  0  0  0  0  0  0  0  0
    5.6620   -3.3760   20.2840 C   0  0  0  0  0  0  0  0  0  0  0  0
    5.7620   -4.8510   20.6620 C   0  0  0  0  0  0  0  0  0  0  0  0
    5.1890   -3.0760   19.2060 O   0  0  0  0  0  0  0  0  0  0  0  0
    7.1900   -1.4030   21.0830 C   0  0  0  0  0  0  0  0  0  0  0  0
    8.5150   -1.7030   21.7880 C   0  0  0  0  0  0  0  0  0  0  0  0
   11.6870   -1.2620   22.9510 C   0  0  0  0  0  0  0  0  0  0  0  0
   12.2410    0.0210   22.8280 C   0  0  0  0  0  0  0  0  0  0  0  0
   13.4350    0.0710   22.2290 F   0  0  0  0  0  0  0  0  0  0  0  0
   11.5520    1.1970   23.2960 C   0  0  0  0  0  0  0  0  0  0  0  0
   11.9580    2.5300   23.1590 C   0  0  0  0  0  0  0  0  0  0  0  0
   11.0510    3.5290   23.5810 C   0  0  0  0  0  0  0  0  0  0  0  0
   11.3330    4.8750   23.4660 C   0  0  0  0  0  0  0  0  0  0  0  0
   10.3240    5.7670   23.9340 C   0  0  0  0  0  0  0  0  0  0  0  0
    9.8640    6.6280   22.7500 C   0  0  0  0  0  0  0  0  0  0  0  0
   12.4650    5.3460   22.9510 N   0  0  0  0  0  0  0  0  0  0  0  0
   13.2840    4.3580   22.5680 C   0  0  0  0  0  0  0  0  0  0  0  0
   13.0940    3.0250   22.6500 N   0  0  0  0  0  0  0  0  0  0  0  0
  1  2  1  0
  2  3  1  0
  3  4  1  0
  4  5  2  0
  5  6  1  0
  6  7  1  0
  7  8  1  0
  8  9  1  0
  9 10  1  0
 10 11  1  0
 11 12  1  0
 12 13  1  0
 12 14  2  0
 11 15  1  0
  8 16  1  0
 15 16  1  0
  6 17  2  0
 17 18  1  0
 18 19  1  0
  4 20  1  0
 18 20  2  0
 20 21  1  0
 21 22  2  0
 22 23  1  0
 23 24  1  0
 24 25  1  0
 23 26  2  0
 26 27  1  0
 21 28  1  0
 27 28  2  0
M  END
