BEN-VAN-d8fd1356-14
     RDKit          3D

 24 26  0  0  0  0  0  0  0  0999 V2000
   11.4910    4.7890   23.8250 C   0  0  0  0  0  0  0  0  0  0  0  0
   12.4790    3.9780   23.0050 C   0  0  0  0  0  0  0  0  0  0  0  0
   12.4460    2.6350   22.9050 C   0  0  0  0  0  0  0  0  0  0  0  0
   10.9490    2.7810   23.0880 C   0  0  0  0  0  0  0  0  0  0  0  0
   10.0710    1.8390   23.1050 N   0  0  0  0  0  0  0  0  0  0  0  0
   10.7770    0.7130   22.9160 C   0  0  0  0  0  0  0  0  0  0  0  0
   10.0200   -0.6610   22.8500 C   0  0  0  0  0  0  0  0  0  0  0  0
    8.9510    0.2530   23.0310 N   0  0  0  0  0  0  0  0  0  0  0  0
    7.9720    0.6650   22.1150 C   0  0  0  0  0  0  0  0  0  0  0  0
    7.6340   -0.1510   20.8470 C   0  0  0  0  0  0  0  0  0  0  0  0
    6.6890    0.2000   19.9120 C   0  0  0  0  0  0  0  0  0  0  0  0
    6.4880   -0.7500   18.7040 C   0  0  0  0  0  0  0  0  0  0  0  0
    5.9820    1.3910   20.1330 C   0  0  0  0  0  0  0  0  0  0  0  0
    6.3140    2.2150   21.4030 C   0  0  0  0  0  0  0  0  0  0  0  0
    5.4790    3.7630   21.8120 S   0  0  0  0  0  0  0  0  0  0  0  0
    4.3500    3.9810   20.5580 N   0  0  0  0  0  0  0  0  0  0  0  0
    4.7490    3.5750   23.0450 O   0  0  0  0  0  0  0  0  0  0  0  0
    6.4400    4.8350   21.6950 O   0  0  0  0  0  0  0  0  0  0  0  0
    7.2740    1.8120   22.3090 N   0  0  0  0  0  0  0  0  0  0  0  0
   11.2310   -1.4250   22.6700 C   0  0  0  0  0  0  0  0  0  0  0  0
   12.5800   -1.0990   22.5730 C   0  0  0  0  0  0  0  0  0  0  0  0
   13.4690   -2.0660   22.3900 F   0  0  0  0  0  0  0  0  0  0  0  0
   12.9880    0.1770   22.6520 C   0  0  0  0  0  0  0  0  0  0  0  0
   12.1290    1.1730   22.8240 C   0  0  0  0  0  0  0  0  0  0  0  0
  1  2  1  0
  2  3  1  0
  3  4  2  0
  4  5  1  0
  5  6  1  0
  6  7  1  0
  7  8  1  0
  8  9  1  0
  9 10  2  0
 10 11  1  0
 11 12  1  0
 11 13  2  0
 13 14  1  0
 14 15  1  0
 15 16  1  0
 15 17  2  0
 15 18  2  0
  9 19  1  0
 14 19  2  0
  7 20  2  0
 20 21  1  0
 21 22  1  0
 21 23  2  0
  3 24  1  0
  6 24  2  0
 23 24  1  0
M  END
