BEN-VAN-d8fd1356-12
     RDKit          3D

 22 24  0  0  0  0  0  0  0  0999 V2000
   12.6250    4.9540   21.9050 C   0  0  0  0  0  0  0  0  0  0  0  0
   12.6660    4.1240   23.0810 N   0  0  0  0  0  0  0  0  0  0  0  0
   12.4960    2.7910   22.9990 C   0  0  0  0  0  0  0  0  0  0  0  0
   11.1910    3.1680   23.2620 C   0  0  0  0  0  0  0  0  0  0  0  0
   10.2540    2.2130   23.3370 N   0  0  0  0  0  0  0  0  0  0  0  0
   10.7940    1.0400   23.1320 C   0  0  0  0  0  0  0  0  0  0  0  0
    9.9830   -0.2990   23.1330 C   0  0  0  0  0  0  0  0  0  0  0  0
    9.1450    0.5750   23.3300 O   0  0  0  0  0  0  0  0  0  0  0  0
    8.1920    0.6990   22.3290 C   0  0  0  0  0  0  0  0  0  0  0  0
    8.2150   -0.2770   21.1390 C   0  0  0  0  0  0  0  0  0  0  0  0
    7.0830   -0.0040   20.0840 C   0  0  0  0  0  0  0  0  0  0  0  0
    6.8670   -0.7160   18.9130 C   0  0  0  0  0  0  0  0  0  0  0  0
    6.2120    1.0650   20.3550 C   0  0  0  0  0  0  0  0  0  0  0  0
    4.8050    1.4930   19.1650 Br  0  0  0  0  0  0  0  0  0  0  0  0
    6.3340    1.8440   21.4850 C   0  0  0  0  0  0  0  0  0  0  0  0
    7.2590    1.7210   22.4680 N   0  0  0  0  0  0  0  0  0  0  0  0
   11.1100   -1.1230   22.8940 C   0  0  0  0  0  0  0  0  0  0  0  0
   10.6360   -2.7340   22.8570 Cl  0  0  0  0  0  0  0  0  0  0  0  0
   12.4670   -0.8870   22.6930 C   0  0  0  0  0  0  0  0  0  0  0  0
   13.3140   -1.9010   22.4640 F   0  0  0  0  0  0  0  0  0  0  0  0
   12.9730    0.3540   22.7160 C   0  0  0  0  0  0  0  0  0  0  0  0
   12.1300    1.3750   22.9440 C   0  0  0  0  0  0  0  0  0  0  0  0
  1  2  1  0
  2  3  1  0
  3  4  2  0
  4  5  1  0
  5  6  1  0
  6  7  1  0
  7  8  1  0
  8  9  1  0
  9 10  2  0
 10 11  1  0
 11 12  1  0
 11 13  2  0
 13 14  1  0
 13 15  1  0
  9 16  1  0
 15 16  2  0
  7 17  2  0
 17 18  1  0
 17 19  1  0
 19 20  1  0
 19 21  2  0
  3 22  1  0
  6 22  2  0
 21 22  1  0
M  END
