BEN-VAN-c986b20b-9
     RDKit          3D

 28 30  0  0  0  0  0  0  0  0999 V2000
   13.6930    5.7840   22.3740 C   0  0  0  0  0  0  0  0  0  0  0  0
   12.5850    4.9470   22.8490 C   0  0  0  0  0  0  0  0  0  0  0  0
   12.7540    3.4520   22.7400 C   0  0  0  0  0  0  0  0  0  0  0  0
   11.5750    2.6590   23.2000 C   0  0  0  0  0  0  0  0  0  0  0  0
   11.3540    1.1800   23.1690 C   0  0  0  0  0  0  0  0  0  0  0  0
   10.0530    0.9400   23.8150 C   0  0  0  0  0  0  0  0  0  0  0  0
    9.5020   -0.3000   23.8780 C   0  0  0  0  0  0  0  0  0  0  0  0
   10.1570   -1.3760   23.3250 C   0  0  0  0  0  0  0  0  0  0  0  0
    9.5300   -2.6300   23.3860 C   0  0  0  0  0  0  0  0  0  0  0  0
    8.3590   -2.7740   22.5460 N   0  0  0  0  0  0  0  0  0  0  0  0
    7.1820   -3.3460   23.2180 C   0  0  0  0  0  0  0  0  0  0  0  0
    6.1550   -3.6230   22.3290 C   0  0  0  0  0  0  0  0  0  0  0  0
    5.9350   -2.4860   21.4320 N   0  0  0  0  0  0  0  0  0  0  0  0
    5.7230   -2.7580   20.0860 C   0  0  0  0  0  0  0  0  0  0  0  0
    5.3680   -3.9020   19.7100 O   0  0  0  0  0  0  0  0  0  0  0  0
    5.9770   -1.5950   19.1680 C   0  0  0  0  0  0  0  0  0  0  0  0
    7.0740   -0.8660   19.5180 F   0  0  0  0  0  0  0  0  0  0  0  0
    4.9490   -0.6990   19.1740 F   0  0  0  0  0  0  0  0  0  0  0  0
    6.1860   -1.9330   17.9000 F   0  0  0  0  0  0  0  0  0  0  0  0
    6.6970   -1.3040   21.8290 C   0  0  0  0  0  0  0  0  0  0  0  0
    8.0590   -1.5540   21.7770 C   0  0  0  0  0  0  0  0  0  0  0  0
   11.4330   -1.1920   22.7280 C   0  0  0  0  0  0  0  0  0  0  0  0
   12.0900   -2.2390   22.2030 F   0  0  0  0  0  0  0  0  0  0  0  0
   12.0530    0.0550   22.6560 C   0  0  0  0  0  0  0  0  0  0  0  0
   13.2620    0.0790   22.0770 F   0  0  0  0  0  0  0  0  0  0  0  0
   10.4930    3.3200   23.6820 N   0  0  0  0  0  0  0  0  0  0  0  0
   10.4990    4.6700   23.7320 C   0  0  0  0  0  0  0  0  0  0  0  0
   11.4710    5.5140   23.3460 N   0  0  0  0  0  0  0  0  0  0  0  0
  1  2  1  0
  2  3  2  0
  3  4  1  0
  4  5  1  0
  5  6  2  0
  6  7  1  0
  7  8  2  0
  8  9  1  0
  9 10  1  0
 10 11  1  0
 11 12  1  0
 12 13  1  0
 13 14  1  0
 14 15  2  0
 14 16  1  0
 16 17  1  0
 16 18  1  0
 16 19  1  0
 13 20  1  0
 10 21  1  0
 20 21  1  0
  8 22  1  0
 22 23  1  0
  5 24  1  0
 22 24  2  0
 24 25  1  0
  4 26  2  0
 26 27  1  0
  2 28  1  0
 27 28  2  0
M  END
