BEN-VAN-5787f7d3-18
     RDKit          3D

 32 35  0  0  0  0  0  0  0  0999 V2000
   10.0910   -5.2830   17.7900 C   0  0  0  0  0  0  0  0  0  0  0  0
   10.5620   -5.0420   19.0590 C   0  0  0  0  0  0  0  0  0  0  0  0
   10.3980   -4.0130   19.5370 O   0  0  0  0  0  0  0  0  0  0  0  0
   11.3350   -3.6580   20.4040 C   0  0  0  0  0  0  0  0  0  0  0  0
   12.7580   -4.1510   20.3480 C   0  0  0  0  0  0  0  0  0  0  0  0
   13.6070   -3.8400   21.3360 N   0  0  0  0  0  0  0  0  0  0  0  0
   13.0120   -3.1080   22.3220 C   0  0  0  0  0  0  0  0  0  0  0  0
   13.2760   -2.5680   23.6360 C   0  0  0  0  0  0  0  0  0  0  0  0
   13.0220   -1.1660   23.3130 C   0  0  0  0  0  0  0  0  0  0  0  0
   12.7200   -0.7770   21.9150 C   0  0  0  0  0  0  0  0  0  0  0  0
   13.0770   -0.3860   24.2690 C   0  0  0  0  0  0  0  0  0  0  0  0
   13.4180   -1.0540   25.5810 C   0  0  0  0  0  0  0  0  0  0  0  0
   13.6650   -2.1940   25.8880 N   0  0  0  0  0  0  0  0  0  0  0  0
   13.6030   -2.9590   24.9790 C   0  0  0  0  0  0  0  0  0  0  0  0
   13.8780   -4.0070   25.7000 F   0  0  0  0  0  0  0  0  0  0  0  0
   11.7510   -2.6080   22.3200 C   0  0  0  0  0  0  0  0  0  0  0  0
   10.8870   -2.8190   21.3930 C   0  0  0  0  0  0  0  0  0  0  0  0
    9.6390   -2.2110   21.5120 C   0  0  0  0  0  0  0  0  0  0  0  0
    9.6430   -0.8520   21.8660 C   0  0  0  0  0  0  0  0  0  0  0  0
    8.5020   -0.0560   22.0190 C   0  0  0  0  0  0  0  0  0  0  0  0
    8.5820    1.5970   22.4460 Cl  0  0  0  0  0  0  0  0  0  0  0  0
    7.1570   -0.7240   21.7870 C   0  0  0  0  0  0  0  0  0  0  0  0
    7.2590   -2.2020   21.4100 C   0  0  0  0  0  0  0  0  0  0  0  0
    5.9260   -2.9210   21.1880 C   0  0  0  0  0  0  0  0  0  0  0  0
    5.4770   -3.1230   20.0750 O   0  0  0  0  0  0  0  0  0  0  0  0
    5.3860   -3.2320   22.3940 N   0  0  0  0  0  0  0  0  0  0  0  0
    4.9930   -4.4620   22.8060 C   0  0  0  0  0  0  0  0  0  0  0  0
    5.6760   -5.7560   22.8940 C   0  0  0  0  0  0  0  0  0  0  0  0
    4.5780   -6.6050   23.4550 C   0  0  0  0  0  0  0  0  0  0  0  0
    3.3270   -5.9080   23.6910 C   0  0  0  0  0  0  0  0  0  0  0  0
    3.7420   -4.6480   23.2510 O   0  0  0  0  0  0  0  0  0  0  0  0
    8.4530   -2.8590   21.2880 C   0  0  0  0  0  0  0  0  0  0  0  0
  1  2  1  0
  2  3  1  0
  3  4  1  0
  4  5  2  0
  5  6  1  0
  6  7  2  0
  7  8  1  0
  8  9  2  0
  9 10  1  0
  9 11  1  0
 11 12  2  0
 12 13  1  0
  8 14  1  0
 13 14  2  0
 14 15  1  0
  7 16  1  0
  4 17  1  0
 16 17  2  0
 17 18  1  0
 18 19  2  0
 19 20  1  0
 20 21  1  0
 20 22  2  0
 22 23  1  0
 23 24  1  0
 24 25  2  0
 24 26  1  0
 26 27  1  0
 27 28  2  0
 28 29  1  0
 29 30  2  0
 27 31  1  0
 30 31  1  0
 18 32  1  0
 23 32  2  0
M  END
