BEN-VAN-5787f7d3-20
     RDKit          3D

 32 35  0  0  0  0  0  0  0  0999 V2000
    5.3720    2.5840   20.8380 C   0  0  0  0  0  0  0  0  0  0  0  0
    6.4190    2.3900   21.8760 C   0  0  0  0  0  0  0  0  0  0  0  0
    7.6930    2.5990   21.2470 O   0  0  0  0  0  0  0  0  0  0  0  0
    8.6200    1.6880   21.6690 C   0  0  0  0  0  0  0  0  0  0  0  0
    9.7940    2.0810   22.4360 C   0  0  0  0  0  0  0  0  0  0  0  0
   10.6910    1.1730   22.8310 N   0  0  0  0  0  0  0  0  0  0  0  0
   10.5210   -0.1470   22.5150 C   0  0  0  0  0  0  0  0  0  0  0  0
   11.5750   -1.0880   23.0330 C   0  0  0  0  0  0  0  0  0  0  0  0
   11.3570   -1.2570   24.3410 C   0  0  0  0  0  0  0  0  0  0  0  0
   12.0690   -1.9590   25.2110 N   0  0  0  0  0  0  0  0  0  0  0  0
   13.0610   -2.5100   24.6650 C   0  0  0  0  0  0  0  0  0  0  0  0
   13.9220   -3.2990   25.8450 Cl  0  0  0  0  0  0  0  0  0  0  0  0
   13.4270   -2.4920   23.3510 C   0  0  0  0  0  0  0  0  0  0  0  0
   12.6730   -1.7680   22.4680 C   0  0  0  0  0  0  0  0  0  0  0  0
   13.0610   -1.7660   21.1520 C   0  0  0  0  0  0  0  0  0  0  0  0
    9.4430   -0.5890   21.8020 C   0  0  0  0  0  0  0  0  0  0  0  0
    8.5130    0.3350   21.3990 C   0  0  0  0  0  0  0  0  0  0  0  0
    7.5220   -0.3140   20.7260 C   0  0  0  0  0  0  0  0  0  0  0  0
    6.9240    0.3980   19.7780 C   0  0  0  0  0  0  0  0  0  0  0  0
    5.8210   -0.2130   18.9760 C   0  0  0  0  0  0  0  0  0  0  0  0
    5.0970    0.7670   17.7880 Cl  0  0  0  0  0  0  0  0  0  0  0  0
    5.4160   -1.5490   19.2180 C   0  0  0  0  0  0  0  0  0  0  0  0
    6.0970   -2.2060   20.2320 C   0  0  0  0  0  0  0  0  0  0  0  0
    5.8200   -3.4610   20.5780 C   0  0  0  0  0  0  0  0  0  0  0  0
    5.3880   -4.2510   19.7420 O   0  0  0  0  0  0  0  0  0  0  0  0
    6.0850   -3.7210   21.8970 N   0  0  0  0  0  0  0  0  0  0  0  0
    5.3330   -4.5990   22.6050 C   0  0  0  0  0  0  0  0  0  0  0  0
    5.4190   -6.0830   22.7130 C   0  0  0  0  0  0  0  0  0  0  0  0
    4.4860   -6.5560   23.5130 C   0  0  0  0  0  0  0  0  0  0  0  0
    3.7270   -5.3170   23.9700 C   0  0  0  0  0  0  0  0  0  0  0  0
    4.2820   -4.1960   23.3900 O   0  0  0  0  0  0  0  0  0  0  0  0
    7.1240   -1.6120   20.9690 C   0  0  0  0  0  0  0  0  0  0  0  0
  1  2  1  0
  2  3  1  0
  3  4  1  0
  4  5  2  0
  5  6  1  0
  6  7  2  0
  7  8  1  0
  8  9  2  0
  9 10  1  0
 10 11  2  0
 11 12  1  0
 11 13  1  0
  8 14  1  0
 13 14  2  0
 14 15  1  0
  7 16  1  0
  4 17  1  0
 16 17  2  0
 17 18  1  0
 18 19  2  0
 19 20  1  0
 20 21  1  0
 20 22  2  0
 22 23  1  0
 23 24  1  0
 24 25  2  0
 24 26  1  0
 26 27  1  0
 27 28  2  0
 28 29  1  0
 29 30  2  0
 27 31  1  0
 30 31  1  0
 18 32  1  0
 23 32  2  0
M  END
