BRU-LEF-cf996d6c-1
     RDKit          3D

 19 20  0  0  0  0  0  0  0  0999 V2000
    7.5470   -1.5000   19.9320 C   0  0  0  0  0  0  0  0  0  0  0  0
    6.1940   -2.2110   20.0950 C   0  0  2  0  0  0  0  0  0  0  0  0
    5.2210   -1.1330   21.1310 Cl  0  0  0  0  0  0  0  0  0  0  0  0
    6.1580   -3.5550   20.5690 C   0  0  0  0  0  0  0  0  0  0  0  0
    5.3270   -4.3830   19.7190 O   0  0  0  0  0  0  0  0  0  0  0  0
    6.8390   -3.9970   21.7060 N   0  0  0  0  0  0  0  0  0  0  0  0
    7.7380   -3.1010   22.4610 C   0  0  0  0  0  0  0  0  0  0  0  0
    7.3150   -3.0040   23.7860 C   0  0  0  0  0  0  0  0  0  0  0  0
    6.0390   -3.4940   24.0150 C   0  0  0  0  0  0  0  0  0  0  0  0
    5.4990   -3.1490   25.2760 C   0  0  0  0  0  0  0  0  0  0  0  0
    4.7490   -2.1780   25.3080 O   0  0  0  0  0  0  0  0  0  0  0  0
    5.7330   -3.8480   26.4970 N   0  0  0  0  0  0  0  0  0  0  0  0
    6.3850   -3.1570   27.6060 C   0  0  0  0  0  0  0  0  0  0  0  0
    6.7690   -4.2350   28.4060 C   0  0  0  0  0  0  0  0  0  0  0  0
    5.7430   -4.8040   29.0660 C   0  0  0  0  0  0  0  0  0  0  0  0
    4.8410   -5.3470   28.2060 C   0  0  0  0  0  0  0  0  0  0  0  0
    4.6200   -4.5170   26.9530 C   0  0  0  0  0  0  0  0  0  0  0  0
    5.9580   -4.8650   23.8280 C   0  0  0  0  0  0  0  0  0  0  0  0
    6.4700   -5.2280   22.4360 C   0  0  0  0  0  0  0  0  0  0  0  0
  2  1  1  1
  2  3  1  0
  2  4  1  0
  4  5  2  0
  4  6  1  0
  6  7  1  0
  7  8  1  0
  8  9  1  0
  9 10  1  0
 10 11  2  0
 10 12  1  0
 12 13  1  0
 13 14  1  0
 14 15  1  0
 15 16  1  0
 12 17  1  0
 16 17  1  0
  9 18  1  0
  6 19  1  0
 18 19  1  0
M  END
