CAM-WAB-d3b4be56-1
     RDKit          3D

 27 29  0  0  0  0  0  0  0  0999 V2000
    9.3430   -2.6950   23.3230 N   0  0  0  0  0  0  0  0  0  0  0  0
    8.6350   -3.4020   24.1460 C   0  0  1  0  0  0  0  0  0  0  0  0
    9.2310   -4.3120   25.1320 C   0  0  0  0  0  0  0  0  0  0  0  0
    8.5220   -5.1880   25.7950 C   0  0  0  0  0  0  0  0  0  0  0  0
    8.9070   -6.2620   26.2120 O   0  0  0  0  0  0  0  0  0  0  0  0
    7.1370   -4.6050   25.9630 C   0  0  1  0  0  0  0  0  0  0  0  0
    6.5430   -5.1950   27.5440 S   0  0  0  0  0  0  0  0  0  0  0  0
    5.2420   -6.1490   27.0890 N   0  0  0  0  0  0  0  0  0  0  0  0
    5.9860   -4.0890   28.2790 O   0  0  0  0  0  0  0  0  0  0  0  0
    7.5290   -6.0550   28.1480 O   0  0  0  0  0  0  0  0  0  0  0  0
    6.9660   -3.1670   25.7140 C   0  0  0  0  0  0  0  0  0  0  0  0
    7.9080   -2.4270   24.9540 N   0  0  0  0  0  0  0  0  0  0  0  0
    8.7590   -1.4310   25.5060 C   0  0  0  0  0  0  0  0  0  0  0  0
    8.2290   -0.4960   26.3660 N   0  0  0  0  0  0  0  0  0  0  0  0
    7.5100    0.6470   25.9480 C   0  0  0  0  0  0  0  0  0  0  0  0
    7.5060    1.5940   27.1440 C   0  0  0  0  0  0  0  0  0  0  0  0
    8.1590    1.0670   28.4310 C   0  0  0  0  0  0  0  0  0  0  0  0
    8.3520   -0.2860   28.6280 C   0  0  1  0  0  0  0  0  0  0  0  0
    7.8900   -0.5110   29.9530 C   0  0  0  0  0  0  0  0  0  0  0  0
    6.4420   -0.7930   30.1560 C   0  0  0  0  0  0  0  0  0  0  0  0
    5.6700   -0.8120   28.9120 C   0  0  0  0  0  0  0  0  0  0  0  0
    3.9110   -0.7220   28.9800 S   0  0  0  0  0  0  0  0  0  0  0  0
    3.4080    0.0740   27.5820 N   0  0  0  0  0  0  0  0  0  0  0  0
    3.3200   -2.0360   28.8650 O   0  0  0  0  0  0  0  0  0  0  0  0
    3.4900    0.1650   30.0450 O   0  0  0  0  0  0  0  0  0  0  0  0
    6.3390   -0.8990   27.6650 C   0  0  0  0  0  0  0  0  0  0  0  0
    7.7470   -0.9560   27.5720 C   0  0  1  0  0  0  0  0  0  0  0  0
  2  1  1  1
  2  3  1  0
  3  4  1  0
  4  5  2  0
  4  6  1  0
  6  7  1  1
  7  8  1  0
  7  9  2  0
  7 10  2  0
  6 11  1  0
  2 12  1  0
 11 12  1  0
 12 13  1  0
 13 14  1  0
 14 15  1  0
 15 16  1  0
 16 17  1  0
 18 17  1  6
 18 19  1  0
 19 20  2  0
 20 21  1  0
 21 22  1  0
 22 23  1  0
 22 24  2  0
 22 25  2  0
 21 26  2  0
 14 27  1  0
 18 27  1  0
 27 26  1  6
M  END
