CAR-INS-33b3c115-3
     RDKit          3D

 27 30  0  0  0  0  0  0  0  0999 V2000
   14.8050   -3.0430   23.8990 O   0  0  0  0  0  0  0  0  0  0  0  0
   13.8570   -2.5490   23.6500 C   0  0  0  0  0  0  0  0  0  0  0  0
   14.0730   -2.2890   24.9640 C   0  0  0  0  0  0  0  0  0  0  0  0
   13.3200   -1.4170   25.4970 O   0  0  0  0  0  0  0  0  0  0  0  0
   15.1910   -3.0570   25.4860 N   0  0  0  0  0  0  0  0  0  0  0  0
   16.0710   -4.1420   24.8830 C   0  0  0  0  0  0  0  0  0  0  0  0
   17.5400   -4.0710   24.8940 C   0  0  0  0  0  0  0  0  0  0  0  0
   18.0900   -3.4540   26.2070 N   0  0  0  0  0  0  0  0  0  0  0  0
   19.2860   -2.9050   25.7180 C   0  0  0  0  0  0  0  0  0  0  0  0
   19.6220   -2.1260   24.6520 O   0  0  0  0  0  0  0  0  0  0  0  0
   20.6170   -3.0090   26.2640 C   0  0  0  0  0  0  0  0  0  0  0  0
   21.1660   -2.0740   27.3820 C   0  0  0  0  0  0  0  0  0  0  0  0
   22.6480   -2.2300   28.1040 C   0  0  0  0  0  0  0  0  0  0  0  0
   23.5250   -3.4770   27.4840 C   0  0  0  0  0  0  0  0  0  0  0  0
   22.6540   -4.0230   26.4640 C   0  0  0  0  0  0  0  0  0  0  0  0
   21.4280   -3.9990   25.8150 C   0  0  0  0  0  0  0  0  0  0  0  0
   17.4590   -2.2570   26.3390 C   0  0  0  0  0  0  0  0  0  0  0  0
   15.9170   -2.2100   26.3020 C   0  0  0  0  0  0  0  0  0  0  0  0
   12.7050   -1.9420   23.3760 C   0  0  0  0  0  0  0  0  0  0  0  0
   12.5880   -0.5390   22.5420 C   0  0  0  0  0  0  0  0  0  0  0  0
   11.2600   -0.5690   22.6130 N   0  0  0  0  0  0  0  0  0  0  0  0
   10.4860   -1.7480   23.3810 C   0  0  0  0  0  0  0  0  0  0  0  0
   10.1240   -3.0620   24.3020 C   0  0  0  0  0  0  0  0  0  0  0  0
    9.6680   -2.1300   23.6580 N   0  0  0  0  0  0  0  0  0  0  0  0
    9.3010   -1.1570   22.9640 C   0  0  0  0  0  0  0  0  0  0  0  0
    9.5770   -2.3770   23.8920 C   0  0  0  0  0  0  0  0  0  0  0  0
   11.2570   -2.5400   23.8510 C   0  0  0  0  0  0  0  0  0  0  0  0
  1  2  2  0
  2  3  1  0
  3  4  2  0
  3  5  1  0
  5  6  1  0
  6  7  1  0
  7  8  1  0
  8  9  1  0
  9 10  2  0
  9 11  1  0
 11 12  2  0
 12 13  1  0
 13 14  2  0
 14 15  1  0
 11 16  1  0
 15 16  2  0
  8 17  1  0
  5 18  1  0
 17 18  1  0
  2 19  1  0
 19 20  2  0
 20 21  1  0
 21 22  1  0
 22 23  1  0
 23 24  2  0
 24 25  1  0
 25 26  2  0
 19 27  1  0
 22 27  2  0
 26 27  1  0
M  END
