CAS-DEP-751a2458-1
     RDKit          3D

 18 20  0  0  0  0  0  0  0  0999 V2000
   12.6290    2.9510   22.8620 C   0  0  0  0  0  0  0  0  0  0  0  0
   12.9060    1.5870   22.6870 C   0  0  0  0  0  0  0  0  0  0  0  0
   12.4340    0.2640   22.6750 C   0  0  0  0  0  0  0  0  0  0  0  0
   12.2130   -1.1910   22.5920 C   0  0  0  0  0  0  0  0  0  0  0  0
   10.8300   -0.6930   22.9760 C   0  0  0  0  0  0  0  0  0  0  0  0
   10.5920    0.6940   23.1600 C   0  0  0  0  0  0  0  0  0  0  0  0
    9.3060    1.2360   23.5370 N   0  0  0  0  0  0  0  0  0  0  0  0
    9.5820    2.6700   23.5840 C   0  0  0  0  0  0  0  0  0  0  0  0
    8.4960    3.4550   23.9340 C   0  0  0  0  0  0  0  0  0  0  0  0
    7.2500    3.0050   23.4770 C   0  0  0  0  0  0  0  0  0  0  0  0
    5.9780    3.8330   23.8290 C   0  0  0  0  0  0  0  0  0  0  0  0
    6.1600    4.9740   24.5830 C   0  0  0  0  0  0  0  0  0  0  0  0
    5.2510    5.7230   24.9390 O   0  0  0  0  0  0  0  0  0  0  0  0
    7.4400    5.3490   24.9980 C   0  0  0  0  0  0  0  0  0  0  0  0
    8.6020    4.6360   24.7010 C   0  0  0  0  0  0  0  0  0  0  0  0
    9.6910    5.0450   25.1100 O   0  0  0  0  0  0  0  0  0  0  0  0
   10.8940    2.9880   23.2770 N   0  0  0  0  0  0  0  0  0  0  0  0
   11.6090    1.8570   23.0130 C   0  0  0  0  0  0  0  0  0  0  0  0
  1  2  1  0
  2  3  2  0
  3  4  1  0
  4  5  2  0
  5  6  1  0
  6  7  1  0
  7  8  2  0
  8  9  1  0
  9 10  2  0
 10 11  1  0
 11 12  2  0
 12 13  1  0
 12 14  1  0
  9 15  1  0
 14 15  2  0
 15 16  1  0
  8 17  1  0
  2 18  1  0
  6 18  2  0
 17 18  1  0
M  END
