CAS-DEP-751a2458-3
     RDKit          3D

 16 17  0  0  0  0  0  0  0  0999 V2000
    7.6840    0.0030   24.3350 O   0  0  0  0  0  0  0  0  0  0  0  0
    8.0190   -1.1380   24.0590 C   0  0  0  0  0  0  0  0  0  0  0  0
    7.4260   -2.2190   24.7010 N   0  0  0  0  0  0  0  0  0  0  0  0
    6.1670   -2.2600   25.3440 C   0  0  0  0  0  0  0  0  0  0  0  0
    4.9070   -1.9710   24.8470 C   0  0  0  0  0  0  0  0  0  0  0  0
    3.9490   -2.1400   25.8200 C   0  0  0  0  0  0  0  0  0  0  0  0
    4.5460   -2.5450   26.9760 N   0  0  0  0  0  0  0  0  0  0  0  0
    5.8760   -2.6550   26.8190 C   0  0  0  0  0  0  0  0  0  0  0  0
    8.9670   -1.3810   23.1040 N   0  0  0  0  0  0  0  0  0  0  0  0
   10.3130   -0.8360   22.9540 C   0  0  0  0  0  0  0  0  0  0  0  0
   10.5730    0.5080   23.1690 C   0  0  0  0  0  0  0  0  0  0  0  0
   11.8550    0.9970   23.0120 C   0  0  0  0  0  0  0  0  0  0  0  0
   12.9140    0.1980   22.6420 C   0  0  0  0  0  0  0  0  0  0  0  0
   12.6370   -1.1590   22.4200 C   0  0  0  0  0  0  0  0  0  0  0  0
   13.5900   -1.9780   22.0530 F   0  0  0  0  0  0  0  0  0  0  0  0
   11.3540   -1.6800   22.5760 C   0  0  0  0  0  0  0  0  0  0  0  0
  1  2  2  0
  2  3  1  0
  3  4  1  0
  4  5  1  0
  5  6  2  0
  6  7  1  0
  4  8  2  0
  7  8  1  0
  2  9  1  0
  9 10  1  0
 10 11  2  0
 11 12  1  0
 12 13  2  0
 13 14  1  0
 14 15  1  0
 10 16  1  0
 14 16  2  0
M  END
