CAS-DEP-e179b1f5-2
     RDKit          3D

 24 26  0  0  0  0  0  0  0  0999 V2000
    8.5740   -1.1050   21.8580 O   0  0  0  0  0  0  0  0  0  0  0  0
    9.1930   -1.7770   22.6780 C   0  0  0  0  0  0  0  0  0  0  0  0
    8.9730   -3.1760   23.0050 N   0  0  0  0  0  0  0  0  0  0  0  0
    7.5780   -3.6360   23.0080 C   0  0  0  0  0  0  0  0  0  0  0  0
    7.2400   -4.9570   23.3170 C   0  0  0  0  0  0  0  0  0  0  0  0
    5.8600   -5.0810   23.2300 C   0  0  0  0  0  0  0  0  0  0  0  0
    5.3540   -3.8970   22.8870 C   0  0  0  0  0  0  0  0  0  0  0  0
    4.0420   -3.6640   22.7140 F   0  0  0  0  0  0  0  0  0  0  0  0
    6.4200   -2.8800   22.7210 C   0  0  0  0  0  0  0  0  0  0  0  0
   10.2610   -1.3620   23.5150 N   0  0  0  0  0  0  0  0  0  0  0  0
   11.4620   -0.7440   23.1750 C   0  0  0  0  0  0  0  0  0  0  0  0
   12.0010    0.4640   22.9410 C   0  0  0  0  0  0  0  0  0  0  0  0
   11.0020    1.5970   23.0570 C   0  0  0  0  0  0  0  0  0  0  0  0
   11.5430    2.8230   22.8470 C   0  0  0  0  0  0  0  0  0  0  0  0
   12.7550    3.4650   22.5410 C   0  0  0  0  0  0  0  0  0  0  0  0
   12.9660    4.6040   23.3170 N   0  0  0  0  0  0  0  0  0  0  0  0
   11.8950    5.5460   23.6210 C   0  0  0  0  0  0  0  0  0  0  0  0
   11.6380    5.8760   24.9450 C   0  0  0  0  0  0  0  0  0  0  0  0
   10.6160    6.7720   25.2960 C   0  0  0  0  0  0  0  0  0  0  0  0
    9.8290    7.3530   24.2750 C   0  0  0  0  0  0  0  0  0  0  0  0
   10.1010    7.0120   22.9500 C   0  0  0  0  0  0  0  0  0  0  0  0
   11.1180    6.1270   22.6380 C   0  0  0  0  0  0  0  0  0  0  0  0
   12.0950    1.5470   22.8420 C   0  0  0  0  0  0  0  0  0  0  0  0
   11.0140    0.5300   23.1550 C   0  0  0  0  0  0  0  0  0  0  0  0
  1  2  2  0
  2  3  1  0
  3  4  1  0
  4  5  2  0
  5  6  1  0
  6  7  2  0
  7  8  1  0
  4  9  1  0
  7  9  1  0
  2 10  1  0
 10 11  1  0
 11 12  2  0
 12 13  1  0
 13 14  2  0
 14 15  1  0
 15 16  1  0
 16 17  1  0
 17 18  2  0
 18 19  1  0
 19 20  2  0
 20 21  1  0
 17 22  1  0
 21 22  2  0
 14 23  1  0
 11 24  1  0
 23 24  2  0
M  END
