CAS-DEP-751a2458-5
     RDKit          3D

 17 18  0  0  0  0  0  0  0  0999 V2000
   12.8530    3.3070   22.7060 C   0  0  0  0  0  0  0  0  0  0  0  0
   11.4130    2.7560   22.8490 C   0  0  0  0  0  0  0  0  0  0  0  0
   10.8040    1.6140   22.9810 C   0  0  0  0  0  0  0  0  0  0  0  0
   11.7700    0.5340   23.0060 C   0  0  0  0  0  0  0  0  0  0  0  0
   11.2400   -0.6260   23.1370 C   0  0  0  0  0  0  0  0  0  0  0  0
    9.9840   -1.3780   23.2790 N   0  0  0  0  0  0  0  0  0  0  0  0
   10.0450   -2.7360   23.3640 C   0  0  0  0  0  0  0  0  0  0  0  0
   10.9560   -3.2870   23.9730 O   0  0  0  0  0  0  0  0  0  0  0  0
    9.0440   -3.4270   22.7220 N   0  0  0  0  0  0  0  0  0  0  0  0
    7.7850   -3.6610   23.4000 C   0  0  0  0  0  0  0  0  0  0  0  0
    7.2670   -4.9390   23.2920 C   0  0  0  0  0  0  0  0  0  0  0  0
    6.0010   -5.0170   24.0300 N   0  0  0  0  0  0  0  0  0  0  0  0
    5.8930   -3.7490   24.5100 N   0  0  0  0  0  0  0  0  0  0  0  0
    6.9330   -2.9020   24.1610 C   0  0  0  0  0  0  0  0  0  0  0  0
   10.4430    0.5000   23.0950 C   0  0  0  0  0  0  0  0  0  0  0  0
   11.7830    1.2240   22.9470 C   0  0  0  0  0  0  0  0  0  0  0  0
   13.0660    0.6010   22.9140 C   0  0  0  0  0  0  0  0  0  0  0  0
  1  2  1  0
  2  3  2  0
  3  4  1  0
  4  5  2  0
  5  6  1  0
  6  7  1  0
  7  8  2  0
  7  9  1  0
  9 10  1  0
 10 11  1  0
 11 12  2  0
 12 13  1  0
 10 14  2  0
 13 14  1  0
  5 15  1  0
  2 16  1  0
 15 16  2  0
 16 17  1  0
M  END
