CAS-DEP-167c18e3-4
     RDKit          3D

 21 23  0  0  0  0  0  0  0  0999 V2000
   10.1590    4.4010   24.4530 O   0  0  0  0  0  0  0  0  0  0  0  0
    9.9590    3.3760   23.7910 C   0  0  0  0  0  0  0  0  0  0  0  0
    8.6830    2.6970   23.7560 N   0  0  0  0  0  0  0  0  0  0  0  0
    7.8560    2.5210   24.8380 C   0  0  0  0  0  0  0  0  0  0  0  0
    6.9200    1.4500   24.8560 C   0  0  0  0  0  0  0  0  0  0  0  0
    6.1410    1.3470   25.9570 N   0  0  0  0  0  0  0  0  0  0  0  0
    6.5950    2.4320   26.7270 N   0  0  0  0  0  0  0  0  0  0  0  0
    7.6220    3.2140   26.1680 C   0  0  0  0  0  0  0  0  0  0  0  0
   10.8790    2.7200   23.0030 N   0  0  0  0  0  0  0  0  0  0  0  0
   11.1760    1.3300   22.9330 C   0  0  0  0  0  0  0  0  0  0  0  0
   12.5210    1.0140   22.8310 C   0  0  0  0  0  0  0  0  0  0  0  0
   13.0230   -0.2920   22.7350 C   0  0  0  0  0  0  0  0  0  0  0  0
   11.9970   -1.4400   22.7500 C   0  0  0  0  0  0  0  0  0  0  0  0
   10.5430   -1.0170   22.8720 C   0  0  0  0  0  0  0  0  0  0  0  0
    9.4070   -2.0200   22.9000 C   0  0  0  0  0  0  0  0  0  0  0  0
    9.4320   -3.2080   23.5940 C   0  0  0  0  0  0  0  0  0  0  0  0
    8.3650   -4.1040   23.6080 C   0  0  0  0  0  0  0  0  0  0  0  0
    7.2230   -3.7730   22.8870 C   0  0  0  0  0  0  0  0  0  0  0  0
    7.1400   -2.6220   22.1880 N   0  0  0  0  0  0  0  0  0  0  0  0
    8.2170   -1.7850   22.2070 C   0  0  0  0  0  0  0  0  0  0  0  0
   10.2220    0.3250   22.9550 C   0  0  0  0  0  0  0  0  0  0  0  0
  1  2  2  0
  2  3  1  0
  3  4  1  0
  4  5  1  0
  5  6  2  0
  6  7  1  0
  4  8  2  0
  7  8  1  0
  2  9  1  0
  9 10  1  0
 10 11  2  0
 11 12  1  0
 12 13  2  0
 13 14  1  0
 14 15  1  0
 15 16  2  0
 16 17  1  0
 17 18  2  0
 18 19  1  0
 15 20  1  0
 19 20  2  0
 10 21  1  0
 14 21  2  0
M  END
