CAS-DEP-e179b1f5-3
     RDKit          3D

 23 25  0  0  0  0  0  0  0  0999 V2000
   12.8590    4.3270   22.0160 O   0  0  0  0  0  0  0  0  0  0  0  0
   12.1740    3.5750   22.7220 C   0  0  0  0  0  0  0  0  0  0  0  0
   11.1780    4.6170   22.7070 N   0  0  0  0  0  0  0  0  0  0  0  0
   11.2630    5.7150   23.4940 C   0  0  0  0  0  0  0  0  0  0  0  0
   10.2520    5.8000   24.5530 C   0  0  0  0  0  0  0  0  0  0  0  0
   10.3980    7.0690   25.4360 C   0  0  0  0  0  0  0  0  0  0  0  0
   11.3920    8.0040   25.2150 C   0  0  0  0  0  0  0  0  0  0  0  0
   12.2900    7.8030   24.1650 C   0  0  0  0  0  0  0  0  0  0  0  0
   12.2030    6.6890   23.3550 C   0  0  0  0  0  0  0  0  0  0  0  0
   11.0200    3.0940   23.5330 C   0  0  0  0  0  0  0  0  0  0  0  0
   10.3600    1.9570   24.1340 C   0  0  0  0  0  0  0  0  0  0  0  0
   11.1520    0.5830   23.8690 C   0  0  0  0  0  0  0  0  0  0  0  0
   12.6450    0.4050   22.9980 Cl  0  0  0  0  0  0  0  0  0  0  0  0
   10.4630   -0.3700   24.4380 C   0  0  0  0  0  0  0  0  0  0  0  0
   10.2410    0.9950   24.3590 C   0  0  0  0  0  0  0  0  0  0  0  0
   11.2830    1.7590   23.5860 C   0  0  0  0  0  0  0  0  0  0  0  0
   12.3360    1.1680   23.0110 C   0  0  0  0  0  0  0  0  0  0  0  0
   11.8070    0.0400   22.4610 N   0  0  0  0  0  0  0  0  0  0  0  0
   12.4390   -1.1860   22.7240 C   0  0  0  0  0  0  0  0  0  0  0  0
   12.6030   -1.5320   24.0720 C   0  0  0  0  0  0  0  0  0  0  0  0
   13.2520   -2.6860   24.0300 C   0  0  0  0  0  0  0  0  0  0  0  0
   13.4420   -2.9550   22.5510 C   0  0  0  0  0  0  0  0  0  0  0  0
   12.8940   -1.9940   21.7140 C   0  0  0  0  0  0  0  0  0  0  0  0
  1  2  2  0
  2  3  1  0
  3  4  1  0
  4  5  2  0
  5  6  1  0
  6  7  2  0
  7  8  1  0
  4  9  1  0
  8  9  2  0
  2 10  1  0
 10 11  2  0
 11 12  1  0
 12 13  1  0
 12 14  2  0
 14 15  1  0
 10 16  1  0
 15 16  2  0
 16 17  1  0
 17 18  1  0
 18 19  1  0
 19 20  2  0
 20 21  1  0
 21 22  2  0
 19 23  1  0
 22 23  1  0
M  END
