CAT-CEN-91a3f3b0-1
     RDKit          3D

 30 33  0  0  0  0  0  0  0  0999 V2000
    5.9120    1.8870   24.9220 O   0  0  0  0  0  0  0  0  0  0  0  0
    6.5420    0.9260   24.4840 C   0  0  0  0  0  0  0  0  0  0  0  0
    7.3730   -0.1110   25.0510 C   0  0  0  0  0  0  0  0  0  0  0  0
    7.6420   -0.1920   26.4700 N   0  0  0  0  0  0  0  0  0  0  0  0
    6.6560   -0.3560   27.4650 C   0  0  0  0  0  0  0  0  0  0  0  0
    7.1900   -0.7390   28.7950 C   0  0  0  0  0  0  0  0  0  0  0  0
    6.7550    0.1690   29.6970 N   0  0  0  0  0  0  0  0  0  0  0  0
    7.7820    1.0120   30.3190 C   0  0  0  0  0  0  0  0  0  0  0  0
    7.9600    0.5630   31.7180 C   0  0  0  0  0  0  0  0  0  0  0  0
    6.8900    1.0630   32.2990 N   0  0  0  0  0  0  0  0  0  0  0  0
    5.6670    0.5330   31.8170 C   0  0  0  0  0  0  0  0  0  0  0  0
    5.6360   -0.1920   30.5410 C   0  0  0  0  0  0  0  0  0  0  0  0
    7.6000   -0.6790   23.7970 C   0  0  0  0  0  0  0  0  0  0  0  0
    8.2730   -1.7160   23.2590 N   0  0  0  0  0  0  0  0  0  0  0  0
    9.5280   -2.2440   23.8370 C   0  0  0  0  0  0  0  0  0  0  0  0
   10.6450   -1.4620   23.5910 C   0  0  0  0  0  0  0  0  0  0  0  0
   10.8150   -0.2160   24.1860 C   0  0  0  0  0  0  0  0  0  0  0  0
   11.9710    0.5070   23.8950 C   0  0  0  0  0  0  0  0  0  0  0  0
   12.9220   -0.0430   23.0200 C   0  0  0  0  0  0  0  0  0  0  0  0
   12.8390   -1.3020   22.3670 C   0  0  0  0  0  0  0  0  0  0  0  0
   11.6040   -1.9980   22.7150 N   0  0  0  0  0  0  0  0  0  0  0  0
    7.8250   -2.4790   22.1860 C   0  0  0  0  0  0  0  0  0  0  0  0
    6.9800   -3.5740   22.3380 C   0  0  0  0  0  0  0  0  0  0  0  0
    5.6250   -3.3830   22.6080 C   0  0  0  0  0  0  0  0  0  0  0  0
    4.7530   -4.4710   22.7570 C   0  0  0  0  0  0  0  0  0  0  0  0
    5.3210   -5.8650   22.6160 C   0  0  0  0  0  0  0  0  0  0  0  0
    6.6930   -5.9490   22.3470 C   0  0  0  0  0  0  0  0  0  0  0  0
    7.5030   -4.8530   22.2080 N   0  0  0  0  0  0  0  0  0  0  0  0
    6.7410    0.3790   23.1260 C   0  0  0  0  0  0  0  0  0  0  0  0
    6.3410    0.7170   22.0160 O   0  0  0  0  0  0  0  0  0  0  0  0
  1  2  2  0
  2  3  1  0
  3  4  1  0
  4  5  1  0
  5  6  1  0
  6  7  1  0
  7  8  1  0
  8  9  1  0
  9 10  1  0
 10 11  1  0
  7 12  1  0
 11 12  1  0
  3 13  2  0
 13 14  1  0
 14 15  1  0
 15 16  1  0
 16 17  2  0
 17 18  1  0
 18 19  2  0
 19 20  1  0
 16 21  1  0
 20 21  2  0
 14 22  1  0
 22 23  1  0
 23 24  2  0
 24 25  1  0
 25 26  2  0
 26 27  1  0
 23 28  1  0
 27 28  2  0
  2 29  1  0
 13 29  1  0
 29 30  2  0
M  END
