CHA-MCP-85291e1d-6
     RDKit          3D

 23 24  0  0  0  0  0  0  0  0999 V2000
    7.4020    9.9400   23.6220 C   0  0  0  0  0  0  0  0  0  0  0  0
    7.6040    8.7420   23.4640 O   0  0  0  0  0  0  0  0  0  0  0  0
    8.8460    8.2820   23.7920 C   0  0  0  0  0  0  0  0  0  0  0  0
    9.4900    8.6980   24.9070 C   0  0  0  0  0  0  0  0  0  0  0  0
   10.8520    8.2430   25.3320 C   0  0  0  0  0  0  0  0  0  0  0  0
   11.6140    7.2460   24.4890 C   0  0  0  0  0  0  0  0  0  0  0  0
   10.8900    6.7670   23.2180 C   0  0  0  0  0  0  0  0  0  0  0  0
   11.4150    5.9010   22.3720 N   0  0  0  0  0  0  0  0  0  0  0  0
   11.9210    4.8830   23.1340 C   0  0  0  0  0  0  0  0  0  0  0  0
   11.7570    4.9550   24.5360 O   0  0  0  0  0  0  0  0  0  0  0  0
   12.6670    3.6390   22.6360 C   0  0  0  0  0  0  0  0  0  0  0  0
   12.0780    2.4120   23.0290 C   0  0  0  0  0  0  0  0  0  0  0  0
   11.0250    1.6480   23.6020 C   0  0  0  0  0  0  0  0  0  0  0  0
   11.6840    0.1270   23.4180 C   0  0  0  0  0  0  0  0  0  0  0  0
   10.9230   -0.8720   23.8650 C   0  0  0  0  0  0  0  0  0  0  0  0
   10.9120    0.4650   23.7510 C   0  0  0  0  0  0  0  0  0  0  0  0
    9.8690    1.3150   24.1560 C   0  0  0  0  0  0  0  0  0  0  0  0
    8.6590    0.4660   25.2150 S   0  0  0  0  0  0  0  0  0  0  0  0
    9.4480   -0.0940   26.4220 N   0  0  0  0  0  0  0  0  0  0  0  0
    7.7690    1.4500   25.7820 O   0  0  0  0  0  0  0  0  0  0  0  0
    8.1240   -0.6940   24.5360 O   0  0  0  0  0  0  0  0  0  0  0  0
   12.3020    1.1100   23.0460 C   0  0  0  0  0  0  0  0  0  0  0  0
    9.6000    7.2660   22.9160 C   0  0  0  0  0  0  0  0  0  0  0  0
  1  2  1  0
  2  3  1  0
  3  4  2  0
  4  5  1  0
  5  6  2  0
  6  7  1  0
  7  8  1  0
  8  9  1  0
  9 10  2  0
  9 11  1  0
 11 12  1  0
 12 13  2  0
 13 14  1  0
 14 15  2  0
 15 16  1  0
 16 17  1  0
 17 18  1  0
 18 19  1  0
 18 20  2  0
 18 21  2  0
 12 22  1  0
 16 22  2  0
  3 23  1  0
  7 23  2  0
M  END
