CHA-KIN-bfe9b535-4
     RDKit          3D

 36 38  0  0  0  0  0  0  0  0999 V2000
    9.3930    7.2710   22.1940 C   0  0  0  0  0  0  0  0  0  0  0  0
    8.6980    6.7000   23.2670 N   0  0  0  0  0  0  0  0  0  0  0  0
    8.4300    7.2290   24.4510 C   0  0  0  0  0  0  0  0  0  0  0  0
    7.7630    6.4900   25.2600 C   0  0  0  0  0  0  0  0  0  0  0  0
    7.2250    6.7960   26.8400 Cl  0  0  0  0  0  0  0  0  0  0  0  0
    7.5950    5.2660   24.3890 C   0  0  0  0  0  0  0  0  0  0  0  0
    6.8960    4.0820   24.8100 N   0  0  0  0  0  0  0  0  0  0  0  0
    6.6460    3.1700   23.6880 C   0  0  0  0  0  0  0  0  0  0  0  0
    5.6590    3.1450   22.9630 O   0  0  0  0  0  0  0  0  0  0  0  0
    7.7100    2.2670   23.5160 N   0  0  0  0  0  0  0  0  0  0  0  0
    7.8000    1.3410   22.5140 C   0  0  2  0  0  0  0  0  0  0  0  0
    6.5990    0.3920   22.5980 C   0  0  0  0  0  0  0  0  0  0  0  0
    6.1670    0.4760   21.1230 C   0  0  0  0  0  0  0  0  0  0  0  0
    5.1440    1.2570   20.5970 C   0  0  0  0  0  0  0  0  0  0  0  0
    4.8870    1.2220   19.0860 C   0  0  0  0  0  0  0  0  0  0  0  0
    5.6550    0.4320   18.2910 C   0  0  0  0  0  0  0  0  0  0  0  0
    5.4920    0.3770   17.1200 O   0  0  0  0  0  0  0  0  0  0  0  0
    6.7370   -0.3870   18.9220 C   0  0  0  0  0  0  0  0  0  0  0  0
    6.9310   -0.3230   20.2760 C   0  0  0  0  0  0  0  0  0  0  0  0
    9.2230    0.6870   22.6440 C   0  0  0  0  0  0  0  0  0  0  0  0
   10.1980    1.3310   22.3320 O   0  0  0  0  0  0  0  0  0  0  0  0
    9.3290   -0.6160   23.0900 N   0  0  0  0  0  0  0  0  0  0  0  0
   10.5930   -1.3090   22.6890 C   0  0  2  0  0  0  0  0  0  0  0  0
   10.7600   -2.5860   23.1750 C   0  0  0  0  0  0  0  0  0  0  0  0
   11.3730   -2.6460   24.5430 N   0  0  0  0  0  0  0  0  0  0  0  0
   13.0090   -2.4060   24.8300 S   0  0  0  0  0  0  0  0  0  0  0  0
   13.6720   -2.7770   23.3750 N   0  0  0  0  0  0  0  0  0  0  0  0
   13.2000   -0.9980   25.0440 O   0  0  0  0  0  0  0  0  0  0  0  0
   13.5430   -3.4050   25.7120 O   0  0  0  0  0  0  0  0  0  0  0  0
   11.8070   -0.4390   23.0070 C   0  0  0  0  0  0  0  0  0  0  0  0
   11.7730    0.6120   23.9350 C   0  0  0  0  0  0  0  0  0  0  0  0
   12.7670    0.1520   23.1650 C   0  0  0  0  0  0  0  0  0  0  0  0
   12.1010   -1.0260   22.3990 C   0  0  0  0  0  0  0  0  0  0  0  0
   12.7660   -1.7340   21.5360 C   0  0  0  0  0  0  0  0  0  0  0  0
   13.1970   -0.5610   22.3900 C   0  0  0  0  0  0  0  0  0  0  0  0
    8.1870    5.4560   23.1890 N   0  0  0  0  0  0  0  0  0  0  0  0
  1  2  1  0
  2  3  1  0
  3  4  2  0
  4  5  1  0
  4  6  1  0
  6  7  1  0
  7  8  1  0
  8  9  2  0
  8 10  1  0
 10 11  1  0
 11 12  1  1
 12 13  1  0
 13 14  2  0
 14 15  1  0
 15 16  2  0
 16 17  1  0
 16 18  1  0
 13 19  1  0
 18 19  2  0
 11 20  1  0
 20 21  2  0
 20 22  1  0
 22 23  1  0
 23 24  1  1
 24 25  1  0
 26 25  1  0
 26 27  1  0
 26 28  2  0
 26 29  2  0
 23 30  1  0
 30 31  2  0
 31 32  1  0
 32 33  2  0
 33 34  1  0
 30 35  1  0
 34 35  2  0
  2 36  1  0
  6 36  2  0
M  END
