CHA-KIN-bfe9b535-2
     RDKit          3D

 36 38  0  0  0  0  0  0  0  0999 V2000
    7.6290    9.4480   23.6900 C   0  0  0  0  0  0  0  0  0  0  0  0
    7.2800    8.2470   22.9080 C   0  0  0  0  0  0  0  0  0  0  0  0
    6.4330    8.3470   21.7990 C   0  0  0  0  0  0  0  0  0  0  0  0
    6.0440    7.2860   21.0030 C   0  0  0  0  0  0  0  0  0  0  0  0
    6.5690    6.0620   21.3950 C   0  0  0  0  0  0  0  0  0  0  0  0
    7.4820    5.9420   22.5810 C   0  0  0  0  0  0  0  0  0  0  0  0
    8.0450    4.8290   23.0350 N   0  0  0  0  0  0  0  0  0  0  0  0
    7.1410    3.7900   23.0280 C   0  0  0  0  0  0  0  0  0  0  0  0
    6.0300    3.7660   23.5400 O   0  0  0  0  0  0  0  0  0  0  0  0
    7.6440    2.7000   22.3630 N   0  0  0  0  0  0  0  0  0  0  0  0
    7.5770    1.3500   22.9330 C   0  0  1  0  0  0  0  0  0  0  0  0
    6.3190    0.6630   22.5520 C   0  0  0  0  0  0  0  0  0  0  0  0
    6.1540    0.6560   21.2190 C   0  0  0  0  0  0  0  0  0  0  0  0
    5.2450    1.5340   20.6150 C   0  0  0  0  0  0  0  0  0  0  0  0
    5.1050    1.4950   19.2340 C   0  0  0  0  0  0  0  0  0  0  0  0
    5.8390    0.6170   18.4620 C   0  0  0  0  0  0  0  0  0  0  0  0
    5.6550    0.6300   17.1430 O   0  0  0  0  0  0  0  0  0  0  0  0
    6.7460   -0.2600   19.0480 C   0  0  0  0  0  0  0  0  0  0  0  0
    6.8990   -0.2370   20.4170 C   0  0  0  0  0  0  0  0  0  0  0  0
    8.8040    0.5900   22.4140 C   0  0  0  0  0  0  0  0  0  0  0  0
    9.7210    1.1630   21.8460 O   0  0  0  0  0  0  0  0  0  0  0  0
    8.7940   -0.7340   22.6320 N   0  0  0  0  0  0  0  0  0  0  0  0
    9.7160   -1.1970   23.5120 C   0  0  1  0  0  0  0  0  0  0  0  0
   10.2150   -2.5880   23.1960 C   0  0  0  0  0  0  0  0  0  0  0  0
   11.6710   -2.5780   22.8940 N   0  0  0  0  0  0  0  0  0  0  0  0
   12.7540   -2.7850   24.1220 S   0  0  0  0  0  0  0  0  0  0  0  0
   12.9140   -1.2650   24.7160 N   0  0  0  0  0  0  0  0  0  0  0  0
   14.0320   -3.0750   23.5480 O   0  0  0  0  0  0  0  0  0  0  0  0
   12.1540   -3.5690   25.1360 O   0  0  0  0  0  0  0  0  0  0  0  0
   10.9210   -0.3010   23.5460 C   0  0  0  0  0  0  0  0  0  0  0  0
   12.2010    0.3390   23.3540 C   0  0  0  0  0  0  0  0  0  0  0  0
   13.2770    0.0060   22.5600 C   0  0  0  0  0  0  0  0  0  0  0  0
   13.2580   -1.0800   21.7580 C   0  0  0  0  0  0  0  0  0  0  0  0
   12.1410   -1.7850   21.7900 C   0  0  0  0  0  0  0  0  0  0  0  0
   11.0660   -1.4060   22.6320 C   0  0  0  0  0  0  0  0  0  0  0  0
    7.8070    7.0500   23.3030 N   0  0  0  0  0  0  0  0  0  0  0  0
  1  2  1  0
  2  3  2  0
  3  4  1  0
  4  5  2  0
  5  6  1  0
  6  7  1  0
  7  8  1  0
  8  9  2  0
  8 10  1  0
 10 11  1  0
 11 12  1  6
 12 13  1  0
 13 14  2  0
 14 15  1  0
 15 16  2  0
 16 17  1  0
 16 18  1  0
 13 19  1  0
 18 19  2  0
 11 20  1  0
 20 21  2  0
 20 22  1  0
 22 23  1  0
 23 24  1  6
 24 25  1  0
 26 25  1  0
 26 27  1  0
 26 28  2  0
 26 29  2  0
 23 30  1  0
 30 31  2  0
 31 32  1  0
 32 33  2  0
 33 34  1  0
 30 35  1  0
 34 35  2  0
  2 36  1  0
  6 36  2  0
M  END
