CHA-KIN-bfe9b535-1
     RDKit          3D

 34 36  0  0  0  0  0  0  0  0999 V2000
   12.9470   -0.7280   22.1570 N   0  0  0  0  0  0  0  0  0  0  0  0
   12.9850   -2.3890   22.1510 S   0  0  0  0  0  0  0  0  0  0  0  0
   13.0810   -2.7280   20.7610 O   0  0  0  0  0  0  0  0  0  0  0  0
   13.9580   -2.7380   23.1470 O   0  0  0  0  0  0  0  0  0  0  0  0
   11.5180   -2.8300   22.8020 N   0  0  0  0  0  0  0  0  0  0  0  0
   10.1990   -2.5310   22.2410 C   0  0  0  0  0  0  0  0  0  0  0  0
   10.0230   -1.2180   22.4380 C   0  0  1  0  0  0  0  0  0  0  0  0
    8.8070   -0.7890   23.0290 N   0  0  0  0  0  0  0  0  0  0  0  0
    8.5700    0.5310   22.7230 C   0  0  0  0  0  0  0  0  0  0  0  0
    9.3930    1.1700   22.0590 O   0  0  0  0  0  0  0  0  0  0  0  0
    7.4010    1.1470   23.1360 C   0  0  2  0  0  0  0  0  0  0  0  0
    6.1930    0.5970   22.7150 C   0  0  0  0  0  0  0  0  0  0  0  0
    6.0900    0.5890   21.1830 C   0  0  0  0  0  0  0  0  0  0  0  0
    5.0990    1.6180   20.6350 C   0  0  0  0  0  0  0  0  0  0  0  0
    4.9790    1.6520   19.1450 C   0  0  0  0  0  0  0  0  0  0  0  0
    5.7670    0.7590   18.4110 C   0  0  0  0  0  0  0  0  0  0  0  0
    5.6840    0.7710   17.0830 O   0  0  0  0  0  0  0  0  0  0  0  0
    6.6570   -0.1670   18.9660 C   0  0  0  0  0  0  0  0  0  0  0  0
    6.8200   -0.2540   20.3420 C   0  0  0  0  0  0  0  0  0  0  0  0
    7.5530    2.4790   22.5160 N   0  0  0  0  0  0  0  0  0  0  0  0
    7.0970    3.6340   23.0920 C   0  0  0  0  0  0  0  0  0  0  0  0
    6.1150    3.6540   23.8220 O   0  0  0  0  0  0  0  0  0  0  0  0
    7.8820    4.7030   22.7330 N   0  0  0  0  0  0  0  0  0  0  0  0
    7.5190    6.0300   22.5370 C   0  0  0  0  0  0  0  0  0  0  0  0
    7.8310    7.0850   23.3740 C   0  0  0  0  0  0  0  0  0  0  0  0
    7.2800    8.3960   22.8740 C   0  0  0  0  0  0  0  0  0  0  0  0
    6.4410    8.1540   21.4120 S   0  0  0  0  0  0  0  0  0  0  0  0
    6.7770    6.4620   21.4400 C   0  0  0  0  0  0  0  0  0  0  0  0
   11.1720   -0.7530   23.2600 C   0  0  0  0  0  0  0  0  0  0  0  0
   11.5600    0.6090   23.0660 C   0  0  0  0  0  0  0  0  0  0  0  0
   12.5770    0.7670   23.8200 C   0  0  0  0  0  0  0  0  0  0  0  0
   12.5120   -0.4790   24.2410 C   0  0  0  0  0  0  0  0  0  0  0  0
   13.1320   -1.2810   25.0400 C   0  0  0  0  0  0  0  0  0  0  0  0
   11.8720   -1.7150   24.2010 C   0  0  0  0  0  0  0  0  0  0  0  0
  2  1  1  0
  2  3  2  0
  2  4  2  0
  2  5  1  0
  5  6  1  0
  7  6  1  1
  7  8  1  0
  8  9  1  0
  9 10  2  0
  9 11  1  0
 11 12  1  6
 12 13  1  0
 13 14  2  0
 14 15  1  0
 15 16  2  0
 16 17  1  0
 16 18  1  0
 13 19  1  0
 18 19  2  0
 11 20  1  0
 20 21  1  0
 21 22  2  0
 21 23  1  0
 23 24  1  0
 24 25  1  0
 25 26  2  0
 26 27  1  0
 24 28  2  0
 27 28  1  0
  7 29  1  0
 29 30  2  0
 30 31  1  0
 31 32  2  0
 32 33  1  0
 29 34  1  0
 33 34  2  0
M  END
