CHA-KIN-bfe9b535-6
     RDKit          3D

 39 42  0  0  0  0  0  0  0  0999 V2000
    5.8670   -4.3570   23.6240 N   0  0  0  0  0  0  0  0  0  0  0  0
    7.4600   -4.7630   23.2830 S   0  0  0  0  0  0  0  0  0  0  0  0
    7.5460   -4.9580   21.8700 O   0  0  0  0  0  0  0  0  0  0  0  0
    7.7520   -5.8470   24.1780 O   0  0  0  0  0  0  0  0  0  0  0  0
    8.1720   -3.3230   23.7530 N   0  0  0  0  0  0  0  0  0  0  0  0
    9.5630   -2.9090   23.3830 C   0  0  0  0  0  0  0  0  0  0  0  0
    9.8260   -1.6020   23.7900 C   0  0  2  0  0  0  0  0  0  0  0  0
    8.8760   -0.7500   23.1170 N   0  0  0  0  0  0  0  0  0  0  0  0
    9.0900    0.5310   22.6290 C   0  0  0  0  0  0  0  0  0  0  0  0
   10.1860    0.9660   22.2930 O   0  0  0  0  0  0  0  0  0  0  0  0
    7.9720    1.3540   22.4720 C   0  0  1  0  0  0  0  0  0  0  0  0
    6.6860    0.8190   22.5060 C   0  0  0  0  0  0  0  0  0  0  0  0
    6.3450    0.6990   21.0360 C   0  0  0  0  0  0  0  0  0  0  0  0
    5.2760    1.6670   20.5480 C   0  0  0  0  0  0  0  0  0  0  0  0
    4.9820    1.5720   19.0870 C   0  0  0  0  0  0  0  0  0  0  0  0
    5.7020    0.6250   18.3470 C   0  0  0  0  0  0  0  0  0  0  0  0
    5.4820    0.5220   17.0540 O   0  0  0  0  0  0  0  0  0  0  0  0
    6.6610   -0.2420   18.8580 C   0  0  0  0  0  0  0  0  0  0  0  0
    6.9840   -0.2080   20.1950 C   0  0  0  0  0  0  0  0  0  0  0  0
    8.1160    2.5520   23.2980 N   0  0  0  0  0  0  0  0  0  0  0  0
    7.3070    3.6540   23.1070 C   0  0  0  0  0  0  0  0  0  0  0  0
    6.1260    3.6270   23.4430 O   0  0  0  0  0  0  0  0  0  0  0  0
    7.9600    4.7370   22.5370 N   0  0  0  0  0  0  0  0  0  0  0  0
    7.5020    6.0510   22.5050 C   0  0  0  0  0  0  0  0  0  0  0  0
    6.9530    6.6460   21.3710 C   0  0  0  0  0  0  0  0  0  0  0  0
    6.5290    8.0690   21.6230 C   0  0  0  0  0  0  0  0  0  0  0  0
    5.9480    8.6120   20.3430 C   0  0  0  0  0  0  0  0  0  0  0  0
    5.5050    9.9350   20.4370 C   0  0  0  0  0  0  0  0  0  0  0  0
    5.6270   10.6430   21.6650 C   0  0  0  0  0  0  0  0  0  0  0  0
    6.1930   10.0580   22.8300 C   0  0  0  0  0  0  0  0  0  0  0  0
    6.6470    8.7420   22.7930 C   0  0  0  0  0  0  0  0  0  0  0  0
    7.2200    8.0170   23.8330 C   0  0  0  0  0  0  0  0  0  0  0  0
    7.6370    6.7120   23.7070 N   0  0  0  0  0  0  0  0  0  0  0  0
   11.2910   -1.2510   23.6440 C   0  0  0  0  0  0  0  0  0  0  0  0
   11.7530    0.0750   23.2040 C   0  0  0  0  0  0  0  0  0  0  0  0
   13.0580   -0.0010   23.1830 C   0  0  0  0  0  0  0  0  0  0  0  0
   12.9290   -1.2320   23.5870 C   0  0  0  0  0  0  0  0  0  0  0  0
   13.6720   -2.2260   23.8860 C   0  0  0  0  0  0  0  0  0  0  0  0
   12.2500   -2.3720   23.9790 C   0  0  0  0  0  0  0  0  0  0  0  0
  2  1  1  0
  2  3  2  0
  2  4  2  0
  2  5  1  0
  5  6  1  0
  7  6  1  6
  7  8  1  0
  8  9  1  0
  9 10  2  0
  9 11  1  0
 11 12  1  1
 12 13  1  0
 13 14  2  0
 14 15  1  0
 15 16  2  0
 16 17  1  0
 16 18  1  0
 13 19  1  0
 18 19  2  0
 11 20  1  0
 20 21  1  0
 21 22  2  0
 21 23  1  0
 23 24  1  0
 24 25  2  0
 25 26  1  0
 26 27  2  0
 27 28  1  0
 28 29  2  0
 29 30  1  0
 26 31  1  0
 30 31  2  0
 31 32  1  0
 24 33  1  0
 32 33  2  0
  7 34  1  0
 34 35  2  0
 35 36  1  0
 36 37  2  0
 37 38  1  0
 34 39  1  0
 38 39  2  0
M  END
