CHA-KIN-bfe9b535-3
     RDKit          3D

 37 39  0  0  0  0  0  0  0  0999 V2000
   11.1450    6.3870   25.1980 C   0  0  0  0  0  0  0  0  0  0  0  0
    9.6680    6.1970   25.2010 C   0  0  0  0  0  0  0  0  0  0  0  0
    8.9270    6.7960   24.2590 C   0  0  0  0  0  0  0  0  0  0  0  0
    8.5860    8.2260   24.1720 C   0  0  0  0  0  0  0  0  0  0  0  0
    7.8460    8.5260   23.1290 N   0  0  0  0  0  0  0  0  0  0  0  0
    7.7150    7.2920   22.5420 N   0  0  0  0  0  0  0  0  0  0  0  0
    6.9660    7.1200   21.2960 C   0  0  0  0  0  0  0  0  0  0  0  0
    8.3170    6.2200   23.1600 C   0  0  0  0  0  0  0  0  0  0  0  0
    8.3470    4.7740   22.7830 N   0  0  0  0  0  0  0  0  0  0  0  0
    7.4030    3.7820   23.0330 C   0  0  0  0  0  0  0  0  0  0  0  0
    6.4240    3.8170   23.7730 O   0  0  0  0  0  0  0  0  0  0  0  0
    7.7130    2.6460   22.2800 N   0  0  0  0  0  0  0  0  0  0  0  0
    7.7810    1.2900   22.8570 C   0  0  1  0  0  0  0  0  0  0  0  0
    6.5670    0.4960   22.4750 C   0  0  0  0  0  0  0  0  0  0  0  0
    6.2230    0.6030   21.1300 C   0  0  0  0  0  0  0  0  0  0  0  0
    5.2810    1.5430   20.6900 C   0  0  0  0  0  0  0  0  0  0  0  0
    4.9560    1.6400   19.3450 C   0  0  0  0  0  0  0  0  0  0  0  0
    5.5750    0.7970   18.4390 C   0  0  0  0  0  0  0  0  0  0  0  0
    5.2260    0.9350   17.1540 O   0  0  0  0  0  0  0  0  0  0  0  0
    6.5150   -0.1490   18.8520 C   0  0  0  0  0  0  0  0  0  0  0  0
    6.8400   -0.2450   20.1940 C   0  0  0  0  0  0  0  0  0  0  0  0
    8.8650    0.7270   22.2340 C   0  0  0  0  0  0  0  0  0  0  0  0
    9.4020    1.3550   21.3360 O   0  0  0  0  0  0  0  0  0  0  0  0
    9.2810   -0.5470   22.6480 N   0  0  0  0  0  0  0  0  0  0  0  0
   10.6650   -0.8650   23.1350 C   0  0  2  0  0  0  0  0  0  0  0  0
   10.9810   -2.2500   23.0660 C   0  0  0  0  0  0  0  0  0  0  0  0
   11.5240   -2.7650   24.3450 N   0  0  0  0  0  0  0  0  0  0  0  0
   13.1610   -2.6370   24.5540 S   0  0  0  0  0  0  0  0  0  0  0  0
   13.1020   -1.1360   25.1880 N   0  0  0  0  0  0  0  0  0  0  0  0
   13.6220   -3.5370   25.5740 O   0  0  0  0  0  0  0  0  0  0  0  0
   13.7090   -2.5550   23.2330 O   0  0  0  0  0  0  0  0  0  0  0  0
   10.6720   -0.2780   24.5360 C   0  0  0  0  0  0  0  0  0  0  0  0
   11.8550    0.2210   24.0720 C   0  0  0  0  0  0  0  0  0  0  0  0
   12.1040   -0.2420   22.7980 C   0  0  0  0  0  0  0  0  0  0  0  0
   11.0290   -1.1870   22.1970 C   0  0  0  0  0  0  0  0  0  0  0  0
    9.8080   -1.5690   22.9270 C   0  0  0  0  0  0  0  0  0  0  0  0
    9.6080   -1.0610   24.2340 C   0  0  0  0  0  0  0  0  0  0  0  0
  1  2  1  0
  2  3  1  0
  3  4  1  0
  4  5  2  0
  5  6  1  0
  6  7  1  0
  3  8  2  0
  6  8  1  0
  8  9  1  0
  9 10  1  0
 10 11  2  0
 10 12  1  0
 12 13  1  0
 13 14  1  6
 14 15  1  0
 15 16  2  0
 16 17  1  0
 17 18  2  0
 18 19  1  0
 18 20  1  0
 15 21  1  0
 20 21  2  0
 13 22  1  0
 22 23  2  0
 22 24  1  0
 24 25  1  0
 25 26  1  1
 26 27  1  0
 28 27  1  0
 28 29  1  0
 28 30  2  0
 28 31  2  0
 25 32  1  0
 32 33  2  0
 33 34  1  0
 34 35  2  0
 35 36  1  0
 32 37  1  0
 36 37  2  0
M  END
