CHA-KIN-7308df58-3
     RDKit          3D

 34 35  0  0  0  0  0  0  0  0999 V2000
   13.5720   -2.2690   23.4410 N   0  0  0  0  0  0  0  0  0  0  0  0
   13.1760   -1.2070   22.6980 C   0  0  0  0  0  0  0  0  0  0  0  0
   13.4620   -1.1230   21.5160 O   0  0  0  0  0  0  0  0  0  0  0  0
   12.3690   -0.2370   23.4350 C   0  0  0  0  0  0  0  0  0  0  0  0
   11.1940   -0.7560   23.8050 C   0  0  0  0  0  0  0  0  0  0  0  0
   10.4070   -1.6320   22.8860 C   0  0  0  0  0  0  0  0  0  0  0  0
    9.0460   -1.1280   22.8020 N   0  0  0  0  0  0  0  0  0  0  0  0
    8.2030   -1.9820   23.6610 C   0  0  0  0  0  0  0  0  0  0  0  0
    7.5020   -3.0950   22.8720 C   0  0  0  0  0  0  0  0  0  0  0  0
    6.5090   -3.7870   23.7400 N   0  0  0  0  0  0  0  0  0  0  0  0
    5.3230   -4.7030   22.9740 S   0  0  0  0  0  0  0  0  0  0  0  0
    6.2980   -5.8950   22.3480 N   0  0  0  0  0  0  0  0  0  0  0  0
    4.8110   -3.9140   21.8710 O   0  0  0  0  0  0  0  0  0  0  0  0
    4.4750   -5.2770   23.9900 O   0  0  0  0  0  0  0  0  0  0  0  0
    8.9900    0.1940   22.5690 C   0  0  0  0  0  0  0  0  0  0  0  0
   10.0560    0.7140   22.2180 O   0  0  0  0  0  0  0  0  0  0  0  0
    7.8510    1.2320   22.6410 C   0  0  1  0  0  0  0  0  0  0  0  0
    6.5190    0.6020   22.4320 C   0  0  0  0  0  0  0  0  0  0  0  0
    6.2240    0.6310   21.0960 C   0  0  0  0  0  0  0  0  0  0  0  0
    5.2890    1.5140   20.5690 C   0  0  0  0  0  0  0  0  0  0  0  0
    5.0130    1.5640   19.2240 C   0  0  0  0  0  0  0  0  0  0  0  0
    5.7060    0.6960   18.3990 C   0  0  0  0  0  0  0  0  0  0  0  0
    5.5020    0.6980   17.0960 O   0  0  0  0  0  0  0  0  0  0  0  0
    6.6450   -0.2090   18.8920 C   0  0  0  0  0  0  0  0  0  0  0  0
    6.9050   -0.2420   20.2430 C   0  0  0  0  0  0  0  0  0  0  0  0
    7.8480    2.2410   23.7110 N   0  0  0  0  0  0  0  0  0  0  0  0
    6.9990    3.3340   23.6260 C   0  0  0  0  0  0  0  0  0  0  0  0
    5.8580    3.2670   23.2090 O   0  0  0  0  0  0  0  0  0  0  0  0
    7.5900    4.4760   24.0880 N   0  0  0  0  0  0  0  0  0  0  0  0
    7.8930    5.5160   23.2510 C   0  0  0  0  0  0  0  0  0  0  0  0
    8.9680    6.2470   23.3720 N   0  0  0  0  0  0  0  0  0  0  0  0
    8.8950    7.1570   22.3510 C   0  0  0  0  0  0  0  0  0  0  0  0
    7.7550    6.9770   21.6020 C   0  0  0  0  0  0  0  0  0  0  0  0
    7.1220    5.9210   22.1930 N   0  0  0  0  0  0  0  0  0  0  0  0
  1  2  1  0
  2  3  2  0
  2  4  1  0
  4  5  1  0
  5  6  1  0
  6  7  1  0
  7  8  1  0
  8  9  1  0
  9 10  1  0
 11 10  1  0
 11 12  1  0
 11 13  2  0
 11 14  2  0
  7 15  1  0
 15 16  2  0
 15 17  1  0
 17 18  1  1
 18 19  1  0
 19 20  2  0
 20 21  1  0
 21 22  2  0
 22 23  1  0
 22 24  1  0
 19 25  1  0
 24 25  2  0
 17 26  1  0
 26 27  1  0
 27 28  2  0
 27 29  1  0
 29 30  1  0
 30 31  2  0
 31 32  1  0
 32 33  2  0
 30 34  1  0
 33 34  1  0
M  END
