CHA-MCP-85291e1d-4
     RDKit          3D

 21 22  0  0  0  0  0  0  0  0999 V2000
   12.5290    5.1170   23.9500 N   0  0  0  0  0  0  0  0  0  0  0  0
   12.3110    4.2750   22.5120 S   0  0  0  0  0  0  0  0  0  0  0  0
   10.8790    4.2210   22.3660 O   0  0  0  0  0  0  0  0  0  0  0  0
   13.1610    4.9400   21.5510 O   0  0  0  0  0  0  0  0  0  0  0  0
   12.9050    2.5900   22.7700 C   0  0  0  0  0  0  0  0  0  0  0  0
   11.5840    1.8930   23.0960 C   0  0  0  0  0  0  0  0  0  0  0  0
   12.8520    1.1630   23.0370 C   0  0  0  0  0  0  0  0  0  0  0  0
   12.3780    2.3810   22.8800 C   0  0  0  0  0  0  0  0  0  0  0  0
   11.1650    1.7390   23.1730 C   0  0  0  0  0  0  0  0  0  0  0  0
   10.5440    0.4800   23.4970 C   0  0  0  0  0  0  0  0  0  0  0  0
    9.5290   -0.0210   22.6280 C   0  0  0  0  0  0  0  0  0  0  0  0
    9.1120    0.9200   21.6950 C   0  0  0  0  0  0  0  0  0  0  0  0
    8.5460    1.5390   20.8190 O   0  0  0  0  0  0  0  0  0  0  0  0
    8.1470   -0.0650   21.3850 N   0  0  0  0  0  0  0  0  0  0  0  0
    7.1690    0.1610   20.3520 C   0  0  0  0  0  0  0  0  0  0  0  0
    6.0470    0.9370   20.6580 C   0  0  0  0  0  0  0  0  0  0  0  0
    5.0360    1.2590   19.7730 C   0  0  0  0  0  0  0  0  0  0  0  0
    5.2030    0.7090   18.3690 C   0  0  0  0  0  0  0  0  0  0  0  0
    6.2790   -0.0430   18.0630 N   0  0  0  0  0  0  0  0  0  0  0  0
    7.2110   -0.3040   19.0290 C   0  0  0  0  0  0  0  0  0  0  0  0
   12.5050    1.2860   23.0820 C   0  0  0  0  0  0  0  0  0  0  0  0
  2  1  1  0
  2  3  2  0
  2  4  2  0
  2  5  1  0
  5  6  2  0
  6  7  1  0
  7  8  2  0
  8  9  1  0
  9 10  1  0
 10 11  1  0
 11 12  1  0
 12 13  2  0
 12 14  1  0
 14 15  1  0
 15 16  2  0
 16 17  1  0
 17 18  2  0
 18 19  1  0
 15 20  1  0
 19 20  2  0
  5 21  1  0
  9 21  2  0
M  END
