CHR-UNK-e061132b-1
     RDKit          3D

 26 28  0  0  0  0  0  0  0  0999 V2000
    5.3560   -2.1990   19.3920 C   0  0  0  0  0  0  0  0  0  0  0  0
    5.3100   -0.8390   19.9540 C   0  0  0  0  0  0  0  0  0  0  0  0
    4.3690   -0.0890   19.7080 O   0  0  0  0  0  0  0  0  0  0  0  0
    6.3800   -0.4700   20.7650 N   0  0  0  0  0  0  0  0  0  0  0  0
    6.8720   -1.3960   21.7930 C   0  0  0  0  0  0  0  0  0  0  0  0
    8.2310   -1.1550   22.0170 C   0  0  0  0  0  0  0  0  0  0  0  0
    8.5190    0.2680   22.3180 N   0  0  0  0  0  0  0  0  0  0  0  0
    9.2750    0.4560   23.5550 C   0  0  0  0  0  0  0  0  0  0  0  0
   10.7560    0.7480   23.3700 C   0  0  0  0  0  0  0  0  0  0  0  0
   11.4030    2.0710   23.4210 N   0  0  0  0  0  0  0  0  0  0  0  0
   12.6350    2.2710   22.7190 C   0  0  0  0  0  0  0  0  0  0  0  0
   12.1400    3.6620   22.8050 C   0  0  0  0  0  0  0  0  0  0  0  0
   10.8900    3.6610   23.5460 C   0  0  0  0  0  0  0  0  0  0  0  0
   10.0920    5.1690   23.7580 S   0  0  0  0  0  0  0  0  0  0  0  0
   10.9640    6.1530   22.7210 N   0  0  0  0  0  0  0  0  0  0  0  0
   10.2700    5.7190   25.0790 O   0  0  0  0  0  0  0  0  0  0  0  0
    8.7730    5.0820   23.1760 O   0  0  0  0  0  0  0  0  0  0  0  0
   10.4820    2.4410   23.9960 C   0  0  0  0  0  0  0  0  0  0  0  0
   11.1540    1.1600   23.7870 C   0  0  0  0  0  0  0  0  0  0  0  0
   12.3590    0.8870   23.0830 C   0  0  0  0  0  0  0  0  0  0  0  0
   12.9450   -0.4000   22.8920 C   0  0  0  0  0  0  0  0  0  0  0  0
   14.0270    0.1010   22.7400 O   0  0  0  0  0  0  0  0  0  0  0  0
   11.6430   -0.2660   23.1130 C   0  0  0  0  0  0  0  0  0  0  0  0
   12.6030    1.1420   23.1290 Cl  0  0  0  0  0  0  0  0  0  0  0  0
    7.2890    1.0530   22.2860 C   0  0  0  0  0  0  0  0  0  0  0  0
    6.7380    0.9250   21.0030 C   0  0  0  0  0  0  0  0  0  0  0  0
  1  2  1  0
  2  3  2  0
  2  4  1  0
  4  5  1  0
  5  6  1  0
  6  7  1  0
  7  8  1  0
  8  9  1  0
  9 10  1  0
 10 11  1  0
 11 12  2  0
 12 13  1  0
 13 14  1  0
 14 15  1  0
 14 16  2  0
 14 17  2  0
 13 18  2  0
 18 19  1  0
 11 20  1  0
 19 20  2  0
 20 21  1  0
 21 22  2  0
  9 23  2  0
 21 23  1  0
 23 24  1  0
  7 25  1  0
  4 26  1  0
 25 26  1  0
M  END
