CHR-SOS-b301fc01-1
     RDKit          3D

 24 26  0  0  0  0  0  0  0  0999 V2000
    9.0370    1.7970   21.1520 O   0  0  0  0  0  0  0  0  0  0  0  0
    8.5030    1.0050   21.9110 C   0  0  0  0  0  0  0  0  0  0  0  0
    8.7980    1.1650   23.3770 C   0  0  0  0  0  0  0  0  0  0  0  0
   10.1530    1.5510   23.7640 C   0  0  0  0  0  0  0  0  0  0  0  0
   10.8430    0.5050   24.2320 C   0  0  0  0  0  0  0  0  0  0  0  0
   10.6150   -0.4870   23.3480 C   0  0  0  0  0  0  0  0  0  0  0  0
   11.5830   -1.3120   22.9850 C   0  0  0  0  0  0  0  0  0  0  0  0
   12.6090   -1.5960   23.8350 C   0  0  0  0  0  0  0  0  0  0  0  0
   13.6150   -2.5640   23.3610 C   0  0  0  0  0  0  0  0  0  0  0  0
   13.3250   -3.0720   21.9360 C   0  0  0  0  0  0  0  0  0  0  0  0
   12.1830   -2.6730   21.0820 C   0  0  0  0  0  0  0  0  0  0  0  0
   11.3130   -1.7710   21.6870 N   0  0  0  0  0  0  0  0  0  0  0  0
   11.0280    1.6480   22.5730 C   0  0  0  0  0  0  0  0  0  0  0  0
   12.2570    2.1790   22.9470 C   0  0  0  0  0  0  0  0  0  0  0  0
   12.1180    3.6890   22.7960 C   0  0  0  0  0  0  0  0  0  0  0  0
   10.6880    3.9630   23.2800 C   0  0  0  0  0  0  0  0  0  0  0  0
   10.2420    2.8490   24.2420 C   0  0  0  0  0  0  0  0  0  0  0  0
    7.6240    0.0170   21.4180 N   0  0  0  0  0  0  0  0  0  0  0  0
    6.8290    0.3050   20.2380 C   0  0  0  0  0  0  0  0  0  0  0  0
    5.6460    1.2330   20.4470 C   0  0  0  0  0  0  0  0  0  0  0  0
    4.8530    1.5650   19.3310 C   0  0  0  0  0  0  0  0  0  0  0  0
    5.2470    0.9670   17.9990 C   0  0  0  0  0  0  0  0  0  0  0  0
    6.2820    0.1450   17.8030 N   0  0  0  0  0  0  0  0  0  0  0  0
    7.0930   -0.1960   18.9660 C   0  0  0  0  0  0  0  0  0  0  0  0
  1  2  2  0
  2  3  1  0
  3  4  1  0
  4  5  1  0
  5  6  3  0
  6  7  1  0
  7  8  2  0
  8  9  1  0
  9 10  2  0
 10 11  1  0
  7 12  1  0
 11 12  2  0
  4 13  1  0
 13 14  1  0
 14 15  1  0
 15 16  1  0
  4 17  1  0
 16 17  1  0
  2 18  1  0
 18 19  1  0
 19 20  2  0
 20 21  1  0
 21 22  2  0
 22 23  1  0
 19 24  1  0
 23 24  2  0
M  END
