CHR-SOS-70e4c98a-8
     RDKit          3D

 21 23  0  0  0  0  0  0  0  0999 V2000
    9.1770    0.9810   21.3140 O   0  0  0  0  0  0  0  0  0  0  0  0
    8.9010   -0.2090   21.4760 C   0  0  0  0  0  0  0  0  0  0  0  0
    9.9580   -1.1050   22.0040 C   0  0  0  0  0  0  0  0  0  0  0  0
   10.7530   -0.5600   22.9990 C   0  0  0  0  0  0  0  0  0  0  0  0
   10.1480    0.6080   23.3810 O   0  0  0  0  0  0  0  0  0  0  0  0
    8.6980    0.3970   23.4280 C   0  0  0  0  0  0  0  0  0  0  0  0
    8.3410   -0.9310   23.7720 C   0  0  0  0  0  0  0  0  0  0  0  0
    6.9040   -1.3600   23.8870 C   0  0  0  0  0  0  0  0  0  0  0  0
    5.7990   -0.3260   23.6250 C   0  0  0  0  0  0  0  0  0  0  0  0
    6.2620    1.0660   23.2640 C   0  0  0  0  0  0  0  0  0  0  0  0
    7.7170    1.3850   23.1760 C   0  0  0  0  0  0  0  0  0  0  0  0
   12.3130   -0.5250   22.7250 C   0  0  0  0  0  0  0  0  0  0  0  0
   12.4030   -1.2910   23.8630 C   0  0  0  0  0  0  0  0  0  0  0  0
   11.0800   -1.5590   24.1940 C   0  0  0  0  0  0  0  0  0  0  0  0
    7.6450   -0.7360   21.1870 N   0  0  0  0  0  0  0  0  0  0  0  0
    6.8100   -0.1050   20.1890 C   0  0  0  0  0  0  0  0  0  0  0  0
    5.6910    0.6610   20.5310 C   0  0  0  0  0  0  0  0  0  0  0  0
    4.9340    1.2520   19.5350 C   0  0  0  0  0  0  0  0  0  0  0  0
    5.2620    1.1040   18.1850 C   0  0  0  0  0  0  0  0  0  0  0  0
    6.3330    0.3630   17.8510 N   0  0  0  0  0  0  0  0  0  0  0  0
    7.0620   -0.2120   18.8330 C   0  0  0  0  0  0  0  0  0  0  0  0
  1  2  2  0
  2  3  1  0
  3  4  1  0
  4  5  1  0
  5  6  1  0
  6  7  2  0
  7  8  1  0
  8  9  2  0
  9 10  1  0
  6 11  1  0
 10 11  2  0
  4 12  1  0
 12 13  1  0
  4 14  1  0
 13 14  1  0
  2 15  1  0
 15 16  1  0
 16 17  2  0
 17 18  1  0
 18 19  2  0
 19 20  1  0
 16 21  1  0
 20 21  2  0
M  END
