CHR-SOS-7098f804-1
     RDKit          3D

 21 22  0  0  0  0  0  0  0  0999 V2000
    8.6960    1.3440   21.1300 O   0  0  0  0  0  0  0  0  0  0  0  0
    8.6110    0.1940   21.6190 C   0  0  0  0  0  0  0  0  0  0  0  0
    7.4170   -0.6130   21.4710 N   0  0  0  0  0  0  0  0  0  0  0  0
    6.5820    0.1240   20.5190 C   0  0  0  0  0  0  0  0  0  0  0  0
    5.8590    1.1590   21.0530 C   0  0  0  0  0  0  0  0  0  0  0  0
    5.0520    1.9260   20.2310 C   0  0  0  0  0  0  0  0  0  0  0  0
    4.9460    1.6880   18.8700 C   0  0  0  0  0  0  0  0  0  0  0  0
    4.1250    2.5550   18.2840 N   0  0  0  0  0  0  0  0  0  0  0  0
    4.4860    2.8790   17.1600 O   0  0  0  0  0  0  0  0  0  0  0  0
    3.3220    3.1700   19.0030 O   0  0  0  0  0  0  0  0  0  0  0  0
    5.7080    0.5570   18.1900 C   0  0  0  0  0  0  0  0  0  0  0  0
    6.5500   -0.2110   19.1870 C   0  0  0  0  0  0  0  0  0  0  0  0
    7.4510   -1.5020   18.6020 Cl  0  0  0  0  0  0  0  0  0  0  0  0
    9.7960   -0.3370   22.3430 C   0  0  0  0  0  0  0  0  0  0  0  0
   10.8760    0.3530   22.7500 C   0  0  0  0  0  0  0  0  0  0  0  0
   12.0750   -0.3720   23.2600 C   0  0  0  0  0  0  0  0  0  0  0  0
   13.4570    0.4920   22.9400 Cl  0  0  0  0  0  0  0  0  0  0  0  0
   12.1900   -1.5820   24.0590 C   0  0  0  0  0  0  0  0  0  0  0  0
   11.1120   -1.0550   24.0480 C   0  0  0  0  0  0  0  0  0  0  0  0
   10.7390   -1.1110   22.6050 C   0  0  0  0  0  0  0  0  0  0  0  0
   11.3700   -2.1320   21.9720 O   0  0  0  0  0  0  0  0  0  0  0  0
  1  2  2  0
  2  3  1  0
  3  4  1  0
  4  5  2  0
  5  6  1  0
  6  7  2  0
  7  8  1  0
  8  9  2  0
  8 10  1  0
  7 11  1  0
  4 12  1  0
 11 12  2  0
 12 13  1  0
  2 14  1  0
 14 15  2  0
 15 16  1  0
 16 17  1  0
 16 18  2  0
 18 19  1  0
 14 20  1  0
 19 20  2  0
 20 21  1  0
M  CHG  2   8   1  10  -1
M  END
