CHR-SOS-b301fc01-6
     RDKit          3D

 24 26  0  0  0  0  0  0  0  0999 V2000
    8.7430   -1.2730   21.5250 O   0  0  0  0  0  0  0  0  0  0  0  0
    8.3130   -0.3620   22.1850 C   0  0  0  0  0  0  0  0  0  0  0  0
    9.0640    0.1760   23.3590 C   0  0  0  0  0  0  0  0  0  0  0  0
   10.0980    0.7830   22.8410 C   0  0  0  0  0  0  0  0  0  0  0  0
   10.1050    0.0620   21.5950 C   0  0  0  0  0  0  0  0  0  0  0  0
   10.4990   -1.2530   21.6940 C   0  0  0  0  0  0  0  0  0  0  0  0
   11.4530   -1.8090   22.7110 C   0  0  0  0  0  0  0  0  0  0  0  0
   12.8230   -2.2760   22.2520 C   0  0  0  0  0  0  0  0  0  0  0  0
   13.6710   -2.7950   23.3970 C   0  0  0  0  0  0  0  0  0  0  0  0
   13.0620   -2.7600   24.7340 C   0  0  0  0  0  0  0  0  0  0  0  0
   11.8440   -2.3210   24.9960 N   0  0  0  0  0  0  0  0  0  0  0  0
   11.0490   -1.8600   24.0160 N   0  0  0  0  0  0  0  0  0  0  0  0
   11.5620    0.4710   23.2340 C   0  0  0  0  0  0  0  0  0  0  0  0
   12.4780    1.5060   23.0360 C   0  0  0  0  0  0  0  0  0  0  0  0
   12.1350    2.8700   22.9220 C   0  0  0  0  0  0  0  0  0  0  0  0
   10.8220    3.1750   23.2290 C   0  0  0  0  0  0  0  0  0  0  0  0
    9.8410    2.3140   22.7000 C   0  0  0  0  0  0  0  0  0  0  0  0
    7.1490    0.2620   21.8360 N   0  0  0  0  0  0  0  0  0  0  0  0
    6.6050    0.4970   20.5630 C   0  0  0  0  0  0  0  0  0  0  0  0
    5.3920    1.4030   20.4650 C   0  0  0  0  0  0  0  0  0  0  0  0
    4.8080    1.6540   19.0780 C   0  0  0  0  0  0  0  0  0  0  0  0
    5.4190    1.0480   18.0020 C   0  0  0  0  0  0  0  0  0  0  0  0
    6.4970    0.2440   18.1030 N   0  0  0  0  0  0  0  0  0  0  0  0
    7.0480   -0.0120   19.3340 C   0  0  0  0  0  0  0  0  0  0  0  0
  1  2  2  0
  2  3  1  0
  3  4  1  0
  4  5  1  0
  5  6  3  0
  6  7  1  0
  7  8  2  0
  8  9  1  0
  9 10  2  0
 10 11  1  0
  7 12  1  0
 11 12  2  0
  4 13  1  0
 13 14  1  0
 14 15  1  0
 15 16  1  0
  4 17  1  0
 16 17  1  0
  2 18  1  0
 18 19  1  0
 19 20  2  0
 20 21  1  0
 21 22  2  0
 22 23  1  0
 19 24  1  0
 23 24  2  0
M  END
