CHR-SOS-1f323c23-4
     RDKit          3D

 23 25  0  0  0  0  0  0  0  0999 V2000
    5.5010    0.9070   22.1300 C   0  0  0  0  0  0  0  0  0  0  0  0
    5.8570    0.6210   20.7030 C   0  0  0  0  0  0  0  0  0  0  0  0
    4.9820    1.0870   19.7040 C   0  0  0  0  0  0  0  0  0  0  0  0
    5.2720    0.8420   18.3770 C   0  0  0  0  0  0  0  0  0  0  0  0
    6.3580    0.1680   17.9870 N   0  0  0  0  0  0  0  0  0  0  0  0
    7.1940   -0.2800   18.9540 C   0  0  0  0  0  0  0  0  0  0  0  0
    7.0150   -0.0840   20.3280 C   0  0  0  0  0  0  0  0  0  0  0  0
    7.9890   -0.5950   21.2790 N   0  0  0  0  0  0  0  0  0  0  0  0
    9.0070    0.2230   21.8760 C   0  0  0  0  0  0  0  0  0  0  0  0
    9.2680    1.3350   21.3730 O   0  0  0  0  0  0  0  0  0  0  0  0
    9.6760   -0.3350   23.1290 N   0  0  0  0  0  0  0  0  0  0  0  0
   10.6540   -1.4270   23.3380 C   0  0  0  0  0  0  0  0  0  0  0  0
    9.9100   -2.6730   23.3730 O   0  0  0  0  0  0  0  0  0  0  0  0
    8.6630   -2.7830   23.9520 C   0  0  0  0  0  0  0  0  0  0  0  0
    7.9880   -3.8860   23.5720 C   0  0  0  0  0  0  0  0  0  0  0  0
    6.6280   -4.2050   24.0780 C   0  0  0  0  0  0  0  0  0  0  0  0
    6.0110   -3.3420   24.9800 C   0  0  0  0  0  0  0  0  0  0  0  0
    6.8230   -2.1110   25.3680 C   0  0  0  0  0  0  0  0  0  0  0  0
    8.0950   -1.8730   24.8550 C   0  0  0  0  0  0  0  0  0  0  0  0
   11.6150   -1.5430   22.1400 C   0  0  0  0  0  0  0  0  0  0  0  0
   12.7010   -0.5670   22.5750 C   0  0  0  0  0  0  0  0  0  0  0  0
   12.6480   -0.4750   23.9330 C   0  0  0  0  0  0  0  0  0  0  0  0
   11.7270   -1.3730   24.4790 C   0  0  0  0  0  0  0  0  0  0  0  0
  1  2  1  0
  2  3  2  0
  3  4  1  0
  4  5  2  0
  5  6  1  0
  2  7  1  0
  6  7  2  0
  7  8  1  0
  8  9  1  0
  9 10  2  0
  9 11  1  0
 11 12  1  0
 12 13  1  0
 13 14  1  0
 14 15  2  0
 15 16  1  0
 16 17  2  0
 17 18  1  0
 14 19  1  0
 18 19  2  0
 12 20  1  0
 20 21  1  0
 21 22  1  0
 12 23  1  0
 22 23  1  0
M  END
