CHR-SOS-54d5cf3e-8
     RDKit          3D

 24 26  0  0  0  0  0  0  0  0999 V2000
   13.9670   -2.6350   25.7740 C   0  0  0  0  0  0  0  0  0  0  0  0
   12.9730   -2.5020   24.7030 C   0  0  0  0  0  0  0  0  0  0  0  0
   12.9990   -1.8130   23.6180 C   0  0  0  0  0  0  0  0  0  0  0  0
   11.7430   -2.0690   22.9490 C   0  0  0  0  0  0  0  0  0  0  0  0
   11.3200   -1.4920   21.6270 C   0  0  0  0  0  0  0  0  0  0  0  0
   10.2760   -0.3560   21.5730 C   0  0  0  0  0  0  0  0  0  0  0  0
   10.2780    0.7830   22.6160 C   0  0  0  0  0  0  0  0  0  0  0  0
    8.9780    0.3760   23.2370 C   0  0  0  0  0  0  0  0  0  0  0  0
    8.2670    0.5880   22.0200 C   0  0  0  0  0  0  0  0  0  0  0  0
    8.5590    1.5070   21.2210 O   0  0  0  0  0  0  0  0  0  0  0  0
    7.2120   -0.3740   21.7560 N   0  0  0  0  0  0  0  0  0  0  0  0
    6.6530    0.0380   20.4440 C   0  0  0  0  0  0  0  0  0  0  0  0
    5.4410    0.9450   20.4850 C   0  0  0  0  0  0  0  0  0  0  0  0
    4.8850    1.3790   19.2680 C   0  0  0  0  0  0  0  0  0  0  0  0
    5.3630    1.0420   18.0110 C   0  0  0  0  0  0  0  0  0  0  0  0
    6.4560    0.2190   17.9670 N   0  0  0  0  0  0  0  0  0  0  0  0
    7.1160   -0.2990   19.1800 C   0  0  0  0  0  0  0  0  0  0  0  0
   11.6080    0.9500   23.2860 C   0  0  0  0  0  0  0  0  0  0  0  0
   12.6870    1.3120   22.6370 C   0  0  0  0  0  0  0  0  0  0  0  0
   12.4790    2.8550   22.5290 C   0  0  0  0  0  0  0  0  0  0  0  0
   11.0500    3.2520   22.9730 C   0  0  0  0  0  0  0  0  0  0  0  0
    9.9690    2.3020   22.3560 C   0  0  0  0  0  0  0  0  0  0  0  0
   10.9520   -2.9550   23.7080 N   0  0  0  0  0  0  0  0  0  0  0  0
   11.7980   -3.1770   24.7760 N   0  0  0  0  0  0  0  0  0  0  0  0
  1  2  1  0
  2  3  2  0
  3  4  1  0
  4  5  1  0
  5  6  3  0
  7  6  1  0
  7  8  1  0
  8  9  1  0
  9 10  2  0
  9 11  1  0
 11 12  1  0
 12 13  2  0
 13 14  1  0
 14 15  2  0
 15 16  1  0
 12 17  1  0
 16 17  2  0
  7 18  1  0
 18 19  1  0
 19 20  1  0
 20 21  1  0
  7 22  1  0
 21 22  1  0
  4 23  2  0
  2 24  1  0
 23 24  1  0
M  END
