CHR-SOS-7098f804-8
     RDKit          3D

 16 17  0  0  0  0  0  0  0  0999 V2000
    9.3370    1.4350   21.4840 O   0  0  0  0  0  0  0  0  0  0  0  0
    9.1290    0.2320   21.6930 C   0  0  0  0  0  0  0  0  0  0  0  0
    8.0030   -0.4620   21.2140 N   0  0  0  0  0  0  0  0  0  0  0  0
    6.9430    0.0670   20.4050 C   0  0  0  0  0  0  0  0  0  0  0  0
    7.0280   -0.0400   18.9450 C   0  0  0  0  0  0  0  0  0  0  0  0
    5.9980    0.4860   18.1490 C   0  0  0  0  0  0  0  0  0  0  0  0
    4.9030    1.0980   18.7130 C   0  0  0  0  0  0  0  0  0  0  0  0
    4.7970    1.2020   20.0730 C   0  0  0  0  0  0  0  0  0  0  0  0
    5.8040    0.6940   20.9290 C   0  0  0  0  0  0  0  0  0  0  0  0
   10.1680   -0.5970   22.4600 C   0  0  0  0  0  0  0  0  0  0  0  0
   11.0640    0.6460   22.5850 C   0  0  0  0  0  0  0  0  0  0  0  0
   12.2410    0.1110   23.3070 C   0  0  0  0  0  0  0  0  0  0  0  0
   12.8940   -1.0120   23.9360 C   0  0  0  0  0  0  0  0  0  0  0  0
   11.9910   -2.0860   23.8090 C   0  0  0  0  0  0  0  0  0  0  0  0
   13.2290   -2.8860   24.6680 Cl  0  0  0  0  0  0  0  0  0  0  0  0
   11.4000   -0.8550   23.1550 C   0  0  0  0  0  0  0  0  0  0  0  0
  1  2  2  0
  2  3  1  0
  3  4  1  0
  4  5  2  0
  5  6  1  0
  6  7  2  0
  7  8  1  0
  4  9  1  0
  8  9  2  0
  2 10  1  0
 10 11  2  0
 11 12  1  0
 12 13  2  0
 13 14  1  0
 14 15  1  0
 10 16  1  0
 14 16  2  0
M  END
