CHR-SOS-59746812-2
     RDKit          3D

 22 24  0  0  0  0  0  0  0  0999 V2000
    8.6470    1.4960   20.9670 O   0  0  0  0  0  0  0  0  0  0  0  0
    8.3010    0.5860   21.7150 C   0  0  0  0  0  0  0  0  0  0  0  0
    8.9870    0.3860   23.0500 C   0  0  0  0  0  0  0  0  0  0  0  0
   10.1390    1.1320   22.9890 C   0  0  0  0  0  0  0  0  0  0  0  0
    9.9410    2.4220   22.4460 C   0  0  0  0  0  0  0  0  0  0  0  0
   10.7350    3.4920   22.8700 C   0  0  0  0  0  0  0  0  0  0  0  0
   12.0900    3.5420   22.5890 C   0  0  0  0  0  0  0  0  0  0  0  0
   12.8470    4.6320   23.0140 C   0  0  0  0  0  0  0  0  0  0  0  0
   12.2150    5.6450   23.7160 C   0  0  0  0  0  0  0  0  0  0  0  0
   10.9010    5.6340   24.0160 N   0  0  0  0  0  0  0  0  0  0  0  0
   10.1930    4.5630   23.5880 C   0  0  0  0  0  0  0  0  0  0  0  0
   11.1350    0.2160   22.2960 C   0  0  0  0  0  0  0  0  0  0  0  0
   11.6090   -0.6610   23.1800 C   0  0  0  0  0  0  0  0  0  0  0  0
   11.7200    0.1680   24.4340 C   0  0  0  0  0  0  0  0  0  0  0  0
   10.9090    1.4090   24.2230 C   0  0  0  0  0  0  0  0  0  0  0  0
    7.2840   -0.2580   21.3840 N   0  0  0  0  0  0  0  0  0  0  0  0
    6.5180    0.1560   20.2950 C   0  0  0  0  0  0  0  0  0  0  0  0
    5.3270    0.8550   20.3850 C   0  0  0  0  0  0  0  0  0  0  0  0
    4.6660    1.2430   19.2220 C   0  0  0  0  0  0  0  0  0  0  0  0
    5.2330    0.9130   18.0100 C   0  0  0  0  0  0  0  0  0  0  0  0
    6.3780    0.2330   17.8930 N   0  0  0  0  0  0  0  0  0  0  0  0
    6.9910   -0.1340   19.0270 C   0  0  0  0  0  0  0  0  0  0  0  0
  1  2  2  0
  2  3  1  0
  4  3  1  0
  4  5  1  0
  5  6  1  0
  6  7  2  0
  7  8  1  0
  8  9  2  0
  9 10  1  0
  6 11  1  0
 10 11  2  0
  4 12  1  0
 12 13  1  0
 13 14  1  0
  4 15  1  0
 14 15  1  0
  2 16  1  0
 16 17  1  0
 17 18  2  0
 18 19  1  0
 19 20  2  0
 20 21  1  0
 17 22  1  0
 21 22  2  0
M  END
