CHR-SOS-54d5cf3e-2
     RDKit          3D

 23 25  0  0  0  0  0  0  0  0999 V2000
    8.3200    1.6410   21.1180 O   0  0  0  0  0  0  0  0  0  0  0  0
    8.0660    0.6870   21.8590 C   0  0  0  0  0  0  0  0  0  0  0  0
    8.9230    0.4740   23.0360 C   0  0  0  0  0  0  0  0  0  0  0  0
   10.1050    0.6720   22.5590 C   0  0  0  0  0  0  0  0  0  0  0  0
   10.4530   -0.4160   21.6220 C   0  0  0  0  0  0  0  0  0  0  0  0
   10.1200   -1.8350   22.0970 C   0  0  0  0  0  0  0  0  0  0  0  0
   11.1190   -2.4090   23.1140 C   0  0  2  0  0  0  0  0  0  0  0  0
   11.4460   -1.4030   24.2420 C   0  0  0  0  0  0  0  0  0  0  0  0
   12.9440   -1.4580   24.4670 C   0  0  0  0  0  0  0  0  0  0  0  0
   13.2620   -2.6570   23.8850 C   0  0  0  0  0  0  0  0  0  0  0  0
   12.3530   -2.7280   22.7340 N   0  0  0  0  0  0  0  0  0  0  0  0
   11.3400    0.9400   23.2840 C   0  0  0  0  0  0  0  0  0  0  0  0
   12.5350    1.5040   22.6950 C   0  0  0  0  0  0  0  0  0  0  0  0
   12.2350    2.8710   22.5500 C   0  0  0  0  0  0  0  0  0  0  0  0
   10.8840    3.1450   22.7300 C   0  0  0  0  0  0  0  0  0  0  0  0
    9.8820    2.2380   22.2560 C   0  0  0  0  0  0  0  0  0  0  0  0
    7.0660   -0.1870   21.5640 N   0  0  0  0  0  0  0  0  0  0  0  0
    6.3600    0.2010   20.4480 C   0  0  0  0  0  0  0  0  0  0  0  0
    5.1460    0.8790   20.5230 C   0  0  0  0  0  0  0  0  0  0  0  0
    4.5310    1.2620   19.2050 C   0  0  0  0  0  0  0  0  0  0  0  0
    5.2730    0.8840   17.9400 C   0  0  0  0  0  0  0  0  0  0  0  0
    6.4320    0.2210   17.9710 N   0  0  0  0  0  0  0  0  0  0  0  0
    6.9290   -0.0960   19.1960 C   0  0  0  0  0  0  0  0  0  0  0  0
  1  2  2  0
  2  3  1  0
  3  4  1  0
  4  5  1  0
  5  6  3  0
  7  6  1  6
  7  8  1  0
  8  9  1  0
  9 10  1  0
  7 11  1  0
 10 11  1  0
  4 12  1  0
 12 13  1  0
 13 14  1  0
 14 15  1  0
  4 16  1  0
 15 16  1  0
  2 17  1  0
 17 18  1  0
 18 19  2  0
 19 20  1  0
 20 21  2  0
 21 22  1  0
 18 23  1  0
 22 23  2  0
M  END
