CHR-SOS-7098f804-12
     RDKit          3D

 16 17  0  0  0  0  0  0  0  0999 V2000
    9.3460    0.9730   21.3770 O   0  0  0  0  0  0  0  0  0  0  0  0
    9.0650   -0.1490   21.7770 C   0  0  0  0  0  0  0  0  0  0  0  0
    7.9810   -0.9900   21.2340 N   0  0  0  0  0  0  0  0  0  0  0  0
    7.0770   -0.2600   20.2760 C   0  0  0  0  0  0  0  0  0  0  0  0
    6.1220    0.5470   20.7720 C   0  0  0  0  0  0  0  0  0  0  0  0
    5.1820    1.3040   19.8660 C   0  0  0  0  0  0  0  0  0  0  0  0
    5.4240    1.0640   18.3810 C   0  0  0  0  0  0  0  0  0  0  0  0
    6.3990    0.2430   17.9540 N   0  0  0  0  0  0  0  0  0  0  0  0
    7.1790   -0.3850   18.8860 C   0  0  0  0  0  0  0  0  0  0  0  0
    9.8400   -0.6440   22.9840 C   0  0  0  0  0  0  0  0  0  0  0  0
   10.9090   -1.2150   23.5690 C   0  0  0  0  0  0  0  0  0  0  0  0
   11.1380   -1.4390   24.7740 C   0  0  0  0  0  0  0  0  0  0  0  0
   12.3900   -1.9930   24.4810 C   0  0  0  0  0  0  0  0  0  0  0  0
   12.5960   -1.9710   22.9320 C   0  0  0  0  0  0  0  0  0  0  0  0
   12.7560   -1.9180   21.2520 Cl  0  0  0  0  0  0  0  0  0  0  0  0
   11.2530   -1.2790   22.3240 C   0  0  0  0  0  0  0  0  0  0  0  0
  1  2  2  0
  2  3  1  0
  3  4  1  0
  4  5  2  0
  5  6  1  0
  6  7  2  0
  7  8  1  0
  4  9  1  0
  8  9  2  0
  2 10  1  0
 10 11  2  0
 11 12  1  0
 12 13  2  0
 13 14  1  0
 14 15  1  0
 10 16  1  0
 14 16  2  0
M  END
