CHR-SOS-b301fc01-2
     RDKit          3D

 24 26  0  0  0  0  0  0  0  0999 V2000
    8.8380    1.5530   21.0450 O   0  0  0  0  0  0  0  0  0  0  0  0
    8.3600    0.6460   21.7390 C   0  0  0  0  0  0  0  0  0  0  0  0
    8.7770    0.4410   23.0290 C   0  0  0  0  0  0  0  0  0  0  0  0
    9.8550    1.2420   23.3010 C   0  0  0  0  0  0  0  0  0  0  0  0
   10.3560    1.8870   22.3280 C   0  0  0  0  0  0  0  0  0  0  0  0
   11.6990    1.7990   22.6260 C   0  0  0  0  0  0  0  0  0  0  0  0
   12.0960    0.3230   22.4420 C   0  0  0  0  0  0  0  0  0  0  0  0
   10.9330   -0.6480   22.1490 C   0  0  0  0  0  0  0  0  0  0  0  0
   11.3550   -2.0580   21.9310 C   0  0  0  0  0  0  0  0  0  0  0  0
   12.7230   -2.3040   22.0210 C   0  0  0  0  0  0  0  0  0  0  0  0
   13.6710   -1.4160   22.2910 N   0  0  0  0  0  0  0  0  0  0  0  0
   13.3560   -0.1380   22.4950 C   0  0  0  0  0  0  0  0  0  0  0  0
   11.1500    0.7710   23.2630 C   0  0  0  0  0  0  0  0  0  0  0  0
   12.1510    1.7780   23.1780 C   0  0  0  0  0  0  0  0  0  0  0  0
   11.7910    3.1530   23.0170 C   0  0  0  0  0  0  0  0  0  0  0  0
   10.7050    3.6040   23.8120 C   0  0  0  0  0  0  0  0  0  0  0  0
    9.5180    2.6010   23.9610 C   0  0  0  0  0  0  0  0  0  0  0  0
    7.3790   -0.2050   21.3240 N   0  0  0  0  0  0  0  0  0  0  0  0
    6.6450    0.2030   20.1600 C   0  0  0  0  0  0  0  0  0  0  0  0
    5.5260    0.9990   20.3720 C   0  0  0  0  0  0  0  0  0  0  0  0
    4.8020    1.4420   19.2670 C   0  0  0  0  0  0  0  0  0  0  0  0
    5.2040    1.0890   17.9830 C   0  0  0  0  0  0  0  0  0  0  0  0
    6.2680    0.3190   17.7210 N   0  0  0  0  0  0  0  0  0  0  0  0
    7.0100   -0.1360   18.8860 C   0  0  0  0  0  0  0  0  0  0  0  0
  1  2  2  0
  2  3  1  0
  3  4  1  0
  4  5  1  0
  5  6  3  0
  6  7  1  0
  7  8  2  0
  8  9  1  0
  9 10  2  0
 10 11  1  0
  7 12  1  0
 11 12  2  0
  4 13  1  0
 13 14  1  0
 14 15  1  0
 15 16  1  0
  4 17  1  0
 16 17  1  0
  2 18  1  0
 18 19  1  0
 19 20  2  0
 20 21  1  0
 21 22  2  0
 22 23  1  0
 19 24  1  0
 23 24  2  0
M  END
