CHR-SOS-7098f804-19
     RDKit          3D

 27 29  0  0  0  0  0  0  0  0999 V2000
   14.1290   -2.1680   26.1940 N   0  0  0  0  0  0  0  0  0  0  0  0
   13.4740   -3.3660   25.3090 S   0  0  0  0  0  0  0  0  0  0  0  0
   12.0390   -3.4240   25.2770 O   0  0  0  0  0  0  0  0  0  0  0  0
   14.3160   -4.4270   25.6850 O   0  0  0  0  0  0  0  0  0  0  0  0
   13.3480   -2.5620   23.8390 C   0  0  0  0  0  0  0  0  0  0  0  0
   12.9600   -1.3690   24.4560 C   0  0  0  0  0  0  0  0  0  0  0  0
   12.6680   -0.4080   23.7970 C   0  0  0  0  0  0  0  0  0  0  0  0
   12.7030   -0.4520   22.3640 C   0  0  0  0  0  0  0  0  0  0  0  0
   12.2620    0.7070   22.1370 O   0  0  0  0  0  0  0  0  0  0  0  0
   11.8280    0.3930   23.4080 C   0  0  0  0  0  0  0  0  0  0  0  0
   11.2560    0.0290   24.8760 C   0  0  0  0  0  0  0  0  0  0  0  0
    9.8110   -0.0360   25.1340 C   0  0  0  0  0  0  0  0  0  0  0  0
    8.6150   -0.2860   26.3430 Cl  0  0  0  0  0  0  0  0  0  0  0  0
    9.8700    0.2260   23.7930 C   0  0  0  0  0  0  0  0  0  0  0  0
    8.9910    0.3570   22.9890 C   0  0  0  0  0  0  0  0  0  0  0  0
    8.4660    0.6120   21.5930 C   0  0  0  0  0  0  0  0  0  0  0  0
    8.8600    1.6480   21.0600 O   0  0  0  0  0  0  0  0  0  0  0  0
    7.6310   -0.2910   21.0700 N   0  0  0  0  0  0  0  0  0  0  0  0
    6.8580    0.1690   20.0950 C   0  0  0  0  0  0  0  0  0  0  0  0
    5.7850    1.0150   20.3650 C   0  0  0  0  0  0  0  0  0  0  0  0
    4.9510    1.5360   19.3950 C   0  0  0  0  0  0  0  0  0  0  0  0
    5.2030    1.1940   18.0810 C   0  0  0  0  0  0  0  0  0  0  0  0
    6.2080    0.3830   17.7280 N   0  0  0  0  0  0  0  0  0  0  0  0
    7.0400   -0.1330   18.7630 C   0  0  0  0  0  0  0  0  0  0  0  0
   10.3640    0.5060   22.5720 C   0  0  0  0  0  0  0  0  0  0  0  0
   13.1020   -1.5540   21.6300 C   0  0  0  0  0  0  0  0  0  0  0  0
   13.4710   -2.7800   22.4770 C   0  0  0  0  0  0  0  0  0  0  0  0
  2  1  1  0
  2  3  2  0
  2  4  2  0
  2  5  1  0
  5  6  2  0
  6  7  1  0
  7  8  2  0
  8  9  1  0
  9 10  1  0
 10 11  2  0
 11 12  1  0
 12 13  1  0
 12 14  2  0
 14 15  1  0
 15 16  1  0
 16 17  2  0
 16 18  1  0
 18 19  1  0
 19 20  2  0
 20 21  1  0
 21 22  2  0
 22 23  1  0
 19 24  1  0
 23 24  2  0
 10 25  1  0
 15 25  2  0
  8 26  1  0
  5 27  1  0
 26 27  2  0
M  END
