CHR-SOS-54d5cf3e-6
     RDKit          3D

 23 25  0  0  0  0  0  0  0  0999 V2000
    8.6260    1.5230   21.2970 O   0  0  0  0  0  0  0  0  0  0  0  0
    8.2860    0.5750   22.0330 C   0  0  0  0  0  0  0  0  0  0  0  0
    9.1100    0.2980   23.2890 C   0  0  0  0  0  0  0  0  0  0  0  0
   10.2930    0.7540   22.7910 C   0  0  0  0  0  0  0  0  0  0  0  0
   10.2810   -0.0680   21.7130 C   0  0  0  0  0  0  0  0  0  0  0  0
   10.4620   -1.4000   21.8530 C   0  0  0  0  0  0  0  0  0  0  0  0
   11.5070   -1.9010   22.6410 C   0  0  0  0  0  0  0  0  0  0  0  0
   12.7990   -2.2040   22.2750 C   0  0  0  0  0  0  0  0  0  0  0  0
   13.4540   -2.6490   23.3570 N   0  0  0  0  0  0  0  0  0  0  0  0
   12.6310   -2.6540   24.4540 C   0  0  0  0  0  0  0  0  0  0  0  0
   11.3960   -2.1920   24.0500 N   0  0  0  0  0  0  0  0  0  0  0  0
   11.7410    0.4150   23.1510 C   0  0  0  0  0  0  0  0  0  0  0  0
   12.7330    1.5940   23.0770 C   0  0  0  0  0  0  0  0  0  0  0  0
   12.3170    3.0090   22.6430 C   0  0  0  0  0  0  0  0  0  0  0  0
   10.9410    3.2170   23.1900 C   0  0  0  0  0  0  0  0  0  0  0  0
   10.0380    2.3030   22.6280 C   0  0  0  0  0  0  0  0  0  0  0  0
    7.2170   -0.2190   21.6970 N   0  0  0  0  0  0  0  0  0  0  0  0
    6.5840    0.1300   20.4860 C   0  0  0  0  0  0  0  0  0  0  0  0
    5.4230    0.9010   20.5090 C   0  0  0  0  0  0  0  0  0  0  0  0
    4.8310    1.2560   19.3040 C   0  0  0  0  0  0  0  0  0  0  0  0
    5.3350    0.8840   18.0770 C   0  0  0  0  0  0  0  0  0  0  0  0
    6.4310    0.1450   17.9220 N   0  0  0  0  0  0  0  0  0  0  0  0
    7.0620   -0.2420   19.0590 C   0  0  0  0  0  0  0  0  0  0  0  0
  1  2  2  0
  2  3  1  0
  3  4  1  0
  4  5  1  0
  5  6  3  0
  6  7  1  0
  7  8  2  0
  8  9  1  0
  9 10  1  0
  7 11  1  0
 10 11  2  0
  4 12  1  0
 12 13  1  0
 13 14  1  0
 14 15  1  0
  4 16  1  0
 15 16  1  0
  2 17  1  0
 17 18  1  0
 18 19  2  0
 19 20  1  0
 20 21  2  0
 21 22  1  0
 18 23  1  0
 22 23  2  0
M  END
