CHR-SOS-1f323c23-10
     RDKit          3D

 21 23  0  0  0  0  0  0  0  0999 V2000
    5.6020    0.7770   22.2080 C   0  0  0  0  0  0  0  0  0  0  0  0
    5.9370    0.5430   20.7940 C   0  0  0  0  0  0  0  0  0  0  0  0
    5.1260    1.0640   19.7740 C   0  0  0  0  0  0  0  0  0  0  0  0
    5.3260    0.9150   18.4050 C   0  0  0  0  0  0  0  0  0  0  0  0
    6.3660    0.2180   17.9240 N   0  0  0  0  0  0  0  0  0  0  0  0
    7.1950   -0.3190   18.8630 C   0  0  0  0  0  0  0  0  0  0  0  0
    7.0520   -0.1940   20.3510 C   0  0  0  0  0  0  0  0  0  0  0  0
    8.1020   -0.8650   21.2040 N   0  0  0  0  0  0  0  0  0  0  0  0
    9.3250   -0.3330   21.6490 C   0  0  0  0  0  0  0  0  0  0  0  0
    9.5110    0.8680   21.8580 O   0  0  0  0  0  0  0  0  0  0  0  0
   10.3410   -1.3140   21.7890 N   0  0  0  0  0  0  0  0  0  0  0  0
   11.0350   -1.3400   22.9960 C   0  0  0  0  0  0  0  0  0  0  0  0
   10.4850   -1.4110   24.0780 O   0  0  0  0  0  0  0  0  0  0  0  0
    9.1790   -1.8140   24.1110 C   0  0  0  0  0  0  0  0  0  0  0  0
    8.7810   -2.8820   23.3900 C   0  0  0  0  0  0  0  0  0  0  0  0
    7.4490   -3.3250   23.4060 C   0  0  0  0  0  0  0  0  0  0  0  0
    6.4920   -2.6540   24.1840 C   0  0  0  0  0  0  0  0  0  0  0  0
    6.9070   -1.5510   24.9250 C   0  0  0  0  0  0  0  0  0  0  0  0
    8.2340   -1.1330   24.8900 C   0  0  0  0  0  0  0  0  0  0  0  0
   12.5470   -1.1310   22.9110 C   0  0  0  0  0  0  0  0  0  0  0  0
   12.2180   -2.4450   23.0460 C   0  0  0  0  0  0  0  0  0  0  0  0
  1  2  1  0
  2  3  2  0
  3  4  1  0
  4  5  2  0
  5  6  1  0
  2  7  1  0
  6  7  2  0
  7  8  1  0
  8  9  1  0
  9 10  2  0
  9 11  1  0
 11 12  1  0
 12 13  1  0
 13 14  1  0
 14 15  2  0
 15 16  1  0
 16 17  2  0
 17 18  1  0
 14 19  1  0
 18 19  2  0
 12 20  1  0
 12 21  1  0
 20 21  1  0
M  END
