CHR-SOS-7098f804-9
     RDKit          3D

 15 16  0  0  0  0  0  0  0  0999 V2000
    9.0190    1.1990   21.1980 O   0  0  0  0  0  0  0  0  0  0  0  0
    9.0690   -0.0260   21.4400 C   0  0  0  0  0  0  0  0  0  0  0  0
    8.0560   -0.9090   21.0690 N   0  0  0  0  0  0  0  0  0  0  0  0
    6.9760   -0.1500   20.3810 C   0  0  0  0  0  0  0  0  0  0  0  0
    7.1070   -0.1890   18.9890 C   0  0  0  0  0  0  0  0  0  0  0  0
    6.0780    0.5440   18.1660 C   0  0  0  0  0  0  0  0  0  0  0  0
    5.0520    1.2140   18.7710 C   0  0  0  0  0  0  0  0  0  0  0  0
    4.9920    1.1920   20.2630 C   0  0  0  0  0  0  0  0  0  0  0  0
    5.9050    0.5450   21.0170 C   0  0  0  0  0  0  0  0  0  0  0  0
   10.3290   -0.4930   22.1820 C   0  0  0  0  0  0  0  0  0  0  0  0
   10.7400   -0.1270   23.4870 C   0  0  0  0  0  0  0  0  0  0  0  0
   12.1230   -0.8410   23.7450 C   0  0  0  0  0  0  0  0  0  0  0  0
   12.7380   -1.7630   22.6230 C   0  0  0  0  0  0  0  0  0  0  0  0
   12.1430   -2.0300   21.3350 C   0  0  0  0  0  0  0  0  0  0  0  0
   11.4580   -1.2330   22.1250 C   0  0  0  0  0  0  0  0  0  0  0  0
  1  2  2  0
  2  3  1  0
  3  4  1  0
  4  5  2  0
  5  6  1  0
  6  7  2  0
  7  8  1  0
  4  9  1  0
  8  9  2  0
  2 10  1  0
 10 11  2  0
 11 12  1  0
 12 13  2  0
 13 14  1  0
 10 15  1  0
 14 15  2  0
M  END
