CHR-SOS-7098f804-3
     RDKit          3D

 20 21  0  0  0  0  0  0  0  0999 V2000
    9.0560    1.1830   21.3770 O   0  0  0  0  0  0  0  0  0  0  0  0
    8.8000   -0.0390   21.3600 C   0  0  0  0  0  0  0  0  0  0  0  0
    7.9530   -0.6720   20.4600 N   0  0  0  0  0  0  0  0  0  0  0  0
    6.7640    0.0790   20.1090 C   0  0  0  0  0  0  0  0  0  0  0  0
    6.6440    0.4800   18.7650 C   0  0  0  0  0  0  0  0  0  0  0  0
    5.5240    1.2180   18.3080 C   0  0  0  0  0  0  0  0  0  0  0  0
    4.5010    1.5700   19.2070 C   0  0  0  0  0  0  0  0  0  0  0  0
    3.2890    2.3330   18.9050 N   0  0  0  0  0  0  0  0  0  0  0  0
    2.3930    2.2510   19.7630 O   0  0  0  0  0  0  0  0  0  0  0  0
    3.4540    3.3490   18.2420 O   0  0  0  0  0  0  0  0  0  0  0  0
    4.5860    1.1690   20.6200 C   0  0  0  0  0  0  0  0  0  0  0  0
    5.8020    0.3830   21.0490 C   0  0  0  0  0  0  0  0  0  0  0  0
    9.4430   -1.0150   22.2970 C   0  0  0  0  0  0  0  0  0  0  0  0
   10.8760   -0.8070   22.6840 C   0  0  0  0  0  0  0  0  0  0  0  0
   11.4760   -1.6800   23.5080 C   0  0  0  0  0  0  0  0  0  0  0  0
   13.1070   -1.4820   23.9710 Cl  0  0  0  0  0  0  0  0  0  0  0  0
   10.7720   -2.7560   23.9890 C   0  0  0  0  0  0  0  0  0  0  0  0
    9.4490   -3.0590   23.7150 C   0  0  0  0  0  0  0  0  0  0  0  0
    8.7100   -2.2420   22.8820 C   0  0  0  0  0  0  0  0  0  0  0  0
    7.5340   -2.5020   22.6370 O   0  0  0  0  0  0  0  0  0  0  0  0
  1  2  2  0
  2  3  1  0
  3  4  1  0
  4  5  2  0
  5  6  1  0
  6  7  2  0
  7  8  1  0
  8  9  2  0
  8 10  1  0
  7 11  1  0
  4 12  1  0
 11 12  2  0
  2 13  1  0
 13 14  2  0
 14 15  1  0
 15 16  1  0
 15 17  2  0
 17 18  1  0
 13 19  1  0
 18 19  2  0
 19 20  1  0
M  CHG  2   8   1  10  -1
M  END
