CHR-SOS-70e4c98a-3
     RDKit          3D

 22 24  0  0  0  0  0  0  0  0999 V2000
    9.2590    1.7300   21.3730 O   0  0  0  0  0  0  0  0  0  0  0  0
    9.1190    0.5900   21.8140 C   0  0  0  0  0  0  0  0  0  0  0  0
   10.1320   -0.0420   22.7440 C   0  0  0  0  0  0  0  0  0  0  0  0
   11.1190    0.5410   23.5200 C   0  0  0  0  0  0  0  0  0  0  0  0
   10.7330    1.8030   24.0650 O   0  0  0  0  0  0  0  0  0  0  0  0
   11.2270    3.0940   23.4820 C   0  0  0  0  0  0  0  0  0  0  0  0
   12.5070    2.9800   22.9150 C   0  0  0  0  0  0  0  0  0  0  0  0
   11.6920    1.7950   23.6120 C   0  0  0  0  0  0  0  0  0  0  0  0
   10.1600    2.0860   24.2430 C   0  0  0  0  0  0  0  0  0  0  0  0
    9.4880    3.5240   24.1750 C   0  0  0  0  0  0  0  0  0  0  0  0
   10.4330    4.1930   23.5640 C   0  0  0  0  0  0  0  0  0  0  0  0
   12.4590    0.8780   22.8250 C   0  0  0  0  0  0  0  0  0  0  0  0
   13.0320   -0.4720   22.5250 C   0  0  0  0  0  0  0  0  0  0  0  0
   12.7250   -1.1750   23.6530 C   0  0  0  0  0  0  0  0  0  0  0  0
   11.8040   -0.4330   24.3920 C   0  0  0  0  0  0  0  0  0  0  0  0
    7.9780   -0.3070   21.5110 N   0  0  0  0  0  0  0  0  0  0  0  0
    7.0470    0.0710   20.3640 C   0  0  0  0  0  0  0  0  0  0  0  0
    5.9060    0.7940   20.7020 C   0  0  0  0  0  0  0  0  0  0  0  0
    4.9750    1.2220   19.7590 C   0  0  0  0  0  0  0  0  0  0  0  0
    5.1860    0.9010   18.3010 C   0  0  0  0  0  0  0  0  0  0  0  0
    6.2570    0.2000   17.9110 N   0  0  0  0  0  0  0  0  0  0  0  0
    7.1460   -0.2070   18.8580 C   0  0  0  0  0  0  0  0  0  0  0  0
  1  2  2  0
  2  3  1  0
  3  4  1  0
  4  5  1  0
  5  6  1  0
  6  7  2  0
  7  8  1  0
  8  9  2  0
  9 10  1  0
  6 11  1  0
 10 11  2  0
  4 12  1  0
 12 13  1  0
 13 14  1  0
  4 15  1  0
 14 15  1  0
  2 16  1  0
 16 17  1  0
 17 18  2  0
 18 19  1  0
 19 20  2  0
 20 21  1  0
 17 22  1  0
 21 22  2  0
M  END
