CHR-SOS-e960e883-6
     RDKit          3D

 25 27  0  0  0  0  0  0  0  0999 V2000
    4.9270    1.6540   21.7530 C   0  0  0  0  0  0  0  0  0  0  0  0
    5.5340    1.1360   20.4480 C   0  0  0  0  0  0  0  0  0  0  0  0
    4.9620    1.5310   19.2440 C   0  0  0  0  0  0  0  0  0  0  0  0
    5.5050    1.0670   18.0550 C   0  0  0  0  0  0  0  0  0  0  0  0
    6.5590    0.2430   17.9690 N   0  0  0  0  0  0  0  0  0  0  0  0
    7.0810   -0.1190   19.1560 C   0  0  0  0  0  0  0  0  0  0  0  0
    6.6460    0.2750   20.4160 C   0  0  0  0  0  0  0  0  0  0  0  0
    7.2350   -0.1310   21.6210 N   0  0  0  0  0  0  0  0  0  0  0  0
    8.6980   -0.1650   21.7040 C   0  0  0  0  0  0  0  0  0  0  0  0
    9.5010   -0.7350   21.0530 O   0  0  0  0  0  0  0  0  0  0  0  0
    9.3170    0.5590   22.6770 C   0  0  0  0  0  0  0  0  0  0  0  0
   10.3990    1.2360   23.2480 C   0  0  0  0  0  0  0  0  0  0  0  0
   11.5880    0.4750   23.4870 C   0  0  0  0  0  0  0  0  0  0  0  0
   12.9410    1.0060   23.2330 C   0  0  0  0  0  0  0  0  0  0  0  0
   11.9130    1.9730   22.9540 C   0  0  0  0  0  0  0  0  0  0  0  0
   11.7160    0.5370   23.4790 C   0  0  0  0  0  0  0  0  0  0  0  0
   12.6970   -0.4670   23.7810 C   0  0  0  0  0  0  0  0  0  0  0  0
   13.1160   -2.1020   24.3290 S   0  0  0  0  0  0  0  0  0  0  0  0
   11.6260   -2.8720   24.4120 N   0  0  0  0  0  0  0  0  0  0  0  0
   13.6200   -2.0700   25.6740 O   0  0  0  0  0  0  0  0  0  0  0  0
   13.7970   -2.7720   23.2610 O   0  0  0  0  0  0  0  0  0  0  0  0
   11.4720   -0.8610   23.9770 C   0  0  0  0  0  0  0  0  0  0  0  0
   10.7940    2.5740   22.4700 C   0  0  0  0  0  0  0  0  0  0  0  0
   10.4740    3.2050   23.6060 C   0  0  0  0  0  0  0  0  0  0  0  0
    9.8650    2.0400   24.3060 C   0  0  0  0  0  0  0  0  0  0  0  0
  1  2  1  0
  2  3  2  0
  3  4  1  0
  4  5  2  0
  5  6  1  0
  2  7  1  0
  6  7  2  0
  7  8  1  0
  8  9  1  0
  9 10  2  0
  9 11  1  0
 12 11  1  0
 12 13  1  0
 13 14  2  0
 14 15  1  0
 15 16  2  0
 16 17  1  0
 17 18  1  0
 18 19  1  0
 18 20  2  0
 18 21  2  0
 13 22  1  0
 17 22  2  0
 12 23  1  0
 23 24  1  0
 12 25  1  0
 24 25  1  0
M  END
