CHR-SOS-59746812-5
     RDKit          3D

 23 25  0  0  0  0  0  0  0  0999 V2000
    8.8340    2.0630   21.2110 O   0  0  0  0  0  0  0  0  0  0  0  0
    8.7040    0.8980   21.5300 C   0  0  0  0  0  0  0  0  0  0  0  0
    9.7580    0.1300   22.2590 C   0  0  0  0  0  0  0  0  0  0  0  0
   10.6480    0.8240   23.3200 C   0  0  0  0  0  0  0  0  0  0  0  0
   11.1470   -0.4590   24.0100 C   0  0  0  0  0  0  0  0  0  0  0  0
   12.2690   -0.9550   23.1320 C   0  0  0  0  0  0  0  0  0  0  0  0
   12.4160   -2.2030   22.4840 C   0  0  0  0  0  0  0  0  0  0  0  0
   13.1090   -1.1490   22.5430 C   0  0  0  0  0  0  0  0  0  0  0  0
   12.2820   -0.3720   23.4000 C   0  0  0  0  0  0  0  0  0  0  0  0
   12.7470    0.8070   23.6390 C   0  0  0  0  0  0  0  0  0  0  0  0
   13.4320   -0.0560   22.8290 C   0  0  0  0  0  0  0  0  0  0  0  0
   12.0530    1.4560   22.9330 C   0  0  0  0  0  0  0  0  0  0  0  0
   12.1690    2.9400   22.5560 C   0  0  0  0  0  0  0  0  0  0  0  0
   10.8760    3.6580   22.7140 C   0  0  0  0  0  0  0  0  0  0  0  0
   10.3090    3.3180   24.0510 C   0  0  0  0  0  0  0  0  0  0  0  0
    9.8320    1.8600   24.1650 C   0  0  0  0  0  0  0  0  0  0  0  0
    7.6020    0.1140   21.2580 N   0  0  0  0  0  0  0  0  0  0  0  0
    6.7460    0.4200   20.2100 C   0  0  0  0  0  0  0  0  0  0  0  0
    5.6100    1.2120   20.3260 C   0  0  0  0  0  0  0  0  0  0  0  0
    4.8380    1.4720   19.2020 C   0  0  0  0  0  0  0  0  0  0  0  0
    5.2320    0.9320   18.0030 C   0  0  0  0  0  0  0  0  0  0  0  0
    6.3160    0.1610   17.8610 N   0  0  0  0  0  0  0  0  0  0  0  0
    7.0420   -0.0800   18.9560 C   0  0  0  0  0  0  0  0  0  0  0  0
  1  2  2  0
  2  3  1  0
  4  3  1  0
  4  5  1  0
  5  6  1  0
  6  7  2  0
  7  8  1  0
  8  9  2  0
  9 10  1  0
  6 11  1  0
 10 11  2  0
  4 12  1  0
 12 13  1  0
 13 14  1  0
 14 15  1  0
  4 16  1  0
 15 16  1  0
  2 17  1  0
 17 18  1  0
 18 19  2  0
 19 20  1  0
 20 21  2  0
 21 22  1  0
 18 23  1  0
 22 23  2  0
M  END
