CHR-SOS-e960e883-2
     RDKit          3D

 25 27  0  0  0  0  0  0  0  0999 V2000
   13.9650   -4.1030   25.9160 N   0  0  0  0  0  0  0  0  0  0  0  0
   13.7440   -2.7290   25.3130 S   0  0  0  0  0  0  0  0  0  0  0  0
   14.3120   -2.8780   24.0180 O   0  0  0  0  0  0  0  0  0  0  0  0
   13.7570   -1.5410   26.0710 O   0  0  0  0  0  0  0  0  0  0  0  0
   12.1920   -2.5570   24.6160 C   0  0  0  0  0  0  0  0  0  0  0  0
   11.2180   -3.5490   24.4410 C   0  0  0  0  0  0  0  0  0  0  0  0
   10.0140   -3.2410   23.8620 C   0  0  0  0  0  0  0  0  0  0  0  0
    9.7240   -2.0300   23.4240 C   0  0  0  0  0  0  0  0  0  0  0  0
   10.7280   -1.0980   23.5940 C   0  0  0  0  0  0  0  0  0  0  0  0
   10.5270    0.1510   23.0580 C   0  0  0  0  0  0  0  0  0  0  0  0
    9.1740    0.8420   23.2330 C   0  0  0  0  0  0  0  0  0  0  0  0
    8.5300    0.9380   21.8650 C   0  0  0  0  0  0  0  0  0  0  0  0
    8.9470    1.8160   21.1220 O   0  0  0  0  0  0  0  0  0  0  0  0
    7.5400    0.0870   21.4900 N   0  0  0  0  0  0  0  0  0  0  0  0
    6.8500    0.3750   20.3730 C   0  0  0  0  0  0  0  0  0  0  0  0
    5.8180    1.2390   20.4250 C   0  0  0  0  0  0  0  0  0  0  0  0
    5.0660    1.5860   19.2950 C   0  0  0  0  0  0  0  0  0  0  0  0
    5.3430    1.0560   18.0380 C   0  0  0  0  0  0  0  0  0  0  0  0
    6.4620    0.1150   17.9860 N   0  0  0  0  0  0  0  0  0  0  0  0
    7.1330   -0.1690   19.1280 C   0  0  0  0  0  0  0  0  0  0  0  0
   10.5070   -0.5860   21.9050 C   0  0  0  0  0  0  0  0  0  0  0  0
   11.7900   -1.2140   21.9960 C   0  0  0  0  0  0  0  0  0  0  0  0
   12.6730   -0.2690   22.5660 C   0  0  0  0  0  0  0  0  0  0  0  0
   11.9340    0.8600   22.9510 C   0  0  0  0  0  0  0  0  0  0  0  0
   11.9280   -1.3380   24.1880 C   0  0  0  0  0  0  0  0  0  0  0  0
  2  1  1  0
  2  3  2  0
  2  4  2  0
  2  5  1  0
  5  6  2  0
  6  7  1  0
  7  8  2  0
  8  9  1  0
  9 10  1  0
 10 11  1  0
 11 12  1  0
 12 13  2  0
 12 14  1  0
 14 15  1  0
 15 16  2  0
 16 17  1  0
 17 18  2  0
 18 19  1  0
 15 20  1  0
 19 20  2  0
 10 21  1  0
 21 22  1  0
 22 23  1  0
 10 24  1  0
 23 24  1  0
  5 25  1  0
  9 25  2  0
M  END
