CHR-SOS-59746812-4
     RDKit          3D

 23 25  0  0  0  0  0  0  0  0999 V2000
   12.3360    6.4240   22.7730 C   0  0  0  0  0  0  0  0  0  0  0  0
   11.9940    4.9880   23.0050 C   0  0  0  0  0  0  0  0  0  0  0  0
   12.9120    4.0340   22.6290 N   0  0  0  0  0  0  0  0  0  0  0  0
   12.4400    2.7520   22.9100 C   0  0  0  0  0  0  0  0  0  0  0  0
   11.1920    2.7880   23.4900 C   0  0  0  0  0  0  0  0  0  0  0  0
   10.3520    1.7350   23.9390 C   0  0  0  0  0  0  0  0  0  0  0  0
   10.4780    0.3670   23.5550 C   0  0  0  0  0  0  0  0  0  0  0  0
    9.2310   -0.1720   23.2000 C   0  0  0  0  0  0  0  0  0  0  0  0
    8.6510    0.4320   21.9090 C   0  0  0  0  0  0  0  0  0  0  0  0
    9.1250    1.4430   21.3670 O   0  0  0  0  0  0  0  0  0  0  0  0
    7.4990   -0.3070   21.4160 N   0  0  0  0  0  0  0  0  0  0  0  0
    6.8410    0.1160   20.2930 C   0  0  0  0  0  0  0  0  0  0  0  0
    5.7190    0.9930   20.2050 C   0  0  0  0  0  0  0  0  0  0  0  0
    4.8530    1.6100   19.3230 C   0  0  0  0  0  0  0  0  0  0  0  0
    5.2350    1.2210   18.0440 C   0  0  0  0  0  0  0  0  0  0  0  0
    6.3210    0.3440   17.7800 N   0  0  0  0  0  0  0  0  0  0  0  0
    7.1020   -0.1920   18.9590 C   0  0  0  0  0  0  0  0  0  0  0  0
   11.3570    0.0370   22.5130 C   0  0  0  0  0  0  0  0  0  0  0  0
   11.9900   -1.3690   22.5670 C   0  0  0  0  0  0  0  0  0  0  0  0
   12.9480   -1.3850   23.7310 C   0  0  0  0  0  0  0  0  0  0  0  0
   12.4210   -0.4090   24.7560 C   0  0  0  0  0  0  0  0  0  0  0  0
   10.9990   -0.4740   24.7590 C   0  0  0  0  0  0  0  0  0  0  0  0
   10.5320    4.3780   23.7170 S   0  0  0  0  0  0  0  0  0  0  0  0
  1  2  1  0
  2  3  2  0
  3  4  1  0
  4  5  2  0
  5  6  1  0
  7  6  1  0
  7  8  1  0
  8  9  1  0
  9 10  2  0
  9 11  1  0
 11 12  1  0
 12 13  2  0
 13 14  1  0
 14 15  2  0
 15 16  1  0
 12 17  1  0
 16 17  2  0
  7 18  1  0
 18 19  1  0
 19 20  1  0
 20 21  1  0
  7 22  1  0
 21 22  1  0
  2 23  1  0
  5 23  1  0
M  END
