CHR-SOS-7098f804-11
     RDKit          3D

 17 18  0  0  0  0  0  0  0  0999 V2000
    9.1950    1.1270   21.6650 O   0  0  0  0  0  0  0  0  0  0  0  0
    8.9450   -0.2590   21.8400 C   0  0  0  0  0  0  0  0  0  0  0  0
    7.7270   -0.7940   21.4240 N   0  0  0  0  0  0  0  0  0  0  0  0
    6.9300   -0.1960   20.3360 C   0  0  0  0  0  0  0  0  0  0  0  0
    5.8250    0.5940   20.7310 C   0  0  0  0  0  0  0  0  0  0  0  0
    5.0700    1.1670   19.7170 C   0  0  0  0  0  0  0  0  0  0  0  0
    5.3640    0.9880   18.3960 C   0  0  0  0  0  0  0  0  0  0  0  0
    6.3930    0.2520   17.9720 N   0  0  0  0  0  0  0  0  0  0  0  0
    7.1620   -0.3350   18.9440 C   0  0  0  0  0  0  0  0  0  0  0  0
   10.0530   -1.0810   22.4700 C   0  0  0  0  0  0  0  0  0  0  0  0
   10.7020    0.1000   22.4950 C   0  0  0  0  0  0  0  0  0  0  0  0
   12.0770    0.1110   23.0400 C   0  0  0  0  0  0  0  0  0  0  0  0
   12.8090    1.6630   22.9970 Cl  0  0  0  0  0  0  0  0  0  0  0  0
   12.7350   -1.0260   23.5430 C   0  0  0  0  0  0  0  0  0  0  0  0
   11.9740   -2.3260   23.5120 C   0  0  0  0  0  0  0  0  0  0  0  0
   11.3210   -1.2730   23.0330 C   0  0  0  0  0  0  0  0  0  0  0  0
   12.1270   -0.3970   23.1940 O   0  0  0  0  0  0  0  0  0  0  0  0
  1  2  2  0
  2  3  1  0
  3  4  1  0
  4  5  2  0
  5  6  1  0
  6  7  2  0
  7  8  1  0
  4  9  1  0
  8  9  2  0
  2 10  1  0
 10 11  2  0
 11 12  1  0
 12 13  1  0
 12 14  2  0
 14 15  1  0
 10 16  1  0
 15 16  2  0
 16 17  1  0
M  END
