CHR-SOS-7098f804-17
     RDKit          3D

 27 29  0  0  0  0  0  0  0  0999 V2000
   11.0850    6.0370   22.6380 N   0  0  0  0  0  0  0  0  0  0  0  0
   10.1110    5.1380   23.6670 S   0  0  0  0  0  0  0  0  0  0  0  0
   10.3200    5.7010   24.9780 O   0  0  0  0  0  0  0  0  0  0  0  0
    8.8090    5.1880   23.0430 O   0  0  0  0  0  0  0  0  0  0  0  0
   10.8120    3.4820   23.5080 C   0  0  0  0  0  0  0  0  0  0  0  0
   12.2370    3.4310   23.0550 C   0  0  0  0  0  0  0  0  0  0  0  0
   12.8160    2.1000   22.9310 C   0  0  0  0  0  0  0  0  0  0  0  0
   12.0660    0.9600   23.2100 C   0  0  0  0  0  0  0  0  0  0  0  0
   10.7330    1.0760   23.6210 C   0  0  0  0  0  0  0  0  0  0  0  0
   10.0930    0.0560   23.8480 O   0  0  0  0  0  0  0  0  0  0  0  0
    9.1230    0.0370   24.8260 C   0  0  0  0  0  0  0  0  0  0  0  0
    9.5240   -0.3530   26.1650 C   0  0  0  0  0  0  0  0  0  0  0  0
    8.5830   -0.4610   27.4280 C   0  0  0  0  0  0  0  0  0  0  0  0
    7.1150   -0.1060   27.1560 C   0  0  0  0  0  0  0  0  0  0  0  0
    5.8340   -0.1230   28.3170 Cl  0  0  0  0  0  0  0  0  0  0  0  0
    7.0830    0.2300   25.7560 C   0  0  0  0  0  0  0  0  0  0  0  0
    7.7930    0.3680   24.5610 C   0  0  0  0  0  0  0  0  0  0  0  0
    7.2330    0.7680   23.3310 C   0  0  0  0  0  0  0  0  0  0  0  0
    6.7830    1.9120   23.3120 O   0  0  0  0  0  0  0  0  0  0  0  0
    7.2740   -0.1900   22.3550 N   0  0  0  0  0  0  0  0  0  0  0  0
    6.4960   -0.1000   21.1370 C   0  0  0  0  0  0  0  0  0  0  0  0
    5.1120    0.5410   21.1070 C   0  0  0  0  0  0  0  0  0  0  0  0
    4.4170    0.5600   19.7490 C   0  0  0  0  0  0  0  0  0  0  0  0
    5.2130   -0.0700   18.6130 C   0  0  0  0  0  0  0  0  0  0  0  0
    6.4360   -0.6150   18.7470 N   0  0  0  0  0  0  0  0  0  0  0  0
    7.0310   -0.6180   19.9610 C   0  0  0  0  0  0  0  0  0  0  0  0
   10.1010    2.3160   23.7780 C   0  0  0  0  0  0  0  0  0  0  0  0
  2  1  1  0
  2  3  2  0
  2  4  2  0
  2  5  1  0
  5  6  2  0
  6  7  1  0
  7  8  2  0
  8  9  1  0
  9 10  1  0
 10 11  1  0
 11 12  2  0
 12 13  1  0
 13 14  2  0
 14 15  1  0
 14 16  1  0
 11 17  1  0
 16 17  2  0
 17 18  1  0
 18 19  2  0
 18 20  1  0
 20 21  1  0
 21 22  2  0
 22 23  1  0
 23 24  2  0
 24 25  1  0
 21 26  1  0
 25 26  2  0
  5 27  1  0
  9 27  2  0
M  END
