CHR-SOS-1f323c23-3
     RDKit          3D

 28 30  0  0  0  0  0  0  0  0999 V2000
   15.6310    4.0080   19.4410 C   0  0  0  0  0  0  0  0  0  0  0  0
   15.2370    2.7690   19.2930 C   0  0  0  0  0  0  0  0  0  0  0  0
   15.0270    2.6010   18.1660 C   0  0  0  0  0  0  0  0  0  0  0  0
   14.5940    1.4140   17.6250 C   0  0  0  0  0  0  0  0  0  0  0  0
   14.4880    0.3240   18.2330 N   0  0  0  0  0  0  0  0  0  0  0  0
   14.6920    0.4740   19.4950 C   0  0  0  0  0  0  0  0  0  0  0  0
   15.0110    1.7290   20.1510 C   0  0  0  0  0  0  0  0  0  0  0  0
   14.9550    1.5480   21.6480 N   0  0  0  0  0  0  0  0  0  0  0  0
   13.8690    0.4290   21.8530 C   0  0  0  0  0  0  0  0  0  0  0  0
   13.6680   -0.4520   21.0290 O   0  0  0  0  0  0  0  0  0  0  0  0
   13.0790    0.3890   22.9310 N   0  0  0  0  0  0  0  0  0  0  0  0
   12.2000   -0.6960   23.1710 C   0  0  0  0  0  0  0  0  0  0  0  0
   10.9030   -0.3450   22.7480 O   0  0  0  0  0  0  0  0  0  0  0  0
   10.5490    0.8840   23.0890 C   0  0  0  0  0  0  0  0  0  0  0  0
   11.5450    1.8560   23.6920 C   0  0  0  0  0  0  0  0  0  0  0  0
   11.0110    3.2090   23.9790 C   0  0  0  0  0  0  0  0  0  0  0  0
    9.7240    3.5500   23.7470 C   0  0  0  0  0  0  0  0  0  0  0  0
    9.2060    5.1910   24.1180 S   0  0  0  0  0  0  0  0  0  0  0  0
   10.6330    6.0930   24.1250 N   0  0  0  0  0  0  0  0  0  0  0  0
    8.7570    5.2440   25.4810 O   0  0  0  0  0  0  0  0  0  0  0  0
    8.3950    5.6560   23.0240 O   0  0  0  0  0  0  0  0  0  0  0  0
    8.8940    2.5930   23.2190 C   0  0  0  0  0  0  0  0  0  0  0  0
    9.2380    1.2970   22.8800 C   0  0  0  0  0  0  0  0  0  0  0  0
   12.7250   -1.8970   22.6150 C   0  0  0  0  0  0  0  0  0  0  0  0
   13.5090   -2.5310   23.5080 C   0  0  0  0  0  0  0  0  0  0  0  0
   12.6240   -3.0690   24.5590 C   0  0  0  0  0  0  0  0  0  0  0  0
   12.1710   -1.9300   25.3970 C   0  0  0  0  0  0  0  0  0  0  0  0
   12.0550   -0.6210   24.6660 C   0  0  0  0  0  0  0  0  0  0  0  0
  1  2  1  0
  2  3  2  0
  3  4  1  0
  4  5  2  0
  5  6  1  0
  2  7  1  0
  6  7  2  0
  7  8  1  0
  8  9  1  0
  9 10  2  0
  9 11  1  0
 11 12  1  0
 12 13  1  0
 13 14  1  0
 14 15  2  0
 15 16  1  0
 16 17  2  0
 17 18  1  0
 18 19  1  0
 18 20  2  0
 18 21  2  0
 17 22  1  0
 14 23  1  0
 22 23  2  0
 12 24  1  0
 24 25  1  0
 25 26  1  0
 26 27  1  0
 12 28  1  0
 27 28  1  0
M  END
