CHR-SOS-6c45c019-2
     RDKit          3D

 25 27  0  0  0  0  0  0  0  0999 V2000
    5.0970    1.0620   21.9210 C   0  0  0  0  0  0  0  0  0  0  0  0
    5.5330    0.8280   20.5340 C   0  0  0  0  0  0  0  0  0  0  0  0
    4.8940    1.3560   19.4940 C   0  0  0  0  0  0  0  0  0  0  0  0
    5.3030    1.1440   18.0930 C   0  0  0  0  0  0  0  0  0  0  0  0
    6.3530    0.3900   17.8370 N   0  0  0  0  0  0  0  0  0  0  0  0
    7.0360   -0.1740   18.8950 C   0  0  0  0  0  0  0  0  0  0  0  0
    6.6550    0.0220   20.3640 C   0  0  0  0  0  0  0  0  0  0  0  0
    7.4340   -0.5940   21.2950 N   0  0  0  0  0  0  0  0  0  0  0  0
    8.5230    0.1440   21.3520 C   0  0  0  0  0  0  0  0  0  0  0  0
    8.6150    1.3460   21.0540 O   0  0  0  0  0  0  0  0  0  0  0  0
    9.5810   -0.6240   21.7710 N   0  0  0  0  0  0  0  0  0  0  0  0
   10.4720   -0.1810   22.8460 C   0  0  0  0  0  0  0  0  0  0  0  0
   10.0200   -0.9340   24.0740 C   0  0  0  0  0  0  0  0  0  0  0  0
   10.1200   -2.2930   24.0230 C   0  0  0  0  0  0  0  0  0  0  0  0
   11.1620   -2.4590   23.2150 C   0  0  0  0  0  0  0  0  0  0  0  0
   12.4210   -2.6630   23.7280 C   0  0  0  0  0  0  0  0  0  0  0  0
   13.4570   -2.7790   22.8420 C   0  0  0  0  0  0  0  0  0  0  0  0
   13.2250   -2.6890   21.4490 C   0  0  0  0  0  0  0  0  0  0  0  0
   11.9990   -2.4960   20.9020 N   0  0  0  0  0  0  0  0  0  0  0  0
   10.9480   -2.3850   21.8680 C   0  0  0  0  0  0  0  0  0  0  0  0
   10.3220    1.1590   22.9340 C   0  0  0  0  0  0  0  0  0  0  0  0
   11.5850    2.0290   22.8360 C   0  0  0  0  0  0  0  0  0  0  0  0
   12.7740    1.4430   23.1120 C   0  0  0  0  0  0  0  0  0  0  0  0
   12.8790    0.1080   23.2250 C   0  0  0  0  0  0  0  0  0  0  0  0
   11.9030   -0.6300   22.6430 C   0  0  0  0  0  0  0  0  0  0  0  0
  1  2  1  0
  2  3  2  0
  3  4  1  0
  4  5  2  0
  5  6  1  0
  2  7  1  0
  6  7  2  0
  7  8  1  0
  8  9  1  0
  9 10  2  0
  9 11  1  0
 11 12  1  0
 12 13  1  0
 13 14  3  0
 14 15  1  0
 15 16  2  0
 16 17  1  0
 17 18  2  0
 18 19  1  0
 15 20  1  0
 19 20  2  0
 12 21  1  0
 21 22  1  0
 22 23  1  0
 23 24  1  0
 12 25  1  0
 24 25  1  0
M  END
