CLI-UNI-032f7715-4
     RDKit          3D

 18 19  0  0  0  0  0  0  0  0999 V2000
    5.4900   -4.0640   26.6190 O   0  0  0  0  0  0  0  0  0  0  0  0
    6.1010   -3.3700   25.8460 C   0  0  0  0  0  0  0  0  0  0  0  0
    6.9070   -2.3670   26.2060 O   0  0  0  0  0  0  0  0  0  0  0  0
    5.9690   -3.5240   24.5010 C   0  0  0  0  0  0  0  0  0  0  0  0
    5.1570   -4.4750   23.8810 C   0  0  0  0  0  0  0  0  0  0  0  0
    5.0620   -4.4880   22.4350 C   0  0  0  0  0  0  0  0  0  0  0  0
    5.8270   -3.4860   21.6520 C   0  0  0  0  0  0  0  0  0  0  0  0
    5.6800   -3.4070   19.9390 S   0  0  0  0  0  0  0  0  0  0  0  0
    6.0560   -4.7070   19.5490 O   0  0  0  0  0  0  0  0  0  0  0  0
    4.4310   -2.9470   19.5040 O   0  0  0  0  0  0  0  0  0  0  0  0
    6.6750   -2.0320   19.7640 N   0  0  0  0  0  0  0  0  0  0  0  0
    6.3900   -1.0510   20.6540 C   0  0  0  0  0  0  0  0  0  0  0  0
    6.8220    0.2380   20.3310 C   0  0  0  0  0  0  0  0  0  0  0  0
    6.2910    0.7290   19.1460 C   0  0  0  0  0  0  0  0  0  0  0  0
    5.6910   -0.2920   18.4280 C   0  0  0  0  0  0  0  0  0  0  0  0
    6.6220   -1.5360   18.4550 C   0  0  0  0  0  0  0  0  0  0  0  0
    6.6780   -2.5620   22.2800 C   0  0  0  0  0  0  0  0  0  0  0  0
    6.7750   -2.5440   23.6700 C   0  0  0  0  0  0  0  0  0  0  0  0
  1  2  2  0
  2  3  1  0
  2  4  1  0
  4  5  2  0
  5  6  1  0
  6  7  2  0
  8  7  1  0
  8  9  2  0
  8 10  2  0
  8 11  1  0
 11 12  1  0
 12 13  1  0
 13 14  1  0
 14 15  1  0
 11 16  1  0
 15 16  1  0
  7 17  1  0
  4 18  1  0
 17 18  2  0
M  END
