DAN-RED-da448e80-18
     RDKit          3D

 23 25  0  0  0  0  0  0  0  0999 V2000
    8.6860    0.1150   15.3100 C   0  0  0  0  0  0  0  0  0  0  0  0
    7.7300   -1.2260   15.9900 S   0  0  0  0  0  0  0  0  0  0  0  0
    8.6220   -2.1730   16.5650 O   0  0  0  0  0  0  0  0  0  0  0  0
    6.7990   -1.6700   14.9970 O   0  0  0  0  0  0  0  0  0  0  0  0
    6.8730   -0.4830   17.2050 N   0  0  0  0  0  0  0  0  0  0  0  0
    6.1110   -1.3340   18.0090 C   0  0  0  0  0  0  0  0  0  0  0  0
    6.2450   -1.3450   19.3600 C   0  0  2  0  0  0  0  0  0  0  0  0
    6.0160   -2.4940   20.1370 C   0  0  0  0  0  0  0  0  0  0  0  0
    5.4150   -3.5450   19.7510 O   0  0  0  0  0  0  0  0  0  0  0  0
    6.6360   -2.3970   21.4670 N   0  0  0  0  0  0  0  0  0  0  0  0
    6.3330   -3.5730   22.2670 C   0  0  0  0  0  0  0  0  0  0  0  0
    7.4480   -3.8060   22.9320 C   0  0  0  0  0  0  0  0  0  0  0  0
    8.2710   -2.7220   22.7260 C   0  0  0  0  0  0  0  0  0  0  0  0
    9.4190   -2.7270   23.4490 C   0  0  0  0  0  0  0  0  0  0  0  0
   10.6190   -2.2730   23.9050 C   0  0  0  0  0  0  0  0  0  0  0  0
   10.1650   -1.3090   23.0050 N   0  0  0  0  0  0  0  0  0  0  0  0
    9.0640   -1.0320   22.1320 C   0  0  0  0  0  0  0  0  0  0  0  0
    7.8670   -1.6930   21.7960 C   0  0  0  0  0  0  0  0  0  0  0  0
    5.4330   -0.1490   19.8250 C   0  0  0  0  0  0  0  0  0  0  0  0
    5.1610    0.3710   21.2160 C   0  0  0  0  0  0  0  0  0  0  0  0
    4.3790    1.4970   21.2520 C   0  0  0  0  0  0  0  0  0  0  0  0
    3.9940    1.9280   19.9910 C   0  0  0  0  0  0  0  0  0  0  0  0
    4.6120    0.9220   18.7340 S   0  0  0  0  0  0  0  0  0  0  0  0
  1  2  1  0
  2  3  2  0
  2  4  2  0
  2  5  1  0
  5  6  1  0
  7  6  1  6
  7  8  1  0
  8  9  2  0
  8 10  1  0
 10 11  1  0
 11 12  1  0
 12 13  1  0
 13 14  1  0
 14 15  2  0
 15 16  1  0
 16 17  2  0
 10 18  1  0
 13 18  2  0
 17 18  1  0
  7 19  1  0
 19 20  2  0
 20 21  1  0
 21 22  2  0
 19 23  1  0
 22 23  1  0
M  END
