DAN-RED-da448e80-19
     RDKit          3D

 24 26  0  0  0  0  0  0  0  0999 V2000
    5.5800    0.5410   18.0180 C   0  0  0  0  0  0  0  0  0  0  0  0
    5.7540    0.5450   19.7930 S   0  0  0  0  0  0  0  0  0  0  0  0
    4.4950    0.1440   20.3690 O   0  0  0  0  0  0  0  0  0  0  0  0
    6.4140    1.7730   20.1720 O   0  0  0  0  0  0  0  0  0  0  0  0
    6.8720   -0.6770   20.0950 N   0  0  0  0  0  0  0  0  0  0  0  0
    7.0650   -1.1230   21.4270 C   0  0  0  0  0  0  0  0  0  0  0  0
    8.0230   -2.0950   21.7460 C   0  0  1  0  0  0  0  0  0  0  0  0
    8.9810   -1.8280   22.7470 C   0  0  0  0  0  0  0  0  0  0  0  0
    8.8260   -2.2500   23.9030 O   0  0  0  0  0  0  0  0  0  0  0  0
   10.1920   -1.0330   22.3950 N   0  0  0  0  0  0  0  0  0  0  0  0
   11.4590   -1.7060   22.4950 C   0  0  0  0  0  0  0  0  0  0  0  0
   12.5330   -0.8490   22.5740 C   0  0  0  0  0  0  0  0  0  0  0  0
   12.3840    0.4650   23.0830 C   0  0  0  0  0  0  0  0  0  0  0  0
   11.2160    1.2590   22.8240 C   0  0  0  0  0  0  0  0  0  0  0  0
   10.7180    2.4550   22.7710 C   0  0  0  0  0  0  0  0  0  0  0  0
   11.8420    2.9300   23.0950 C   0  0  0  0  0  0  0  0  0  0  0  0
   12.5600    1.6950   23.1980 N   0  0  0  0  0  0  0  0  0  0  0  0
   11.9160    0.3410   22.9410 C   0  0  0  0  0  0  0  0  0  0  0  0
   10.3970    0.3630   22.5500 C   0  0  0  0  0  0  0  0  0  0  0  0
    7.3610   -3.4520   22.1200 C   0  0  0  0  0  0  0  0  0  0  0  0
    7.6280   -4.3150   23.1800 C   0  0  0  0  0  0  0  0  0  0  0  0
    6.8440   -5.4440   23.1950 C   0  0  0  0  0  0  0  0  0  0  0  0
    5.9360   -5.5050   22.1510 C   0  0  0  0  0  0  0  0  0  0  0  0
    6.0780   -4.1170   21.1520 S   0  0  0  0  0  0  0  0  0  0  0  0
  1  2  1  0
  2  3  2  0
  2  4  2  0
  2  5  1  0
  5  6  1  0
  7  6  1  1
  7  8  1  0
  8  9  2  0
  8 10  1  0
 10 11  1  0
 11 12  1  0
 12 13  1  0
 13 14  1  0
 14 15  2  0
 15 16  1  0
 16 17  2  0
 17 18  1  0
 10 19  1  0
 14 19  1  0
 18 19  2  0
  7 20  1  0
 20 21  2  0
 21 22  1  0
 22 23  2  0
 20 24  1  0
 23 24  1  0
M  END
