DAN-RED-da448e80-13
     RDKit          3D

 25 26  0  0  0  0  0  0  0  0999 V2000
   11.1230   -0.7310   25.0240 C   0  0  0  0  0  0  0  0  0  0  0  0
   10.9650   -0.0050   23.8270 O   0  0  0  0  0  0  0  0  0  0  0  0
   12.0630    0.0350   23.0170 C   0  0  0  0  0  0  0  0  0  0  0  0
   13.0050    0.7460   22.4760 C   0  0  0  0  0  0  0  0  0  0  0  0
   12.0910    1.7270   23.3740 C   0  0  0  0  0  0  0  0  0  0  0  0
   12.9420    2.9870   23.0180 C   0  0  0  0  0  0  0  0  0  0  0  0
   14.0650    3.9500   22.3900 C   0  0  1  0  0  0  0  0  0  0  0  0
   13.5070    5.3250   22.8330 C   0  0  0  0  0  0  0  0  0  0  0  0
   12.1870    5.5010   22.4400 N   0  0  0  0  0  0  0  0  0  0  0  0
   11.0300    6.1200   23.4930 S   0  0  0  0  0  0  0  0  0  0  0  0
   12.0250    6.8380   24.7850 C   0  0  0  0  0  0  0  0  0  0  0  0
   10.3760    7.1980   22.7840 O   0  0  0  0  0  0  0  0  0  0  0  0
   10.2540    5.0270   24.0360 O   0  0  0  0  0  0  0  0  0  0  0  0
   15.7680    4.0150   22.5160 C   0  0  0  0  0  0  0  0  0  0  0  0
   16.2350    3.7470   21.4410 O   0  0  0  0  0  0  0  0  0  0  0  0
   16.8490    4.5180   23.8430 N   0  0  0  0  0  0  0  0  0  0  0  0
   18.5270    4.5410   24.4900 C   0  0  0  0  0  0  0  0  0  0  0  0
   18.7630    3.4330   24.9400 C   0  0  0  0  0  0  0  0  0  0  0  0
   19.7870    2.7550   25.5990 N   0  0  0  0  0  0  0  0  0  0  0  0
   20.9840    3.3610   25.9240 C   0  0  0  0  0  0  0  0  0  0  0  0
   21.0090    4.6220   25.5500 C   0  0  0  0  0  0  0  0  0  0  0  0
   19.9280    5.2510   24.8960 C   0  0  0  0  0  0  0  0  0  0  0  0
   20.5680    6.4600   24.8950 C   0  0  0  0  0  0  0  0  0  0  0  0
   13.3640    1.8660   22.4480 C   0  0  0  0  0  0  0  0  0  0  0  0
   12.2030    1.3620   23.2100 C   0  0  0  0  0  0  0  0  0  0  0  0
  1  2  1  0
  2  3  1  0
  3  4  2  0
  4  5  1  0
  5  6  2  0
  6  7  1  0
  7  8  1  1
  8  9  1  0
 10  9  1  0
 10 11  1  0
 10 12  2  0
 10 13  2  0
  7 14  1  0
 14 15  2  0
 14 16  1  0
 16 17  1  0
 17 18  2  0
 18 19  1  0
 19 20  2  0
 20 21  1  0
 17 22  1  0
 21 22  2  0
 22 23  1  0
  6 24  1  0
  3 25  1  0
 24 25  2  0
M  END
