DAN-RED-da448e80-14
     RDKit          3D

 26 28  0  0  0  0  0  0  0  0999 V2000
   10.3000   -2.1550   22.7770 C   0  0  0  0  0  0  0  0  0  0  0  0
   11.1700   -1.5320   23.7170 O   0  0  0  0  0  0  0  0  0  0  0  0
   11.9900   -0.5500   23.2300 C   0  0  0  0  0  0  0  0  0  0  0  0
   12.2220    0.7440   23.1390 C   0  0  0  0  0  0  0  0  0  0  0  0
   11.0520    1.4930   23.9280 C   0  0  0  0  0  0  0  0  0  0  0  0
   10.9690    2.8460   24.0440 C   0  0  0  0  0  0  0  0  0  0  0  0
   11.5220    4.2550   23.7560 C   0  0  1  0  0  0  0  0  0  0  0  0
   10.9880    4.6730   22.6490 C   0  0  0  0  0  0  0  0  0  0  0  0
   10.3420    3.6470   21.9640 N   0  0  0  0  0  0  0  0  0  0  0  0
    8.6860    3.2970   22.1800 S   0  0  0  0  0  0  0  0  0  0  0  0
    8.6400    2.2260   23.5990 C   0  0  0  0  0  0  0  0  0  0  0  0
    8.0280    4.5420   22.5190 O   0  0  0  0  0  0  0  0  0  0  0  0
    8.2590    2.5080   21.0440 O   0  0  0  0  0  0  0  0  0  0  0  0
   11.4150    5.5220   24.8380 C   0  0  0  0  0  0  0  0  0  0  0  0
   11.8380    5.5840   25.9640 O   0  0  0  0  0  0  0  0  0  0  0  0
   10.9800    6.6600   24.3900 N   0  0  0  0  0  0  0  0  0  0  0  0
    9.8260    6.8270   23.7320 C   0  0  0  0  0  0  0  0  0  0  0  0
   10.0070    6.6050   22.2790 C   0  0  0  0  0  0  0  0  0  0  0  0
   11.3100    6.0040   22.2360 C   0  0  0  0  0  0  0  0  0  0  0  0
   12.2130    5.3620   21.3880 C   0  0  0  0  0  0  0  0  0  0  0  0
   13.4370    4.9030   21.7790 C   0  0  0  0  0  0  0  0  0  0  0  0
   13.8640    4.9940   23.0200 N   0  0  0  0  0  0  0  0  0  0  0  0
   12.9550    5.5990   23.8470 C   0  0  0  0  0  0  0  0  0  0  0  0
   11.7780    6.0740   23.4130 C   0  0  0  0  0  0  0  0  0  0  0  0
   11.8080    1.9570   23.4610 C   0  0  0  0  0  0  0  0  0  0  0  0
   11.2750    0.4220   23.7390 C   0  0  0  0  0  0  0  0  0  0  0  0
  1  2  1  0
  2  3  1  0
  3  4  2  0
  4  5  1  0
  5  6  2  0
  6  7  1  0
  7  8  1  6
  8  9  1  0
 10  9  1  0
 10 11  1  0
 10 12  2  0
 10 13  2  0
  7 14  1  0
 14 15  2  0
 14 16  1  0
 16 17  1  0
 17 18  1  0
 18 19  1  0
 19 20  1  0
 20 21  2  0
 21 22  1  0
 22 23  2  0
 16 24  1  0
 19 24  2  0
 23 24  1  0
  6 25  1  0
  3 26  1  0
 25 26  2  0
M  END
