DAN-RED-da448e80-12
     RDKit          3D

 26 28  0  0  0  0  0  0  0  0999 V2000
   11.9110    7.6280   25.4540 C   0  0  0  0  0  0  0  0  0  0  0  0
   10.4230    7.0770   24.6490 S   0  0  0  0  0  0  0  0  0  0  0  0
    9.6470    8.2370   24.2840 O   0  0  0  0  0  0  0  0  0  0  0  0
    9.8210    6.0270   25.4380 O   0  0  0  0  0  0  0  0  0  0  0  0
   11.0280    6.3350   23.2370 N   0  0  0  0  0  0  0  0  0  0  0  0
   11.9210    5.3320   23.3220 C   0  0  0  0  0  0  0  0  0  0  0  0
   11.6070    4.1070   22.9160 C   0  0  1  0  0  0  0  0  0  0  0  0
   12.6820    3.2100   22.4890 C   0  0  0  0  0  0  0  0  0  0  0  0
   13.0440    2.4040   23.2980 O   0  0  0  0  0  0  0  0  0  0  0  0
   13.1480    3.3580   21.0930 N   0  0  0  0  0  0  0  0  0  0  0  0
   12.3390    4.2070   20.3260 C   0  0  0  0  0  0  0  0  0  0  0  0
   12.5270    4.1100   18.7770 C   0  0  0  0  0  0  0  0  0  0  0  0
   13.7790    4.2560   18.3390 O   0  0  0  0  0  0  0  0  0  0  0  0
   14.5590    4.1360   19.3430 C   0  0  0  0  0  0  0  0  0  0  0  0
   15.8690    4.5430   18.9950 C   0  0  0  0  0  0  0  0  0  0  0  0
   16.8330    4.4850   19.8460 C   0  0  0  0  0  0  0  0  0  0  0  0
   16.5790    4.0400   21.0180 N   0  0  0  0  0  0  0  0  0  0  0  0
   15.3790    3.6930   21.3760 C   0  0  0  0  0  0  0  0  0  0  0  0
   14.3600    3.7230   20.6110 C   0  0  0  0  0  0  0  0  0  0  0  0
   10.6640    3.4490   23.9350 C   0  0  0  0  0  0  0  0  0  0  0  0
    9.9870    2.3070   24.5060 C   0  0  0  0  0  0  0  0  0  0  0  0
   10.6750    1.4120   23.4610 C   0  0  0  0  0  0  0  0  0  0  0  0
    9.9870    0.2950   24.0380 C   0  0  0  0  0  0  0  0  0  0  0  0
    8.8910   -0.2420   25.2430 Cl  0  0  0  0  0  0  0  0  0  0  0  0
    9.9100    1.4610   24.4030 C   0  0  0  0  0  0  0  0  0  0  0  0
   10.7460    2.2360   23.5600 C   0  0  0  0  0  0  0  0  0  0  0  0
  1  2  1  0
  2  3  2  0
  2  4  2  0
  2  5  1  0
  5  6  1  0
  7  6  1  1
  7  8  1  0
  8  9  2  0
  8 10  1  0
 10 11  1  0
 11 12  1  0
 12 13  1  0
 13 14  1  0
 14 15  2  0
 15 16  1  0
 16 17  2  0
 17 18  1  0
 10 19  1  0
 14 19  1  0
 18 19  2  0
  7 20  1  0
 20 21  2  0
 21 22  1  0
 22 23  2  0
 23 24  1  0
 23 25  1  0
 20 26  1  0
 25 26  2  0
M  END
