DAN-MCD-50ec7d1f-1
     RDKit          3D

 20 21  0  0  0  0  0  0  0  0999 V2000
    5.4480   -4.4570   19.9230 O   0  0  0  0  0  0  0  0  0  0  0  0
    6.1110   -4.2200   20.9410 C   0  0  0  0  0  0  0  0  0  0  0  0
    6.6250   -2.7980   21.2210 C   0  0  0  0  0  0  0  0  0  0  0  0
    7.8510   -2.7360   21.8200 F   0  0  0  0  0  0  0  0  0  0  0  0
    6.4360   -5.1940   21.8750 N   0  0  0  0  0  0  0  0  0  0  0  0
    7.1540   -4.8260   23.0550 C   0  0  0  0  0  0  0  0  0  0  0  0
    6.2400   -4.3520   24.0130 C   0  0  0  0  0  0  0  0  0  0  0  0
    5.2280   -5.2410   24.2160 N   0  0  0  0  0  0  0  0  0  0  0  0
    4.6260   -5.4540   25.7950 S   0  0  0  0  0  0  0  0  0  0  0  0
    3.9620   -6.7320   25.9090 O   0  0  0  0  0  0  0  0  0  0  0  0
    5.6780   -5.0770   26.7100 O   0  0  0  0  0  0  0  0  0  0  0  0
    3.3610   -4.2120   25.8430 C   0  0  0  0  0  0  0  0  0  0  0  0
    2.0150   -4.5580   25.7980 C   0  0  0  0  0  0  0  0  0  0  0  0
    1.0350   -3.5600   25.8450 C   0  0  0  0  0  0  0  0  0  0  0  0
    1.4110   -2.2170   25.9370 C   0  0  0  0  0  0  0  0  0  0  0  0
    2.7560   -1.8630   25.9770 C   0  0  0  0  0  0  0  0  0  0  0  0
    3.1080   -0.5710   26.0610 F   0  0  0  0  0  0  0  0  0  0  0  0
    3.7260   -2.8550   25.9310 C   0  0  0  0  0  0  0  0  0  0  0  0
    4.7830   -6.1660   23.2740 C   0  0  0  0  0  0  0  0  0  0  0  0
    5.6270   -6.3890   22.0580 C   0  0  0  0  0  0  0  0  0  0  0  0
  1  2  2  0
  2  3  1  0
  3  4  1  0
  2  5  1  0
  5  6  1  0
  6  7  1  0
  7  8  1  0
  8  9  1  0
  9 10  2  0
  9 11  2  0
  9 12  1  0
 12 13  2  0
 13 14  1  0
 14 15  2  0
 15 16  1  0
 16 17  1  0
 12 18  1  0
 16 18  2  0
  8 19  1  0
  5 20  1  0
 19 20  1  0
M  END
