DAN-MCD-5c762fbe-1
     RDKit          3D

 21 22  0  0  0  0  0  0  0  0999 V2000
    5.7190   -2.0920   19.6770 C   0  0  0  0  0  0  0  0  0  0  0  0
    6.3740   -2.8560   20.8440 C   0  0  0  0  0  0  0  0  0  0  0  0
    7.1050   -2.3450   21.6840 O   0  0  0  0  0  0  0  0  0  0  0  0
    6.0450   -4.2160   20.8500 C   0  0  0  0  0  0  0  0  0  0  0  0
    5.3020   -4.5770   19.7760 O   0  0  0  0  0  0  0  0  0  0  0  0
    6.4550   -5.0770   21.8570 N   0  0  0  0  0  0  0  0  0  0  0  0
    7.1770   -4.6500   23.0720 C   0  0  0  0  0  0  0  0  0  0  0  0
    6.2270   -4.3780   24.0570 C   0  0  0  0  0  0  0  0  0  0  0  0
    5.3810   -5.3820   24.3760 N   0  0  0  0  0  0  0  0  0  0  0  0
    4.6260   -5.4780   25.8960 S   0  0  0  0  0  0  0  0  0  0  0  0
    3.9640   -6.7640   25.9520 O   0  0  0  0  0  0  0  0  0  0  0  0
    5.5990   -5.0860   26.8870 O   0  0  0  0  0  0  0  0  0  0  0  0
    3.3790   -4.2150   25.8620 C   0  0  0  0  0  0  0  0  0  0  0  0
    2.0280   -4.5760   25.7730 C   0  0  0  0  0  0  0  0  0  0  0  0
    1.0570   -3.5760   25.7630 C   0  0  0  0  0  0  0  0  0  0  0  0
    1.4670   -2.2540   25.8420 C   0  0  0  0  0  0  0  0  0  0  0  0
    2.8030   -1.8770   25.9240 C   0  0  0  0  0  0  0  0  0  0  0  0
    3.1400   -0.5820   25.9940 F   0  0  0  0  0  0  0  0  0  0  0  0
    3.7740   -2.8690   25.9340 C   0  0  0  0  0  0  0  0  0  0  0  0
    4.8560   -6.0770   23.3290 C   0  0  0  0  0  0  0  0  0  0  0  0
    5.6500   -6.2780   22.0480 C   0  0  0  0  0  0  0  0  0  0  0  0
  1  2  1  0
  2  3  2  0
  2  4  1  0
  4  5  2  0
  4  6  1  0
  6  7  1  0
  7  8  1  0
  8  9  1  0
  9 10  1  0
 10 11  2  0
 10 12  2  0
 10 13  1  0
 13 14  2  0
 14 15  1  0
 15 16  2  0
 16 17  1  0
 17 18  1  0
 13 19  1  0
 17 19  2  0
  9 20  1  0
  6 21  1  0
 20 21  1  0
M  END
