DAN-RED-da448e80-1
     RDKit          3D

 23 24  0  0  0  0  0  0  0  0999 V2000
    8.3690    3.5460   22.0440 C   0  0  0  0  0  0  0  0  0  0  0  0
    8.2120    5.0190   22.3510 C   0  0  0  0  0  0  0  0  0  0  0  0
    6.8120    5.5710   22.2400 C   0  0  0  0  0  0  0  0  0  0  0  0
    6.5270    7.0430   22.5240 C   0  0  0  0  0  0  0  0  0  0  0  0
    7.5790    7.8340   22.8810 N   0  0  0  0  0  0  0  0  0  0  0  0
    8.8460    7.3610   22.9860 C   0  0  0  0  0  0  0  0  0  0  0  0
    9.2390    5.9120   22.7210 C   0  0  0  0  0  0  0  0  0  0  0  0
   10.5800    5.4410   22.8270 N   0  0  0  0  0  0  0  0  0  0  0  0
   11.0280    4.3720   23.5630 C   0  0  0  0  0  0  0  0  0  0  0  0
   11.1290    4.4160   24.7780 O   0  0  0  0  0  0  0  0  0  0  0  0
   11.3460    3.1900   22.8640 C   0  0  1  0  0  0  0  0  0  0  0  0
   12.6360    2.7600   22.9260 C   0  0  0  0  0  0  0  0  0  0  0  0
   13.5800    3.7430   22.8360 N   0  0  0  0  0  0  0  0  0  0  0  0
   13.2630    4.9300   21.7210 S   0  0  0  0  0  0  0  0  0  0  0  0
   12.8630    6.3290   22.7410 C   0  0  0  0  0  0  0  0  0  0  0  0
   14.4830    5.1750   21.0380 O   0  0  0  0  0  0  0  0  0  0  0  0
   12.1200    4.5040   20.9880 O   0  0  0  0  0  0  0  0  0  0  0  0
   10.4340    2.1640   23.0620 C   0  0  0  0  0  0  0  0  0  0  0  0
   10.0790    0.7950   23.1740 C   0  0  0  0  0  0  0  0  0  0  0  0
   11.6460    0.3440   22.9060 C   0  0  0  0  0  0  0  0  0  0  0  0
   11.1610   -0.9780   23.0470 C   0  0  0  0  0  0  0  0  0  0  0  0
   10.4480    0.0610   23.1380 C   0  0  0  0  0  0  0  0  0  0  0  0
   11.2750    1.2050   22.9410 C   0  0  0  0  0  0  0  0  0  0  0  0
  1  2  1  0
  2  3  2  0
  3  4  1  0
  4  5  2  0
  5  6  1  0
  2  7  1  0
  6  7  2  0
  7  8  1  0
  8  9  1  0
  9 10  2  0
  9 11  1  0
 11 12  1  1
 12 13  1  0
 14 13  1  0
 14 15  1  0
 14 16  2  0
 14 17  2  0
 11 18  1  0
 18 19  2  0
 19 20  1  0
 20 21  2  0
 21 22  1  0
 18 23  1  0
 22 23  2  0
M  END
