DAR-DIA-03336633-10
     RDKit          3D

 27 29  0  0  0  0  0  0  0  0999 V2000
    8.7670    0.8860   21.3130 O   0  0  0  0  0  0  0  0  0  0  0  0
    8.2490   -0.1810   21.6490 C   0  0  0  0  0  0  0  0  0  0  0  0
    9.0770   -1.0950   22.4850 C   0  0  0  0  0  0  0  0  0  0  0  0
   10.3230   -0.6600   22.6410 C   0  0  0  0  0  0  0  0  0  0  0  0
   10.6290    0.7730   22.8530 C   0  0  0  0  0  0  0  0  0  0  0  0
   12.0850    1.1300   23.0010 C   0  0  0  0  0  0  0  0  0  0  0  0
   13.0790    0.0050   22.9260 C   0  0  0  0  0  0  0  0  0  0  0  0
   12.6880   -1.3200   22.7270 C   0  0  0  0  0  0  0  0  0  0  0  0
   11.3250   -1.6540   22.5830 C   0  0  0  0  0  0  0  0  0  0  0  0
    6.9560   -0.5810   21.2900 N   0  0  0  0  0  0  0  0  0  0  0  0
    6.2850    0.0520   20.2450 C   0  0  0  0  0  0  0  0  0  0  0  0
    6.8450    0.0150   18.9690 C   0  0  0  0  0  0  0  0  0  0  0  0
    6.2260    0.6430   17.9230 N   0  0  0  0  0  0  0  0  0  0  0  0
    5.0280    1.3370   18.0720 C   0  0  0  0  0  0  0  0  0  0  0  0
    4.3730    1.3910   19.4410 C   0  0  0  0  0  0  0  0  0  0  0  0
    5.0630    0.7300   20.4480 C   0  0  0  0  0  0  0  0  0  0  0  0
    4.3380    0.8480   21.6840 C   0  0  0  0  0  0  0  0  0  0  0  0
    4.5700    2.1150   22.2010 C   0  0  0  0  0  0  0  0  0  0  0  0
    3.3640    2.8110   22.3080 N   0  0  0  0  0  0  0  0  0  0  0  0
    2.5480    2.7030   23.4330 C   0  0  0  0  0  0  0  0  0  0  0  0
    2.9390    2.0800   24.4200 O   0  0  0  0  0  0  0  0  0  0  0  0
    1.2800    3.2830   23.4050 N   0  0  0  0  0  0  0  0  0  0  0  0
    0.3560    2.5730   24.0070 C   0  0  0  0  0  0  0  0  0  0  0  0
   -0.8900    2.5220   23.4560 C   0  0  0  0  0  0  0  0  0  0  0  0
   -1.5160    3.7300   23.3590 O   0  0  0  0  0  0  0  0  0  0  0  0
   -0.7080    4.7590   23.9730 C   0  0  0  0  0  0  0  0  0  0  0  0
    0.8040    4.6790   23.6450 C   0  0  0  0  0  0  0  0  0  0  0  0
  1  2  2  0
  2  3  1  0
  3  4  1  0
  4  5  2  0
  5  6  1  0
  6  7  2  0
  7  8  1  0
  4  9  1  0
  8  9  2  0
  2 10  1  0
 10 11  1  0
 11 12  2  0
 12 13  1  0
 13 14  2  0
 14 15  1  0
 11 16  1  0
 15 16  2  0
 16 17  1  0
 17 18  1  0
 18 19  1  0
 19 20  1  0
 20 21  2  0
 20 22  1  0
 22 23  1  0
 23 24  1  0
 24 25  1  0
 25 26  1  0
 22 27  1  0
 26 27  1  0
M  END
