DAR-DIA-43a5904b-5
     RDKit          3D

 23 25  0  0  0  0  0  0  0  0999 V2000
   10.1340    2.8030   22.6070 N   0  0  0  0  0  0  0  0  0  0  0  0
    9.1240    1.8070   22.2460 C   0  0  0  0  0  0  0  0  0  0  0  0
    8.7090    1.6140   20.9000 O   0  0  0  0  0  0  0  0  0  0  0  0
    8.4970    1.0530   23.2450 C   0  0  1  0  0  0  0  0  0  0  0  0
    7.1790    0.6200   22.9830 C   0  0  1  0  0  0  0  0  0  0  0  0
    6.8140    0.8200   21.6870 O   0  0  0  0  0  0  0  0  0  0  0  0
    7.1970   -0.8610   23.1380 C   0  0  0  0  0  0  0  0  0  0  0  0
    5.9860   -1.7330   22.8160 C   0  0  0  0  0  0  0  0  0  0  0  0
    6.2280   -3.1140   22.7170 C   0  0  0  0  0  0  0  0  0  0  0  0
    5.6750   -3.9220   21.7190 C   0  0  0  0  0  0  0  0  0  0  0  0
    5.9010   -5.2850   21.6140 C   0  0  0  0  0  0  0  0  0  0  0  0
    6.7200   -5.8810   22.5520 C   0  0  0  0  0  0  0  0  0  0  0  0
    7.3420   -5.2670   23.5890 N   0  0  0  0  0  0  0  0  0  0  0  0
    7.1110   -3.9300   23.6750 C   0  0  0  0  0  0  0  0  0  0  0  0
    8.4650   -1.2470   23.6050 C   0  0  0  0  0  0  0  0  0  0  0  0
    9.3190   -0.1420   23.7910 C   0  0  1  0  0  0  0  0  0  0  0  0
   10.5820   -0.4020   23.2430 C   0  0  0  0  0  0  0  0  0  0  0  0
   11.7550    0.4070   23.4790 C   0  0  0  0  0  0  0  0  0  0  0  0
   12.9430   -0.0030   22.8580 C   0  0  0  0  0  0  0  0  0  0  0  0
   13.2800   -1.0460   22.0350 C   0  0  0  0  0  0  0  0  0  0  0  0
   12.0970   -1.6520   21.9460 C   0  0  0  0  0  0  0  0  0  0  0  0
   11.9930   -0.2780   22.9570 Cl  0  0  0  0  0  0  0  0  0  0  0  0
   10.7750   -1.5520   22.3880 C   0  0  0  0  0  0  0  0  0  0  0  0
  1  2  1  0
  2  3  2  0
  4  2  1  6
  4  5  1  0
  5  6  1  6
  5  7  1  0
  7  8  1  0
  8  9  1  0
  9 10  2  0
 10 11  1  0
 11 12  2  0
 12 13  1  0
  9 14  1  0
 13 14  2  0
  7 15  2  0
  4 16  1  0
 15 16  1  0
 16 17  1  6
 17 18  2  0
 18 19  1  0
 19 20  2  0
 20 21  1  0
 21 22  1  0
 17 23  1  0
 21 23  2  0
M  END
