DAR-DIA-eace69ff-21
     RDKit          3D

 22 24  0  0  0  0  0  0  0  0999 V2000
   13.6900   -2.6680   23.5000 C   0  0  0  0  0  0  0  0  0  0  0  0
   13.6680   -1.7090   22.4610 O   0  0  0  0  0  0  0  0  0  0  0  0
   12.6400   -0.8990   22.6700 C   0  0  0  0  0  0  0  0  0  0  0  0
   11.2590   -1.4590   22.8990 C   0  0  0  0  0  0  0  0  0  0  0  0
   10.1700   -0.6470   23.1330 C   0  0  0  0  0  0  0  0  0  0  0  0
    8.9200   -1.1270   23.3360 N   0  0  0  0  0  0  0  0  0  0  0  0
    8.8320   -2.4890   23.4130 C   0  0  0  0  0  0  0  0  0  0  0  0
    7.5710   -2.9150   23.8140 C   0  0  0  0  0  0  0  0  0  0  0  0
    6.6130   -3.1480   22.8290 C   0  0  0  0  0  0  0  0  0  0  0  0
    6.1570   -2.0050   22.1370 C   0  0  0  0  0  0  0  0  0  0  0  0
    7.2530   -1.1150   21.5900 C   0  0  0  0  0  0  0  0  0  0  0  0
    7.9290   -0.5240   22.6560 C   0  0  0  0  0  0  0  0  0  0  0  0
   10.4520    0.6830   23.1360 C   0  0  0  0  0  0  0  0  0  0  0  0
    9.5080    1.7700   23.3630 N   0  0  0  0  0  0  0  0  0  0  0  0
   10.1960    3.0170   23.2700 C   0  0  0  0  0  0  0  0  0  0  0  0
   11.5220    2.7320   22.9960 C   0  0  0  0  0  0  0  0  0  0  0  0
   12.5030    3.7040   22.8170 C   0  0  0  0  0  0  0  0  0  0  0  0
   12.3900    4.9480   23.3510 N   0  0  0  0  0  0  0  0  0  0  0  0
   12.2010    5.9720   22.3420 C   0  0  0  0  0  0  0  0  0  0  0  0
   11.4320    5.1040   24.4650 C   0  0  0  0  0  0  0  0  0  0  0  0
   11.7100    1.3260   22.9220 C   0  0  0  0  0  0  0  0  0  0  0  0
   12.8550    0.4640   22.6840 C   0  0  0  0  0  0  0  0  0  0  0  0
  1  2  1  0
  2  3  1  0
  3  4  2  0
  4  5  1  0
  5  6  1  0
  6  7  1  0
  7  8  1  0
  8  9  1  0
  9 10  1  0
 10 11  1  0
  6 12  1  0
 11 12  1  0
  5 13  2  0
 13 14  1  0
 14 15  1  0
 15 16  2  0
 16 17  1  0
 17 18  1  0
 18 19  1  0
 18 20  1  0
 13 21  1  0
 16 21  1  0
  3 22  1  0
 21 22  2  0
M  END
