DAR-DIA-eace69ff-8
     RDKit          3D

 30 33  0  0  0  0  0  0  0  0999 V2000
   13.5850   -0.6690   23.1160 C   0  0  0  0  0  0  0  0  0  0  0  0
   13.1530   -1.8360   21.8350 S   0  0  0  0  0  0  0  0  0  0  0  0
   11.8630   -0.8560   22.3710 C   0  0  0  0  0  0  0  0  0  0  0  0
   10.5050   -1.3620   22.7100 C   0  0  0  0  0  0  0  0  0  0  0  0
    9.5640   -0.4530   23.1470 C   0  0  0  0  0  0  0  0  0  0  0  0
    8.2900   -0.8290   23.4870 O   0  0  0  0  0  0  0  0  0  0  0  0
    7.8560   -2.1700   23.1440 C   0  0  0  0  0  0  0  0  0  0  0  0
    7.8580   -2.8390   24.3700 C   0  0  0  0  0  0  0  0  0  0  0  0
    7.5480   -4.2000   24.2880 C   0  0  0  0  0  0  0  0  0  0  0  0
    7.2220   -4.6240   22.9900 C   0  0  0  0  0  0  0  0  0  0  0  0
    5.8220   -4.2430   22.5480 C   0  0  0  0  0  0  0  0  0  0  0  0
    5.5220   -2.9910   23.0870 C   0  0  0  0  0  0  0  0  0  0  0  0
    6.4150   -2.0170   22.6210 C   0  0  0  0  0  0  0  0  0  0  0  0
    9.9630    0.9300   23.2300 C   0  0  0  0  0  0  0  0  0  0  0  0
   11.2570    1.3910   22.9000 C   0  0  0  0  0  0  0  0  0  0  0  0
   12.1930    0.4870   22.4880 C   0  0  0  0  0  0  0  0  0  0  0  0
   11.3150    2.8230   23.0790 C   0  0  0  0  0  0  0  0  0  0  0  0
   12.3780    3.7230   22.8650 C   0  0  0  0  0  0  0  0  0  0  0  0
   12.0860    5.1060   23.3560 N   0  0  0  0  0  0  0  0  0  0  0  0
   11.0420    5.6940   22.5590 C   0  0  0  0  0  0  0  0  0  0  0  0
   11.5880    5.2040   24.7320 C   0  0  0  0  0  0  0  0  0  0  0  0
   10.0660    3.1660   23.5130 C   0  0  0  0  0  0  0  0  0  0  0  0
    9.2800    2.0360   23.6040 N   0  0  0  0  0  0  0  0  0  0  0  0
    7.8940    2.1220   24.0520 C   0  0  0  0  0  0  0  0  0  0  0  0
    7.7500    2.8450   25.2460 C   0  0  0  0  0  0  0  0  0  0  0  0
    8.6240    3.8890   25.5600 C   0  0  0  0  0  0  0  0  0  0  0  0
    8.4160    4.6410   26.8750 C   0  0  0  0  0  0  0  0  0  0  0  0
    7.3860    4.2910   27.7270 C   0  0  0  0  0  0  0  0  0  0  0  0
    6.5430    3.2390   27.3640 C   0  0  0  0  0  0  0  0  0  0  0  0
    6.7210    2.5350   26.1570 C   0  0  0  0  0  0  0  0  0  0  0  0
  1  2  1  0
  2  3  1  0
  3  4  2  0
  4  5  1  0
  5  6  1  0
  6  7  1  0
  7  8  1  0
  8  9  1  0
  9 10  1  0
 10 11  1  0
 11 12  1  0
  7 13  1  0
 12 13  1  0
  5 14  2  0
 14 15  1  0
  3 16  1  0
 15 16  2  0
 15 17  1  0
 17 18  1  0
 18 19  1  0
 19 20  1  0
 19 21  1  0
 17 22  2  0
 14 23  1  0
 22 23  1  0
 23 24  1  0
 24 25  1  0
 25 26  2  0
 26 27  1  0
 27 28  2  0
 28 29  1  0
 25 30  1  0
 29 30  2  0
M  END
