DAR-DIA-eace69ff-19
     RDKit          3D

 23 25  0  0  0  0  0  0  0  0999 V2000
    9.1790   -0.0720   25.8070 C   0  0  0  0  0  0  0  0  0  0  0  0
    9.4100   -0.6420   24.3830 C   0  0  0  0  0  0  0  0  0  0  0  0
   10.5580   -0.1330   23.7520 C   0  0  0  0  0  0  0  0  0  0  0  0
   11.5140   -0.9520   23.1340 C   0  0  0  0  0  0  0  0  0  0  0  0
   12.5960   -0.3830   22.5440 C   0  0  0  0  0  0  0  0  0  0  0  0
   13.4320   -1.0390   21.9910 O   0  0  0  0  0  0  0  0  0  0  0  0
   13.0030   -2.3370   22.1610 C   0  0  0  0  0  0  0  0  0  0  0  0
   13.4260   -2.6890   23.5640 C   0  0  0  0  0  0  0  0  0  0  0  0
   12.5050   -2.7580   24.5950 C   0  0  0  0  0  0  0  0  0  0  0  0
   11.1600   -2.8540   24.2450 C   0  0  0  0  0  0  0  0  0  0  0  0
   10.6480   -2.5530   22.9860 C   0  0  0  0  0  0  0  0  0  0  0  0
   11.4810   -2.2150   21.9160 C   0  0  0  0  0  0  0  0  0  0  0  0
   12.6130    0.9720   22.6380 C   0  0  0  0  0  0  0  0  0  0  0  0
   11.2460    0.8120   23.4130 C   0  0  0  0  0  0  0  0  0  0  0  0
   10.4010    1.8640   23.9600 N   0  0  0  0  0  0  0  0  0  0  0  0
   10.8010    3.1830   23.8130 C   0  0  0  0  0  0  0  0  0  0  0  0
   11.9700    3.2450   23.1690 C   0  0  0  0  0  0  0  0  0  0  0  0
   12.8950    4.4080   22.7350 C   0  0  0  0  0  0  0  0  0  0  0  0
   12.1420    5.6480   22.4880 N   0  0  0  0  0  0  0  0  0  0  0  0
   10.7300    5.4730   22.7440 C   0  0  0  0  0  0  0  0  0  0  0  0
   12.5770    6.7620   23.3190 C   0  0  0  0  0  0  0  0  0  0  0  0
   11.9090    1.9180   23.1120 C   0  0  0  0  0  0  0  0  0  0  0  0
   10.7800    1.2830   23.7230 C   0  0  0  0  0  0  0  0  0  0  0  0
  1  2  1  0
  2  3  1  0
  3  4  2  0
  4  5  1  0
  5  6  1  0
  6  7  1  0
  7  8  1  0
  8  9  1  0
  9 10  1  0
 10 11  1  0
  7 12  1  0
 11 12  1  0
  5 13  2  0
 13 14  1  0
 14 15  2  0
 15 16  1  0
 16 17  2  0
 17 18  1  0
 18 19  1  0
 19 20  1  0
 19 21  1  0
 13 22  1  0
 17 22  1  0
  3 23  1  0
 22 23  2  0
M  END
