DAR-DIA-fc970077-10
     RDKit          3D

 20 22  0  0  0  0  0  0  0  0999 V2000
    8.6050    0.8800   21.1520 O   0  0  0  0  0  0  0  0  0  0  0  0
    8.2380   -0.2130   21.5880 C   0  0  0  0  0  0  0  0  0  0  0  0
    9.0880   -1.0120   22.4300 N   0  0  0  0  0  0  0  0  0  0  0  0
   10.4430   -0.5480   22.5800 C   0  0  0  0  0  0  0  0  0  0  0  0
   10.6570    0.7800   22.8890 C   0  0  0  0  0  0  0  0  0  0  0  0
   12.0780    1.2890   23.0290 C   0  0  0  0  0  0  0  0  0  0  0  0
   13.1100    0.4040   22.8520 C   0  0  0  0  0  0  0  0  0  0  0  0
   12.8520   -0.9270   22.5460 C   0  0  0  0  0  0  0  0  0  0  0  0
   11.5400   -1.3940   22.4110 C   0  0  0  0  0  0  0  0  0  0  0  0
    8.8470   -2.4250   22.5320 C   0  0  0  0  0  0  0  0  0  0  0  0
    7.5820   -2.8970   22.9340 C   0  0  0  0  0  0  0  0  0  0  0  0
    6.3780   -2.4270   22.2260 C   0  0  0  0  0  0  0  0  0  0  0  0
    6.1350   -1.0470   22.3190 C   0  0  0  0  0  0  0  0  0  0  0  0
    6.9710   -0.7230   21.2900 N   0  0  0  0  0  0  0  0  0  0  0  0
    6.3370   -0.0430   20.1690 C   0  0  0  0  0  0  0  0  0  0  0  0
    5.1480    0.6740   20.3020 C   0  0  0  0  0  0  0  0  0  0  0  0
    4.5780    1.3240   19.2060 C   0  0  0  0  0  0  0  0  0  0  0  0
    5.2180    1.2470   17.9740 C   0  0  0  0  0  0  0  0  0  0  0  0
    6.3560    0.5670   17.8010 N   0  0  0  0  0  0  0  0  0  0  0  0
    6.8800   -0.0560   18.8840 C   0  0  0  0  0  0  0  0  0  0  0  0
  1  2  2  0
  2  3  1  0
  3  4  1  0
  4  5  2  0
  5  6  1  0
  6  7  2  0
  7  8  1  0
  4  9  1  0
  8  9  2  0
  3 10  1  0
 10 11  1  0
 11 12  1  0
 12 13  1  0
  2 14  1  0
 13 14  1  0
 14 15  1  0
 15 16  2  0
 16 17  1  0
 17 18  2  0
 18 19  1  0
 15 20  1  0
 19 20  2  0
M  END
