DAR-DIA-03336633-7
     RDKit          3D

 28 30  0  0  0  0  0  0  0  0999 V2000
    8.7460    0.8560   21.4450 O   0  0  0  0  0  0  0  0  0  0  0  0
    8.3270   -0.2660   21.6930 C   0  0  0  0  0  0  0  0  0  0  0  0
    9.0200   -1.2380   22.6050 C   0  0  0  0  0  0  0  0  0  0  0  0
   10.4630   -0.7970   22.7230 C   0  0  0  0  0  0  0  0  0  0  0  0
   10.6570    0.7100   22.8840 C   0  0  0  0  0  0  0  0  0  0  0  0
   12.0680    1.1500   22.9830 C   0  0  0  0  0  0  0  0  0  0  0  0
   13.1430    0.1250   22.9210 C   0  0  0  0  0  0  0  0  0  0  0  0
   12.8630   -1.2310   22.7790 C   0  0  0  0  0  0  0  0  0  0  0  0
   11.5430   -1.6900   22.6790 C   0  0  0  0  0  0  0  0  0  0  0  0
    7.1620   -0.7660   21.1560 N   0  0  0  0  0  0  0  0  0  0  0  0
    6.4500   -0.1050   20.1380 C   0  0  0  0  0  0  0  0  0  0  0  0
    6.9130   -0.0920   18.7650 C   0  0  0  0  0  0  0  0  0  0  0  0
    6.2070    0.5930   17.7860 N   0  0  0  0  0  0  0  0  0  0  0  0
    5.0470    1.3010   17.9950 C   0  0  0  0  0  0  0  0  0  0  0  0
    4.5470    1.3110   19.2860 C   0  0  0  0  0  0  0  0  0  0  0  0
    5.2520    0.5920   20.4080 C   0  0  0  0  0  0  0  0  0  0  0  0
    4.6840    0.6530   21.6760 C   0  0  0  0  0  0  0  0  0  0  0  0
    5.0060    1.7010   22.5370 C   0  0  0  0  0  0  0  0  0  0  0  0
    3.9150    2.6510   22.6340 N   0  0  0  0  0  0  0  0  0  0  0  0
    2.8080    2.3810   23.3990 C   0  0  0  0  0  0  0  0  0  0  0  0
    2.7390    1.4710   24.2140 O   0  0  0  0  0  0  0  0  0  0  0  0
    1.8030    3.2740   23.1190 N   0  0  0  0  0  0  0  0  0  0  0  0
    0.5780    3.3560   23.9100 C   0  0  0  0  0  0  0  0  0  0  0  0
    0.4470    4.7840   24.4800 C   0  0  0  0  0  0  0  0  0  0  0  0
   -0.8930    5.0200   25.1580 C   0  0  0  0  0  0  0  0  0  0  0  0
   -2.0640    4.6350   24.2600 C   0  0  0  0  0  0  0  0  0  0  0  0
   -1.9670    3.2000   23.7280 C   0  0  0  0  0  0  0  0  0  0  0  0
   -0.6310    2.9360   23.0450 C   0  0  0  0  0  0  0  0  0  0  0  0
  1  2  2  0
  2  3  1  0
  3  4  1  0
  4  5  2  0
  5  6  1  0
  6  7  2  0
  7  8  1  0
  4  9  1  0
  8  9  2  0
  2 10  1  0
 10 11  1  0
 11 12  2  0
 12 13  1  0
 13 14  2  0
 14 15  1  0
 11 16  1  0
 15 16  2  0
 16 17  1  0
 17 18  1  0
 18 19  1  0
 19 20  1  0
 20 21  2  0
 20 22  1  0
 22 23  1  0
 23 24  1  0
 24 25  1  0
 25 26  1  0
 26 27  1  0
 23 28  1  0
 27 28  1  0
M  END
