DAR-DIA-a80d16a0-5
     RDKit          3D

 23 25  0  0  0  0  0  0  0  0999 V2000
   13.2710   -1.9180   20.9960 C   0  0  0  0  0  0  0  0  0  0  0  0
   13.5030   -1.3920   22.0690 O   0  0  0  0  0  0  0  0  0  0  0  0
   12.4120   -0.7330   22.5650 C   0  0  0  0  0  0  0  0  0  0  0  0
   11.1800   -1.3650   22.5280 C   0  0  0  0  0  0  0  0  0  0  0  0
   10.0580   -0.6470   23.0610 N   0  0  0  0  0  0  0  0  0  0  0  0
    8.7680   -1.1660   23.0870 C   0  0  0  0  0  0  0  0  0  0  0  0
    8.4950   -2.0720   24.0850 C   0  0  0  0  0  0  0  0  0  0  0  0
    7.8680   -1.6810   25.2110 N   0  0  0  0  0  0  0  0  0  0  0  0
    6.6260   -2.1670   25.4660 C   0  0  0  0  0  0  0  0  0  0  0  0
    8.3010   -0.3850   25.7020 C   0  0  0  0  0  0  0  0  0  0  0  0
   10.3410    0.4320   23.9530 C   0  0  0  0  0  0  0  0  0  0  0  0
   11.2810    1.3870   23.5840 C   0  0  2  0  0  0  0  0  0  0  0  0
   10.8570    2.4710   22.8150 C   0  0  0  0  0  0  0  0  0  0  0  0
    9.5610    2.3720   22.2770 C   0  0  0  0  0  0  0  0  0  0  0  0
    9.1130    1.2220   21.5930 C   0  0  0  0  0  0  0  0  0  0  0  0
    7.7180    1.0970   21.0050 C   0  0  0  0  0  0  0  0  0  0  0  0
    6.7670    2.2840   21.1760 C   0  0  0  0  0  0  0  0  0  0  0  0
    5.1690    2.2280   20.5440 Cl  0  0  0  0  0  0  0  0  0  0  0  0
    7.2300    3.4280   21.8550 C   0  0  0  0  0  0  0  0  0  0  0  0
    8.6800    3.4620   22.4160 C   0  0  0  0  0  0  0  0  0  0  0  0
   11.1500    3.8860   23.2740 C   0  0  0  0  0  0  0  0  0  0  0  0
   11.8330    3.3170   22.2200 C   0  0  0  0  0  0  0  0  0  0  0  0
   12.5820    0.6540   23.1400 C   0  0  0  0  0  0  0  0  0  0  0  0
  1  2  1  0
  2  3  1  0
  3  4  2  0
  4  5  1  0
  5  6  1  0
  6  7  1  0
  7  8  1  0
  8  9  1  0
  8 10  1  0
  5 11  1  0
 11 12  1  0
 12 13  1  6
 13 14  1  0
 14 15  2  0
 15 16  1  0
 16 17  2  0
 17 18  1  0
 17 19  1  0
 14 20  1  0
 19 20  2  0
 13 21  1  0
 13 22  1  0
 21 22  1  0
  3 23  1  0
 12 23  1  0
M  END
