DAR-DIA-eace69ff-16
     RDKit          3D

 28 31  0  0  0  0  0  0  0  0999 V2000
   13.2780   -2.1280   20.8720 C   0  0  0  0  0  0  0  0  0  0  0  0
   13.1490   -1.9180   22.2140 C   0  0  0  0  0  0  0  0  0  0  0  0
   12.2400   -0.9660   22.5640 C   0  0  0  0  0  0  0  0  0  0  0  0
   10.9440   -1.3790   22.8620 C   0  0  0  0  0  0  0  0  0  0  0  0
    9.9870   -0.5230   23.2010 C   0  0  0  0  0  0  0  0  0  0  0  0
    8.6820   -0.8750   23.5100 O   0  0  0  0  0  0  0  0  0  0  0  0
    8.2150   -2.2030   23.8620 C   0  0  0  0  0  0  0  0  0  0  0  0
    9.1620   -3.0110   24.4580 C   0  0  0  0  0  0  0  0  0  0  0  0
    8.6550   -4.2110   24.9310 C   0  0  0  0  0  0  0  0  0  0  0  0
    7.6990   -4.8810   24.1330 C   0  0  0  0  0  0  0  0  0  0  0  0
    7.1880   -4.2100   22.9890 C   0  0  0  0  0  0  0  0  0  0  0  0
    7.7560   -2.9710   22.6340 C   0  0  0  0  0  0  0  0  0  0  0  0
   10.3190    0.8610   23.2400 C   0  0  0  0  0  0  0  0  0  0  0  0
   11.6090    1.3500   22.9440 C   0  0  0  0  0  0  0  0  0  0  0  0
   12.5710    0.3930   22.6130 C   0  0  0  0  0  0  0  0  0  0  0  0
   11.5760    2.8040   23.0670 C   0  0  0  0  0  0  0  0  0  0  0  0
   12.5730    3.7770   22.8580 C   0  0  0  0  0  0  0  0  0  0  0  0
   12.1740    5.1480   23.3190 N   0  0  0  0  0  0  0  0  0  0  0  0
   11.0910    5.6450   22.5150 C   0  0  0  0  0  0  0  0  0  0  0  0
   11.6940    5.2650   24.6990 C   0  0  0  0  0  0  0  0  0  0  0  0
   10.2970    3.1110   23.4470 C   0  0  0  0  0  0  0  0  0  0  0  0
    9.5490    1.9720   23.5500 N   0  0  0  0  0  0  0  0  0  0  0  0
    8.1350    2.0030   23.9350 C   0  0  0  0  0  0  0  0  0  0  0  0
    7.3310    2.3480   22.8460 C   0  0  0  0  0  0  0  0  0  0  0  0
    5.9910    2.5830   23.1610 C   0  0  0  0  0  0  0  0  0  0  0  0
    5.6900    3.4270   24.2350 C   0  0  0  0  0  0  0  0  0  0  0  0
    6.6160    3.1810   25.4230 C   0  0  0  0  0  0  0  0  0  0  0  0
    7.9540    3.0830   25.0150 C   0  0  0  0  0  0  0  0  0  0  0  0
  1  2  1  0
  2  3  1  0
  3  4  2  0
  4  5  1  0
  5  6  1  0
  6  7  1  0
  7  8  1  0
  8  9  1  0
  9 10  1  0
 10 11  1  0
  7 12  1  0
 11 12  1  0
  5 13  2  0
 13 14  1  0
  3 15  1  0
 14 15  2  0
 14 16  1  0
 16 17  1  0
 17 18  1  0
 18 19  1  0
 18 20  1  0
 16 21  2  0
 13 22  1  0
 21 22  1  0
 22 23  1  0
 23 24  1  0
 24 25  1  0
 25 26  1  0
 26 27  1  0
 23 28  1  0
 27 28  1  0
M  END
