DAR-DIA-37454fd7-1
     RDKit          3D

 34 37  0  0  0  0  0  0  0  0999 V2000
    3.3750    2.3880   19.4770 C   0  0  0  0  0  0  0  0  0  0  0  0
    4.4850    1.5000   18.9430 C   0  0  0  0  0  0  0  0  0  0  0  0
    4.9060    0.1690   19.4800 C   0  0  0  0  0  0  0  0  0  0  0  0
    6.0330   -0.2750   18.5820 C   0  0  0  0  0  0  0  0  0  0  0  0
    6.7690   -1.5560   18.7240 C   0  0  0  0  0  0  0  0  0  0  0  0
    6.7320   -1.9950   20.1250 N   0  0  0  0  0  0  0  0  0  0  0  0
    7.7110   -1.5520   20.9870 C   0  0  0  0  0  0  0  0  0  0  0  0
    7.5400   -0.2240   21.3600 C   0  0  0  0  0  0  0  0  0  0  0  0
    8.3540    0.2350   22.3820 C   0  0  0  0  0  0  0  0  0  0  0  0
    7.9980    1.5370   22.9390 N   0  0  0  0  0  0  0  0  0  0  0  0
    8.3710    2.6050   22.0130 C   0  0  0  0  0  0  0  0  0  0  0  0
    8.6960    1.6720   24.2240 C   0  0  0  0  0  0  0  0  0  0  0  0
    9.9320    0.9090   24.4780 N   0  0  0  0  0  0  0  0  0  0  0  0
    9.7440   -0.4470   25.0130 C   0  0  0  0  0  0  0  0  0  0  0  0
   10.2860   -1.5070   24.0430 C   0  0  0  0  0  0  0  0  0  0  0  0
   11.7740   -1.3080   23.8510 C   0  0  0  0  0  0  0  0  0  0  0  0
   12.0180    0.1310   23.4500 C   0  0  0  0  0  0  0  0  0  0  0  0
   13.3030    0.3420   22.6850 C   0  0  0  0  0  0  0  0  0  0  0  0
   13.5610    1.7720   22.2770 C   0  0  0  0  0  0  0  0  0  0  0  0
   12.5990    2.7200   22.6430 C   0  0  0  0  0  0  0  0  0  0  0  0
   12.8610    4.4030   22.1750 S   0  0  0  0  0  0  0  0  0  0  0  0
   11.6020    5.2230   22.9440 N   0  0  0  0  0  0  0  0  0  0  0  0
   12.5560    4.4690   20.7840 O   0  0  0  0  0  0  0  0  0  0  0  0
   14.0970    4.8870   22.7290 O   0  0  0  0  0  0  0  0  0  0  0  0
   11.4330    2.4350   23.3530 C   0  0  0  0  0  0  0  0  0  0  0  0
   11.1120    1.1650   23.7700 C   0  0  0  0  0  0  0  0  0  0  0  0
    6.0170   -3.1130   20.5570 C   0  0  0  0  0  0  0  0  0  0  0  0
    5.4610   -3.9180   19.7920 O   0  0  0  0  0  0  0  0  0  0  0  0
    5.9850   -3.2940   21.9260 N   0  0  0  0  0  0  0  0  0  0  0  0
    5.5370   -4.5180   22.5270 C   0  0  0  0  0  0  0  0  0  0  0  0
    6.5480   -5.5360   23.0450 C   0  0  0  0  0  0  0  0  0  0  0  0
    5.7140   -5.8460   21.8370 C   0  0  0  0  0  0  0  0  0  0  0  0
    6.2230    0.6880   17.6510 N   0  0  0  0  0  0  0  0  0  0  0  0
    5.3000    1.7520   17.8650 O   0  0  0  0  0  0  0  0  0  0  0  0
  1  2  1  0
  2  3  2  0
  3  4  1  0
  4  5  1  0
  5  6  1  0
  6  7  1  0
  7  8  1  0
  8  9  1  0
  9 10  1  0
 10 11  1  0
 10 12  1  0
 12 13  1  0
 13 14  1  0
 14 15  1  0
 15 16  1  0
 16 17  1  0
 17 18  2  0
 18 19  1  0
 19 20  2  0
 20 21  1  0
 21 22  1  0
 21 23  2  0
 21 24  2  0
 20 25  1  0
 13 26  1  0
 17 26  1  0
 25 26  2  0
  6 27  1  0
 27 28  2  0
 27 29  1  0
 29 30  1  0
 30 31  1  0
 30 32  1  0
 31 32  1  0
  4 33  2  0
  2 34  1  0
 33 34  1  0
M  END
