DAR-DIA-842b4336-21
     RDKit          3D

 19 21  0  0  0  0  0  0  0  0999 V2000
    6.7010   -2.8620   22.4990 C   0  0  0  0  0  0  0  0  0  0  0  0
    8.0390   -3.0890   23.0910 C   0  0  0  0  0  0  0  0  0  0  0  0
    8.6880   -4.2530   23.2800 C   0  0  0  0  0  0  0  0  0  0  0  0
    9.9810   -4.0330   23.8940 N   0  0  0  0  0  0  0  0  0  0  0  0
    9.9120   -2.5870   23.9950 C   0  0  0  0  0  0  0  0  0  0  0  0
   10.8870   -1.6080   24.5460 N   0  0  0  0  0  0  0  0  0  0  0  0
   12.3580   -1.9420   24.4710 C   0  0  0  0  0  0  0  0  0  0  0  0
   13.0600   -2.4140   25.3560 O   0  0  0  0  0  0  0  0  0  0  0  0
   12.9280   -1.6140   23.0590 C   0  0  0  0  0  0  0  0  0  0  0  0
   11.6430   -1.6810   22.2300 C   0  0  0  0  0  0  0  0  0  0  0  0
   10.3490   -0.9080   21.7300 C   0  0  0  0  0  0  0  0  0  0  0  0
   10.9940    0.2400   22.5040 C   0  0  0  0  0  0  0  0  0  0  0  0
   10.7100    1.6130   22.8250 C   0  0  0  0  0  0  0  0  0  0  0  0
   11.8620    0.7000   23.1330 C   0  0  0  0  0  0  0  0  0  0  0  0
   11.8200   -0.7380   22.6110 C   0  0  0  0  0  0  0  0  0  0  0  0
   12.9060   -1.3640   22.9990 N   0  0  0  0  0  0  0  0  0  0  0  0
   12.3760   -0.2300   23.1120 C   0  0  0  0  0  0  0  0  0  0  0  0
   11.2870   -0.4920   22.4150 N   0  0  0  0  0  0  0  0  0  0  0  0
    8.7120   -2.1070   23.4920 O   0  0  0  0  0  0  0  0  0  0  0  0
  1  2  1  0
  2  3  2  0
  3  4  1  0
  4  5  2  0
  5  6  1  0
  6  7  1  0
  7  8  2  0
  7  9  1  0
  9 10  1  0
 10 11  2  0
 11 12  1  0
 12 13  2  0
 13 14  1  0
 14 15  2  0
 15 16  1  0
 12 17  1  0
 16 17  2  0
 10 18  1  0
 17 18  1  0
  2 19  1  0
  5 19  1  0
M  END
