DAR-DIA-eace69ff-6
     RDKit          3D

 30 33  0  0  0  0  0  0  0  0999 V2000
   13.2260   -2.1560   20.9550 C   0  0  0  0  0  0  0  0  0  0  0  0
   13.2230   -1.9770   22.3200 C   0  0  0  0  0  0  0  0  0  0  0  0
   12.3500   -1.0540   22.8020 C   0  0  0  0  0  0  0  0  0  0  0  0
   11.1890   -1.4910   23.4100 C   0  0  0  0  0  0  0  0  0  0  0  0
   10.2890   -0.6440   23.8800 C   0  0  0  0  0  0  0  0  0  0  0  0
    9.0930   -1.2460   24.5170 N   0  0  0  0  0  0  0  0  0  0  0  0
    7.9290   -1.6520   23.7380 C   0  0  0  0  0  0  0  0  0  0  0  0
    7.7060   -3.0360   23.7130 C   0  0  0  0  0  0  0  0  0  0  0  0
    6.8150   -3.5390   22.7660 C   0  0  0  0  0  0  0  0  0  0  0  0
    6.2000   -2.6350   21.8760 C   0  0  0  0  0  0  0  0  0  0  0  0
    6.9680   -1.4940   21.5510 C   0  0  0  0  0  0  0  0  0  0  0  0
    8.1300   -1.2340   22.2780 C   0  0  0  0  0  0  0  0  0  0  0  0
   10.5210    0.7450   23.7480 C   0  0  0  0  0  0  0  0  0  0  0  0
   11.6860    1.2400   23.1430 C   0  0  0  0  0  0  0  0  0  0  0  0
   12.6170    0.3090   22.6730 C   0  0  0  0  0  0  0  0  0  0  0  0
   11.6320    2.6780   23.1470 C   0  0  0  0  0  0  0  0  0  0  0  0
   12.5480    3.6110   22.6450 C   0  0  0  0  0  0  0  0  0  0  0  0
   12.2910    4.9850   23.1280 N   0  0  0  0  0  0  0  0  0  0  0  0
   11.0240    5.3960   22.7460 C   0  0  0  0  0  0  0  0  0  0  0  0
   13.2950    5.9120   22.5820 C   0  0  0  0  0  0  0  0  0  0  0  0
   10.4470    2.9940   23.7540 C   0  0  0  0  0  0  0  0  0  0  0  0
    9.7580    1.8580   24.1250 N   0  0  0  0  0  0  0  0  0  0  0  0
    8.4870    1.8830   24.7730 C   0  0  0  0  0  0  0  0  0  0  0  0
    7.9550    0.8200   25.0790 O   0  0  0  0  0  0  0  0  0  0  0  0
    7.7580    3.0260   25.0990 C   0  0  0  0  0  0  0  0  0  0  0  0
    6.6140    2.8900   25.8750 C   0  0  0  0  0  0  0  0  0  0  0  0
    5.8160    3.9760   26.2570 C   0  0  0  0  0  0  0  0  0  0  0  0
    6.2150    5.3880   25.8050 C   0  0  0  0  0  0  0  0  0  0  0  0
    7.3690    5.5450   25.0190 C   0  0  0  0  0  0  0  0  0  0  0  0
    8.1630    4.2900   24.6600 C   0  0  0  0  0  0  0  0  0  0  0  0
  1  2  1  0
  2  3  1  0
  3  4  2  0
  4  5  1  0
  5  6  1  0
  6  7  1  0
  7  8  1  0
  8  9  1  0
  9 10  1  0
 10 11  1  0
  7 12  1  0
 11 12  1  0
  5 13  2  0
 13 14  1  0
  3 15  1  0
 14 15  2  0
 14 16  1  0
 16 17  1  0
 17 18  1  0
 18 19  1  0
 18 20  1  0
 16 21  2  0
 13 22  1  0
 21 22  1  0
 22 23  1  0
 23 24  2  0
 23 25  1  0
 25 26  2  0
 26 27  1  0
 27 28  2  0
 28 29  1  0
 25 30  1  0
 29 30  2  0
M  END
