DAR-DIA-a80d16a0-3
     RDKit          3D

 21 23  0  0  0  0  0  0  0  0999 V2000
    6.5040   -2.8600   25.0480 C   0  0  0  0  0  0  0  0  0  0  0  0
    7.6410   -2.1120   24.7820 N   0  0  0  0  0  0  0  0  0  0  0  0
    8.3950   -2.6990   23.6780 C   0  0  0  0  0  0  0  0  0  0  0  0
    9.0110   -1.5560   22.8720 C   0  0  0  0  0  0  0  0  0  0  0  0
    9.9840   -0.7970   23.3980 N   0  0  0  0  0  0  0  0  0  0  0  0
   11.2090   -1.1790   23.1820 C   0  0  0  0  0  0  0  0  0  0  0  0
   12.4470   -0.6890   23.0290 C   0  0  0  0  0  0  0  0  0  0  0  0
   13.4630   -1.5290   22.8180 F   0  0  0  0  0  0  0  0  0  0  0  0
   12.4490    0.6890   23.1220 C   0  0  0  0  0  0  0  0  0  0  0  0
   11.1680    1.2840   22.8560 C   0  0  2  0  0  0  0  0  0  0  0  0
   11.0450    2.7100   22.7820 C   0  0  0  0  0  0  0  0  0  0  0  0
    9.7410    3.3450   23.2090 C   0  0  0  0  0  0  0  0  0  0  0  0
    8.5510    3.3470   22.4880 C   0  0  0  0  0  0  0  0  0  0  0  0
    7.4090    3.9770   23.0010 C   0  0  0  0  0  0  0  0  0  0  0  0
    7.3680    4.6410   24.2470 C   0  0  0  0  0  0  0  0  0  0  0  0
    5.9350    5.4000   24.8270 Cl  0  0  0  0  0  0  0  0  0  0  0  0
    8.5600    4.6490   24.9830 C   0  0  0  0  0  0  0  0  0  0  0  0
    9.7420    4.0570   24.5630 C   0  0  0  0  0  0  0  0  0  0  0  0
   12.3900    3.6030   22.9880 C   0  0  0  0  0  0  0  0  0  0  0  0
   11.6830    3.8090   22.0190 C   0  0  0  0  0  0  0  0  0  0  0  0
    9.8650    0.5460   23.2860 C   0  0  0  0  0  0  0  0  0  0  0  0
  1  2  1  0
  2  3  1  0
  3  4  1  0
  4  5  1  0
  5  6  1  0
  6  7  2  0
  7  8  1  0
  7  9  1  0
  9 10  1  0
 10 11  1  1
 11 12  1  0
 12 13  2  0
 13 14  1  0
 14 15  2  0
 15 16  1  0
 15 17  1  0
 12 18  1  0
 17 18  2  0
 11 19  1  0
 11 20  1  0
 19 20  1  0
  5 21  1  0
 10 21  1  0
M  END
