DAR-DIA-fc970077-2
     RDKit          3D

 19 21  0  0  0  0  0  0  0  0999 V2000
    8.9850    1.5740   21.2810 O   0  0  0  0  0  0  0  0  0  0  0  0
    8.3070    0.6500   21.7180 C   0  0  0  0  0  0  0  0  0  0  0  0
    6.9430    0.7320   21.7620 N   0  0  0  0  0  0  0  0  0  0  0  0
    6.3090   -0.4010   21.1060 C   0  0  1  0  0  0  0  0  0  0  0  0
    5.1650    0.3130   20.3890 C   0  0  0  0  0  0  0  0  0  0  0  0
    4.5050    1.0200   19.3110 C   0  0  0  0  0  0  0  0  0  0  0  0
    4.6440    1.5620   17.9620 C   0  0  0  0  0  0  0  0  0  0  0  0
    5.9590    1.2240   17.6270 C   0  0  0  0  0  0  0  0  0  0  0  0
    6.8950    0.5350   18.4170 N   0  0  0  0  0  0  0  0  0  0  0  0
    6.1810    0.3060   19.5530 C   0  0  0  0  0  0  0  0  0  0  0  0
    7.2970   -1.1030   20.3580 C   0  0  0  0  0  0  0  0  0  0  0  0
    8.3210   -1.6160   21.4090 C   0  0  0  0  0  0  0  0  0  0  0  0
    8.8700   -0.4720   22.1200 N   0  0  0  0  0  0  0  0  0  0  0  0
   10.3100   -0.4160   22.4010 C   0  0  0  0  0  0  0  0  0  0  0  0
   10.7330    0.8120   22.9250 C   0  0  0  0  0  0  0  0  0  0  0  0
   12.0790    1.0320   23.2330 C   0  0  0  0  0  0  0  0  0  0  0  0
   12.9730    0.0090   23.0150 C   0  0  0  0  0  0  0  0  0  0  0  0
   12.5980   -1.2190   22.5030 C   0  0  0  0  0  0  0  0  0  0  0  0
   11.2540   -1.4400   22.1900 C   0  0  0  0  0  0  0  0  0  0  0  0
  1  2  2  0
  2  3  1  0
  3  4  1  0
  4  5  1  6
  5  6  2  0
  6  7  1  0
  7  8  2  0
  8  9  1  0
  5 10  1  0
  9 10  2  0
  4 11  1  0
 11 12  1  0
  2 13  1  0
 12 13  1  0
 13 14  1  0
 14 15  2  0
 15 16  1  0
 16 17  2  0
 17 18  1  0
 14 19  1  0
 18 19  2  0
M  END
