DAR-DIA-fc970077-3
     RDKit          3D

 18 20  0  0  0  0  0  0  0  0999 V2000
    8.9780    1.2000   21.2160 O   0  0  0  0  0  0  0  0  0  0  0  0
    8.4640    0.1310   21.5820 C   0  0  0  0  0  0  0  0  0  0  0  0
    9.0370   -0.7470   22.5620 N   0  0  0  0  0  0  0  0  0  0  0  0
   10.4640   -0.5080   22.6250 C   0  0  0  0  0  0  0  0  0  0  0  0
   10.6880    0.8440   22.8910 C   0  0  0  0  0  0  0  0  0  0  0  0
   11.9810    1.3310   22.9940 C   0  0  0  0  0  0  0  0  0  0  0  0
   13.0570    0.3290   22.8120 C   0  0  0  0  0  0  0  0  0  0  0  0
   12.8150   -1.0080   22.5500 C   0  0  0  0  0  0  0  0  0  0  0  0
   11.4880   -1.4450   22.4500 C   0  0  0  0  0  0  0  0  0  0  0  0
    8.3510   -1.9570   22.5020 C   0  0  0  0  0  0  0  0  0  0  0  0
    7.1740   -1.7550   21.5860 C   0  0  0  0  0  0  0  0  0  0  0  0
    7.2080   -0.4540   21.1380 N   0  0  0  0  0  0  0  0  0  0  0  0
    6.4740    0.1320   20.0730 C   0  0  0  0  0  0  0  0  0  0  0  0
    5.2990    0.8350   20.3250 C   0  0  0  0  0  0  0  0  0  0  0  0
    4.6180    1.4180   19.2560 C   0  0  0  0  0  0  0  0  0  0  0  0
    5.1430    1.2710   17.9780 C   0  0  0  0  0  0  0  0  0  0  0  0
    6.2680    0.5890   17.7200 N   0  0  0  0  0  0  0  0  0  0  0  0
    6.9090    0.0320   18.7720 C   0  0  0  0  0  0  0  0  0  0  0  0
  1  2  2  0
  2  3  1  0
  3  4  1  0
  4  5  2  0
  5  6  1  0
  6  7  2  0
  7  8  1  0
  4  9  1  0
  8  9  2  0
  3 10  1  0
 10 11  2  0
  2 12  1  0
 11 12  1  0
 12 13  1  0
 13 14  2  0
 14 15  1  0
 15 16  2  0
 16 17  1  0
 13 18  1  0
 17 18  2  0
M  END
