DAR-DIA-eace69ff-34
     RDKit          3D

 18 19  0  0  0  0  0  0  0  0999 V2000
    8.8480   -3.1070   22.7940 C   0  0  0  0  0  0  0  0  0  0  0  0
    8.1090   -1.7910   23.1200 C   0  0  0  0  0  0  0  0  0  0  0  0
    8.8490   -0.9400   24.1580 C   0  0  0  0  0  0  0  0  0  0  0  0
   10.0870   -0.5040   23.6860 C   0  0  0  0  0  0  0  0  0  0  0  0
   11.0790   -1.3520   23.2220 C   0  0  0  0  0  0  0  0  0  0  0  0
   12.3030   -0.9250   22.7470 C   0  0  0  0  0  0  0  0  0  0  0  0
   13.1710   -1.8790   22.3340 C   0  0  0  0  0  0  0  0  0  0  0  0
   13.5620   -2.6420   23.4360 C   0  0  0  0  0  0  0  0  0  0  0  0
   12.6170    0.4440   22.7090 C   0  0  0  0  0  0  0  0  0  0  0  0
   11.6380    1.3150   23.1580 C   0  0  0  0  0  0  0  0  0  0  0  0
   11.6130    2.7150   23.2360 C   0  0  0  0  0  0  0  0  0  0  0  0
   12.5570    3.6750   22.8730 C   0  0  0  0  0  0  0  0  0  0  0  0
   11.9170    4.9790   23.1050 N   0  0  0  0  0  0  0  0  0  0  0  0
   12.0470    5.8560   21.9660 C   0  0  0  0  0  0  0  0  0  0  0  0
   12.2210    5.6910   24.3290 C   0  0  0  0  0  0  0  0  0  0  0  0
   10.3920    3.1160   23.7690 C   0  0  0  0  0  0  0  0  0  0  0  0
    9.6900    2.0080   24.0060 N   0  0  0  0  0  0  0  0  0  0  0  0
   10.4310    0.8350   23.6290 C   0  0  0  0  0  0  0  0  0  0  0  0
  1  2  1  0
  2  3  1  0
  3  4  1  0
  4  5  2  0
  5  6  1  0
  6  7  1  0
  7  8  1  0
  6  9  2  0
  9 10  1  0
 10 11  1  0
 11 12  1  0
 12 13  1  0
 13 14  1  0
 13 15  1  0
 11 16  2  0
 16 17  1  0
  4 18  1  0
 10 18  2  0
 17 18  1  0
M  END
