DAR-DIA-fc970077-13
     RDKit          3D

 20 22  0  0  0  0  0  0  0  0999 V2000
    8.4910    1.4380   21.0160 O   0  0  0  0  0  0  0  0  0  0  0  0
    7.7840    0.4690   21.3030 C   0  0  0  0  0  0  0  0  0  0  0  0
    8.3120   -0.8170   21.3160 C   0  0  0  0  0  0  0  0  0  0  0  0
    8.9090   -1.1260   22.6210 N   0  0  0  0  0  0  0  0  0  0  0  0
   10.2720   -0.5980   22.7160 C   0  0  0  0  0  0  0  0  0  0  0  0
   10.5610    0.8090   23.0170 C   0  0  0  0  0  0  0  0  0  0  0  0
   11.9610    1.3290   23.0990 C   0  0  0  0  0  0  0  0  0  0  0  0
   13.0080    0.4450   22.8850 C   0  0  0  0  0  0  0  0  0  0  0  0
   12.8150   -0.9100   22.5930 C   0  0  0  0  0  0  0  0  0  0  0  0
   11.5310   -1.4590   22.4980 C   0  0  0  0  0  0  0  0  0  0  0  0
    8.0460   -1.3320   23.7200 C   0  0  0  0  0  0  0  0  0  0  0  0
    6.8020   -0.3870   23.7700 C   0  0  0  0  0  0  0  0  0  0  0  0
    6.0430   -0.4120   22.6010 C   0  0  0  0  0  0  0  0  0  0  0  0
    6.4380    0.5130   21.6530 N   0  0  0  0  0  0  0  0  0  0  0  0
    5.4440    1.1600   20.8230 C   0  0  0  0  0  0  0  0  0  0  0  0
    5.7180    1.1700   19.4570 C   0  0  0  0  0  0  0  0  0  0  0  0
    4.8020    1.7810   18.5940 C   0  0  0  0  0  0  0  0  0  0  0  0
    3.6300    2.3740   19.0890 C   0  0  0  0  0  0  0  0  0  0  0  0
    3.2740    2.4140   20.3990 N   0  0  0  0  0  0  0  0  0  0  0  0
    4.2750    1.7550   21.2620 C   0  0  0  0  0  0  0  0  0  0  0  0
  1  2  2  0
  2  3  1  0
  3  4  1  0
  4  5  1  0
  5  6  2  0
  6  7  1  0
  7  8  2  0
  8  9  1  0
  5 10  1  0
  9 10  2  0
  4 11  1  0
 11 12  1  0
 12 13  1  0
  2 14  1  0
 13 14  1  0
 14 15  1  0
 15 16  2  0
 16 17  1  0
 17 18  2  0
 18 19  1  0
 15 20  1  0
 19 20  2  0
M  END
