DAR-DIA-03336633-15
     RDKit          3D

 19 20  0  0  0  0  0  0  0  0999 V2000
    4.1930    3.0640   22.9170 N   0  0  0  0  0  0  0  0  0  0  0  0
    5.1590    2.2140   22.4870 C   0  0  0  0  0  0  0  0  0  0  0  0
    4.6250    1.1840   21.5880 C   0  0  0  0  0  0  0  0  0  0  0  0
    5.1570    0.9790   20.3890 C   0  0  0  0  0  0  0  0  0  0  0  0
    4.6710    1.6600   19.1610 C   0  0  0  0  0  0  0  0  0  0  0  0
    5.2220    1.4450   17.9300 C   0  0  0  0  0  0  0  0  0  0  0  0
    6.2460    0.6140   17.6690 N   0  0  0  0  0  0  0  0  0  0  0  0
    6.7480   -0.0480   18.7380 C   0  0  0  0  0  0  0  0  0  0  0  0
    6.2260    0.0990   20.1690 C   0  0  0  0  0  0  0  0  0  0  0  0
    6.9500   -0.7530   21.2090 C   0  0  0  0  0  0  0  0  0  0  0  0
    8.3020   -0.1810   21.4740 C   0  0  0  0  0  0  0  0  0  0  0  0
    8.5760    0.9800   21.1580 O   0  0  0  0  0  0  0  0  0  0  0  0
    9.1440   -1.0790   22.0880 N   0  0  0  0  0  0  0  0  0  0  0  0
   10.4080   -0.7690   22.5520 C   0  0  0  0  0  0  0  0  0  0  0  0
   10.6760    0.4000   23.2490 C   0  0  0  0  0  0  0  0  0  0  0  0
   11.9520    0.6710   23.6890 C   0  0  0  0  0  0  0  0  0  0  0  0
   12.9550   -0.2400   23.4250 C   0  0  0  0  0  0  0  0  0  0  0  0
   12.7170   -1.4190   22.7310 C   0  0  0  0  0  0  0  0  0  0  0  0
   11.4320   -1.6830   22.2910 C   0  0  0  0  0  0  0  0  0  0  0  0
  1  2  1  0
  2  3  1  0
  3  4  1  0
  4  5  2  0
  5  6  1  0
  6  7  2  0
  7  8  1  0
  4  9  1  0
  8  9  2  0
  9 10  1  0
 10 11  1  0
 11 12  2  0
 11 13  1  0
 13 14  1  0
 14 15  2  0
 15 16  1  0
 16 17  2  0
 17 18  1  0
 14 19  1  0
 18 19  2  0
M  END
