DAR-DIA-03336633-9
     RDKit          3D

 27 29  0  0  0  0  0  0  0  0999 V2000
    8.7820    1.4990   21.1020 O   0  0  0  0  0  0  0  0  0  0  0  0
    8.5090    0.3760   21.5410 C   0  0  0  0  0  0  0  0  0  0  0  0
    9.3250   -0.2310   22.6590 C   0  0  0  0  0  0  0  0  0  0  0  0
   10.5270    0.6390   22.7670 C   0  0  0  0  0  0  0  0  0  0  0  0
   11.8160    0.1170   22.8540 C   0  0  0  0  0  0  0  0  0  0  0  0
   12.8900    0.9860   22.9270 C   0  0  0  0  0  0  0  0  0  0  0  0
   12.6820    2.3700   22.9140 C   0  0  0  0  0  0  0  0  0  0  0  0
   11.4070    2.8930   22.8340 C   0  0  0  0  0  0  0  0  0  0  0  0
   10.3290    2.0290   22.7610 C   0  0  0  0  0  0  0  0  0  0  0  0
    7.4760   -0.4000   21.0790 N   0  0  0  0  0  0  0  0  0  0  0  0
    6.6180    0.1480   20.1160 C   0  0  0  0  0  0  0  0  0  0  0  0
    6.8180   -0.0210   18.7600 C   0  0  0  0  0  0  0  0  0  0  0  0
    6.0320    0.5130   17.8050 N   0  0  0  0  0  0  0  0  0  0  0  0
    4.9910    1.2500   18.2230 C   0  0  0  0  0  0  0  0  0  0  0  0
    4.6860    1.4800   19.5520 C   0  0  0  0  0  0  0  0  0  0  0  0
    5.5140    0.9190   20.5350 C   0  0  0  0  0  0  0  0  0  0  0  0
    5.2260    1.1500   22.0060 C   0  0  0  0  0  0  0  0  0  0  0  0
    4.5740    2.5040   22.3420 C   0  0  0  0  0  0  0  0  0  0  0  0
    3.1070    2.5360   22.2760 N   0  0  0  0  0  0  0  0  0  0  0  0
    2.3370    2.4300   23.4290 C   0  0  0  0  0  0  0  0  0  0  0  0
    2.6110    1.5870   24.2840 O   0  0  0  0  0  0  0  0  0  0  0  0
    1.2730    3.3390   23.6120 N   0  0  0  0  0  0  0  0  0  0  0  0
    1.3160    4.2240   24.7520 C   0  0  0  0  0  0  0  0  0  0  0  0
    0.4330    5.4350   24.5590 C   0  0  0  0  0  0  0  0  0  0  0  0
   -1.0280    5.0370   24.5870 C   0  0  0  0  0  0  0  0  0  0  0  0
   -1.2590    3.6370   24.0150 C   0  0  0  0  0  0  0  0  0  0  0  0
   -0.1180    3.0900   23.1160 C   0  0  0  0  0  0  0  0  0  0  0  0
  1  2  2  0
  2  3  1  0
  3  4  1  0
  4  5  2  0
  5  6  1  0
  6  7  2  0
  7  8  1  0
  4  9  1  0
  8  9  2  0
  2 10  1  0
 10 11  1  0
 11 12  2  0
 12 13  1  0
 13 14  2  0
 14 15  1  0
 11 16  1  0
 15 16  2  0
 16 17  1  0
 17 18  1  0
 18 19  1  0
 19 20  1  0
 20 21  2  0
 20 22  1  0
 22 23  1  0
 23 24  1  0
 24 25  1  0
 25 26  1  0
 22 27  1  0
 26 27  1  0
M  END
