DAR-DIA-eace69ff-31
     RDKit          3D

 21 23  0  0  0  0  0  0  0  0999 V2000
   11.9750    5.9100   22.1160 C   0  0  0  0  0  0  0  0  0  0  0  0
   11.8990    5.0520   23.2140 N   0  0  0  0  0  0  0  0  0  0  0  0
   12.0710    5.8300   24.4200 C   0  0  0  0  0  0  0  0  0  0  0  0
   12.5660    3.7960   22.9160 C   0  0  0  0  0  0  0  0  0  0  0  0
   11.7350    2.7320   23.2210 C   0  0  0  0  0  0  0  0  0  0  0  0
   10.4690    3.0310   23.9270 C   0  0  0  0  0  0  0  0  0  0  0  0
    9.6840    1.8380   24.1630 N   0  0  0  0  0  0  0  0  0  0  0  0
   10.5250    0.8060   23.5590 C   0  0  0  0  0  0  0  0  0  0  0  0
   10.2090   -0.5340   23.4850 C   0  0  0  0  0  0  0  0  0  0  0  0
    9.0020   -0.7920   24.0720 N   0  0  0  0  0  0  0  0  0  0  0  0
    9.0820   -0.5530   25.4340 C   0  0  0  0  0  0  0  0  0  0  0  0
    8.1710   -1.1310   26.4890 C   0  0  0  0  0  0  0  0  0  0  0  0
    6.8060   -1.2680   26.2130 C   0  0  0  0  0  0  0  0  0  0  0  0
    6.5230   -1.5910   24.8800 C   0  0  0  0  0  0  0  0  0  0  0  0
    7.4030   -2.5220   24.3240 C   0  0  0  0  0  0  0  0  0  0  0  0
    8.5490   -2.0710   23.6680 C   0  0  0  0  0  0  0  0  0  0  0  0
   11.0210   -1.4850   22.8760 C   0  0  0  0  0  0  0  0  0  0  0  0
   12.2000   -1.0200   22.3710 C   0  0  0  0  0  0  0  0  0  0  0  0
   13.2080   -2.1340   21.6170 Cl  0  0  0  0  0  0  0  0  0  0  0  0
   12.5580    0.3350   22.4550 C   0  0  0  0  0  0  0  0  0  0  0  0
   11.7310    1.2970   23.0210 C   0  0  0  0  0  0  0  0  0  0  0  0
  1  2  1  0
  2  3  1  0
  2  4  1  0
  4  5  1  0
  5  6  2  0
  6  7  1  0
  7  8  1  0
  8  9  1  0
  9 10  1  0
 10 11  1  0
 11 12  1  0
 12 13  1  0
 13 14  1  0
 14 15  1  0
 10 16  1  0
 15 16  1  0
  9 17  2  0
 17 18  1  0
 18 19  1  0
 18 20  2  0
  5 21  1  0
  8 21  2  0
 20 21  1  0
M  END
