DAR-DIA-03336633-2
     RDKit          3D

 28 30  0  0  0  0  0  0  0  0999 V2000
    8.9430   -0.8060   20.7260 O   0  0  0  0  0  0  0  0  0  0  0  0
    8.2480   -0.6660   21.6570 C   0  0  0  0  0  0  0  0  0  0  0  0
    8.8330   -0.5610   22.9910 C   0  0  0  0  0  0  0  0  0  0  0  0
   10.1640   -0.4130   22.9620 C   0  0  0  0  0  0  0  0  0  0  0  0
   11.0530   -1.6290   22.8030 C   0  0  0  0  0  0  0  0  0  0  0  0
   12.3880   -1.5520   22.7620 N   0  0  0  0  0  0  0  0  0  0  0  0
   13.0030   -0.3300   22.8630 C   0  0  0  0  0  0  0  0  0  0  0  0
   12.2660    0.9840   23.0260 C   0  0  0  0  0  0  0  0  0  0  0  0
   10.7470    0.8550   23.0700 C   0  0  0  0  0  0  0  0  0  0  0  0
   10.0110    2.2170   23.2480 C   0  0  0  0  0  0  0  0  0  0  0  0
    9.3930    2.5470   21.9370 C   0  0  0  0  0  0  0  0  0  0  0  0
    8.4770    3.5610   22.0490 N   0  0  0  0  0  0  0  0  0  0  0  0
    7.9120    3.9330   23.3280 C   0  0  0  0  0  0  0  0  0  0  0  0
    7.4120    3.1450   24.1220 O   0  0  0  0  0  0  0  0  0  0  0  0
    8.0200    5.3820   23.5530 N   0  0  0  0  0  0  0  0  0  0  0  0
    7.2280    6.3260   22.7730 C   0  0  0  0  0  0  0  0  0  0  0  0
    7.9770    7.4430   22.4370 C   0  0  0  0  0  0  0  0  0  0  0  0
    7.9310    8.3840   23.4630 C   0  0  0  0  0  0  0  0  0  0  0  0
    6.7210    9.0810   23.4400 C   0  0  0  0  0  0  0  0  0  0  0  0
    5.6370    8.1980   23.4700 C   0  0  0  0  0  0  0  0  0  0  0  0
    5.9530    6.7020   23.5550 C   0  0  0  0  0  0  0  0  0  0  0  0
    6.8820   -0.5890   21.5280 N   0  0  0  0  0  0  0  0  0  0  0  0
    6.2720    0.0750   20.4390 C   0  0  0  0  0  0  0  0  0  0  0  0
    5.0620    0.7150   20.6930 C   0  0  0  0  0  0  0  0  0  0  0  0
    4.3770    1.4100   19.7190 C   0  0  0  0  0  0  0  0  0  0  0  0
    4.8720    1.5080   18.4270 C   0  0  0  0  0  0  0  0  0  0  0  0
    6.0580    0.8970   18.1020 C   0  0  0  0  0  0  0  0  0  0  0  0
    6.8060    0.1350   19.1480 C   0  0  0  0  0  0  0  0  0  0  0  0
  1  2  2  0
  2  3  1  0
  3  4  1  0
  4  5  2  0
  5  6  1  0
  6  7  2  0
  7  8  1  0
  4  9  1  0
  8  9  2  0
  9 10  1  0
 10 11  1  0
 11 12  1  0
 12 13  1  0
 13 14  2  0
 13 15  1  0
 15 16  1  0
 16 17  1  0
 17 18  1  0
 18 19  1  0
 19 20  1  0
 16 21  1  0
 20 21  1  0
  2 22  1  0
 22 23  1  0
 23 24  2  0
 24 25  1  0
 25 26  2  0
 26 27  1  0
 23 28  1  0
 27 28  2  0
M  END
