DAR-DIA-eace69ff-12
     RDKit          3D

 29 32  0  0  0  0  0  0  0  0999 V2000
   13.5690   -2.6000   23.4830 C   0  0  0  0  0  0  0  0  0  0  0  0
   13.2310   -1.7960   22.3910 C   0  0  0  0  0  0  0  0  0  0  0  0
   12.3520   -0.8040   22.6850 C   0  0  0  0  0  0  0  0  0  0  0  0
   11.0650   -1.2110   22.9550 C   0  0  0  0  0  0  0  0  0  0  0  0
   10.1110   -0.3650   23.2680 C   0  0  0  0  0  0  0  0  0  0  0  0
    8.7930   -0.9760   23.5100 N   0  0  0  0  0  0  0  0  0  0  0  0
    8.8640   -2.1120   24.3800 C   0  0  0  0  0  0  0  0  0  0  0  0
    8.6860   -3.3320   23.7250 C   0  0  0  0  0  0  0  0  0  0  0  0
    7.4090   -3.7110   23.3290 C   0  0  0  0  0  0  0  0  0  0  0  0
    6.4470   -2.7100   23.1430 C   0  0  0  0  0  0  0  0  0  0  0  0
    6.8410   -1.6040   22.3610 C   0  0  0  0  0  0  0  0  0  0  0  0
    8.1870   -1.2170   22.2900 C   0  0  0  0  0  0  0  0  0  0  0  0
   10.4030    1.0110   23.3370 C   0  0  0  0  0  0  0  0  0  0  0  0
   11.6970    1.5020   23.0540 C   0  0  0  0  0  0  0  0  0  0  0  0
   12.6910    0.5580   22.7270 C   0  0  0  0  0  0  0  0  0  0  0  0
   11.6540    2.9550   23.1720 C   0  0  0  0  0  0  0  0  0  0  0  0
   12.6550    3.9330   22.9500 C   0  0  0  0  0  0  0  0  0  0  0  0
   12.1870    5.3330   23.1710 N   0  0  0  0  0  0  0  0  0  0  0  0
   10.9970    5.5590   22.5530 C   0  0  0  0  0  0  0  0  0  0  0  0
   12.1370    5.8600   24.5420 C   0  0  0  0  0  0  0  0  0  0  0  0
   10.3730    3.2470   23.5480 C   0  0  0  0  0  0  0  0  0  0  0  0
    9.6010    2.1150   23.6500 N   0  0  0  0  0  0  0  0  0  0  0  0
    8.2270    2.1990   24.0070 C   0  0  0  0  0  0  0  0  0  0  0  0
    7.5700    1.3310   24.8740 C   0  0  0  0  0  0  0  0  0  0  0  0
    8.2500    0.6040   25.8190 C   0  0  0  0  0  0  0  0  0  0  0  0
    7.7060   -0.2830   26.7440 C   0  0  0  0  0  0  0  0  0  0  0  0
    6.1830   -0.4850   26.7110 C   0  0  0  0  0  0  0  0  0  0  0  0
    5.4340    0.2360   25.7550 C   0  0  0  0  0  0  0  0  0  0  0  0
    6.1810    1.1840   24.8040 C   0  0  0  0  0  0  0  0  0  0  0  0
  1  2  1  0
  2  3  1  0
  3  4  2  0
  4  5  1  0
  5  6  1  0
  6  7  1  0
  7  8  1  0
  8  9  1  0
  9 10  1  0
 10 11  1  0
  6 12  1  0
 11 12  1  0
  5 13  2  0
 13 14  1  0
  3 15  1  0
 14 15  2  0
 14 16  1  0
 16 17  1  0
 17 18  1  0
 18 19  1  0
 18 20  1  0
 16 21  2  0
 13 22  1  0
 21 22  1  0
 22 23  1  0
 23 24  1  0
 24 25  2  0
 25 26  1  0
 26 27  2  0
 27 28  1  0
 24 29  1  0
 28 29  2  0
M  END
