DAR-DIA-842b4336-22
     RDKit          3D

 19 21  0  0  0  0  0  0  0  0999 V2000
   13.5210   -3.4050   25.5110 O   0  0  0  0  0  0  0  0  0  0  0  0
   12.7940   -2.8490   24.6820 C   0  0  0  0  0  0  0  0  0  0  0  0
   13.4400   -2.0010   23.7510 C   0  0  0  0  0  0  0  0  0  0  0  0
   13.0110   -1.0930   22.7590 C   0  0  0  0  0  0  0  0  0  0  0  0
   12.0080   -0.4870   23.3800 C   0  0  0  0  0  0  0  0  0  0  0  0
   11.2040    0.6120   22.7250 C   0  0  0  0  0  0  0  0  0  0  0  0
   10.0270    1.4100   23.2890 C   0  0  0  0  0  0  0  0  0  0  0  0
    9.6790    0.9420   24.7500 C   0  0  0  0  0  0  0  0  0  0  0  0
   10.4870   -0.1870   25.4200 C   0  0  0  0  0  0  0  0  0  0  0  0
   11.4880   -0.7700   24.7900 N   0  0  0  0  0  0  0  0  0  0  0  0
   11.1630    0.0960   23.7510 C   0  0  0  0  0  0  0  0  0  0  0  0
   12.0450   -0.1020   22.5880 N   0  0  0  0  0  0  0  0  0  0  0  0
   11.4190   -3.0470   24.6500 N   0  0  0  0  0  0  0  0  0  0  0  0
   10.8420   -2.7000   23.5720 C   0  0  0  0  0  0  0  0  0  0  0  0
    9.6820   -2.4460   23.0550 N   0  0  0  0  0  0  0  0  0  0  0  0
   10.1520   -2.1030   21.7270 C   0  0  0  0  0  0  0  0  0  0  0  0
   11.5490   -2.2470   21.7540 C   0  0  0  0  0  0  0  0  0  0  0  0
   12.8840   -2.0890   20.7880 Cl  0  0  0  0  0  0  0  0  0  0  0  0
   11.8770   -2.5890   22.8110 O   0  0  0  0  0  0  0  0  0  0  0  0
  1  2  2  0
  2  3  1  0
  3  4  1  0
  4  5  2  0
  5  6  1  0
  6  7  2  0
  7  8  1  0
  8  9  2  0
  9 10  1  0
  6 11  1  0
 10 11  2  0
  4 12  1  0
 11 12  1  0
  2 13  1  0
 13 14  1  0
 14 15  2  0
 15 16  1  0
 16 17  2  0
 17 18  1  0
 14 19  1  0
 17 19  1  0
M  END
