DAR-DIA-eace69ff-10
     RDKit          3D

 30 33  0  0  0  0  0  0  0  0999 V2000
   13.2660   -2.1920   20.8230 C   0  0  0  0  0  0  0  0  0  0  0  0
   13.2170   -2.0000   22.3100 C   0  0  0  0  0  0  0  0  0  0  0  0
   12.2910   -0.8890   22.6350 C   0  0  0  0  0  0  0  0  0  0  0  0
   11.0540   -1.3750   22.9630 C   0  0  0  0  0  0  0  0  0  0  0  0
    9.9610   -0.6300   23.3280 C   0  0  0  0  0  0  0  0  0  0  0  0
    8.7850   -1.3100   23.6340 C   0  0  0  0  0  0  0  0  0  0  0  0
    8.8850   -2.2760   24.6400 C   0  0  0  0  0  0  0  0  0  0  0  0
    8.9130   -3.5920   24.1710 C   0  0  0  0  0  0  0  0  0  0  0  0
    7.5740   -4.1710   23.7640 C   0  0  0  0  0  0  0  0  0  0  0  0
    6.6130   -3.1590   23.7460 C   0  0  0  0  0  0  0  0  0  0  0  0
    6.7590   -2.3560   22.6120 C   0  0  0  0  0  0  0  0  0  0  0  0
    8.0750   -1.9250   22.3910 C   0  0  0  0  0  0  0  0  0  0  0  0
   10.2190    0.7990   23.3310 C   0  0  0  0  0  0  0  0  0  0  0  0
   11.4930    1.2690   22.9720 C   0  0  0  0  0  0  0  0  0  0  0  0
   12.5600    0.4620   22.6280 C   0  0  0  0  0  0  0  0  0  0  0  0
   11.5650    2.7530   22.9990 C   0  0  0  0  0  0  0  0  0  0  0  0
   12.6470    3.7310   22.6690 C   0  0  0  0  0  0  0  0  0  0  0  0
   12.3220    5.0730   23.1910 N   0  0  0  0  0  0  0  0  0  0  0  0
   10.9950    5.4750   22.7470 C   0  0  0  0  0  0  0  0  0  0  0  0
   13.2470    6.0180   22.5760 C   0  0  0  0  0  0  0  0  0  0  0  0
   10.3110    3.0390   23.4140 C   0  0  0  0  0  0  0  0  0  0  0  0
    9.5040    1.9240   23.6160 N   0  0  0  0  0  0  0  0  0  0  0  0
    8.1730    2.1300   24.0550 C   0  0  0  0  0  0  0  0  0  0  0  0
    7.2070    1.9090   23.3280 O   0  0  0  0  0  0  0  0  0  0  0  0
    7.8870    2.6240   25.3300 C   0  0  0  0  0  0  0  0  0  0  0  0
    6.7780    2.0350   26.2040 C   0  0  0  0  0  0  0  0  0  0  0  0
    6.5270    2.5540   27.4650 C   0  0  0  0  0  0  0  0  0  0  0  0
    7.2980    3.6230   27.9280 C   0  0  0  0  0  0  0  0  0  0  0  0
    8.3240    4.1830   27.1440 C   0  0  0  0  0  0  0  0  0  0  0  0
    8.6120    3.6900   25.8660 C   0  0  0  0  0  0  0  0  0  0  0  0
  1  2  1  0
  2  3  1  0
  3  4  2  0
  4  5  1  0
  5  6  1  0
  6  7  1  0
  7  8  1  0
  8  9  1  0
  9 10  1  0
 10 11  1  0
  6 12  1  0
 11 12  1  0
  5 13  2  0
 13 14  1  0
  3 15  1  0
 14 15  2  0
 14 16  1  0
 16 17  1  0
 17 18  1  0
 18 19  1  0
 18 20  1  0
 16 21  2  0
 13 22  1  0
 21 22  1  0
 22 23  1  0
 23 24  2  0
 23 25  1  0
 25 26  2  0
 26 27  1  0
 27 28  2  0
 28 29  1  0
 25 30  1  0
 29 30  2  0
M  END
