DAR-DIA-842b4336-7
     RDKit          3D

 16 17  0  0  0  0  0  0  0  0999 V2000
   13.3130   -2.5230   24.3110 C   0  0  0  0  0  0  0  0  0  0  0  0
   12.3560   -1.5390   23.7440 C   0  0  0  0  0  0  0  0  0  0  0  0
   12.5540   -0.4450   22.9870 C   0  0  0  0  0  0  0  0  0  0  0  0
   11.5460    0.1910   22.6720 O   0  0  0  0  0  0  0  0  0  0  0  0
   10.5800   -0.5710   23.2890 C   0  0  0  0  0  0  0  0  0  0  0  0
    9.2070   -0.0860   23.1500 N   0  0  0  0  0  0  0  0  0  0  0  0
    8.7140    0.4340   21.8500 C   0  0  0  0  0  0  0  0  0  0  0  0
    9.2080    1.4700   21.3980 O   0  0  0  0  0  0  0  0  0  0  0  0
    7.7060   -0.2650   21.2350 N   0  0  0  0  0  0  0  0  0  0  0  0
    6.8550    0.2100   20.2160 C   0  0  0  0  0  0  0  0  0  0  0  0
    5.7990    1.0380   20.6050 C   0  0  0  0  0  0  0  0  0  0  0  0
    4.8840    1.5650   19.5100 C   0  0  0  0  0  0  0  0  0  0  0  0
    5.2190    1.1340   18.1070 C   0  0  0  0  0  0  0  0  0  0  0  0
    6.2530    0.3310   17.8290 N   0  0  0  0  0  0  0  0  0  0  0  0
    7.0230   -0.1040   18.8490 C   0  0  0  0  0  0  0  0  0  0  0  0
   11.0050   -1.6310   23.9430 N   0  0  0  0  0  0  0  0  0  0  0  0
  1  2  1  0
  2  3  2  0
  3  4  1  0
  4  5  1  0
  5  6  1  0
  6  7  1  0
  7  8  2  0
  7  9  1  0
  9 10  1  0
 10 11  2  0
 11 12  1  0
 12 13  2  0
 13 14  1  0
 10 15  1  0
 14 15  2  0
  2 16  1  0
  5 16  2  0
M  END
