DAR-DIA-23aa0b97-14
     RDKit          3D

 17 18  0  0  0  0  0  0  0  0999 V2000
    8.8570    1.4030   21.2420 O   0  0  0  0  0  0  0  0  0  0  0  0
    8.4480    0.2960   21.6290 C   0  0  0  0  0  0  0  0  0  0  0  0
    7.3630   -0.3840   21.1320 N   0  0  0  0  0  0  0  0  0  0  0  0
    6.6010    0.1210   20.0830 C   0  0  0  0  0  0  0  0  0  0  0  0
    5.4160    0.8910   20.4300 C   0  0  0  0  0  0  0  0  0  0  0  0
    4.6650    1.4140   19.3940 C   0  0  0  0  0  0  0  0  0  0  0  0
    5.0980    1.1640   18.1070 C   0  0  0  0  0  0  0  0  0  0  0  0
    6.1920    0.4430   17.7150 N   0  0  0  0  0  0  0  0  0  0  0  0
    6.9280   -0.0720   18.7390 C   0  0  0  0  0  0  0  0  0  0  0  0
    9.0300   -0.4530   22.6230 N   0  0  0  0  0  0  0  0  0  0  0  0
   10.3490   -0.2830   22.9960 C   0  0  0  0  0  0  0  0  0  0  0  0
   10.9350    1.1760   22.9440 C   0  0  0  0  0  0  0  0  0  0  0  0
   12.3900    1.2790   23.3440 C   0  0  0  0  0  0  0  0  0  0  0  0
   12.7120   -0.0720   23.6540 C   0  0  0  0  0  0  0  0  0  0  0  0
   12.3800   -1.4070   23.7730 C   0  0  0  0  0  0  0  0  0  0  0  0
   13.2800   -2.7520   24.2650 Cl  0  0  0  0  0  0  0  0  0  0  0  0
   11.0450   -1.4890   23.3890 C   0  0  0  0  0  0  0  0  0  0  0  0
  1  2  2  0
  2  3  1  0
  3  4  1  0
  4  5  2  0
  5  6  1  0
  6  7  2  0
  7  8  1  0
  4  9  1  0
  8  9  2  0
  2 10  1  0
 10 11  1  0
 11 12  2  0
 12 13  1  0
 13 14  2  0
 14 15  1  0
 15 16  1  0
 11 17  1  0
 15 17  2  0
M  END
