DAR-DIA-a80d16a0-9
     RDKit          3D

 20 22  0  0  0  0  0  0  0  0999 V2000
    6.6300   -2.1310   25.4380 C   0  0  0  0  0  0  0  0  0  0  0  0
    7.8720   -1.6280   24.8860 N   0  0  0  0  0  0  0  0  0  0  0  0
    8.3390   -2.4280   23.7420 C   0  0  0  0  0  0  0  0  0  0  0  0
    9.0580   -1.7010   22.7930 C   0  0  0  0  0  0  0  0  0  0  0  0
   10.2940   -1.1350   23.3330 N   0  0  0  0  0  0  0  0  0  0  0  0
   11.5350   -1.3620   22.7740 C   0  0  0  0  0  0  0  0  0  0  0  0
   12.4410   -0.3830   22.6560 C   0  0  0  0  0  0  0  0  0  0  0  0
   13.6270   -0.6580   22.1100 F   0  0  0  0  0  0  0  0  0  0  0  0
   12.1050    0.9770   23.1200 C   0  0  0  0  0  0  0  0  0  0  0  0
   10.7200    1.2050   23.1460 C   0  0  2  0  0  0  0  0  0  0  0  0
   10.0270    2.4150   23.3420 C   0  0  0  0  0  0  0  0  0  0  0  0
   10.6060    3.6770   23.4180 C   0  0  0  0  0  0  0  0  0  0  0  0
    9.8620    4.6000   23.9870 N   0  0  0  0  0  0  0  0  0  0  0  0
   10.5320    5.7790   24.0010 C   0  0  0  0  0  0  0  0  0  0  0  0
   11.7800    5.7200   23.4350 C   0  0  0  0  0  0  0  0  0  0  0  0
   12.5670    6.8410   23.3890 C   0  0  0  0  0  0  0  0  0  0  0  0
   12.1600    4.1500   22.8520 S   0  0  0  0  0  0  0  0  0  0  0  0
    8.6110    2.4350   22.8000 C   0  0  0  0  0  0  0  0  0  0  0  0
    8.7770    2.3400   24.2030 C   0  0  0  0  0  0  0  0  0  0  0  0
   10.1420    0.1220   24.0570 C   0  0  0  0  0  0  0  0  0  0  0  0
  1  2  1  0
  2  3  1  0
  3  4  1  0
  4  5  1  0
  5  6  1  0
  6  7  2  0
  7  8  1  0
  7  9  1  0
  9 10  1  0
 10 11  1  1
 11 12  1  0
 12 13  2  0
 13 14  1  0
 14 15  2  0
 15 16  1  0
 12 17  1  0
 15 17  1  0
 11 18  1  0
 11 19  1  0
 18 19  1  0
  5 20  1  0
 10 20  1  0
M  END
