DAR-DIA-842b4336-17
     RDKit          3D

 19 21  0  0  0  0  0  0  0  0999 V2000
    8.4630    1.3360   20.9910 O   0  0  0  0  0  0  0  0  0  0  0  0
    8.3460    0.2510   21.5870 C   0  0  0  0  0  0  0  0  0  0  0  0
    7.3270   -0.7230   21.1690 C   0  0  0  0  0  0  0  0  0  0  0  0
    6.9050   -1.6910   22.0850 C   0  0  0  0  0  0  0  0  0  0  0  0
    7.4410   -2.9280   22.3770 C   0  0  0  0  0  0  0  0  0  0  0  0
    6.6850   -3.5620   23.3500 C   0  0  0  0  0  0  0  0  0  0  0  0
    6.8120   -4.8920   24.0040 C   0  0  0  0  0  0  0  0  0  0  0  0
    5.7390   -5.2220   25.0660 C   0  0  0  0  0  0  0  0  0  0  0  0
    4.6550   -4.1810   25.3540 C   0  0  0  0  0  0  0  0  0  0  0  0
    4.6360   -2.8840   24.6280 N   0  0  0  0  0  0  0  0  0  0  0  0
    5.6490   -2.7090   23.7000 C   0  0  0  0  0  0  0  0  0  0  0  0
    5.7290   -1.5240   22.9460 N   0  0  0  0  0  0  0  0  0  0  0  0
    9.1400   -0.1620   22.6800 N   0  0  0  0  0  0  0  0  0  0  0  0
   10.3600    0.3570   22.8450 C   0  0  0  0  0  0  0  0  0  0  0  0
   11.4870   -0.2630   23.1420 C   0  0  0  0  0  0  0  0  0  0  0  0
   12.5570    0.5670   23.2200 C   0  0  0  0  0  0  0  0  0  0  0  0
   12.5720    1.9770   23.0170 C   0  0  0  0  0  0  0  0  0  0  0  0
   12.2610    3.6450   22.7180 Cl  0  0  0  0  0  0  0  0  0  0  0  0
   10.8430    2.0330   22.7080 S   0  0  0  0  0  0  0  0  0  0  0  0
  1  2  2  0
  2  3  1  0
  3  4  1  0
  4  5  2  0
  5  6  1  0
  6  7  2  0
  7  8  1  0
  8  9  2  0
  9 10  1  0
  6 11  1  0
 10 11  2  0
  4 12  1  0
 11 12  1  0
  2 13  1  0
 13 14  1  0
 14 15  2  0
 15 16  1  0
 16 17  2  0
 17 18  1  0
 14 19  1  0
 17 19  1  0
M  END
