DAR-DIA-fc970077-4
     RDKit          3D

 19 21  0  0  0  0  0  0  0  0999 V2000
    8.2530    0.2190   21.2000 O   0  0  0  0  0  0  0  0  0  0  0  0
    8.2500   -0.8770   21.7710 C   0  0  0  0  0  0  0  0  0  0  0  0
    6.9390   -1.6930   21.9270 C   0  0  0  0  0  0  0  0  0  0  0  0
    6.7710   -2.4510   23.1080 C   0  0  1  0  0  0  0  0  0  0  0  0
    5.8210   -3.4910   23.0290 C   0  0  0  0  0  0  0  0  0  0  0  0
    6.1210   -4.7040   22.3840 C   0  0  0  0  0  0  0  0  0  0  0  0
    5.0880   -5.7920   22.3360 C   0  0  0  0  0  0  0  0  0  0  0  0
    3.7810   -5.4480   23.0180 C   0  0  0  0  0  0  0  0  0  0  0  0
    3.5570   -4.2650   23.6190 N   0  0  0  0  0  0  0  0  0  0  0  0
    4.5520   -3.3380   23.6090 C   0  0  0  0  0  0  0  0  0  0  0  0
    8.0570   -3.2300   23.4070 C   0  0  0  0  0  0  0  0  0  0  0  0
    9.2690   -2.3350   23.3120 C   0  0  0  0  0  0  0  0  0  0  0  0
    9.3900   -1.4830   22.3160 N   0  0  0  0  0  0  0  0  0  0  0  0
   10.4820   -0.7600   22.6530 C   0  0  0  0  0  0  0  0  0  0  0  0
   10.5700    0.4150   23.3700 C   0  0  0  0  0  0  0  0  0  0  0  0
   11.8310    0.9520   23.5590 C   0  0  0  0  0  0  0  0  0  0  0  0
   12.9970    0.3240   23.0410 C   0  0  0  0  0  0  0  0  0  0  0  0
   12.8900   -0.8420   22.3450 C   0  0  0  0  0  0  0  0  0  0  0  0
   11.6180   -1.3690   22.1590 C   0  0  0  0  0  0  0  0  0  0  0  0
  1  2  2  0
  2  3  1  0
  3  4  1  0
  4  5  1  6
  5  6  2  0
  6  7  1  0
  7  8  2  0
  8  9  1  0
  5 10  1  0
  9 10  2  0
  4 11  1  0
 11 12  1  0
  2 13  1  0
 12 13  1  0
 13 14  1  0
 14 15  2  0
 15 16  1  0
 16 17  2  0
 17 18  1  0
 14 19  1  0
 18 19  2  0
M  END
