DAR-DIA-03336633-13
     RDKit          3D

 29 32  0  0  0  0  0  0  0  0999 V2000
    9.2930    1.5090   21.4670 O   0  0  0  0  0  0  0  0  0  0  0  0
    9.1450    0.3140   21.7620 C   0  0  0  0  0  0  0  0  0  0  0  0
   10.0160   -0.3680   22.8110 C   0  0  0  0  0  0  0  0  0  0  0  0
    9.7540   -1.6410   23.1840 C   0  0  0  0  0  0  0  0  0  0  0  0
   11.3280   -1.8750   23.4320 C   0  0  0  0  0  0  0  0  0  0  0  0
   12.3090   -0.6450   23.1960 C   0  0  0  0  0  0  0  0  0  0  0  0
   11.3180    0.3920   22.7890 C   0  0  0  0  0  0  0  0  0  0  0  0
   10.1710   -0.5760   22.9270 C   0  0  0  0  0  0  0  0  0  0  0  0
    8.6940   -0.5840   22.7560 C   0  0  0  0  0  0  0  0  0  0  0  0
    8.1410   -0.5800   21.1520 N   0  0  0  0  0  0  0  0  0  0  0  0
    7.2050   -0.2040   20.1580 C   0  0  0  0  0  0  0  0  0  0  0  0
    7.2840   -0.5100   18.6880 C   0  0  0  0  0  0  0  0  0  0  0  0
    6.2620   -0.0030   17.9790 N   0  0  0  0  0  0  0  0  0  0  0  0
    5.4480    0.6430   18.8870 C   0  0  0  0  0  0  0  0  0  0  0  0
    4.2780    1.3870   19.0520 N   0  0  0  0  0  0  0  0  0  0  0  0
    3.7730    1.9300   20.5020 C   0  0  0  0  0  0  0  0  0  0  0  0
    4.5090    1.6770   21.7600 C   0  0  0  0  0  0  0  0  0  0  0  0
    4.8790    1.2720   20.6710 C   0  0  0  0  0  0  0  0  0  0  0  0
    3.9040    1.6840   19.7050 N   0  0  0  0  0  0  0  0  0  0  0  0
    2.4200    1.9850   19.9920 C   0  0  0  0  0  0  0  0  0  0  0  0
    1.6100    1.2340   20.5650 O   0  0  0  0  0  0  0  0  0  0  0  0
    1.9420    3.2090   19.5930 N   0  0  0  0  0  0  0  0  0  0  0  0
    0.6000    3.7840   19.7000 C   0  0  0  0  0  0  0  0  0  0  0  0
    0.4340    4.8250   18.6080 C   0  0  0  0  0  0  0  0  0  0  0  0
   -0.8410    5.6410   18.8990 C   0  0  0  0  0  0  0  0  0  0  0  0
   -0.8320    6.2000   20.3500 C   0  0  0  0  0  0  0  0  0  0  0  0
    0.2570    5.6450   21.2920 C   0  0  0  0  0  0  0  0  0  0  0  0
    0.3390    4.1350   21.0250 C   0  0  0  0  0  0  0  0  0  0  0  0
    6.0340    0.5000   20.1880 C   0  0  0  0  0  0  0  0  0  0  0  0
  1  2  2  0
  2  3  1  0
  3  4  1  0
  4  5  2  0
  5  6  1  0
  6  7  2  0
  7  8  1  0
  4  9  1  0
  8  9  2  0
  2 10  1  0
 10 11  1  0
 11 12  2  0
 12 13  1  0
 13 14  1  0
 14 15  1  0
 15 16  2  0
 16 17  1  0
 17 18  2  0
 18 19  1  0
 19 20  1  0
 20 21  2  0
 20 22  1  0
 22 23  1  0
 23 24  1  0
 24 25  1  0
 25 26  1  0
 26 27  1  0
 23 28  1  0
 27 28  1  0
 11 29  1  0
 14 29  2  0
 18 29  1  0
M  END
