DAR-DIA-eace69ff-17
     RDKit          3D

 25 27  0  0  0  0  0  0  0  0999 V2000
   13.2300   -2.1770   20.9380 C   0  0  0  0  0  0  0  0  0  0  0  0
   13.1960   -2.1400   22.4690 C   0  0  0  0  0  0  0  0  0  0  0  0
   12.3480   -0.9910   22.9110 C   0  0  0  0  0  0  0  0  0  0  0  0
   11.1840   -1.3490   23.5080 C   0  0  0  0  0  0  0  0  0  0  0  0
   10.2800   -0.4370   23.9650 C   0  0  0  0  0  0  0  0  0  0  0  0
    9.1320   -1.1120   24.5750 N   0  0  0  0  0  0  0  0  0  0  0  0
    8.0140   -1.5720   23.8550 C   0  0  0  0  0  0  0  0  0  0  0  0
    8.1310   -1.5650   22.4710 C   0  0  0  0  0  0  0  0  0  0  0  0
    6.9360   -1.9530   21.8280 C   0  0  0  0  0  0  0  0  0  0  0  0
    6.3910   -3.2930   22.2970 C   0  0  0  0  0  0  0  0  0  0  0  0
    6.3440   -3.3020   23.6890 C   0  0  0  0  0  0  0  0  0  0  0  0
    7.4850   -2.7880   24.3040 C   0  0  0  0  0  0  0  0  0  0  0  0
   10.4400    0.9690   23.8620 C   0  0  0  0  0  0  0  0  0  0  0  0
   11.6640    1.4050   23.2370 C   0  0  0  0  0  0  0  0  0  0  0  0
   12.6300    0.5000   22.7670 C   0  0  0  0  0  0  0  0  0  0  0  0
   11.6240    2.8620   23.2240 C   0  0  0  0  0  0  0  0  0  0  0  0
   12.5360    3.8100   22.7290 C   0  0  0  0  0  0  0  0  0  0  0  0
   12.0870    5.2020   22.9740 N   0  0  0  0  0  0  0  0  0  0  0  0
   10.8430    5.5570   22.6480 C   0  0  0  0  0  0  0  0  0  0  0  0
   12.3200    5.6930   24.3140 C   0  0  0  0  0  0  0  0  0  0  0  0
   10.4380    3.1470   23.8220 C   0  0  0  0  0  0  0  0  0  0  0  0
    9.6800    2.0950   24.2260 N   0  0  0  0  0  0  0  0  0  0  0  0
    8.3690    2.2250   24.8780 C   0  0  0  0  0  0  0  0  0  0  0  0
    7.8810    3.5270   24.9840 C   0  0  0  0  0  0  0  0  0  0  0  0
    7.7410    1.2590   25.2920 O   0  0  0  0  0  0  0  0  0  0  0  0
  1  2  1  0
  2  3  1  0
  3  4  2  0
  4  5  1  0
  5  6  1  0
  6  7  1  0
  7  8  1  0
  8  9  1  0
  9 10  1  0
 10 11  1  0
  7 12  1  0
 11 12  1  0
  5 13  2  0
 13 14  1  0
  3 15  1  0
 14 15  2  0
 14 16  1  0
 16 17  1  0
 17 18  1  0
 18 19  1  0
 18 20  1  0
 16 21  2  0
 13 22  1  0
 21 22  1  0
 22 23  1  0
 23 24  1  0
 23 25  2  0
M  END
