DAR-DIA-43a5904b-11
     RDKit          3D

 22 24  0  0  0  0  0  0  0  0999 V2000
    2.7190    2.2320   19.7270 C   0  0  0  0  0  0  0  0  0  0  0  0
    3.7340    1.3020   19.8670 N   0  0  0  0  0  0  0  0  0  0  0  0
    4.1200    0.8920   21.1780 C   0  0  0  0  0  0  0  0  0  0  0  0
    5.2230   -0.1020   20.9820 C   0  0  0  0  0  0  0  0  0  0  0  0
    5.8400   -0.7200   22.0780 C   0  0  0  0  0  0  0  0  0  0  0  0
    7.0470   -0.2380   22.6200 C   0  0  0  0  0  0  0  0  0  0  0  0
    8.2160   -0.9150   22.5430 C   0  0  0  0  0  0  0  0  0  0  0  0
    9.2900   -0.3520   23.1650 C   0  0  1  0  0  0  0  0  0  0  0  0
   10.5970   -0.6110   22.7750 C   0  0  0  0  0  0  0  0  0  0  0  0
   11.7460    0.4110   23.0270 C   0  0  0  0  0  0  0  0  0  0  0  0
   13.0820    0.1170   22.6350 C   0  0  0  0  0  0  0  0  0  0  0  0
   13.3240   -1.1100   22.0060 C   0  0  0  0  0  0  0  0  0  0  0  0
   12.2120   -1.8170   21.8910 C   0  0  0  0  0  0  0  0  0  0  0  0
   11.8600   -0.3520   22.6960 Cl  0  0  0  0  0  0  0  0  0  0  0  0
   10.9080   -1.8160   22.1500 C   0  0  0  0  0  0  0  0  0  0  0  0
    8.7390    1.1260   23.2430 C   0  0  1  0  0  0  0  0  0  0  0  0
    9.0680    1.9570   22.1510 C   0  0  0  0  0  0  0  0  0  0  0  0
    9.7870    3.0910   22.3000 N   0  0  0  0  0  0  0  0  0  0  0  0
    8.7120    1.6950   21.0120 O   0  0  0  0  0  0  0  0  0  0  0  0
    7.2230    0.9770   23.3150 C   0  0  0  0  0  0  0  0  0  0  0  0
    5.3190   -0.1250   19.5570 C   0  0  0  0  0  0  0  0  0  0  0  0
    4.4600    0.6860   18.8920 N   0  0  0  0  0  0  0  0  0  0  0  0
  1  2  1  0
  2  3  1  0
  3  4  2  0
  4  5  1  0
  5  6  1  0
  6  7  2  0
  7  8  1  0
  8  9  1  6
  9 10  2  0
 10 11  1  0
 11 12  2  0
 12 13  1  0
 13 14  1  0
  9 15  1  0
 13 15  2  0
  8 16  1  0
 16 17  1  6
 17 18  1  0
 17 19  2  0
  6 20  1  0
 16 20  1  0
  4 21  1  0
  2 22  1  0
 21 22  2  0
M  END
