DAR-DIA-eace69ff-33
     RDKit          3D

 19 21  0  0  0  0  0  0  0  0999 V2000
   11.4430    5.6830   22.2740 C   0  0  0  0  0  0  0  0  0  0  0  0
   12.2920    5.3080   23.2180 N   0  0  0  0  0  0  0  0  0  0  0  0
   11.8250    5.6880   24.4320 C   0  0  0  0  0  0  0  0  0  0  0  0
   12.7320    3.9180   22.9750 C   0  0  0  0  0  0  0  0  0  0  0  0
   11.7540    2.7760   23.2230 C   0  0  0  0  0  0  0  0  0  0  0  0
   10.3810    2.9620   23.7660 C   0  0  0  0  0  0  0  0  0  0  0  0
    9.7300    1.7970   23.8360 N   0  0  0  0  0  0  0  0  0  0  0  0
   10.5840    0.8430   23.3730 C   0  0  0  0  0  0  0  0  0  0  0  0
   10.3420   -0.4930   23.2260 C   0  0  0  0  0  0  0  0  0  0  0  0
    9.1250   -1.1110   23.5240 C   0  0  0  0  0  0  0  0  0  0  0  0
    7.9950   -0.5830   22.9190 C   0  0  0  0  0  0  0  0  0  0  0  0
    6.8540   -1.4360   23.4140 C   0  0  0  0  0  0  0  0  0  0  0  0
    7.4420   -2.3540   24.2390 C   0  0  0  0  0  0  0  0  0  0  0  0
    8.8660   -2.2350   24.3760 C   0  0  0  0  0  0  0  0  0  0  0  0
   11.3110   -1.3830   22.7270 C   0  0  0  0  0  0  0  0  0  0  0  0
   12.5730   -0.8580   22.4000 C   0  0  0  0  0  0  0  0  0  0  0  0
   13.5310   -1.6540   21.9320 F   0  0  0  0  0  0  0  0  0  0  0  0
   12.8390    0.5380   22.5570 C   0  0  0  0  0  0  0  0  0  0  0  0
   11.8150    1.3770   23.0250 C   0  0  0  0  0  0  0  0  0  0  0  0
  1  2  1  0
  2  3  1  0
  2  4  1  0
  4  5  1  0
  5  6  2  0
  6  7  1  0
  7  8  1  0
  8  9  1  0
  9 10  1  0
 10 11  2  0
 11 12  1  0
 12 13  2  0
 10 14  1  0
 13 14  1  0
  9 15  2  0
 15 16  1  0
 16 17  1  0
 16 18  2  0
  5 19  1  0
  8 19  2  0
 18 19  1  0
M  END
