DAR-DIA-eace69ff-30
     RDKit          3D

 21 23  0  0  0  0  0  0  0  0999 V2000
   11.7270    4.0420   21.4450 C   0  0  0  0  0  0  0  0  0  0  0  0
   12.9410    4.3810   21.9610 N   0  0  0  0  0  0  0  0  0  0  0  0
   13.5710    5.5440   21.7310 C   0  0  0  0  0  0  0  0  0  0  0  0
   12.7510    3.9980   23.1920 C   0  0  0  0  0  0  0  0  0  0  0  0
   11.8440    2.7130   23.3940 C   0  0  0  0  0  0  0  0  0  0  0  0
   10.5940    2.8710   23.9240 C   0  0  0  0  0  0  0  0  0  0  0  0
    9.8940    1.6350   24.0560 N   0  0  0  0  0  0  0  0  0  0  0  0
   10.7230    0.6620   23.5850 C   0  0  0  0  0  0  0  0  0  0  0  0
   10.4520   -0.7270   23.5060 C   0  0  0  0  0  0  0  0  0  0  0  0
    9.2310   -1.2020   23.9440 N   0  0  0  0  0  0  0  0  0  0  0  0
    8.7140   -2.1010   23.0490 C   0  0  0  0  0  0  0  0  0  0  0  0
    7.5850   -3.0310   23.4720 C   0  0  0  0  0  0  0  0  0  0  0  0
    6.2990   -2.2310   23.4620 C   0  0  0  0  0  0  0  0  0  0  0  0
    6.1450   -1.1950   24.3920 C   0  0  0  0  0  0  0  0  0  0  0  0
    7.2350   -0.8590   25.1990 C   0  0  0  0  0  0  0  0  0  0  0  0
    8.3670   -0.2600   24.6300 C   0  0  0  0  0  0  0  0  0  0  0  0
   11.4300   -1.5750   22.9810 C   0  0  0  0  0  0  0  0  0  0  0  0
   12.7140   -0.9860   22.5330 C   0  0  0  0  0  0  0  0  0  0  0  0
   13.6430   -1.7670   22.0250 F   0  0  0  0  0  0  0  0  0  0  0  0
   12.8950    0.3810   22.6620 C   0  0  0  0  0  0  0  0  0  0  0  0
   11.9500    1.2610   23.1630 C   0  0  0  0  0  0  0  0  0  0  0  0
  1  2  1  0
  2  3  1  0
  2  4  1  0
  4  5  1  0
  5  6  2  0
  6  7  1  0
  7  8  1  0
  8  9  1  0
  9 10  1  0
 10 11  1  0
 11 12  1  0
 12 13  1  0
 13 14  1  0
 14 15  1  0
 10 16  1  0
 15 16  1  0
  9 17  2  0
 17 18  1  0
 18 19  1  0
 18 20  2  0
  5 21  1  0
  8 21  2  0
 20 21  1  0
M  END
