DAR-DIA-eace69ff-24
     RDKit          3D

 22 24  0  0  0  0  0  0  0  0999 V2000
   13.6070   -2.6540   23.5500 C   0  0  0  0  0  0  0  0  0  0  0  0
   13.2360   -1.9180   22.4270 C   0  0  0  0  0  0  0  0  0  0  0  0
   12.3110   -0.9700   22.6780 C   0  0  0  0  0  0  0  0  0  0  0  0
   11.0440   -1.4190   23.0100 C   0  0  0  0  0  0  0  0  0  0  0  0
   10.0660   -0.5880   23.2880 C   0  0  0  0  0  0  0  0  0  0  0  0
    8.7490   -1.1780   23.6400 N   0  0  0  0  0  0  0  0  0  0  0  0
    8.2750   -2.3210   22.8660 C   0  0  0  0  0  0  0  0  0  0  0  0
    7.9960   -3.4430   23.6600 C   0  0  0  0  0  0  0  0  0  0  0  0
    7.1280   -4.4280   23.1910 C   0  0  0  0  0  0  0  0  0  0  0  0
    5.9540   -4.0100   22.5640 C   0  0  0  0  0  0  0  0  0  0  0  0
    5.8440   -2.6210   22.3900 C   0  0  0  0  0  0  0  0  0  0  0  0
    6.9860   -1.8310   22.1680 C   0  0  0  0  0  0  0  0  0  0  0  0
   10.3420    0.7910   23.2340 C   0  0  0  0  0  0  0  0  0  0  0  0
    9.5330    1.8940   23.4780 N   0  0  0  0  0  0  0  0  0  0  0  0
   10.2380    2.9970   23.2960 C   0  0  0  0  0  0  0  0  0  0  0  0
   11.5390    2.7410   22.9220 C   0  0  0  0  0  0  0  0  0  0  0  0
   12.5730    3.6600   22.6180 C   0  0  0  0  0  0  0  0  0  0  0  0
   12.2950    4.9960   23.1910 N   0  0  0  0  0  0  0  0  0  0  0  0
   10.9720    5.4930   22.8060 C   0  0  0  0  0  0  0  0  0  0  0  0
   13.2530    5.9280   22.6080 C   0  0  0  0  0  0  0  0  0  0  0  0
   11.6290    1.3260   22.8910 C   0  0  0  0  0  0  0  0  0  0  0  0
   12.6290    0.3930   22.6150 C   0  0  0  0  0  0  0  0  0  0  0  0
  1  2  1  0
  2  3  1  0
  3  4  2  0
  4  5  1  0
  5  6  1  0
  6  7  1  0
  7  8  1  0
  8  9  1  0
  9 10  1  0
 10 11  1  0
  7 12  1  0
 11 12  1  0
  5 13  2  0
 13 14  1  0
 14 15  1  0
 15 16  2  0
 16 17  1  0
 17 18  1  0
 18 19  1  0
 18 20  1  0
 13 21  1  0
 16 21  1  0
  3 22  1  0
 21 22  2  0
M  END
