DAR-DIA-eace69ff-2
     RDKit          3D

 31 34  0  0  0  0  0  0  0  0999 V2000
   13.3660   -1.9980   20.8180 C   0  0  0  0  0  0  0  0  0  0  0  0
   13.1800   -1.8350   22.1500 C   0  0  0  0  0  0  0  0  0  0  0  0
   12.2960   -0.8660   22.5130 C   0  0  0  0  0  0  0  0  0  0  0  0
   11.0190   -1.2830   22.8120 C   0  0  0  0  0  0  0  0  0  0  0  0
   10.0480   -0.4650   23.1610 C   0  0  0  0  0  0  0  0  0  0  0  0
    8.7960   -0.9470   23.4680 O   0  0  0  0  0  0  0  0  0  0  0  0
    8.6660   -2.3800   23.4400 C   0  0  0  0  0  0  0  0  0  0  0  0
    7.8400   -2.6830   22.3680 C   0  0  0  0  0  0  0  0  0  0  0  0
    6.6720   -3.4170   22.5850 C   0  0  0  0  0  0  0  0  0  0  0  0
    6.9230   -4.5650   23.4180 N   0  0  0  0  0  0  0  0  0  0  0  0
    6.9880   -5.8380   22.8780 C   0  0  0  0  0  0  0  0  0  0  0  0
    7.7120   -4.2770   24.6230 C   0  0  0  0  0  0  0  0  0  0  0  0
    8.0560   -2.9220   24.7450 C   0  0  0  0  0  0  0  0  0  0  0  0
   10.3380    0.9150   23.2010 C   0  0  0  0  0  0  0  0  0  0  0  0
   11.6310    1.4130   22.9090 C   0  0  0  0  0  0  0  0  0  0  0  0
   12.6280    0.4850   22.5730 C   0  0  0  0  0  0  0  0  0  0  0  0
   11.5980    2.8610   23.0320 C   0  0  0  0  0  0  0  0  0  0  0  0
   12.5880    3.8300   22.8380 C   0  0  0  0  0  0  0  0  0  0  0  0
   12.1610    5.1780   23.3190 N   0  0  0  0  0  0  0  0  0  0  0  0
   11.1680    5.6080   22.4930 C   0  0  0  0  0  0  0  0  0  0  0  0
   11.6670    5.2980   24.7030 C   0  0  0  0  0  0  0  0  0  0  0  0
   10.3170    3.1720   23.3950 C   0  0  0  0  0  0  0  0  0  0  0  0
    9.5430    2.0420   23.5040 N   0  0  0  0  0  0  0  0  0  0  0  0
    8.1810    2.1680   23.8650 C   0  0  0  0  0  0  0  0  0  0  0  0
    7.5820    1.2030   24.3280 O   0  0  0  0  0  0  0  0  0  0  0  0
    7.5050    3.3750   23.7160 C   0  0  0  0  0  0  0  0  0  0  0  0
    7.6110    4.0710   22.5150 C   0  0  0  0  0  0  0  0  0  0  0  0
    6.9660    5.2970   22.2850 C   0  0  0  0  0  0  0  0  0  0  0  0
    6.1070    5.9030   23.4030 C   0  0  0  0  0  0  0  0  0  0  0  0
    5.9900    5.2090   24.6230 C   0  0  0  0  0  0  0  0  0  0  0  0
    6.7370    3.8790   24.7630 C   0  0  0  0  0  0  0  0  0  0  0  0
  1  2  1  0
  2  3  1  0
  3  4  2  0
  4  5  1  0
  5  6  1  0
  6  7  1  0
  7  8  1  0
  8  9  1  0
  9 10  1  0
 10 11  1  0
 10 12  1  0
  7 13  1  0
 12 13  1  0
  5 14  2  0
 14 15  1  0
  3 16  1  0
 15 16  2  0
 15 17  1  0
 17 18  1  0
 18 19  1  0
 19 20  1  0
 19 21  1  0
 17 22  2  0
 14 23  1  0
 22 23  1  0
 23 24  1  0
 24 25  2  0
 24 26  1  0
 26 27  2  0
 27 28  1  0
 28 29  2  0
 29 30  1  0
 26 31  1  0
 30 31  2  0
M  END
