DAR-DIA-eace69ff-25
     RDKit          3D

 22 24  0  0  0  0  0  0  0  0999 V2000
   13.4530   -2.8110   22.4950 C   0  0  0  0  0  0  0  0  0  0  0  0
   13.1070   -1.6300   21.7550 C   0  0  0  0  0  0  0  0  0  0  0  0
   12.2550   -0.8170   22.4110 C   0  0  0  0  0  0  0  0  0  0  0  0
   11.1310   -1.3910   22.9290 C   0  0  0  0  0  0  0  0  0  0  0  0
   10.1770   -0.4860   23.6190 C   0  0  0  0  0  0  0  0  0  0  0  0
    9.0010   -1.0130   24.1840 N   0  0  0  0  0  0  0  0  0  0  0  0
    8.7370   -2.3450   23.5840 C   0  0  0  0  0  0  0  0  0  0  0  0
    7.3800   -2.6160   23.3540 C   0  0  0  0  0  0  0  0  0  0  0  0
    6.4100   -2.6870   24.5270 C   0  0  0  0  0  0  0  0  0  0  0  0
    6.7960   -1.8510   25.7270 C   0  0  0  0  0  0  0  0  0  0  0  0
    8.1180   -1.8740   26.1900 C   0  0  0  0  0  0  0  0  0  0  0  0
    8.9480   -0.8860   25.6500 C   0  0  0  0  0  0  0  0  0  0  0  0
   10.5090    0.8890   23.6530 C   0  0  0  0  0  0  0  0  0  0  0  0
    9.8230    1.9620   24.1800 N   0  0  0  0  0  0  0  0  0  0  0  0
   10.5790    3.0920   23.9260 C   0  0  0  0  0  0  0  0  0  0  0  0
   11.7540    2.8510   23.2660 C   0  0  0  0  0  0  0  0  0  0  0  0
   12.7280    3.7890   22.8670 C   0  0  0  0  0  0  0  0  0  0  0  0
   12.1840    5.0030   22.2500 N   0  0  0  0  0  0  0  0  0  0  0  0
   10.9570    5.4750   22.8770 C   0  0  0  0  0  0  0  0  0  0  0  0
   13.1810    6.0590   22.3380 C   0  0  0  0  0  0  0  0  0  0  0  0
   11.6950    1.4080   23.0970 C   0  0  0  0  0  0  0  0  0  0  0  0
   12.5450    0.5250   22.5120 C   0  0  0  0  0  0  0  0  0  0  0  0
  1  2  1  0
  2  3  1  0
  3  4  2  0
  4  5  1  0
  5  6  1  0
  6  7  1  0
  7  8  1  0
  8  9  1  0
  9 10  1  0
 10 11  1  0
  6 12  1  0
 11 12  1  0
  5 13  2  0
 13 14  1  0
 14 15  1  0
 15 16  2  0
 16 17  1  0
 17 18  1  0
 18 19  1  0
 18 20  1  0
 13 21  1  0
 16 21  1  0
  3 22  1  0
 21 22  2  0
M  END
