DAR-DIA-a80d16a0-10
     RDKit          3D

 22 24  0  0  0  0  0  0  0  0999 V2000
   13.0960   -1.8490   21.6410 C   0  0  0  0  0  0  0  0  0  0  0  0
   13.3590   -0.7970   22.2170 O   0  0  0  0  0  0  0  0  0  0  0  0
   12.2630   -0.1340   22.6460 C   0  0  0  0  0  0  0  0  0  0  0  0
   11.0370   -0.6640   22.6880 C   0  0  0  0  0  0  0  0  0  0  0  0
    9.7930   -0.3610   23.0260 N   0  0  0  0  0  0  0  0  0  0  0  0
    8.6880   -1.3110   23.1720 C   0  0  0  0  0  0  0  0  0  0  0  0
    8.9450   -2.1710   24.2270 C   0  0  0  0  0  0  0  0  0  0  0  0
    8.3720   -1.9080   25.4230 N   0  0  0  0  0  0  0  0  0  0  0  0
    9.0070   -1.0020   26.2100 C   0  0  0  0  0  0  0  0  0  0  0  0
    7.0480   -2.3170   25.4840 C   0  0  0  0  0  0  0  0  0  0  0  0
    9.8520    0.7520   23.9920 C   0  0  0  0  0  0  0  0  0  0  0  0
   10.8800    1.7420   23.7610 C   0  0  2  0  0  0  0  0  0  0  0  0
   10.4990    2.9970   23.2030 C   0  0  0  0  0  0  0  0  0  0  0  0
   10.3180    4.1570   23.9160 C   0  0  0  0  0  0  0  0  0  0  0  0
   11.5180    5.0720   24.1050 C   0  0  0  0  0  0  0  0  0  0  0  0
   11.2940    6.3600   24.8900 C   0  0  0  0  0  0  0  0  0  0  0  0
    9.9190    6.6860   25.4410 C   0  0  0  0  0  0  0  0  0  0  0  0
    8.7990    5.6890   25.1750 C   0  0  0  0  0  0  0  0  0  0  0  0
    9.0520    4.5090   24.4470 C   0  0  0  0  0  0  0  0  0  0  0  0
   10.7630    3.5280   22.0530 C   0  0  0  0  0  0  0  0  0  0  0  0
    9.6250    2.9620   21.7850 C   0  0  0  0  0  0  0  0  0  0  0  0
   12.2540    1.1940   23.1020 C   0  0  0  0  0  0  0  0  0  0  0  0
  1  2  1  0
  2  3  1  0
  3  4  2  0
  4  5  1  0
  5  6  1  0
  6  7  1  0
  7  8  1  0
  8  9  1  0
  8 10  1  0
  5 11  1  0
 11 12  1  0
 12 13  1  6
 13 14  1  0
 14 15  2  0
 15 16  1  0
 16 17  2  0
 17 18  1  0
 14 19  1  0
 18 19  2  0
 13 20  1  0
 13 21  1  0
 20 21  1  0
  3 22  1  0
 12 22  1  0
M  END
