DAR-DIA-eace69ff-29
     RDKit          3D

 22 24  0  0  0  0  0  0  0  0999 V2000
   13.2140   -2.1870   20.9430 C   0  0  0  0  0  0  0  0  0  0  0  0
   13.1920   -2.0590   22.4640 C   0  0  0  0  0  0  0  0  0  0  0  0
   12.3480   -0.8880   22.8780 C   0  0  0  0  0  0  0  0  0  0  0  0
   11.1400   -1.2820   23.3960 C   0  0  0  0  0  0  0  0  0  0  0  0
   10.1800   -0.4060   23.8490 C   0  0  0  0  0  0  0  0  0  0  0  0
    8.9670   -0.8520   24.3670 C   0  0  0  0  0  0  0  0  0  0  0  0
    8.0890   -1.6150   23.5830 C   0  0  0  0  0  0  0  0  0  0  0  0
    6.8120   -1.5870   24.1840 C   0  0  0  0  0  0  0  0  0  0  0  0
    5.8420   -2.6100   23.6520 C   0  0  0  0  0  0  0  0  0  0  0  0
    6.4300   -3.8450   23.8480 C   0  0  0  0  0  0  0  0  0  0  0  0
    7.5830   -3.9330   23.0780 C   0  0  0  0  0  0  0  0  0  0  0  0
    8.5510   -2.9440   23.3550 C   0  0  0  0  0  0  0  0  0  0  0  0
   10.5450    0.9780   23.7340 C   0  0  0  0  0  0  0  0  0  0  0  0
    9.7920    2.0650   24.1110 N   0  0  0  0  0  0  0  0  0  0  0  0
   10.5790    3.1910   23.7780 C   0  0  0  0  0  0  0  0  0  0  0  0
   11.7840    2.8760   23.2120 C   0  0  0  0  0  0  0  0  0  0  0  0
   12.6820    3.8900   22.8040 C   0  0  0  0  0  0  0  0  0  0  0  0
   12.1430    5.2500   23.0320 N   0  0  0  0  0  0  0  0  0  0  0  0
   10.9230    5.5500   22.5960 C   0  0  0  0  0  0  0  0  0  0  0  0
   12.2590    5.7690   24.3810 C   0  0  0  0  0  0  0  0  0  0  0  0
   11.7870    1.4610   23.1900 C   0  0  0  0  0  0  0  0  0  0  0  0
   12.6870    0.4700   22.7710 C   0  0  0  0  0  0  0  0  0  0  0  0
  1  2  1  0
  2  3  1  0
  3  4  2  0
  4  5  1  0
  5  6  1  0
  6  7  1  0
  7  8  1  0
  8  9  1  0
  9 10  1  0
 10 11  1  0
  7 12  1  0
 11 12  1  0
  5 13  2  0
 13 14  1  0
 14 15  1  0
 15 16  2  0
 16 17  1  0
 17 18  1  0
 18 19  1  0
 18 20  1  0
 13 21  1  0
 16 21  1  0
  3 22  1  0
 21 22  2  0
M  END
