DAR-DIA-a80d16a0-6
     RDKit          3D

 22 24  0  0  0  0  0  0  0  0999 V2000
   12.7240   -2.7860   24.5500 C   0  0  0  0  0  0  0  0  0  0  0  0
   13.0300   -1.2740   24.4600 C   0  0  0  0  0  0  0  0  0  0  0  0
   11.9800   -0.4580   23.7130 C   0  0  0  0  0  0  0  0  0  0  0  0
   10.9650   -1.0990   23.1320 C   0  0  0  0  0  0  0  0  0  0  0  0
    9.8910   -0.8980   22.4460 N   0  0  0  0  0  0  0  0  0  0  0  0
    8.8070   -1.6620   22.7470 C   0  0  0  0  0  0  0  0  0  0  0  0
    8.8170   -2.1850   24.0360 C   0  0  0  0  0  0  0  0  0  0  0  0
    7.7760   -1.6450   24.9220 N   0  0  0  0  0  0  0  0  0  0  0  0
    8.1740   -0.5060   25.7490 C   0  0  0  0  0  0  0  0  0  0  0  0
    9.6230    0.5430   22.3490 C   0  0  0  0  0  0  0  0  0  0  0  0
   10.6120    1.6040   22.9010 C   0  0  1  0  0  0  0  0  0  0  0  0
    9.8420    2.5700   23.5590 C   0  0  0  0  0  0  0  0  0  0  0  0
   10.3340    3.8420   23.8140 C   0  0  0  0  0  0  0  0  0  0  0  0
   11.6530    4.2140   23.4940 C   0  0  0  0  0  0  0  0  0  0  0  0
   12.0610    5.5050   23.8340 C   0  0  0  0  0  0  0  0  0  0  0  0
   11.2570    6.4480   24.4610 C   0  0  0  0  0  0  0  0  0  0  0  0
   11.8670    7.9900   24.8530 Cl  0  0  0  0  0  0  0  0  0  0  0  0
    9.9440    6.1600   24.7850 C   0  0  0  0  0  0  0  0  0  0  0  0
    9.3930    4.8290   24.4770 N   0  0  0  0  0  0  0  0  0  0  0  0
    8.5420    2.8090   23.0260 C   0  0  0  0  0  0  0  0  0  0  0  0
    8.6090    2.1930   24.3650 C   0  0  0  0  0  0  0  0  0  0  0  0
   11.9460    1.0360   23.5510 C   0  0  0  0  0  0  0  0  0  0  0  0
  1  2  1  0
  2  3  1  0
  3  4  2  0
  4  5  1  0
  5  6  1  0
  6  7  1  0
  7  8  1  0
  8  9  1  0
  5 10  1  0
 10 11  1  0
 11 12  1  1
 12 13  1  0
 13 14  2  0
 14 15  1  0
 15 16  2  0
 16 17  1  0
 16 18  1  0
 13 19  1  0
 18 19  2  0
 12 20  1  0
 12 21  1  0
 20 21  1  0
  3 22  1  0
 11 22  1  0
M  END
