DAR-DIA-23aa0b97-20
     RDKit          3D

 20 22  0  0  0  0  0  0  0  0999 V2000
    8.9770    1.4570   21.3360 O   0  0  0  0  0  0  0  0  0  0  0  0
    8.7360    0.0460   21.4230 C   0  0  0  0  0  0  0  0  0  0  0  0
    9.5460   -0.6610   22.4820 C   0  0  0  0  0  0  0  0  0  0  0  0
   10.6480    0.1000   22.9150 C   0  0  0  0  0  0  0  0  0  0  0  0
   12.0630    0.4720   23.2760 C   0  0  0  0  0  0  0  0  0  0  0  0
   12.1780    1.7190   23.6760 N   0  0  0  0  0  0  0  0  0  0  0  0
   11.0750    1.2880   23.3650 C   0  0  0  0  0  0  0  0  0  0  0  0
   12.2250    0.2550   23.2360 C   0  0  0  0  0  0  0  0  0  0  0  0
   12.5270   -1.0680   22.8700 C   0  0  0  0  0  0  0  0  0  0  0  0
   11.2400   -0.8470   22.7180 C   0  0  0  0  0  0  0  0  0  0  0  0
   12.4210    0.0430   23.2040 C   0  0  0  0  0  0  0  0  0  0  0  0
   12.9270   -1.0420   22.9550 C   0  0  0  0  0  0  0  0  0  0  0  0
   11.4800   -0.9160   22.7420 C   0  0  0  0  0  0  0  0  0  0  0  0
    7.9000   -0.7080   20.6280 N   0  0  0  0  0  0  0  0  0  0  0  0
    6.8370   -0.0900   19.9340 C   0  0  0  0  0  0  0  0  0  0  0  0
    5.5260    0.1660   20.6910 C   0  0  0  0  0  0  0  0  0  0  0  0
    4.4590    0.7890   20.0660 C   0  0  0  0  0  0  0  0  0  0  0  0
    4.5630    1.2290   18.6270 C   0  0  0  0  0  0  0  0  0  0  0  0
    5.8810    0.9360   17.9460 C   0  0  0  0  0  0  0  0  0  0  0  0
    6.9280    0.3060   18.6100 C   0  0  0  0  0  0  0  0  0  0  0  0
  1  2  2  0
  2  3  1  0
  3  4  1  0
  4  5  2  0
  5  6  1  0
  6  7  2  0
  7  8  1  0
  8  9  1  0
  9 10  2  0
 10 11  1  0
 11 12  2  0
  4 13  1  0
  8 13  2  0
 12 13  1  0
  2 14  1  0
 14 15  1  0
 15 16  2  0
 16 17  1  0
 17 18  2  0
 18 19  1  0
 15 20  1  0
 19 20  2  0
M  END
