DAR-DIA-eace69ff-32
     RDKit          3D

 20 22  0  0  0  0  0  0  0  0999 V2000
   11.2300    5.7460   22.3810 C   0  0  0  0  0  0  0  0  0  0  0  0
   11.9300    5.2680   23.4490 N   0  0  0  0  0  0  0  0  0  0  0  0
   12.0680    5.9500   24.6740 C   0  0  0  0  0  0  0  0  0  0  0  0
   12.5910    4.0170   23.0670 C   0  0  0  0  0  0  0  0  0  0  0  0
   11.7810    2.8640   23.2440 C   0  0  0  0  0  0  0  0  0  0  0  0
   10.5030    2.9010   23.7090 C   0  0  0  0  0  0  0  0  0  0  0  0
    9.8510    1.7580   23.7790 N   0  0  0  0  0  0  0  0  0  0  0  0
   10.7280    0.8280   23.3280 C   0  0  0  0  0  0  0  0  0  0  0  0
   10.3600   -0.6150   23.2040 C   0  0  0  0  0  0  0  0  0  0  0  0
    9.1090   -1.1200   23.5490 C   0  0  0  0  0  0  0  0  0  0  0  0
    8.5220   -0.7830   24.7780 C   0  0  0  0  0  0  0  0  0  0  0  0
    7.2750   -1.2910   25.1360 C   0  0  0  0  0  0  0  0  0  0  0  0
    6.5490   -2.1500   24.3120 C   0  0  0  0  0  0  0  0  0  0  0  0
    7.0810   -2.5260   23.0690 C   0  0  0  0  0  0  0  0  0  0  0  0
    8.4340   -1.9800   22.6700 C   0  0  0  0  0  0  0  0  0  0  0  0
   11.3580   -1.4140   22.7080 C   0  0  0  0  0  0  0  0  0  0  0  0
   12.6310   -0.9290   22.3900 C   0  0  0  0  0  0  0  0  0  0  0  0
   13.4980   -1.8270   21.9340 F   0  0  0  0  0  0  0  0  0  0  0  0
   13.1300    0.5400   22.5130 C   0  0  0  0  0  0  0  0  0  0  0  0
   11.9610    1.4300   23.0090 C   0  0  0  0  0  0  0  0  0  0  0  0
  1  2  1  0
  2  3  1  0
  2  4  1  0
  4  5  1  0
  5  6  2  0
  6  7  1  0
  7  8  1  0
  8  9  1  0
  9 10  1  0
 10 11  2  0
 11 12  1  0
 12 13  2  0
 13 14  1  0
 10 15  1  0
 14 15  2  0
  9 16  2  0
 16 17  1  0
 17 18  1  0
 17 19  2  0
  5 20  1  0
  8 20  2  0
 19 20  1  0
M  END
