DAR-DIA-eace69ff-22
     RDKit          3D

 22 24  0  0  0  0  0  0  0  0999 V2000
   11.5280    5.7630   22.2220 C   0  0  0  0  0  0  0  0  0  0  0  0
   12.4120    5.2920   23.2280 N   0  0  0  0  0  0  0  0  0  0  0  0
   12.0170    5.7840   24.5510 C   0  0  0  0  0  0  0  0  0  0  0  0
   12.7010    3.9910   22.9840 C   0  0  0  0  0  0  0  0  0  0  0  0
   11.6690    2.9150   23.2240 C   0  0  0  0  0  0  0  0  0  0  0  0
   10.4040    3.0790   23.6480 C   0  0  0  0  0  0  0  0  0  0  0  0
    9.6720    1.9250   23.7340 N   0  0  0  0  0  0  0  0  0  0  0  0
   10.4740    0.8870   23.3490 C   0  0  0  0  0  0  0  0  0  0  0  0
    9.9880   -0.5720   23.2830 C   0  0  0  0  0  0  0  0  0  0  0  0
    8.5750   -0.6870   23.6360 N   0  0  0  0  0  0  0  0  0  0  0  0
    8.3400   -1.3430   24.8910 C   0  0  0  0  0  0  0  0  0  0  0  0
    6.9930   -1.3560   25.2570 C   0  0  0  0  0  0  0  0  0  0  0  0
    6.2080   -2.2720   24.5470 C   0  0  0  0  0  0  0  0  0  0  0  0
    6.9360   -3.2400   23.8360 C   0  0  0  0  0  0  0  0  0  0  0  0
    7.9300   -2.6980   22.8440 C   0  0  0  0  0  0  0  0  0  0  0  0
    7.8970   -1.3130   22.6460 C   0  0  0  0  0  0  0  0  0  0  0  0
   10.8860   -1.5430   22.8960 C   0  0  0  0  0  0  0  0  0  0  0  0
   12.2470   -1.0670   22.5720 C   0  0  0  0  0  0  0  0  0  0  0  0
   13.2700   -1.8800   22.1550 C   0  0  0  0  0  0  0  0  0  0  0  0
   13.6650   -1.4980   20.9070 F   0  0  0  0  0  0  0  0  0  0  0  0
   12.7270    0.4040   22.6330 C   0  0  0  0  0  0  0  0  0  0  0  0
   11.7950    1.3780   23.0210 C   0  0  0  0  0  0  0  0  0  0  0  0
  1  2  1  0
  2  3  1  0
  2  4  1  0
  4  5  1  0
  5  6  2  0
  6  7  1  0
  7  8  1  0
  8  9  1  0
  9 10  1  0
 10 11  1  0
 11 12  1  0
 12 13  1  0
 13 14  1  0
 14 15  1  0
 10 16  1  0
 15 16  1  0
  9 17  2  0
 17 18  1  0
 18 19  1  0
 19 20  1  0
 18 21  2  0
  5 22  1  0
  8 22  2  0
 21 22  1  0
M  END
