DAR-DIA-43a5904b-10
     RDKit          3D

 19 21  0  0  0  0  0  0  0  0999 V2000
   10.1950    3.1050   22.4410 N   0  0  0  0  0  0  0  0  0  0  0  0
    9.2580    1.9880   22.2640 C   0  0  0  0  0  0  0  0  0  0  0  0
    8.6900    1.7420   20.9880 O   0  0  0  0  0  0  0  0  0  0  0  0
    8.8620    1.1100   23.4200 C   0  0  1  0  0  0  0  0  0  0  0  0
    7.4780    0.8320   23.5550 C   0  0  0  0  0  0  0  0  0  0  0  0
    7.3370   -0.4930   23.2830 C   0  0  0  0  0  0  0  0  0  0  0  0
    5.9840   -1.0990   23.0420 C   0  0  0  0  0  0  0  0  0  0  0  0
    5.7320   -2.4040   23.4840 C   0  0  0  0  0  0  0  0  0  0  0  0
    6.4400   -3.3780   23.1580 C   0  0  0  0  0  0  0  0  0  0  0  0
    5.0340   -3.2680   22.3970 C   0  0  0  0  0  0  0  0  0  0  0  0
    8.5290   -1.1720   23.2560 C   0  0  0  0  0  0  0  0  0  0  0  0
    9.5910   -0.3010   23.5430 C   0  0  1  0  0  0  0  0  0  0  0  0
   10.8280   -0.5460   22.9710 C   0  0  0  0  0  0  0  0  0  0  0  0
   11.9870    0.3130   23.1520 C   0  0  0  0  0  0  0  0  0  0  0  0
   13.0560   -0.2080   22.4520 C   0  0  0  0  0  0  0  0  0  0  0  0
   13.3740   -1.2580   21.6480 C   0  0  0  0  0  0  0  0  0  0  0  0
   12.2140   -1.8580   21.6450 C   0  0  0  0  0  0  0  0  0  0  0  0
   12.1800   -0.4580   22.6370 Cl  0  0  0  0  0  0  0  0  0  0  0  0
   10.9630   -1.7170   22.1610 C   0  0  0  0  0  0  0  0  0  0  0  0
  1  2  1  0
  2  3  2  0
  4  2  1  6
  4  5  1  0
  5  6  1  0
  6  7  1  0
  7  8  1  0
  8  9  1  0
  8 10  1  0
  9 10  1  0
  6 11  2  0
  4 12  1  0
 11 12  1  0
 12 13  1  6
 13 14  2  0
 14 15  1  0
 15 16  2  0
 16 17  1  0
 17 18  1  0
 13 19  1  0
 17 19  2  0
M  END
