DAV-AUT-7eb4e0c3-3
     RDKit          3D

 18 18  0  0  0  0  0  0  0  0999 V2000
    6.2920    5.9410   26.1590 C   0  0  0  0  0  0  0  0  0  0  0  0
    7.4590    5.5380   25.4100 N   0  0  0  0  0  0  0  0  0  0  0  0
    8.4750    6.3830   25.1250 C   0  0  0  0  0  0  0  0  0  0  0  0
    8.2850    7.5940   24.9960 O   0  0  0  0  0  0  0  0  0  0  0  0
    9.6950    5.8240   24.9910 N   0  0  0  0  0  0  0  0  0  0  0  0
   10.1320    5.2780   23.6200 S   0  0  1  0  0  0  0  0  0  0  0  0
    8.6930    4.9770   22.6220 C   0  0  0  0  0  0  0  0  0  0  0  0
   11.0810    6.1480   22.9570 O   0  0  0  0  0  0  0  0  0  0  0  0
   10.6590    3.6220   23.6300 C   0  0  0  0  0  0  0  0  0  0  0  0
   10.0120    2.2910   24.1000 C   0  0  0  0  0  0  0  0  0  0  0  0
   10.7460    0.9770   23.9950 C   0  0  0  0  0  0  0  0  0  0  0  0
   12.1390    1.0010   23.4130 C   0  0  0  0  0  0  0  0  0  0  0  0
   12.8580   -0.3880   23.3320 C   0  0  0  0  0  0  0  0  0  0  0  0
   13.2740   -0.8330   22.2720 O   0  0  0  0  0  0  0  0  0  0  0  0
   12.9360   -0.9820   24.5530 O   0  0  0  0  0  0  0  0  0  0  0  0
   13.3670   -2.3500   24.5310 C   0  0  0  0  0  0  0  0  0  0  0  0
   12.6640    2.2090   23.0060 C   0  0  0  0  0  0  0  0  0  0  0  0
   11.9570    3.5170   23.0980 N   0  0  0  0  0  0  0  0  0  0  0  0
  1  2  1  0
  2  3  1  0
  3  4  2  0
  3  5  1  0
  5  6  2  0
  6  7  1  6
  6  8  2  0
  6  9  1  0
  9 10  2  0
 10 11  1  0
 11 12  2  0
 12 13  1  0
 13 14  2  0
 13 15  1  0
 15 16  1  0
 12 17  1  0
  9 18  1  0
 17 18  2  0
M  END
