DAV-AUT-fa25ac7f-2
     RDKit          3D

 24 26  0  0  0  0  0  0  0  0999 V2000
   13.1790   -1.3310   21.6650 C   0  0  0  0  0  0  0  0  0  0  0  0
   12.7500   -0.6590   22.9170 C   0  0  1  0  0  0  0  0  0  0  0  0
   12.2910    0.6130   23.0950 C   0  0  0  0  0  0  0  0  0  0  0  0
   11.0040    1.0240   23.6940 C   0  0  0  0  0  0  0  0  0  0  0  0
   10.5970    2.4350   23.8700 C   0  0  0  0  0  0  0  0  0  0  0  0
   11.4300    3.5410   23.4620 C   0  0  0  0  0  0  0  0  0  0  0  0
   10.7960    5.2210   23.8070 S   0  0  1  0  0  0  0  0  0  0  0  0
   11.9460    5.9930   24.9090 C   0  0  0  0  0  0  0  0  0  0  0  0
   10.7310    6.1690   22.4130 N   0  0  0  0  0  0  0  0  0  0  0  0
    9.5160    5.1490   24.4660 O   0  0  0  0  0  0  0  0  0  0  0  0
   12.7070    3.3170   22.8390 N   0  0  0  0  0  0  0  0  0  0  0  0
   12.8610    1.9880   22.7940 C   0  0  0  0  0  0  0  0  0  0  0  0
   11.6770    2.2320   23.3510 F   0  0  0  0  0  0  0  0  0  0  0  0
   10.1250    0.0970   24.1290 N   0  0  0  0  0  0  0  0  0  0  0  0
    8.8590    0.4110   24.5960 C   0  0  0  0  0  0  0  0  0  0  0  0
    8.6540   -0.2900   25.7570 C   0  0  0  0  0  0  0  0  0  0  0  0
    7.3560    0.0960   26.1950 C   0  0  0  0  0  0  0  0  0  0  0  0
    6.3640   -0.1510   25.5120 O   0  0  0  0  0  0  0  0  0  0  0  0
    6.4640    0.3960   24.1950 C   0  0  0  0  0  0  0  0  0  0  0  0
    7.7490    0.0300   23.6050 C   0  0  0  0  0  0  0  0  0  0  0  0
   10.6750   -1.1720   24.3340 C   0  0  0  0  0  0  0  0  0  0  0  0
   11.6890   -1.6320   23.4540 C   0  0  0  0  0  0  0  0  0  0  0  0
   11.0720   -2.2240   22.3950 F   0  0  0  0  0  0  0  0  0  0  0  0
   12.3320   -2.6530   24.0780 F   0  0  0  0  0  0  0  0  0  0  0  0
  2  1  1  6
  2  3  1  0
  3  4  2  0
  4  5  1  0
  5  6  2  0
  6  7  1  0
  7  8  1  1
  7  9  2  0
  7 10  2  0
  6 11  1  0
  3 12  1  0
 11 12  2  0
 12 13  1  0
  4 14  1  0
 14 15  1  0
 15 16  1  0
 16 17  1  0
 17 18  1  0
 18 19  1  0
 15 20  1  0
 19 20  1  0
 14 21  1  0
  2 22  1  0
 21 22  1  0
 22 23  1  0
 22 24  1  0
M  END
