DAV-UNI-bdcebb58-1
     RDKit          3D

 27 28  0  0  0  0  0  0  0  0999 V2000
    7.7650   -2.7910   28.1460 C   0  0  0  0  0  0  0  0  0  0  0  0
    7.3280   -4.1390   27.9190 C   0  0  0  0  0  0  0  0  0  0  0  0
    6.9220   -4.3330   26.5490 O   0  0  0  0  0  0  0  0  0  0  0  0
    7.9680   -4.4750   25.6760 C   0  0  0  0  0  0  0  0  0  0  0  0
    8.9250   -5.2180   25.8820 O   0  0  0  0  0  0  0  0  0  0  0  0
    7.8070   -3.6150   24.4410 C   0  0  2  0  0  0  0  0  0  0  0  0
    8.9020   -2.7350   24.2450 C   0  0  0  0  0  0  0  0  0  0  0  0
    9.1580   -1.9760   23.0690 C   0  0  0  0  0  0  0  0  0  0  0  0
   10.4360   -1.3910   22.9010 C   0  0  0  0  0  0  0  0  0  0  0  0
   10.7210   -0.1020   23.3400 C   0  0  0  0  0  0  0  0  0  0  0  0
   12.0070    0.4640   23.1720 C   0  0  0  0  0  0  0  0  0  0  0  0
   13.0260   -0.2270   22.5800 C   0  0  0  0  0  0  0  0  0  0  0  0
   12.7500   -1.5720   22.1060 C   0  0  0  0  0  0  0  0  0  0  0  0
   11.4690   -2.1050   22.2780 C   0  0  0  0  0  0  0  0  0  0  0  0
    6.4190   -3.0640   24.5280 N   0  0  0  0  0  0  0  0  0  0  0  0
    6.0460   -1.7560   23.9970 C   0  0  1  0  0  0  0  0  0  0  0  0
    6.9880   -0.8510   24.4850 C   0  0  0  0  0  0  0  0  0  0  0  0
    5.8240   -1.8260   22.6330 C   0  0  0  0  0  0  0  0  0  0  0  0
    5.4550   -2.8800   22.0860 O   0  0  0  0  0  0  0  0  0  0  0  0
    5.9930   -0.6910   21.8720 N   0  0  0  0  0  0  0  0  0  0  0  0
    6.0440    0.6900   22.3920 C   0  0  0  0  0  0  0  0  0  0  0  0
    5.2310    1.4920   21.4000 C   0  0  0  0  0  0  0  0  0  0  0  0
    4.9300    0.5810   20.2210 C   0  0  0  0  0  0  0  0  0  0  0  0
    5.6140   -0.7200   20.4250 C   0  0  1  0  0  0  0  0  0  0  0  0
    6.6780   -0.8780   19.6290 C   0  0  0  0  0  0  0  0  0  0  0  0
    6.5880   -1.1680   18.4510 O   0  0  0  0  0  0  0  0  0  0  0  0
    7.8700   -0.6840   20.2400 O   0  0  0  0  0  0  0  0  0  0  0  0
  1  2  1  0
  2  3  1  0
  3  4  1  0
  4  5  2  0
  4  6  1  0
  6  7  1  1
  7  8  1  0
  8  9  1  0
  9 10  2  0
 10 11  1  0
 11 12  2  0
 12 13  1  0
  9 14  1  0
 13 14  2  0
  6 15  1  0
 15 16  1  0
 16 17  1  6
 16 18  1  0
 18 19  2  0
 18 20  1  0
 20 21  1  0
 21 22  1  0
 22 23  1  0
 20 24  1  0
 23 24  1  0
 24 25  1  6
 25 26  2  0
 25 27  1  0
M  END
