DAV-AUT-7eb4e0c3-4
     RDKit          3D

 21 23  0  0  0  0  0  0  0  0999 V2000
   11.4450    6.7630   25.1250 C   0  0  0  0  0  0  0  0  0  0  0  0
   11.4220    6.5430   23.7560 N   0  0  0  0  0  0  0  0  0  0  0  0
   10.9080    5.4020   23.1610 C   0  0  0  0  0  0  0  0  0  0  0  0
   11.7620    4.2290   23.4680 C   0  0  1  0  0  0  0  0  0  0  0  0
   11.1890    2.8350   23.6180 C   0  0  0  0  0  0  0  0  0  0  0  0
   10.0320    2.8910   24.5470 C   0  0  0  0  0  0  0  0  0  0  0  0
    9.3890    1.5980   24.8790 C   0  0  0  0  0  0  0  0  0  0  0  0
    9.9860    0.5380   24.2390 C   0  0  0  0  0  0  0  0  0  0  0  0
   10.9830    0.3210   23.3610 C   0  0  0  0  0  0  0  0  0  0  0  0
   11.6620    1.5850   23.0070 C   0  0  0  0  0  0  0  0  0  0  0  0
   11.2340   -1.0060   22.9380 C   0  0  0  0  0  0  0  0  0  0  0  0
   11.2970   -1.8220   22.0370 O   0  0  0  0  0  0  0  0  0  0  0  0
   10.8620    0.1130   22.1750 N   0  0  0  0  0  0  0  0  0  0  0  0
   11.1210    1.3180   23.2110 S   0  0  2  0  0  0  0  0  0  0  0  0
   12.7610    0.9200   23.6310 C   0  0  0  0  0  0  0  0  0  0  0  0
   10.7890    2.7080   23.0200 O   0  0  0  0  0  0  0  0  0  0  0  0
   13.0510    4.1350   22.8880 O   0  0  0  0  0  0  0  0  0  0  0  0
   13.1860    4.8740   21.7230 C   0  0  0  0  0  0  0  0  0  0  0  0
   12.7810    6.2800   21.9150 C   0  0  0  0  0  0  0  0  0  0  0  0
   12.5140    6.9910   23.0910 C   0  0  0  0  0  0  0  0  0  0  0  0
   13.1490    7.9870   23.4550 O   0  0  0  0  0  0  0  0  0  0  0  0
  1  2  1  0
  2  3  1  0
  3  4  1  0
  4  5  1  6
  5  6  2  0
  6  7  1  0
  7  8  2  0
  8  9  1  0
  5 10  1  0
  9 10  2  0
  9 11  1  0
 11 12  2  0
 11 13  1  0
  8 14  1  0
 13 14  2  0
 14 15  1  1
 14 16  2  0
  4 17  1  0
 17 18  1  0
 18 19  1  0
  2 20  1  0
 19 20  1  0
 20 21  2  0
M  END
