DAV-CRI-10b5d502-1
     RDKit          3D

 21 22  0  0  0  0  0  0  0  0999 V2000
    5.5190   -4.3050   19.8720 O   0  0  0  0  0  0  0  0  0  0  0  0
    6.1880   -3.9880   20.8530 C   0  0  0  0  0  0  0  0  0  0  0  0
    6.6830   -2.5340   21.0440 C   0  0  0  0  0  0  0  0  0  0  0  0
    8.2540   -2.4000   21.9040 Cl  0  0  0  0  0  0  0  0  0  0  0  0
    6.5690   -5.0240   21.8980 C   0  0  1  0  0  0  0  0  0  0  0  0
    7.0830   -4.3430   22.9850 N   0  0  0  0  0  0  0  0  0  0  0  0
    6.5660   -4.5730   24.3280 C   0  0  0  0  0  0  0  0  0  0  0  0
    5.2490   -4.8460   24.3390 N   0  0  0  0  0  0  0  0  0  0  0  0
    4.6550   -5.1910   25.9060 S   0  0  0  0  0  0  0  0  0  0  0  0
    5.7370   -5.1020   26.8590 O   0  0  0  0  0  0  0  0  0  0  0  0
    3.8630   -6.3960   25.8000 O   0  0  0  0  0  0  0  0  0  0  0  0
    3.5460   -3.8520   26.2920 C   0  0  2  0  0  0  0  0  0  0  0  0
    2.3910   -3.8090   25.5190 C   0  0  0  0  0  0  0  0  0  0  0  0
    1.4100   -2.9510   26.0290 C   0  0  0  0  0  0  0  0  0  0  0  0
    1.9300   -1.7100   26.4030 C   0  0  0  0  0  0  0  0  0  0  0  0
    3.2910   -1.5200   26.1830 C   0  0  0  0  0  0  0  0  0  0  0  0
    4.1600   -2.5790   26.4540 C   0  0  2  0  0  0  0  0  0  0  0  0
    5.3630   -2.4470   25.8900 F   0  0  0  0  0  0  0  0  0  0  0  0
    4.6820   -5.6190   23.3240 C   0  0  0  0  0  0  0  0  0  0  0  0
    5.4500   -5.8470   22.0410 C   0  0  0  0  0  0  0  0  0  0  0  0
    5.1450   -6.6540   21.1880 O   0  0  0  0  0  0  0  0  0  0  0  0
  1  2  2  0
  2  3  1  0
  3  4  1  0
  5  2  1  6
  5  6  1  0
  6  7  1  0
  7  8  1  0
  9  8  1  0
  9 10  2  0
  9 11  2  0
 12  9  1  6
 12 13  1  0
 13 14  1  0
 14 15  1  0
 15 16  1  0
 12 17  1  0
 16 17  1  0
 17 18  1  6
  8 19  1  0
  5 20  1  0
 19 20  1  0
 20 21  2  0
M  END
