DEM-REL-172c3d60-3
     RDKit          3D

 23 25  0  0  0  0  0  0  0  0999 V2000
    4.7600   -7.8690   31.3780 O   0  0  0  0  0  0  0  0  0  0  0  0
    4.3790   -7.2590   30.3920 C   0  0  0  0  0  0  0  0  0  0  0  0
    3.4570   -7.8780   29.4180 C   0  0  0  0  0  0  0  0  0  0  0  0
    3.4780   -7.4340   28.1090 C   0  0  0  0  0  0  0  0  0  0  0  0
    4.3720   -6.4190   27.8010 C   0  0  0  0  0  0  0  0  0  0  0  0
    4.4000   -5.4300   28.7810 C   0  0  2  0  0  0  0  0  0  0  0  0
    5.0050   -4.2210   28.4800 C   0  0  1  0  0  0  0  0  0  0  0  0
    5.9430   -3.7070   29.4570 N   0  0  0  0  0  0  0  0  0  0  0  0
    6.1570   -2.3410   29.5700 C   0  0  0  0  0  0  0  0  0  0  0  0
    7.1390   -1.8160   29.0510 O   0  0  0  0  0  0  0  0  0  0  0  0
    5.1740   -1.6010   30.3510 C   0  0  0  0  0  0  0  0  0  0  0  0
    5.2480   -0.2960   31.0940 C   0  0  0  0  0  0  0  0  0  0  0  0
    3.9630    0.0960   31.7840 C   0  0  0  0  0  0  0  0  0  0  0  0
    3.0110   -0.8800   31.5480 C   0  0  0  0  0  0  0  0  0  0  0  0
    3.5730   -2.1980   30.5700 S   0  0  0  0  0  0  0  0  0  0  0  0
    5.6600   -4.0830   27.1260 C   0  0  0  0  0  0  0  0  0  0  0  0
    5.7400   -5.0300   26.1020 C   0  0  0  0  0  0  0  0  0  0  0  0
    6.4080   -3.9920   25.4870 C   0  0  0  0  0  0  0  0  0  0  0  0
    7.0190   -3.4920   24.5370 C   0  0  0  0  0  0  0  0  0  0  0  0
    7.4310   -3.8240   23.3040 F   0  0  0  0  0  0  0  0  0  0  0  0
    7.0550   -2.4300   25.3970 C   0  0  0  0  0  0  0  0  0  0  0  0
    6.3490   -2.7640   26.7180 C   0  0  0  0  0  0  0  0  0  0  0  0
    4.7750   -5.9890   30.0840 N   0  0  0  0  0  0  0  0  0  0  0  0
  1  2  2  0
  2  3  1  0
  3  4  2  0
  4  5  1  0
  6  5  1  6
  6  7  1  0
  7  8  1  1
  8  9  1  0
  9 10  2  0
  9 11  1  0
 11 12  2  0
 12 13  1  0
 13 14  2  0
 11 15  1  0
 14 15  1  0
  7 16  1  0
 16 17  2  0
 17 18  1  0
 18 19  2  0
 19 20  1  0
 19 21  1  0
 16 22  1  0
 21 22  2  0
  2 23  1  0
  6 23  1  0
M  END
