DEM-REL-172c3d60-5
     RDKit          3D

 23 25  0  0  0  0  0  0  0  0999 V2000
    7.6860   -0.7890   28.8500 O   0  0  0  0  0  0  0  0  0  0  0  0
    7.8020   -1.2860   27.7420 C   0  0  0  0  0  0  0  0  0  0  0  0
    7.6190   -2.7600   27.5140 C   0  0  0  0  0  0  0  0  0  0  0  0
    7.8840   -3.3760   26.2990 C   0  0  0  0  0  0  0  0  0  0  0  0
    8.3940   -2.5290   25.1050 C   0  0  0  0  0  0  0  0  0  0  0  0
    8.8530   -1.2330   25.4380 C   0  0  1  0  0  0  0  0  0  0  0  0
    9.1570   -0.3030   24.3260 C   0  0  2  0  0  0  0  0  0  0  0  0
    7.9380    0.3840   23.8760 N   0  0  0  0  0  0  0  0  0  0  0  0
    7.3910    0.2700   22.4880 C   0  0  0  0  0  0  0  0  0  0  0  0
    7.6760    1.1040   21.6200 O   0  0  0  0  0  0  0  0  0  0  0  0
    6.5180   -0.8600   22.2700 C   0  0  0  0  0  0  0  0  0  0  0  0
    6.4150   -1.4370   21.0300 C   0  0  0  0  0  0  0  0  0  0  0  0
    5.4500   -2.6100   20.9990 C   0  0  0  0  0  0  0  0  0  0  0  0
    4.8860   -2.7890   22.3690 C   0  0  0  0  0  0  0  0  0  0  0  0
    5.5180   -1.6230   23.4710 S   0  0  0  0  0  0  0  0  0  0  0  0
    9.8800   -0.9880   23.1360 C   0  0  0  0  0  0  0  0  0  0  0  0
    9.0990   -1.9110   22.4390 C   0  0  0  0  0  0  0  0  0  0  0  0
   10.3600   -1.7350   21.9990 C   0  0  0  0  0  0  0  0  0  0  0  0
   10.5400   -0.7160   23.1120 C   0  0  0  0  0  0  0  0  0  0  0  0
   11.7440   -0.7290   22.4940 F   0  0  0  0  0  0  0  0  0  0  0  0
   11.4930    0.1630   23.6660 C   0  0  0  0  0  0  0  0  0  0  0  0
   11.2840   -0.7180   22.7330 C   0  0  0  0  0  0  0  0  0  0  0  0
    8.1290   -0.5510   26.4940 N   0  0  0  0  0  0  0  0  0  0  0  0
  1  2  2  0
  2  3  1  0
  3  4  2  0
  4  5  1  0
  6  5  1  6
  6  7  1  0
  7  8  1  6
  8  9  1  0
  9 10  2  0
  9 11  1  0
 11 12  2  0
 12 13  1  0
 13 14  2  0
 11 15  1  0
 14 15  1  0
  7 16  1  0
 16 17  2  0
 17 18  1  0
 18 19  2  0
 19 20  1  0
 19 21  1  0
 16 22  1  0
 21 22  2  0
  2 23  1  0
  6 23  1  0
M  END
