DOU-UNK-b5326f8f-6
     RDKit          3D

 28 30  0  0  0  0  0  0  0  0999 V2000
    7.1510   -2.3090   19.4340 C   0  0  0  0  0  0  0  0  0  0  0  0
    6.1780   -3.0770   20.2250 C   0  0  0  0  0  0  0  0  0  0  0  0
    5.4140   -3.8990   19.6930 O   0  0  0  0  0  0  0  0  0  0  0  0
    6.1770   -2.8410   21.5950 N   0  0  0  0  0  0  0  0  0  0  0  0
    6.5550   -3.9440   22.4790 C   0  0  0  0  0  0  0  0  0  0  0  0
    7.6350   -3.6110   23.3130 C   0  0  0  0  0  0  0  0  0  0  0  0
    8.6590   -2.7020   22.7330 N   0  0  0  0  0  0  0  0  0  0  0  0
    9.5380   -2.2910   23.8050 C   0  0  2  0  0  0  0  0  0  0  0  0
    8.6520   -1.7050   24.7470 O   0  0  0  0  0  0  0  0  0  0  0  0
   10.6560   -1.3270   23.5160 C   0  0  0  0  0  0  0  0  0  0  0  0
   10.4100    0.0720   23.1430 C   0  0  0  0  0  0  0  0  0  0  0  0
   11.7460    0.6940   22.9410 C   0  0  0  0  0  0  0  0  0  0  0  0
   13.0670   -0.0450   23.1090 C   0  0  0  0  0  0  0  0  0  0  0  0
   12.3380   -1.5960   23.5460 S   0  0  0  0  0  0  0  0  0  0  0  0
    8.0460   -1.5940   22.0810 C   0  0  0  0  0  0  0  0  0  0  0  0
    6.6590   -1.5570   22.1690 C   0  0  1  0  0  0  0  0  0  0  0  0
    5.8930   -0.3940   21.9350 C   0  0  0  0  0  0  0  0  0  0  0  0
    6.0430    0.1490   20.5800 N   0  0  0  0  0  0  0  0  0  0  0  0
    5.0400   -0.3880   19.3440 S   0  0  0  0  0  0  0  0  0  0  0  0
    4.0270    0.6290   19.1690 O   0  0  0  0  0  0  0  0  0  0  0  0
    4.7490   -1.7690   19.5890 O   0  0  0  0  0  0  0  0  0  0  0  0
    6.1750   -0.3200   18.0100 C   0  0  0  0  0  0  0  0  0  0  0  0
    6.5180    0.9280   17.5590 C   0  0  0  0  0  0  0  0  0  0  0  0
    7.4130    1.0220   16.5410 C   0  0  0  0  0  0  0  0  0  0  0  0
    7.9730   -0.0880   15.9600 C   0  0  0  0  0  0  0  0  0  0  0  0
    8.8690    0.1600   14.9540 C   0  0  0  0  0  0  0  0  0  0  0  0
    7.6290   -1.3620   16.4010 C   0  0  0  0  0  0  0  0  0  0  0  0
    6.7160   -1.4780   17.4440 C   0  0  0  0  0  0  0  0  0  0  0  0
  1  2  1  0
  2  3  2  0
  2  4  1  0
  4  5  1  0
  5  6  1  0
  6  7  1  0
  7  8  1  0
  8  9  1  1
  8 10  1  0
 10 11  2  0
 11 12  1  0
 12 13  2  0
 10 14  1  0
 13 14  1  0
  7 15  1  0
  4 16  1  0
 15 16  1  0
 16 17  1  6
 17 18  1  0
 19 18  1  0
 19 20  2  0
 19 21  2  0
 19 22  1  0
 22 23  2  0
 23 24  1  0
 24 25  2  0
 25 26  1  0
 25 27  1  0
 22 28  1  0
 27 28  2  0
M  END
