DRA-CSI-3ab97369-7
     RDKit          3D

 36 40  0  0  0  0  0  0  0  0999 V2000
    6.0860   -6.4440   21.9270 C   0  0  0  0  0  0  0  0  0  0  0  0
    5.6200   -5.2460   22.5170 O   0  0  0  0  0  0  0  0  0  0  0  0
    5.5390   -4.1680   21.6900 C   0  0  0  0  0  0  0  0  0  0  0  0
    5.4310   -4.3020   20.2980 C   0  0  0  0  0  0  0  0  0  0  0  0
    5.3350   -3.2040   19.4030 C   0  0  0  0  0  0  0  0  0  0  0  0
    5.3510   -1.9130   19.8430 C   0  0  0  0  0  0  0  0  0  0  0  0
    5.2590   -0.7860   19.0060 C   0  0  0  0  0  0  0  0  0  0  0  0
    4.5620   -0.3450   17.9870 N   0  0  0  0  0  0  0  0  0  0  0  0
    5.2280    0.7500   18.1920 C   0  0  0  0  0  0  0  0  0  0  0  0
    5.7420   -0.2550   19.0080 C   0  0  0  0  0  0  0  0  0  0  0  0
    6.4890   -1.0000   19.9470 C   0  0  0  0  0  0  0  0  0  0  0  0
    7.2530    0.1020   20.3050 C   0  0  0  0  0  0  0  0  0  0  0  0
    8.2230   -0.2400   21.2900 N   0  0  0  0  0  0  0  0  0  0  0  0
    8.6810    0.7970   22.0270 C   0  0  0  0  0  0  0  0  0  0  0  0
    8.8450    1.9250   21.6050 O   0  0  0  0  0  0  0  0  0  0  0  0
    9.0090    0.7070   23.4880 C   0  0  0  0  0  0  0  0  0  0  0  0
    8.3660   -0.6220   23.9060 C   0  0  0  0  0  0  0  0  0  0  0  0
    9.2900   -1.6560   23.8220 C   0  0  0  0  0  0  0  0  0  0  0  0
   10.4010   -1.3790   24.7450 N   0  0  0  0  0  0  0  0  0  0  0  0
   11.6980   -2.4260   24.6680 S   0  0  0  0  0  0  0  0  0  0  0  0
   11.1650   -3.7200   24.4040 O   0  0  0  0  0  0  0  0  0  0  0  0
   12.7380   -2.1430   25.6060 O   0  0  0  0  0  0  0  0  0  0  0  0
   12.3940   -1.8280   23.2630 C   0  0  0  0  0  0  0  0  0  0  0  0
   12.1710   -2.5420   22.1620 C   0  0  0  0  0  0  0  0  0  0  0  0
   12.6850   -2.2540   20.9700 C   0  0  0  0  0  0  0  0  0  0  0  0
   13.5460   -1.0490   20.8700 C   0  0  0  0  0  0  0  0  0  0  0  0
   13.7440   -0.2300   22.1210 C   0  0  0  0  0  0  0  0  0  0  0  0
   13.2120   -0.5740   23.3040 C   0  0  0  0  0  0  0  0  0  0  0  0
   10.7600    0.0040   24.8860 C   0  0  0  0  0  0  0  0  0  0  0  0
   10.5090    0.6200   23.6900 C   0  0  0  0  0  0  0  0  0  0  0  0
    7.1320    1.3860   19.7920 C   0  0  0  0  0  0  0  0  0  0  0  0
    6.1730    1.3830   18.8660 C   0  0  0  0  0  0  0  0  0  0  0  0
    6.1700    0.1360   19.4410 O   0  0  0  0  0  0  0  0  0  0  0  0
    5.4630   -1.7110   21.2440 C   0  0  0  0  0  0  0  0  0  0  0  0
    5.5070   -0.0030   22.1130 Br  0  0  0  0  0  0  0  0  0  0  0  0
    5.5570   -2.8860   22.1880 C   0  0  0  0  0  0  0  0  0  0  0  0
  1  2  1  0
  2  3  1  0
  3  4  2  0
  4  5  1  0
  5  6  2  0
  6  7  1  0
  7  8  2  0
  8  9  1  0
  9 10  2  0
 10 11  1  0
 11 12  2  0
 12 13  1  0
 13 14  1  0
 14 15  2  0
 14 16  1  0
 16 17  1  0
 17 18  1  0
 18 19  1  0
 19 20  1  0
 20 21  2  0
 20 22  2  0
 20 23  1  0
 23 24  2  0
 24 25  1  0
 25 26  2  0
 26 27  1  0
 23 28  1  0
 27 28  2  0
 19 29  1  0
 16 30  1  0
 29 30  1  0
 12 31  1  0
  9 32  1  0
 31 32  2  0
  7 33  1  0
 32 33  1  0
  6 34  1  0
 34 35  1  0
  3 36  1  0
 34 36  2  0
M  END
