DRA-CSI-7ec17797-19
     RDKit          3D

 36 40  0  0  0  0  0  0  0  0999 V2000
    8.1430    3.7170   21.7570 C   0  0  0  0  0  0  0  0  0  0  0  0
    8.2470    2.6170   20.8480 O   0  0  0  0  0  0  0  0  0  0  0  0
    8.2010    1.4240   21.4610 C   0  0  0  0  0  0  0  0  0  0  0  0
    8.7650    1.3550   22.7180 C   0  0  0  0  0  0  0  0  0  0  0  0
    8.7750    0.1850   23.4240 C   0  0  0  0  0  0  0  0  0  0  0  0
    8.2180   -0.9600   22.8910 C   0  0  0  0  0  0  0  0  0  0  0  0
    8.3360   -2.0330   23.7230 C   0  0  0  0  0  0  0  0  0  0  0  0
    9.4520   -1.9350   23.9330 N   0  0  0  0  0  0  0  0  0  0  0  0
    8.6190   -2.9700   24.5450 C   0  0  0  0  0  0  0  0  0  0  0  0
    8.5820   -3.7500   25.1640 C   0  0  0  0  0  0  0  0  0  0  0  0
    8.9300   -4.4550   25.8230 C   0  0  0  0  0  0  0  0  0  0  0  0
   10.3370   -4.1580   25.9410 C   0  0  0  0  0  0  0  0  0  0  0  0
   11.5270   -3.2740   25.5280 N   0  0  0  0  0  0  0  0  0  0  0  0
   12.9010   -3.5740   25.7650 C   0  0  0  0  0  0  0  0  0  0  0  0
   13.9010   -2.8990   25.5680 O   0  0  0  0  0  0  0  0  0  0  0  0
   13.0940   -4.9230   26.3700 C   0  0  0  0  0  0  0  0  0  0  0  0
   14.3130   -6.0370   26.0140 C   0  0  0  0  0  0  0  0  0  0  0  0
   14.8770   -7.9960   26.3550 C   0  0  0  0  0  0  0  0  0  0  0  0
   15.8140   -8.6710   24.9100 N   0  0  0  0  0  0  0  0  0  0  0  0
   17.1130   -9.7470   24.3290 S   0  0  0  0  0  0  0  0  0  0  0  0
   16.2500   -9.0100   25.1390 O   0  0  0  0  0  0  0  0  0  0  0  0
   18.4020   -9.5890   24.3240 O   0  0  0  0  0  0  0  0  0  0  0  0
   16.9860  -11.4030   23.9910 C   0  0  0  0  0  0  0  0  0  0  0  0
   17.7710  -11.9670   24.1610 C   0  0  0  0  0  0  0  0  0  0  0  0
   17.9900  -13.1400   24.0980 C   0  0  0  0  0  0  0  0  0  0  0  0
   16.9920  -14.5820   23.7170 C   0  0  0  0  0  0  0  0  0  0  0  0
   16.8400  -16.3590   23.0730 C   0  0  0  0  0  0  0  0  0  0  0  0
   16.2200  -13.8560   23.8600 C   0  0  0  0  0  0  0  0  0  0  0  0
   16.2870  -12.0280   23.8800 C   0  0  0  0  0  0  0  0  0  0  0  0
   15.3840   -6.8450   24.5840 C   0  0  0  0  0  0  0  0  0  0  0  0
   14.4370   -5.4850   25.8230 C   0  0  0  0  0  0  0  0  0  0  0  0
    9.7830   -4.9770   26.4650 C   0  0  0  0  0  0  0  0  0  0  0  0
    9.7110   -3.6180   25.3470 C   0  0  0  0  0  0  0  0  0  0  0  0
    9.5310   -2.5770   24.4600 O   0  0  0  0  0  0  0  0  0  0  0  0
    7.6340   -0.9320   21.6250 C   0  0  0  0  0  0  0  0  0  0  0  0
    7.6260    0.2650   20.9080 C   0  0  0  0  0  0  0  0  0  0  0  0
  1  2  1  0
  2  3  1  0
  3  4  2  0
  4  5  1  0
  5  6  2  0
  6  7  1  0
  7  8  2  0
  8  9  1  0
  9 10  2  0
 10 11  1  0
 11 12  2  0
 12 13  1  0
 13 14  1  0
 14 15  2  0
 14 16  1  0
 16 17  1  0
 17 18  1  0
 18 19  1  0
 19 20  1  0
 20 21  2  0
 20 22  2  0
 20 23  1  0
 23 24  2  0
 24 25  1  0
 25 26  2  0
 26 27  1  0
 26 28  1  0
 23 29  1  0
 28 29  2  0
 19 30  1  0
 16 31  1  0
 30 31  1  0
 12 32  1  0
  9 33  1  0
 32 33  2  0
  7 34  1  0
 33 34  1  0
  6 35  1  0
  3 36  1  0
 35 36  2  0
M  END
