DRA-CSI-0a78d9ba-15
     RDKit          3D

 38 42  0  0  0  0  0  0  0  0999 V2000
   -4.3340   -7.5440   26.9870 C   0  0  0  0  0  0  0  0  0  0  0  0
   -3.6610   -8.5600   26.8420 O   0  0  0  0  0  0  0  0  0  0  0  0
   -2.5410   -8.4560   26.0650 C   0  0  0  0  0  0  0  0  0  0  0  0
   -2.7690   -8.1260   24.7850 C   0  0  0  0  0  0  0  0  0  0  0  0
   -1.6610   -7.9720   23.8010 C   0  0  0  0  0  0  0  0  0  0  0  0
   -0.2400   -8.1980   24.2730 C   0  0  0  0  0  0  0  0  0  0  0  0
    0.9310   -8.0430   23.2800 C   0  0  0  0  0  0  0  0  0  0  0  0
    1.0190   -8.6760   22.1140 N   0  0  0  0  0  0  0  0  0  0  0  0
    2.2030   -8.2760   21.5390 C   0  0  0  0  0  0  0  0  0  0  0  0
    2.9940   -8.6410   20.1120 C   0  0  0  0  0  0  0  0  0  0  0  0
    2.3020   -9.7020   19.0550 Cl  0  0  0  0  0  0  0  0  0  0  0  0
    4.6560   -7.6690   19.9880 N   0  0  0  0  0  0  0  0  0  0  0  0
    5.0010   -6.6790   21.2070 C   0  0  0  0  0  0  0  0  0  0  0  0
    6.1660   -5.7740   21.1810 N   0  0  0  0  0  0  0  0  0  0  0  0
    6.0570   -4.4310   20.7000 C   0  0  0  0  0  0  0  0  0  0  0  0
    5.5590   -4.0430   19.6320 O   0  0  0  0  0  0  0  0  0  0  0  0
    6.6810   -3.4370   21.6420 C   0  0  0  0  0  0  0  0  0  0  0  0
    6.1610   -3.3120   22.9070 C   0  0  0  0  0  0  0  0  0  0  0  0
    7.0670   -2.9550   23.8880 C   0  0  0  0  0  0  0  0  0  0  0  0
    8.0280   -2.1220   23.3870 N   0  0  0  0  0  0  0  0  0  0  0  0
    9.3460   -2.7510   23.3040 C   0  0  0  0  0  0  0  0  0  0  0  0
   10.2630   -1.7570   23.1670 C   0  0  0  0  0  0  0  0  0  0  0  0
    9.7550   -0.4860   23.3720 C   0  0  0  0  0  0  0  0  0  0  0  0
   10.6440    0.7020   23.2490 C   0  0  0  0  0  0  0  0  0  0  0  0
   12.0990    0.4950   22.9150 C   0  0  0  0  0  0  0  0  0  0  0  0
   12.9130    1.6540   22.8460 N   0  0  0  0  0  0  0  0  0  0  0  0
   12.3530    2.7430   22.6470 O   0  0  0  0  0  0  0  0  0  0  0  0
   14.0920    1.4060   22.6810 O   0  0  0  0  0  0  0  0  0  0  0  0
   12.6220   -0.9270   22.6820 C   0  0  0  0  0  0  0  0  0  0  0  0
   11.5960   -2.0390   22.8360 C   0  0  0  0  0  0  0  0  0  0  0  0
    7.7130   -1.3200   22.1580 C   0  0  0  0  0  0  0  0  0  0  0  0
    6.8320   -2.0150   21.1400 C   0  0  0  0  0  0  0  0  0  0  0  0
    4.1320   -6.5630   22.3440 N   0  0  0  0  0  0  0  0  0  0  0  0
    2.8810   -7.3050   22.4440 C   0  0  0  0  0  0  0  0  0  0  0  0
    2.0200   -7.2230   23.5000 N   0  0  0  0  0  0  0  0  0  0  0  0
    2.2450   -6.3930   24.6540 C   0  0  0  0  0  0  0  0  0  0  0  0
   -0.0890   -8.5410   25.6280 C   0  0  0  0  0  0  0  0  0  0  0  0
   -1.2110   -8.6650   26.4940 C   0  0  0  0  0  0  0  0  0  0  0  0
  1  2  1  0
  2  3  1  0
  3  4  2  0
  4  5  1  0
  5  6  2  0
  6  7  1  0
  7  8  2  0
  8  9  1  0
  9 10  2  0
 10 11  1  0
 10 12  1  0
 12 13  2  0
 13 14  1  0
 14 15  1  0
 15 16  2  0
 15 17  1  0
 17 18  1  0
 18 19  1  0
 19 20  1  0
 20 21  1  0
 21 22  1  0
 22 23  2  0
 23 24  1  0
 24 25  2  0
 25 26  1  0
 26 27  2  0
 26 28  1  0
 25 29  1  0
 22 30  1  0
 29 30  2  0
 20 31  1  0
 17 32  1  0
 31 32  1  0
 13 33  1  0
  9 34  1  0
 33 34  2  0
  7 35  1  0
 34 35  1  0
 35 36  1  0
  6 37  1  0
  3 38  1  0
 37 38  2  0
M  CHG  2  26   1  28  -1
M  END
