DRA-CSI-47e38074-13
     RDKit          3D

 23 25  0  0  0  0  0  0  0  0999 V2000
    0.8140   -1.8410   28.8770 C   0  0  0  0  0  0  0  0  0  0  0  0
    1.1090   -2.5140   27.6620 O   0  0  0  0  0  0  0  0  0  0  0  0
    2.4050   -2.4590   27.2080 C   0  0  0  0  0  0  0  0  0  0  0  0
    3.4040   -3.2670   27.6030 C   0  0  0  0  0  0  0  0  0  0  0  0
    4.8380   -3.2280   27.1180 C   0  0  0  0  0  0  0  0  0  0  0  0
    5.1160   -2.1410   26.0790 C   0  0  0  0  0  0  0  0  0  0  0  0
    6.5340   -2.0590   25.5690 C   0  0  0  0  0  0  0  0  0  0  0  0
    7.4290   -1.6370   26.2770 O   0  0  0  0  0  0  0  0  0  0  0  0
    6.7100   -2.5080   24.1900 N   0  0  0  0  0  0  0  0  0  0  0  0
    7.9650   -2.3340   23.6090 C   0  0  0  0  0  0  0  0  0  0  0  0
    7.8920   -1.5160   22.2870 C   0  0  0  0  0  0  0  0  0  0  0  0
    6.7810   -1.5540   21.4850 C   0  0  0  0  0  0  0  0  0  0  0  0
    5.8880   -0.3060   21.6740 C   0  0  0  0  0  0  0  0  0  0  0  0
    5.6440    0.3180   20.4740 C   0  0  0  0  0  0  0  0  0  0  0  0
    4.3010    0.9820   20.1970 C   0  0  0  0  0  0  0  0  0  0  0  0
    4.1150    1.5940   18.9650 C   0  0  0  0  0  0  0  0  0  0  0  0
    5.1480    1.5800   18.0500 C   0  0  0  0  0  0  0  0  0  0  0  0
    6.3750    0.9870   18.2840 C   0  0  0  0  0  0  0  0  0  0  0  0
    6.6440    0.3510   19.4800 C   0  0  0  0  0  0  0  0  0  0  0  0
    5.9900   -2.8030   21.9640 C   0  0  0  0  0  0  0  0  0  0  0  0
    5.5550   -2.6340   23.2740 C   0  0  0  0  0  0  0  0  0  0  0  0
    4.0490   -1.2500   25.6340 C   0  0  0  0  0  0  0  0  0  0  0  0
    2.6610   -1.4600   26.2530 C   0  0  0  0  0  0  0  0  0  0  0  0
  1  2  1  0
  2  3  1  0
  3  4  2  0
  4  5  1  0
  5  6  2  0
  6  7  1  0
  7  8  2  0
  7  9  1  0
  9 10  1  0
 10 11  1  0
 11 12  1  0
 12 13  1  0
 13 14  1  0
 14 15  2  0
 15 16  1  0
 16 17  2  0
 17 18  1  0
 14 19  1  0
 18 19  2  0
 12 20  1  0
  9 21  1  0
 20 21  1  0
  6 22  1  0
  3 23  1  0
 22 23  2  0
M  END
