DRA-CSI-0a78d9ba-3
     RDKit          3D

 36 40  0  0  0  0  0  0  0  0999 V2000
    0.8580  -12.6660   29.0010 C   0  0  0  0  0  0  0  0  0  0  0  0
    0.1660  -11.4400   28.8250 O   0  0  0  0  0  0  0  0  0  0  0  0
    0.7530  -10.5480   27.9720 C   0  0  0  0  0  0  0  0  0  0  0  0
    1.1450   -9.2140   28.5780 C   0  0  0  0  0  0  0  0  0  0  0  0
    1.8190   -8.1280   27.7330 C   0  0  0  0  0  0  0  0  0  0  0  0
    2.0520   -8.4880   26.2870 C   0  0  0  0  0  0  0  0  0  0  0  0
    2.7030   -7.4870   25.3540 C   0  0  0  0  0  0  0  0  0  0  0  0
    2.4210   -6.1900   25.3000 N   0  0  0  0  0  0  0  0  0  0  0  0
    3.1740   -5.6640   24.3350 C   0  0  0  0  0  0  0  0  0  0  0  0
    3.2280   -4.3470   23.8930 C   0  0  0  0  0  0  0  0  0  0  0  0
    4.0930   -4.0180   22.8350 C   0  0  0  0  0  0  0  0  0  0  0  0
    4.9580   -5.0150   22.1720 C   0  0  0  0  0  0  0  0  0  0  0  0
    5.7780   -4.5580   21.0940 N   0  0  0  0  0  0  0  0  0  0  0  0
    5.7420   -3.3350   20.4340 C   0  0  0  0  0  0  0  0  0  0  0  0
    5.5610   -3.2030   19.2190 O   0  0  0  0  0  0  0  0  0  0  0  0
    5.9430   -2.2610   21.2950 C   0  0  0  0  0  0  0  0  0  0  0  0
    6.1100   -2.5600   22.7560 C   0  0  0  0  0  0  0  0  0  0  0  0
    7.1720   -3.3960   23.0720 C   0  0  0  0  0  0  0  0  0  0  0  0
    8.4430   -2.9100   22.5540 N   0  0  0  0  0  0  0  0  0  0  0  0
    9.4370   -2.8090   23.6190 C   0  0  0  0  0  0  0  0  0  0  0  0
   10.2980   -1.7700   23.3660 C   0  0  0  0  0  0  0  0  0  0  0  0
    9.7450   -0.5300   23.5150 C   0  0  0  0  0  0  0  0  0  0  0  0
   10.5150    0.7360   23.2770 C   0  0  0  0  0  0  0  0  0  0  0  0
   11.9410    0.6010   22.8740 C   0  0  0  0  0  0  0  0  0  0  0  0
   12.6560    1.8190   22.6820 N   0  0  0  0  0  0  0  0  0  0  0  0
   12.0760    2.8710   22.9930 O   0  0  0  0  0  0  0  0  0  0  0  0
   13.8550    1.6640   22.7350 O   0  0  0  0  0  0  0  0  0  0  0  0
   12.5600   -0.7860   22.6970 C   0  0  0  0  0  0  0  0  0  0  0  0
   11.6320   -1.9690   22.9750 C   0  0  0  0  0  0  0  0  0  0  0  0
    8.3790   -1.6340   21.7980 C   0  0  0  0  0  0  0  0  0  0  0  0
    7.1690   -1.4330   20.8680 C   0  0  0  0  0  0  0  0  0  0  0  0
    4.9330   -6.3540   22.6170 C   0  0  0  0  0  0  0  0  0  0  0  0
    3.9590   -6.6500   23.7690 C   0  0  0  0  0  0  0  0  0  0  0  0
    3.6750   -7.8560   24.4300 O   0  0  0  0  0  0  0  0  0  0  0  0
    1.6450   -9.7610   25.8200 C   0  0  0  0  0  0  0  0  0  0  0  0
    1.0240  -10.7530   26.6190 C   0  0  0  0  0  0  0  0  0  0  0  0
  1  2  1  0
  2  3  1  0
  3  4  2  0
  4  5  1  0
  5  6  2  0
  6  7  1  0
  7  8  2  0
  8  9  1  0
  9 10  2  0
 10 11  1  0
 11 12  2  0
 12 13  1  0
 13 14  1  0
 14 15  2  0
 14 16  1  0
 16 17  1  0
 17 18  1  0
 18 19  1  0
 19 20  1  0
 20 21  1  0
 21 22  2  0
 22 23  1  0
 23 24  2  0
 24 25  1  0
 25 26  2  0
 25 27  1  0
 24 28  1  0
 21 29  1  0
 28 29  2  0
 19 30  1  0
 16 31  1  0
 30 31  1  0
 12 32  1  0
  9 33  1  0
 32 33  2  0
  7 34  1  0
 33 34  1  0
  6 35  1  0
  3 36  1  0
 35 36  2  0
M  CHG  2  25   1  27  -1
M  END
