DRA-CSI-47e38074-12
     RDKit          3D

 19 20  0  0  0  0  0  0  0  0999 V2000
    4.1450   -6.1150   22.9980 C   0  0  0  0  0  0  0  0  0  0  0  0
    5.3630   -5.4150   22.3920 C   0  0  0  0  0  0  0  0  0  0  0  0
    6.6050   -6.0640   22.3280 C   0  0  0  0  0  0  0  0  0  0  0  0
    5.7430   -6.1030   21.1330 C   0  0  0  0  0  0  0  0  0  0  0  0
    5.4590   -3.9530   22.1350 C   0  0  0  0  0  0  0  0  0  0  0  0
    4.6340   -3.4260   21.4260 O   0  0  0  0  0  0  0  0  0  0  0  0
    6.4710   -3.2010   22.7070 N   0  0  0  0  0  0  0  0  0  0  0  0
    6.7650   -3.2260   24.0210 C   0  0  0  0  0  0  0  0  0  0  0  0
    7.3950   -2.1260   24.5180 C   0  0  0  0  0  0  0  0  0  0  0  0
    8.5880   -1.9220   23.8810 C   0  0  0  0  0  0  0  0  0  0  0  0
    9.8470   -2.3830   23.5550 C   0  0  0  0  0  0  0  0  0  0  0  0
   10.8180   -1.4100   23.4470 C   0  0  0  0  0  0  0  0  0  0  0  0
   10.5960   -0.1760   24.0950 C   0  0  0  0  0  0  0  0  0  0  0  0
   11.7160    0.8460   23.9070 C   0  0  0  0  0  0  0  0  0  0  0  0
   12.9050    0.4270   23.0750 C   0  0  0  0  0  0  0  0  0  0  0  0
   12.9850   -0.8170   22.5110 C   0  0  0  0  0  0  0  0  0  0  0  0
   11.9690   -1.7170   22.6880 C   0  0  0  0  0  0  0  0  0  0  0  0
    8.2080   -1.6120   22.3900 C   0  0  0  0  0  0  0  0  0  0  0  0
    6.9050   -1.9570   22.0490 C   0  0  0  0  0  0  0  0  0  0  0  0
  1  2  1  0
  2  3  1  0
  2  4  1  0
  2  5  1  0
  5  6  2  0
  5  7  1  0
  7  8  1  0
  8  9  1  0
  9 10  1  0
 10 11  1  0
 11 12  1  0
 12 13  2  0
 13 14  1  0
 14 15  2  0
 15 16  1  0
 12 17  1  0
 16 17  2  0
 10 18  1  0
  7 19  1  0
 18 19  1  0
M  END
