DRA-CSI-7ec17797-1
     RDKit          3D

 34 38  0  0  0  0  0  0  0  0999 V2000
   12.8230   12.2140   28.2690 C   0  0  0  0  0  0  0  0  0  0  0  0
   13.0380   10.8780   28.7280 O   0  0  0  0  0  0  0  0  0  0  0  0
   12.5210    9.8720   27.9600 C   0  0  0  0  0  0  0  0  0  0  0  0
   11.8690   10.0230   26.6680 C   0  0  0  0  0  0  0  0  0  0  0  0
   11.3850    8.8900   26.0050 C   0  0  0  0  0  0  0  0  0  0  0  0
   11.5240    7.6160   26.5750 C   0  0  0  0  0  0  0  0  0  0  0  0
   11.0250    6.5170   25.9040 C   0  0  0  0  0  0  0  0  0  0  0  0
    9.7520    5.9720   26.2700 N   0  0  0  0  0  0  0  0  0  0  0  0
    9.5960    4.9230   25.4030 C   0  0  0  0  0  0  0  0  0  0  0  0
    8.3630    4.0510   25.4360 C   0  0  0  0  0  0  0  0  0  0  0  0
    8.4320    2.9550   24.3690 C   0  0  0  0  0  0  0  0  0  0  0  0
    9.6610    2.9070   23.4880 C   0  0  0  0  0  0  0  0  0  0  0  0
    9.8270    1.9760   22.5200 N   0  0  0  0  0  0  0  0  0  0  0  0
   10.1640    0.5870   22.8810 C   0  0  0  0  0  0  0  0  0  0  0  0
   11.2190    0.1500   23.3150 O   0  0  0  0  0  0  0  0  0  0  0  0
    9.2160   -0.4210   22.6330 C   0  0  0  0  0  0  0  0  0  0  0  0
    8.3170   -0.9620   23.7460 C   0  0  0  0  0  0  0  0  0  0  0  0
    7.6210   -2.2570   23.2500 C   0  0  0  0  0  0  0  0  0  0  0  0
    7.8250   -2.4210   21.9070 N   0  0  0  0  0  0  0  0  0  0  0  0
    6.6230   -2.5670   21.0460 C   0  0  0  0  0  0  0  0  0  0  0  0
    5.9400   -3.5990   20.8950 O   0  0  0  0  0  0  0  0  0  0  0  0
    6.2340   -1.3020   20.2810 C   0  0  0  0  0  0  0  0  0  0  0  0
    6.5370   -0.0010   21.0200 C   0  0  0  0  0  0  0  0  0  0  0  0
    6.2040    1.2370   20.3750 C   0  0  0  0  0  0  0  0  0  0  0  0
    5.5550    1.2330   18.9780 C   0  0  0  0  0  0  0  0  0  0  0  0
    5.2730   -0.0890   18.2870 C   0  0  0  0  0  0  0  0  0  0  0  0
    5.6550   -1.3660   19.0240 C   0  0  0  0  0  0  0  0  0  0  0  0
    9.1960   -2.1910   21.4080 C   0  0  0  0  0  0  0  0  0  0  0  0
   10.0120   -1.6360   22.3110 C   0  0  0  0  0  0  0  0  0  0  0  0
   10.7570    3.8210   23.5860 C   0  0  0  0  0  0  0  0  0  0  0  0
   10.7060    4.8330   24.5600 C   0  0  0  0  0  0  0  0  0  0  0  0
   11.6300    5.8390   24.8620 O   0  0  0  0  0  0  0  0  0  0  0  0
   12.1560    7.4870   27.8180 C   0  0  0  0  0  0  0  0  0  0  0  0
   12.6480    8.5960   28.5010 C   0  0  0  0  0  0  0  0  0  0  0  0
  1  2  1  0
  2  3  1  0
  3  4  2  0
  4  5  1  0
  5  6  2  0
  6  7  1  0
  7  8  2  0
  8  9  1  0
  9 10  2  0
 10 11  1  0
 11 12  2  0
 12 13  1  0
 13 14  1  0
 14 15  2  0
 14 16  1  0
 16 17  1  0
 17 18  1  0
 18 19  1  0
 19 20  1  0
 20 21  2  0
 20 22  1  0
 22 23  2  0
 23 24  1  0
 24 25  2  0
 25 26  1  0
 22 27  1  0
 26 27  2  0
 19 28  1  0
 16 29  1  0
 28 29  1  0
 12 30  1  0
  9 31  1  0
 30 31  2  0
  7 32  1  0
 31 32  1  0
  6 33  1  0
  3 34  1  0
 33 34  2  0
M  END
