DRA-CSI-0a78d9ba-14
     RDKit          3D

 30 33  0  0  0  0  0  0  0  0999 V2000
    6.7560   15.7010   23.3740 C   0  0  0  0  0  0  0  0  0  0  0  0
    6.6580   15.0100   24.6190 O   0  0  0  0  0  0  0  0  0  0  0  0
    7.0120   13.6960   24.5470 C   0  0  0  0  0  0  0  0  0  0  0  0
    6.6460   12.9950   23.4190 C   0  0  0  0  0  0  0  0  0  0  0  0
    6.9440   11.6640   23.2190 C   0  0  0  0  0  0  0  0  0  0  0  0
    7.6630   10.9900   24.2240 C   0  0  0  0  0  0  0  0  0  0  0  0
    7.9980    9.5390   24.0010 C   0  0  0  0  0  0  0  0  0  0  0  0
    7.2570    8.7220   23.2700 N   0  0  0  0  0  0  0  0  0  0  0  0
    7.9030    7.5140   23.2930 C   0  0  0  0  0  0  0  0  0  0  0  0
    7.6690    6.1560   22.7080 C   0  0  0  0  0  0  0  0  0  0  0  0
    6.2970    5.8820   21.7590 Cl  0  0  0  0  0  0  0  0  0  0  0  0
    8.5260    5.1450   22.9170 N   0  0  0  0  0  0  0  0  0  0  0  0
    9.6010    5.4100   23.6750 C   0  0  0  0  0  0  0  0  0  0  0  0
   10.5100    4.3850   23.8880 N   0  0  0  0  0  0  0  0  0  0  0  0
   10.9170    3.4180   23.0170 C   0  0  0  0  0  0  0  0  0  0  0  0
   11.9280    3.6530   22.3490 O   0  0  0  0  0  0  0  0  0  0  0  0
   10.2040    2.2150   22.9050 C   0  0  0  0  0  0  0  0  0  0  0  0
   10.8700    0.9980   23.0910 C   0  0  0  0  0  0  0  0  0  0  0  0
   12.2520    0.9310   22.9530 C   0  0  0  0  0  0  0  0  0  0  0  0
   12.9130   -0.2580   23.1580 C   0  0  0  0  0  0  0  0  0  0  0  0
   12.2140   -1.3770   23.5030 C   0  0  0  0  0  0  0  0  0  0  0  0
   13.1060   -2.7900   23.7680 Cl  0  0  0  0  0  0  0  0  0  0  0  0
   10.8260   -1.3590   23.6430 C   0  0  0  0  0  0  0  0  0  0  0  0
   10.1490   -0.1570   23.4320 C   0  0  0  0  0  0  0  0  0  0  0  0
    9.9280    6.5810   24.2730 N   0  0  0  0  0  0  0  0  0  0  0  0
    9.0540    7.5840   24.0470 C   0  0  0  0  0  0  0  0  0  0  0  0
    9.1030    8.8760   24.5030 N   0  0  0  0  0  0  0  0  0  0  0  0
   10.1400    9.4210   25.3470 C   0  0  0  0  0  0  0  0  0  0  0  0
    8.0460   11.6940   25.3910 C   0  0  0  0  0  0  0  0  0  0  0  0
    7.7200   13.0500   25.5530 C   0  0  0  0  0  0  0  0  0  0  0  0
  1  2  1  0
  2  3  1  0
  3  4  2  0
  4  5  1  0
  5  6  2  0
  6  7  1  0
  7  8  2  0
  8  9  1  0
  9 10  2  0
 10 11  1  0
 10 12  1  0
 12 13  2  0
 13 14  1  0
 14 15  1  0
 15 16  2  0
 15 17  1  0
 17 18  1  0
 18 19  2  0
 19 20  1  0
 20 21  2  0
 21 22  1  0
 21 23  1  0
 18 24  1  0
 23 24  2  0
 13 25  1  0
  9 26  1  0
 25 26  2  0
  7 27  1  0
 26 27  1  0
 27 28  1  0
  6 29  1  0
  3 30  1  0
 29 30  2  0
M  END
