DRA-CSI-7ec17797-12
     RDKit          3D

 38 42  0  0  0  0  0  0  0  0999 V2000
    2.5250   -7.6250   23.5200 C   0  0  0  0  0  0  0  0  0  0  0  0
    1.7680   -6.8020   24.0320 O   0  0  0  0  0  0  0  0  0  0  0  0
    2.3060   -5.5600   24.2190 C   0  0  0  0  0  0  0  0  0  0  0  0
    1.7680   -4.7670   25.1450 C   0  0  0  0  0  0  0  0  0  0  0  0
    2.3380   -3.4100   25.3690 C   0  0  0  0  0  0  0  0  0  0  0  0
    3.4150   -2.9490   24.6390 C   0  0  0  0  0  0  0  0  0  0  0  0
    4.1300   -1.6040   24.7110 C   0  0  0  0  0  0  0  0  0  0  0  0
    3.7420   -0.4220   25.1910 N   0  0  0  0  0  0  0  0  0  0  0  0
    4.8630    0.3870   24.8990 C   0  0  0  0  0  0  0  0  0  0  0  0
    5.0930    1.8780   25.1670 C   0  0  0  0  0  0  0  0  0  0  0  0
    6.4430    2.3420   24.6800 C   0  0  0  0  0  0  0  0  0  0  0  0
    7.3760    1.4950   24.0560 C   0  0  0  0  0  0  0  0  0  0  0  0
    8.6070    1.8960   23.6100 N   0  0  0  0  0  0  0  0  0  0  0  0
    9.4360    0.9240   23.1130 C   0  0  0  0  0  0  0  0  0  0  0  0
   10.7970    1.0490   22.9670 O   0  0  0  0  0  0  0  0  0  0  0  0
    8.8730   -0.2660   22.6970 C   0  0  0  0  0  0  0  0  0  0  0  0
    8.0670   -0.0320   21.6040 C   0  0  0  0  0  0  0  0  0  0  0  0
    7.7430   -1.1570   20.8950 C   0  0  0  0  0  0  0  0  0  0  0  0
    7.9430   -2.3250   21.4920 N   0  0  0  0  0  0  0  0  0  0  0  0
    6.9550   -3.3070   21.1960 C   0  0  0  0  0  0  0  0  0  0  0  0
    5.9090   -3.8420   20.7830 O   0  0  0  0  0  0  0  0  0  0  0  0
    6.2040   -2.0880   20.6270 C   0  0  0  0  0  0  0  0  0  0  0  0
    5.9990   -1.8300   19.1160 C   0  0  0  0  0  0  0  0  0  0  0  0
    5.3070   -0.6770   18.7410 C   0  0  0  0  0  0  0  0  0  0  0  0
    4.8120    0.2150   19.6640 C   0  0  0  0  0  0  0  0  0  0  0  0
    4.1270    1.3590   19.2710 C   0  0  0  0  0  0  0  0  0  0  0  0
    3.1520    1.9030   20.2280 N   0  0  0  0  0  0  0  0  0  0  0  0
    3.7760    2.5460   21.3800 C   0  0  0  0  0  0  0  0  0  0  0  0
    2.1240    2.7420   19.6260 C   0  0  0  0  0  0  0  0  0  0  0  0
    5.0060   -0.0450   21.0320 C   0  0  0  0  0  0  0  0  0  0  0  0
    5.6800   -1.1620   21.5190 C   0  0  0  0  0  0  0  0  0  0  0  0
    9.3710   -2.4940   21.9430 C   0  0  0  0  0  0  0  0  0  0  0  0
    9.9600   -1.2730   22.2940 C   0  0  0  0  0  0  0  0  0  0  0  0
    7.0670    0.1320   23.8610 C   0  0  0  0  0  0  0  0  0  0  0  0
    5.8400   -0.3480   24.2840 C   0  0  0  0  0  0  0  0  0  0  0  0
    5.3830   -1.6210   24.1670 O   0  0  0  0  0  0  0  0  0  0  0  0
    3.9350   -3.8440   23.6740 C   0  0  0  0  0  0  0  0  0  0  0  0
    3.3940   -5.1260   23.4650 C   0  0  0  0  0  0  0  0  0  0  0  0
  1  2  1  0
  2  3  1  0
  3  4  2  0
  4  5  1  0
  5  6  2  0
  6  7  1  0
  7  8  2  0
  8  9  1  0
  9 10  2  0
 10 11  1  0
 11 12  2  0
 12 13  1  0
 13 14  1  0
 14 15  2  0
 14 16  1  0
 16 17  1  0
 17 18  1  0
 18 19  1  0
 19 20  1  0
 20 21  2  0
 20 22  1  0
 22 23  2  0
 23 24  1  0
 24 25  2  0
 25 26  1  0
 26 27  1  0
 27 28  1  0
 27 29  1  0
 25 30  1  0
 22 31  1  0
 30 31  2  0
 19 32  1  0
 16 33  1  0
 32 33  1  0
 12 34  1  0
  9 35  1  0
 34 35  2  0
  7 36  1  0
 35 36  1  0
  6 37  1  0
  3 38  1  0
 37 38  2  0
M  END
