DRA-CSI-13f611db-3
     RDKit          3D

 19 21  0  0  0  0  0  0  0  0999 V2000
   11.8170    0.8260   22.7550 O   0  0  0  0  0  0  0  0  0  0  0  0
   10.6210    1.0130   22.9460 C   0  0  0  0  0  0  0  0  0  0  0  0
    9.5780    0.1930   22.5540 N   0  0  0  0  0  0  0  0  0  0  0  0
    9.3170   -1.0690   23.1100 C   0  0  0  0  0  0  0  0  0  0  0  0
    9.3340   -2.1740   22.4000 N   0  0  0  0  0  0  0  0  0  0  0  0
    9.0720   -3.2810   23.1800 N   0  0  0  0  0  0  0  0  0  0  0  0
    8.8720   -2.9730   24.4430 C   0  0  0  0  0  0  0  0  0  0  0  0
    8.6220   -3.9290   25.4230 C   0  0  0  0  0  0  0  0  0  0  0  0
    9.4360   -5.0300   25.6890 C   0  0  0  0  0  0  0  0  0  0  0  0
    8.9900   -5.8270   26.7000 C   0  0  0  0  0  0  0  0  0  0  0  0
    7.7980   -5.3290   27.2460 C   0  0  0  0  0  0  0  0  0  0  0  0
    6.8030   -6.0890   28.6750 Br  0  0  0  0  0  0  0  0  0  0  0  0
    7.2900   -3.9100   26.4850 S   0  0  0  0  0  0  0  0  0  0  0  0
    8.9650   -1.2860   24.7580 S   0  0  0  0  0  0  0  0  0  0  0  0
   10.2190    2.2270   23.7060 C   0  0  0  0  0  0  0  0  0  0  0  0
    8.8360    2.0960   24.4020 C   0  0  0  0  0  0  0  0  0  0  0  0
    8.5300    3.3780   23.8910 C   0  0  0  0  0  0  0  0  0  0  0  0
    9.2080    4.2450   23.0470 C   0  0  0  0  0  0  0  0  0  0  0  0
   10.3380    3.3920   22.7880 C   0  0  0  0  0  0  0  0  0  0  0  0
  1  2  2  0
  2  3  1  0
  3  4  1  0
  4  5  2  0
  5  6  1  0
  6  7  2  0
  7  8  1  0
  8  9  2  0
  9 10  1  0
 10 11  2  0
 11 12  1  0
  8 13  1  0
 11 13  1  0
  4 14  1  0
  7 14  1  0
  2 15  1  0
 15 16  1  0
 16 17  1  0
 17 18  1  0
 15 19  1  0
 18 19  1  0
M  END
