DRA-CSI-0a78d9ba-7
     RDKit          3D

 37 41  0  0  0  0  0  0  0  0999 V2000
   -3.5370   -3.6390   29.0520 C   0  0  0  0  0  0  0  0  0  0  0  0
   -2.2110   -3.7860   29.5450 O   0  0  0  0  0  0  0  0  0  0  0  0
   -1.2460   -4.1320   28.6390 C   0  0  0  0  0  0  0  0  0  0  0  0
   -0.7410   -3.0080   27.7600 C   0  0  0  0  0  0  0  0  0  0  0  0
    0.3350   -3.2480   26.7050 C   0  0  0  0  0  0  0  0  0  0  0  0
    0.8440   -4.6630   26.6130 C   0  0  0  0  0  0  0  0  0  0  0  0
    1.9120   -4.9790   25.5880 C   0  0  0  0  0  0  0  0  0  0  0  0
    2.5680   -6.1280   25.4010 N   0  0  0  0  0  0  0  0  0  0  0  0
    3.4110   -5.9280   24.3770 C   0  0  0  0  0  0  0  0  0  0  0  0
    4.3250   -6.7890   23.7670 C   0  0  0  0  0  0  0  0  0  0  0  0
    5.1000   -6.3150   22.6830 C   0  0  0  0  0  0  0  0  0  0  0  0
    4.9760   -4.9360   22.1740 C   0  0  0  0  0  0  0  0  0  0  0  0
    5.8040   -4.5770   21.0780 N   0  0  0  0  0  0  0  0  0  0  0  0
    5.7660   -3.3630   20.4070 C   0  0  0  0  0  0  0  0  0  0  0  0
    5.5960   -3.2240   19.1940 O   0  0  0  0  0  0  0  0  0  0  0  0
    5.9380   -2.3100   21.2920 C   0  0  0  0  0  0  0  0  0  0  0  0
    6.0910   -2.6920   22.7380 C   0  0  0  0  0  0  0  0  0  0  0  0
    7.3020   -3.2800   23.0530 C   0  0  0  0  0  0  0  0  0  0  0  0
    8.3190   -2.2580   22.9710 N   0  0  0  0  0  0  0  0  0  0  0  0
    9.6400   -2.6500   23.4390 C   0  0  0  0  0  0  0  0  0  0  0  0
   10.4560   -1.5740   23.2370 C   0  0  0  0  0  0  0  0  0  0  0  0
    9.8140   -0.3800   23.4010 C   0  0  0  0  0  0  0  0  0  0  0  0
   10.4910    0.9410   23.2160 C   0  0  0  0  0  0  0  0  0  0  0  0
   11.9340    0.9410   22.8490 C   0  0  0  0  0  0  0  0  0  0  0  0
   12.4840    2.2780   22.7210 N   0  0  0  0  0  0  0  0  0  0  0  0
   13.6800    2.3840   22.6490 O   0  0  0  0  0  0  0  0  0  0  0  0
   11.7180    3.2220   22.9750 O   0  0  0  0  0  0  0  0  0  0  0  0
   12.6590   -0.4090   22.6560 C   0  0  0  0  0  0  0  0  0  0  0  0
   11.8110   -1.6710   22.8800 C   0  0  0  0  0  0  0  0  0  0  0  0
    8.4500   -1.7170   21.6090 C   0  0  0  0  0  0  0  0  0  0  0  0
    7.1310   -1.4170   20.8730 C   0  0  0  0  0  0  0  0  0  0  0  0
    4.0650   -4.0510   22.7810 C   0  0  0  0  0  0  0  0  0  0  0  0
    3.2650   -4.6310   23.9350 C   0  0  0  0  0  0  0  0  0  0  0  0
    2.3070   -4.0050   24.7020 O   0  0  0  0  0  0  0  0  0  0  0  0
    0.3080   -5.6520   27.4820 C   0  0  0  0  0  0  0  0  0  0  0  0
    0.8980   -7.4630   27.4210 Br  0  0  0  0  0  0  0  0  0  0  0  0
   -0.6950   -5.3990   28.4540 C   0  0  0  0  0  0  0  0  0  0  0  0
  1  2  1  0
  2  3  1  0
  3  4  2  0
  4  5  1  0
  5  6  2  0
  6  7  1  0
  7  8  2  0
  8  9  1  0
  9 10  2  0
 10 11  1  0
 11 12  2  0
 12 13  1  0
 13 14  1  0
 14 15  2  0
 14 16  1  0
 16 17  1  0
 17 18  1  0
 18 19  1  0
 19 20  1  0
 20 21  1  0
 21 22  2  0
 22 23  1  0
 23 24  2  0
 24 25  1  0
 25 26  2  0
 25 27  1  0
 24 28  1  0
 21 29  1  0
 28 29  2  0
 19 30  1  0
 16 31  1  0
 30 31  1  0
 12 32  1  0
  9 33  1  0
 32 33  2  0
  7 34  1  0
 33 34  1  0
  6 35  1  0
 35 36  1  0
  3 37  1  0
 35 37  2  0
M  CHG  2  25   1  27  -1
M  END
