DRA-CSI-3ab97369-14
     RDKit          3D

 20 22  0  0  0  0  0  0  0  0999 V2000
    6.8650   -2.8860   28.0790 O   0  0  0  0  0  0  0  0  0  0  0  0
    6.0600   -2.2050   27.4820 C   0  0  0  0  0  0  0  0  0  0  0  0
    5.1150   -2.5940   26.6120 N   0  0  0  0  0  0  0  0  0  0  0  0
    5.4210   -3.0300   25.3590 C   0  0  0  0  0  0  0  0  0  0  0  0
    5.5360   -2.2060   24.3430 N   0  0  0  0  0  0  0  0  0  0  0  0
    5.8380   -2.8780   23.1920 N   0  0  0  0  0  0  0  0  0  0  0  0
    5.9290   -4.1680   23.4210 C   0  0  0  0  0  0  0  0  0  0  0  0
    6.1710   -5.0740   22.4330 C   0  0  0  0  0  0  0  0  0  0  0  0
    5.0870   -5.6070   22.6610 C   0  0  0  0  0  0  0  0  0  0  0  0
    4.1220   -5.4190   23.4590 C   0  0  0  0  0  0  0  0  0  0  0  0
    3.8040   -6.4690   22.7390 C   0  0  0  0  0  0  0  0  0  0  0  0
    2.1920   -7.5160   22.8720 Br  0  0  0  0  0  0  0  0  0  0  0  0
    5.3470   -6.4750   21.7020 S   0  0  0  0  0  0  0  0  0  0  0  0
    5.6780   -4.6600   25.0500 S   0  0  0  0  0  0  0  0  0  0  0  0
    6.0590   -0.7720   27.7090 C   0  0  0  0  0  0  0  0  0  0  0  0
    6.8210   -0.1900   28.8850 C   0  0  0  0  0  0  0  0  0  0  0  0
    6.5670    1.2250   28.7790 C   0  0  0  0  0  0  0  0  0  0  0  0
    5.9140    2.2240   28.0340 C   0  0  0  0  0  0  0  0  0  0  0  0
    5.2370    1.6210   26.9630 C   0  0  0  0  0  0  0  0  0  0  0  0
    5.3180    0.0680   26.8040 C   0  0  0  0  0  0  0  0  0  0  0  0
  1  2  2  0
  2  3  1  0
  3  4  1  0
  4  5  2  0
  5  6  1  0
  6  7  2  0
  7  8  1  0
  8  9  2  0
  9 10  1  0
 10 11  2  0
 11 12  1  0
  8 13  1  0
 11 13  1  0
  4 14  1  0
  7 14  1  0
  2 15  1  0
 15 16  2  0
 16 17  1  0
 17 18  2  0
 18 19  1  0
 15 20  1  0
 19 20  2  0
M  END
