DRA-CSI-57d71107-2
     RDKit          3D

 21 23  0  0  0  0  0  0  0  0999 V2000
   13.2160   -0.3280   24.1850 O   0  0  0  0  0  0  0  0  0  0  0  0
   12.9940   -0.7590   23.0650 C   0  0  0  0  0  0  0  0  0  0  0  0
   12.1920   -1.7650   22.6990 N   0  0  0  0  0  0  0  0  0  0  0  0
   11.5220   -2.4550   23.6370 C   0  0  0  0  0  0  0  0  0  0  0  0
   12.1940   -2.8650   24.6680 N   0  0  0  0  0  0  0  0  0  0  0  0
   11.3880   -3.5390   25.4920 N   0  0  0  0  0  0  0  0  0  0  0  0
   10.1700   -3.5970   25.0380 C   0  0  0  0  0  0  0  0  0  0  0  0
    9.3170   -4.2860   25.8040 C   0  0  0  0  0  0  0  0  0  0  0  0
    9.6540   -5.5760   26.0340 C   0  0  0  0  0  0  0  0  0  0  0  0
    8.7900   -6.1980   26.8300 C   0  0  0  0  0  0  0  0  0  0  0  0
    7.7440   -5.3730   27.2400 C   0  0  0  0  0  0  0  0  0  0  0  0
    6.3560   -5.9380   28.4010 Br  0  0  0  0  0  0  0  0  0  0  0  0
    7.8650   -3.8260   26.5840 S   0  0  0  0  0  0  0  0  0  0  0  0
    9.8690   -2.8160   23.5590 S   0  0  0  0  0  0  0  0  0  0  0  0
   13.5960   -0.1790   21.9060 C   0  0  0  0  0  0  0  0  0  0  0  0
   13.7370   -1.0260   20.6350 C   0  0  0  0  0  0  0  0  0  0  0  0
   14.3730   -0.0920   19.6940 C   0  0  0  0  0  0  0  0  0  0  0  0
   14.9000    1.2430   19.5330 C   0  0  0  0  0  0  0  0  0  0  0  0
   15.4480    1.7870   18.4470 F   0  0  0  0  0  0  0  0  0  0  0  0
   14.7130    1.9170   20.7330 C   0  0  0  0  0  0  0  0  0  0  0  0
   14.0410    1.1750   21.9550 C   0  0  0  0  0  0  0  0  0  0  0  0
  1  2  2  0
  2  3  1  0
  3  4  1  0
  4  5  2  0
  5  6  1  0
  6  7  2  0
  7  8  1  0
  8  9  2  0
  9 10  1  0
 10 11  2  0
 11 12  1  0
  8 13  1  0
 11 13  1  0
  4 14  1  0
  7 14  1  0
  2 15  1  0
 15 16  2  0
 16 17  1  0
 17 18  2  0
 18 19  1  0
 18 20  1  0
 15 21  1  0
 20 21  2  0
M  END
