DRA-CSI-7ec17797-3
     RDKit          3D

 29 32  0  0  0  0  0  0  0  0999 V2000
    4.8680    1.7840   24.4270 C   0  0  0  0  0  0  0  0  0  0  0  0
    5.7360    1.5060   25.4730 N   0  0  0  0  0  0  0  0  0  0  0  0
    6.4870    2.5040   26.1380 C   0  0  0  0  0  0  0  0  0  0  0  0
    5.8760    0.1210   25.7460 C   0  0  0  0  0  0  0  0  0  0  0  0
    6.8140   -0.5650   25.0280 N   0  0  0  0  0  0  0  0  0  0  0  0
    7.1240   -1.9760   25.1410 C   0  0  0  0  0  0  0  0  0  0  0  0
    8.1350   -2.4130   24.2670 N   0  0  0  0  0  0  0  0  0  0  0  0
    9.4250   -1.7340   24.0350 C   0  0  0  0  0  0  0  0  0  0  0  0
   10.4660   -1.7600   24.6760 O   0  0  0  0  0  0  0  0  0  0  0  0
    9.3410   -0.9920   22.8870 C   0  0  0  0  0  0  0  0  0  0  0  0
    8.0530   -0.4990   22.5950 C   0  0  0  0  0  0  0  0  0  0  0  0
    7.5270   -0.8890   21.2110 C   0  0  0  0  0  0  0  0  0  0  0  0
    7.5530   -2.2260   21.2050 N   0  0  0  0  0  0  0  0  0  0  0  0
    6.5750   -2.8120   20.3780 C   0  0  0  0  0  0  0  0  0  0  0  0
    5.6160   -3.4840   19.9040 O   0  0  0  0  0  0  0  0  0  0  0  0
    6.1880   -3.4830   21.6670 C   0  0  0  0  0  0  0  0  0  0  0  0
    6.4480   -4.5010   22.4760 C   0  0  0  0  0  0  0  0  0  0  0  0
    7.0600   -4.1250   21.2080 C   0  0  0  0  0  0  0  0  0  0  0  0
    6.6350   -2.8010   20.2650 C   0  0  0  0  0  0  0  0  0  0  0  0
    5.4490   -1.8810   20.8100 C   0  0  0  0  0  0  0  0  0  0  0  0
    5.2070   -2.6260   22.0030 C   0  0  0  0  0  0  0  0  0  0  0  0
    8.8380   -2.6890   21.4080 C   0  0  0  0  0  0  0  0  0  0  0  0
    9.9340   -1.7900   21.9390 C   0  0  0  0  0  0  0  0  0  0  0  0
    6.4890   -2.8380   26.0210 N   0  0  0  0  0  0  0  0  0  0  0  0
    5.4710   -2.1280   26.8160 C   0  0  0  0  0  0  0  0  0  0  0  0
    4.7130   -2.7100   27.7420 N   0  0  0  0  0  0  0  0  0  0  0  0
    3.8630   -1.6060   28.2500 C   0  0  0  0  0  0  0  0  0  0  0  0
    4.1250   -0.3940   27.6290 N   0  0  0  0  0  0  0  0  0  0  0  0
    5.1480   -0.6420   26.6920 C   0  0  0  0  0  0  0  0  0  0  0  0
  1  2  1  0
  2  3  1  0
  2  4  1  0
  4  5  2  0
  5  6  1  0
  6  7  1  0
  7  8  1  0
  8  9  2  0
  8 10  1  0
 10 11  1  0
 11 12  1  0
 12 13  1  0
 13 14  1  0
 14 15  2  0
 14 16  1  0
 16 17  2  0
 17 18  1  0
 18 19  2  0
 19 20  1  0
 16 21  1  0
 20 21  2  0
 13 22  1  0
 10 23  1  0
 22 23  1  0
  6 24  2  0
 24 25  1  0
 25 26  1  0
 26 27  1  0
 27 28  2  0
  4 29  1  0
 25 29  2  0
 28 29  1  0
M  END
