DRA-CSI-7ec17797-6
     RDKit          3D

 32 35  0  0  0  0  0  0  0  0999 V2000
   11.2380   -0.0810   24.4940 O   0  0  0  0  0  0  0  0  0  0  0  0
   10.6230    0.3260   23.5190 C   0  0  0  0  0  0  0  0  0  0  0  0
   10.7370    1.6200   22.8740 N   0  0  0  0  0  0  0  0  0  0  0  0
    9.4350    2.2430   22.5700 C   0  0  0  0  0  0  0  0  0  0  0  0
    9.1980    3.2710   21.6050 N   0  0  0  0  0  0  0  0  0  0  0  0
    7.8600    3.4830   21.7580 N   0  0  0  0  0  0  0  0  0  0  0  0
    7.4820    2.6410   22.7070 C   0  0  0  0  0  0  0  0  0  0  0  0
    6.0900    2.4220   23.3350 C   0  0  0  0  0  0  0  0  0  0  0  0
    5.5720    1.1800   23.8610 C   0  0  0  0  0  0  0  0  0  0  0  0
    4.2960    1.1060   24.4060 C   0  0  0  0  0  0  0  0  0  0  0  0
    3.4940    2.2380   24.4510 C   0  0  0  0  0  0  0  0  0  0  0  0
    4.1170    3.5130   23.8760 C   0  0  0  0  0  0  0  0  0  0  0  0
    5.3640    3.5220   23.3600 N   0  0  0  0  0  0  0  0  0  0  0  0
    8.4010    1.9230   23.1630 O   0  0  0  0  0  0  0  0  0  0  0  0
    9.6130   -0.5440   22.8040 C   0  0  0  0  0  0  0  0  0  0  0  0
    8.6210   -0.9820   23.6430 C   0  0  0  0  0  0  0  0  0  0  0  0
    7.5480   -1.2620   22.7630 C   0  0  0  0  0  0  0  0  0  0  0  0
    7.9990   -2.1900   21.7420 N   0  0  0  0  0  0  0  0  0  0  0  0
    6.9890   -2.9880   21.1450 C   0  0  0  0  0  0  0  0  0  0  0  0
    5.7120   -3.4820   20.6570 O   0  0  0  0  0  0  0  0  0  0  0  0
    6.1210   -1.8910   21.5700 C   0  0  0  0  0  0  0  0  0  0  0  0
    6.4040   -1.6310   20.1740 C   0  0  0  0  0  0  0  0  0  0  0  0
    6.0100   -0.6120   19.3030 C   0  0  0  0  0  0  0  0  0  0  0  0
    5.2150    0.3690   19.7430 C   0  0  0  0  0  0  0  0  0  0  0  0
    4.7740    1.4170   18.9610 C   0  0  0  0  0  0  0  0  0  0  0  0
    3.4210    1.5030   18.9450 F   0  0  0  0  0  0  0  0  0  0  0  0
    5.1880    2.6210   19.4180 F   0  0  0  0  0  0  0  0  0  0  0  0
    5.2000    1.3280   17.6770 F   0  0  0  0  0  0  0  0  0  0  0  0
    4.8660    0.2580   21.0410 C   0  0  0  0  0  0  0  0  0  0  0  0
    5.2860   -0.7540   21.8120 C   0  0  0  0  0  0  0  0  0  0  0  0
    9.4220   -2.6320   21.8810 C   0  0  0  0  0  0  0  0  0  0  0  0
   10.3180   -1.7050   22.1740 C   0  0  0  0  0  0  0  0  0  0  0  0
  1  2  2  0
  2  3  1  0
  3  4  1  0
  4  5  2  0
  5  6  1  0
  6  7  2  0
  7  8  1  0
  8  9  2  0
  9 10  1  0
 10 11  2  0
 11 12  1  0
  8 13  1  0
 12 13  2  0
  4 14  1  0
  7 14  1  0
  2 15  1  0
 15 16  1  0
 16 17  1  0
 17 18  1  0
 18 19  1  0
 19 20  2  0
 19 21  1  0
 21 22  2  0
 22 23  1  0
 23 24  2  0
 24 25  1  0
 25 26  1  0
 25 27  1  0
 25 28  1  0
 24 29  1  0
 21 30  1  0
 29 30  2  0
 18 31  1  0
 15 32  1  0
 31 32  1  0
M  END
