DRA-CSI-7ec17797-17
     RDKit          3D

 35 39  0  0  0  0  0  0  0  0999 V2000
   12.7480    6.6360   22.8730 C   0  0  0  0  0  0  0  0  0  0  0  0
   11.5930    7.3640   23.2730 O   0  0  0  0  0  0  0  0  0  0  0  0
   10.4900    6.6170   23.5620 C   0  0  0  0  0  0  0  0  0  0  0  0
    9.3550    7.0120   24.1610 C   0  0  0  0  0  0  0  0  0  0  0  0
    8.1730    6.1090   24.4610 C   0  0  0  0  0  0  0  0  0  0  0  0
    8.4130    4.6650   23.9990 C   0  0  0  0  0  0  0  0  0  0  0  0
    7.3780    3.5770   24.2150 C   0  0  0  0  0  0  0  0  0  0  0  0
    5.9560    3.6020   24.4660 N   0  0  0  0  0  0  0  0  0  0  0  0
    5.6850    2.2480   24.5680 C   0  0  0  0  0  0  0  0  0  0  0  0
    4.3840    1.4590   24.8330 C   0  0  0  0  0  0  0  0  0  0  0  0
    4.3150    0.0720   24.9030 C   0  0  0  0  0  0  0  0  0  0  0  0
    5.6920   -0.6640   24.6880 C   0  0  0  0  0  0  0  0  0  0  0  0
    5.8440   -2.0240   24.7180 N   0  0  0  0  0  0  0  0  0  0  0  0
    7.0510   -2.7660   24.2300 C   0  0  0  0  0  0  0  0  0  0  0  0
    7.2010   -3.9820   24.2600 O   0  0  0  0  0  0  0  0  0  0  0  0
    8.1220   -1.8280   23.6510 C   0  0  0  0  0  0  0  0  0  0  0  0
    7.6120   -0.9260   22.7030 C   0  0  0  0  0  0  0  0  0  0  0  0
    8.5240   -0.3890   21.8470 C   0  0  0  0  0  0  0  0  0  0  0  0
    8.9380   -1.5150   21.2480 N   0  0  0  0  0  0  0  0  0  0  0  0
    7.9380   -2.1520   20.4730 C   0  0  0  0  0  0  0  0  0  0  0  0
    7.5270   -3.3010   20.6850 O   0  0  0  0  0  0  0  0  0  0  0  0
    7.4060   -1.3900   19.4460 C   0  0  0  0  0  0  0  0  0  0  0  0
    6.9630   -0.1010   19.8340 C   0  0  0  0  0  0  0  0  0  0  0  0
    6.1210    0.5630   18.9560 C   0  0  0  0  0  0  0  0  0  0  0  0
    4.9040   -0.1410   18.8320 C   0  0  0  0  0  0  0  0  0  0  0  0
    5.1150   -1.4570   19.5850 C   0  0  0  0  0  0  0  0  0  0  0  0
    6.1520   -2.1400   19.0830 C   0  0  0  0  0  0  0  0  0  0  0  0
   10.0000   -2.1050   22.0550 C   0  0  0  0  0  0  0  0  0  0  0  0
    9.4520   -2.5480   23.2410 C   0  0  0  0  0  0  0  0  0  0  0  0
    6.8570    0.0850   24.4480 C   0  0  0  0  0  0  0  0  0  0  0  0
    6.8310    1.4760   24.3950 C   0  0  0  0  0  0  0  0  0  0  0  0
    7.9130    2.2830   24.1670 O   0  0  0  0  0  0  0  0  0  0  0  0
    9.6290    4.3580   23.3740 C   0  0  0  0  0  0  0  0  0  0  0  0
   10.0490    2.6170   22.7460 Br  0  0  0  0  0  0  0  0  0  0  0  0
   10.6250    5.2940   23.1650 C   0  0  0  0  0  0  0  0  0  0  0  0
  1  2  1  0
  2  3  1  0
  3  4  2  0
  4  5  1  0
  5  6  2  0
  6  7  1  0
  7  8  2  0
  8  9  1  0
  9 10  2  0
 10 11  1  0
 11 12  2  0
 12 13  1  0
 13 14  1  0
 14 15  2  0
 14 16  1  0
 16 17  1  0
 17 18  1  0
 18 19  1  0
 19 20  1  0
 20 21  2  0
 20 22  1  0
 22 23  1  0
 23 24  1  0
 24 25  1  0
 25 26  1  0
 22 27  1  0
 26 27  1  0
 19 28  1  0
 16 29  1  0
 28 29  1  0
 12 30  1  0
  9 31  1  0
 30 31  2  0
  7 32  1  0
 31 32  1  0
  6 33  1  0
 33 34  1  0
  3 35  1  0
 33 35  2  0
M  END
