DRA-CSI-7ec17797-15
     RDKit          3D

 39 43  0  0  0  0  0  0  0  0999 V2000
    0.7590    8.6750   23.0520 C   0  0  0  0  0  0  0  0  0  0  0  0
    1.0250    7.8980   22.1460 O   0  0  0  0  0  0  0  0  0  0  0  0
    1.5300    6.6800   22.5100 C   0  0  0  0  0  0  0  0  0  0  0  0
    1.0660    5.4290   22.0930 C   0  0  0  0  0  0  0  0  0  0  0  0
    1.6970    4.2890   22.5660 C   0  0  0  0  0  0  0  0  0  0  0  0
    2.7740    4.2890   23.4370 C   0  0  0  0  0  0  0  0  0  0  0  0
    3.3700    3.1050   23.8800 C   0  0  0  0  0  0  0  0  0  0  0  0
    2.7890    2.0910   24.5010 N   0  0  0  0  0  0  0  0  0  0  0  0
    3.8130    1.2030   24.6980 C   0  0  0  0  0  0  0  0  0  0  0  0
    3.8380   -0.0260   25.2800 C   0  0  0  0  0  0  0  0  0  0  0  0
    5.0970   -0.7530   25.3470 C   0  0  0  0  0  0  0  0  0  0  0  0
    6.2450   -0.2730   24.8610 C   0  0  0  0  0  0  0  0  0  0  0  0
    7.4630   -0.9790   24.9270 N   0  0  0  0  0  0  0  0  0  0  0  0
    8.5440   -0.9090   24.0250 C   0  0  0  0  0  0  0  0  0  0  0  0
    8.9010    0.1490   23.4830 O   0  0  0  0  0  0  0  0  0  0  0  0
    9.2160   -2.0860   23.7890 C   0  0  0  0  0  0  0  0  0  0  0  0
    8.3440   -3.3400   23.6540 C   0  0  0  0  0  0  0  0  0  0  0  0
    7.6320   -3.4280   22.4610 C   0  0  0  0  0  0  0  0  0  0  0  0
    7.8580   -2.2150   21.6840 N   0  0  0  0  0  0  0  0  0  0  0  0
    6.7990   -1.3040   21.2750 C   0  0  0  0  0  0  0  0  0  0  0  0
    6.5840   -2.1970   20.4270 O   0  0  0  0  0  0  0  0  0  0  0  0
    7.4990   -0.7030   22.4540 C   0  0  0  0  0  0  0  0  0  0  0  0
    7.9770    0.0440   21.4350 C   0  0  0  0  0  0  0  0  0  0  0  0
    7.3020   -0.2950   20.2760 C   0  0  0  0  0  0  0  0  0  0  0  0
    6.2800   -1.3050   20.3510 C   0  0  0  0  0  0  0  0  0  0  0  0
    5.5960   -1.5980   19.1780 C   0  0  0  0  0  0  0  0  0  0  0  0
    6.4190   -1.6870   18.1230 F   0  0  0  0  0  0  0  0  0  0  0  0
    4.9170   -2.7760   19.2530 F   0  0  0  0  0  0  0  0  0  0  0  0
    4.7190   -0.6070   18.8620 F   0  0  0  0  0  0  0  0  0  0  0  0
    5.9350   -2.0090   21.5880 C   0  0  0  0  0  0  0  0  0  0  0  0
    6.6110   -1.6810   22.7700 C   0  0  0  0  0  0  0  0  0  0  0  0
    9.3050   -1.9020   21.4630 C   0  0  0  0  0  0  0  0  0  0  0  0
   10.0950   -1.8670   22.5910 C   0  0  0  0  0  0  0  0  0  0  0  0
    6.2910    0.9900   24.2460 C   0  0  0  0  0  0  0  0  0  0  0  0
    4.9820    1.7150   24.1900 C   0  0  0  0  0  0  0  0  0  0  0  0
    4.7170    2.9440   23.6580 O   0  0  0  0  0  0  0  0  0  0  0  0
    3.2300    5.5550   23.8460 C   0  0  0  0  0  0  0  0  0  0  0  0
    4.6960    5.8100   25.0360 Br  0  0  0  0  0  0  0  0  0  0  0  0
    2.6130    6.7320   23.3850 C   0  0  0  0  0  0  0  0  0  0  0  0
  1  2  1  0
  2  3  1  0
  3  4  2  0
  4  5  1  0
  5  6  2  0
  6  7  1  0
  7  8  2  0
  8  9  1  0
  9 10  2  0
 10 11  1  0
 11 12  2  0
 12 13  1  0
 13 14  1  0
 14 15  2  0
 14 16  1  0
 16 17  1  0
 17 18  1  0
 18 19  1  0
 19 20  1  0
 20 21  2  0
 20 22  1  0
 22 23  2  0
 23 24  1  0
 24 25  2  0
 25 26  1  0
 26 27  1  0
 26 28  1  0
 26 29  1  0
 25 30  1  0
 22 31  1  0
 30 31  2  0
 19 32  1  0
 16 33  1  0
 32 33  1  0
 12 34  1  0
  9 35  1  0
 34 35  2  0
  7 36  1  0
 35 36  1  0
  6 37  1  0
 37 38  1  0
  3 39  1  0
 37 39  2  0
M  END
