DRA-CSI-13f611db-2
     RDKit          3D

 20 22  0  0  0  0  0  0  0  0999 V2000
   12.4840    0.6060   23.2610 O   0  0  0  0  0  0  0  0  0  0  0  0
   11.4100    1.1830   23.1600 C   0  0  0  0  0  0  0  0  0  0  0  0
   10.1510    0.5980   23.1230 N   0  0  0  0  0  0  0  0  0  0  0  0
    9.8020   -0.7140   23.5340 C   0  0  0  0  0  0  0  0  0  0  0  0
    9.7770   -1.7350   22.7000 N   0  0  0  0  0  0  0  0  0  0  0  0
    9.4170   -2.9180   23.3300 N   0  0  0  0  0  0  0  0  0  0  0  0
    9.1870   -2.7450   24.6150 C   0  0  0  0  0  0  0  0  0  0  0  0
    8.8220   -3.7760   25.4940 C   0  0  0  0  0  0  0  0  0  0  0  0
    9.5500   -4.9520   25.7020 C   0  0  0  0  0  0  0  0  0  0  0  0
    9.0120   -5.8000   26.6270 C   0  0  0  0  0  0  0  0  0  0  0  0
    7.8340   -5.2660   27.1690 C   0  0  0  0  0  0  0  0  0  0  0  0
    6.7520   -6.0770   28.5080 Br  0  0  0  0  0  0  0  0  0  0  0  0
    7.4450   -3.7630   26.5030 S   0  0  0  0  0  0  0  0  0  0  0  0
    9.3860   -1.1120   25.1290 S   0  0  0  0  0  0  0  0  0  0  0  0
   11.4270    2.6750   23.0580 C   0  0  0  0  0  0  0  0  0  0  0  0
   10.1710    3.5320   23.2690 C   0  0  0  0  0  0  0  0  0  0  0  0
   10.6340    4.8970   23.0810 C   0  0  0  0  0  0  0  0  0  0  0  0
   11.7490    5.7130   22.7900 C   0  0  0  0  0  0  0  0  0  0  0  0
   12.8600    4.8800   22.6080 C   0  0  0  0  0  0  0  0  0  0  0  0
   12.6740    3.3240   22.7510 C   0  0  0  0  0  0  0  0  0  0  0  0
  1  2  2  0
  2  3  1  0
  3  4  1  0
  4  5  2  0
  5  6  1  0
  6  7  2  0
  7  8  1  0
  8  9  2  0
  9 10  1  0
 10 11  2  0
 11 12  1  0
  8 13  1  0
 11 13  1  0
  4 14  1  0
  7 14  1  0
  2 15  1  0
 15 16  2  0
 16 17  1  0
 17 18  2  0
 18 19  1  0
 15 20  1  0
 19 20  2  0
M  END
