DRA-CSI-0a78d9ba-9
     RDKit          3D

 36 40  0  0  0  0  0  0  0  0999 V2000
    6.8330   -1.5030   36.1780 C   0  0  0  0  0  0  0  0  0  0  0  0
    6.0910   -0.3730   35.7170 O   0  0  0  0  0  0  0  0  0  0  0  0
    6.2100   -0.1870   34.3760 C   0  0  0  0  0  0  0  0  0  0  0  0
    5.1380   -0.5190   33.5710 C   0  0  0  0  0  0  0  0  0  0  0  0
    5.1140   -0.3980   32.1830 C   0  0  0  0  0  0  0  0  0  0  0  0
    6.2520    0.0990   31.5050 C   0  0  0  0  0  0  0  0  0  0  0  0
    6.1840    0.1980   29.9980 C   0  0  0  0  0  0  0  0  0  0  0  0
    6.1280    1.2990   29.2630 N   0  0  0  0  0  0  0  0  0  0  0  0
    6.0760    0.8250   27.9760 C   0  0  0  0  0  0  0  0  0  0  0  0
    5.9980    1.4280   26.5980 C   0  0  0  0  0  0  0  0  0  0  0  0
    5.9620    0.5070   25.4270 C   0  0  0  0  0  0  0  0  0  0  0  0
    5.9990   -0.8240   25.6640 C   0  0  0  0  0  0  0  0  0  0  0  0
    5.9630   -1.6220   24.5340 N   0  0  0  0  0  0  0  0  0  0  0  0
    5.5380   -0.9970   23.3350 C   0  0  0  0  0  0  0  0  0  0  0  0
    4.9120    0.2760   23.1870 O   0  0  0  0  0  0  0  0  0  0  0  0
    5.6790   -1.6160   22.0640 C   0  0  0  0  0  0  0  0  0  0  0  0
    5.8630   -3.0090   22.1260 C   0  0  0  0  0  0  0  0  0  0  0  0
    7.0230   -3.3840   22.7970 C   0  0  0  0  0  0  0  0  0  0  0  0
    7.8470   -2.4060   23.1500 N   0  0  0  0  0  0  0  0  0  0  0  0
    8.8390   -2.7850   23.9490 C   0  0  0  0  0  0  0  0  0  0  0  0
   10.0100   -2.1650   23.5660 C   0  0  0  0  0  0  0  0  0  0  0  0
   10.7490   -1.3780   24.4320 C   0  0  0  0  0  0  0  0  0  0  0  0
   11.9890   -0.7380   23.9160 C   0  0  0  0  0  0  0  0  0  0  0  0
   12.3170   -0.9680   22.6380 C   0  0  0  0  0  0  0  0  0  0  0  0
   13.3800   -0.4210   22.1430 C   0  0  0  0  0  0  0  0  0  0  0  0
   13.7820   -1.0270   21.0180 F   0  0  0  0  0  0  0  0  0  0  0  0
   11.5830   -1.7550   21.8200 C   0  0  0  0  0  0  0  0  0  0  0  0
   10.4470   -2.3450   22.2680 C   0  0  0  0  0  0  0  0  0  0  0  0
    8.1560   -1.5200   22.0290 C   0  0  0  0  0  0  0  0  0  0  0  0
    6.9570   -1.0480   21.3980 C   0  0  0  0  0  0  0  0  0  0  0  0
    6.0720   -1.4130   26.9480 C   0  0  0  0  0  0  0  0  0  0  0  0
    6.1070   -0.5470   28.0520 C   0  0  0  0  0  0  0  0  0  0  0  0
    6.1770   -0.8820   29.3770 O   0  0  0  0  0  0  0  0  0  0  0  0
    7.3850    0.4680   32.2780 C   0  0  0  0  0  0  0  0  0  0  0  0
    9.0020    1.1660   31.5680 Br  0  0  0  0  0  0  0  0  0  0  0  0
    7.3620    0.3130   33.8010 C   0  0  0  0  0  0  0  0  0  0  0  0
  1  2  1  0
  2  3  1  0
  3  4  2  0
  4  5  1  0
  5  6  2  0
  6  7  1  0
  7  8  2  0
  8  9  1  0
  9 10  2  0
 10 11  1  0
 11 12  2  0
 12 13  1  0
 13 14  1  0
 14 15  2  0
 14 16  1  0
 16 17  1  0
 17 18  1  0
 18 19  1  0
 19 20  1  0
 20 21  1  0
 21 22  2  0
 22 23  1  0
 23 24  2  0
 24 25  1  0
 25 26  1  0
 24 27  1  0
 21 28  1  0
 27 28  2  0
 19 29  1  0
 16 30  1  0
 29 30  1  0
 12 31  1  0
  9 32  1  0
 31 32  2  0
  7 33  1  0
 32 33  1  0
  6 34  1  0
 34 35  1  0
  3 36  1  0
 34 36  2  0
M  END
