DRA-CSI-0a78d9ba-17
     RDKit          3D

 28 31  0  0  0  0  0  0  0  0999 V2000
   12.9730    1.6450   22.8130 C   0  0  0  0  0  0  0  0  0  0  0  0
   12.2440    0.3800   22.8950 C   0  0  0  0  0  0  0  0  0  0  0  0
   10.8170    0.6520   23.2330 C   0  0  0  0  0  0  0  0  0  0  0  0
    9.8730   -0.4850   23.4120 C   0  0  0  0  0  0  0  0  0  0  0  0
   10.4180   -1.8660   23.2200 C   0  0  0  0  0  0  0  0  0  0  0  0
    9.3160   -2.8790   23.4360 C   0  0  0  0  0  0  0  0  0  0  0  0
    8.0050   -2.2500   23.3670 N   0  0  0  0  0  0  0  0  0  0  0  0
    6.8480   -3.1550   23.5460 C   0  0  0  0  0  0  0  0  0  0  0  0
    6.0390   -3.2520   22.2630 C   0  0  0  0  0  0  0  0  0  0  0  0
    6.7360   -2.7960   21.0230 C   0  0  0  0  0  0  0  0  0  0  0  0
    5.9900   -3.0360   19.8800 C   0  0  0  0  0  0  0  0  0  0  0  0
    5.3220   -4.0680   19.7660 O   0  0  0  0  0  0  0  0  0  0  0  0
    6.1190   -2.0830   18.8950 N   0  0  0  0  0  0  0  0  0  0  0  0
    5.4930   -0.8410   18.9100 C   0  0  0  0  0  0  0  0  0  0  0  0
    5.1670    0.0760   17.8110 N   0  0  0  0  0  0  0  0  0  0  0  0
    4.5880    1.1120   18.3930 N   0  0  0  0  0  0  0  0  0  0  0  0
    4.6350    0.6880   19.7920 C   0  0  0  0  0  0  0  0  0  0  0  0
    4.1120    1.5400   20.7600 C   0  0  0  0  0  0  0  0  0  0  0  0
    4.6880    1.5800   22.0280 C   0  0  0  0  0  0  0  0  0  0  0  0
    4.2810    2.3810   23.1070 C   0  0  0  0  0  0  0  0  0  0  0  0
    3.0770    3.2740   22.7870 C   0  0  0  0  0  0  0  0  0  0  0  0
    2.5380    3.1380   21.3590 C   0  0  0  0  0  0  0  0  0  0  0  0
    3.0430    2.3120   20.4190 N   0  0  0  0  0  0  0  0  0  0  0  0
    5.1510   -0.4180   20.0290 O   0  0  0  0  0  0  0  0  0  0  0  0
    7.0320   -1.4650   21.2850 C   0  0  0  0  0  0  0  0  0  0  0  0
    7.9580   -1.2350   22.2690 C   0  0  0  0  0  0  0  0  0  0  0  0
   11.7650   -2.0690   22.8830 C   0  0  0  0  0  0  0  0  0  0  0  0
   12.7190   -0.9190   22.7110 C   0  0  0  0  0  0  0  0  0  0  0  0
  1  2  1  0
  2  3  2  0
  3  4  1  0
  4  5  2  0
  5  6  1  0
  6  7  1  0
  7  8  1  0
  8  9  1  0
  9 10  1  0
 10 11  1  0
 11 12  2  0
 11 13  1  0
 13 14  1  0
 14 15  2  0
 15 16  1  0
 16 17  2  0
 17 18  1  0
 18 19  2  0
 19 20  1  0
 20 21  2  0
 21 22  1  0
 18 23  1  0
 22 23  2  0
 14 24  1  0
 17 24  1  0
 10 25  1  0
  7 26  1  0
 25 26  1  0
  5 27  1  0
  2 28  1  0
 27 28  2  0
M  END
