DRA-CSI-47e38074-1
     RDKit          3D

 13 14  0  0  0  0  0  0  0  0999 V2000
    2.5940   -2.3640   27.2260 C   0  0  0  0  0  0  0  0  0  0  0  0
    3.6710   -3.2510   27.6780 C   0  0  0  0  0  0  0  0  0  0  0  0
    4.8740   -3.1500   27.1440 C   0  0  0  0  0  0  0  0  0  0  0  0
    5.2190   -2.1690   26.0850 C   0  0  0  0  0  0  0  0  0  0  0  0
    6.4950   -2.1080   25.5580 C   0  0  0  0  0  0  0  0  0  0  0  0
    6.4530   -1.8170   24.1170 N   0  0  0  0  0  0  0  0  0  0  0  0
    7.7720   -1.8850   23.4850 C   0  0  0  0  0  0  0  0  0  0  0  0
    8.1790   -3.3350   23.2100 C   0  0  0  0  0  0  0  0  0  0  0  0
    7.1440   -4.1080   22.4920 N   0  0  0  0  0  0  0  0  0  0  0  0
    5.9920   -3.2510   22.2060 C   0  0  0  0  0  0  0  0  0  0  0  0
    5.4690   -2.5560   23.4260 C   0  0  0  0  0  0  0  0  0  0  0  0
    4.1670   -1.3150   25.6590 C   0  0  0  0  0  0  0  0  0  0  0  0
    2.8640   -1.4140   26.2260 C   0  0  0  0  0  0  0  0  0  0  0  0
  1  2  2  0
  2  3  1  0
  3  4  2  0
  4  5  1  0
  5  6  1  0
  6  7  1  0
  7  8  1  0
  8  9  1  0
  9 10  1  0
  6 11  1  0
 10 11  1  0
  4 12  1  0
  1 13  1  0
 12 13  2  0
M  END
