DRA-CSI-0a78d9ba-12
     RDKit          3D

 36 40  0  0  0  0  0  0  0  0999 V2000
    7.8960   17.4530   26.5390 C   0  0  0  0  0  0  0  0  0  0  0  0
    8.8380   16.4000   26.6920 O   0  0  0  0  0  0  0  0  0  0  0  0
    8.5320   15.2140   26.0860 C   0  0  0  0  0  0  0  0  0  0  0  0
    7.9440   15.1660   24.7490 C   0  0  0  0  0  0  0  0  0  0  0  0
    7.6390   13.9390   24.1490 C   0  0  0  0  0  0  0  0  0  0  0  0
    7.8900   12.7390   24.8190 C   0  0  0  0  0  0  0  0  0  0  0  0
    7.5750   11.5500   24.1910 C   0  0  0  0  0  0  0  0  0  0  0  0
    6.5620   11.4930   23.1860 N   0  0  0  0  0  0  0  0  0  0  0  0
    6.5840   10.1700   22.8260 C   0  0  0  0  0  0  0  0  0  0  0  0
    5.6810    9.5870   21.7610 C   0  0  0  0  0  0  0  0  0  0  0  0
    5.9280    8.0830   21.5600 C   0  0  0  0  0  0  0  0  0  0  0  0
    6.9810    7.4020   22.4050 C   0  0  0  0  0  0  0  0  0  0  0  0
    7.2120    6.0730   22.2520 N   0  0  0  0  0  0  0  0  0  0  0  0
    6.1140    5.1110   22.4010 C   0  0  0  0  0  0  0  0  0  0  0  0
    4.9880    5.1330   21.9250 O   0  0  0  0  0  0  0  0  0  0  0  0
    6.3510    3.9950   23.2180 C   0  0  0  0  0  0  0  0  0  0  0  0
    7.4690    4.2320   24.2330 C   0  0  0  0  0  0  0  0  0  0  0  0
    8.0370    2.8450   24.4810 C   0  0  0  0  0  0  0  0  0  0  0  0
    8.9030    2.6430   23.4300 N   0  0  0  0  0  0  0  0  0  0  0  0
   10.1750    3.3650   23.4510 C   0  0  0  0  0  0  0  0  0  0  0  0
   11.3630    2.4980   23.0010 C   0  0  0  0  0  0  0  0  0  0  0  0
   12.4000    3.2070   22.5120 O   0  0  0  0  0  0  0  0  0  0  0  0
   11.3960    0.9570   23.1040 C   0  0  0  0  0  0  0  0  0  0  0  0
   12.7090    0.4240   23.0000 C   0  0  0  0  0  0  0  0  0  0  0  0
   12.8860   -1.0840   23.0880 C   0  0  0  0  0  0  0  0  0  0  0  0
   11.7290   -2.0400   23.2880 C   0  0  0  0  0  0  0  0  0  0  0  0
   10.3590   -1.3770   23.3890 C   0  0  0  0  0  0  0  0  0  0  0  0
   10.2400    0.1650   23.2860 C   0  0  0  0  0  0  0  0  0  0  0  0
    8.2410    2.8430   22.1360 C   0  0  0  0  0  0  0  0  0  0  0  0
    6.8590    2.8730   22.2860 C   0  0  0  0  0  0  0  0  0  0  0  0
    7.7490    8.0980   23.3710 C   0  0  0  0  0  0  0  0  0  0  0  0
    7.5220    9.4610   23.5450 C   0  0  0  0  0  0  0  0  0  0  0  0
    8.1700   10.3280   24.4300 O   0  0  0  0  0  0  0  0  0  0  0  0
    8.4550   12.7960   26.1030 C   0  0  0  0  0  0  0  0  0  0  0  0
    8.8550   11.2420   27.1320 Br  0  0  0  0  0  0  0  0  0  0  0  0
    8.7630   13.9910   26.7110 C   0  0  0  0  0  0  0  0  0  0  0  0
  1  2  1  0
  2  3  1  0
  3  4  2  0
  4  5  1  0
  5  6  2  0
  6  7  1  0
  7  8  2  0
  8  9  1  0
  9 10  2  0
 10 11  1  0
 11 12  2  0
 12 13  1  0
 13 14  1  0
 14 15  2  0
 14 16  1  0
 16 17  1  0
 17 18  1  0
 18 19  1  0
 19 20  1  0
 20 21  1  0
 21 22  2  0
 21 23  1  0
 23 24  2  0
 24 25  1  0
 25 26  2  0
 26 27  1  0
 23 28  1  0
 27 28  2  0
 19 29  1  0
 16 30  1  0
 29 30  1  0
 12 31  1  0
  9 32  1  0
 31 32  2  0
  7 33  1  0
 32 33  1  0
  6 34  1  0
 34 35  1  0
  3 36  1  0
 34 36  2  0
M  END
