DRA-CSI-0a78d9ba-2
     RDKit          3D

 34 38  0  0  0  0  0  0  0  0999 V2000
    6.5330    0.0900    9.7330 C   0  0  0  0  0  0  0  0  0  0  0  0
    5.3880   -0.7450    9.9400 O   0  0  0  0  0  0  0  0  0  0  0  0
    5.3690   -1.5710   10.9140 C   0  0  0  0  0  0  0  0  0  0  0  0
    4.9700   -2.8410   11.3260 C   0  0  0  0  0  0  0  0  0  0  0  0
    5.2810   -3.1900   12.6760 C   0  0  0  0  0  0  0  0  0  0  0  0
    5.9600   -2.4050   13.5610 C   0  0  0  0  0  0  0  0  0  0  0  0
    6.4120   -2.4230   15.1080 C   0  0  0  0  0  0  0  0  0  0  0  0
    7.4360   -2.9040   16.0170 N   0  0  0  0  0  0  0  0  0  0  0  0
    7.1460   -2.4550   17.2810 C   0  0  0  0  0  0  0  0  0  0  0  0
    7.9220   -2.6920   18.4930 C   0  0  0  0  0  0  0  0  0  0  0  0
    7.2880   -2.0290   19.7340 C   0  0  0  0  0  0  0  0  0  0  0  0
    6.0050   -1.2680   19.5440 C   0  0  0  0  0  0  0  0  0  0  0  0
    5.2660   -0.6100   20.4830 N   0  0  0  0  0  0  0  0  0  0  0  0
    5.7540   -0.2640   21.8210 C   0  0  0  0  0  0  0  0  0  0  0  0
    5.4110    0.6650   22.5380 O   0  0  0  0  0  0  0  0  0  0  0  0
    6.7440   -1.0730   22.3860 C   0  0  0  0  0  0  0  0  0  0  0  0
    6.4020   -2.5740   22.3730 C   0  0  0  0  0  0  0  0  0  0  0  0
    7.5370   -3.2830   23.1260 C   0  0  0  0  0  0  0  0  0  0  0  0
    8.6900   -2.5860   22.8420 N   0  0  0  0  0  0  0  0  0  0  0  0
    9.7710   -2.5910   23.8020 C   0  0  0  0  0  0  0  0  0  0  0  0
   10.6910   -1.4230   23.5000 C   0  0  0  0  0  0  0  0  0  0  0  0
    9.9200   -0.1410   23.4150 C   0  0  0  0  0  0  0  0  0  0  0  0
   10.5960    1.0630   23.1520 C   0  0  0  0  0  0  0  0  0  0  0  0
   12.1100    1.1100   22.9560 C   0  0  0  0  0  0  0  0  0  0  0  0
   12.8590    2.8260   22.6490 Br  0  0  0  0  0  0  0  0  0  0  0  0
   12.8900   -0.2120   23.0340 C   0  0  0  0  0  0  0  0  0  0  0  0
   12.0760   -1.4950   23.3230 C   0  0  0  0  0  0  0  0  0  0  0  0
    8.8080   -1.9450   21.5490 C   0  0  0  0  0  0  0  0  0  0  0  0
    7.9720   -0.8450   21.4860 C   0  0  0  0  0  0  0  0  0  0  0  0
    5.4440   -1.1820   18.2880 C   0  0  0  0  0  0  0  0  0  0  0  0
    6.0520   -1.7830   17.2050 C   0  0  0  0  0  0  0  0  0  0  0  0
    5.7070   -1.8230   15.9280 O   0  0  0  0  0  0  0  0  0  0  0  0
    6.1250   -1.3500   12.8700 C   0  0  0  0  0  0  0  0  0  0  0  0
    5.8940   -0.9080   11.7030 C   0  0  0  0  0  0  0  0  0  0  0  0
  1  2  1  0
  2  3  1  0
  3  4  2  0
  4  5  1  0
  5  6  2  0
  6  7  1  0
  7  8  2  0
  8  9  1  0
  9 10  2  0
 10 11  1  0
 11 12  2  0
 12 13  1  0
 13 14  1  0
 14 15  2  0
 14 16  1  0
 16 17  1  0
 17 18  1  0
 18 19  1  0
 19 20  1  0
 20 21  1  0
 21 22  2  0
 22 23  1  0
 23 24  2  0
 24 25  1  0
 24 26  1  0
 21 27  1  0
 26 27  2  0
 19 28  1  0
 16 29  1  0
 28 29  1  0
 12 30  1  0
  9 31  1  0
 30 31  2  0
  7 32  1  0
 31 32  1  0
  6 33  1  0
  3 34  1  0
 33 34  2  0
M  END
