DRA-CSI-3ab97369-15
     RDKit          3D

 19 21  0  0  0  0  0  0  0  0999 V2000
    7.5310   -1.7130   25.4490 O   0  0  0  0  0  0  0  0  0  0  0  0
    6.3390   -1.9160   25.5970 C   0  0  0  0  0  0  0  0  0  0  0  0
    5.5890   -2.8170   24.8030 N   0  0  0  0  0  0  0  0  0  0  0  0
    5.3780   -4.0360   25.5980 C   0  0  0  0  0  0  0  0  0  0  0  0
    5.2960   -4.1100   26.8820 N   0  0  0  0  0  0  0  0  0  0  0  0
    5.2350   -5.0280   25.8120 N   0  0  0  0  0  0  0  0  0  0  0  0
    5.3870   -4.6620   24.2990 C   0  0  0  0  0  0  0  0  0  0  0  0
    5.3680   -5.3140   22.9600 C   0  0  0  0  0  0  0  0  0  0  0  0
    4.3080   -5.9100   22.8420 C   0  0  0  0  0  0  0  0  0  0  0  0
    4.7070   -5.0360   24.0720 C   0  0  0  0  0  0  0  0  0  0  0  0
    6.1660   -4.7280   23.2440 C   0  0  0  0  0  0  0  0  0  0  0  0
    7.6440   -3.6380   23.7860 Br  0  0  0  0  0  0  0  0  0  0  0  0
    6.4370   -5.4160   21.7130 S   0  0  0  0  0  0  0  0  0  0  0  0
    5.1510   -5.8600   25.1560 S   0  0  0  0  0  0  0  0  0  0  0  0
    5.6210   -1.1750   26.7090 C   0  0  0  0  0  0  0  0  0  0  0  0
    6.4920   -0.8430   27.8850 C   0  0  0  0  0  0  0  0  0  0  0  0
    6.1990    0.4390   28.1740 C   0  0  0  0  0  0  0  0  0  0  0  0
    5.3750    1.0080   27.1960 C   0  0  0  0  0  0  0  0  0  0  0  0
    5.0980    0.0430   26.2140 C   0  0  0  0  0  0  0  0  0  0  0  0
  1  2  2  0
  2  3  1  0
  3  4  1  0
  4  5  2  0
  5  6  1  0
  6  7  2  0
  7  8  1  0
  8  9  2  0
  9 10  1  0
 10 11  2  0
 11 12  1  0
  8 13  1  0
 11 13  1  0
  4 14  1  0
  7 14  1  0
  2 15  1  0
 15 16  1  0
 16 17  1  0
 17 18  1  0
 15 19  1  0
 18 19  1  0
M  END
