DRA-CSI-3ab97369-5
     RDKit          3D

 39 43  0  0  0  0  0  0  0  0999 V2000
    6.4490   -6.3970   22.4430 C   0  0  0  0  0  0  0  0  0  0  0  0
    5.3960   -5.7680   22.4000 O   0  0  0  0  0  0  0  0  0  0  0  0
    5.4070   -4.6420   21.6400 C   0  0  0  0  0  0  0  0  0  0  0  0
    5.4480   -4.6100   20.2350 C   0  0  0  0  0  0  0  0  0  0  0  0
    5.4600   -3.3890   19.5490 C   0  0  0  0  0  0  0  0  0  0  0  0
    5.4480   -2.2140   20.1930 C   0  0  0  0  0  0  0  0  0  0  0  0
    5.5010   -0.8970   19.7110 C   0  0  0  0  0  0  0  0  0  0  0  0
    4.8140   -0.1290   18.8890 N   0  0  0  0  0  0  0  0  0  0  0  0
    5.6880    0.7480   19.3110 C   0  0  0  0  0  0  0  0  0  0  0  0
    6.0100   -0.5260   19.8310 C   0  0  0  0  0  0  0  0  0  0  0  0
    7.1050   -1.0170   20.7240 C   0  0  0  0  0  0  0  0  0  0  0  0
    8.0510   -0.2990   21.2710 C   0  0  0  0  0  0  0  0  0  0  0  0
    9.1260   -0.8450   22.1490 N   0  0  0  0  0  0  0  0  0  0  0  0
   10.3870   -0.2510   22.5700 C   0  0  0  0  0  0  0  0  0  0  0  0
   10.4430    0.9500   22.3180 O   0  0  0  0  0  0  0  0  0  0  0  0
   11.6010   -0.8560   23.2820 C   0  0  0  0  0  0  0  0  0  0  0  0
   12.6390   -1.9500   22.7930 C   0  0  0  0  0  0  0  0  0  0  0  0
   13.4710   -2.6530   23.8330 C   0  0  0  0  0  0  0  0  0  0  0  0
   14.0310   -1.8150   24.9800 N   0  0  0  0  0  0  0  0  0  0  0  0
   15.6090   -2.1560   26.1360 S   0  0  0  0  0  0  0  0  0  0  0  0
   14.9250   -3.4360   26.2220 O   0  0  0  0  0  0  0  0  0  0  0  0
   15.7330   -1.1940   26.9870 O   0  0  0  0  0  0  0  0  0  0  0  0
   17.8440   -1.8260   25.6700 C   0  0  0  0  0  0  0  0  0  0  0  0
   19.3160   -2.1050   26.4690 C   0  0  0  0  0  0  0  0  0  0  0  0
   20.6450   -1.8790   26.1570 C   0  0  0  0  0  0  0  0  0  0  0  0
   21.0030   -1.3260   25.0160 C   0  0  0  0  0  0  0  0  0  0  0  0
   22.4070   -1.0720   24.6510 N   0  0  0  0  0  0  0  0  0  0  0  0
   23.1710   -2.0450   24.5740 O   0  0  0  0  0  0  0  0  0  0  0  0
   22.7650    0.1080   24.5340 O   0  0  0  0  0  0  0  0  0  0  0  0
   19.9900   -1.0140   24.2170 C   0  0  0  0  0  0  0  0  0  0  0  0
   18.6280   -1.2290   24.4970 C   0  0  0  0  0  0  0  0  0  0  0  0
   12.8330   -0.8500   25.2910 C   0  0  0  0  0  0  0  0  0  0  0  0
   11.5650   -1.2290   24.7720 C   0  0  0  0  0  0  0  0  0  0  0  0
    7.8790    1.0210   20.8860 C   0  0  0  0  0  0  0  0  0  0  0  0
    6.7660    1.1020   20.0310 C   0  0  0  0  0  0  0  0  0  0  0  0
    6.5920   -0.2450   20.3070 O   0  0  0  0  0  0  0  0  0  0  0  0
    5.3930   -2.1490   21.6270 C   0  0  0  0  0  0  0  0  0  0  0  0
    5.3500   -0.5720   22.7030 Br  0  0  0  0  0  0  0  0  0  0  0  0
    5.3720   -3.4490   22.3600 C   0  0  0  0  0  0  0  0  0  0  0  0
  1  2  1  0
  2  3  1  0
  3  4  2  0
  4  5  1  0
  5  6  2  0
  6  7  1  0
  7  8  2  0
  8  9  1  0
  9 10  2  0
 10 11  1  0
 11 12  2  0
 12 13  1  0
 13 14  1  0
 14 15  2  0
 14 16  1  0
 16 17  1  0
 17 18  1  0
 18 19  1  0
 19 20  1  0
 20 21  2  0
 20 22  2  0
 20 23  1  0
 23 24  2  0
 24 25  1  0
 25 26  2  0
 26 27  1  0
 27 28  2  0
 27 29  1  0
 26 30  1  0
 23 31  1  0
 30 31  2  0
 19 32  1  0
 16 33  1  0
 32 33  1  0
 12 34  1  0
  9 35  1  0
 34 35  2  0
  7 36  1  0
 35 36  1  0
  6 37  1  0
 37 38  1  0
  3 39  1  0
 37 39  2  0
M  CHG  2  27   1  29  -1
M  END
