DRA-CSI-47e38074-4
     RDKit          3D

 23 25  0  0  0  0  0  0  0  0999 V2000
    4.8820   -1.3380   20.3980 O   0  0  0  0  0  0  0  0  0  0  0  0
    5.2470   -2.4260   21.2330 C   0  0  0  0  0  0  0  0  0  0  0  0
    4.4230   -3.3560   21.8290 O   0  0  0  0  0  0  0  0  0  0  0  0
    4.3610   -3.0990   23.2490 C   0  0  0  0  0  0  0  0  0  0  0  0
    4.5590   -4.1230   24.1910 C   0  0  0  0  0  0  0  0  0  0  0  0
    5.2450   -3.9480   25.3950 C   0  0  0  0  0  0  0  0  0  0  0  0
    5.4300   -4.9490   26.3060 C   0  0  0  0  0  0  0  0  0  0  0  0
    4.9330   -6.2040   26.0610 C   0  0  0  0  0  0  0  0  0  0  0  0
    4.1970   -6.5100   24.8300 C   0  0  0  0  0  0  0  0  0  0  0  0
    3.9820   -5.5390   23.8790 C   0  0  0  0  0  0  0  0  0  0  0  0
    6.5180   -2.6700   21.5560 N   0  0  0  0  0  0  0  0  0  0  0  0
    6.9350   -3.7740   22.3450 C   0  0  0  0  0  0  0  0  0  0  0  0
    7.6340   -3.3850   23.3790 C   0  0  0  0  0  0  0  0  0  0  0  0
    8.8320   -2.6830   22.9400 C   0  0  0  0  0  0  0  0  0  0  0  0
    9.6140   -2.3250   23.9920 C   0  0  0  0  0  0  0  0  0  0  0  0
   10.7410   -1.4200   23.5750 C   0  0  0  0  0  0  0  0  0  0  0  0
   10.5850   -0.0540   23.3710 C   0  0  0  0  0  0  0  0  0  0  0  0
   11.6800    0.8940   22.9590 C   0  0  0  0  0  0  0  0  0  0  0  0
   13.0100    0.2340   22.7810 C   0  0  0  0  0  0  0  0  0  0  0  0
   13.1560   -1.1170   22.9760 C   0  0  0  0  0  0  0  0  0  0  0  0
   12.1520   -1.9820   23.3510 C   0  0  0  0  0  0  0  0  0  0  0  0
    8.3530   -1.3540   22.3670 C   0  0  0  0  0  0  0  0  0  0  0  0
    7.4510   -1.5440   21.3290 C   0  0  0  0  0  0  0  0  0  0  0  0
  1  2  2  0
  2  3  1  0
  3  4  1  0
  4  5  1  0
  5  6  2  0
  6  7  1  0
  7  8  2  0
  8  9  1  0
  5 10  1  0
  9 10  2  0
  2 11  1  0
 11 12  1  0
 12 13  1  0
 13 14  1  0
 14 15  1  0
 15 16  1  0
 16 17  2  0
 17 18  1  0
 18 19  2  0
 19 20  1  0
 16 21  1  0
 20 21  2  0
 14 22  1  0
 11 23  1  0
 22 23  1  0
M  END
