DRE-WAB-eb790b7a-1
     RDKit          3D

 23 24  0  0  0  0  0  0  0  0999 V2000
    8.3290   -1.1620   28.5130 C   0  0  0  0  0  0  0  0  0  0  0  0
    7.3340   -0.2930   27.8430 C   0  0  0  0  0  0  0  0  0  0  0  0
    6.3740    0.4060   28.4730 C   0  0  0  0  0  0  0  0  0  0  0  0
    5.3400    1.3060   27.8390 C   0  0  0  0  0  0  0  0  0  0  0  0
    5.2980    1.4930   26.4860 N   0  0  0  0  0  0  0  0  0  0  0  0
    6.2830    0.7770   25.8310 C   0  0  0  0  0  0  0  0  0  0  0  0
    7.3430   -0.1450   26.4580 C   0  0  0  0  0  0  0  0  0  0  0  0
    8.2810   -0.7990   25.5400 N   0  0  0  0  0  0  0  0  0  0  0  0
    8.0000   -0.8490   24.1110 C   0  0  0  0  0  0  0  0  0  0  0  0
    7.1570   -0.2650   23.4440 O   0  0  0  0  0  0  0  0  0  0  0  0
    8.9100   -1.7730   23.2790 C   0  0  2  0  0  0  0  0  0  0  0  0
    8.8880   -3.1100   23.7870 C   0  0  0  0  0  0  0  0  0  0  0  0
    7.8050   -3.3890   24.7490 N   0  0  0  0  0  0  0  0  0  0  0  0
    8.0470   -4.3850   26.0980 S   0  0  0  0  0  0  0  0  0  0  0  0
    6.4790   -5.2040   26.2810 C   0  0  0  0  0  0  0  0  0  0  0  0
    9.0540   -5.3610   25.7500 O   0  0  0  0  0  0  0  0  0  0  0  0
    8.1690   -3.5180   27.2370 O   0  0  0  0  0  0  0  0  0  0  0  0
   10.3280   -1.1970   23.1660 C   0  0  0  0  0  0  0  0  0  0  0  0
   10.6940   -0.0650   23.9230 C   0  0  0  0  0  0  0  0  0  0  0  0
   11.9570    0.4900   23.8560 C   0  0  0  0  0  0  0  0  0  0  0  0
   12.8910   -0.0790   23.0290 C   0  0  0  0  0  0  0  0  0  0  0  0
   12.6120   -1.1950   22.2520 C   0  0  0  0  0  0  0  0  0  0  0  0
   11.3210   -1.7620   22.3160 C   0  0  0  0  0  0  0  0  0  0  0  0
  1  2  1  0
  2  3  2  0
  3  4  1  0
  4  5  2  0
  5  6  1  0
  2  7  1  0
  6  7  2  0
  7  8  1  0
  8  9  1  0
  9 10  2  0
  9 11  1  0
 11 12  1  1
 12 13  1  0
 14 13  1  0
 14 15  1  0
 14 16  2  0
 14 17  2  0
 11 18  1  0
 18 19  2  0
 19 20  1  0
 20 21  2  0
 21 22  1  0
 18 23  1  0
 22 23  2  0
M  END
