DRR-SHR-9a662592-1
     RDKit          3D

 22 23  0  0  0  0  0  0  0  0999 V2000
   13.4270   -2.5980   22.8160 C   0  0  0  0  0  0  0  0  0  0  0  0
   13.0440   -2.6020   21.3900 C   0  0  0  0  0  0  0  0  0  0  0  0
   11.6430   -2.6950   21.5630 O   0  0  0  0  0  0  0  0  0  0  0  0
   11.5840   -1.5240   22.1640 C   0  0  0  0  0  0  0  0  0  0  0  0
   12.9550   -0.9380   22.1310 C   0  0  0  0  0  0  0  0  0  0  0  0
   13.1160    0.4150   22.7320 C   0  0  0  0  0  0  0  0  0  0  0  0
   11.8630    1.0120   23.2840 C   0  0  0  0  0  0  0  0  0  0  0  0
   10.6250    0.3450   23.2730 C   0  0  0  0  0  0  0  0  0  0  0  0
   10.4750   -0.9210   22.7220 C   0  0  0  0  0  0  0  0  0  0  0  0
    9.2190   -1.5240   22.7450 C   0  0  0  0  0  0  0  0  0  0  0  0
    8.5130   -1.4810   21.7430 O   0  0  0  0  0  0  0  0  0  0  0  0
    8.7750   -2.1420   23.9040 C   0  0  0  0  0  0  0  0  0  0  0  0
    7.4870   -1.8250   24.3440 C   0  0  0  0  0  0  0  0  0  0  0  0
    6.9810   -2.4680   25.6160 C   0  0  0  0  0  0  0  0  0  0  0  0
    5.9540   -1.7400   26.1960 C   0  0  0  0  0  0  0  0  0  0  0  0
    5.4600   -2.3080   27.3940 C   0  0  0  0  0  0  0  0  0  0  0  0
    4.4430   -1.5420   27.9210 C   0  0  0  0  0  0  0  0  0  0  0  0
    5.9480   -3.4850   27.9490 C   0  0  0  0  0  0  0  0  0  0  0  0
    6.9960   -4.2040   27.3300 C   0  0  0  0  0  0  0  0  0  0  0  0
    7.6770   -5.7950   28.0600 Br  0  0  0  0  0  0  0  0  0  0  0  0
    7.4770   -3.6540   26.1650 C   0  0  0  0  0  0  0  0  0  0  0  0
    8.4950   -4.2930   25.5020 O   0  0  0  0  0  0  0  0  0  0  0  0
  1  2  1  0
  2  3  1  0
  3  4  1  0
  4  5  2  0
  5  6  1  0
  6  7  2  0
  7  8  1  0
  4  9  1  0
  8  9  2  0
  9 10  1  0
 10 11  2  0
 10 12  1  0
 12 13  2  3
 13 14  1  0
 14 15  2  0
 15 16  1  0
 16 17  1  0
 16 18  2  0
 18 19  1  0
 19 20  1  0
 14 21  1  0
 19 21  2  0
 21 22  1  0
M  END
