DRR-SHR-2ae5ab8c-6
     RDKit          3D

 22 23  0  0  0  0  0  0  0  0999 V2000
    3.5960   -2.8060   24.5560 C   0  0  0  0  0  0  0  0  0  0  0  0
    4.6890   -3.4060   25.3340 C   0  0  0  0  0  0  0  0  0  0  0  0
    5.1330   -4.5040   25.0200 O   0  0  0  0  0  0  0  0  0  0  0  0
    6.3460   -4.8740   25.6840 C   0  0  0  0  0  0  0  0  0  0  0  0
    6.2870   -5.7060   26.9000 C   0  0  0  0  0  0  0  0  0  0  0  0
    7.4500   -6.0940   27.5800 C   0  0  0  0  0  0  0  0  0  0  0  0
    8.7560   -5.6810   27.0740 C   0  0  0  0  0  0  0  0  0  0  0  0
    8.8080   -4.9250   25.9770 C   0  0  0  0  0  0  0  0  0  0  0  0
    7.6220   -4.4680   25.2230 C   0  0  0  0  0  0  0  0  0  0  0  0
    7.8140   -3.6010   24.0420 C   0  0  0  0  0  0  0  0  0  0  0  0
    8.2490   -2.2780   24.1940 C   0  0  0  0  0  0  0  0  0  0  0  0
    8.4570   -1.2890   23.2470 C   0  0  0  0  0  0  0  0  0  0  0  0
    7.5300   -0.8610   22.5760 O   0  0  0  0  0  0  0  0  0  0  0  0
    9.7230   -0.7500   23.0270 C   0  0  0  0  0  0  0  0  0  0  0  0
   10.1310    0.5930   23.2070 C   0  0  0  0  0  0  0  0  0  0  0  0
   11.4480    1.0910   22.9460 C   0  0  0  0  0  0  0  0  0  0  0  0
   11.7250    2.8320   23.1680 Cl  0  0  0  0  0  0  0  0  0  0  0  0
   12.4110    0.1910   22.5020 C   0  0  0  0  0  0  0  0  0  0  0  0
   11.9950   -1.1150   22.3030 C   0  0  0  0  0  0  0  0  0  0  0  0
   13.1500   -2.3510   21.6300 Br  0  0  0  0  0  0  0  0  0  0  0  0
   10.7300   -1.5420   22.5570 C   0  0  0  0  0  0  0  0  0  0  0  0
   10.5630   -2.9310   22.2650 O   0  0  0  0  0  0  0  0  0  0  0  0
  1  2  1  0
  2  3  1  0
  3  4  1  0
  4  5  2  0
  5  6  1  0
  6  7  2  0
  7  8  1  0
  4  9  1  0
  8  9  2  0
  9 10  1  0
 10 11  2  3
 11 12  1  0
 12 13  2  0
 12 14  1  0
 14 15  2  0
 15 16  1  0
 16 17  1  0
 16 18  2  0
 18 19  1  0
 19 20  1  0
 14 21  1  0
 19 21  2  0
 21 22  1  0
M  END
