DRR-SHR-2ae5ab8c-5
     RDKit          3D

 22 23  0  0  0  0  0  0  0  0999 V2000
    6.5720   -4.9200   28.9030 C   0  0  0  0  0  0  0  0  0  0  0  0
    6.6040   -6.2420   28.2710 C   0  0  0  0  0  0  0  0  0  0  0  0
    5.7010   -6.2240   27.1560 O   0  0  0  0  0  0  0  0  0  0  0  0
    6.0280   -5.2500   26.1720 C   0  0  0  0  0  0  0  0  0  0  0  0
    5.2440   -4.1630   25.8160 C   0  0  0  0  0  0  0  0  0  0  0  0
    5.6510   -3.2000   24.7990 C   0  0  0  0  0  0  0  0  0  0  0  0
    6.8460   -3.3410   24.1470 C   0  0  0  0  0  0  0  0  0  0  0  0
    7.1420   -2.2660   23.1240 C   0  0  0  0  0  0  0  0  0  0  0  0
    8.4600   -2.2260   22.7020 C   0  0  0  0  0  0  0  0  0  0  0  0
    8.5900   -1.1280   21.6870 C   0  0  0  0  0  0  0  0  0  0  0  0
    7.8570   -0.7250   20.7800 O   0  0  0  0  0  0  0  0  0  0  0  0
    9.9450   -0.7640   22.2700 C   0  0  0  0  0  0  0  0  0  0  0  0
   10.2130    0.6020   22.3460 C   0  0  0  0  0  0  0  0  0  0  0  0
   11.5020    1.2740   22.8450 C   0  0  0  0  0  0  0  0  0  0  0  0
   11.7150    3.3560   22.8300 I   0  0  0  0  0  0  0  0  0  0  0  0
   12.5230    0.2490   23.3110 C   0  0  0  0  0  0  0  0  0  0  0  0
   12.1460   -1.1940   23.2190 C   0  0  0  0  0  0  0  0  0  0  0  0
   13.4800   -2.5810   23.9010 I   0  0  0  0  0  0  0  0  0  0  0  0
   10.9280   -1.6210   22.7060 C   0  0  0  0  0  0  0  0  0  0  0  0
   10.5140   -2.8970   22.5590 O   0  0  0  0  0  0  0  0  0  0  0  0
    7.6800   -4.4310   24.4670 C   0  0  0  0  0  0  0  0  0  0  0  0
    7.3180   -5.3720   25.4450 C   0  0  0  0  0  0  0  0  0  0  0  0
  1  2  1  0
  2  3  1  0
  3  4  1  0
  4  5  2  0
  5  6  1  0
  6  7  2  0
  7  8  1  0
  8  9  2  3
  9 10  1  0
 10 11  2  0
 10 12  1  0
 12 13  2  0
 13 14  1  0
 14 15  1  0
 14 16  2  0
 16 17  1  0
 17 18  1  0
 12 19  1  0
 17 19  2  0
 19 20  1  0
  7 21  1  0
  4 22  1  0
 21 22  2  0
M  END
