DRR-SHR-2ae5ab8c-3
     RDKit          3D

 22 23  0  0  0  0  0  0  0  0999 V2000
    1.7410   -7.8150   23.1750 C   0  0  0  0  0  0  0  0  0  0  0  0
    2.4280   -7.9120   24.5080 C   0  0  0  0  0  0  0  0  0  0  0  0
    3.6450   -7.9830   24.5970 O   0  0  0  0  0  0  0  0  0  0  0  0
    4.3610   -6.8330   24.4060 C   0  0  0  0  0  0  0  0  0  0  0  0
    5.0210   -5.9390   25.4120 C   0  0  0  0  0  0  0  0  0  0  0  0
    5.7920   -4.7050   25.0400 C   0  0  0  0  0  0  0  0  0  0  0  0
    5.8640   -4.4400   23.7330 C   0  0  0  0  0  0  0  0  0  0  0  0
    6.5700   -3.3100   23.1220 C   0  0  0  0  0  0  0  0  0  0  0  0
    8.0740   -3.3420   23.0870 C   0  0  0  0  0  0  0  0  0  0  0  0
    8.8510   -2.2410   22.4340 C   0  0  0  0  0  0  0  0  0  0  0  0
    8.3410   -1.4930   21.6040 O   0  0  0  0  0  0  0  0  0  0  0  0
   10.2760   -2.0800   22.8570 C   0  0  0  0  0  0  0  0  0  0  0  0
   11.0730   -1.0780   22.1850 C   0  0  0  0  0  0  0  0  0  0  0  0
   12.3430   -0.9040   22.5870 C   0  0  0  0  0  0  0  0  0  0  0  0
   13.5010    0.0910   22.1470 Cl  0  0  0  0  0  0  0  0  0  0  0  0
   12.9430   -1.5490   23.5460 C   0  0  0  0  0  0  0  0  0  0  0  0
   12.3000   -2.3930   24.1180 C   0  0  0  0  0  0  0  0  0  0  0  0
   13.6760   -2.9700   25.4550 I   0  0  0  0  0  0  0  0  0  0  0  0
   10.9000   -2.7750   23.8250 C   0  0  0  0  0  0  0  0  0  0  0  0
   10.1860   -3.7300   24.4320 O   0  0  0  0  0  0  0  0  0  0  0  0
    5.2290   -5.2870   22.7830 C   0  0  0  0  0  0  0  0  0  0  0  0
    4.5150   -6.4190   23.0920 C   0  0  0  0  0  0  0  0  0  0  0  0
  1  2  1  0
  2  3  1  0
  3  4  1  0
  4  5  2  0
  5  6  1  0
  6  7  2  0
  7  8  1  0
  8  9  2  3
  9 10  1  0
 10 11  2  0
 10 12  1  0
 12 13  2  0
 13 14  1  0
 14 15  1  0
 14 16  2  0
 16 17  1  0
 17 18  1  0
 12 19  1  0
 17 19  2  0
 19 20  1  0
  7 21  1  0
  4 22  1  0
 21 22  2  0
M  END
