DRR-SHR-2ae5ab8c-10
     RDKit          3D

 22 23  0  0  0  0  0  0  0  0999 V2000
   13.3200   -3.9360   26.4810 C   0  0  0  0  0  0  0  0  0  0  0  0
   11.9860   -3.9320   25.8470 C   0  0  0  0  0  0  0  0  0  0  0  0
   11.0080   -3.2650   26.1560 O   0  0  0  0  0  0  0  0  0  0  0  0
    9.7910   -3.8880   26.3670 C   0  0  0  0  0  0  0  0  0  0  0  0
    9.5800   -5.1180   27.2390 C   0  0  0  0  0  0  0  0  0  0  0  0
    8.2530   -5.8020   27.4780 C   0  0  0  0  0  0  0  0  0  0  0  0
    7.0270   -5.2250   26.8030 C   0  0  0  0  0  0  0  0  0  0  0  0
    7.1930   -3.9740   25.9160 C   0  0  0  0  0  0  0  0  0  0  0  0
    8.5460   -3.2980   25.6930 C   0  0  0  0  0  0  0  0  0  0  0  0
    8.7830   -2.0650   24.8610 C   0  0  0  0  0  0  0  0  0  0  0  0
    8.1650   -1.9700   23.6610 C   0  0  0  0  0  0  0  0  0  0  0  0
    8.4240   -0.7920   22.9410 C   0  0  0  0  0  0  0  0  0  0  0  0
    7.5090   -0.0990   22.4990 O   0  0  0  0  0  0  0  0  0  0  0  0
    9.7460   -0.4430   22.7440 C   0  0  0  0  0  0  0  0  0  0  0  0
   10.2900    0.7900   22.9340 C   0  0  0  0  0  0  0  0  0  0  0  0
   11.6400    1.1240   22.7250 C   0  0  0  0  0  0  0  0  0  0  0  0
   12.2430    3.1030   22.8700 I   0  0  0  0  0  0  0  0  0  0  0  0
   12.6110    0.1800   22.3390 C   0  0  0  0  0  0  0  0  0  0  0  0
   12.0090   -1.1980   22.0600 C   0  0  0  0  0  0  0  0  0  0  0  0
   13.0170   -2.7930   21.3190 I   0  0  0  0  0  0  0  0  0  0  0  0
   10.5630   -1.3800   22.2910 C   0  0  0  0  0  0  0  0  0  0  0  0
   10.0870   -2.6360   21.9570 O   0  0  0  0  0  0  0  0  0  0  0  0
  1  2  1  0
  2  3  1  0
  3  4  1  0
  4  5  2  0
  5  6  1  0
  6  7  2  0
  7  8  1  0
  4  9  1  0
  8  9  2  0
  9 10  1  0
 10 11  2  3
 11 12  1  0
 12 13  2  0
 12 14  1  0
 14 15  2  0
 15 16  1  0
 16 17  1  0
 16 18  2  0
 18 19  1  0
 19 20  1  0
 14 21  1  0
 19 21  2  0
 21 22  1  0
M  END
