DRR-SHR-2ae5ab8c-8
     RDKit          3D

 22 23  0  0  0  0  0  0  0  0999 V2000
    3.3180   -4.0670   24.0980 C   0  0  0  0  0  0  0  0  0  0  0  0
    4.2110   -4.4630   25.2330 C   0  0  0  0  0  0  0  0  0  0  0  0
    5.2040   -3.8110   25.5350 O   0  0  0  0  0  0  0  0  0  0  0  0
    6.2310   -4.4840   26.1340 C   0  0  0  0  0  0  0  0  0  0  0  0
    6.1300   -5.3610   27.3570 C   0  0  0  0  0  0  0  0  0  0  0  0
    7.2930   -6.0700   27.9770 C   0  0  0  0  0  0  0  0  0  0  0  0
    8.4250   -5.8590   27.3370 C   0  0  0  0  0  0  0  0  0  0  0  0
    8.6940   -5.0510   26.1440 C   0  0  0  0  0  0  0  0  0  0  0  0
    7.5030   -4.3370   25.5510 C   0  0  0  0  0  0  0  0  0  0  0  0
    7.6820   -3.4610   24.3520 C   0  0  0  0  0  0  0  0  0  0  0  0
    8.2330   -2.0610   24.5340 C   0  0  0  0  0  0  0  0  0  0  0  0
    8.4260   -1.1360   23.3650 C   0  0  0  0  0  0  0  0  0  0  0  0
    7.4280   -0.8560   22.6370 O   0  0  0  0  0  0  0  0  0  0  0  0
    9.6190   -0.6070   23.0790 C   0  0  0  0  0  0  0  0  0  0  0  0
    9.8850    0.7890   23.2390 C   0  0  0  0  0  0  0  0  0  0  0  0
   11.1020    1.2940   22.9410 C   0  0  0  0  0  0  0  0  0  0  0  0
   11.4720    2.9820   23.0690 Cl  0  0  0  0  0  0  0  0  0  0  0  0
   12.1220    0.3490   22.4780 C   0  0  0  0  0  0  0  0  0  0  0  0
   11.7720   -0.9680   22.3250 C   0  0  0  0  0  0  0  0  0  0  0  0
   13.0980   -2.2550   21.5840 I   0  0  0  0  0  0  0  0  0  0  0  0
   10.5760   -1.4500   22.6120 C   0  0  0  0  0  0  0  0  0  0  0  0
   10.3750   -2.7780   22.4110 O   0  0  0  0  0  0  0  0  0  0  0  0
  1  2  1  0
  2  3  1  0
  3  4  1  0
  4  5  2  0
  5  6  1  0
  6  7  2  0
  7  8  1  0
  4  9  1  0
  8  9  2  0
  9 10  1  0
 10 11  2  3
 11 12  1  0
 12 13  2  0
 12 14  1  0
 14 15  2  0
 15 16  1  0
 16 17  1  0
 16 18  2  0
 18 19  1  0
 19 20  1  0
 14 21  1  0
 19 21  2  0
 21 22  1  0
M  END
