DRV-UNK-64047f27-7
     RDKit          3D

 30 33  0  0  0  0  0  0  0  0999 V2000
    8.2560    1.8460   21.4920 C   0  0  0  0  0  0  0  0  0  0  0  0
    7.7990    0.5910   21.0880 C   0  0  0  0  0  0  0  0  0  0  0  0
    8.5310   -0.5500   21.3660 C   0  0  2  0  0  0  0  0  0  0  0  0
    7.8540   -1.5580   22.0280 C   0  0  0  0  0  0  0  0  0  0  0  0
    9.8960   -0.3740   21.9430 N   0  0  0  0  0  0  0  0  0  0  0  0
   10.7490   -1.5980   21.9960 C   0  0  0  0  0  0  0  0  0  0  0  0
   11.5580   -1.8090   23.2770 C   0  0  0  0  0  0  0  0  0  0  0  0
   10.8330   -1.1360   24.3520 N   0  0  0  0  0  0  0  0  0  0  0  0
    9.5150   -1.6760   24.3980 C   0  0  0  0  0  0  0  0  0  0  0  0
    9.2710   -2.9070   23.5620 C   0  0  0  0  0  0  0  0  0  0  0  0
    8.0130   -3.5230   23.5370 C   0  0  0  0  0  0  0  0  0  0  0  0
    6.9510   -3.0300   24.2710 C   0  0  0  0  0  0  0  0  0  0  0  0
    5.7200   -3.6830   24.2000 C   0  0  1  0  0  0  0  0  0  0  0  0
    5.7190   -4.9690   24.8620 N   0  0  0  0  0  0  0  0  0  0  0  0
    4.6240   -5.1320   25.6820 C   0  0  0  0  0  0  0  0  0  0  0  0
    4.2690   -6.1490   26.2410 O   0  0  0  0  0  0  0  0  0  0  0  0
    3.9900   -3.8850   25.7510 C   0  0  0  0  0  0  0  0  0  0  0  0
    2.9110   -3.6170   26.5700 C   0  0  0  0  0  0  0  0  0  0  0  0
    2.2510   -2.2150   26.6060 C   0  0  0  0  0  0  0  0  0  0  0  0
    3.0270   -1.3070   25.6110 C   0  0  0  0  0  0  0  0  0  0  0  0
    4.1190   -1.7100   24.8300 C   0  0  0  0  0  0  0  0  0  0  0  0
    4.5970   -2.9960   24.9010 C   0  0  0  0  0  0  0  0  0  0  0  0
    7.1440   -1.8860   25.0650 C   0  0  0  0  0  0  0  0  0  0  0  0
    8.3790   -1.2110   25.1470 C   0  0  0  0  0  0  0  0  0  0  0  0
    8.3640    0.1890   26.2410 S   0  0  0  0  0  0  0  0  0  0  0  0
    7.3130   -0.2760   27.4690 N   0  0  0  0  0  0  0  0  0  0  0  0
    7.7480    1.3370   25.6130 O   0  0  0  0  0  0  0  0  0  0  0  0
    9.6230    0.2700   26.9370 O   0  0  0  0  0  0  0  0  0  0  0  0
   10.9320    0.3120   24.1660 C   0  0  0  0  0  0  0  0  0  0  0  0
   10.2130    0.7420   22.8790 C   0  0  0  0  0  0  0  0  0  0  0  0
  1  2  1  0
  2  3  1  0
  3  4  1  1
  3  5  1  0
  5  6  1  0
  6  7  1  0
  7  8  1  0
  8  9  1  0
  9 10  2  0
 10 11  1  0
 11 12  2  0
 13 12  1  1
 13 14  1  0
 14 15  1  0
 15 16  2  0
 15 17  1  0
 17 18  1  0
 18 19  2  0
 19 20  1  0
 20 21  2  0
 13 22  1  0
 17 22  2  0
 21 22  1  0
 12 23  1  0
  9 24  1  0
 23 24  2  0
 24 25  1  0
 25 26  1  0
 25 27  2  0
 25 28  2  0
  8 29  1  0
  5 30  1  0
 29 30  1  0
M  END
