DRV-DNY-3e405af9-2
     RDKit          3D

 34 38  0  0  0  0  0  0  0  0999 V2000
    8.0280    5.1980   22.6210 O   0  0  0  0  0  0  0  0  0  0  0  0
    8.8810    4.2960   22.5980 N   0  0  0  0  0  0  0  0  0  0  0  0
   10.0360    4.4930   23.0070 O   0  0  0  0  0  0  0  0  0  0  0  0
    8.4170    3.1140   22.8350 C   0  0  0  0  0  0  0  0  0  0  0  0
    7.7300    3.0000   24.1750 C   0  0  0  0  0  0  0  0  0  0  0  0
    7.2170    1.7650   24.5030 C   0  0  0  0  0  0  0  0  0  0  0  0
    7.3350    0.6750   23.6330 C   0  0  0  0  0  0  0  0  0  0  0  0
    6.8070   -0.4160   24.1180 N   0  0  0  0  0  0  0  0  0  0  0  0
    6.1670   -0.8190   23.0160 N   0  0  0  0  0  0  0  0  0  0  0  0
    5.7820   -1.9370   23.6150 C   0  0  0  0  0  0  0  0  0  0  0  0
    5.3350   -2.9730   23.2000 C   0  0  0  0  0  0  0  0  0  0  0  0
    6.6240   -3.0330   23.6050 C   0  0  0  0  0  0  0  0  0  0  0  0
    7.3320   -4.0060   23.5990 C   0  0  0  0  0  0  0  0  0  0  0  0
    6.7740   -5.0220   23.1670 C   0  0  0  0  0  0  0  0  0  0  0  0
    7.7230   -5.7960   23.2920 C   0  0  0  0  0  0  0  0  0  0  0  0
    7.6600   -6.9860   22.9590 C   0  0  0  0  0  0  0  0  0  0  0  0
    6.4280   -7.4760   22.4390 C   0  0  0  0  0  0  0  0  0  0  0  0
    5.1870   -6.5590   22.2640 C   0  0  0  0  0  0  0  0  0  0  0  0
    5.4820   -5.1910   22.6950 C   0  0  0  0  0  0  0  0  0  0  0  0
    4.5540   -3.9660   22.6920 C   0  0  0  0  0  0  0  0  0  0  0  0
    6.0810   -2.0940   24.9010 C   0  0  0  0  0  0  0  0  0  0  0  0
    6.8770   -1.0490   25.4470 C   0  0  0  0  0  0  0  0  0  0  0  0
    6.6440   -2.0040   26.5070 C   0  0  0  0  0  0  0  0  0  0  0  0
    6.6710   -2.9290   25.3310 C   0  0  0  0  0  0  0  0  0  0  0  0
    6.4090   -3.6160   26.4040 C   0  0  0  0  0  0  0  0  0  0  0  0
    6.5020   -2.5130   27.3940 C   0  0  0  0  0  0  0  0  0  0  0  0
    6.2280   -3.7340   27.8940 F   0  0  0  0  0  0  0  0  0  0  0  0
    6.3410   -2.6430   28.7290 C   0  0  0  0  0  0  0  0  0  0  0  0
    6.3570   -3.3450   27.5310 C   0  0  0  0  0  0  0  0  0  0  0  0
    7.9570    0.7560   22.3680 C   0  0  0  0  0  0  0  0  0  0  0  0
    8.0540   -0.3940   21.4430 N   0  0  0  0  0  0  0  0  0  0  0  0
    9.0860   -1.0660   21.5520 O   0  0  0  0  0  0  0  0  0  0  0  0
    7.4150   -0.2710   20.3860 O   0  0  0  0  0  0  0  0  0  0  0  0
    8.5100    1.9950   21.9650 C   0  0  0  0  0  0  0  0  0  0  0  0
  1  2  2  0
  2  3  1  0
  2  4  1  0
  4  5  2  0
  5  6  1  0
  6  7  2  0
  7  8  1  0
  8  9  1  0
  9 10  2  0
 10 11  1  0
 11 12  2  0
 12 13  1  0
 13 14  2  0
 14 15  1  0
 15 16  2  0
 16 17  1  0
 17 18  2  0
 14 19  1  0
 18 19  1  0
 11 20  1  0
 19 20  2  0
 10 21  1  0
  8 22  1  0
 21 22  2  0
 22 23  1  0
 23 24  2  0
 24 25  1  0
 25 26  2  0
 26 27  1  0
 26 28  1  0
 23 29  1  0
 28 29  2  0
  7 30  1  0
 30 31  1  0
 31 32  2  0
 31 33  1  0
  4 34  1  0
 30 34  2  0
M  CHG  4   2   1   3  -1  31   1  33  -1
M  END
