DRV-UNK-dd7f8c68-7
     RDKit          3D

 30 33  0  0  0  0  0  0  0  0999 V2000
    2.9550   -7.1090   26.3920 C   0  0  0  0  0  0  0  0  0  0  0  0
    3.0070   -5.6820   26.2280 O   0  0  0  0  0  0  0  0  0  0  0  0
    4.1210   -5.2650   25.5670 C   0  0  0  0  0  0  0  0  0  0  0  0
    4.1130   -3.9590   25.0990 C   0  0  0  0  0  0  0  0  0  0  0  0
    5.1580   -3.3560   24.4010 C   0  0  0  0  0  0  0  0  0  0  0  0
    5.1490   -2.1080   23.9470 N   0  0  0  0  0  0  0  0  0  0  0  0
    5.4380   -2.0730   22.6330 C   0  0  0  0  0  0  0  0  0  0  0  0
    5.0190   -3.1180   21.7090 C   0  0  0  0  0  0  0  0  0  0  0  0
    5.4040   -2.9510   20.2300 C   0  0  0  0  0  0  0  0  0  0  0  0
    6.1760   -1.8710   19.4560 C   0  0  0  0  0  0  0  0  0  0  0  0
    6.9380   -0.7180   18.9500 C   0  0  1  0  0  0  0  0  0  0  0  0
    6.1140   -0.0170   18.0810 N   0  0  0  0  0  0  0  0  0  0  0  0
    5.2250    0.8760   18.8170 C   0  0  0  0  0  0  0  0  0  0  0  0
    4.1220    1.3090   18.4530 O   0  0  0  0  0  0  0  0  0  0  0  0
    5.8510    1.1460   20.0580 C   0  0  0  0  0  0  0  0  0  0  0  0
    5.4820    2.1030   20.9220 C   0  0  0  0  0  0  0  0  0  0  0  0
    4.4950    2.5150   20.2230 C   0  0  0  0  0  0  0  0  0  0  0  0
    4.5450    1.6540   19.0930 C   0  0  0  0  0  0  0  0  0  0  0  0
    5.5930    0.5650   18.9390 C   0  0  0  0  0  0  0  0  0  0  0  0
    6.7010    0.2430   19.9160 C   0  0  0  0  0  0  0  0  0  0  0  0
    6.4800   -0.9960   20.5730 C   0  0  0  0  0  0  0  0  0  0  0  0
    6.1500   -1.0600   22.0630 C   0  0  0  0  0  0  0  0  0  0  0  0
    6.7700    0.3210   23.0970 S   0  0  0  0  0  0  0  0  0  0  0  0
    6.8670   -0.3830   24.6200 N   0  0  0  0  0  0  0  0  0  0  0  0
    5.7390    1.3240   23.2560 O   0  0  0  0  0  0  0  0  0  0  0  0
    8.1430    0.6370   22.7640 O   0  0  0  0  0  0  0  0  0  0  0  0
    6.3090   -4.1300   24.1500 C   0  0  0  0  0  0  0  0  0  0  0  0
    7.4290   -3.6540   23.4610 C   0  0  0  0  0  0  0  0  0  0  0  0
    6.2980   -5.4320   24.6240 C   0  0  0  0  0  0  0  0  0  0  0  0
    5.2040   -6.0750   25.3620 N   0  0  0  0  0  0  0  0  0  0  0  0
  1  2  1  0
  2  3  1  0
  3  4  2  0
  4  5  1  0
  5  6  1  0
  6  7  1  0
  7  8  2  0
  8  9  1  0
  9 10  2  0
 11 10  1  1
 11 12  1  0
 12 13  1  0
 13 14  2  0
 13 15  1  0
 15 16  1  0
 16 17  2  0
 17 18  1  0
 18 19  2  0
 11 20  1  0
 15 20  2  0
 19 20  1  0
 10 21  1  0
  7 22  1  0
 21 22  2  0
 22 23  1  0
 23 24  1  0
 23 25  2  0
 23 26  2  0
  5 27  2  0
 27 28  1  0
 27 29  1  0
  3 30  1  0
 29 30  2  0
M  END
