DRV-DNY-ae159ed1-7
     RDKit          3D

 22 24  0  0  0  0  0  0  0  0999 V2000
   13.3200   -2.0630   20.8720 C   0  0  0  0  0  0  0  0  0  0  0  0
   13.5570   -1.9220   22.2420 O   0  0  0  0  0  0  0  0  0  0  0  0
   12.6180   -1.1740   22.7870 C   0  0  0  0  0  0  0  0  0  0  0  0
   12.9210    0.2620   22.9680 C   0  0  0  0  0  0  0  0  0  0  0  0
   11.8930    1.1220   23.5580 C   0  0  0  0  0  0  0  0  0  0  0  0
   10.6970    0.5320   23.9120 C   0  0  0  0  0  0  0  0  0  0  0  0
    9.6630    1.4340   24.4770 C   0  0  0  0  0  0  0  0  0  0  0  0
   10.1190    2.7850   24.4170 O   0  0  0  0  0  0  0  0  0  0  0  0
    8.2900    0.9700   24.8770 C   0  0  0  0  0  0  0  0  0  0  0  0
    7.4020    1.6820   23.9220 C   0  0  0  0  0  0  0  0  0  0  0  0
    6.0320    1.6990   23.8730 C   0  0  0  0  0  0  0  0  0  0  0  0
    5.2660    1.4000   25.0010 C   0  0  0  0  0  0  0  0  0  0  0  0
    3.9140    1.4910   25.0180 N   0  0  0  0  0  0  0  0  0  0  0  0
    3.3030    1.9030   23.8820 C   0  0  0  0  0  0  0  0  0  0  0  0
    1.8250    2.0840   23.8550 C   0  0  0  0  0  0  0  0  0  0  0  0
    1.2050    2.4990   22.6790 C   0  0  0  0  0  0  0  0  0  0  0  0
    1.9420    2.7490   21.5200 C   0  0  0  0  0  0  0  0  0  0  0  0
    3.4570    2.5940   21.4820 C   0  0  0  0  0  0  0  0  0  0  0  0
    4.0170    2.1780   22.7130 C   0  0  0  0  0  0  0  0  0  0  0  0
    5.4590    2.0610   22.7090 N   0  0  0  0  0  0  0  0  0  0  0  0
   10.4240   -0.8260   23.7460 C   0  0  0  0  0  0  0  0  0  0  0  0
   11.3770   -1.6680   23.1870 C   0  0  0  0  0  0  0  0  0  0  0  0
  1  2  1  0
  2  3  1  0
  3  4  2  0
  4  5  1  0
  5  6  2  0
  6  7  1  0
  7  8  2  0
  7  9  1  0
  9 10  2  3
 10 11  1  0
 11 12  2  0
 12 13  1  0
 13 14  2  0
 14 15  1  0
 15 16  2  0
 16 17  1  0
 17 18  2  0
 14 19  1  0
 18 19  1  0
 11 20  1  0
 19 20  2  0
  6 21  1  0
  3 22  1  0
 21 22  2  0
M  END
