DRV-DNY-ae159ed1-13
     RDKit          3D

 21 23  0  0  0  0  0  0  0  0999 V2000
   13.3240   -1.6360   21.2700 N   0  0  0  0  0  0  0  0  0  0  0  0
   12.4070   -1.1090   22.2960 C   0  0  0  0  0  0  0  0  0  0  0  0
   12.6640    0.2620   22.8680 C   0  0  0  0  0  0  0  0  0  0  0  0
   11.6860    0.7210   23.9070 C   0  0  0  0  0  0  0  0  0  0  0  0
   10.5600   -0.1960   24.2960 C   0  0  0  0  0  0  0  0  0  0  0  0
    9.6060    0.0990   25.2640 C   0  0  0  0  0  0  0  0  0  0  0  0
    9.9350    0.0160   26.4290 O   0  0  0  0  0  0  0  0  0  0  0  0
    8.1450    0.4040   24.9730 C   0  0  0  0  0  0  0  0  0  0  0  0
    7.6950    1.3810   23.9040 C   0  0  0  0  0  0  0  0  0  0  0  0
    6.2060    1.5510   23.7700 C   0  0  0  0  0  0  0  0  0  0  0  0
    5.3310    1.4390   24.8660 C   0  0  0  0  0  0  0  0  0  0  0  0
    3.9900    1.6270   24.7720 N   0  0  0  0  0  0  0  0  0  0  0  0
    3.5250    1.9430   23.5430 C   0  0  0  0  0  0  0  0  0  0  0  0
    2.1650    2.1970   23.3160 C   0  0  0  0  0  0  0  0  0  0  0  0
    1.6640    2.5380   21.9230 C   0  0  0  0  0  0  0  0  0  0  0  0
    2.5470    2.6100   20.8320 C   0  0  0  0  0  0  0  0  0  0  0  0
    3.9170    2.3790   20.9880 C   0  0  0  0  0  0  0  0  0  0  0  0
    4.4660    2.0380   22.3630 C   0  0  0  0  0  0  0  0  0  0  0  0
    5.7800    1.8340   22.5210 N   0  0  0  0  0  0  0  0  0  0  0  0
   10.4250   -1.4390   23.6910 C   0  0  0  0  0  0  0  0  0  0  0  0
   11.3390   -1.8550   22.7190 C   0  0  0  0  0  0  0  0  0  0  0  0
  1  2  1  0
  2  3  2  0
  3  4  1  0
  4  5  2  0
  5  6  1  0
  6  7  2  0
  6  8  1  0
  8  9  2  3
  9 10  1  0
 10 11  2  0
 11 12  1  0
 12 13  2  0
 13 14  1  0
 14 15  2  0
 15 16  1  0
 16 17  2  0
 13 18  1  0
 17 18  1  0
 10 19  1  0
 18 19  2  0
  5 20  1  0
  2 21  1  0
 20 21  2  0
M  END
