DRV-DNY-ae159ed1-16
     RDKit          3D

 20 22  0  0  0  0  0  0  0  0999 V2000
    4.8210   -3.9330   21.7470 O   0  0  0  0  0  0  0  0  0  0  0  0
    4.9730   -3.3380   22.8090 C   0  0  0  0  0  0  0  0  0  0  0  0
    6.1930   -2.5010   23.0960 C   0  0  0  0  0  0  0  0  0  0  0  0
    7.0590   -2.4940   24.3280 C   0  0  0  0  0  0  0  0  0  0  0  0
    8.1990   -1.5190   24.2390 C   0  0  0  0  0  0  0  0  0  0  0  0
    8.0650   -0.2430   24.8250 C   0  0  0  0  0  0  0  0  0  0  0  0
    9.2480    0.6700   24.6690 N   0  0  0  0  0  0  0  0  0  0  0  0
   10.4250    0.2040   23.9530 C   0  0  0  0  0  0  0  0  0  0  0  0
   11.6390    1.1040   23.7710 C   0  0  0  0  0  0  0  0  0  0  0  0
   12.7870    0.4970   23.0090 C   0  0  0  0  0  0  0  0  0  0  0  0
   12.7140   -0.8140   22.5100 C   0  0  0  0  0  0  0  0  0  0  0  0
   11.5780   -1.6130   22.6960 C   0  0  0  0  0  0  0  0  0  0  0  0
   10.4580   -1.1490   23.3870 C   0  0  0  0  0  0  0  0  0  0  0  0
    9.3760   -1.8850   23.5690 N   0  0  0  0  0  0  0  0  0  0  0  0
    3.9150   -3.4510   23.8340 C   0  0  0  0  0  0  0  0  0  0  0  0
    3.0750   -4.5650   23.9380 C   0  0  0  0  0  0  0  0  0  0  0  0
    2.0900   -4.6100   24.9270 C   0  0  0  0  0  0  0  0  0  0  0  0
    1.9770   -3.4230   25.8620 C   0  0  0  0  0  0  0  0  0  0  0  0
    2.8040   -2.3580   25.7410 N   0  0  0  0  0  0  0  0  0  0  0  0
    3.7420   -2.3840   24.7500 C   0  0  0  0  0  0  0  0  0  0  0  0
  1  2  2  0
  2  3  1  0
  3  4  2  3
  4  5  1  0
  5  6  2  0
  6  7  1  0
  7  8  2  0
  8  9  1  0
  9 10  2  0
 10 11  1  0
 11 12  2  0
  8 13  1  0
 12 13  1  0
  5 14  1  0
 13 14  2  0
  2 15  1  0
 15 16  2  0
 16 17  1  0
 17 18  2  0
 18 19  1  0
 15 20  1  0
 19 20  2  0
M  END
