DRV-DNY-3e405af9-6
     RDKit          3D

 30 33  0  0  0  0  0  0  0  0999 V2000
   14.9360   -2.2390   26.4630 O   0  0  0  0  0  0  0  0  0  0  0  0
   14.3810   -3.1320   25.8580 N   0  0  0  0  0  0  0  0  0  0  0  0
   14.5100   -4.2910   26.1930 O   0  0  0  0  0  0  0  0  0  0  0  0
   13.1980   -2.9350   25.5220 C   0  0  0  0  0  0  0  0  0  0  0  0
   12.3120   -4.0060   26.0860 C   0  0  0  0  0  0  0  0  0  0  0  0
   10.9740   -4.0050   25.8280 C   0  0  0  0  0  0  0  0  0  0  0  0
   10.4310   -3.0140   25.0570 C   0  0  0  0  0  0  0  0  0  0  0  0
    9.1370   -3.1860   24.8880 N   0  0  0  0  0  0  0  0  0  0  0  0
    8.9560   -2.7280   23.6600 N   0  0  0  0  0  0  0  0  0  0  0  0
    7.5650   -2.9440   23.4590 C   0  0  0  0  0  0  0  0  0  0  0  0
    6.9540   -2.6420   22.3480 C   0  0  0  0  0  0  0  0  0  0  0  0
    7.4400   -1.6390   21.6630 C   0  0  0  0  0  0  0  0  0  0  0  0
    7.2830   -0.9460   20.6070 C   0  0  0  0  0  0  0  0  0  0  0  0
    6.2320   -1.4710   20.0290 N   0  0  0  0  0  0  0  0  0  0  0  0
    5.6300   -2.5670   20.6860 C   0  0  0  0  0  0  0  0  0  0  0  0
    5.8260   -3.3620   21.9080 C   0  0  0  0  0  0  0  0  0  0  0  0
    6.8880   -3.5400   24.6130 C   0  0  0  0  0  0  0  0  0  0  0  0
    8.0020   -3.6810   25.5390 C   0  0  0  0  0  0  0  0  0  0  0  0
    7.5060   -4.3180   26.8120 C   0  0  0  0  0  0  0  0  0  0  0  0
    6.3600   -3.6330   27.5370 C   0  0  0  0  0  0  0  0  0  0  0  0
    5.8610   -4.3510   28.7610 C   0  0  0  0  0  0  0  0  0  0  0  0
    6.4410   -5.5580   29.1660 C   0  0  0  0  0  0  0  0  0  0  0  0
    5.9950   -6.2180   30.2400 F   0  0  0  0  0  0  0  0  0  0  0  0
    7.5790   -6.1170   28.3750 C   0  0  0  0  0  0  0  0  0  0  0  0
    8.0650   -5.5000   27.2560 C   0  0  0  0  0  0  0  0  0  0  0  0
   11.2080   -1.9620   24.5080 C   0  0  0  0  0  0  0  0  0  0  0  0
   10.7140   -0.9410   23.7320 N   0  0  0  0  0  0  0  0  0  0  0  0
   11.3670   -0.6840   22.7090 O   0  0  0  0  0  0  0  0  0  0  0  0
   10.0090   -0.1020   24.3110 O   0  0  0  0  0  0  0  0  0  0  0  0
   12.7140   -1.9060   24.7470 C   0  0  0  0  0  0  0  0  0  0  0  0
  1  2  2  0
  2  3  1  0
  2  4  1  0
  4  5  2  0
  5  6  1  0
  6  7  2  0
  7  8  1  0
  8  9  1  0
  9 10  2  0
 10 11  1  0
 11 12  2  0
 12 13  1  0
 13 14  2  0
 14 15  1  0
 11 16  1  0
 15 16  2  0
 10 17  1  0
  8 18  1  0
 17 18  2  0
 18 19  1  0
 19 20  2  0
 20 21  1  0
 21 22  2  0
 22 23  1  0
 22 24  1  0
 19 25  1  0
 24 25  2  0
  7 26  1  0
 26 27  1  0
 27 28  2  0
 27 29  1  0
  4 30  1  0
 26 30  2  0
M  CHG  4   2   1   3  -1  27   1  29  -1
M  END
