DRV-DNY-ae159ed1-2
     RDKit          3D

 21 23  0  0  0  0  0  0  0  0999 V2000
   10.1810    2.1200   24.8690 O   0  0  0  0  0  0  0  0  0  0  0  0
    9.7410    1.0520   24.5220 C   0  0  0  0  0  0  0  0  0  0  0  0
    8.4480    0.8410   24.7220 C   0  0  0  0  0  0  0  0  0  0  0  0
    7.6180    1.6110   23.8100 C   0  0  0  0  0  0  0  0  0  0  0  0
    6.0950    1.6250   23.8840 C   0  0  0  0  0  0  0  0  0  0  0  0
    5.3960    1.2800   25.0230 C   0  0  0  0  0  0  0  0  0  0  0  0
    4.0390    1.4020   25.0300 N   0  0  0  0  0  0  0  0  0  0  0  0
    3.2790    1.8850   23.8940 C   0  0  0  0  0  0  0  0  0  0  0  0
    1.8880    2.0280   24.0090 C   0  0  0  0  0  0  0  0  0  0  0  0
    1.0480    2.5330   22.8100 C   0  0  0  0  0  0  0  0  0  0  0  0
    1.8880    2.8260   21.5760 C   0  0  0  0  0  0  0  0  0  0  0  0
    3.3760    2.6320   21.6030 C   0  0  0  0  0  0  0  0  0  0  0  0
    4.0190    2.1820   22.7480 C   0  0  0  0  0  0  0  0  0  0  0  0
    5.3590    2.0540   22.7390 N   0  0  0  0  0  0  0  0  0  0  0  0
   10.6540    0.1990   23.7760 C   0  0  0  0  0  0  0  0  0  0  0  0
   11.8780    0.8180   23.5330 C   0  0  0  0  0  0  0  0  0  0  0  0
   12.8540    0.1700   22.8140 C   0  0  0  0  0  0  0  0  0  0  0  0
   12.5380   -1.2010   22.3170 C   0  0  0  0  0  0  0  0  0  0  0  0
   13.4380   -1.8580   21.6030 F   0  0  0  0  0  0  0  0  0  0  0  0
   11.3090   -1.7920   22.5880 C   0  0  0  0  0  0  0  0  0  0  0  0
   10.3550   -1.1030   23.3210 C   0  0  0  0  0  0  0  0  0  0  0  0
  1  2  2  0
  2  3  1  0
  3  4  2  3
  4  5  1  0
  5  6  2  0
  6  7  1  0
  7  8  2  0
  8  9  1  0
  9 10  2  0
 10 11  1  0
 11 12  2  0
  8 13  1  0
 12 13  1  0
  5 14  1  0
 13 14  2  0
  2 15  1  0
 15 16  2  0
 16 17  1  0
 17 18  2  0
 18 19  1  0
 18 20  1  0
 15 21  1  0
 20 21  2  0
M  END
