DRV-UNK-dd7f8c68-1
     RDKit          3D

 27 30  0  0  0  0  0  0  0  0999 V2000
   10.9290    4.4000   23.8290 C   0  0  0  0  0  0  0  0  0  0  0  0
    9.4760    4.4730   23.7540 N   0  0  0  0  0  0  0  0  0  0  0  0
    8.8120    3.9820   24.9640 C   0  0  0  0  0  0  0  0  0  0  0  0
    7.5040    3.7680   24.7350 C   0  0  0  0  0  0  0  0  0  0  0  0
    6.9780    4.4980   23.5670 N   0  0  0  0  0  0  0  0  0  0  0  0
    6.8330    3.6770   22.3560 C   0  0  0  0  0  0  0  0  0  0  0  0
    7.9480    2.8220   22.0380 C   0  0  0  0  0  0  0  0  0  0  0  0
    7.9420    2.0010   20.9140 C   0  0  0  0  0  0  0  0  0  0  0  0
    6.8740    1.9840   20.0620 C   0  0  0  0  0  0  0  0  0  0  0  0
    7.0360    0.9970   18.8520 C   0  0  2  0  0  0  0  0  0  0  0  0
    5.8230    0.6830   18.4330 N   0  0  0  0  0  0  0  0  0  0  0  0
    5.2770    0.4410   19.7150 C   0  0  0  0  0  0  0  0  0  0  0  0
    4.3580    1.0480   20.2410 O   0  0  0  0  0  0  0  0  0  0  0  0
    5.9510   -0.6270   20.3590 C   0  0  0  0  0  0  0  0  0  0  0  0
    4.6720   -0.6680   20.8030 C   0  0  0  0  0  0  0  0  0  0  0  0
    3.7880    0.3900   20.2560 C   0  0  0  0  0  0  0  0  0  0  0  0
    4.5430    1.1720   19.4140 C   0  0  0  0  0  0  0  0  0  0  0  0
    5.9000    0.8860   19.2240 C   0  0  0  0  0  0  0  0  0  0  0  0
    6.8990   -0.0740   19.6450 C   0  0  0  0  0  0  0  0  0  0  0  0
    5.7470    2.8220   20.3770 C   0  0  0  0  0  0  0  0  0  0  0  0
    5.7140    3.6600   21.5010 C   0  0  0  0  0  0  0  0  0  0  0  0
    4.3050    4.6940   21.8710 S   0  0  0  0  0  0  0  0  0  0  0  0
    4.7590    6.2790   21.4680 N   0  0  0  0  0  0  0  0  0  0  0  0
    3.2160    4.4160   20.9650 O   0  0  0  0  0  0  0  0  0  0  0  0
    4.1050    4.7580   23.3030 O   0  0  0  0  0  0  0  0  0  0  0  0
    7.6940    5.7780   23.3200 C   0  0  0  0  0  0  0  0  0  0  0  0
    9.0320    5.7310   23.4760 C   0  0  0  0  0  0  0  0  0  0  0  0
  1  2  1  0
  2  3  1  0
  3  4  1  0
  4  5  1  0
  5  6  1  0
  6  7  2  0
  7  8  1  0
  8  9  2  0
 10  9  1  1
 10 11  1  0
 11 12  1  0
 12 13  2  0
 12 14  1  0
 14 15  1  0
 15 16  2  0
 16 17  1  0
 17 18  2  0
 10 19  1  0
 14 19  2  0
 18 19  1  0
  9 20  1  0
  6 21  1  0
 20 21  2  0
 21 22  1  0
 22 23  1  0
 22 24  2  0
 22 25  2  0
  5 26  1  0
  2 27  1  0
 26 27  1  0
M  END
