DRV-DNY-ae159ed1-4
     RDKit          3D

 21 23  0  0  0  0  0  0  0  0999 V2000
    9.9830    2.5610   24.6360 O   0  0  0  0  0  0  0  0  0  0  0  0
    9.5850    1.4250   24.5490 C   0  0  0  0  0  0  0  0  0  0  0  0
    8.1900    1.1370   24.9200 C   0  0  0  0  0  0  0  0  0  0  0  0
    7.3990    1.6560   23.9180 C   0  0  0  0  0  0  0  0  0  0  0  0
    6.0400    1.6800   23.8940 C   0  0  0  0  0  0  0  0  0  0  0  0
    5.2800    1.3200   25.1230 C   0  0  0  0  0  0  0  0  0  0  0  0
    3.8810    1.3990   25.1950 N   0  0  0  0  0  0  0  0  0  0  0  0
    3.2830    1.8860   23.9350 C   0  0  0  0  0  0  0  0  0  0  0  0
    1.8840    2.0340   23.9860 C   0  0  0  0  0  0  0  0  0  0  0  0
    1.1030    2.5210   22.7670 C   0  0  0  0  0  0  0  0  0  0  0  0
    1.9770    2.7960   21.5850 C   0  0  0  0  0  0  0  0  0  0  0  0
    3.3590    2.6410   21.5910 C   0  0  0  0  0  0  0  0  0  0  0  0
    4.0060    2.1970   22.7570 C   0  0  0  0  0  0  0  0  0  0  0  0
    5.3690    2.0950   22.7070 N   0  0  0  0  0  0  0  0  0  0  0  0
   10.4290    0.4960   23.8480 C   0  0  0  0  0  0  0  0  0  0  0  0
   11.6900    0.9760   23.5300 C   0  0  0  0  0  0  0  0  0  0  0  0
   12.5280    0.1750   22.8090 C   0  0  0  0  0  0  0  0  0  0  0  0
   12.0790   -1.0680   22.4310 C   0  0  0  0  0  0  0  0  0  0  0  0
   13.1320   -2.1540   21.4110 Br  0  0  0  0  0  0  0  0  0  0  0  0
   10.8380   -1.5610   22.7680 C   0  0  0  0  0  0  0  0  0  0  0  0
   10.0010   -0.7710   23.4880 C   0  0  0  0  0  0  0  0  0  0  0  0
  1  2  2  0
  2  3  1  0
  3  4  2  3
  4  5  1  0
  5  6  2  0
  6  7  1  0
  7  8  2  0
  8  9  1  0
  9 10  2  0
 10 11  1  0
 11 12  2  0
  8 13  1  0
 12 13  1  0
  5 14  1  0
 13 14  2  0
  2 15  1  0
 15 16  2  0
 16 17  1  0
 17 18  2  0
 18 19  1  0
 18 20  1  0
 15 21  1  0
 20 21  2  0
M  END
