DRV-DNY-5c7d8ee8-12
     RDKit          3D

 27 30  0  0  0  0  0  0  0  0999 V2000
    6.1090   -5.1960   20.6010 O   0  0  0  0  0  0  0  0  0  0  0  0
    6.0600   -4.0300   21.0480 N   0  0  0  0  0  0  0  0  0  0  0  0
    4.9460   -3.5280   21.3500 O   0  0  0  0  0  0  0  0  0  0  0  0
    6.9080   -3.1090   20.2850 C   0  0  0  0  0  0  0  0  0  0  0  0
    7.5180   -3.2590   21.6310 C   0  0  0  0  0  0  0  0  0  0  0  0
    6.7230   -4.1790   22.5240 C   0  0  0  0  0  0  0  0  0  0  0  0
    7.1910   -4.3970   23.8590 N   0  0  0  0  0  0  0  0  0  0  0  0
    7.7020   -5.5230   24.0370 O   0  0  0  0  0  0  0  0  0  0  0  0
    6.7460   -3.6180   24.7400 O   0  0  0  0  0  0  0  0  0  0  0  0
    5.4920   -4.8550   22.1130 C   0  0  0  0  0  0  0  0  0  0  0  0
    5.4910   -5.3350   23.3270 N   0  0  0  0  0  0  0  0  0  0  0  0
    6.5240   -4.9100   24.0420 C   0  0  0  0  0  0  0  0  0  0  0  0
    6.1750   -5.5970   25.6150 Cl  0  0  0  0  0  0  0  0  0  0  0  0
    7.5390   -4.0490   23.3490 C   0  0  0  0  0  0  0  0  0  0  0  0
    8.8160   -3.3430   23.5640 C   0  0  0  0  0  0  0  0  0  0  0  0
    8.9690   -2.1000   23.1430 N   0  0  0  0  0  0  0  0  0  0  0  0
   10.2430   -1.8700   23.4760 C   0  0  0  0  0  0  0  0  0  0  0  0
   11.0000   -0.6700   23.2320 C   0  0  0  0  0  0  0  0  0  0  0  0
   12.3000   -0.6160   23.6390 C   0  0  0  0  0  0  0  0  0  0  0  0
   12.9310    1.0430   23.0970 Br  0  0  0  0  0  0  0  0  0  0  0  0
   12.9900   -1.6650   24.3270 C   0  0  0  0  0  0  0  0  0  0  0  0
   12.3290   -2.8750   24.6100 C   0  0  0  0  0  0  0  0  0  0  0  0
   11.0020   -2.9260   24.1590 C   0  0  0  0  0  0  0  0  0  0  0  0
    9.9910   -3.8850   24.1750 O   0  0  0  0  0  0  0  0  0  0  0  0
    7.2320   -3.6600   21.8690 C   0  0  0  0  0  0  0  0  0  0  0  0
    6.0500   -4.1200   21.2120 C   0  0  0  0  0  0  0  0  0  0  0  0
    5.8660   -3.6810   19.9000 C   0  0  0  0  0  0  0  0  0  0  0  0
  1  2  2  0
  2  3  1  0
  2  4  1  0
  4  5  2  0
  5  6  1  0
  6  7  1  0
  7  8  2  0
  7  9  1  0
  6 10  2  0
 10 11  1  0
 11 12  2  0
 12 13  1  0
 12 14  1  0
 14 15  1  0
 15 16  2  0
 16 17  1  0
 17 18  2  0
 18 19  1  0
 19 20  1  0
 19 21  2  0
 21 22  1  0
 17 23  1  0
 22 23  2  0
 15 24  1  0
 23 24  1  0
 14 25  2  0
 10 26  1  0
 25 26  1  0
  4 27  1  0
 26 27  2  0
M  CHG  4   2   1   3  -1   7   1   9  -1
M  END
