DRV-DNY-5c7d8ee8-3
     RDKit          3D

 20 23  0  0  0  0  0  0  0  0999 V2000
    8.2360   -5.8050   25.3790 Cl  0  0  0  0  0  0  0  0  0  0  0  0
    7.8020   -5.0560   23.9100 C   0  0  0  0  0  0  0  0  0  0  0  0
    6.6440   -5.5540   23.2820 N   0  0  0  0  0  0  0  0  0  0  0  0
    6.3850   -4.7850   22.0870 C   0  0  0  0  0  0  0  0  0  0  0  0
    5.3830   -4.7790   21.0450 C   0  0  0  0  0  0  0  0  0  0  0  0
    5.3610   -3.7320   19.8520 C   0  0  0  0  0  0  0  0  0  0  0  0
    6.3260   -2.6500   19.6190 C   0  0  0  0  0  0  0  0  0  0  0  0
    6.2800   -3.5720   20.5860 C   0  0  0  0  0  0  0  0  0  0  0  0
    7.0620   -3.8560   21.6740 C   0  0  0  0  0  0  0  0  0  0  0  0
    8.2590   -3.2580   22.1550 C   0  0  0  0  0  0  0  0  0  0  0  0
    8.5690   -4.0140   23.3950 C   0  0  0  0  0  0  0  0  0  0  0  0
    9.7880   -3.3330   23.7590 C   0  0  0  0  0  0  0  0  0  0  0  0
   10.0030   -2.1160   23.4070 N   0  0  0  0  0  0  0  0  0  0  0  0
   11.2230   -1.9180   23.8660 C   0  0  0  0  0  0  0  0  0  0  0  0
   11.9890   -0.8260   23.7720 C   0  0  0  0  0  0  0  0  0  0  0  0
   13.2030   -0.9160   24.3340 C   0  0  0  0  0  0  0  0  0  0  0  0
   13.7120   -2.0820   25.0240 C   0  0  0  0  0  0  0  0  0  0  0  0
   12.9320   -3.1280   25.0900 C   0  0  0  0  0  0  0  0  0  0  0  0
   11.7010   -3.0320   24.5060 C   0  0  0  0  0  0  0  0  0  0  0  0
   10.7580   -3.9830   24.4470 O   0  0  0  0  0  0  0  0  0  0  0  0
  1  2  1  0
  2  3  2  0
  3  4  1  0
  4  5  2  0
  5  6  1  0
  6  7  2  0
  7  8  1  0
  4  9  1  0
  8  9  2  0
  9 10  1  0
  2 11  1  0
 10 11  2  0
 11 12  1  0
 12 13  2  0
 13 14  1  0
 14 15  2  0
 15 16  1  0
 16 17  2  0
 17 18  1  0
 14 19  1  0
 18 19  2  0
 12 20  1  0
 19 20  1  0
M  END
