DRV-DNY-ae159ed1-9
     RDKit          3D

 23 25  0  0  0  0  0  0  0  0999 V2000
    9.8240   -0.2520   26.4170 O   0  0  0  0  0  0  0  0  0  0  0  0
    9.5340    0.1710   25.3260 C   0  0  0  0  0  0  0  0  0  0  0  0
    8.0790    0.5500   25.0060 C   0  0  0  0  0  0  0  0  0  0  0  0
    7.6040    1.4280   23.8620 C   0  0  0  0  0  0  0  0  0  0  0  0
    6.2230    1.5770   23.8110 C   0  0  0  0  0  0  0  0  0  0  0  0
    5.4720    1.3590   24.9780 C   0  0  0  0  0  0  0  0  0  0  0  0
    4.0240    1.5510   24.9020 N   0  0  0  0  0  0  0  0  0  0  0  0
    3.4290    1.9450   23.7010 C   0  0  0  0  0  0  0  0  0  0  0  0
    2.0470    2.1520   23.6670 C   0  0  0  0  0  0  0  0  0  0  0  0
    1.3980    2.5430   22.4800 C   0  0  0  0  0  0  0  0  0  0  0  0
    2.2290    2.7370   21.2360 C   0  0  0  0  0  0  0  0  0  0  0  0
    3.5990    2.5250   21.3260 C   0  0  0  0  0  0  0  0  0  0  0  0
    4.1850    2.1400   22.5370 C   0  0  0  0  0  0  0  0  0  0  0  0
    5.6290    1.9510   22.5760 N   0  0  0  0  0  0  0  0  0  0  0  0
   10.6130    0.1130   24.3430 C   0  0  0  0  0  0  0  0  0  0  0  0
   11.5620    1.0710   23.9400 C   0  0  0  0  0  0  0  0  0  0  0  0
   12.5450    0.7430   22.9710 C   0  0  0  0  0  0  0  0  0  0  0  0
   12.5910   -0.5390   22.3820 C   0  0  0  0  0  0  0  0  0  0  0  0
   11.6300   -1.4240   22.8070 C   0  0  0  0  0  0  0  0  0  0  0  0
   11.3260   -2.6770   22.5190 N   0  0  0  0  0  0  0  0  0  0  0  0
   11.4700   -3.3290   23.5600 O   0  0  0  0  0  0  0  0  0  0  0  0
   10.3000   -2.7670   21.8290 O   0  0  0  0  0  0  0  0  0  0  0  0
   10.6340   -1.1100   23.7900 C   0  0  0  0  0  0  0  0  0  0  0  0
  1  2  2  0
  2  3  1  0
  3  4  2  3
  4  5  1  0
  5  6  2  0
  6  7  1  0
  7  8  2  0
  8  9  1  0
  9 10  2  0
 10 11  1  0
 11 12  2  0
  8 13  1  0
 12 13  1  0
  5 14  1  0
 13 14  2  0
  2 15  1  0
 15 16  2  0
 16 17  1  0
 17 18  2  0
 18 19  1  0
 19 20  1  0
 20 21  2  0
 20 22  1  0
 15 23  1  0
 19 23  2  0
M  CHG  2  20   1  22  -1
M  END
