DRV-DNY-3e405af9-5
     RDKit          3D

 30 33  0  0  0  0  0  0  0  0999 V2000
    4.4930   -7.7090   31.2580 O   0  0  0  0  0  0  0  0  0  0  0  0
    3.5600   -7.7740   30.4470 N   0  0  0  0  0  0  0  0  0  0  0  0
    2.3770   -7.9390   30.7800 O   0  0  0  0  0  0  0  0  0  0  0  0
    3.7960   -7.1420   29.1370 C   0  0  0  0  0  0  0  0  0  0  0  0
    4.6090   -6.0730   29.1140 C   0  0  0  0  0  0  0  0  0  0  0  0
    4.9090   -5.3540   27.8670 C   0  0  0  0  0  0  0  0  0  0  0  0
    4.2320   -5.9040   26.5820 C   0  0  0  0  0  0  0  0  0  0  0  0
    4.5310   -5.1690   25.3890 N   0  0  0  0  0  0  0  0  0  0  0  0
    5.8330   -4.7420   25.1400 N   0  0  0  0  0  0  0  0  0  0  0  0
    5.7650   -4.0540   23.9630 C   0  0  0  0  0  0  0  0  0  0  0  0
    6.6970   -3.3560   23.1960 C   0  0  0  0  0  0  0  0  0  0  0  0
    8.0700   -3.3720   23.4390 C   0  0  0  0  0  0  0  0  0  0  0  0
    8.9850   -2.5250   22.5280 C   0  0  0  0  0  0  0  0  0  0  0  0
    8.3570   -1.7060   21.3970 C   0  0  0  0  0  0  0  0  0  0  0  0
    6.9140   -1.7650   21.2150 N   0  0  0  0  0  0  0  0  0  0  0  0
    6.1900   -2.6040   22.1530 C   0  0  0  0  0  0  0  0  0  0  0  0
    4.4650   -4.0220   23.4090 C   0  0  0  0  0  0  0  0  0  0  0  0
    3.6850   -4.7070   24.2830 C   0  0  0  0  0  0  0  0  0  0  0  0
    2.3170   -4.9460   24.2020 C   0  0  0  0  0  0  0  0  0  0  0  0
    1.8150   -5.8350   23.2420 C   0  0  0  0  0  0  0  0  0  0  0  0
    0.3320   -6.0820   23.1390 C   0  0  0  0  0  0  0  0  0  0  0  0
   -0.5560   -5.4340   23.9970 C   0  0  0  0  0  0  0  0  0  0  0  0
   -1.8740   -5.6610   23.8980 F   0  0  0  0  0  0  0  0  0  0  0  0
   -0.0740   -4.5510   24.9570 C   0  0  0  0  0  0  0  0  0  0  0  0
    1.4400   -4.2890   25.0700 C   0  0  0  0  0  0  0  0  0  0  0  0
    3.4000   -7.0450   26.7240 C   0  0  0  0  0  0  0  0  0  0  0  0
    2.7380   -7.6600   25.7260 N   0  0  0  0  0  0  0  0  0  0  0  0
    1.6330   -8.1260   26.0470 O   0  0  0  0  0  0  0  0  0  0  0  0
    3.3820   -8.0420   24.7360 O   0  0  0  0  0  0  0  0  0  0  0  0
    3.1900   -7.6410   27.9750 C   0  0  0  0  0  0  0  0  0  0  0  0
  1  2  2  0
  2  3  1  0
  2  4  1  0
  4  5  2  0
  5  6  1  0
  6  7  2  0
  7  8  1  0
  8  9  1  0
  9 10  2  0
 10 11  1  0
 11 12  2  0
 12 13  1  0
 13 14  2  0
 14 15  1  0
 11 16  1  0
 15 16  2  0
 10 17  1  0
  8 18  1  0
 17 18  2  0
 18 19  1  0
 19 20  2  0
 20 21  1  0
 21 22  2  0
 22 23  1  0
 22 24  1  0
 19 25  1  0
 24 25  2  0
  7 26  1  0
 26 27  1  0
 27 28  2  0
 27 29  1  0
  4 30  1  0
 26 30  2  0
M  CHG  4   2   1   3  -1  27   1  29  -1
M  END
