DRV-DNY-ae159ed1-10
     RDKit          3D

 21 23  0  0  0  0  0  0  0  0999 V2000
   10.3070    3.0890   24.4770 O   0  0  0  0  0  0  0  0  0  0  0  0
    9.9140    1.9510   24.3930 C   0  0  0  0  0  0  0  0  0  0  0  0
    8.6240    1.6190   24.7710 C   0  0  0  0  0  0  0  0  0  0  0  0
    7.6390    1.9320   23.8440 C   0  0  0  0  0  0  0  0  0  0  0  0
    6.1640    1.8310   23.9060 C   0  0  0  0  0  0  0  0  0  0  0  0
    5.3660    1.3510   25.0760 C   0  0  0  0  0  0  0  0  0  0  0  0
    4.0120    1.3850   25.0580 N   0  0  0  0  0  0  0  0  0  0  0  0
    3.4030    1.8830   23.9420 C   0  0  0  0  0  0  0  0  0  0  0  0
    2.0080    1.9780   23.9490 C   0  0  0  0  0  0  0  0  0  0  0  0
    1.2410    2.4620   22.8720 C   0  0  0  0  0  0  0  0  0  0  0  0
    1.9220    2.8680   21.7280 C   0  0  0  0  0  0  0  0  0  0  0  0
    3.4550    2.7890   21.6900 C   0  0  0  0  0  0  0  0  0  0  0  0
    4.1140    2.3120   22.7950 C   0  0  0  0  0  0  0  0  0  0  0  0
    5.4690    2.2750   22.7790 N   0  0  0  0  0  0  0  0  0  0  0  0
   10.7660    0.9710   23.7920 C   0  0  0  0  0  0  0  0  0  0  0  0
   12.1050    1.1410   23.4380 C   0  0  0  0  0  0  0  0  0  0  0  0
   12.8260    0.1190   22.8310 C   0  0  0  0  0  0  0  0  0  0  0  0
   12.2240   -1.1040   22.5560 C   0  0  0  0  0  0  0  0  0  0  0  0
   10.8780   -1.2790   22.9190 C   0  0  0  0  0  0  0  0  0  0  0  0
    9.8050   -2.7610   22.6930 Br  0  0  0  0  0  0  0  0  0  0  0  0
   10.1320   -0.3320   23.5120 C   0  0  0  0  0  0  0  0  0  0  0  0
  1  2  2  0
  2  3  1  0
  3  4  2  3
  4  5  1  0
  5  6  2  0
  6  7  1  0
  7  8  2  0
  8  9  1  0
  9 10  2  0
 10 11  1  0
 11 12  2  0
  8 13  1  0
 12 13  1  0
  5 14  1  0
 13 14  2  0
  2 15  1  0
 15 16  2  0
 16 17  1  0
 17 18  2  0
 18 19  1  0
 19 20  1  0
 15 21  1  0
 19 21  2  0
M  END
