DRV-UNK-64047f27-1
     RDKit          3D

 30 33  0  0  0  0  0  0  0  0999 V2000
    6.3420   -1.4920   20.8590 C   0  0  0  0  0  0  0  0  0  0  0  0
    7.5810   -0.6480   20.5520 C   0  0  0  0  0  0  0  0  0  0  0  0
    7.3960    0.6470   20.2610 C   0  0  0  0  0  0  0  0  0  0  0  0
    8.5720   -0.8050   21.7050 C   0  0  0  0  0  0  0  0  0  0  0  0
    9.8950   -0.7400   21.4450 N   0  0  0  0  0  0  0  0  0  0  0  0
   10.6630   -1.8850   21.7240 C   0  0  0  0  0  0  0  0  0  0  0  0
   11.0800   -1.9680   23.1460 C   0  0  0  0  0  0  0  0  0  0  0  0
   10.1760   -1.2610   23.9010 N   0  0  0  0  0  0  0  0  0  0  0  0
    8.8430   -1.7620   23.9200 C   0  0  0  0  0  0  0  0  0  0  0  0
    8.8800   -3.3130   23.8170 C   0  0  0  0  0  0  0  0  0  0  0  0
    7.8590   -4.2340   23.8110 C   0  0  0  0  0  0  0  0  0  0  0  0
    6.4830   -3.5950   23.9400 C   0  0  0  0  0  0  0  0  0  0  0  0
    5.4250   -4.4610   23.9940 C   0  0  1  0  0  0  0  0  0  0  0  0
    5.3900   -5.7450   23.5360 N   0  0  0  0  0  0  0  0  0  0  0  0
    4.7020   -6.6640   24.4300 C   0  0  0  0  0  0  0  0  0  0  0  0
    4.1180   -7.7040   24.1820 O   0  0  0  0  0  0  0  0  0  0  0  0
    4.8560   -6.0780   25.6600 C   0  0  0  0  0  0  0  0  0  0  0  0
    4.6580   -6.5990   26.9190 C   0  0  0  0  0  0  0  0  0  0  0  0
    4.8810   -5.8380   28.0460 C   0  0  0  0  0  0  0  0  0  0  0  0
    5.3110   -4.5240   27.8960 C   0  0  0  0  0  0  0  0  0  0  0  0
    5.5120   -3.9870   26.6080 C   0  0  0  0  0  0  0  0  0  0  0  0
    5.2810   -4.7760   25.4820 C   0  0  0  0  0  0  0  0  0  0  0  0
    6.3190   -2.1930   24.0180 C   0  0  0  0  0  0  0  0  0  0  0  0
    7.5090   -1.2070   24.0020 C   0  0  0  0  0  0  0  0  0  0  0  0
    7.0540    0.5310   24.0930 S   0  0  0  0  0  0  0  0  0  0  0  0
    5.9700    0.7930   22.8140 N   0  0  0  0  0  0  0  0  0  0  0  0
    8.1720    1.3810   23.7490 O   0  0  0  0  0  0  0  0  0  0  0  0
    6.3080    0.7740   25.3150 O   0  0  0  0  0  0  0  0  0  0  0  0
   10.4380    0.1330   23.5880 C   0  0  0  0  0  0  0  0  0  0  0  0
   10.4670    0.3670   22.1800 C   0  0  0  0  0  0  0  0  0  0  0  0
  1  2  1  0
  2  3  1  0
  2  4  1  0
  4  5  1  0
  5  6  1  0
  6  7  1  0
  7  8  1  0
  8  9  1  0
  9 10  2  0
 10 11  1  0
 11 12  2  0
 13 12  1  1
 13 14  1  0
 14 15  1  0
 15 16  2  0
 15 17  1  0
 17 18  1  0
 18 19  2  0
 19 20  1  0
 20 21  2  0
 13 22  1  0
 17 22  2  0
 21 22  1  0
 12 23  1  0
  9 24  1  0
 23 24  2  0
 24 25  1  0
 25 26  1  0
 25 27  2  0
 25 28  2  0
  8 29  1  0
  5 30  1  0
 29 30  1  0
M  END
