DRV-UNK-64047f27-8
     RDKit          3D

 27 30  0  0  0  0  0  0  0  0999 V2000
   12.8750    4.2090   21.4780 C   0  0  0  0  0  0  0  0  0  0  0  0
   12.0030    4.4150   22.5330 N   0  0  0  0  0  0  0  0  0  0  0  0
   11.4120    3.4120   23.3020 C   0  0  0  0  0  0  0  0  0  0  0  0
   10.4790    3.9680   24.2900 C   0  0  0  0  0  0  0  0  0  0  0  0
    9.5390    4.4040   23.4620 N   0  0  0  0  0  0  0  0  0  0  0  0
    8.8710    3.4550   22.5800 C   0  0  0  0  0  0  0  0  0  0  0  0
    9.5240    2.2260   22.4140 C   0  0  0  0  0  0  0  0  0  0  0  0
    9.0980    1.1630   21.6110 C   0  0  0  0  0  0  0  0  0  0  0  0
    7.9130    1.2230   20.8350 C   0  0  0  0  0  0  0  0  0  0  0  0
    7.3710    0.1040   19.9140 C   0  0  2  0  0  0  0  0  0  0  0  0
    7.1440    0.5370   18.5310 N   0  0  0  0  0  0  0  0  0  0  0  0
    5.8490    1.0410   18.7080 C   0  0  0  0  0  0  0  0  0  0  0  0
    5.0370    1.7030   17.7370 O   0  0  0  0  0  0  0  0  0  0  0  0
    5.1510    0.9090   20.0830 C   0  0  0  0  0  0  0  0  0  0  0  0
    4.1530    1.0600   20.9990 C   0  0  0  0  0  0  0  0  0  0  0  0
    3.4480    1.6620   20.0930 C   0  0  0  0  0  0  0  0  0  0  0  0
    4.4100    1.6630   18.8720 C   0  0  0  0  0  0  0  0  0  0  0  0
    5.8670    0.9530   19.1340 C   0  0  0  0  0  0  0  0  0  0  0  0
    6.1480    0.3220   20.5540 C   0  0  0  0  0  0  0  0  0  0  0  0
    7.1720    2.4560   20.9780 C   0  0  0  0  0  0  0  0  0  0  0  0
    7.7030    3.5580   21.8810 C   0  0  0  0  0  0  0  0  0  0  0  0
    6.7120    5.0470   22.0090 S   0  0  0  0  0  0  0  0  0  0  0  0
    6.8020    5.4640   23.6380 N   0  0  0  0  0  0  0  0  0  0  0  0
    5.3050    4.7810   21.8140 O   0  0  0  0  0  0  0  0  0  0  0  0
    7.3280    6.1500   21.3080 O   0  0  0  0  0  0  0  0  0  0  0  0
    9.8160    5.6690   22.9600 C   0  0  0  0  0  0  0  0  0  0  0  0
   11.3290    5.7260   22.6400 C   0  0  0  0  0  0  0  0  0  0  0  0
  1  2  1  0
  2  3  1  0
  3  4  1  0
  4  5  1  0
  5  6  1  0
  6  7  2  0
  7  8  1  0
  8  9  2  0
 10  9  1  1
 10 11  1  0
 11 12  1  0
 12 13  2  0
 12 14  1  0
 14 15  1  0
 15 16  2  0
 16 17  1  0
 17 18  2  0
 10 19  1  0
 14 19  2  0
 18 19  1  0
  9 20  1  0
  6 21  1  0
 20 21  2  0
 21 22  1  0
 22 23  1  0
 22 24  2  0
 22 25  2  0
  5 26  1  0
  2 27  1  0
 26 27  1  0
M  END
