DRV-DNY-ae159ed1-3
     RDKit          3D

 21 23  0  0  0  0  0  0  0  0999 V2000
   10.1990    2.0460   25.0120 O   0  0  0  0  0  0  0  0  0  0  0  0
    9.6830    1.0640   24.6270 C   0  0  0  0  0  0  0  0  0  0  0  0
    8.1900    0.8210   24.8140 C   0  0  0  0  0  0  0  0  0  0  0  0
    7.4120    1.5590   23.9550 C   0  0  0  0  0  0  0  0  0  0  0  0
    6.0420    1.6070   23.9310 C   0  0  0  0  0  0  0  0  0  0  0  0
    5.2240    1.3400   25.0320 C   0  0  0  0  0  0  0  0  0  0  0  0
    3.7680    1.5170   24.8690 N   0  0  0  0  0  0  0  0  0  0  0  0
    3.2710    1.9370   23.6610 C   0  0  0  0  0  0  0  0  0  0  0  0
    1.7990    2.1980   23.4000 C   0  0  0  0  0  0  0  0  0  0  0  0
    1.3560    2.6090   22.1350 C   0  0  0  0  0  0  0  0  0  0  0  0
    2.2550    2.7960   21.0820 C   0  0  0  0  0  0  0  0  0  0  0  0
    3.6200    2.5890   21.2580 C   0  0  0  0  0  0  0  0  0  0  0  0
    4.1800    2.1800   22.4790 C   0  0  0  0  0  0  0  0  0  0  0  0
    5.4590    2.0140   22.6400 N   0  0  0  0  0  0  0  0  0  0  0  0
   10.4660    0.2700   23.8850 C   0  0  0  0  0  0  0  0  0  0  0  0
   11.7980    0.8650   23.5740 C   0  0  0  0  0  0  0  0  0  0  0  0
   12.6860    0.0360   22.7160 C   0  0  0  0  0  0  0  0  0  0  0  0
   12.2220   -1.2120   22.2680 C   0  0  0  0  0  0  0  0  0  0  0  0
   13.2440   -2.0870   21.2680 Cl  0  0  0  0  0  0  0  0  0  0  0  0
   10.8630   -1.9290   22.5500 C   0  0  0  0  0  0  0  0  0  0  0  0
   10.0430   -0.9720   23.4440 C   0  0  0  0  0  0  0  0  0  0  0  0
  1  2  2  0
  2  3  1  0
  3  4  2  3
  4  5  1  0
  5  6  2  0
  6  7  1  0
  7  8  2  0
  8  9  1  0
  9 10  2  0
 10 11  1  0
 11 12  2  0
  8 13  1  0
 12 13  1  0
  5 14  1  0
 13 14  2  0
  2 15  1  0
 15 16  2  0
 16 17  1  0
 17 18  2  0
 18 19  1  0
 18 20  1  0
 15 21  1  0
 20 21  2  0
M  END
