DRV-DNY-ae159ed1-8
     RDKit          3D

 23 25  0  0  0  0  0  0  0  0999 V2000
    9.9190    0.1320   26.4840 O   0  0  0  0  0  0  0  0  0  0  0  0
    9.5490    0.1890   25.3430 C   0  0  0  0  0  0  0  0  0  0  0  0
    8.0740    0.5140   25.0030 C   0  0  0  0  0  0  0  0  0  0  0  0
    7.6190    1.3450   23.9940 C   0  0  0  0  0  0  0  0  0  0  0  0
    6.2450    1.5170   23.8590 C   0  0  0  0  0  0  0  0  0  0  0  0
    5.3680    1.3850   24.9480 C   0  0  0  0  0  0  0  0  0  0  0  0
    3.9250    1.6240   24.7320 N   0  0  0  0  0  0  0  0  0  0  0  0
    3.4820    1.9670   23.4860 C   0  0  0  0  0  0  0  0  0  0  0  0
    2.0230    2.2700   23.1600 C   0  0  0  0  0  0  0  0  0  0  0  0
    1.6430    2.6030   21.8530 C   0  0  0  0  0  0  0  0  0  0  0  0
    2.5810    2.6700   20.8220 C   0  0  0  0  0  0  0  0  0  0  0  0
    3.9330    2.4170   21.0550 C   0  0  0  0  0  0  0  0  0  0  0  0
    4.4390    2.0770   22.3180 C   0  0  0  0  0  0  0  0  0  0  0  0
    5.7150    1.8600   22.5250 N   0  0  0  0  0  0  0  0  0  0  0  0
   10.4580   -0.1720   24.3630 C   0  0  0  0  0  0  0  0  0  0  0  0
   11.6250    0.7100   23.9590 C   0  0  0  0  0  0  0  0  0  0  0  0
   12.5430    0.1410   22.8880 C   0  0  0  0  0  0  0  0  0  0  0  0
   12.2280   -1.1310   22.3650 C   0  0  0  0  0  0  0  0  0  0  0  0
   13.0430   -1.6460   21.4100 N   0  0  0  0  0  0  0  0  0  0  0  0
   13.8970   -0.9330   20.9440 O   0  0  0  0  0  0  0  0  0  0  0  0
   12.5700   -2.5840   20.7870 O   0  0  0  0  0  0  0  0  0  0  0  0
   11.0720   -2.1050   22.6860 C   0  0  0  0  0  0  0  0  0  0  0  0
   10.2320   -1.4150   23.7830 C   0  0  0  0  0  0  0  0  0  0  0  0
  1  2  2  0
  2  3  1  0
  3  4  2  3
  4  5  1  0
  5  6  2  0
  6  7  1  0
  7  8  2  0
  8  9  1  0
  9 10  2  0
 10 11  1  0
 11 12  2  0
  8 13  1  0
 12 13  1  0
  5 14  1  0
 13 14  2  0
  2 15  1  0
 15 16  2  0
 16 17  1  0
 17 18  2  0
 18 19  1  0
 19 20  2  0
 19 21  1  0
 18 22  1  0
 15 23  1  0
 22 23  2  0
M  CHG  2  19   1  21  -1
M  END
