DRV-DNY-3e405af9-3
     RDKit          3D

 34 38  0  0  0  0  0  0  0  0999 V2000
   11.4630    3.0580   22.5700 O   0  0  0  0  0  0  0  0  0  0  0  0
   11.7930    1.8620   22.5670 N   0  0  0  0  0  0  0  0  0  0  0  0
   12.9350    1.4490   22.7560 O   0  0  0  0  0  0  0  0  0  0  0  0
   10.7290    0.8630   22.7040 C   0  0  0  0  0  0  0  0  0  0  0  0
   11.0840   -0.1270   23.5220 C   0  0  0  0  0  0  0  0  0  0  0  0
   10.1780   -1.1900   23.8500 C   0  0  0  0  0  0  0  0  0  0  0  0
    8.8170   -1.0680   23.1660 C   0  0  0  0  0  0  0  0  0  0  0  0
    7.9560   -2.0360   23.5170 N   0  0  0  0  0  0  0  0  0  0  0  0
    7.5080   -2.7200   22.5190 N   0  0  0  0  0  0  0  0  0  0  0  0
    6.8060   -3.4920   23.1910 C   0  0  0  0  0  0  0  0  0  0  0  0
    6.1420   -4.4390   22.7030 C   0  0  0  0  0  0  0  0  0  0  0  0
    6.9360   -4.9000   21.7560 C   0  0  0  0  0  0  0  0  0  0  0  0
    6.4870   -6.0130   20.9830 C   0  0  0  0  0  0  0  0  0  0  0  0
    5.1780   -6.5350   21.3470 C   0  0  0  0  0  0  0  0  0  0  0  0
    4.3650   -5.9270   22.4630 C   0  0  0  0  0  0  0  0  0  0  0  0
    3.1010   -6.4190   22.8410 C   0  0  0  0  0  0  0  0  0  0  0  0
    2.3380   -5.8470   23.8670 C   0  0  0  0  0  0  0  0  0  0  0  0
    2.8360   -4.7450   24.5560 C   0  0  0  0  0  0  0  0  0  0  0  0
    4.0830   -4.2170   24.2330 C   0  0  0  0  0  0  0  0  0  0  0  0
    4.8690   -4.8580   23.1290 C   0  0  0  0  0  0  0  0  0  0  0  0
    6.7960   -3.3200   24.4730 C   0  0  0  0  0  0  0  0  0  0  0  0
    7.5670   -2.3080   24.9390 C   0  0  0  0  0  0  0  0  0  0  0  0
    6.8100   -3.1250   25.9850 C   0  0  0  0  0  0  0  0  0  0  0  0
    6.3750   -4.4380   25.4840 C   0  0  0  0  0  0  0  0  0  0  0  0
    5.7660   -5.3220   26.3610 C   0  0  0  0  0  0  0  0  0  0  0  0
    5.6830   -4.7050   27.5680 C   0  0  0  0  0  0  0  0  0  0  0  0
    6.2580   -3.8450   26.7470 F   0  0  0  0  0  0  0  0  0  0  0  0
    5.9560   -3.5680   28.2410 C   0  0  0  0  0  0  0  0  0  0  0  0
    6.5880   -2.6810   27.3530 C   0  0  0  0  0  0  0  0  0  0  0  0
    8.5040   -0.0550   22.2850 C   0  0  0  0  0  0  0  0  0  0  0  0
    7.1960    0.0030   21.6130 N   0  0  0  0  0  0  0  0  0  0  0  0
    7.1030   -0.6180   20.5470 O   0  0  0  0  0  0  0  0  0  0  0  0
    6.4740    0.9650   21.9140 O   0  0  0  0  0  0  0  0  0  0  0  0
    9.4640    0.9460   22.0490 C   0  0  0  0  0  0  0  0  0  0  0  0
  1  2  2  0
  2  3  1  0
  2  4  1  0
  4  5  2  0
  5  6  1  0
  6  7  2  0
  7  8  1  0
  8  9  1  0
  9 10  2  0
 10 11  1  0
 11 12  2  0
 12 13  1  0
 13 14  2  0
 14 15  1  0
 15 16  1  0
 16 17  2  0
 17 18  1  0
 18 19  2  0
 11 20  1  0
 15 20  2  0
 19 20  1  0
 10 21  1  0
  8 22  1  0
 21 22  2  0
 22 23  1  0
 23 24  2  0
 24 25  1  0
 25 26  2  0
 26 27  1  0
 26 28  1  0
 23 29  1  0
 28 29  2  0
  7 30  1  0
 30 31  1  0
 31 32  2  0
 31 33  1  0
  4 34  1  0
 30 34  2  0
M  CHG  4   2   1   3  -1  31   1  33  -1
M  END
