DUN-NEW-f8ce3686-6
     RDKit          3D

 28 31  0  0  0  0  0  0  0  0999 V2000
   10.1330    2.0830   22.7740 C   0  0  0  0  0  0  0  0  0  0  0  0
    9.2530    0.9890   22.3110 C   0  0  0  0  0  0  0  0  0  0  0  0
    8.7110    1.1110   21.2000 O   0  0  0  0  0  0  0  0  0  0  0  0
    9.0940   -0.1070   23.1900 N   0  0  0  0  0  0  0  0  0  0  0  0
    8.4980   -1.3880   22.7300 C   0  0  0  0  0  0  0  0  0  0  0  0
    8.6920   -2.5900   23.6440 C   0  0  0  0  0  0  0  0  0  0  0  0
    7.6250   -3.4710   23.9730 C   0  0  0  0  0  0  0  0  0  0  0  0
    7.2900   -3.5600   22.4280 C   0  0  0  0  0  0  0  0  0  0  0  0
    6.2640   -4.3250   22.0370 N   0  0  0  0  0  0  0  0  0  0  0  0
    5.9370   -4.4180   20.8060 C   0  0  0  0  0  0  0  0  0  0  0  0
    5.6040   -3.2610   19.8600 C   0  0  0  0  0  0  0  0  0  0  0  0
    5.2900   -3.4630   18.7110 O   0  0  0  0  0  0  0  0  0  0  0  0
    5.6770   -2.0110   20.4430 N   0  0  0  0  0  0  0  0  0  0  0  0
    5.3540   -0.8120   19.7780 C   0  0  0  0  0  0  0  0  0  0  0  0
    5.6540   -0.5250   18.4590 C   0  0  0  0  0  0  0  0  0  0  0  0
    5.1940    0.7210   18.1440 N   0  0  0  0  0  0  0  0  0  0  0  0
    4.5870    1.2620   19.2470 C   0  0  0  0  0  0  0  0  0  0  0  0
    4.0220    2.4810   19.2780 N   0  0  0  0  0  0  0  0  0  0  0  0
    3.4900    2.7950   20.4770 C   0  0  0  0  0  0  0  0  0  0  0  0
    3.5020    1.9700   21.5940 C   0  0  0  0  0  0  0  0  0  0  0  0
    4.1040    0.7160   21.4990 C   0  0  0  0  0  0  0  0  0  0  0  0
    4.6690    0.3330   20.2900 C   0  0  0  0  0  0  0  0  0  0  0  0
    5.7480   -4.8780   23.1610 C   0  0  0  0  0  0  0  0  0  0  0  0
    4.5610   -5.8390   23.1800 C   0  0  0  0  0  0  0  0  0  0  0  0
    4.1710   -6.2880   24.4320 C   0  0  0  0  0  0  0  0  0  0  0  0
    4.8580   -5.8440   25.5470 C   0  0  0  0  0  0  0  0  0  0  0  0
    5.9470   -4.9540   25.4390 C   0  0  0  0  0  0  0  0  0  0  0  0
    6.4550   -4.4270   24.2330 C   0  0  0  0  0  0  0  0  0  0  0  0
  1  2  1  0
  2  3  2  0
  2  4  1  0
  4  5  1  0
  5  6  1  0
  6  7  1  0
  7  8  2  0
  8  9  1  0
  9 10  1  0
 10 11  1  0
 11 12  2  0
 11 13  1  0
 13 14  1  0
 14 15  2  0
 15 16  1  0
 16 17  1  0
 17 18  1  0
 18 19  2  0
 19 20  1  0
 20 21  2  0
 14 22  1  0
 17 22  2  0
 21 22  1  0
  9 23  1  0
 23 24  1  0
 24 25  2  0
 25 26  1  0
 26 27  2  0
  7 28  1  0
 23 28  2  0
 27 28  1  0
M  END
