DUN-NEW-f8ce3686-5
     RDKit          3D

 32 34  0  0  0  0  0  0  0  0999 V2000
    5.6880   -0.5820   23.4080 C   0  0  0  0  0  0  0  0  0  0  0  0
    6.9730   -0.7910   24.1560 C   0  0  0  0  0  0  0  0  0  0  0  0
    7.0050   -1.1850   25.3180 O   0  0  0  0  0  0  0  0  0  0  0  0
    8.1560   -0.4750   23.3390 N   0  0  0  0  0  0  0  0  0  0  0  0
    9.3020   -1.2700   23.5300 C   0  0  0  0  0  0  0  0  0  0  0  0
    9.2230   -2.6260   23.3120 C   0  0  0  0  0  0  0  0  0  0  0  0
    8.0700   -3.0560   23.9400 C   0  0  0  0  0  0  0  0  0  0  0  0
    7.6510   -3.3610   22.5990 C   0  0  0  0  0  0  0  0  0  0  0  0
    6.4400   -3.9210   22.2620 N   0  0  0  0  0  0  0  0  0  0  0  0
    5.8610   -4.2290   21.0600 C   0  0  0  0  0  0  0  0  0  0  0  0
    5.4150   -2.8260   20.6360 C   0  0  0  0  0  0  0  0  0  0  0  0
    4.8450   -2.1000   21.7010 O   0  0  0  0  0  0  0  0  0  0  0  0
    5.5180   -2.2050   19.2820 C   0  0  0  0  0  0  0  0  0  0  0  0
    5.2280   -0.8320   19.2140 C   0  0  0  0  0  0  0  0  0  0  0  0
    4.7700   -0.1010   20.3250 C   0  0  0  0  0  0  0  0  0  0  0  0
    4.4840    1.2840   20.2490 C   0  0  0  0  0  0  0  0  0  0  0  0
    4.6460    2.0090   19.0560 C   0  0  0  0  0  0  0  0  0  0  0  0
    5.0890    1.3010   17.9760 N   0  0  0  0  0  0  0  0  0  0  0  0
    5.3800   -0.1230   18.0460 C   0  0  0  0  0  0  0  0  0  0  0  0
    5.8590   -4.0910   23.5370 C   0  0  0  0  0  0  0  0  0  0  0  0
    4.5340   -4.6970   23.8850 C   0  0  0  0  0  0  0  0  0  0  0  0
    3.6870   -5.2610   22.9990 C   0  0  0  0  0  0  0  0  0  0  0  0
    3.5500   -6.6150   23.2890 C   0  0  0  0  0  0  0  0  0  0  0  0
    4.7960   -7.0470   23.6620 N   0  0  0  0  0  0  0  0  0  0  0  0
    6.1200   -6.7820   22.6250 S   0  0  0  0  0  0  0  0  0  0  0  0
    7.2820   -5.7980   23.5380 C   0  0  0  0  0  0  0  0  0  0  0  0
    6.7910   -8.0300   22.4710 O   0  0  0  0  0  0  0  0  0  0  0  0
    5.6290   -6.0540   21.4880 O   0  0  0  0  0  0  0  0  0  0  0  0
    4.1770   -4.6900   25.2390 C   0  0  0  0  0  0  0  0  0  0  0  0
    5.1340   -4.0910   26.2580 C   0  0  0  0  0  0  0  0  0  0  0  0
    6.3520   -3.5770   25.8130 C   0  0  0  0  0  0  0  0  0  0  0  0
    6.7610   -3.5700   24.4540 C   0  0  0  0  0  0  0  0  0  0  0  0
  1  2  1  0
  2  3  2  0
  2  4  1  0
  4  5  1  0
  5  6  1  0
  6  7  1  0
  7  8  2  0
  8  9  1  0
  9 10  1  0
 10 11  1  0
 11 12  2  0
 11 13  1  0
 13 14  1  0
 14 15  2  0
 15 16  1  0
 16 17  2  0
 17 18  1  0
 14 19  1  0
 18 19  2  0
  9 20  1  0
 20 21  1  0
 21 22  1  0
 22 23  1  0
 23 24  1  0
 25 24  1  0
 25 26  1  0
 25 27  2  0
 25 28  2  0
 21 29  2  0
 29 30  1  0
 30 31  2  0
  7 32  1  0
 20 32  2  0
 31 32  1  0
M  END
