DUN-NEW-f8ce3686-11
     RDKit          3D

 23 25  0  0  0  0  0  0  0  0999 V2000
    6.3560   -5.8350   22.0490 C   0  0  0  0  0  0  0  0  0  0  0  0
    5.8360   -4.4990   22.5300 C   0  0  0  0  0  0  0  0  0  0  0  0
    4.8280   -3.9650   22.0390 O   0  0  0  0  0  0  0  0  0  0  0  0
    6.5820   -3.9480   23.5650 N   0  0  0  0  0  0  0  0  0  0  0  0
    8.0010   -3.6100   23.4350 C   0  0  0  0  0  0  0  0  0  0  0  0
    8.3010   -2.1370   23.7040 C   0  0  0  0  0  0  0  0  0  0  0  0
    9.6220   -1.7660   23.1510 C   0  0  0  0  0  0  0  0  0  0  0  0
   10.2140   -2.5240   22.1810 C   0  0  0  0  0  0  0  0  0  0  0  0
   11.3490   -1.9740   21.9030 N   0  0  0  0  0  0  0  0  0  0  0  0
   11.2720   -0.9560   22.7220 C   0  0  0  0  0  0  0  0  0  0  0  0
   11.6510    0.0340   23.2190 C   0  0  0  0  0  0  0  0  0  0  0  0
   12.2830    1.2620   23.7290 C   0  0  0  0  0  0  0  0  0  0  0  0
   11.2340    2.3460   23.9310 N   0  0  0  0  0  0  0  0  0  0  0  0
    9.8780    1.8430   24.3270 C   0  0  0  0  0  0  0  0  0  0  0  0
    8.8170    2.9570   24.2800 C   0  0  0  0  0  0  0  0  0  0  0  0
    8.5750    3.3400   22.8380 C   0  0  0  0  0  0  0  0  0  0  0  0
    8.5460    4.7600   22.6660 O   0  0  0  0  0  0  0  0  0  0  0  0
    9.7300    2.7710   22.0580 C   0  0  0  0  0  0  0  0  0  0  0  0
   11.0680    3.1370   22.7110 C   0  0  0  0  0  0  0  0  0  0  0  0
   12.6660   -0.1020   22.5300 C   0  0  0  0  0  0  0  0  0  0  0  0
   12.9900    0.9190   23.0990 C   0  0  0  0  0  0  0  0  0  0  0  0
   11.5310    0.5550   23.7340 C   0  0  0  0  0  0  0  0  0  0  0  0
   10.3930   -0.6130   23.5540 C   0  0  0  0  0  0  0  0  0  0  0  0
  1  2  1  0
  2  3  2  0
  2  4  1  0
  4  5  1  0
  5  6  1  0
  6  7  1  0
  7  8  2  0
  8  9  1  0
  9 10  1  0
 10 11  1  0
 11 12  1  0
 12 13  1  0
 13 14  1  0
 14 15  1  0
 15 16  1  0
 16 17  1  0
 16 18  1  0
 13 19  1  0
 18 19  1  0
 11 20  2  0
 20 21  1  0
 21 22  2  0
  7 23  1  0
 10 23  2  0
 22 23  1  0
M  END
