DUN-NEW-f8ce3686-16
     RDKit          3D

 26 29  0  0  0  0  0  0  0  0999 V2000
    4.7710   -1.9420   22.1510 O   0  0  0  0  0  0  0  0  0  0  0  0
    5.4280   -1.1660   22.8350 C   0  0  0  0  0  0  0  0  0  0  0  0
    6.4960   -1.6120   23.6270 N   0  0  0  0  0  0  0  0  0  0  0  0
    6.6590   -3.0440   23.3350 C   0  0  0  0  0  0  0  0  0  0  0  0
    6.0080   -3.9560   24.1680 C   0  0  0  0  0  0  0  0  0  0  0  0
    6.1040   -5.3260   23.9150 C   0  0  0  0  0  0  0  0  0  0  0  0
    6.8550   -5.7980   22.8270 C   0  0  0  0  0  0  0  0  0  0  0  0
    7.5440   -4.8530   21.9590 N   0  0  0  0  0  0  0  0  0  0  0  0
    7.4260   -3.4780   22.2470 C   0  0  0  0  0  0  0  0  0  0  0  0
    5.1330    0.2260   22.8380 N   0  0  0  0  0  0  0  0  0  0  0  0
    4.4570    0.7770   21.7490 C   0  0  0  0  0  0  0  0  0  0  0  0
    3.0130    1.2650   21.8560 C   0  0  0  0  0  0  0  0  0  0  0  0
    2.3420    1.8560   20.6620 C   0  0  0  0  0  0  0  0  0  0  0  0
    3.0550    1.9220   19.5320 C   0  0  0  0  0  0  0  0  0  0  0  0
    4.3630    1.4740   19.4110 C   0  0  0  0  0  0  0  0  0  0  0  0
    5.2100    1.4720   18.3160 C   0  0  0  0  0  0  0  0  0  0  0  0
    6.4450    0.9340   18.6050 C   0  0  0  0  0  0  0  0  0  0  0  0
    6.3990    0.5760   19.9400 N   0  0  0  0  0  0  0  0  0  0  0  0
    5.0570    0.9150   20.4830 C   0  0  0  0  0  0  0  0  0  0  0  0
    5.0680    0.9020   24.0200 C   0  0  2  0  0  0  0  0  0  0  0  0
    4.1340    1.9470   24.0030 C   0  0  0  0  0  0  0  0  0  0  0  0
    4.1300    2.7390   25.1680 C   0  0  0  0  0  0  0  0  0  0  0  0
    5.5440    3.0860   25.6150 C   0  0  1  0  0  0  0  0  0  0  0  0
    5.5700    2.6360   26.7560 O   0  0  0  0  0  0  0  0  0  0  0  0
    6.5680    2.5490   24.8080 C   0  0  0  0  0  0  0  0  0  0  0  0
    6.3440    1.2050   24.4900 C   0  0  0  0  0  0  0  0  0  0  0  0
  1  2  2  0
  2  3  1  0
  3  4  1  0
  4  5  2  0
  5  6  1  0
  6  7  2  0
  7  8  1  0
  4  9  1  0
  8  9  2  0
  2 10  1  0
 10 11  1  0
 11 12  2  0
 12 13  1  0
 13 14  2  0
 14 15  1  0
 15 16  1  0
 16 17  2  0
 17 18  1  0
 11 19  1  0
 15 19  2  0
 18 19  1  0
 20 10  1  6
 20 21  1  0
 21 22  1  0
 22 23  1  0
 23 24  1  1
 23 25  1  0
 20 26  1  0
 25 26  1  0
M  END
