DUN-NEW-f8ce3686-15
     RDKit          3D

 26 29  0  0  0  0  0  0  0  0999 V2000
    8.5210   -4.0130   23.8410 O   0  0  0  0  0  0  0  0  0  0  0  0
    8.7960   -2.8010   23.7070 C   0  0  0  0  0  0  0  0  0  0  0  0
    9.6050   -2.3840   22.7610 C   0  0  0  0  0  0  0  0  0  0  0  0
   10.7710   -1.4850   22.9060 C   0  0  0  0  0  0  0  0  0  0  0  0
   10.7250   -0.0660   23.1530 C   0  0  0  0  0  0  0  0  0  0  0  0
   11.8950    0.7130   23.1390 C   0  0  0  0  0  0  0  0  0  0  0  0
   13.1580    0.0210   22.9030 C   0  0  0  0  0  0  0  0  0  0  0  0
   13.1130   -1.3110   22.7740 N   0  0  0  0  0  0  0  0  0  0  0  0
   12.0190   -2.0570   22.7150 C   0  0  0  0  0  0  0  0  0  0  0  0
    8.2510   -1.8760   24.5560 N   0  0  0  0  0  0  0  0  0  0  0  0
    8.0400   -2.4770   25.9130 C   0  0  0  0  0  0  0  0  0  0  0  0
    7.2320   -1.6700   26.9530 C   0  0  0  0  0  0  0  0  0  0  0  0
    7.0060   -2.2280   28.2150 C   0  0  0  0  0  0  0  0  0  0  0  0
    7.5980   -3.6070   28.4960 C   0  0  0  0  0  0  0  0  0  0  0  0
    8.3220   -4.3010   27.5530 C   0  0  0  0  0  0  0  0  0  0  0  0
    9.0040   -5.6730   27.5880 C   0  0  0  0  0  0  0  0  0  0  0  0
    9.6090   -5.9320   26.3550 C   0  0  0  0  0  0  0  0  0  0  0  0
    9.3350   -4.8130   25.5810 N   0  0  0  0  0  0  0  0  0  0  0  0
    8.5430   -3.7750   26.2920 C   0  0  0  0  0  0  0  0  0  0  0  0
    7.0880   -1.2480   23.8640 C   0  0  1  0  0  0  0  0  0  0  0  0
    7.3100    0.0720   23.4510 C   0  0  0  0  0  0  0  0  0  0  0  0
    6.6290    0.5800   22.2990 C   0  0  0  0  0  0  0  0  0  0  0  0
    5.4280   -0.0800   21.8570 C   0  0  1  0  0  0  0  0  0  0  0  0
    5.2870    0.3160   20.6860 O   0  0  0  0  0  0  0  0  0  0  0  0
    5.5360   -1.6050   21.9720 C   0  0  0  0  0  0  0  0  0  0  0  0
    6.5660   -2.1800   22.7420 C   0  0  0  0  0  0  0  0  0  0  0  0
  1  2  2  0
  2  3  1  0
  3  4  1  0
  4  5  2  0
  5  6  1  0
  6  7  2  0
  7  8  1  0
  4  9  1  0
  8  9  2  0
  2 10  1  0
 10 11  1  0
 11 12  2  0
 12 13  1  0
 13 14  2  0
 14 15  1  0
 15 16  1  0
 16 17  2  0
 17 18  1  0
 11 19  1  0
 15 19  2  0
 18 19  1  0
 20 10  1  6
 20 21  1  0
 21 22  1  0
 22 23  1  0
 23 24  1  6
 23 25  1  0
 20 26  1  0
 25 26  1  0
M  END
