ELE-IMP-dfb36048-2
     RDKit          3D

 22 23  0  0  0  0  0  0  0  0999 V2000
    9.3660    6.9730   22.6620 C   0  0  0  0  0  0  0  0  0  0  0  0
   10.4350    6.2030   23.4030 C   0  0  0  0  0  0  0  0  0  0  0  0
   10.8820    6.5650   24.4840 O   0  0  0  0  0  0  0  0  0  0  0  0
   10.8330    5.0680   22.7270 N   0  0  0  0  0  0  0  0  0  0  0  0
   10.7840    3.8370   23.4230 C   0  0  0  0  0  0  0  0  0  0  0  0
   11.5690    2.7680   22.9510 C   0  0  0  0  0  0  0  0  0  0  0  0
   10.8730    1.4140   23.0010 C   0  0  0  0  0  0  0  0  0  0  0  0
   11.3460    0.1150   22.9400 C   0  0  0  0  0  0  0  0  0  0  0  0
   12.7640   -0.2530   22.8060 N   0  0  0  0  0  0  0  0  0  0  0  0
   12.2110    0.9810   22.8890 C   0  0  0  0  0  0  0  0  0  0  0  0
   10.5490    0.9920   23.0410 C   0  0  0  0  0  0  0  0  0  0  0  0
   10.7850   -0.6690   22.9200 C   0  0  0  0  0  0  0  0  0  0  0  0
    9.9140   -1.7190   23.8550 C   0  0  0  0  0  0  0  0  0  0  0  0
    8.4260   -1.9500   23.5890 N   0  0  0  0  0  0  0  0  0  0  0  0
    7.6390   -3.2270   24.3890 S   0  0  0  0  0  0  0  0  0  0  0  0
    6.0090   -3.4750   23.7690 C   0  0  0  0  0  0  0  0  0  0  0  0
    8.3790   -4.4310   24.0660 O   0  0  0  0  0  0  0  0  0  0  0  0
    7.3730   -2.7700   25.7380 O   0  0  0  0  0  0  0  0  0  0  0  0
    9.3520    0.1220   23.1160 C   0  0  0  0  0  0  0  0  0  0  0  0
    9.9590   -1.1430   23.0110 C   0  0  0  0  0  0  0  0  0  0  0  0
   10.3090    0.1200   23.0260 C   0  0  0  0  0  0  0  0  0  0  0  0
   11.6100    0.1440   22.9170 C   0  0  0  0  0  0  0  0  0  0  0  0
  1  2  1  0
  2  3  2  0
  2  4  1  0
  4  5  1  0
  5  6  1  0
  6  7  1  0
  7  8  2  0
  8  9  1  0
  9 10  1  0
 10 11  1  0
 11 12  1  0
 12 13  1  0
 13 14  1  0
 15 14  1  0
 15 16  1  0
 15 17  2  0
 15 18  2  0
 11 19  2  0
 19 20  1  0
 20 21  2  0
  7 22  1  0
 10 22  2  0
 21 22  1  0
M  END
