ELE-IMP-dfb36048-4
     RDKit          3D

 24 26  0  0  0  0  0  0  0  0999 V2000
    6.3610   -5.1620   26.2710 C   0  0  0  0  0  0  0  0  0  0  0  0
    7.9130   -4.3300   26.0250 S   0  0  0  0  0  0  0  0  0  0  0  0
    8.9390   -5.3370   25.8340 O   0  0  0  0  0  0  0  0  0  0  0  0
    8.0570   -3.3420   27.0640 O   0  0  0  0  0  0  0  0  0  0  0  0
    7.7090   -3.5500   24.5510 N   0  0  0  0  0  0  0  0  0  0  0  0
    8.7720   -2.7500   24.0860 C   0  0  0  0  0  0  0  0  0  0  0  0
    8.7380   -1.5680   23.0860 C   0  0  0  0  0  0  0  0  0  0  0  0
   10.1570   -0.9600   22.8750 C   0  0  0  0  0  0  0  0  0  0  0  0
   11.1930   -1.9590   22.5130 C   0  0  0  0  0  0  0  0  0  0  0  0
   12.6120   -1.5640   22.3150 C   0  0  0  0  0  0  0  0  0  0  0  0
   12.9060   -0.2230   22.4990 C   0  0  0  0  0  0  0  0  0  0  0  0
   11.8990    0.7470   22.8120 C   0  0  0  0  0  0  0  0  0  0  0  0
   12.4010    2.0570   22.9170 C   0  0  0  0  0  0  0  0  0  0  0  0
   11.2330    2.8440   23.1560 C   0  0  0  0  0  0  0  0  0  0  0  0
   10.3310    1.6780   23.1570 N   0  0  0  0  0  0  0  0  0  0  0  0
   10.6530    0.3970   22.9600 C   0  0  0  0  0  0  0  0  0  0  0  0
   10.0080    2.9470   23.3080 C   0  0  0  0  0  0  0  0  0  0  0  0
    9.9930    1.6190   22.7260 N   0  0  0  0  0  0  0  0  0  0  0  0
    8.4550    1.2800   21.9630 S   0  0  0  0  0  0  0  0  0  0  0  0
    8.5280   -0.3550   21.2520 C   0  0  0  0  0  0  0  0  0  0  0  0
    7.4450    1.2280   23.0020 O   0  0  0  0  0  0  0  0  0  0  0  0
    8.2840    2.1930   20.8590 O   0  0  0  0  0  0  0  0  0  0  0  0
   11.1140    0.5460   22.7540 C   0  0  0  0  0  0  0  0  0  0  0  0
   12.6470    0.8270   22.7370 C   0  0  0  0  0  0  0  0  0  0  0  0
  1  2  1  0
  2  3  2  0
  2  4  2  0
  2  5  1  0
  5  6  1  0
  6  7  1  0
  7  8  1  0
  8  9  2  0
  9 10  1  0
 10 11  2  0
 11 12  1  0
 12 13  1  0
 13 14  2  0
 14 15  1  0
  8 16  1  0
 12 16  2  0
 15 16  1  0
 14 17  1  0
 17 18  1  0
 18 19  1  0
 19 20  1  0
 19 21  2  0
 19 22  2  0
 18 23  1  0
 13 24  1  0
 23 24  1  0
M  END
