EMI-TUK-a58865cc-2
     RDKit          3D

 25 27  0  0  0  0  0  0  0  0999 V2000
    8.5840    0.8080   21.2800 O   0  0  0  0  0  0  0  0  0  0  0  0
    8.2190   -0.3330   21.5350 C   0  0  0  0  0  0  0  0  0  0  0  0
    6.9550   -0.9390   21.1570 N   0  0  0  0  0  0  0  0  0  0  0  0
    6.3430   -0.1620   20.0780 C   0  0  0  0  0  0  0  0  0  0  0  0
    5.2070    0.5240   20.3750 C   0  0  0  0  0  0  0  0  0  0  0  0
    4.5920    1.3400   19.2250 C   0  0  0  0  0  0  0  0  0  0  0  0
    5.2080    1.3530   17.9320 C   0  0  0  0  0  0  0  0  0  0  0  0
    6.3360    0.6250   17.7670 N   0  0  0  0  0  0  0  0  0  0  0  0
    6.9200   -0.1310   18.7930 C   0  0  0  0  0  0  0  0  0  0  0  0
    9.0180   -1.3000   22.2730 N   0  0  0  0  0  0  0  0  0  0  0  0
   10.3730   -0.8550   22.5180 C   0  0  0  0  0  0  0  0  0  0  0  0
   10.4420    0.3870   23.3660 C   0  0  0  0  0  0  0  0  0  0  0  0
   11.8670    0.8860   23.6120 C   0  0  0  0  0  0  0  0  0  0  0  0
   13.0070    0.2820   23.1230 C   0  0  0  0  0  0  0  0  0  0  0  0
   12.8340   -0.8880   22.3460 C   0  0  0  0  0  0  0  0  0  0  0  0
   11.5250   -1.4660   22.0360 C   0  0  0  0  0  0  0  0  0  0  0  0
    8.4960   -2.2770   23.2530 C   0  0  0  0  0  0  0  0  0  0  0  0
    9.3280   -3.3040   23.7040 C   0  0  0  0  0  0  0  0  0  0  0  0
    8.8830   -4.2410   24.6370 C   0  0  0  0  0  0  0  0  0  0  0  0
    7.5900   -4.1560   25.1240 C   0  0  0  0  0  0  0  0  0  0  0  0
    6.7300   -3.1520   24.6980 C   0  0  0  0  0  0  0  0  0  0  0  0
    5.4630   -3.0580   25.1650 N   0  0  0  0  0  0  0  0  0  0  0  0
    5.2730   -2.2800   26.1120 O   0  0  0  0  0  0  0  0  0  0  0  0
    4.6940   -3.9880   24.8770 O   0  0  0  0  0  0  0  0  0  0  0  0
    7.1830   -2.2080   23.7590 C   0  0  0  0  0  0  0  0  0  0  0  0
  1  2  2  0
  2  3  1  0
  3  4  1  0
  4  5  2  0
  5  6  1  0
  6  7  2  0
  7  8  1  0
  4  9  1  0
  8  9  2  0
  2 10  1  0
 10 11  1  0
 11 12  2  0
 12 13  1  0
 13 14  2  0
 14 15  1  0
 11 16  1  0
 15 16  2  0
 10 17  1  0
 17 18  2  0
 18 19  1  0
 19 20  2  0
 20 21  1  0
 21 22  1  0
 22 23  2  0
 22 24  1  0
 17 25  1  0
 21 25  2  0
M  CHG  2  22   1  24  -1
M  END
