EMI-TUK-b780fc43-2
     RDKit          3D

 22 23  0  0  0  0  0  0  0  0999 V2000
    7.1640   -5.7800   22.6340 C   0  0  0  0  0  0  0  0  0  0  0  0
    7.4220   -4.4360   23.3820 C   0  0  0  0  0  0  0  0  0  0  0  0
    6.4280   -4.1930   24.4030 O   0  0  0  0  0  0  0  0  0  0  0  0
    8.5140   -3.6100   23.0670 C   0  0  0  0  0  0  0  0  0  0  0  0
    8.3870   -2.2320   23.2430 C   0  0  0  0  0  0  0  0  0  0  0  0
    8.9220   -1.3550   22.3410 N   0  0  0  0  0  0  0  0  0  0  0  0
    8.1170   -0.5660   21.5960 C   0  0  0  0  0  0  0  0  0  0  0  0
    8.5390    0.5490   21.2560 O   0  0  0  0  0  0  0  0  0  0  0  0
    6.8690   -0.9340   21.1870 N   0  0  0  0  0  0  0  0  0  0  0  0
    6.0300   -1.5910   22.0320 C   0  0  0  0  0  0  0  0  0  0  0  0
    6.3510   -0.1480   20.0870 C   0  0  0  0  0  0  0  0  0  0  0  0
    5.1750    0.5340   20.3590 C   0  0  0  0  0  0  0  0  0  0  0  0
    4.6450    1.2920   19.3310 C   0  0  0  0  0  0  0  0  0  0  0  0
    5.2380    1.3870   18.0850 C   0  0  0  0  0  0  0  0  0  0  0  0
    6.4080    0.7590   17.6900 N   0  0  0  0  0  0  0  0  0  0  0  0
    6.8950    0.0370   18.6810 C   0  0  0  0  0  0  0  0  0  0  0  0
   10.2590   -0.8350   22.5950 C   0  0  0  0  0  0  0  0  0  0  0  0
   10.4450    0.4060   23.4240 C   0  0  0  0  0  0  0  0  0  0  0  0
   11.8400    0.9340   23.6620 C   0  0  0  0  0  0  0  0  0  0  0  0
   12.8960    0.2480   23.1050 C   0  0  0  0  0  0  0  0  0  0  0  0
   12.7940   -0.8860   22.3510 N   0  0  0  0  0  0  0  0  0  0  0  0
   11.5000   -1.4950   22.0490 C   0  0  0  0  0  0  0  0  0  0  0  0
  1  2  1  0
  2  3  2  0
  2  4  1  0
  4  5  1  0
  5  6  1  0
  6  7  1  0
  7  8  2  0
  7  9  1  0
  9 10  1  0
  9 11  1  0
 11 12  2  0
 12 13  1  0
 13 14  2  0
 14 15  1  0
 11 16  1  0
 15 16  2  0
  6 17  1  0
 17 18  2  0
 18 19  1  0
 19 20  2  0
 20 21  1  0
 17 22  1  0
 21 22  2  0
M  END
