EMI-TUK-a58865cc-1
     RDKit          3D

 25 27  0  0  0  0  0  0  0  0999 V2000
   13.7960   -2.8890   23.2570 N   0  0  0  0  0  0  0  0  0  0  0  0
   13.1400   -2.0650   22.3500 C   0  0  0  0  0  0  0  0  0  0  0  0
   13.3510   -2.3120   21.0130 N   0  0  0  0  0  0  0  0  0  0  0  0
   12.2250   -0.9880   22.7920 C   0  0  0  0  0  0  0  0  0  0  0  0
   12.6380    0.1650   23.4350 C   0  0  0  0  0  0  0  0  0  0  0  0
   11.6850    1.1030   23.8190 C   0  0  0  0  0  0  0  0  0  0  0  0
   10.3600    0.8600   23.5470 C   0  0  0  0  0  0  0  0  0  0  0  0
    9.9740   -0.2880   22.8970 C   0  0  0  0  0  0  0  0  0  0  0  0
    8.6360   -0.4830   22.6150 N   0  0  0  0  0  0  0  0  0  0  0  0
    8.1190    0.1600   21.5400 C   0  0  0  0  0  0  0  0  0  0  0  0
    8.5610    1.2170   21.0710 O   0  0  0  0  0  0  0  0  0  0  0  0
    7.0590   -0.4970   21.0610 N   0  0  0  0  0  0  0  0  0  0  0  0
    6.4110    0.1440   19.9680 C   0  0  0  0  0  0  0  0  0  0  0  0
    5.2890    0.8940   20.2570 C   0  0  0  0  0  0  0  0  0  0  0  0
    4.6240    1.5690   19.2330 C   0  0  0  0  0  0  0  0  0  0  0  0
    5.0750    1.5000   17.9200 C   0  0  0  0  0  0  0  0  0  0  0  0
    6.2630    0.7000   17.5530 N   0  0  0  0  0  0  0  0  0  0  0  0
    6.8810    0.0380   18.6950 C   0  0  0  0  0  0  0  0  0  0  0  0
    8.0090   -1.6420   22.9820 C   0  0  0  0  0  0  0  0  0  0  0  0
    8.6150   -2.8980   23.0300 C   0  0  0  0  0  0  0  0  0  0  0  0
    7.9010   -4.0440   23.4100 C   0  0  0  0  0  0  0  0  0  0  0  0
    6.5470   -4.0150   23.7650 C   0  0  0  0  0  0  0  0  0  0  0  0
    5.8350   -2.8310   23.7580 C   0  0  0  0  0  0  0  0  0  0  0  0
    6.5310   -1.5410   23.3600 C   0  0  0  0  0  0  0  0  0  0  0  0
   10.9090   -1.2120   22.5190 C   0  0  0  0  0  0  0  0  0  0  0  0
  1  2  2  3
  2  3  1  0
  2  4  1  0
  4  5  2  0
  5  6  1  0
  6  7  2  0
  7  8  1  0
  8  9  1  0
  9 10  1  0
 10 11  2  0
 10 12  1  0
 12 13  1  0
 13 14  2  0
 14 15  1  0
 15 16  2  0
 16 17  1  0
 13 18  1  0
 17 18  2  0
  9 19  1  0
 19 20  2  0
 20 21  1  0
 21 22  2  0
 22 23  1  0
 19 24  1  0
 23 24  2  0
  4 25  1  0
  8 25  2  0
M  END
