EMM-WAB-00d33046-2
     RDKit          3D

 21 22  0  0  0  0  0  0  0  0999 V2000
    6.1570   -5.9750   22.1530 C   0  0  0  0  0  0  0  0  0  0  0  0
    5.4880   -4.7520   22.7440 C   0  0  0  0  0  0  0  0  0  0  0  0
    4.5820   -4.1420   22.1640 O   0  0  0  0  0  0  0  0  0  0  0  0
    6.0350   -4.4680   23.9580 O   0  0  0  0  0  0  0  0  0  0  0  0
    5.1790   -4.4300   25.0090 C   0  0  0  0  0  0  0  0  0  0  0  0
    4.0940   -4.9690   25.1620 O   0  0  0  0  0  0  0  0  0  0  0  0
    5.6830   -3.6180   26.0650 N   0  0  0  0  0  0  0  0  0  0  0  0
    5.6060   -4.0630   27.3760 N   0  0  0  0  0  0  0  0  0  0  0  0
    6.1490   -3.0880   28.1120 C   0  0  0  0  0  0  0  0  0  0  0  0
    6.5470   -2.0870   27.3350 C   0  0  0  0  0  0  0  0  0  0  0  0
    6.2870   -2.3450   26.0030 C   0  0  0  0  0  0  0  0  0  0  0  0
    6.5200   -1.6160   24.8380 N   0  0  0  0  0  0  0  0  0  0  0  0
    6.9130   -0.2810   24.8190 C   0  0  0  0  0  0  0  0  0  0  0  0
    6.3260    0.6080   25.4420 O   0  0  0  0  0  0  0  0  0  0  0  0
    8.0420   -0.0220   24.0250 N   0  0  0  0  0  0  0  0  0  0  0  0
    8.1810    1.1230   23.0930 C   0  0  0  0  0  0  0  0  0  0  0  0
    9.2200    1.0180   21.9560 C   0  0  0  0  0  0  0  0  0  0  0  0
    9.9780   -0.3460   21.8280 C   0  0  0  0  0  0  0  0  0  0  0  0
    9.4500   -1.5550   22.5290 C   0  0  0  0  0  0  0  0  0  0  0  0
    9.7620   -1.5920   23.9800 C   0  0  0  0  0  0  0  0  0  0  0  0
    9.2270   -0.4690   24.6650 O   0  0  0  0  0  0  0  0  0  0  0  0
  1  2  1  0
  2  3  2  0
  2  4  1  0
  4  5  1  0
  5  6  2  0
  5  7  1  0
  7  8  1  0
  8  9  2  0
  9 10  1  0
  7 11  1  0
 10 11  2  0
 11 12  1  0
 12 13  1  0
 13 14  2  0
 13 15  1  0
 15 16  1  0
 16 17  1  0
 17 18  1  0
 18 19  1  0
 19 20  1  0
 15 21  1  0
 20 21  1  0
M  END
