EMM-WAB-00d33046-1
     RDKit          3D

 24 26  0  0  0  0  0  0  0  0999 V2000
   11.7670   10.6240   26.1480 C   0  0  0  0  0  0  0  0  0  0  0  0
   12.2470    9.4190   26.9500 C   0  0  0  0  0  0  0  0  0  0  0  0
   12.7500    9.5480   28.0650 O   0  0  0  0  0  0  0  0  0  0  0  0
   12.0590    8.1410   26.2650 N   0  0  0  0  0  0  0  0  0  0  0  0
   11.5670    7.0320   27.0830 C   0  0  0  0  0  0  0  0  0  0  0  0
   10.7420    6.0530   26.2780 C   0  0  0  0  0  0  0  0  0  0  0  0
   11.3310    5.6410   24.9880 N   0  0  0  0  0  0  0  0  0  0  0  0
   10.6090    4.4550   24.4270 C   0  0  0  0  0  0  0  0  0  0  0  0
    9.7390    3.9210   25.1170 O   0  0  0  0  0  0  0  0  0  0  0  0
   10.8150    3.8490   23.0330 C   0  0  1  0  0  0  0  0  0  0  0  0
   12.1410    4.3570   22.5410 C   0  0  0  0  0  0  0  0  0  0  0  0
   13.1560    4.9480   23.4610 C   0  0  0  0  0  0  0  0  0  0  0  0
   14.2110    5.2780   22.6320 N   0  0  0  0  0  0  0  0  0  0  0  0
   13.8580    4.9330   21.3400 C   0  0  0  0  0  0  0  0  0  0  0  0
   12.5420    4.3520   21.2750 N   0  0  0  0  0  0  0  0  0  0  0  0
   10.6130    2.4230   22.9750 C   0  0  0  0  0  0  0  0  0  0  0  0
   12.0640    1.9930   22.9800 N   0  0  0  0  0  0  0  0  0  0  0  0
   12.7230    0.6060   22.9450 C   0  0  0  0  0  0  0  0  0  0  0  0
   11.4880   -0.4530   22.8960 C   0  0  0  0  0  0  0  0  0  0  0  0
   10.3310    0.1370   22.8950 C   0  0  0  0  0  0  0  0  0  0  0  0
   10.9440    1.2210   22.9380 C   0  0  0  0  0  0  0  0  0  0  0  0
   12.6180    0.8660   22.9590 Cl  0  0  0  0  0  0  0  0  0  0  0  0
   11.6930    6.8460   24.2400 C   0  0  0  0  0  0  0  0  0  0  0  0
   11.7240    8.1010   24.8330 C   0  0  0  0  0  0  0  0  0  0  0  0
  1  2  1  0
  2  3  2  0
  2  4  1  0
  4  5  1  0
  5  6  1  0
  6  7  1  0
  7  8  1  0
  8  9  2  0
 10  8  1  1
 10 11  1  0
 11 12  2  0
 12 13  1  0
 13 14  2  0
 11 15  1  0
 14 15  1  0
 10 16  1  0
 16 17  2  0
 17 18  1  0
 18 19  2  0
 19 20  1  0
 16 21  1  0
 20 21  2  0
 21 22  1  0
  7 23  1  0
  4 24  1  0
 23 24  1  0
M  END
