FAR-UNI-736b943a-2
     RDKit          3D

 34 37  0  0  0  0  0  0  0  0999 V2000
   15.0260   -1.7680   26.7330 N   0  0  0  0  0  0  0  0  0  0  0  0
   14.5630   -2.4070   25.6840 C   0  0  0  0  0  0  0  0  0  0  0  0
   14.7400   -3.7170   25.9040 O   0  0  0  0  0  0  0  0  0  0  0  0
   13.9310   -1.9220   24.3820 C   0  0  0  0  0  0  0  0  0  0  0  0
   13.9600   -2.7420   23.3740 C   0  0  0  0  0  0  0  0  0  0  0  0
   13.4130   -2.5510   22.0460 C   0  0  0  0  0  0  0  0  0  0  0  0
   12.8010   -1.2680   21.8810 C   0  0  0  0  0  0  0  0  0  0  0  0
   12.7890   -0.2900   23.0220 C   0  0  0  0  0  0  0  0  0  0  0  0
   12.1840    1.2720   23.0580 S   0  0  0  0  0  0  0  0  0  0  0  0
   12.9930    2.2310   22.3790 O   0  0  0  0  0  0  0  0  0  0  0  0
   11.8190    1.4690   24.3870 O   0  0  0  0  0  0  0  0  0  0  0  0
   10.7640    1.1590   22.2980 N   0  0  0  0  0  0  0  0  0  0  0  0
    9.9260    1.9330   23.0480 C   0  0  0  0  0  0  0  0  0  0  0  0
    9.6410    1.1060   24.3120 C   0  0  0  0  0  0  0  0  0  0  0  0
    9.2040   -0.1540   24.1980 C   0  0  1  0  0  0  0  0  0  0  0  0
    7.7550    0.0410   23.7190 C   0  0  0  0  0  0  0  0  0  0  0  0
    7.6810    0.9160   22.6390 C   0  0  0  0  0  0  0  0  0  0  0  0
    8.3710    0.9090   21.6220 O   0  0  0  0  0  0  0  0  0  0  0  0
    6.6600    1.9140   22.8220 O   0  0  0  0  0  0  0  0  0  0  0  0
    9.9030   -0.9960   23.3720 C   0  0  1  0  0  0  0  0  0  0  0  0
    9.2100   -2.1580   23.0800 C   0  0  0  0  0  0  0  0  0  0  0  0
    8.1210   -2.2010   22.2230 C   0  0  0  0  0  0  0  0  0  0  0  0
    7.7150   -1.0560   21.5770 N   0  0  0  0  0  0  0  0  0  0  0  0
    6.4110   -1.0720   21.0390 C   0  0  0  0  0  0  0  0  0  0  0  0
    6.1010   -2.2010   20.3000 C   0  0  0  0  0  0  0  0  0  0  0  0
    6.3750   -3.3890   20.9980 C   0  0  0  0  0  0  0  0  0  0  0  0
    5.6500   -4.4900   20.6890 C   0  0  0  0  0  0  0  0  0  0  0  0
    5.8990   -5.6970   21.3900 C   0  0  0  0  0  0  0  0  0  0  0  0
    5.1990   -6.7590   21.1000 F   0  0  0  0  0  0  0  0  0  0  0  0
    6.9630   -5.7810   22.4740 C   0  0  0  0  0  0  0  0  0  0  0  0
    7.6860   -4.6770   22.7650 C   0  0  0  0  0  0  0  0  0  0  0  0
    7.3750   -3.4260   21.9800 C   0  0  0  0  0  0  0  0  0  0  0  0
   10.3500   -0.2800   22.0850 C   0  0  0  0  0  0  0  0  0  0  0  0
   13.3390   -0.6780   24.2330 C   0  0  0  0  0  0  0  0  0  0  0  0
  1  2  1  0
  2  3  2  0
  2  4  1  0
  4  5  2  0
  5  6  1  0
  6  7  2  0
  7  8  1  0
  9  8  1  0
  9 10  2  0
  9 11  2  0
  9 12  1  0
 12 13  1  0
 13 14  1  0
 14 15  1  0
 15 16  1  6
 16 17  1  0
 17 18  2  0
 17 19  1  0
 15 20  1  0
 20 21  1  6
 21 22  2  3
 22 23  1  0
 23 24  1  0
 24 25  1  0
 25 26  1  0
 26 27  2  0
 27 28  1  0
 28 29  1  0
 28 30  2  0
 30 31  1  0
 22 32  1  0
 26 32  1  0
 31 32  2  0
 12 33  1  0
 20 33  1  0
  4 34  1  0
  8 34  2  0
M  END
