FAR-UNI-736b943a-1
     RDKit          3D

 29 31  0  0  0  0  0  0  0  0999 V2000
   10.5100    5.6500   24.8600 O   0  0  0  0  0  0  0  0  0  0  0  0
   10.2530    5.7260   23.6630 C   0  0  0  0  0  0  0  0  0  0  0  0
    8.8740    6.0450   23.2240 C   0  0  0  0  0  0  0  0  0  0  0  0
    7.7920    5.3640   23.8070 C   0  0  2  0  0  0  0  0  0  0  0  0
    7.2250    4.5420   22.8570 O   0  0  0  0  0  0  0  0  0  0  0  0
    5.8140    4.7950   22.8600 C   0  0  2  0  0  0  0  0  0  0  0  0
    5.4590    5.5840   21.7470 C   0  0  0  0  0  0  0  0  0  0  0  0
    4.5880    4.8890   20.9460 N   0  0  0  0  0  0  0  0  0  0  0  0
    3.3920    4.6900   21.5960 C   0  0  0  0  0  0  0  0  0  0  0  0
    2.0090    4.4380   20.9540 C   0  0  0  0  0  0  0  0  0  0  0  0
    1.4410    3.0410   20.9540 C   0  0  0  0  0  0  0  0  0  0  0  0
    0.1250    2.7930   20.3550 C   0  0  0  0  0  0  0  0  0  0  0  0
   -0.5530    3.8100   19.8150 C   0  0  0  0  0  0  0  0  0  0  0  0
   -0.1100    5.1390   19.7600 C   0  0  0  0  0  0  0  0  0  0  0  0
   -1.1150    6.3250   19.0210 Cl  0  0  0  0  0  0  0  0  0  0  0  0
    1.1410    5.5350   20.2990 C   0  0  0  0  0  0  0  0  0  0  0  0
    5.5730    5.4930   24.1920 C   0  0  1  0  0  0  0  0  0  0  0  0
    5.3340    4.5920   25.2770 O   0  0  0  0  0  0  0  0  0  0  0  0
    6.7820    6.1780   24.3860 C   0  0  1  0  0  0  0  0  0  0  0  0
    7.1040    6.4290   25.5550 O   0  0  0  0  0  0  0  0  0  0  0  0
   11.1760    5.5310   22.6280 N   0  0  0  0  0  0  0  0  0  0  0  0
   12.3700    4.7080   22.8470 C   0  0  0  0  0  0  0  0  0  0  0  0
   11.9490    3.3630   22.8700 C   0  0  0  0  0  0  0  0  0  0  0  0
   10.6080    3.0210   22.9450 C   0  0  0  0  0  0  0  0  0  0  0  0
   10.1200    1.6030   22.9730 C   0  0  0  0  0  0  0  0  0  0  0  0
   11.0890    0.5890   22.9210 C   0  0  0  0  0  0  0  0  0  0  0  0
   10.7240   -0.7000   22.9430 F   0  0  0  0  0  0  0  0  0  0  0  0
   12.4460    0.9350   22.8460 C   0  0  0  0  0  0  0  0  0  0  0  0
   12.8460    2.2850   22.8190 C   0  0  0  0  0  0  0  0  0  0  0  0
  1  2  2  0
  2  3  1  0
  4  3  1  6
  4  5  1  0
  5  6  1  0
  6  7  1  6
  7  8  1  0
  8  9  1  0
  9 10  1  0
 10 11  2  0
 11 12  1  0
 12 13  2  0
 13 14  1  0
 14 15  1  0
 10 16  1  0
 14 16  2  0
  6 17  1  0
 17 18  1  1
  4 19  1  0
 17 19  1  0
 19 20  1  1
  2 21  1  0
 21 22  1  0
 22 23  1  0
 23 24  2  0
 24 25  1  0
 25 26  2  0
 26 27  1  0
 26 28  1  0
 23 29  1  0
 28 29  2  0
M  END
