FAR-UNI-a04c1544-1
     RDKit          3D

 29 30  0  0  0  0  0  0  0  0999 V2000
    6.2310   -0.9120   18.4410 C   0  0  0  0  0  0  0  0  0  0  0  0
    5.8140   -0.7100   19.5710 O   0  0  0  0  0  0  0  0  0  0  0  0
    6.3220    0.4020   20.1630 C   0  0  0  0  0  0  0  0  0  0  0  0
    7.1320    1.1750   19.6600 O   0  0  0  0  0  0  0  0  0  0  0  0
    5.8200    0.5560   21.3970 C   0  0  2  0  0  0  0  0  0  0  0  0
    5.4370    1.9540   21.7900 C   0  0  0  0  0  0  0  0  0  0  0  0
    6.2760    2.4920   22.8100 O   0  0  0  0  0  0  0  0  0  0  0  0
    6.8570    0.1160   22.3340 N   0  0  0  0  0  0  0  0  0  0  0  0
    7.1670   -1.2160   22.5540 C   0  0  0  0  0  0  0  0  0  0  0  0
    6.5750   -2.1300   21.9830 O   0  0  0  0  0  0  0  0  0  0  0  0
    8.2940   -1.4860   23.5560 C   0  0  2  0  0  0  0  0  0  0  0  0
    9.4870   -2.1290   22.8180 C   0  0  0  0  0  0  0  0  0  0  0  0
   10.8390   -2.1160   23.5790 C   0  0  0  0  0  0  0  0  0  0  0  0
   11.6560   -0.8860   23.4820 C   0  0  0  0  0  0  0  0  0  0  0  0
   12.8820   -0.8030   24.1200 C   0  0  0  0  0  0  0  0  0  0  0  0
   13.3250   -1.9100   24.8570 C   0  0  0  0  0  0  0  0  0  0  0  0
   12.5780   -3.0450   24.9500 C   0  0  0  0  0  0  0  0  0  0  0  0
   11.3400   -3.1630   24.3240 C   0  0  0  0  0  0  0  0  0  0  0  0
    7.8240   -2.3600   24.5070 N   0  0  0  0  0  0  0  0  0  0  0  0
    6.7530   -2.1800   25.3450 C   0  0  0  0  0  0  0  0  0  0  0  0
    6.7930   -1.3840   26.2920 O   0  0  0  0  0  0  0  0  0  0  0  0
    5.7010   -2.9640   25.0060 O   0  0  0  0  0  0  0  0  0  0  0  0
    4.9380   -3.5120   26.0860 C   0  0  0  0  0  0  0  0  0  0  0  0
    3.5240   -3.8690   25.6130 C   0  0  0  0  0  0  0  0  0  0  0  0
    2.3060   -3.0750   26.1020 C   0  0  0  0  0  0  0  0  0  0  0  0
    1.0400   -3.4360   25.6510 C   0  0  0  0  0  0  0  0  0  0  0  0
    0.8850   -4.4930   24.7780 C   0  0  0  0  0  0  0  0  0  0  0  0
    1.9880   -5.2320   24.3160 C   0  0  0  0  0  0  0  0  0  0  0  0
    3.2900   -4.9250   24.7260 C   0  0  0  0  0  0  0  0  0  0  0  0
  1  2  1  0
  2  3  1  0
  3  4  2  0
  3  5  1  0
  5  6  1  1
  6  7  1  0
  5  8  1  0
  8  9  1  0
  9 10  2  0
  9 11  1  0
 11 12  1  6
 12 13  1  0
 13 14  2  0
 14 15  1  0
 15 16  2  0
 16 17  1  0
 13 18  1  0
 17 18  2  0
 11 19  1  0
 19 20  1  0
 20 21  2  0
 20 22  1  0
 22 23  1  0
 23 24  1  0
 24 25  2  0
 25 26  1  0
 26 27  2  0
 27 28  1  0
 24 29  1  0
 28 29  2  0
M  END
