FAR-UNI-736b943a-6
     RDKit          3D

 30 32  0  0  0  0  0  0  0  0999 V2000
    9.3130    0.8460   21.5310 O   0  0  0  0  0  0  0  0  0  0  0  0
    8.6530   -0.1800   21.6720 C   0  0  0  0  0  0  0  0  0  0  0  0
    9.1900   -1.4240   22.1800 N   0  0  0  0  0  0  0  0  0  0  0  0
    9.4490   -1.6480   23.4890 C   0  0  0  0  0  0  0  0  0  0  0  0
    8.7520   -2.4420   24.3210 C   0  0  2  0  0  0  0  0  0  0  0  0
    7.6650   -1.8380   25.2090 C   0  0  0  0  0  0  0  0  0  0  0  0
    7.9440   -0.4600   25.4930 O   0  0  0  0  0  0  0  0  0  0  0  0
    7.0490    0.1400   26.3540 C   0  0  0  0  0  0  0  0  0  0  0  0
    7.3090    1.5500   26.8440 C   0  0  0  0  0  0  0  0  0  0  0  0
    6.3280    2.2380   27.8110 C   0  0  0  0  0  0  0  0  0  0  0  0
    5.0840    1.3730   28.2230 C   0  0  0  0  0  0  0  0  0  0  0  0
    4.0720    1.7790   29.0820 C   0  0  0  0  0  0  0  0  0  0  0  0
    2.8340    1.6860   28.5200 F   0  0  0  0  0  0  0  0  0  0  0  0
    4.0090    1.0550   30.2300 F   0  0  0  0  0  0  0  0  0  0  0  0
    4.2030    3.0750   29.4720 F   0  0  0  0  0  0  0  0  0  0  0  0
    4.9820    0.0810   27.6820 C   0  0  0  0  0  0  0  0  0  0  0  0
    5.8400   -0.5330   26.8280 N   0  0  0  0  0  0  0  0  0  0  0  0
    9.7450   -3.2530   25.2140 C   0  0  0  0  0  0  0  0  0  0  0  0
    8.9160   -4.4980   25.4350 C   0  0  2  0  0  0  0  0  0  0  0  0
    9.7510   -5.6500   25.4430 O   0  0  0  0  0  0  0  0  0  0  0  0
    7.9390   -4.6100   24.4620 C   0  0  2  0  0  0  0  0  0  0  0  0
    8.0390   -5.9000   23.8650 O   0  0  0  0  0  0  0  0  0  0  0  0
    8.0700   -3.6060   23.5040 C   0  0  0  0  0  0  0  0  0  0  0  0
    7.3230   -0.3370   21.3720 N   0  0  0  0  0  0  0  0  0  0  0  0
    6.6870    0.1520   20.2240 C   0  0  0  0  0  0  0  0  0  0  0  0
    5.6010    0.9830   20.3740 C   0  0  0  0  0  0  0  0  0  0  0  0
    4.9260    1.5070   19.2780 C   0  0  0  0  0  0  0  0  0  0  0  0
    5.3830    1.1690   18.0230 C   0  0  0  0  0  0  0  0  0  0  0  0
    6.4120    0.3810   17.8370 N   0  0  0  0  0  0  0  0  0  0  0  0
    7.0530   -0.1230   18.9220 C   0  0  0  0  0  0  0  0  0  0  0  0
  1  2  2  0
  2  3  1  0
  3  4  1  0
  5  4  1  6
  5  6  1  0
  6  7  1  0
  7  8  1  0
  8  9  2  0
  9 10  1  0
 10 11  2  0
 11 12  1  0
 12 13  1  0
 12 14  1  0
 12 15  1  0
 11 16  1  0
  8 17  1  0
 16 17  2  0
  5 18  1  0
 18 19  1  0
 19 20  1  6
 19 21  1  0
 21 22  1  6
  5 23  1  0
 21 23  1  0
  2 24  1  0
 24 25  1  0
 25 26  2  0
 26 27  1  0
 27 28  2  0
 28 29  1  0
 25 30  1  0
 29 30  2  0
M  END
