FAR-UNI-736b943a-3
     RDKit          3D

 21 21  0  0  0  0  0  0  0  0999 V2000
   10.6330    3.3660   30.4110 C   0  0  0  0  0  0  0  0  0  0  0  0
    9.8730    2.0720   30.2570 C   0  0  0  0  0  0  0  0  0  0  0  0
   10.7330    0.9110   30.4050 C   0  0  0  0  0  0  0  0  0  0  0  0
    9.2590    1.8730   29.2060 O   0  0  0  0  0  0  0  0  0  0  0  0
    8.3460    0.8660   29.1790 C   0  0  0  0  0  0  0  0  0  0  0  0
    8.1680   -0.0890   30.1560 O   0  0  0  0  0  0  0  0  0  0  0  0
    7.6000    0.9550   27.9850 N   0  0  0  0  0  0  0  0  0  0  0  0
    7.5780    0.0210   26.9400 C   0  0  0  0  0  0  0  0  0  0  0  0
    7.0930    0.4060   25.6940 C   0  0  2  0  0  0  0  0  0  0  0  0
    5.6900    0.4110   25.5500 C   0  0  0  0  0  0  0  0  0  0  0  0
    7.4590   -0.2730   24.7290 O   0  0  0  0  0  0  0  0  0  0  0  0
    7.2920    0.2830   23.4910 C   0  0  0  0  0  0  0  0  0  0  0  0
    6.4270    1.3860   23.2250 O   0  0  0  0  0  0  0  0  0  0  0  0
    8.1410   -0.4430   22.5340 N   0  0  0  0  0  0  0  0  0  0  0  0
    9.3750   -0.9830   22.8540 C   0  0  0  0  0  0  0  0  0  0  0  0
   10.5600   -1.0930   22.0220 C   0  0  0  0  0  0  0  0  0  0  0  0
   11.9020   -1.5380   21.9910 C   0  0  0  0  0  0  0  0  0  0  0  0
   12.2310   -2.0790   23.2100 C   0  0  0  0  0  0  0  0  0  0  0  0
   13.7250   -2.7220   23.6020 Cl  0  0  0  0  0  0  0  0  0  0  0  0
   11.1490   -2.0990   24.2980 C   0  0  0  0  0  0  0  0  0  0  0  0
    9.7170   -1.5390   24.0860 C   0  0  0  0  0  0  0  0  0  0  0  0
  1  2  1  0
  2  3  1  0
  2  4  1  0
  4  5  1  0
  5  6  2  0
  5  7  1  0
  7  8  1  0
  8  9  1  0
  9 10  1  1
  9 11  1  0
 11 12  1  0
 12 13  2  0
 12 14  1  0
 14 15  1  0
 15 16  2  0
 16 17  1  0
 17 18  2  0
 18 19  1  0
 18 20  1  0
 15 21  1  0
 20 21  2  0
M  END
