FAR-UNI-736b943a-5
     RDKit          3D

 34 39  0  0  0  0  0  0  0  0999 V2000
   12.9930    6.5260   22.4810 O   0  0  0  0  0  0  0  0  0  0  0  0
   12.0660    5.9640   23.0690 C   0  0  0  0  0  0  0  0  0  0  0  0
   11.6270    4.7390   22.6840 C   0  0  1  0  0  0  0  0  0  0  0  0
   12.3900    3.5130   22.6860 C   0  0  0  0  0  0  0  0  0  0  0  0
   11.3420    2.7070   22.9030 C   0  0  0  0  0  0  0  0  0  0  0  0
   10.5390    1.7910   23.0800 C   0  0  0  0  0  0  0  0  0  0  0  0
    9.4380    1.1620   23.2980 N   0  0  0  0  0  0  0  0  0  0  0  0
   10.5840    0.4020   23.1350 C   0  0  0  0  0  0  0  0  0  0  0  0
   10.6110   -1.0650   23.1910 C   0  0  0  0  0  0  0  0  0  0  0  0
   11.9180   -1.7810   23.0020 C   0  0  0  0  0  0  0  0  0  0  0  0
   13.1370   -0.8970   22.7700 C   0  0  0  0  0  0  0  0  0  0  0  0
   13.0940    0.5120   22.7250 C   0  0  0  0  0  0  0  0  0  0  0  0
   11.7720    1.2780   22.9010 C   0  0  0  0  0  0  0  0  0  0  0  0
    9.6490    3.0110   23.2010 C   0  0  2  0  0  0  0  0  0  0  0  0
    8.3760    2.8450   22.3190 C   0  0  0  0  0  0  0  0  0  0  0  0
    7.3100    3.7490   22.4290 C   0  0  0  0  0  0  0  0  0  0  0  0
    6.0540    3.5290   21.5650 C   0  0  0  0  0  0  0  0  0  0  0  0
    6.0030    2.4410   20.6940 C   0  0  0  0  0  0  0  0  0  0  0  0
    4.6100    2.1610   19.7210 Cl  0  0  0  0  0  0  0  0  0  0  0  0
    7.0910    1.5770   20.6130 C   0  0  0  0  0  0  0  0  0  0  0  0
    8.2360    1.7740   21.4000 C   0  0  0  0  0  0  0  0  0  0  0  0
   10.2740    4.2890   23.3130 N   0  0  0  0  0  0  0  0  0  0  0  0
   10.0100    4.7580   24.5920 C   0  0  0  0  0  0  0  0  0  0  0  0
    9.0060    4.5080   25.2450 O   0  0  0  0  0  0  0  0  0  0  0  0
   11.0790    5.6400   25.1600 C   0  0  0  0  0  0  0  0  0  0  0  0
   11.3980    6.5490   24.1440 N   0  0  0  0  0  0  0  0  0  0  0  0
   10.2170    7.3710   23.9480 C   0  0  0  0  0  0  0  0  0  0  0  0
   10.1880    8.4700   25.0400 C   0  0  0  0  0  0  0  0  0  0  0  0
   11.5870    8.9960   25.3940 C   0  0  0  0  0  0  0  0  0  0  0  0
   11.9140    9.0950   26.8030 N   0  0  0  0  0  0  0  0  0  0  0  0
   11.9850   10.2460   27.5300 C   0  0  0  0  0  0  0  0  0  0  0  0
   12.3370    9.8260   28.8190 C   0  0  0  0  0  0  0  0  0  0  0  0
   12.4710    8.4640   28.8600 N   0  0  0  0  0  0  0  0  0  0  0  0
   12.2130    8.0490   27.6350 C   0  0  0  0  0  0  0  0  0  0  0  0
  1  2  2  0
  2  3  1  0
  3  4  1  1
  4  5  1  0
  5  6  2  0
  6  7  1  0
  7  8  1  0
  8  9  1  0
  9 10  2  0
 10 11  1  0
 11 12  2  0
  5 13  1  0
  8 13  2  0
 12 13  1  0
  6 14  1  0
 14 15  1  6
 15 16  2  0
 16 17  1  0
 17 18  2  0
 18 19  1  0
 18 20  1  0
 15 21  1  0
 20 21  2  0
  3 22  1  0
 14 22  1  0
 22 23  1  0
 23 24  2  0
 23 25  1  0
  2 26  1  0
 25 26  1  0
 26 27  1  0
 27 28  1  0
 28 29  1  0
 29 30  1  0
 30 31  1  0
 31 32  2  0
 32 33  1  0
 30 34  1  0
 33 34  2  0
M  END
