FAR-UNI-736b943a-8
     RDKit          3D

 34 39  0  0  0  0  0  0  0  0999 V2000
    5.6160   -2.1760   19.0650 C   0  0  0  0  0  0  0  0  0  0  0  0
    6.6110   -1.9650   20.0560 O   0  0  0  0  0  0  0  0  0  0  0  0
    6.7250   -2.9070   21.0450 C   0  0  0  0  0  0  0  0  0  0  0  0
    6.0370   -4.2210   21.0440 C   0  0  0  0  0  0  0  0  0  0  0  0
    6.3180   -4.9700   22.1280 N   0  0  0  0  0  0  0  0  0  0  0  0
    6.6170   -4.1970   23.1850 C   0  0  0  0  0  0  0  0  0  0  0  0
    7.6810   -3.6440   23.4190 O   0  0  0  0  0  0  0  0  0  0  0  0
    5.4920   -4.1490   23.9570 C   0  0  2  0  0  0  0  0  0  0  0  0
    5.4090   -3.7230   25.3720 C   0  0  2  0  0  0  0  0  0  0  0  0
    6.5350   -3.9770   26.2800 C   0  0  0  0  0  0  0  0  0  0  0  0
    6.7730   -2.8110   27.2350 C   0  0  0  0  0  0  0  0  0  0  0  0
    7.8110   -2.9570   28.3190 C   0  0  0  0  0  0  0  0  0  0  0  0
    7.7560   -1.7050   28.9910 N   0  0  0  0  0  0  0  0  0  0  0  0
    6.8210   -0.8670   28.4300 C   0  0  0  0  0  0  0  0  0  0  0  0
    6.5000    0.5490   28.8980 C   0  0  0  0  0  0  0  0  0  0  0  0
    5.5320    1.2520   28.2150 C   0  0  0  0  0  0  0  0  0  0  0  0
    4.7850    0.6280   27.0070 C   0  0  0  0  0  0  0  0  0  0  0  0
    5.0970   -0.6900   26.5870 C   0  0  0  0  0  0  0  0  0  0  0  0
    6.1860   -1.5120   27.3350 C   0  0  0  0  0  0  0  0  0  0  0  0
    4.1770   -4.5160   25.7320 N   0  0  0  0  0  0  0  0  0  0  0  0
    4.2380   -5.8520   25.0460 C   0  0  1  0  0  0  0  0  0  0  0  0
    4.4970   -6.7510   26.1080 C   0  0  0  0  0  0  0  0  0  0  0  0
    5.4020   -6.6560   26.9160 O   0  0  0  0  0  0  0  0  0  0  0  0
    3.5540   -7.7780   26.1250 N   0  0  0  0  0  0  0  0  0  0  0  0
    2.5780   -7.5290   25.2180 C   0  0  0  0  0  0  0  0  0  0  0  0
    1.3930   -8.2600   24.9600 C   0  0  0  0  0  0  0  0  0  0  0  0
    0.4680   -7.7380   23.8780 C   0  0  0  0  0  0  0  0  0  0  0  0
    0.7040   -6.5930   23.1210 C   0  0  0  0  0  0  0  0  0  0  0  0
   -0.4370   -6.1080   21.9290 Cl  0  0  0  0  0  0  0  0  0  0  0  0
    2.0010   -5.7990   23.3960 C   0  0  0  0  0  0  0  0  0  0  0  0
    2.9040   -6.3620   24.5020 C   0  0  0  0  0  0  0  0  0  0  0  0
    5.3800   -5.6520   24.0430 C   0  0  1  0  0  0  0  0  0  0  0  0
    5.3370   -5.8290   22.6410 C   0  0  0  0  0  0  0  0  0  0  0  0
    4.5750   -6.5470   22.0550 O   0  0  0  0  0  0  0  0  0  0  0  0
  1  2  1  0
  2  3  1  0
  3  4  1  0
  4  5  1  0
  5  6  1  0
  6  7  2  0
  8  6  1  1
  8  9  1  0
  9 10  1  1
 10 11  1  0
 11 12  2  0
 12 13  1  0
 13 14  1  0
 14 15  1  0
 15 16  2  0
 16 17  1  0
 17 18  2  0
 11 19  1  0
 14 19  2  0
 18 19  1  0
  9 20  1  0
 21 20  1  1
 21 22  1  0
 22 23  2  0
 22 24  1  0
 24 25  1  0
 25 26  1  0
 26 27  2  0
 27 28  1  0
 28 29  1  0
 28 30  2  0
 21 31  1  0
 25 31  2  0
 30 31  1  0
  8 32  1  0
 21 32  1  0
  5 33  1  0
 32 33  1  6
 33 34  2  0
M  END
