FRA-BIO-8bf1eac9-11
     RDKit          3D

 24 26  0  0  0  0  0  0  0  0999 V2000
    8.8050    4.3630   25.3520 C   0  0  0  0  0  0  0  0  0  0  0  0
    7.5250    4.1090   24.5910 C   0  0  0  0  0  0  0  0  0  0  0  0
    7.6560    3.3290   23.3650 C   0  0  2  0  0  0  0  0  0  0  0  0
    6.4940    3.1160   22.6040 C   0  0  0  0  0  0  0  0  0  0  0  0
    6.3700    1.7510   22.5810 N   0  0  0  0  0  0  0  0  0  0  0  0
    7.4200    1.1800   23.2530 C   0  0  0  0  0  0  0  0  0  0  0  0
    7.6890   -0.1410   23.5110 N   0  0  0  0  0  0  0  0  0  0  0  0
    8.7420   -0.6700   22.8130 C   0  0  0  0  0  0  0  0  0  0  0  0
    9.9730    0.0570   22.9540 C   0  0  0  0  0  0  0  0  0  0  0  0
   10.0250    1.5490   22.4660 C   0  0  0  0  0  0  0  0  0  0  0  0
   11.3650    2.2890   22.5920 C   0  0  0  0  0  0  0  0  0  0  0  0
   12.2560    1.3540   23.1410 C   0  0  0  0  0  0  0  0  0  0  0  0
   12.3610    0.0770   23.6080 C   0  0  0  0  0  0  0  0  0  0  0  0
   11.1380   -0.6020   23.5200 C   0  0  0  0  0  0  0  0  0  0  0  0
   11.1000   -2.0020   24.0100 C   0  0  0  0  0  0  0  0  0  0  0  0
   11.7140   -2.5030   22.8460 N   0  0  0  0  0  0  0  0  0  0  0  0
   10.9580   -2.5210   21.5770 C   0  0  0  0  0  0  0  0  0  0  0  0
   11.8600   -3.2550   20.5950 C   0  0  0  0  0  0  0  0  0  0  0  0
   13.0890   -3.4470   20.9570 N   0  0  0  0  0  0  0  0  0  0  0  0
   13.8810   -4.0720   20.0460 C   0  0  0  0  0  0  0  0  0  0  0  0
   14.7670   -5.2860   20.3260 C   0  0  0  0  0  0  0  0  0  0  0  0
   13.1000   -2.1200   21.1040 C   0  0  0  0  0  0  0  0  0  0  0  0
   12.9250   -1.7560   22.5290 C   0  0  0  0  0  0  0  0  0  0  0  0
    8.2560    2.1440   23.7210 N   0  0  0  0  0  0  0  0  0  0  0  0
  1  2  1  0
  3  2  1  1
  3  4  1  0
  4  5  1  0
  5  6  2  0
  6  7  1  0
  7  8  1  0
  8  9  1  0
  9 10  2  0
 10 11  1  0
 11 12  2  0
 12 13  1  0
  9 14  1  0
 13 14  2  0
 14 15  1  0
 15 16  1  0
 16 17  1  0
 17 18  1  0
 18 19  1  0
 19 20  1  0
 20 21  1  0
 19 22  1  0
 16 23  1  0
 22 23  1  0
  3 24  1  0
  6 24  1  0
M  END
