FRA-BIO-8bf1eac9-8
     RDKit          3D

 35 38  0  0  0  0  0  0  0  0999 V2000
    9.2670    0.1860   26.0620 C   0  0  0  0  0  0  0  0  0  0  0  0
    8.9810    0.5240   24.6190 C   0  0  1  0  0  0  0  0  0  0  0  0
    8.8250   -0.6620   23.7800 C   0  0  0  0  0  0  0  0  0  0  0  0
    7.6590   -1.3160   23.6950 N   0  0  0  0  0  0  0  0  0  0  0  0
    7.5620   -2.6120   24.0830 C   0  0  0  0  0  0  0  0  0  0  0  0
    7.0040   -3.5340   23.1770 C   0  0  0  0  0  0  0  0  0  0  0  0
    7.3250   -4.8790   23.3340 C   0  0  0  0  0  0  0  0  0  0  0  0
    6.7910   -5.8630   22.4520 C   0  0  0  0  0  0  0  0  0  0  0  0
    5.8500   -5.4580   21.3080 C   0  0  0  0  0  0  0  0  0  0  0  0
    5.5570   -3.9560   21.2130 C   0  0  0  0  0  0  0  0  0  0  0  0
    6.1740   -3.0290   22.1950 C   0  0  0  0  0  0  0  0  0  0  0  0
    6.5450   -0.5510   23.9860 C   0  0  0  0  0  0  0  0  0  0  0  0
    6.7450    0.8320   23.7740 C   0  0  0  0  0  0  0  0  0  0  0  0
    7.9880    1.4510   24.3970 C   0  0  2  0  0  0  0  0  0  0  0  0
    8.5070    2.5340   23.6670 N   0  0  0  0  0  0  0  0  0  0  0  0
    9.4930    3.4240   24.0630 C   0  0  0  0  0  0  0  0  0  0  0  0
    9.6010    4.0250   25.1200 O   0  0  0  0  0  0  0  0  0  0  0  0
   10.5050    3.5920   22.9390 C   0  0  0  0  0  0  0  0  0  0  0  0
   10.4440    2.9090   21.9340 O   0  0  0  0  0  0  0  0  0  0  0  0
   11.5110    4.6310   23.1540 N   0  0  0  0  0  0  0  0  0  0  0  0
   12.4150    4.9010   22.0130 C   0  0  0  0  0  0  0  0  0  0  0  0
   13.2930    3.9060   21.2430 C   0  0  0  0  0  0  0  0  0  0  0  0
   13.8340    2.9910   22.0790 C   0  0  0  0  0  0  0  0  0  0  0  0
   14.7410    1.9140   21.5610 C   0  0  0  0  0  0  0  0  0  0  0  0
   15.1070    1.8350   20.0820 C   0  0  0  0  0  0  0  0  0  0  0  0
   14.4980    2.8530   19.2430 C   0  0  0  0  0  0  0  0  0  0  0  0
   13.5690    3.8520   19.8750 C   0  0  0  0  0  0  0  0  0  0  0  0
   13.0450    4.6330   19.0210 C   0  0  0  0  0  0  0  0  0  0  0  0
   13.8080    4.7780   17.8580 N   0  0  0  0  0  0  0  0  0  0  0  0
   15.1990    4.9740   17.9930 C   0  0  0  0  0  0  0  0  0  0  0  0
   15.1900    6.2220   17.5130 C   0  0  0  0  0  0  0  0  0  0  0  0
   14.9940    6.4670   16.1770 C   0  0  0  0  0  0  0  0  0  0  0  0
   13.8390    6.2400   15.7150 C   0  0  0  0  0  0  0  0  0  0  0  0
   13.1820    5.2210   16.6000 C   0  0  2  0  0  0  0  0  0  0  0  0
   11.9600    5.2160   16.1350 C   0  0  0  0  0  0  0  0  0  0  0  0
  2  1  1  1
  2  3  1  0
  3  4  1  0
  4  5  1  0
  5  6  1  0
  6  7  2  0
  7  8  1  0
  8  9  2  0
  9 10  1  0
  6 11  1  0
 10 11  2  0
  4 12  1  0
 12 13  1  0
  2 14  1  0
 13 14  1  0
 14 15  1  6
 15 16  1  0
 16 17  2  0
 16 18  1  0
 18 19  2  0
 18 20  1  0
 20 21  1  0
 21 22  1  0
 22 23  2  0
 23 24  1  0
 24 25  2  0
 25 26  1  0
 22 27  1  0
 26 27  2  0
 27 28  1  0
 28 29  1  0
 29 30  1  0
 30 31  1  0
 31 32  1  0
 32 33  1  0
 29 34  1  0
 33 34  1  0
 34 35  1  1
M  END
