FRA-BIO-8bf1eac9-7
     RDKit          3D

 23 24  0  0  0  0  0  0  0  0999 V2000
    8.2880    0.0410   23.4720 C   0  0  0  0  0  0  0  0  0  0  0  0
    9.6460   -0.5050   23.0590 C   0  0  0  0  0  0  0  0  0  0  0  0
   10.5830   -0.5940   23.8900 C   0  0  0  0  0  0  0  0  0  0  0  0
   11.9480   -1.0990   23.5880 C   0  0  0  0  0  0  0  0  0  0  0  0
   12.7710   -1.1120   24.6920 C   0  0  0  0  0  0  0  0  0  0  0  0
   13.7500   -2.2710   24.6640 C   0  0  0  0  0  0  0  0  0  0  0  0
   11.4400   -1.5940   25.0490 C   0  0  0  0  0  0  0  0  0  0  0  0
   13.0420    0.1160   23.7750 C   0  0  0  0  0  0  0  0  0  0  0  0
   12.3380   -1.4970   22.4520 C   0  0  0  0  0  0  0  0  0  0  0  0
   11.2580   -1.4420   21.4640 C   0  0  0  0  0  0  0  0  0  0  0  0
    9.9570   -0.9520   21.7970 C   0  0  0  0  0  0  0  0  0  0  0  0
    8.9620   -0.8630   21.1010 O   0  0  0  0  0  0  0  0  0  0  0  0
    7.8750   -1.6410   21.6640 C   0  0  0  0  0  0  0  0  0  0  0  0
    7.9970   -2.7760   22.5300 C   0  0  2  0  0  0  0  0  0  0  0  0
    6.9860   -3.1880   23.0930 O   0  0  0  0  0  0  0  0  0  0  0  0
    8.9980   -2.8010   23.5390 C   0  0  0  0  0  0  0  0  0  0  0  0
   10.3860   -2.7500   23.0560 N   0  0  0  0  0  0  0  0  0  0  0  0
   10.6190   -2.5690   21.6580 C   0  0  0  0  0  0  0  0  0  0  0  0
   11.7580   -2.3870   21.0510 N   0  0  0  0  0  0  0  0  0  0  0  0
   12.8210   -2.3430   21.8600 C   0  0  0  0  0  0  0  0  0  0  0  0
   12.7640   -2.6820   23.1910 C   0  0  0  0  0  0  0  0  0  0  0  0
   11.6000   -3.0980   23.8250 C   0  0  0  0  0  0  0  0  0  0  0  0
   11.7080   -3.7590   24.9780 O   0  0  0  0  0  0  0  0  0  0  0  0
  1  2  1  0
  2  3  2  0
  3  4  1  0
  4  5  1  0
  5  6  1  0
  5  7  1  0
  5  8  1  0
  4  9  2  0
  9 10  1  0
  2 11  1  0
 10 11  2  0
 11 12  1  0
 12 13  1  0
 13 14  1  0
 14 15  1  1
 14 16  1  0
 16 17  1  0
 17 18  1  0
 18 19  2  0
 19 20  1  0
 20 21  2  0
 17 22  1  0
 21 22  1  0
 22 23  2  0
M  END
