FRA-FAC-9ed5a63a-1
     RDKit          3D

 16 17  0  0  0  0  0  0  0  0999 V2000
   13.8830   -0.8460   20.2310 O   0  0  0  0  0  0  0  0  0  0  0  0
   13.3350   -1.4530   21.1220 C   0  0  0  0  0  0  0  0  0  0  0  0
   12.6610   -2.7670   20.8730 C   0  0  0  0  0  0  0  0  0  0  0  0
   13.7170   -3.6320   20.2990 C   0  0  0  0  0  0  0  0  0  0  0  0
   14.2740   -4.1140   21.2500 C   0  0  0  0  0  0  0  0  0  0  0  0
   15.4630   -4.7330   21.0070 C   0  0  0  0  0  0  0  0  0  0  0  0
   15.4490   -5.7640   20.6150 C   0  0  0  0  0  0  0  0  0  0  0  0
   14.4100   -5.7740   20.0050 C   0  0  0  0  0  0  0  0  0  0  0  0
   13.4070   -4.7260   19.7770 C   0  0  0  0  0  0  0  0  0  0  0  0
   13.2030   -1.0900   22.4160 N   0  0  0  0  0  0  0  0  0  0  0  0
   12.1280   -0.3080   22.6260 C   0  0  0  0  0  0  0  0  0  0  0  0
   12.2000    1.0560   22.6820 C   0  0  0  0  0  0  0  0  0  0  0  0
   11.0320    1.7680   22.8500 C   0  0  0  0  0  0  0  0  0  0  0  0
    9.8300    1.0480   22.9760 C   0  0  0  0  0  0  0  0  0  0  0  0
    9.7400   -0.2940   22.9350 N   0  0  0  0  0  0  0  0  0  0  0  0
   10.9020   -0.9390   22.7560 C   0  0  0  0  0  0  0  0  0  0  0  0
  1  2  2  0
  2  3  1  0
  3  4  1  0
  4  5  1  0
  5  6  1  0
  6  7  1  0
  7  8  1  0
  4  9  1  0
  8  9  1  0
  2 10  1  0
 10 11  1  0
 11 12  2  0
 12 13  1  0
 13 14  2  0
 14 15  1  0
 11 16  1  0
 15 16  2  0
M  END
