GAB-FAC-880f6604-1
     RDKit          3D

 25 27  0  0  0  0  0  0  0  0999 V2000
    9.6840   -3.8980   24.0230 O   0  0  0  0  0  0  0  0  0  0  0  0
    8.8570   -3.0420   24.0880 C   0  0  0  0  0  0  0  0  0  0  0  0
    7.8290   -3.1730   24.9950 N   0  0  0  0  0  0  0  0  0  0  0  0
    7.8320   -4.0720   26.1120 C   0  0  0  0  0  0  0  0  0  0  0  0
    6.6750   -4.6450   26.4840 C   0  0  0  0  0  0  0  0  0  0  0  0
    5.5880   -3.6610   26.4170 N   0  0  0  0  0  0  0  0  0  0  0  0
    5.3850   -2.6400   27.4460 C   0  0  0  0  0  0  0  0  0  0  0  0
    6.3830   -2.4820   28.4190 C   0  0  0  0  0  0  0  0  0  0  0  0
    6.3730   -1.5220   29.5250 C   0  0  0  0  0  0  0  0  0  0  0  0
    5.3150   -0.7440   29.5920 N   0  0  0  0  0  0  0  0  0  0  0  0
    4.2750   -0.8800   28.6120 C   0  0  0  0  0  0  0  0  0  0  0  0
    3.1150    0.0090   28.7250 C   0  0  0  0  0  0  0  0  0  0  0  0
    2.0060   -0.0610   27.7670 C   0  0  0  0  0  0  0  0  0  0  0  0
    0.6500    1.0630   27.9990 Cl  0  0  0  0  0  0  0  0  0  0  0  0
    2.1100   -1.0100   26.7500 C   0  0  0  0  0  0  0  0  0  0  0  0
    3.1870   -1.8610   26.6150 C   0  0  0  0  0  0  0  0  0  0  0  0
    4.2580   -1.8140   27.5160 C   0  0  0  0  0  0  0  0  0  0  0  0
    8.9270   -1.9080   23.3060 N   0  0  0  0  0  0  0  0  0  0  0  0
   10.1650   -1.3300   23.0370 C   0  0  0  0  0  0  0  0  0  0  0  0
   10.4600    0.0110   23.3630 C   0  0  0  0  0  0  0  0  0  0  0  0
   11.7390    0.5310   23.1120 C   0  0  0  0  0  0  0  0  0  0  0  0
   12.7210   -0.2260   22.5590 C   0  0  0  0  0  0  0  0  0  0  0  0
   13.8910    0.3110   22.3730 F   0  0  0  0  0  0  0  0  0  0  0  0
   12.4680   -1.5280   22.2030 C   0  0  0  0  0  0  0  0  0  0  0  0
   11.1930   -2.0800   22.4370 C   0  0  0  0  0  0  0  0  0  0  0  0
  1  2  2  0
  2  3  1  0
  3  4  1  0
  4  5  1  0
  5  6  1  0
  6  7  1  0
  7  8  2  0
  8  9  1  0
  9 10  2  0
 10 11  1  0
 11 12  1  0
 12 13  2  0
 13 14  1  0
 13 15  1  0
 15 16  2  0
  7 17  1  0
 11 17  2  0
 16 17  1  0
  2 18  1  0
 18 19  1  0
 19 20  2  0
 20 21  1  0
 21 22  2  0
 22 23  1  0
 22 24  1  0
 19 25  1  0
 24 25  2  0
M  END
