GAB-REV-4a4e2ff3-7
     RDKit          3D

 27 30  0  0  0  0  0  0  0  0999 V2000
    9.0460    6.5500   22.5820 C   0  0  0  0  0  0  0  0  0  0  0  0
   10.3170    6.2240   23.3240 C   0  0  0  0  0  0  0  0  0  0  0  0
   10.3730    6.2440   24.5570 O   0  0  0  0  0  0  0  0  0  0  0  0
   11.3670    5.9170   22.5080 N   0  0  0  0  0  0  0  0  0  0  0  0
   12.3780    5.1450   22.9730 C   0  0  0  0  0  0  0  0  0  0  0  0
   12.5990    3.7400   22.4860 C   0  0  0  0  0  0  0  0  0  0  0  0
   11.8540    2.7310   23.0860 C   0  0  0  0  0  0  0  0  0  0  0  0
   10.6470    3.0050   23.9240 C   0  0  0  0  0  0  0  0  0  0  0  0
   10.0890    1.8250   24.4070 N   0  0  0  0  0  0  0  0  0  0  0  0
   10.8820    0.8070   23.9160 C   0  0  0  0  0  0  0  0  0  0  0  0
   10.6290   -0.6030   24.2040 C   0  0  0  0  0  0  0  0  0  0  0  0
    9.5000   -0.7150   25.0790 O   0  0  0  0  0  0  0  0  0  0  0  0
    8.3030   -1.2990   24.7820 C   0  0  0  0  0  0  0  0  0  0  0  0
    7.3290   -1.5270   25.7500 C   0  0  0  0  0  0  0  0  0  0  0  0
    6.1080   -2.1210   25.5380 C   0  0  0  0  0  0  0  0  0  0  0  0
    5.8340   -2.5400   24.1400 C   0  0  0  0  0  0  0  0  0  0  0  0
    4.6660   -3.1160   23.9350 N   0  0  0  0  0  0  0  0  0  0  0  0
    4.3930   -3.5030   22.6830 C   0  0  0  0  0  0  0  0  0  0  0  0
    5.2590   -3.3250   21.6040 C   0  0  0  0  0  0  0  0  0  0  0  0
    6.5890   -2.6640   21.8450 C   0  0  0  0  0  0  0  0  0  0  0  0
    6.8260   -2.2930   23.1560 C   0  0  0  0  0  0  0  0  0  0  0  0
    8.0460   -1.6820   23.4750 C   0  0  0  0  0  0  0  0  0  0  0  0
   11.4560   -1.5840   23.6540 C   0  0  0  0  0  0  0  0  0  0  0  0
   12.5400   -1.1740   22.8430 C   0  0  0  0  0  0  0  0  0  0  0  0
   13.3420   -2.0950   22.3080 F   0  0  0  0  0  0  0  0  0  0  0  0
   12.8340    0.1800   22.5620 C   0  0  0  0  0  0  0  0  0  0  0  0
   11.9410    1.2710   23.1250 C   0  0  0  0  0  0  0  0  0  0  0  0
  1  2  1  0
  2  3  2  0
  2  4  1  0
  4  5  1  0
  5  6  1  0
  6  7  1  0
  7  8  2  0
  8  9  1  0
  9 10  1  0
 10 11  1  0
 11 12  1  0
 12 13  1  0
 13 14  2  0
 14 15  1  0
 15 16  2  0
 16 17  1  0
 17 18  2  0
 18 19  1  0
 19 20  2  0
 16 21  1  0
 20 21  1  0
 13 22  1  0
 21 22  2  0
 11 23  2  0
 23 24  1  0
 24 25  1  0
 24 26  2  0
  7 27  1  0
 10 27  2  0
 26 27  1  0
M  END
