GAB-REV-4a4e2ff3-1
     RDKit          3D

 28 31  0  0  0  0  0  0  0  0999 V2000
    8.9660    6.6210   22.5140 C   0  0  0  0  0  0  0  0  0  0  0  0
   10.2410    6.1830   23.2900 C   0  0  0  0  0  0  0  0  0  0  0  0
   10.0670    6.3070   24.7200 O   0  0  0  0  0  0  0  0  0  0  0  0
   11.3320    5.7520   22.5810 N   0  0  0  0  0  0  0  0  0  0  0  0
   12.3850    4.9750   23.2270 C   0  0  0  0  0  0  0  0  0  0  0  0
   12.6050    3.7250   22.6380 C   0  0  0  0  0  0  0  0  0  0  0  0
   11.8530    2.6520   23.1160 C   0  0  0  0  0  0  0  0  0  0  0  0
   10.5550    2.9540   23.8760 C   0  0  0  0  0  0  0  0  0  0  0  0
   10.0560    1.7250   24.1870 N   0  0  0  0  0  0  0  0  0  0  0  0
   10.9120    0.6900   23.6970 C   0  0  0  0  0  0  0  0  0  0  0  0
   10.5550   -0.6210   23.9080 C   0  0  0  0  0  0  0  0  0  0  0  0
    9.4050   -0.9950   24.5860 C   0  0  0  0  0  0  0  0  0  0  0  0
    8.2160   -0.4480   24.1510 C   0  0  0  0  0  0  0  0  0  0  0  0
    7.2690   -0.1340   25.1360 C   0  0  0  0  0  0  0  0  0  0  0  0
    6.0200    0.4200   24.8230 C   0  0  0  0  0  0  0  0  0  0  0  0
    5.6770    0.6910   23.3760 C   0  0  0  0  0  0  0  0  0  0  0  0
    6.7450    0.3340   22.3390 C   0  0  0  0  0  0  0  0  0  0  0  0
    6.4750    0.5690   20.9780 C   0  0  0  0  0  0  0  0  0  0  0  0
    7.0170   -0.3040   19.8170 C   0  0  0  0  0  0  0  0  0  0  0  0
    6.3170    0.5430   18.7080 C   0  0  0  0  0  0  0  0  0  0  0  0
    5.6020    1.5810   19.1440 N   0  0  0  0  0  0  0  0  0  0  0  0
    5.7100    1.5760   20.4720 N   0  0  0  0  0  0  0  0  0  0  0  0
    7.9600   -0.2180   22.7840 C   0  0  0  0  0  0  0  0  0  0  0  0
   11.4670   -1.5520   23.3760 C   0  0  0  0  0  0  0  0  0  0  0  0
   12.6190   -1.1090   22.7150 C   0  0  0  0  0  0  0  0  0  0  0  0
   13.4670   -2.0010   22.2150 F   0  0  0  0  0  0  0  0  0  0  0  0
   12.8990    0.2530   22.5640 C   0  0  0  0  0  0  0  0  0  0  0  0
   12.0090    1.2070   23.0580 C   0  0  0  0  0  0  0  0  0  0  0  0
  1  2  1  0
  2  3  2  0
  2  4  1  0
  4  5  1  0
  5  6  1  0
  6  7  1  0
  7  8  2  0
  8  9  1  0
  9 10  1  0
 10 11  1  0
 11 12  1  0
 12 13  1  0
 13 14  2  0
 14 15  1  0
 15 16  2  0
 16 17  1  0
 17 18  1  0
 18 19  2  0
 19 20  1  0
 20 21  2  0
 18 22  1  0
 21 22  1  0
 13 23  1  0
 17 23  2  0
 11 24  2  0
 24 25  1  0
 25 26  1  0
 25 27  2  0
  7 28  1  0
 10 28  2  0
 27 28  1  0
M  END
