GAB-REV-4a4e2ff3-15
     RDKit          3D

 27 30  0  0  0  0  0  0  0  0999 V2000
    9.0970    6.6190   22.5360 C   0  0  0  0  0  0  0  0  0  0  0  0
   10.1600    6.2290   23.3660 C   0  0  0  0  0  0  0  0  0  0  0  0
   10.1160    6.3110   24.5890 O   0  0  0  0  0  0  0  0  0  0  0  0
   11.2480    5.7510   22.6890 N   0  0  0  0  0  0  0  0  0  0  0  0
   12.3410    5.0460   23.3730 C   0  0  0  0  0  0  0  0  0  0  0  0
   12.6030    3.7580   22.8750 C   0  0  0  0  0  0  0  0  0  0  0  0
   11.7560    2.7340   23.1050 C   0  0  0  0  0  0  0  0  0  0  0  0
   10.4130    2.8770   23.6160 C   0  0  0  0  0  0  0  0  0  0  0  0
    9.7790    1.6350   23.6930 N   0  0  0  0  0  0  0  0  0  0  0  0
   10.6480    0.6740   23.2520 C   0  0  0  0  0  0  0  0  0  0  0  0
   10.3090   -0.6630   23.1650 C   0  0  0  0  0  0  0  0  0  0  0  0
    9.0430   -1.1490   23.5100 C   0  0  0  0  0  0  0  0  0  0  0  0
    8.9560   -2.3270   24.0760 N   0  0  0  0  0  0  0  0  0  0  0  0
    8.5040   -2.1190   25.3530 C   0  0  0  0  0  0  0  0  0  0  0  0
    7.4230   -2.7870   25.9160 C   0  0  0  0  0  0  0  0  0  0  0  0
    7.3170   -2.2820   27.1680 C   0  0  0  0  0  0  0  0  0  0  0  0
    6.4120   -2.5860   28.1610 C   0  0  0  0  0  0  0  0  0  0  0  0
    6.4680   -1.9430   29.4020 C   0  0  0  0  0  0  0  0  0  0  0  0
    7.4810   -0.9740   29.6220 C   0  0  0  0  0  0  0  0  0  0  0  0
    8.4030   -0.6690   28.6080 C   0  0  0  0  0  0  0  0  0  0  0  0
    8.2820   -1.3370   27.4110 C   0  0  0  0  0  0  0  0  0  0  0  0
    9.0060   -1.2550   26.2620 N   0  0  0  0  0  0  0  0  0  0  0  0
   11.3210   -1.4830   22.6900 C   0  0  0  0  0  0  0  0  0  0  0  0
   12.5780   -0.9780   22.3620 C   0  0  0  0  0  0  0  0  0  0  0  0
   13.5100   -1.8150   21.9230 F   0  0  0  0  0  0  0  0  0  0  0  0
   12.8680    0.3880   22.4800 C   0  0  0  0  0  0  0  0  0  0  0  0
   11.8810    1.2760   22.9110 C   0  0  0  0  0  0  0  0  0  0  0  0
  1  2  1  0
  2  3  2  0
  2  4  1  0
  4  5  1  0
  5  6  1  0
  6  7  1  0
  7  8  2  0
  8  9  1  0
  9 10  1  0
 10 11  1  0
 11 12  1  0
 12 13  1  0
 13 14  1  0
 14 15  2  0
 15 16  1  0
 16 17  2  0
 17 18  1  0
 18 19  2  0
 19 20  1  0
 16 21  1  0
 20 21  2  0
 14 22  1  0
 21 22  1  0
 11 23  2  0
 23 24  1  0
 24 25  1  0
 24 26  2  0
  7 27  1  0
 10 27  2  0
 26 27  1  0
M  END
