GAB-REV-70cc3ca5-3
     RDKit          3D

 23 24  0  0  0  0  0  0  0  0999 V2000
    5.4570    0.7910   21.9780 C   0  0  0  0  0  0  0  0  0  0  0  0
    5.7330    0.6460   20.6670 C   0  0  0  0  0  0  0  0  0  0  0  0
    4.8320    1.1730   19.6330 C   0  0  0  0  0  0  0  0  0  0  0  0
    5.1990    0.9780   18.1600 C   0  0  0  0  0  0  0  0  0  0  0  0
    6.3100    0.3300   17.8180 N   0  0  0  0  0  0  0  0  0  0  0  0
    7.1020   -0.1400   18.8120 C   0  0  0  0  0  0  0  0  0  0  0  0
    6.8820   -0.0160   20.1890 C   0  0  0  0  0  0  0  0  0  0  0  0
    7.8620   -0.5760   21.0400 N   0  0  0  0  0  0  0  0  0  0  0  0
    8.9550    0.1200   21.5340 C   0  0  0  0  0  0  0  0  0  0  0  0
    9.1580    1.3250   21.2690 O   0  0  0  0  0  0  0  0  0  0  0  0
    9.8540   -0.8020   22.3750 C   0  0  0  0  0  0  0  0  0  0  0  0
    9.7760   -0.4240   23.8500 C   0  0  0  0  0  0  0  0  0  0  0  0
    8.5110   -0.3690   24.3910 N   0  0  0  0  0  0  0  0  0  0  0  0
    8.2860    0.1830   25.6910 C   0  0  0  0  0  0  0  0  0  0  0  0
    7.1120    0.8750   26.0270 C   0  0  0  0  0  0  0  0  0  0  0  0
    6.9000    1.4200   27.3060 C   0  0  0  0  0  0  0  0  0  0  0  0
    7.8690    1.2870   28.3100 C   0  0  0  0  0  0  0  0  0  0  0  0
    7.6010    1.9800   29.9130 S   0  0  0  0  0  0  0  0  0  0  0  0
    7.3200    0.6120   30.8430 N   0  0  0  0  0  0  0  0  0  0  0  0
    8.8380    2.5410   30.4010 O   0  0  0  0  0  0  0  0  0  0  0  0
    6.3600    2.7170   29.9170 O   0  0  0  0  0  0  0  0  0  0  0  0
    9.0470    0.6030   28.0280 C   0  0  0  0  0  0  0  0  0  0  0  0
    9.2720    0.0340   26.6700 C   0  0  0  0  0  0  0  0  0  0  0  0
  1  2  1  0
  2  3  2  0
  3  4  1  0
  4  5  2  0
  5  6  1  0
  2  7  1  0
  6  7  2  0
  7  8  1  0
  8  9  1  0
  9 10  2  0
  9 11  1  0
 11 12  1  0
 12 13  1  0
 13 14  1  0
 14 15  2  0
 15 16  1  0
 16 17  2  0
 17 18  1  0
 18 19  1  0
 18 20  2  0
 18 21  2  0
 17 22  1  0
 14 23  1  0
 22 23  2  0
M  END
