GAB-REV-70cc3ca5-11
     RDKit          3D

 20 22  0  0  0  0  0  0  0  0999 V2000
    5.2580    0.8090   22.0210 C   0  0  0  0  0  0  0  0  0  0  0  0
    5.6870    0.6050   20.5590 C   0  0  0  0  0  0  0  0  0  0  0  0
    4.8240    1.1250   19.5900 C   0  0  0  0  0  0  0  0  0  0  0  0
    5.1440    0.9770   18.2500 C   0  0  0  0  0  0  0  0  0  0  0  0
    6.2400    0.3510   17.8290 N   0  0  0  0  0  0  0  0  0  0  0  0
    7.0510   -0.1400   18.7880 C   0  0  0  0  0  0  0  0  0  0  0  0
    6.8510   -0.0480   20.1500 C   0  0  0  0  0  0  0  0  0  0  0  0
    7.7820   -0.5860   21.0480 N   0  0  0  0  0  0  0  0  0  0  0  0
    8.8630    0.0700   21.6270 C   0  0  0  0  0  0  0  0  0  0  0  0
    9.2330    1.2270   21.3460 O   0  0  0  0  0  0  0  0  0  0  0  0
    9.4920   -0.7560   22.5750 C   0  0  0  0  0  0  0  0  0  0  0  0
    8.6650   -1.7680   23.0940 C   0  0  0  0  0  0  0  0  0  0  0  0
    8.4710   -3.0100   22.7330 N   0  0  0  0  0  0  0  0  0  0  0  0
    7.4780   -3.5580   23.6430 C   0  0  0  0  0  0  0  0  0  0  0  0
    6.9100   -4.8560   23.6830 N   0  0  0  0  0  0  0  0  0  0  0  0
    5.8850   -5.2450   24.7090 C   0  0  0  0  0  0  0  0  0  0  0  0
    5.5030   -4.1680   25.6940 C   0  0  0  0  0  0  0  0  0  0  0  0
    6.1380   -2.7940   25.6110 C   0  0  0  0  0  0  0  0  0  0  0  0
    7.1540   -2.5320   24.5280 C   0  0  0  0  0  0  0  0  0  0  0  0
    7.8680   -1.3930   24.2260 O   0  0  0  0  0  0  0  0  0  0  0  0
  1  2  1  0
  2  3  2  0
  3  4  1  0
  4  5  2  0
  5  6  1  0
  2  7  1  0
  6  7  2  0
  7  8  1  0
  8  9  1  0
  9 10  2  0
  9 11  1  0
 11 12  1  0
 12 13  2  0
 13 14  1  0
 14 15  2  0
 15 16  1  0
 16 17  2  0
 17 18  1  0
 14 19  1  0
 18 19  2  0
 12 20  1  0
 19 20  1  0
M  END
