GAB-REV-70cc3ca5-18
     RDKit          3D

 20 22  0  0  0  0  0  0  0  0999 V2000
    5.2410    0.8340   22.0120 C   0  0  0  0  0  0  0  0  0  0  0  0
    5.6610    0.5590   20.5640 C   0  0  0  0  0  0  0  0  0  0  0  0
    4.7970    1.0340   19.5730 C   0  0  0  0  0  0  0  0  0  0  0  0
    5.1210    0.8220   18.2400 C   0  0  0  0  0  0  0  0  0  0  0  0
    6.2210    0.1750   17.8530 N   0  0  0  0  0  0  0  0  0  0  0  0
    7.0340   -0.2730   18.8370 C   0  0  0  0  0  0  0  0  0  0  0  0
    6.8220   -0.1130   20.1940 C   0  0  0  0  0  0  0  0  0  0  0  0
    7.7390   -0.5870   21.1370 N   0  0  0  0  0  0  0  0  0  0  0  0
    8.7200    0.2700   21.5800 C   0  0  0  0  0  0  0  0  0  0  0  0
    8.8730    1.4010   21.0940 O   0  0  0  0  0  0  0  0  0  0  0  0
    9.5590   -0.1670   22.6020 C   0  0  0  0  0  0  0  0  0  0  0  0
   10.5440    0.7980   22.7140 C   0  0  0  0  0  0  0  0  0  0  0  0
   11.9270    0.5970   22.7950 C   0  0  0  0  0  0  0  0  0  0  0  0
   12.8350    1.6340   22.8690 C   0  0  0  0  0  0  0  0  0  0  0  0
   12.3530    3.0650   22.8670 C   0  0  0  0  0  0  0  0  0  0  0  0
   13.2520    4.1220   22.9300 N   0  0  0  0  0  0  0  0  0  0  0  0
   12.4880    5.2080   22.9130 C   0  0  0  0  0  0  0  0  0  0  0  0
   11.0970    4.8520   22.8370 N   0  0  0  0  0  0  0  0  0  0  0  0
   11.0440    3.3770   22.8040 C   0  0  0  0  0  0  0  0  0  0  0  0
   10.0250    2.2710   22.7250 C   0  0  0  0  0  0  0  0  0  0  0  0
  1  2  1  0
  2  3  2  0
  3  4  1  0
  4  5  2  0
  5  6  1  0
  2  7  1  0
  6  7  2  0
  7  8  1  0
  8  9  1  0
  9 10  2  0
  9 11  1  0
 11 12  1  0
 12 13  2  0
 13 14  1  0
 14 15  2  0
 15 16  1  0
 16 17  2  0
 17 18  1  0
 15 19  1  0
 18 19  1  0
 12 20  1  0
 19 20  2  0
M  END
