GAB-REV-70cc3ca5-16
     RDKit          3D

 26 28  0  0  0  0  0  0  0  0999 V2000
    5.2790    0.7790   21.8650 C   0  0  0  0  0  0  0  0  0  0  0  0
    5.6220    0.6300   20.5170 C   0  0  0  0  0  0  0  0  0  0  0  0
    4.8000    1.1770   19.5270 C   0  0  0  0  0  0  0  0  0  0  0  0
    5.1440    1.0330   18.1790 C   0  0  0  0  0  0  0  0  0  0  0  0
    6.2330    0.3850   17.7540 N   0  0  0  0  0  0  0  0  0  0  0  0
    7.0260   -0.1450   18.6940 C   0  0  0  0  0  0  0  0  0  0  0  0
    6.7730   -0.0490   20.1060 C   0  0  0  0  0  0  0  0  0  0  0  0
    7.6840   -0.6250   21.0250 N   0  0  0  0  0  0  0  0  0  0  0  0
    8.6960    0.0710   21.6320 C   0  0  0  0  0  0  0  0  0  0  0  0
    9.1790    1.1650   21.2740 O   0  0  0  0  0  0  0  0  0  0  0  0
    9.1450   -0.5960   22.7650 C   0  0  0  0  0  0  0  0  0  0  0  0
    8.3960   -1.5890   23.3330 N   0  0  0  0  0  0  0  0  0  0  0  0
    8.5260   -2.9470   23.0580 C   0  0  0  0  0  0  0  0  0  0  0  0
    8.0240   -1.4310   24.6630 C   0  0  0  0  0  0  0  0  0  0  0  0
    7.5710   -0.2330   25.2300 C   0  0  0  0  0  0  0  0  0  0  0  0
    7.4080    1.0030   24.6060 C   0  0  0  0  0  0  0  0  0  0  0  0
    7.0900    2.0320   25.4550 N   0  0  0  0  0  0  0  0  0  0  0  0
    7.5230    1.2430   23.4140 O   0  0  0  0  0  0  0  0  0  0  0  0
    7.3090   -0.5090   26.5590 N   0  0  0  0  0  0  0  0  0  0  0  0
    7.5820   -1.8330   26.8450 C   0  0  0  0  0  0  0  0  0  0  0  0
    7.4720   -2.5630   28.0410 C   0  0  0  0  0  0  0  0  0  0  0  0
    7.8280   -3.9300   28.0560 C   0  0  0  0  0  0  0  0  0  0  0  0
    8.2870   -4.5440   26.8960 C   0  0  0  0  0  0  0  0  0  0  0  0
    8.7370   -6.1740   26.9100 Cl  0  0  0  0  0  0  0  0  0  0  0  0
    8.3850   -3.8260   25.7340 C   0  0  0  0  0  0  0  0  0  0  0  0
    8.0330   -2.4270   25.6670 C   0  0  0  0  0  0  0  0  0  0  0  0
  1  2  1  0
  2  3  2  0
  3  4  1  0
  4  5  2  0
  5  6  1  0
  2  7  1  0
  6  7  2  0
  7  8  1  0
  8  9  1  0
  9 10  2  0
  9 11  1  0
 11 12  1  0
 12 13  1  0
 12 14  1  0
 14 15  2  0
 15 16  1  0
 16 17  1  0
 16 18  2  0
 15 19  1  0
 19 20  1  0
 20 21  1  0
 21 22  2  0
 22 23  1  0
 23 24  1  0
 23 25  2  0
 14 26  1  0
 20 26  2  0
 25 26  1  0
M  END
