GAB-REV-4a4e2ff3-20
     RDKit          3D

 27 30  0  0  0  0  0  0  0  0999 V2000
    9.0270    6.6100   22.6280 C   0  0  0  0  0  0  0  0  0  0  0  0
   10.1410    6.2680   23.3860 C   0  0  0  0  0  0  0  0  0  0  0  0
   10.1680    6.3290   24.6140 O   0  0  0  0  0  0  0  0  0  0  0  0
   11.2720    5.8270   22.5490 N   0  0  0  0  0  0  0  0  0  0  0  0
   12.3190    5.0970   23.2800 C   0  0  0  0  0  0  0  0  0  0  0  0
   12.5600    3.7130   22.7720 C   0  0  0  0  0  0  0  0  0  0  0  0
   11.6970    2.5620   23.2550 C   0  0  0  0  0  0  0  0  0  0  0  0
   10.4950    2.6890   23.9160 C   0  0  0  0  0  0  0  0  0  0  0  0
    9.9650    1.4390   24.1900 N   0  0  0  0  0  0  0  0  0  0  0  0
   10.8300    0.4800   23.6980 C   0  0  0  0  0  0  0  0  0  0  0  0
   10.6750   -0.9020   23.7430 C   0  0  0  0  0  0  0  0  0  0  0  0
    9.6300   -1.5160   24.2830 N   0  0  0  0  0  0  0  0  0  0  0  0
    9.7380   -2.7720   23.7600 C   0  0  0  0  0  0  0  0  0  0  0  0
    8.4430   -3.0590   23.0260 C   0  0  0  0  0  0  0  0  0  0  0  0
    7.6910   -4.2170   23.2790 C   0  0  0  0  0  0  0  0  0  0  0  0
    6.4990   -4.4550   22.5660 C   0  0  0  0  0  0  0  0  0  0  0  0
    6.0660   -3.5470   21.6110 C   0  0  0  0  0  0  0  0  0  0  0  0
    4.9990   -3.4730   20.7580 N   0  0  0  0  0  0  0  0  0  0  0  0
    5.2080   -2.2690   20.0590 C   0  0  0  0  0  0  0  0  0  0  0  0
    6.3190   -1.6480   20.4690 N   0  0  0  0  0  0  0  0  0  0  0  0
    6.8800   -2.4610   21.4620 C   0  0  0  0  0  0  0  0  0  0  0  0
    8.0280   -2.1450   22.0920 C   0  0  0  0  0  0  0  0  0  0  0  0
   11.6950   -1.6320   23.1590 C   0  0  0  0  0  0  0  0  0  0  0  0
   12.7930   -1.0190   22.5870 C   0  0  0  0  0  0  0  0  0  0  0  0
   13.7060   -1.7850   22.0470 F   0  0  0  0  0  0  0  0  0  0  0  0
   12.9040    0.3500   22.5860 C   0  0  0  0  0  0  0  0  0  0  0  0
   11.9300    1.1680   23.1190 C   0  0  0  0  0  0  0  0  0  0  0  0
  1  2  1  0
  2  3  2  0
  2  4  1  0
  4  5  1  0
  5  6  1  0
  6  7  1  0
  7  8  2  0
  8  9  1  0
  9 10  1  0
 10 11  1  0
 11 12  1  0
 12 13  1  0
 13 14  1  0
 14 15  2  0
 15 16  1  0
 16 17  2  0
 17 18  1  0
 18 19  2  0
 19 20  1  0
 17 21  1  0
 20 21  1  0
 14 22  1  0
 21 22  2  0
 11 23  2  0
 23 24  1  0
 24 25  1  0
 24 26  2  0
  7 27  1  0
 10 27  2  0
 26 27  1  0
M  END
