GAB-REV-4a4e2ff3-17
     RDKit          3D

 28 31  0  0  0  0  0  0  0  0999 V2000
    8.9990    6.6460   22.5330 C   0  0  0  0  0  0  0  0  0  0  0  0
   10.1490    6.1950   23.4440 C   0  0  0  0  0  0  0  0  0  0  0  0
   10.1480    6.3240   24.6640 O   0  0  0  0  0  0  0  0  0  0  0  0
   11.2180    5.6000   22.6910 N   0  0  0  0  0  0  0  0  0  0  0  0
   12.3910    5.0570   23.2840 C   0  0  0  0  0  0  0  0  0  0  0  0
   12.6340    3.7480   22.8560 C   0  0  0  0  0  0  0  0  0  0  0  0
   11.7670    2.7050   23.1930 C   0  0  0  0  0  0  0  0  0  0  0  0
   10.5470    2.8850   23.8250 C   0  0  0  0  0  0  0  0  0  0  0  0
    9.9250    1.6630   23.9640 N   0  0  0  0  0  0  0  0  0  0  0  0
   10.7000    0.6700   23.4400 C   0  0  0  0  0  0  0  0  0  0  0  0
   10.3320   -0.6670   23.3960 C   0  0  0  0  0  0  0  0  0  0  0  0
    9.0050   -1.0350   23.9920 N   0  0  0  0  0  0  0  0  0  0  0  0
    8.8880   -0.5700   25.3890 C   0  0  0  0  0  0  0  0  0  0  0  0
    7.9280   -0.6760   23.0560 C   0  0  0  0  0  0  0  0  0  0  0  0
    6.7010   -0.9490   23.6400 C   0  0  0  0  0  0  0  0  0  0  0  0
    5.9660   -2.2000   23.3120 C   0  0  0  0  0  0  0  0  0  0  0  0
    4.6420   -2.4710   23.9670 C   0  0  0  0  0  0  0  0  0  0  0  0
    4.2020   -1.3740   24.9300 C   0  0  0  0  0  0  0  0  0  0  0  0
    3.0460   -1.2800   25.7080 N   0  0  0  0  0  0  0  0  0  0  0  0
    2.9410   -0.1290   26.4960 N   0  0  0  0  0  0  0  0  0  0  0  0
    4.0620    0.5770   26.2390 C   0  0  0  0  0  0  0  0  0  0  0  0
    4.8430   -0.0820   25.3400 C   0  0  0  0  0  0  0  0  0  0  0  0
    6.1610   -0.0130   24.5610 C   0  0  0  0  0  0  0  0  0  0  0  0
   11.2080   -1.5820   22.8070 C   0  0  0  0  0  0  0  0  0  0  0  0
   12.5480   -1.1120   22.2860 C   0  0  0  0  0  0  0  0  0  0  0  0
   13.4300   -1.9340   21.7380 F   0  0  0  0  0  0  0  0  0  0  0  0
   12.8060    0.3860   22.4360 C   0  0  0  0  0  0  0  0  0  0  0  0
   11.8760    1.2590   22.9740 C   0  0  0  0  0  0  0  0  0  0  0  0
  1  2  1  0
  2  3  2  0
  2  4  1  0
  4  5  1  0
  5  6  1  0
  6  7  1  0
  7  8  2  0
  8  9  1  0
  9 10  1  0
 10 11  1  0
 11 12  1  0
 12 13  1  0
 12 14  1  0
 14 15  1  0
 15 16  2  0
 16 17  1  0
 17 18  2  0
 18 19  1  0
 19 20  1  0
 20 21  2  0
 18 22  1  0
 21 22  1  0
 15 23  1  0
 22 23  2  0
 11 24  2  0
 24 25  1  0
 25 26  1  0
 25 27  2  0
  7 28  1  0
 10 28  2  0
 27 28  1  0
M  END
