GAB-REV-70cc3ca5-13
     RDKit          3D

 21 22  0  0  0  0  0  0  0  0999 V2000
    5.4580    0.9130   22.0270 C   0  0  0  0  0  0  0  0  0  0  0  0
    5.7700    0.6700   20.5780 C   0  0  0  0  0  0  0  0  0  0  0  0
    4.8840    1.1690   19.6100 C   0  0  0  0  0  0  0  0  0  0  0  0
    5.1580    0.9520   18.2780 C   0  0  0  0  0  0  0  0  0  0  0  0
    6.2300    0.2800   17.8520 N   0  0  0  0  0  0  0  0  0  0  0  0
    7.0760   -0.1970   18.7890 C   0  0  0  0  0  0  0  0  0  0  0  0
    6.9120   -0.0350   20.1510 C   0  0  0  0  0  0  0  0  0  0  0  0
    7.8280   -0.5360   21.0970 N   0  0  0  0  0  0  0  0  0  0  0  0
    8.8840    0.1960   21.6160 C   0  0  0  0  0  0  0  0  0  0  0  0
    9.1700    1.3620   21.2990 O   0  0  0  0  0  0  0  0  0  0  0  0
    9.7370   -0.5580   22.6350 C   0  0  0  0  0  0  0  0  0  0  0  0
    8.9100   -1.3980   23.4990 N   0  0  0  0  0  0  0  0  0  0  0  0
    8.4050   -0.9950   24.6900 C   0  0  0  0  0  0  0  0  0  0  0  0
    7.3660   -1.5250   25.0910 O   0  0  0  0  0  0  0  0  0  0  0  0
    9.0100   -0.0210   25.5030 C   0  0  0  0  0  0  0  0  0  0  0  0
    8.3890    1.2270   25.4130 C   0  0  0  0  0  0  0  0  0  0  0  0
    8.8890    2.2230   24.5800 C   0  0  0  0  0  0  0  0  0  0  0  0
    8.2580    3.4560   24.5080 C   0  0  0  0  0  0  0  0  0  0  0  0
    7.1220    3.6710   25.2840 C   0  0  0  0  0  0  0  0  0  0  0  0
    6.6040    2.7300   26.1090 N   0  0  0  0  0  0  0  0  0  0  0  0
    7.2480    1.5350   26.1530 C   0  0  0  0  0  0  0  0  0  0  0  0
  1  2  1  0
  2  3  2  0
  3  4  1  0
  4  5  2  0
  5  6  1  0
  2  7  1  0
  6  7  2  0
  7  8  1  0
  8  9  1  0
  9 10  2  0
  9 11  1  0
 11 12  1  0
 12 13  1  0
 13 14  2  0
 13 15  1  0
 15 16  1  0
 16 17  2  0
 17 18  1  0
 18 19  2  0
 19 20  1  0
 16 21  1  0
 20 21  2  0
M  END
