GAB-REV-4a4e2ff3-18
     RDKit          3D

 26 29  0  0  0  0  0  0  0  0999 V2000
    9.1350    6.6160   22.5400 C   0  0  0  0  0  0  0  0  0  0  0  0
   10.2110    6.2120   23.3460 C   0  0  0  0  0  0  0  0  0  0  0  0
   10.1960    6.3010   24.5700 O   0  0  0  0  0  0  0  0  0  0  0  0
   11.2760    5.7150   22.6450 N   0  0  0  0  0  0  0  0  0  0  0  0
   12.3650    4.9730   23.2980 C   0  0  0  0  0  0  0  0  0  0  0  0
   12.5750    3.6700   22.7970 C   0  0  0  0  0  0  0  0  0  0  0  0
   11.6430    2.7170   22.9350 C   0  0  0  0  0  0  0  0  0  0  0  0
   10.2370    2.9920   23.2230 C   0  0  0  0  0  0  0  0  0  0  0  0
    9.5350    1.7630   23.2540 N   0  0  0  0  0  0  0  0  0  0  0  0
   10.4780    0.8090   22.9970 C   0  0  0  0  0  0  0  0  0  0  0  0
   10.1610   -0.5370   22.9130 C   0  0  0  0  0  0  0  0  0  0  0  0
    8.8140   -0.8920   23.0810 N   0  0  0  0  0  0  0  0  0  0  0  0
    8.0830   -2.0230   22.6670 C   0  0  0  0  0  0  0  0  0  0  0  0
    7.0520   -2.0510   21.7670 N   0  0  0  0  0  0  0  0  0  0  0  0
    6.6580   -3.3370   21.6950 C   0  0  0  0  0  0  0  0  0  0  0  0
    5.7070   -4.0630   20.9980 C   0  0  0  0  0  0  0  0  0  0  0  0
    5.6380   -5.4410   21.2170 C   0  0  0  0  0  0  0  0  0  0  0  0
    6.4680   -6.0950   22.1120 C   0  0  0  0  0  0  0  0  0  0  0  0
    7.4200   -5.4050   22.8270 C   0  0  0  0  0  0  0  0  0  0  0  0
    7.4620   -4.0320   22.5600 C   0  0  0  0  0  0  0  0  0  0  0  0
    8.3600   -3.1400   23.1510 O   0  0  0  0  0  0  0  0  0  0  0  0
   11.1980   -1.5030   22.6500 C   0  0  0  0  0  0  0  0  0  0  0  0
   12.4940   -1.0110   22.4930 C   0  0  0  0  0  0  0  0  0  0  0  0
   13.4680   -1.8860   22.2490 F   0  0  0  0  0  0  0  0  0  0  0  0
   12.8440    0.4180   22.5750 C   0  0  0  0  0  0  0  0  0  0  0  0
   11.7760    1.2870   22.8190 C   0  0  0  0  0  0  0  0  0  0  0  0
  1  2  1  0
  2  3  2  0
  2  4  1  0
  4  5  1  0
  5  6  1  0
  6  7  1  0
  7  8  2  0
  8  9  1  0
  9 10  1  0
 10 11  1  0
 11 12  1  0
 12 13  1  0
 13 14  2  0
 14 15  1  0
 15 16  2  0
 16 17  1  0
 17 18  2  0
 18 19  1  0
 15 20  1  0
 19 20  2  0
 13 21  1  0
 20 21  1  0
 11 22  2  0
 22 23  1  0
 23 24  1  0
 23 25  2  0
  7 26  1  0
 10 26  2  0
 25 26  1  0
M  END
