GAB-REV-4a4e2ff3-5
     RDKit          3D

 27 30  0  0  0  0  0  0  0  0999 V2000
    8.9830    6.6530   22.5390 C   0  0  0  0  0  0  0  0  0  0  0  0
   10.1450    6.1930   23.4320 C   0  0  0  0  0  0  0  0  0  0  0  0
   10.1530    6.3150   24.6550 O   0  0  0  0  0  0  0  0  0  0  0  0
   11.2090    5.6060   22.6710 N   0  0  0  0  0  0  0  0  0  0  0  0
   12.4000    5.0890   23.2470 C   0  0  0  0  0  0  0  0  0  0  0  0
   12.6510    3.7730   22.8450 C   0  0  0  0  0  0  0  0  0  0  0  0
   11.7810    2.7310   23.1870 C   0  0  0  0  0  0  0  0  0  0  0  0
   10.5600    2.9190   23.8090 C   0  0  0  0  0  0  0  0  0  0  0  0
    9.9370    1.7000   23.9600 N   0  0  0  0  0  0  0  0  0  0  0  0
   10.7080    0.7000   23.4510 C   0  0  0  0  0  0  0  0  0  0  0  0
   10.3030   -0.6260   23.4410 C   0  0  0  0  0  0  0  0  0  0  0  0
    9.0880   -1.0170   23.9830 C   0  0  0  0  0  0  0  0  0  0  0  0
    8.7360   -0.4410   25.2250 C   0  0  0  0  0  0  0  0  0  0  0  0
    7.5730   -0.7110   25.9220 C   0  0  0  0  0  0  0  0  0  0  0  0
    6.6470   -1.6960   25.2740 C   0  0  0  0  0  0  0  0  0  0  0  0
    7.0360   -2.3120   23.9390 C   0  0  0  0  0  0  0  0  0  0  0  0
    6.0760   -3.3150   23.3100 C   0  0  0  0  0  0  0  0  0  0  0  0
    4.6850   -3.5240   23.7460 C   0  0  0  0  0  0  0  0  0  0  0  0
    4.1100   -4.4820   22.9950 C   0  0  0  0  0  0  0  0  0  0  0  0
    4.9680   -4.9740   22.0600 N   0  0  0  0  0  0  0  0  0  0  0  0
    6.1460   -4.2490   22.2730 N   0  0  0  0  0  0  0  0  0  0  0  0
    8.2370   -1.9520   23.3420 C   0  0  0  0  0  0  0  0  0  0  0  0
   11.2110   -1.5040   22.8500 C   0  0  0  0  0  0  0  0  0  0  0  0
   12.5550   -1.0660   22.3240 C   0  0  0  0  0  0  0  0  0  0  0  0
   13.4260   -1.9130   21.7870 F   0  0  0  0  0  0  0  0  0  0  0  0
   12.8400    0.4270   22.4540 C   0  0  0  0  0  0  0  0  0  0  0  0
   11.8900    1.2810   22.9830 C   0  0  0  0  0  0  0  0  0  0  0  0
  1  2  1  0
  2  3  2  0
  2  4  1  0
  4  5  1  0
  5  6  1  0
  6  7  1  0
  7  8  2  0
  8  9  1  0
  9 10  1  0
 10 11  1  0
 11 12  1  0
 12 13  2  0
 13 14  1  0
 14 15  2  0
 15 16  1  0
 16 17  1  0
 17 18  2  0
 18 19  1  0
 19 20  2  0
 17 21  1  0
 20 21  1  0
 12 22  1  0
 16 22  2  0
 11 23  2  0
 23 24  1  0
 24 25  1  0
 24 26  2  0
  7 27  1  0
 10 27  2  0
 26 27  1  0
M  END
