GAB-REV-70cc3ca5-1
     RDKit          3D

 24 26  0  0  0  0  0  0  0  0999 V2000
    5.3960    0.9280   22.0710 C   0  0  0  0  0  0  0  0  0  0  0  0
    5.7570    0.6820   20.6360 C   0  0  0  0  0  0  0  0  0  0  0  0
    4.8610    1.2640   19.5850 C   0  0  0  0  0  0  0  0  0  0  0  0
    5.1480    1.0640   18.1390 C   0  0  0  0  0  0  0  0  0  0  0  0
    6.2470    0.3280   17.8130 N   0  0  0  0  0  0  0  0  0  0  0  0
    7.1490   -0.2640   18.7630 C   0  0  0  0  0  0  0  0  0  0  0  0
    6.8800   -0.0580   20.2400 C   0  0  0  0  0  0  0  0  0  0  0  0
    7.8080   -0.6380   21.1590 N   0  0  0  0  0  0  0  0  0  0  0  0
    8.8380    0.1860   21.6190 C   0  0  0  0  0  0  0  0  0  0  0  0
    9.0700    1.3530   21.2450 O   0  0  0  0  0  0  0  0  0  0  0  0
    9.7670   -0.4060   22.6440 C   0  0  0  0  0  0  0  0  0  0  0  0
    9.1480   -1.4240   23.2910 N   0  0  0  0  0  0  0  0  0  0  0  0
    9.4800   -2.6550   22.6980 C   0  0  0  0  0  0  0  0  0  0  0  0
    7.8770   -1.1870   23.7890 C   0  0  0  0  0  0  0  0  0  0  0  0
    7.0680   -2.3040   23.9210 C   0  0  0  0  0  0  0  0  0  0  0  0
    5.6920   -2.1140   24.4520 C   0  0  0  0  0  0  0  0  0  0  0  0
    5.2330   -0.8450   24.8090 C   0  0  0  0  0  0  0  0  0  0  0  0
    6.0320    0.3130   24.6890 C   0  0  0  0  0  0  0  0  0  0  0  0
    5.4630    1.6570   25.1050 C   0  0  0  0  0  0  0  0  0  0  0  0
    6.1820    2.3970   25.9890 C   0  0  0  0  0  0  0  0  0  0  0  0
    5.5650    3.5830   26.2840 C   0  0  0  0  0  0  0  0  0  0  0  0
    4.4010    3.6420   25.5790 N   0  0  0  0  0  0  0  0  0  0  0  0
    4.3600    2.4490   24.8620 N   0  0  0  0  0  0  0  0  0  0  0  0
    7.3630    0.0700   24.1620 C   0  0  0  0  0  0  0  0  0  0  0  0
  1  2  1  0
  2  3  2  0
  3  4  1  0
  4  5  2  0
  5  6  1  0
  2  7  1  0
  6  7  2  0
  7  8  1  0
  8  9  1  0
  9 10  2  0
  9 11  1  0
 11 12  1  0
 12 13  1  0
 12 14  1  0
 14 15  2  0
 15 16  1  0
 16 17  2  0
 17 18  1  0
 18 19  1  0
 19 20  2  0
 20 21  1  0
 21 22  2  0
 19 23  1  0
 22 23  1  0
 14 24  1  0
 18 24  2  0
M  END
