GAB-REV-70cc3ca5-14
     RDKit          3D

 25 27  0  0  0  0  0  0  0  0999 V2000
    5.6940    3.6180   30.0510 C   0  0  0  0  0  0  0  0  0  0  0  0
    6.2300    3.0960   28.9290 C   0  0  0  0  0  0  0  0  0  0  0  0
    5.8200    3.5450   27.5810 C   0  0  0  0  0  0  0  0  0  0  0  0
    6.4300    2.9520   26.3100 C   0  0  0  0  0  0  0  0  0  0  0  0
    6.0980    3.3250   25.0240 C   0  0  0  0  0  0  0  0  0  0  0  0
    7.4650    1.8900   26.5590 C   0  0  0  0  0  0  0  0  0  0  0  0
    8.0960    1.2750   25.4340 N   0  0  0  0  0  0  0  0  0  0  0  0
    9.0520    0.3100   25.9140 C   0  0  0  0  0  0  0  0  0  0  0  0
    9.9380   -0.5340   24.9880 C   0  0  0  0  0  0  0  0  0  0  0  0
   11.1140   -0.8440   25.2050 O   0  0  0  0  0  0  0  0  0  0  0  0
    9.2710   -0.9250   23.8460 N   0  0  0  0  0  0  0  0  0  0  0  0
    9.7260   -0.4700   22.6100 C   0  0  0  0  0  0  0  0  0  0  0  0
    8.7590    0.0340   21.5620 C   0  0  0  0  0  0  0  0  0  0  0  0
    8.9700    1.4040   21.1400 O   0  0  0  0  0  0  0  0  0  0  0  0
    7.7470   -0.7020   21.0360 N   0  0  0  0  0  0  0  0  0  0  0  0
    6.8750   -0.0910   20.2030 C   0  0  0  0  0  0  0  0  0  0  0  0
    7.1080   -0.2350   18.8380 C   0  0  0  0  0  0  0  0  0  0  0  0
    6.3100    0.3370   17.8810 N   0  0  0  0  0  0  0  0  0  0  0  0
    5.2080    1.0960   18.2180 C   0  0  0  0  0  0  0  0  0  0  0  0
    4.8720    1.3000   19.5460 C   0  0  0  0  0  0  0  0  0  0  0  0
    5.7530    0.6720   20.6090 C   0  0  0  0  0  0  0  0  0  0  0  0
    5.4290    0.8670   21.9510 C   0  0  0  0  0  0  0  0  0  0  0  0
    9.0890    0.2250   27.6240 S   0  0  0  0  0  0  0  0  0  0  0  0
    7.8660    1.4550   27.8240 C   0  0  0  0  0  0  0  0  0  0  0  0
    7.3250    1.9750   29.1920 C   0  0  0  0  0  0  0  0  0  0  0  0
  1  2  1  0
  2  3  2  0
  3  4  1  0
  4  5  1  0
  4  6  2  0
  6  7  1  0
  7  8  2  0
  8  9  1  0
  9 10  2  0
  9 11  1  0
 11 12  1  0
 12 13  1  0
 13 14  2  0
 13 15  1  0
 15 16  1  0
 16 17  2  0
 17 18  1  0
 18 19  2  0
 19 20  1  0
 16 21  1  0
 20 21  2  0
 21 22  1  0
  8 23  1  0
  6 24  1  0
 23 24  1  0
  2 25  1  0
 24 25  2  0
M  END
