GER-UNI-9e096ee1-1
     RDKit          3D

 30 33  0  0  0  0  0  0  0  0999 V2000
    6.7580   -0.1550   19.0000 C   0  0  0  0  0  0  0  0  0  0  0  0
    5.8570   -0.6820   20.0800 C   0  0  0  0  0  0  0  0  0  0  0  0
    6.2860   -0.7470   21.2370 O   0  0  0  0  0  0  0  0  0  0  0  0
    5.8280   -1.8550   21.9190 C   0  0  0  0  0  0  0  0  0  0  0  0
    4.9950   -2.5870   21.4130 O   0  0  0  0  0  0  0  0  0  0  0  0
    6.4130   -2.1230   23.3220 C   0  0  0  0  0  0  0  0  0  0  0  0
    7.9460   -2.2520   23.3100 C   0  0  0  0  0  0  0  0  0  0  0  0
    8.7430   -1.0190   23.2280 C   0  0  0  0  0  0  0  0  0  0  0  0
    9.6020   -2.0840   23.2660 O   0  0  0  0  0  0  0  0  0  0  0  0
   10.2090   -0.7950   23.2040 C   0  0  0  0  0  0  0  0  0  0  0  0
   10.8730    0.5220   23.0510 C   0  0  0  0  0  0  0  0  0  0  0  0
   12.3760    0.5760   23.0510 C   0  0  0  0  0  0  0  0  0  0  0  0
   13.0090   -0.6420   23.1890 C   0  0  0  0  0  0  0  0  0  0  0  0
   12.3270   -1.8800   23.3320 C   0  0  0  0  0  0  0  0  0  0  0  0
   10.9340   -1.9650   23.3450 C   0  0  0  0  0  0  0  0  0  0  0  0
   10.2070   -3.2170   23.5060 O   0  0  0  0  0  0  0  0  0  0  0  0
    8.7640   -3.4040   23.3760 C   0  0  0  0  0  0  0  0  0  0  0  0
    8.2970   -4.5320   23.3320 O   0  0  0  0  0  0  0  0  0  0  0  0
    5.7890   -3.3260   24.0560 C   0  0  0  0  0  0  0  0  0  0  0  0
    6.0020   -3.4810   25.4500 C   0  0  0  0  0  0  0  0  0  0  0  0
    6.7150   -2.5800   26.2200 O   0  0  0  0  0  0  0  0  0  0  0  0
    5.4010   -4.7390   26.0750 C   0  0  0  0  0  0  0  0  0  0  0  0
    5.7040   -4.9350   27.5480 C   0  0  0  0  0  0  0  0  0  0  0  0
    5.1650   -6.1140   28.1680 C   0  0  0  0  0  0  0  0  0  0  0  0
    4.4000   -7.0280   27.4420 C   0  0  0  0  0  0  0  0  0  0  0  0
    4.0660   -6.8760   25.9540 C   0  0  0  0  0  0  0  0  0  0  0  0
    4.6490   -5.6360   25.3520 C   0  0  0  0  0  0  0  0  0  0  0  0
    4.4060   -5.4050   23.9900 O   0  0  0  0  0  0  0  0  0  0  0  0
    4.9600   -4.3300   23.2980 C   0  0  0  0  0  0  0  0  0  0  0  0
    4.7390   -4.2100   22.0960 O   0  0  0  0  0  0  0  0  0  0  0  0
  1  2  1  0
  2  3  1  0
  3  4  1  0
  4  5  2  0
  4  6  1  0
  6  7  1  0
  7  8  2  0
  8  9  1  0
  8 10  1  0
 10 11  2  0
 11 12  1  0
 12 13  2  0
 13 14  1  0
 10 15  1  0
 14 15  2  0
 15 16  1  0
  7 17  1  0
 16 17  1  0
 17 18  2  0
  6 19  1  0
 19 20  2  0
 20 21  1  0
 20 22  1  0
 22 23  2  0
 23 24  1  0
 24 25  2  0
 25 26  1  0
 22 27  1  0
 26 27  2  0
 27 28  1  0
 19 29  1  0
 28 29  1  0
 29 30  2  0
M  END
