GER-UNI-ec786817-1
     RDKit          3D

 19 21  0  0  0  0  0  0  0  0999 V2000
    8.4810   -2.2180   21.7470 C   0  0  0  0  0  0  0  0  0  0  0  0
    9.8310   -2.4250   22.4090 C   0  0  2  0  0  0  0  0  0  0  0  0
    9.6910   -3.1370   23.7000 C   0  0  0  0  0  0  0  0  0  0  0  0
   10.9810   -3.4440   24.2870 O   0  0  0  0  0  0  0  0  0  0  0  0
    8.4210   -3.3710   24.1120 O   0  0  0  0  0  0  0  0  0  0  0  0
   10.4520   -1.0890   22.6300 C   0  0  0  0  0  0  0  0  0  0  0  0
    9.3950   -0.1470   22.9200 C   0  0  0  0  0  0  0  0  0  0  0  0
    9.6700    1.1360   23.0930 C   0  0  0  0  0  0  0  0  0  0  0  0
   10.9490    1.5460   22.9890 C   0  0  0  0  0  0  0  0  0  0  0  0
   12.0420    0.7110   22.7490 C   0  0  0  0  0  0  0  0  0  0  0  0
   11.8490   -0.6810   22.5640 C   0  0  0  0  0  0  0  0  0  0  0  0
   13.0950    1.5940   22.7530 N   0  0  0  0  0  0  0  0  0  0  0  0
   12.6550    2.9230   22.9480 C   0  0  0  0  0  0  0  0  0  0  0  0
   13.3400    4.2740   23.0090 C   0  0  0  0  0  0  0  0  0  0  0  0
   12.5990    5.5780   23.2370 C   0  0  0  0  0  0  0  0  0  0  0  0
   11.0990    5.4890   23.4140 C   0  0  0  0  0  0  0  0  0  0  0  0
   10.1480    6.8980   23.6820 Cl  0  0  0  0  0  0  0  0  0  0  0  0
   10.4500    4.1150   23.3470 C   0  0  0  0  0  0  0  0  0  0  0  0
   11.3210    2.8770   23.1020 C   0  0  0  0  0  0  0  0  0  0  0  0
  2  1  1  1
  2  3  1  0
  3  4  2  0
  3  5  1  0
  2  6  1  0
  6  7  2  0
  7  8  1  0
  8  9  2  0
  9 10  1  0
  6 11  1  0
 10 11  2  0
 10 12  1  0
 12 13  1  0
 13 14  1  0
 14 15  2  0
 15 16  1  0
 16 17  1  0
 16 18  2  0
  9 19  1  0
 13 19  2  0
 18 19  1  0
M  END
