GER-UNI-c2851835-1
     RDKit          3D

 30 34  0  0  0  0  0  0  0  0999 V2000
    8.9190   -3.4420   21.8310 N   0  0  0  0  0  0  0  0  0  0  0  0
    9.6110   -2.5820   22.0130 C   0  0  1  0  0  0  0  0  0  0  0  0
   10.6610   -2.4240   21.0220 C   0  0  2  0  0  0  0  0  0  0  0  0
   12.0880   -1.7130   21.3780 C   0  0  0  0  0  0  0  0  0  0  0  0
   11.6610   -0.4170   21.8300 N   0  0  0  0  0  0  0  0  0  0  0  0
   11.2700   -0.9370   23.1640 C   0  0  0  0  0  0  0  0  0  0  0  0
   11.7720   -0.8510   23.9620 N   0  0  0  0  0  0  0  0  0  0  0  0
   11.0380   -0.9720   22.7680 C   0  0  0  0  0  0  0  0  0  0  0  0
   10.9970   -1.4320   23.9630 C   0  0  0  0  0  0  0  0  0  0  0  0
   12.7550   -0.3070   24.2810 C   0  0  0  0  0  0  0  0  0  0  0  0
   12.0880   -0.7970   24.4670 C   0  0  0  0  0  0  0  0  0  0  0  0
   12.5230   -0.1770   23.3570 F   0  0  0  0  0  0  0  0  0  0  0  0
   11.3880   -1.6430   25.3960 C   0  0  0  0  0  0  0  0  0  0  0  0
   12.2250   -2.6080   25.2500 O   0  0  0  0  0  0  0  0  0  0  0  0
   10.4240   -0.6690   24.8730 C   0  0  0  0  0  0  0  0  0  0  0  0
    9.1250   -1.3220   24.4490 C   0  0  0  0  0  0  0  0  0  0  0  0
    8.1350   -0.5720   23.9690 O   0  0  0  0  0  0  0  0  0  0  0  0
    8.9240   -2.6740   24.5510 O   0  0  0  0  0  0  0  0  0  0  0  0
   11.1730    0.0720   24.1870 C   0  0  0  0  0  0  0  0  0  0  0  0
   11.0750   -1.1500   23.3900 N   0  0  0  0  0  0  0  0  0  0  0  0
   10.4110   -2.4010   23.5720 C   0  0  0  0  0  0  0  0  0  0  0  0
    9.3940   -2.2950   22.7450 C   0  0  0  0  0  0  0  0  0  0  0  0
    8.4670   -3.4590   22.5750 C   0  0  0  0  0  0  0  0  0  0  0  0
    8.8380   -4.6630   23.3380 C   0  0  0  0  0  0  0  0  0  0  0  0
    8.0850   -5.8510   23.0950 F   0  0  0  0  0  0  0  0  0  0  0  0
    9.9160   -4.5360   24.2710 C   0  0  0  0  0  0  0  0  0  0  0  0
   10.6530   -3.5180   24.2940 C   0  0  0  0  0  0  0  0  0  0  0  0
   11.8770   -3.2740   25.2120 F   0  0  0  0  0  0  0  0  0  0  0  0
   10.3260   -0.0010   21.5030 C   0  0  0  0  0  0  0  0  0  0  0  0
    9.7260   -1.3260   20.8650 C   0  0  2  0  0  0  0  0  0  0  0  0
  2  1  1  6
  2  3  1  0
  3  4  1  1
  4  5  1  0
  5  6  1  0
  6  7  2  0
  7  8  1  0
  8  9  2  0
  9 10  1  0
  6 11  1  0
 10 11  2  0
 11 12  1  0
  9 13  1  0
 13 14  2  0
 13 15  1  0
 15 16  1  0
 16 17  2  0
 16 18  1  0
 15 19  2  0
  8 20  1  0
 19 20  1  0
 20 21  1  0
 21 22  2  0
 22 23  1  0
 23 24  2  0
 24 25  1  0
 24 26  1  0
 21 27  1  0
 26 27  2  0
 27 28  1  0
  5 29  1  0
  2 30  1  0
  3 30  1  0
 30 29  1  1
M  END
