GIA-UNK-995df016-9
     RDKit          3D

 17 17  0  0  0  0  0  0  0  0999 V2000
    4.9070    0.6390   18.4900 C   0  0  0  0  0  0  0  0  0  0  0  0
    5.1010   -0.3750   19.6620 C   0  0  0  0  0  0  0  0  0  0  0  0
    6.0900   -1.3370   19.4250 C   0  0  2  0  0  0  0  0  0  0  0  0
    6.2980   -1.6790   18.1540 C   0  0  0  0  0  0  0  0  0  0  0  0
    5.8950   -2.6360   20.2230 C   0  0  0  0  0  0  0  0  0  0  0  0
    5.3730   -3.6900   19.7780 O   0  0  0  0  0  0  0  0  0  0  0  0
    6.4590   -2.5600   21.5600 N   0  0  0  0  0  0  0  0  0  0  0  0
    6.5840   -3.6600   22.3590 C   0  0  0  0  0  0  0  0  0  0  0  0
    7.6020   -3.5790   23.4990 C   0  0  0  0  0  0  0  0  0  0  0  0
    8.6460   -2.6310   23.4630 C   0  0  0  0  0  0  0  0  0  0  0  0
    9.9130   -3.1020   23.8190 C   0  0  0  0  0  0  0  0  0  0  0  0
   11.0940   -3.1620   24.1300 O   0  0  0  0  0  0  0  0  0  0  0  0
   10.2730   -1.3870   23.8160 S   0  0  0  0  0  0  0  0  0  0  0  0
   12.0710   -1.5590   23.7820 C   0  0  0  0  0  0  0  0  0  0  0  0
   12.5790   -0.3970   23.3440 F   0  0  0  0  0  0  0  0  0  0  0  0
    8.7410   -2.0690   22.0440 C   0  0  0  0  0  0  0  0  0  0  0  0
    7.4940   -1.5320   21.6960 C   0  0  0  0  0  0  0  0  0  0  0  0
  1  2  1  0
  2  3  1  0
  3  4  1  6
  3  5  1  0
  5  6  2  0
  5  7  1  0
  7  8  1  0
  8  9  1  0
  9 10  1  0
 10 11  1  0
 11 12  2  0
 11 13  1  0
 13 14  1  0
 14 15  1  0
 10 16  1  0
  7 17  1  0
 16 17  1  0
M  END
