GIA-UNK-d2defdc3-1
     RDKit          3D

 24 26  0  0  0  0  0  0  0  0999 V2000
    2.2330    1.8940   24.5150 O   0  0  0  0  0  0  0  0  0  0  0  0
    2.2510    2.1970   23.3360 C   0  0  0  0  0  0  0  0  0  0  0  0
    1.6020    3.2440   22.7280 N   0  0  0  0  0  0  0  0  0  0  0  0
    0.4460    3.7400   23.3180 C   0  0  2  0  0  0  0  0  0  0  0  0
    0.6560    4.0060   24.6830 C   0  0  0  0  0  0  0  0  0  0  0  0
   -0.5360    4.7530   25.2170 C   0  0  0  0  0  0  0  0  0  0  0  0
   -1.8150    4.5760   24.4250 C   0  0  0  0  0  0  0  0  0  0  0  0
   -1.8370    3.3450   23.7590 C   0  0  0  0  0  0  0  0  0  0  0  0
   -0.7170    3.0190   22.9830 C   0  0  2  0  0  0  0  0  0  0  0  0
   -0.4900    1.6580   22.8130 N   0  0  0  0  0  0  0  0  0  0  0  0
   -1.0300    1.0180   21.5950 C   0  0  0  0  0  0  0  0  0  0  0  0
   -0.3410    0.8300   20.4460 O   0  0  0  0  0  0  0  0  0  0  0  0
   -2.3590    0.5880   21.6490 C   0  0  0  0  0  0  0  0  0  0  0  0
   -2.5250   -0.8990   21.2190 C   0  0  0  0  0  0  0  0  0  0  0  0
   -3.8340   -1.2920   20.9800 C   0  0  0  0  0  0  0  0  0  0  0  0
   -4.6660   -0.3280   20.3970 C   0  0  0  0  0  0  0  0  0  0  0  0
   -4.6010    0.9860   20.8660 C   0  0  0  0  0  0  0  0  0  0  0  0
   -3.2800    1.4230   21.0180 C   0  0  0  0  0  0  0  0  0  0  0  0
    3.0800    1.3600   22.4160 C   0  0  0  0  0  0  0  0  0  0  0  0
    3.2130    1.5860   21.0540 C   0  0  0  0  0  0  0  0  0  0  0  0
    3.9860    0.8070   20.2180 C   0  0  0  0  0  0  0  0  0  0  0  0
    4.6850   -0.2480   20.6480 N   0  0  0  0  0  0  0  0  0  0  0  0
    4.5920   -0.5560   22.0860 C   0  0  0  0  0  0  0  0  0  0  0  0
    3.7940    0.2540   22.9270 C   0  0  0  0  0  0  0  0  0  0  0  0
  1  2  2  0
  2  3  1  0
  4  3  1  1
  4  5  1  0
  5  6  1  0
  6  7  1  0
  7  8  1  0
  4  9  1  0
  8  9  1  0
  9 10  1  1
 10 11  1  0
 11 12  2  0
 11 13  1  0
 13 14  1  0
 14 15  1  0
 15 16  1  0
 16 17  1  0
 13 18  1  0
 17 18  1  0
  2 19  1  0
 19 20  2  0
 20 21  1  0
 21 22  2  0
 22 23  1  0
 19 24  1  0
 23 24  2  0
M  END
