GIA-UNK-d2defdc3-3
     RDKit          3D

 25 27  0  0  0  0  0  0  0  0999 V2000
    4.7950    0.0310   19.1840 C   0  0  0  0  0  0  0  0  0  0  0  0
    5.6280    0.1040   20.3420 N   0  0  0  0  0  0  0  0  0  0  0  0
    4.8390   -0.2150   21.5200 C   0  0  0  0  0  0  0  0  0  0  0  0
    4.9520    0.8740   22.4090 C   0  0  0  0  0  0  0  0  0  0  0  0
    4.4390    2.0760   21.9490 C   0  0  0  0  0  0  0  0  0  0  0  0
    3.0280    2.2620   22.6250 C   0  0  0  0  0  0  0  0  0  0  0  0
    2.6050    1.4660   23.4810 O   0  0  0  0  0  0  0  0  0  0  0  0
    2.1910    3.4680   22.2480 N   0  0  0  0  0  0  0  0  0  0  0  0
    0.9460    3.9070   23.0320 C   0  0  2  0  0  0  0  0  0  0  0  0
    1.0730    3.9850   24.4300 C   0  0  0  0  0  0  0  0  0  0  0  0
   -0.1350    4.6060   25.1620 C   0  0  0  0  0  0  0  0  0  0  0  0
   -1.4300    4.1390   24.5190 C   0  0  0  0  0  0  0  0  0  0  0  0
   -1.2550    3.0950   23.5950 C   0  0  0  0  0  0  0  0  0  0  0  0
   -0.2370    3.2410   22.6430 C   0  0  1  0  0  0  0  0  0  0  0  0
   -0.7140    4.1230   21.5690 N   0  0  0  0  0  0  0  0  0  0  0  0
   -0.4450    3.6380   20.2270 C   0  0  0  0  0  0  0  0  0  0  0  0
   -0.0340    2.3930   19.8300 O   0  0  0  0  0  0  0  0  0  0  0  0
   -0.6490    4.6010   19.2280 C   0  0  0  0  0  0  0  0  0  0  0  0
    0.0210    5.8260   19.3350 C   0  0  0  0  0  0  0  0  0  0  0  0
   -0.2150    6.6240   18.2270 C   0  0  0  0  0  0  0  0  0  0  0  0
   -1.0840    6.0700   17.2880 C   0  0  0  0  0  0  0  0  0  0  0  0
   -2.2000    5.4240   17.8080 C   0  0  0  0  0  0  0  0  0  0  0  0
   -2.1090    4.7900   19.0410 C   0  0  0  0  0  0  0  0  0  0  0  0
    4.8350    2.1050   20.5860 C   0  0  0  0  0  0  0  0  0  0  0  0
    6.0180    1.4010   20.4090 C   0  0  0  0  0  0  0  0  0  0  0  0
  1  2  1  0
  2  3  1  0
  3  4  1  0
  4  5  1  0
  5  6  1  0
  6  7  2  0
  6  8  1  0
  9  8  1  1
  9 10  1  0
 10 11  1  0
 11 12  1  0
 12 13  1  0
  9 14  1  0
 13 14  1  0
 14 15  1  6
 15 16  1  0
 16 17  2  0
 16 18  1  0
 18 19  1  0
 19 20  1  0
 20 21  1  0
 21 22  1  0
 18 23  1  0
 22 23  1  0
  5 24  1  0
  2 25  1  0
 24 25  1  0
M  END
