GIA-UNK-995df016-7
     RDKit          3D

 15 15  0  0  0  0  0  0  0  0999 V2000
    6.6120   -0.8240   18.7320 C   0  0  0  0  0  0  0  0  0  0  0  0
    5.8670   -1.9970   18.8960 C   0  0  0  0  0  0  0  0  0  0  0  0
    5.9050   -2.7790   20.0640 C   0  0  0  0  0  0  0  0  0  0  0  0
    5.4420   -4.1250   19.8280 O   0  0  0  0  0  0  0  0  0  0  0  0
    6.3480   -2.3330   21.2380 N   0  0  0  0  0  0  0  0  0  0  0  0
    6.4560   -3.3880   22.1150 C   0  0  0  0  0  0  0  0  0  0  0  0
    7.5300   -3.5690   22.8970 C   0  0  0  0  0  0  0  0  0  0  0  0
    8.7160   -2.7990   22.5310 C   0  0  0  0  0  0  0  0  0  0  0  0
    9.8910   -2.8470   23.2820 C   0  0  0  0  0  0  0  0  0  0  0  0
   10.0540   -3.5470   24.2460 O   0  0  0  0  0  0  0  0  0  0  0  0
   11.1990   -1.8290   22.7060 S   0  0  0  0  0  0  0  0  0  0  0  0
   12.0560   -1.7170   24.2810 C   0  0  0  0  0  0  0  0  0  0  0  0
   12.7980   -2.8340   24.4940 F   0  0  0  0  0  0  0  0  0  0  0  0
    8.3080   -1.3530   22.3060 C   0  0  0  0  0  0  0  0  0  0  0  0
    7.4010   -1.2930   21.2310 C   0  0  0  0  0  0  0  0  0  0  0  0
  1  2  1  0
  2  3  1  0
  3  4  2  0
  3  5  1  0
  5  6  1  0
  6  7  1  0
  7  8  1  0
  8  9  1  0
  9 10  2  0
  9 11  1  0
 11 12  1  0
 12 13  1  0
  8 14  1  0
  5 15  1  0
 14 15  1  0
M  END
