GIA-UNK-5ec6c2b8-4
     RDKit          3D

 18 19  0  0  0  0  0  0  0  0999 V2000
    4.3260   -3.1130   25.3400 O   0  0  0  0  0  0  0  0  0  0  0  0
    5.7150   -2.9640   25.5370 C   0  0  0  0  0  0  0  0  0  0  0  0
    6.4290   -2.1900   26.9510 S   0  0  0  0  0  0  0  0  0  0  0  0
    6.5650   -3.5110   24.4210 C   0  0  0  0  0  0  0  0  0  0  0  0
    6.8500   -2.6060   23.3980 C   0  0  0  0  0  0  0  0  0  0  0  0
    7.5870   -3.2640   22.4420 C   0  0  0  0  0  0  0  0  0  0  0  0
    6.9290   -4.2580   21.8360 N   0  0  0  0  0  0  0  0  0  0  0  0
    5.5810   -3.7400   20.9300 S   0  0  0  0  0  0  0  0  0  0  0  0
    4.4750   -3.6340   21.8360 O   0  0  0  0  0  0  0  0  0  0  0  0
    5.4460   -4.6440   19.8050 O   0  0  0  0  0  0  0  0  0  0  0  0
    5.9920   -2.1300   20.2700 C   0  0  0  0  0  0  0  0  0  0  0  0
    6.7750   -1.1760   20.9320 C   0  0  0  0  0  0  0  0  0  0  0  0
    7.0690    0.1190   20.3180 C   0  0  0  0  0  0  0  0  0  0  0  0
    6.5610    0.3710   19.0920 C   0  0  0  0  0  0  0  0  0  0  0  0
    5.7490   -0.6340   18.4260 C   0  0  0  0  0  0  0  0  0  0  0  0
    5.4910   -1.8210   19.0030 C   0  0  0  0  0  0  0  0  0  0  0  0
    6.5620   -5.3450   22.7730 C   0  0  0  0  0  0  0  0  0  0  0  0
    5.8710   -4.7790   23.8600 C   0  0  0  0  0  0  0  0  0  0  0  0
  1  2  2  0
  2  3  1  0
  2  4  1  0
  4  5  1  0
  5  6  1  0
  6  7  1  0
  7  8  1  0
  8  9  2  0
  8 10  2  0
  8 11  1  0
 11 12  2  0
 12 13  1  0
 13 14  2  0
 14 15  1  0
 11 16  1  0
 15 16  2  0
  7 17  1  0
  4 18  1  0
 17 18  1  0
M  END
