GIA-UNK-3f36037a-3
     RDKit          3D

 18 18  0  0  0  0  0  0  0  0999 V2000
    5.5020   -3.1460   18.9120 O   0  0  0  0  0  0  0  0  0  0  0  0
    5.8290   -3.1390   20.0830 C   0  0  0  0  0  0  0  0  0  0  0  0
    6.1040   -1.8430   20.8520 C   0  0  0  0  0  0  0  0  0  0  0  0
    5.4400   -0.4430   19.9470 Cl  0  0  0  0  0  0  0  0  0  0  0  0
    5.9530   -4.4730   20.8090 C   0  0  0  0  0  0  0  0  0  0  0  0
    6.7840   -4.4680   21.9270 N   0  0  0  0  0  0  0  0  0  0  0  0
    7.5570   -3.3450   22.4810 C   0  0  0  0  0  0  0  0  0  0  0  0
    8.7420   -2.7610   21.9700 O   0  0  0  0  0  0  0  0  0  0  0  0
    7.0780   -2.8060   23.6690 C   0  0  0  0  0  0  0  0  0  0  0  0
    6.0720   -3.6010   24.2130 C   0  0  0  0  0  0  0  0  0  0  0  0
    5.8650   -4.7160   23.7320 O   0  0  0  0  0  0  0  0  0  0  0  0
    5.2770   -3.1470   25.2970 N   0  0  0  0  0  0  0  0  0  0  0  0
    5.2580   -3.7470   26.5380 C   0  0  0  0  0  0  0  0  0  0  0  0
    6.4380   -3.5110   27.1420 C   0  0  0  0  0  0  0  0  0  0  0  0
    6.6690   -4.5030   28.0990 C   0  0  0  0  0  0  0  0  0  0  0  0
    5.7630   -4.4750   29.0920 C   0  0  0  0  0  0  0  0  0  0  0  0
    4.4390   -4.3270   28.7480 C   0  0  0  0  0  0  0  0  0  0  0  0
    4.2340   -3.5860   27.4450 C   0  0  0  0  0  0  0  0  0  0  0  0
  1  2  2  0
  2  3  1  0
  3  4  1  0
  2  5  1  0
  5  6  1  0
  6  7  1  0
  7  8  2  0
  7  9  1  0
  9 10  1  0
 10 11  2  0
 10 12  1  0
 12 13  1  0
 13 14  1  0
 14 15  1  0
 15 16  1  0
 16 17  1  0
 13 18  1  0
 17 18  1  0
M  END
