GIA-UNK-995df016-3
     RDKit          3D

 16 17  0  0  0  0  0  0  0  0999 V2000
    5.7710    1.3680   22.0150 O   0  0  0  0  0  0  0  0  0  0  0  0
    5.7910    0.2630   22.5490 C   0  0  0  0  0  0  0  0  0  0  0  0
    5.3130    0.0900   24.2340 S   0  0  0  0  0  0  0  0  0  0  0  0
    5.8160    1.7360   24.7650 C   0  0  0  0  0  0  0  0  0  0  0  0
    4.8510    2.2740   25.5810 F   0  0  0  0  0  0  0  0  0  0  0  0
    6.2210   -0.9880   21.7920 C   0  0  0  0  0  0  0  0  0  0  0  0
    6.1510   -2.1070   22.6260 C   0  0  0  0  0  0  0  0  0  0  0  0
    7.1360   -3.1200   22.1680 C   0  0  0  0  0  0  0  0  0  0  0  0
    8.4800   -2.7260   22.1060 N   0  0  0  0  0  0  0  0  0  0  0  0
    9.0970   -3.2080   23.3070 C   0  0  0  0  0  0  0  0  0  0  0  0
   10.4360   -3.1110   23.7920 O   0  0  0  0  0  0  0  0  0  0  0  0
    8.1850   -3.8600   24.1000 C   0  0  0  0  0  0  0  0  0  0  0  0
    7.0770   -4.5190   23.5300 C   0  0  0  0  0  0  0  0  0  0  0  0
    7.8870   -5.5370   23.9690 C   0  0  0  0  0  0  0  0  0  0  0  0
    8.6010   -1.4240   21.7980 C   0  0  0  0  0  0  0  0  0  0  0  0
    7.6060   -0.7070   21.1490 C   0  0  0  0  0  0  0  0  0  0  0  0
  1  2  2  0
  2  3  1  0
  3  4  1  0
  4  5  1  0
  2  6  1  0
  6  7  1  0
  7  8  1  0
  8  9  1  0
  9 10  1  0
 10 11  2  0
 10 12  1  0
 12 13  1  0
 12 14  1  0
 13 14  1  0
  9 15  1  0
  6 16  1  0
 15 16  1  0
M  END
