GIA-UNK-eaadd1d4-1
     RDKit          3D

 22 24  0  0  0  0  0  0  0  0999 V2000
    8.7600   -2.8140   23.3220 O   0  0  0  0  0  0  0  0  0  0  0  0
    7.7130   -3.4270   23.4760 C   0  0  0  0  0  0  0  0  0  0  0  0
    7.0550   -3.6720   24.8040 C   0  0  0  0  0  0  0  0  0  0  0  0
    6.3860   -4.5850   25.1260 C   0  0  0  0  0  0  0  0  0  0  0  0
    5.9140   -4.7730   26.1790 C   0  0  0  0  0  0  0  0  0  0  0  0
    6.2560   -3.7550   27.0230 C   0  0  0  0  0  0  0  0  0  0  0  0
    5.6170   -5.0910   26.4790 C   0  0  0  0  0  0  0  0  0  0  0  0
    6.3260   -4.9330   24.7110 C   0  0  0  0  0  0  0  0  0  0  0  0
    6.9190   -4.0350   22.4400 N   0  0  0  0  0  0  0  0  0  0  0  0
    6.6300   -5.4060   22.3460 C   0  0  0  0  0  0  0  0  0  0  0  0
    5.3800   -5.8970   22.7430 C   0  0  0  0  0  0  0  0  0  0  0  0
    4.6340   -4.8320   23.3950 N   0  0  0  0  0  0  0  0  0  0  0  0
    3.2250   -5.1430   23.6900 C   0  0  0  0  0  0  0  0  0  0  0  0
    2.4200   -5.5400   22.8450 O   0  0  0  0  0  0  0  0  0  0  0  0
    2.8180   -4.9760   24.9990 C   0  0  0  0  0  0  0  0  0  0  0  0
    1.6550   -5.9150   25.3100 C   0  0  0  0  0  0  0  0  0  0  0  0
    0.4130   -5.6920   24.6960 C   0  0  0  0  0  0  0  0  0  0  0  0
    0.5960   -5.0150   25.9350 O   0  0  0  0  0  0  0  0  0  0  0  0
    1.1160   -3.6910   25.7960 C   0  0  0  0  0  0  0  0  0  0  0  0
    2.4170   -3.6910   25.3200 C   0  0  0  0  0  0  0  0  0  0  0  0
    4.8810   -3.5210   23.1370 C   0  0  0  0  0  0  0  0  0  0  0  0
    5.8550   -3.2710   22.1730 C   0  0  0  0  0  0  0  0  0  0  0  0
  1  2  2  0
  2  3  1  0
  3  4  2  0
  4  5  1  0
  5  6  2  0
  6  7  1  0
  3  8  1  0
  7  8  2  0
  2  9  1  0
  9 10  1  0
 10 11  1  0
 11 12  1  0
 12 13  1  0
 13 14  2  0
 13 15  1  0
 15 16  1  0
 16 17  1  0
 17 18  1  0
 18 19  1  0
 15 20  1  0
 19 20  1  0
 12 21  1  0
  9 22  1  0
 21 22  1  0
M  END
