GIA-UNK-595fac82-2
     RDKit          3D

 19 20  0  0  0  0  0  0  0  0999 V2000
    7.7080   -0.5160   30.5970 C   0  0  0  0  0  0  0  0  0  0  0  0
    6.4490   -0.9080   30.1950 N   0  0  0  0  0  0  0  0  0  0  0  0
    6.1660   -1.9610   29.2960 C   0  0  0  0  0  0  0  0  0  0  0  0
    6.4260   -1.8590   28.1020 O   0  0  0  0  0  0  0  0  0  0  0  0
    5.6570   -2.9350   29.8430 O   0  0  0  0  0  0  0  0  0  0  0  0
    5.6360   -4.1790   29.0860 C   0  0  0  0  0  0  0  0  0  0  0  0
    6.5670   -4.3290   28.1270 C   0  0  0  0  0  0  0  0  0  0  0  0
    6.2620   -3.8590   26.8520 C   0  0  0  0  0  0  0  0  0  0  0  0
    5.2010   -3.1640   26.5410 N   0  0  0  0  0  0  0  0  0  0  0  0
    5.0950   -2.8350   25.2360 C   0  0  0  0  0  0  0  0  0  0  0  0
    4.4550   -1.8850   24.8260 O   0  0  0  0  0  0  0  0  0  0  0  0
    5.8060   -3.7180   24.1990 C   0  0  0  0  0  0  0  0  0  0  0  0
    6.9370   -3.2200   23.6890 C   0  0  0  0  0  0  0  0  0  0  0  0
    7.6860   -4.0120   22.6660 C   0  0  0  0  0  0  0  0  0  0  0  0
    7.2120   -5.3760   22.1730 C   0  0  0  0  0  0  0  0  0  0  0  0
    5.9220   -5.7840   22.8510 C   0  0  0  0  0  0  0  0  0  0  0  0
    5.3080   -4.9620   23.7960 C   0  0  0  0  0  0  0  0  0  0  0  0
    4.1620   -3.1560   27.4590 C   0  0  0  0  0  0  0  0  0  0  0  0
    4.2720   -4.2810   28.4690 C   0  0  0  0  0  0  0  0  0  0  0  0
  1  2  1  0
  2  3  1  0
  3  4  2  0
  3  5  1  0
  5  6  1  0
  6  7  1  0
  7  8  1  0
  8  9  1  0
  9 10  1  0
 10 11  2  0
 10 12  1  0
 12 13  2  0
 13 14  1  0
 14 15  2  0
 15 16  1  0
 12 17  1  0
 16 17  2  0
  9 18  1  0
  6 19  1  0
 18 19  1  0
M  END
