GIA-UNK-d2defdc3-6
     RDKit          3D

 21 23  0  0  0  0  0  0  0  0999 V2000
    3.8460    0.1900   20.4050 O   0  0  0  0  0  0  0  0  0  0  0  0
    3.8420    0.9370   21.3690 C   0  0  0  0  0  0  0  0  0  0  0  0
    3.1830    2.3470   21.2860 C   0  0  1  0  0  0  0  0  0  0  0  0
    3.0300    2.8080   19.9660 C   0  0  0  0  0  0  0  0  0  0  0  0
    1.7030    3.1390   19.7270 C   0  0  0  0  0  0  0  0  0  0  0  0
    0.9830    2.7610   20.8320 C   0  0  0  0  0  0  0  0  0  0  0  0
    1.9400    2.4230   21.9040 N   0  0  0  0  0  0  0  0  0  0  0  0
    1.8610    3.0720   23.1190 C   0  0  0  0  0  0  0  0  0  0  0  0
    3.0470    3.3260   23.9100 O   0  0  0  0  0  0  0  0  0  0  0  0
    0.4910    3.5320   23.5990 C   0  0  0  0  0  0  0  0  0  0  0  0
    0.3560    4.6310   24.4670 C   0  0  0  0  0  0  0  0  0  0  0  0
   -0.8770    5.0910   24.9280 C   0  0  0  0  0  0  0  0  0  0  0  0
   -2.0160    4.4320   24.5070 C   0  0  0  0  0  0  0  0  0  0  0  0
   -1.9270    3.3370   23.6480 C   0  0  0  0  0  0  0  0  0  0  0  0
   -0.6890    2.8560   23.1710 C   0  0  0  0  0  0  0  0  0  0  0  0
    4.4180    0.6030   22.5670 N   0  0  0  0  0  0  0  0  0  0  0  0
    5.8080    0.8500   22.8430 C   0  0  0  0  0  0  0  0  0  0  0  0
    6.4750   -0.1340   23.8200 C   0  0  0  0  0  0  0  0  0  0  0  0
    5.6280   -0.4720   24.9380 O   0  0  0  0  0  0  0  0  0  0  0  0
    4.3150   -0.8770   24.5410 C   0  0  0  0  0  0  0  0  0  0  0  0
    3.5950    0.2320   23.7300 C   0  0  0  0  0  0  0  0  0  0  0  0
  1  2  2  0
  3  2  1  6
  3  4  1  0
  4  5  1  0
  5  6  1  0
  3  7  1  0
  6  7  1  0
  7  8  1  0
  8  9  2  0
  8 10  1  0
 10 11  2  0
 11 12  1  0
 12 13  2  0
 13 14  1  0
 10 15  1  0
 14 15  2  0
  2 16  1  0
 16 17  1  0
 17 18  1  0
 18 19  1  0
 19 20  1  0
 16 21  1  0
 20 21  1  0
M  END
