GIA-UNK-3f36037a-4
     RDKit          3D

 18 18  0  0  0  0  0  0  0  0999 V2000
    6.9060   -1.6400   20.8520 O   0  0  0  0  0  0  0  0  0  0  0  0
    6.2840   -2.4080   20.1090 C   0  0  0  0  0  0  0  0  0  0  0  0
    5.8300   -1.9260   18.9420 C   0  0  0  0  0  0  0  0  0  0  0  0
    5.9800   -0.1600   18.9700 Cl  0  0  0  0  0  0  0  0  0  0  0  0
    6.0400   -3.8660   20.5350 C   0  0  0  0  0  0  0  0  0  0  0  0
    6.8200   -4.3850   21.5270 N   0  0  0  0  0  0  0  0  0  0  0  0
    7.4790   -3.4990   22.3010 C   0  0  0  0  0  0  0  0  0  0  0  0
    8.6850   -3.2870   22.2260 O   0  0  0  0  0  0  0  0  0  0  0  0
    6.8580   -2.7490   23.2620 C   0  0  0  0  0  0  0  0  0  0  0  0
    6.1720   -3.6070   24.1090 C   0  0  0  0  0  0  0  0  0  0  0  0
    5.9150   -4.7330   23.6880 O   0  0  0  0  0  0  0  0  0  0  0  0
    5.8220   -3.1030   25.3720 N   0  0  0  0  0  0  0  0  0  0  0  0
    6.0830   -3.7730   26.5340 C   0  0  0  0  0  0  0  0  0  0  0  0
    7.1170   -4.8810   26.4690 C   0  0  0  0  0  0  0  0  0  0  0  0
    7.3890   -5.6160   27.7650 C   0  0  0  0  0  0  0  0  0  0  0  0
    6.5800   -5.1400   28.9450 C   0  0  0  0  0  0  0  0  0  0  0  0
    5.6510   -4.0840   28.8140 C   0  0  0  0  0  0  0  0  0  0  0  0
    5.3710   -3.3740   27.6570 C   0  0  0  0  0  0  0  0  0  0  0  0
  1  2  2  0
  2  3  1  0
  3  4  1  0
  2  5  1  0
  5  6  1  0
  6  7  1  0
  7  8  2  0
  7  9  1  0
  9 10  1  0
 10 11  2  0
 10 12  1  0
 12 13  1  0
 13 14  2  0
 14 15  1  0
 15 16  2  0
 16 17  1  0
 13 18  1  0
 17 18  2  0
M  END
