GIA-UNK-595fac82-3
     RDKit          3D

 19 20  0  0  0  0  0  0  0  0999 V2000
    6.9940    0.0090   31.1560 C   0  0  0  0  0  0  0  0  0  0  0  0
    5.9860   -0.7680   30.4850 N   0  0  0  0  0  0  0  0  0  0  0  0
    6.3270   -1.8690   29.7720 C   0  0  0  0  0  0  0  0  0  0  0  0
    7.3290   -1.9580   29.0870 O   0  0  0  0  0  0  0  0  0  0  0  0
    5.3890   -2.8490   29.9630 O   0  0  0  0  0  0  0  0  0  0  0  0
    5.5860   -4.1720   29.3780 C   0  0  0  0  0  0  0  0  0  0  0  0
    6.7240   -4.1330   28.4220 C   0  0  0  0  0  0  0  0  0  0  0  0
    6.4110   -3.1470   27.3040 C   0  0  0  0  0  0  0  0  0  0  0  0
    5.3110   -3.6490   26.5600 N   0  0  0  0  0  0  0  0  0  0  0  0
    5.1080   -3.2270   25.2610 C   0  0  0  0  0  0  0  0  0  0  0  0
    4.2460   -2.4100   24.9760 O   0  0  0  0  0  0  0  0  0  0  0  0
    5.9160   -3.7350   24.1400 C   0  0  0  0  0  0  0  0  0  0  0  0
    7.0030   -2.9880   23.6920 C   0  0  0  0  0  0  0  0  0  0  0  0
    7.8980   -3.2730   22.6390 C   0  0  0  0  0  0  0  0  0  0  0  0
    7.3960   -4.4860   22.1770 N   0  0  0  0  0  0  0  0  0  0  0  0
    6.3650   -5.2540   22.5620 C   0  0  0  0  0  0  0  0  0  0  0  0
    5.5640   -4.9150   23.5730 C   0  0  0  0  0  0  0  0  0  0  0  0
    4.1240   -3.7530   27.3870 C   0  0  0  0  0  0  0  0  0  0  0  0
    4.3450   -4.6020   28.6280 C   0  0  0  0  0  0  0  0  0  0  0  0
  1  2  1  0
  2  3  1  0
  3  4  2  0
  3  5  1  0
  5  6  1  0
  6  7  1  0
  7  8  1  0
  8  9  1  0
  9 10  1  0
 10 11  2  0
 10 12  1  0
 12 13  2  0
 13 14  1  0
 14 15  2  0
 15 16  1  0
 12 17  1  0
 16 17  2  0
  9 18  1  0
  6 19  1  0
 18 19  1  0
M  END
