GIA-UNK-30c7cb75-4
     RDKit          3D

 20 22  0  0  0  0  0  0  0  0999 V2000
    2.5370    1.6190   24.5270 O   0  0  0  0  0  0  0  0  0  0  0  0
    2.3630    2.5200   23.7080 C   0  0  0  0  0  0  0  0  0  0  0  0
    3.3840    2.6930   22.5930 C   0  0  1  0  0  0  0  0  0  0  0  0
    4.3510    3.8400   22.7940 C   0  0  0  0  0  0  0  0  0  0  0  0
    5.5950    3.6320   21.9790 C   0  0  0  0  0  0  0  0  0  0  0  0
    6.2010    2.4440   22.3550 C   0  0  0  0  0  0  0  0  0  0  0  0
    5.3080    1.4080   21.8140 N   0  0  0  0  0  0  0  0  0  0  0  0
    5.5030    1.0490   20.4330 C   0  0  0  0  0  0  0  0  0  0  0  0
    6.4560   -0.1180   20.1250 C   0  0  0  0  0  0  0  0  0  0  0  0
    6.6500   -0.4520   18.6800 C   0  0  0  0  0  0  0  0  0  0  0  0
    5.9890    0.2800   17.7300 N   0  0  0  0  0  0  0  0  0  0  0  0
    5.1260    1.3320   18.0430 C   0  0  0  0  0  0  0  0  0  0  0  0
    4.8920    1.7010   19.3530 C   0  0  0  0  0  0  0  0  0  0  0  0
    4.0830    1.3410   22.3360 C   0  0  0  0  0  0  0  0  0  0  0  0
    1.2390    3.3960   23.8060 N   0  0  0  0  0  0  0  0  0  0  0  0
    0.3340    3.1060   24.7820 C   0  0  0  0  0  0  0  0  0  0  0  0
   -0.7990    2.5560   24.1770 C   0  0  0  0  0  0  0  0  0  0  0  0
   -1.4940    3.4770   23.4300 C   0  0  0  0  0  0  0  0  0  0  0  0
   -0.6720    4.7410   23.3550 C   0  0  0  0  0  0  0  0  0  0  0  0
    0.6470    4.3180   22.9650 C   0  0  0  0  0  0  0  0  0  0  0  0
  1  2  2  0
  3  2  1  1
  3  4  1  0
  4  5  1  0
  5  6  1  0
  6  7  1  0
  7  8  1  0
  8  9  2  0
  9 10  1  0
 10 11  2  0
 11 12  1  0
  8 13  1  0
 12 13  2  0
  3 14  1  0
  7 14  1  0
  2 15  1  0
 15 16  1  0
 16 17  1  0
 17 18  1  0
 18 19  1  0
 15 20  1  0
 19 20  1  0
M  END
