GIA-UNK-30c7cb75-3
     RDKit          3D

 22 24  0  0  0  0  0  0  0  0999 V2000
    5.4870   -0.5840   22.4280 O   0  0  0  0  0  0  0  0  0  0  0  0
    5.0890    0.3380   21.7220 C   0  0  0  0  0  0  0  0  0  0  0  0
    4.6620    0.0760   20.2410 C   0  0  0  0  0  0  0  0  0  0  0  0
    5.5620   -1.0260   19.6260 C   0  0  0  0  0  0  0  0  0  0  0  0
    6.4000   -0.4240   18.6890 C   0  0  0  0  0  0  0  0  0  0  0  0
    6.6650    0.8460   18.9770 N   0  0  0  0  0  0  0  0  0  0  0  0
    7.3390    0.9300   20.1820 C   0  0  0  0  0  0  0  0  0  0  0  0
    7.9120   -0.2180   20.7160 C   0  0  0  0  0  0  0  0  0  0  0  0
    8.6180   -0.2490   21.9090 C   0  0  0  0  0  0  0  0  0  0  0  0
    8.8920    0.7460   22.7720 N   0  0  0  0  0  0  0  0  0  0  0  0
    8.3690    1.9570   22.3710 C   0  0  0  0  0  0  0  0  0  0  0  0
    7.5730    2.1480   21.0890 C   0  0  0  0  0  0  0  0  0  0  0  0
    5.5750    1.6050   18.8100 C   0  0  0  0  0  0  0  0  0  0  0  0
    4.4230    1.0400   19.2450 C   0  0  0  0  0  0  0  0  0  0  0  0
    4.9820    1.6260   22.1570 N   0  0  0  0  0  0  0  0  0  0  0  0
    4.1650    2.5170   21.6320 C   0  0  0  0  0  0  0  0  0  0  0  0
    4.0040    3.8410   22.0810 C   0  0  0  0  0  0  0  0  0  0  0  0
    3.9410    4.0010   23.7910 S   0  0  0  0  0  0  0  0  0  0  0  0
    2.6110    4.4500   24.1540 O   0  0  0  0  0  0  0  0  0  0  0  0
    5.1350    4.6900   24.2330 O   0  0  0  0  0  0  0  0  0  0  0  0
    4.0880    2.3330   24.1530 C   0  0  0  0  0  0  0  0  0  0  0  0
    5.2570    1.8490   23.5670 C   0  0  0  0  0  0  0  0  0  0  0  0
  1  2  2  0
  2  3  1  0
  3  4  1  0
  4  5  1  0
  5  6  1  0
  6  7  1  0
  7  8  2  0
  8  9  1  0
  9 10  2  0
 10 11  1  0
  7 12  1  0
 11 12  2  0
  6 13  1  0
  3 14  1  0
 13 14  1  0
  2 15  1  0
 15 16  1  0
 16 17  1  0
 18 17  1  0
 18 19  2  0
 18 20  2  0
 18 21  1  0
 15 22  1  0
 21 22  1  0
M  END
