GIA-UNK-d2defdc3-4
     RDKit          3D

 25 27  0  0  0  0  0  0  0  0999 V2000
    4.9220   -0.2930   19.1360 C   0  0  0  0  0  0  0  0  0  0  0  0
    5.8210   -0.0690   20.2480 N   0  0  0  0  0  0  0  0  0  0  0  0
    5.3610   -0.5060   21.5700 C   0  0  0  0  0  0  0  0  0  0  0  0
    4.8600    0.6190   22.4370 C   0  0  0  0  0  0  0  0  0  0  0  0
    3.8520    1.4530   21.7040 C   0  0  0  0  0  0  0  0  0  0  0  0
    3.1640    2.3870   22.5860 C   0  0  0  0  0  0  0  0  0  0  0  0
    3.6440    2.5080   23.7150 O   0  0  0  0  0  0  0  0  0  0  0  0
    1.9460    3.0910   22.2850 N   0  0  0  0  0  0  0  0  0  0  0  0
    0.9760    3.2180   23.2880 C   0  0  1  0  0  0  0  0  0  0  0  0
    0.9380    4.4740   24.1890 C   0  0  0  0  0  0  0  0  0  0  0  0
   -0.3830    4.7240   24.9110 C   0  0  0  0  0  0  0  0  0  0  0  0
   -1.5330    4.4780   24.1460 C   0  0  0  0  0  0  0  0  0  0  0  0
   -1.4970    3.2360   23.5070 C   0  0  0  0  0  0  0  0  0  0  0  0
   -0.3820    2.9950   22.6760 C   0  0  2  0  0  0  0  0  0  0  0  0
   -0.3320    1.7110   22.1740 N   0  0  0  0  0  0  0  0  0  0  0  0
   -1.4000    1.4090   21.3380 C   0  0  0  0  0  0  0  0  0  0  0  0
   -1.8180    2.1600   20.4720 O   0  0  0  0  0  0  0  0  0  0  0  0
   -1.9520    0.1490   21.5900 C   0  0  0  0  0  0  0  0  0  0  0  0
   -2.6230   -0.5740   20.6040 C   0  0  0  0  0  0  0  0  0  0  0  0
   -3.2440   -1.9400   20.8070 C   0  0  0  0  0  0  0  0  0  0  0  0
   -3.0340   -2.3410   22.1370 C   0  0  0  0  0  0  0  0  0  0  0  0
   -2.3700   -1.6500   23.1570 C   0  0  0  0  0  0  0  0  0  0  0  0
   -1.8300   -0.4030   22.8710 C   0  0  0  0  0  0  0  0  0  0  0  0
    4.5830    1.8160   20.3180 C   0  0  0  0  0  0  0  0  0  0  0  0
    5.9010    1.3480   20.3120 C   0  0  0  0  0  0  0  0  0  0  0  0
  1  2  1  0
  2  3  1  0
  3  4  1  0
  4  5  1  0
  5  6  1  0
  6  7  2  0
  6  8  1  0
  9  8  1  6
  9 10  1  0
 10 11  1  0
 11 12  1  0
 12 13  1  0
  9 14  1  0
 13 14  1  0
 14 15  1  1
 15 16  1  0
 16 17  2  0
 16 18  1  0
 18 19  2  0
 19 20  1  0
 20 21  2  0
 21 22  1  0
 18 23  1  0
 22 23  2  0
  5 24  1  0
  2 25  1  0
 24 25  1  0
M  END
