GIA-UNK-5ec6c2b8-2
     RDKit          3D

 17 18  0  0  0  0  0  0  0  0999 V2000
    4.4730   -2.5440   30.4860 O   0  0  0  0  0  0  0  0  0  0  0  0
    5.4910   -2.7450   29.8290 C   0  0  0  0  0  0  0  0  0  0  0  0
    6.7220   -1.4490   29.5270 S   0  0  0  0  0  0  0  0  0  0  0  0
    5.8260   -4.0510   29.2120 C   0  0  0  0  0  0  0  0  0  0  0  0
    6.7310   -4.1000   28.2850 C   0  0  0  0  0  0  0  0  0  0  0  0
    6.4480   -3.2410   27.0670 C   0  0  0  0  0  0  0  0  0  0  0  0
    5.3530   -3.7530   26.5260 N   0  0  0  0  0  0  0  0  0  0  0  0
    5.1490   -3.1240   25.3240 C   0  0  0  0  0  0  0  0  0  0  0  0
    4.6420   -1.7990   25.3840 O   0  0  0  0  0  0  0  0  0  0  0  0
    5.3950   -3.7200   23.9270 C   0  0  0  0  0  0  0  0  0  0  0  0
    6.7180   -3.1040   23.3630 C   0  0  0  0  0  0  0  0  0  0  0  0
    7.8240   -4.0960   22.9490 C   0  0  0  0  0  0  0  0  0  0  0  0
    7.3210   -5.3590   22.5530 C   0  0  0  0  0  0  0  0  0  0  0  0
    5.8310   -5.6080   22.5850 C   0  0  0  0  0  0  0  0  0  0  0  0
    5.3880   -5.1080   23.9180 C   0  0  0  0  0  0  0  0  0  0  0  0
    4.2290   -3.8030   27.4580 C   0  0  0  0  0  0  0  0  0  0  0  0
    4.5560   -4.5710   28.5770 C   0  0  0  0  0  0  0  0  0  0  0  0
  1  2  2  0
  2  3  1  0
  2  4  1  0
  4  5  1  0
  5  6  1  0
  6  7  1  0
  7  8  1  0
  8  9  2  0
  8 10  1  0
 10 11  1  0
 11 12  1  0
 12 13  1  0
 13 14  1  0
 10 15  1  0
 14 15  1  0
  7 16  1  0
  4 17  1  0
 16 17  1  0
M  END
