GIA-UNK-30c7cb75-5
     RDKit          3D

 20 22  0  0  0  0  0  0  0  0999 V2000
    2.7130    1.6490   24.3640 O   0  0  0  0  0  0  0  0  0  0  0  0
    2.6130    2.6880   23.6790 C   0  0  0  0  0  0  0  0  0  0  0  0
    3.7690    3.1370   23.0670 C   0  0  2  0  0  0  0  0  0  0  0  0
    3.6310    4.1040   21.9500 C   0  0  0  0  0  0  0  0  0  0  0  0
    2.9170    3.3920   20.7830 C   0  0  0  0  0  0  0  0  0  0  0  0
    2.7680    2.0700   21.1180 C   0  0  0  0  0  0  0  0  0  0  0  0
    3.9350    1.3830   21.3400 N   0  0  0  0  0  0  0  0  0  0  0  0
    4.7720    1.0090   20.2080 C   0  0  0  0  0  0  0  0  0  0  0  0
    5.7650    0.0140   20.3420 C   0  0  0  0  0  0  0  0  0  0  0  0
    6.5970   -0.3080   19.0740 C   0  0  0  0  0  0  0  0  0  0  0  0
    6.3930    0.3290   17.8710 N   0  0  0  0  0  0  0  0  0  0  0  0
    5.4090    1.2750   17.8390 C   0  0  0  0  0  0  0  0  0  0  0  0
    4.5770    1.6370   18.9980 C   0  0  0  0  0  0  0  0  0  0  0  0
    4.5390    1.8890   22.4900 C   0  0  0  0  0  0  0  0  0  0  0  0
    1.3210    3.3670   23.5700 N   0  0  0  0  0  0  0  0  0  0  0  0
    0.3120    2.7360   24.1370 C   0  0  0  0  0  0  0  0  0  0  0  0
   -0.8610    2.6550   23.4110 C   0  0  0  0  0  0  0  0  0  0  0  0
   -1.4390    3.7260   23.4630 O   0  0  0  0  0  0  0  0  0  0  0  0
   -0.5830    4.7960   23.9240 C   0  0  0  0  0  0  0  0  0  0  0  0
    0.9520    4.6830   23.7500 C   0  0  0  0  0  0  0  0  0  0  0  0
  1  2  2  0
  3  2  1  6
  3  4  1  0
  4  5  1  0
  5  6  1  0
  6  7  1  0
  7  8  1  0
  8  9  2  0
  9 10  1  0
 10 11  2  0
 11 12  1  0
  8 13  1  0
 12 13  2  0
  3 14  1  0
  7 14  1  0
  2 15  1  0
 15 16  1  0
 16 17  1  0
 17 18  1  0
 18 19  1  0
 15 20  1  0
 19 20  1  0
M  END
