GIA-UNK-995df016-14
     RDKit          3D

 20 21  0  0  0  0  0  0  0  0999 V2000
    5.4810   -1.9960   18.9040 O   0  0  0  0  0  0  0  0  0  0  0  0
    6.0080   -1.0710   19.5060 C   0  0  0  0  0  0  0  0  0  0  0  0
    6.4430    0.4810   18.6840 S   0  0  0  0  0  0  0  0  0  0  0  0
    4.8090    1.1750   18.5100 C   0  0  0  0  0  0  0  0  0  0  0  0
    4.2540    1.3560   19.7410 F   0  0  0  0  0  0  0  0  0  0  0  0
    6.3240   -1.1840   20.9900 C   0  0  0  0  0  0  0  0  0  0  0  0
    5.9870   -2.4330   21.5010 C   0  0  0  0  0  0  0  0  0  0  0  0
    6.5430   -2.7640   22.7110 C   0  0  0  0  0  0  0  0  0  0  0  0
    7.9480   -2.4290   22.8460 N   0  0  0  0  0  0  0  0  0  0  0  0
    8.5890   -3.3210   23.6550 C   0  0  0  0  0  0  0  0  0  0  0  0
    9.9550   -3.1900   24.0600 O   0  0  0  0  0  0  0  0  0  0  0  0
    7.7180   -4.3660   24.0070 C   0  0  0  0  0  0  0  0  0  0  0  0
    7.6960   -5.6300   23.7250 C   0  0  0  0  0  0  0  0  0  0  0  0
    6.6140   -5.3590   24.5320 C   0  0  0  0  0  0  0  0  0  0  0  0
    6.8930   -3.8530   24.7050 C   0  0  0  0  0  0  0  0  0  0  0  0
    5.9990   -3.2510   25.4520 C   0  0  0  0  0  0  0  0  0  0  0  0
    6.3840   -4.4260   24.9000 C   0  0  0  0  0  0  0  0  0  0  0  0
    5.6600   -5.5360   25.1190 F   0  0  0  0  0  0  0  0  0  0  0  0
    8.6040   -1.6670   21.7810 C   0  0  0  0  0  0  0  0  0  0  0  0
    7.7460   -0.6690   21.2940 C   0  0  0  0  0  0  0  0  0  0  0  0
  1  2  2  0
  2  3  1  0
  3  4  1  0
  4  5  1  0
  2  6  1  0
  6  7  1  0
  7  8  1  0
  8  9  1  0
  9 10  1  0
 10 11  2  0
 10 12  1  0
 12 13  2  0
 13 14  1  0
 14 15  2  0
 15 16  1  0
 12 17  1  0
 16 17  2  0
 17 18  1  0
  9 19  1  0
  6 20  1  0
 19 20  1  0
M  END
