GIA-UNK-995df016-1
     RDKit          3D

 16 16  0  0  0  0  0  0  0  0999 V2000
    7.4790   -0.9010   19.5740 C   0  0  0  0  0  0  0  0  0  0  0  0
    6.1190   -1.5760   19.6330 C   0  0  0  0  0  0  0  0  0  0  0  0
    5.6120   -1.7620   18.4070 C   0  0  0  0  0  0  0  0  0  0  0  0
    6.0100   -2.8310   20.4720 C   0  0  0  0  0  0  0  0  0  0  0  0
    5.5570   -3.9490   20.0950 O   0  0  0  0  0  0  0  0  0  0  0  0
    6.4760   -2.6130   21.7180 N   0  0  0  0  0  0  0  0  0  0  0  0
    6.7210   -3.6510   22.5520 C   0  0  0  0  0  0  0  0  0  0  0  0
    7.9120   -3.5550   23.2430 C   0  0  0  0  0  0  0  0  0  0  0  0
    8.8090   -2.7400   22.5550 C   0  0  0  0  0  0  0  0  0  0  0  0
   10.1210   -2.4480   22.9640 C   0  0  0  0  0  0  0  0  0  0  0  0
   11.0950   -2.8600   22.0340 O   0  0  0  0  0  0  0  0  0  0  0  0
   10.4980   -1.6040   24.3700 S   0  0  0  0  0  0  0  0  0  0  0  0
   12.1790   -1.7760   24.1180 C   0  0  0  0  0  0  0  0  0  0  0  0
   12.6940   -2.6210   25.0210 F   0  0  0  0  0  0  0  0  0  0  0  0
    8.2970   -1.3670   22.2370 C   0  0  0  0  0  0  0  0  0  0  0  0
    6.9080   -1.3600   22.0620 C   0  0  0  0  0  0  0  0  0  0  0  0
  1  2  1  0
  2  3  1  0
  2  4  1  0
  4  5  2  0
  4  6  1  0
  6  7  1  0
  7  8  1  0
  8  9  1  0
  9 10  1  0
 10 11  2  0
 10 12  1  0
 12 13  1  0
 13 14  1  0
  9 15  1  0
  6 16  1  0
 15 16  1  0
M  END
