GUZ-UNI-cc80d5b0-2
     RDKit          3D

 35 38  0  0  0  0  0  0  0  0999 V2000
   24.2840    4.3880   22.1070 C   0  0  0  0  0  0  0  0  0  0  0  0
   24.2680    3.9150   23.5890 C   0  0  0  0  0  0  0  0  0  0  0  0
   23.5740    4.6440   24.5620 C   0  0  0  0  0  0  0  0  0  0  0  0
   23.1080    3.7290   25.5960 N   0  0  0  0  0  0  0  0  0  0  0  0
   21.9020    3.8610   26.3080 C   0  0  0  0  0  0  0  0  0  0  0  0
   21.0190    4.9170   26.1510 C   0  0  0  0  0  0  0  0  0  0  0  0
   21.1690    5.8930   26.8880 O   0  0  0  0  0  0  0  0  0  0  0  0
   20.0350    4.8780   25.2290 N   0  0  0  0  0  0  0  0  0  0  0  0
   19.6980    3.6510   24.8340 C   0  0  0  0  0  0  0  0  0  0  0  0
   18.3540    3.5080   24.0870 C   0  0  0  0  0  0  0  0  0  0  0  0
   17.9410    4.6090   23.3530 N   0  0  0  0  0  0  0  0  0  0  0  0
   16.6200    4.9760   23.5370 C   0  0  0  0  0  0  0  0  0  0  0  0
   15.5250    4.6690   22.5660 C   0  0  0  0  0  0  0  0  0  0  0  0
   14.1090    4.1620   22.3670 C   0  0  0  0  0  0  0  0  0  0  0  0
   12.7870    3.6120   22.8540 C   0  0  0  0  0  0  0  0  0  0  0  0
   11.7700    2.5820   23.1930 C   0  0  0  0  0  0  0  0  0  0  0  0
   12.8240    1.3370   22.7890 C   0  0  0  0  0  0  0  0  0  0  0  0
   11.6520    0.3580   23.0920 C   0  0  0  0  0  0  0  0  0  0  0  0
   11.5510    1.6510   23.1540 C   0  0  0  0  0  0  0  0  0  0  0  0
   12.9320    2.3020   22.7820 C   0  0  0  0  0  0  0  0  0  0  0  0
   19.0730    5.5570   23.1270 C   0  0  0  0  0  0  0  0  0  0  0  0
   19.8950    5.8850   24.1910 C   0  0  0  0  0  0  0  0  0  0  0  0
   21.6620    2.8700   27.1760 C   0  0  0  0  0  0  0  0  0  0  0  0
   22.9480    1.6940   27.1500 S   0  0  0  0  0  0  0  0  0  0  0  0
   23.9750    2.8440   26.2310 C   0  0  0  0  0  0  0  0  0  0  0  0
   25.2770    2.8270   26.1970 N   0  0  0  0  0  0  0  0  0  0  0  0
   25.8580    1.8560   26.9270 N   0  0  0  0  0  0  0  0  0  0  0  0
   26.4760    2.3640   27.9470 C   0  0  0  0  0  0  0  0  0  0  0  0
   27.1640    1.5720   28.8740 C   0  0  0  0  0  0  0  0  0  0  0  0
   27.3500    2.0350   30.1190 C   0  0  0  0  0  0  0  0  0  0  0  0
   28.0460    1.2690   31.0940 C   0  0  0  0  0  0  0  0  0  0  0  0
   29.4190    1.1170   31.2580 C   0  0  0  0  0  0  0  0  0  0  0  0
   29.6370    0.2590   32.3630 C   0  0  0  0  0  0  0  0  0  0  0  0
   28.3910   -0.0750   32.8260 C   0  0  0  0  0  0  0  0  0  0  0  0
   27.4330    0.5210   32.0760 O   0  0  0  0  0  0  0  0  0  0  0  0
  1  2  2  3
  2  3  1  0
  3  4  1  0
  4  5  1  0
  5  6  1  0
  6  7  2  0
  6  8  1  0
  8  9  1  0
  9 10  1  0
 10 11  1  0
 11 12  1  0
 12 13  1  0
 13 14  2  3
 14 15  1  0
 15 16  2  0
 16 17  1  0
 17 18  2  0
 18 19  1  0
 15 20  1  0
 19 20  2  0
 11 21  1  0
  8 22  1  0
 21 22  1  0
  5 23  2  0
 23 24  1  0
  4 25  1  0
 24 25  1  0
 25 26  2  3
 26 27  1  0
 27 28  2  3
 28 29  1  0
 29 30  2  3
 30 31  1  0
 31 32  2  0
 32 33  1  0
 33 34  2  0
 31 35  1  0
 34 35  1  0
M  END
