HAN-NEW-5f56c3bc-3
     RDKit          3D

 28 30  0  0  0  0  0  0  0  0999 V2000
    9.0490    0.8090   21.4730 O   0  0  0  0  0  0  0  0  0  0  0  0
    8.5420   -0.2800   21.7230 C   0  0  0  0  0  0  0  0  0  0  0  0
    9.0520   -1.2090   22.6180 N   0  0  0  0  0  0  0  0  0  0  0  0
   10.3970   -1.3190   22.9980 C   0  0  0  0  0  0  0  0  0  0  0  0
   10.8530   -1.3770   24.2900 C   0  0  0  0  0  0  0  0  0  0  0  0
   12.2160   -1.4840   24.5420 C   0  0  0  0  0  0  0  0  0  0  0  0
   13.1190   -1.5250   23.5130 C   0  0  0  0  0  0  0  0  0  0  0  0
   12.6850   -1.4680   22.2140 C   0  0  0  0  0  0  0  0  0  0  0  0
   11.3240   -1.3710   21.9730 C   0  0  0  0  0  0  0  0  0  0  0  0
    7.3710   -0.7430   21.1490 N   0  0  0  0  0  0  0  0  0  0  0  0
    6.6590   -0.1050   20.1030 C   0  0  0  0  0  0  0  0  0  0  0  0
    7.0450   -0.1990   18.7790 C   0  0  0  0  0  0  0  0  0  0  0  0
    6.2990    0.4640   17.8310 N   0  0  0  0  0  0  0  0  0  0  0  0
    5.1680    1.2340   18.0870 C   0  0  0  0  0  0  0  0  0  0  0  0
    4.6610    1.4100   19.3510 C   0  0  0  0  0  0  0  0  0  0  0  0
    5.5130    0.6620   20.3890 C   0  0  0  0  0  0  0  0  0  0  0  0
    4.9030    0.8850   21.7680 C   0  0  0  0  0  0  0  0  0  0  0  0
    5.2720    2.0290   22.4620 C   0  0  0  0  0  0  0  0  0  0  0  0
    4.0910    2.8940   22.6290 N   0  0  0  0  0  0  0  0  0  0  0  0
    2.8710    2.6070   23.4720 C   0  0  0  0  0  0  0  0  0  0  0  0
    2.8680    1.7640   24.3770 O   0  0  0  0  0  0  0  0  0  0  0  0
    1.8330    3.3970   23.0870 N   0  0  0  0  0  0  0  0  0  0  0  0
    0.6850    3.4190   23.8290 C   0  0  0  0  0  0  0  0  0  0  0  0
    0.5560    4.6700   24.4250 C   0  0  0  0  0  0  0  0  0  0  0  0
   -0.7950    4.9150   25.1000 C   0  0  0  0  0  0  0  0  0  0  0  0
   -1.9690    4.5880   24.1840 C   0  0  0  0  0  0  0  0  0  0  0  0
   -1.8580    3.2570   23.7690 C   0  0  0  0  0  0  0  0  0  0  0  0
   -0.5560    3.0650   22.9870 C   0  0  0  0  0  0  0  0  0  0  0  0
  1  2  2  0
  2  3  1  0
  3  4  1  0
  4  5  2  0
  5  6  1  0
  6  7  2  0
  7  8  1  0
  4  9  1  0
  8  9  2  0
  2 10  1  0
 10 11  1  0
 11 12  2  0
 12 13  1  0
 13 14  2  0
 14 15  1  0
 11 16  1  0
 15 16  2  0
 16 17  1  0
 17 18  1  0
 18 19  1  0
 19 20  1  0
 20 21  2  0
 20 22  1  0
 22 23  1  0
 23 24  1  0
 24 25  1  0
 25 26  1  0
 26 27  1  0
 23 28  1  0
 27 28  1  0
M  END
