HAR-NEW-e34cb1ae-2
     RDKit          3D

 27 29  0  0  0  0  0  0  0  0999 V2000
   13.8740   -3.9650   20.5210 C   0  0  0  0  0  0  0  0  0  0  0  0
   12.7950   -3.0060   20.8920 C   0  0  0  0  0  0  0  0  0  0  0  0
   13.0820   -1.7380   21.3040 C   0  0  0  0  0  0  0  0  0  0  0  0
   13.9820   -1.1260   20.8170 O   0  0  0  0  0  0  0  0  0  0  0  0
   12.1310   -1.1410   22.3360 C   0  0  0  0  0  0  0  0  0  0  0  0
   11.9580    0.2370   22.6900 C   0  0  0  0  0  0  0  0  0  0  0  0
   10.8860    0.3460   23.7240 C   0  0  0  0  0  0  0  0  0  0  0  0
   10.0900   -0.2750   24.3960 C   0  0  0  0  0  0  0  0  0  0  0  0
    8.9100    0.3720   25.6140 S   0  0  0  0  0  0  0  0  0  0  0  0
    7.4680   -0.5450   25.6380 N   0  0  0  0  0  0  0  0  0  0  0  0
    8.4530    1.6710   25.1600 O   0  0  0  0  0  0  0  0  0  0  0  0
    9.4590    0.1260   26.9260 O   0  0  0  0  0  0  0  0  0  0  0  0
   10.3680   -1.6020   23.9780 C   0  0  0  0  0  0  0  0  0  0  0  0
   11.3480   -0.9630   23.1010 C   0  0  0  0  0  0  0  0  0  0  0  0
   11.3510    0.4860   23.1760 C   0  0  0  0  0  0  0  0  0  0  0  0
   10.6800    1.6730   23.8340 C   0  0  0  0  0  0  0  0  0  0  0  0
   11.3500    2.9080   23.4190 N   0  0  0  0  0  0  0  0  0  0  0  0
   10.6940   -0.6280   23.7220 N   0  0  0  0  0  0  0  0  0  0  0  0
    9.6950   -0.6530   24.6360 C   0  0  0  0  0  0  0  0  0  0  0  0
    8.6770   -1.6290   24.1690 N   0  0  0  0  0  0  0  0  0  0  0  0
    8.9700   -2.8700   23.8210 C   0  0  0  0  0  0  0  0  0  0  0  0
    8.0010   -3.8240   24.0610 C   0  0  0  0  0  0  0  0  0  0  0  0
    7.1390   -3.2950   25.0040 C   0  0  0  0  0  0  0  0  0  0  0  0
    6.3950   -4.2500   25.7650 O   0  0  0  0  0  0  0  0  0  0  0  0
    6.3570   -2.3510   24.4910 C   0  0  0  0  0  0  0  0  0  0  0  0
    7.2300   -1.3160   24.0390 C   0  0  0  0  0  0  0  0  0  0  0  0
   11.2350   -1.8700   23.1210 C   0  0  0  0  0  0  0  0  0  0  0  0
  1  2  3  0
  2  3  1  0
  3  4  2  0
  3  5  1  0
  5  6  2  0
  6  7  1  0
  7  8  2  0
  8  9  1  0
  9 10  1  0
  9 11  2  0
  9 12  2  0
  8 13  1  0
 13 14  1  0
 14 15  2  0
 15 16  1  0
 16 17  1  0
 15 18  1  0
 18 19  1  0
 19 20  1  0
 20 21  1  0
 21 22  1  0
 22 23  1  0
 23 24  1  0
 23 25  1  0
 20 26  1  0
 25 26  1  0
  5 27  1  0
 13 27  2  0
 18 27  1  0
M  END
