HEI-REL-0c990a45-1
     RDKit          3D

 25 27  0  0  0  0  0  0  0  0999 V2000
    5.8850   -2.1490   18.9090 C   0  0  0  0  0  0  0  0  0  0  0  0
    5.9470   -3.0160   20.1050 C   0  0  0  0  0  0  0  0  0  0  0  0
    5.4950   -4.1730   20.0310 O   0  0  0  0  0  0  0  0  0  0  0  0
    6.5840   -2.4420   21.2030 N   0  0  0  0  0  0  0  0  0  0  0  0
    7.0400   -3.3040   22.3120 C   0  0  0  0  0  0  0  0  0  0  0  0
    7.9070   -2.6540   23.3880 C   0  0  0  0  0  0  0  0  0  0  0  0
    8.7900   -1.5430   22.9530 N   0  0  0  0  0  0  0  0  0  0  0  0
    9.4480   -0.8120   24.0710 C   0  0  0  0  0  0  0  0  0  0  0  0
   10.9220   -0.3190   23.8100 C   0  0  1  0  0  0  0  0  0  0  0  0
   11.6360   -1.3470   22.9180 C   0  0  0  0  0  0  0  0  0  0  0  0
   13.0790   -0.9050   22.8410 C   0  0  0  0  0  0  0  0  0  0  0  0
   12.2380    0.3200   23.0430 C   0  0  0  0  0  0  0  0  0  0  0  0
   10.8750    0.4030   23.4230 C   0  0  0  0  0  0  0  0  0  0  0  0
   10.1950    1.7210   23.5600 C   0  0  0  0  0  0  0  0  0  0  0  0
   10.8450    2.9980   23.3260 C   0  0  0  0  0  0  0  0  0  0  0  0
   10.0480    4.6230   23.4740 S   0  0  0  0  0  0  0  0  0  0  0  0
   11.2500    5.7020   22.9820 N   0  0  0  0  0  0  0  0  0  0  0  0
    9.7840    4.9940   24.8350 O   0  0  0  0  0  0  0  0  0  0  0  0
    8.9770    4.6940   22.5230 O   0  0  0  0  0  0  0  0  0  0  0  0
   12.1510    2.8840   22.9680 C   0  0  0  0  0  0  0  0  0  0  0  0
   12.5370    1.5690   22.9120 C   0  0  0  0  0  0  0  0  0  0  0  0
   11.1600    1.1770   23.3220 N   0  0  0  0  0  0  0  0  0  0  0  0
   10.4210    2.1620   24.1430 C   0  0  0  0  0  0  0  0  0  0  0  0
    8.0690   -0.5980   22.1140 C   0  0  0  0  0  0  0  0  0  0  0  0
    7.4100   -1.2660   20.9190 C   0  0  0  0  0  0  0  0  0  0  0  0
  1  2  1  0
  2  3  2  0
  2  4  1  0
  4  5  1  0
  5  6  1  0
  6  7  1  0
  7  8  1  0
  9  8  1  6
  9 10  1  0
 10 11  1  0
 11 12  1  0
 12 13  2  0
 13 14  1  0
 14 15  2  0
 15 16  1  0
 16 17  1  0
 16 18  2  0
 16 19  2  0
 15 20  1  0
 12 21  1  0
 20 21  2  0
  9 22  1  0
 21 22  1  0
 22 23  1  0
  7 24  1  0
  4 25  1  0
 24 25  1  0
M  END
