HEI-REL-0c990a45-3
     RDKit          3D

 25 27  0  0  0  0  0  0  0  0999 V2000
    6.3450   -2.1830   18.7600 C   0  0  0  0  0  0  0  0  0  0  0  0
    5.9700   -2.9750   19.9650 C   0  0  0  0  0  0  0  0  0  0  0  0
    5.4790   -4.1050   19.8040 O   0  0  0  0  0  0  0  0  0  0  0  0
    6.1540   -2.4750   21.1610 N   0  0  0  0  0  0  0  0  0  0  0  0
    6.1430   -3.4330   22.1760 C   0  0  0  0  0  0  0  0  0  0  0  0
    7.4080   -3.5500   23.0000 C   0  0  0  0  0  0  0  0  0  0  0  0
    8.2250   -2.2680   23.1670 C   0  0  0  0  0  0  0  0  0  0  0  0
    9.5630   -2.3970   23.8920 C   0  0  0  0  0  0  0  0  0  0  0  0
   10.4920   -1.2990   23.6490 N   0  0  0  0  0  0  0  0  0  0  0  0
   11.7750   -1.5500   23.0100 C   0  0  0  0  0  0  0  0  0  0  0  0
   12.8130   -0.4290   23.2120 C   0  0  0  0  0  0  0  0  0  0  0  0
   12.2200    0.8440   23.3130 C   0  0  0  0  0  0  0  0  0  0  0  0
   12.9660    2.0970   22.8780 C   0  0  0  0  0  0  0  0  0  0  0  0
   12.2650    3.4180   22.9790 C   0  0  0  0  0  0  0  0  0  0  0  0
   10.9640    3.4560   23.4790 C   0  0  0  0  0  0  0  0  0  0  0  0
   10.1060    5.0040   23.6030 S   0  0  0  0  0  0  0  0  0  0  0  0
   11.0420    6.0120   22.6470 N   0  0  0  0  0  0  0  0  0  0  0  0
   10.1800    5.5540   24.9300 O   0  0  0  0  0  0  0  0  0  0  0  0
    8.8420    4.8790   22.9300 O   0  0  0  0  0  0  0  0  0  0  0  0
   10.3260    2.2720   23.8880 C   0  0  0  0  0  0  0  0  0  0  0  0
   10.9260    1.0110   23.8130 C   0  0  0  0  0  0  0  0  0  0  0  0
   10.2060   -0.0830   24.2490 C   0  0  0  0  0  0  0  0  0  0  0  0
    9.2650    0.0530   25.2270 O   0  0  0  0  0  0  0  0  0  0  0  0
    8.3730   -1.6210   21.7990 C   0  0  0  0  0  0  0  0  0  0  0  0
    7.0050   -1.2930   21.2650 C   0  0  0  0  0  0  0  0  0  0  0  0
  1  2  1  0
  2  3  2  0
  2  4  1  0
  4  5  1  0
  5  6  1  0
  6  7  1  0
  7  8  1  0
  8  9  1  0
  9 10  1  0
 10 11  1  0
 11 12  1  0
 12 13  2  0
 13 14  1  0
 14 15  2  0
 15 16  1  0
 16 17  1  0
 16 18  2  0
 16 19  2  0
 15 20  1  0
 12 21  1  0
 20 21  2  0
  9 22  1  0
 21 22  1  0
 22 23  2  0
  7 24  1  0
  4 25  1  0
 24 25  1  0
M  END
