HIR-FOR-a67ea703-1
     RDKit          3D

 41 45  0  0  0  0  0  0  0  0999 V2000
    4.8130    0.0560   24.3580 C   0  0  0  0  0  0  0  0  0  0  0  0
    5.7920    0.1560   23.3370 O   0  0  0  0  0  0  0  0  0  0  0  0
    5.4980   -0.3990   22.1210 C   0  0  0  0  0  0  0  0  0  0  0  0
    5.2970   -1.6070   22.0240 O   0  0  0  0  0  0  0  0  0  0  0  0
    5.4340    0.5200   20.8960 C   0  0  0  0  0  0  0  0  0  0  0  0
    5.1620   -0.1460   19.7060 C   0  0  0  0  0  0  0  0  0  0  0  0
    4.8640    0.6390   18.5580 C   0  0  0  0  0  0  0  0  0  0  0  0
    3.9020    1.7660   18.8460 N   0  0  0  0  0  0  0  0  0  0  0  0
    4.5740    3.3110   18.8760 S   0  0  0  0  0  0  0  0  0  0  0  0
    4.3270    3.9690   20.1450 O   0  0  0  0  0  0  0  0  0  0  0  0
    4.4950    3.9150   17.5650 O   0  0  0  0  0  0  0  0  0  0  0  0
    5.7410    2.0840   18.9660 C   0  0  0  0  0  0  0  0  0  0  0  0
    6.5860    1.7990   20.0210 C   0  0  0  0  0  0  0  0  0  0  0  0
    7.3600    0.6820   19.8200 C   0  0  0  0  0  0  0  0  0  0  0  0
    7.2450   -0.1030   18.5390 C   0  0  0  0  0  0  0  0  0  0  0  0
    8.0430   -1.1470   18.4810 C   0  0  0  0  0  0  0  0  0  0  0  0
    7.7350   -2.8400   18.0890 S   0  0  0  0  0  0  0  0  0  0  0  0
    7.1890   -2.5880   16.5510 C   0  0  0  0  0  0  0  0  0  0  0  0
    6.9990   -1.3030   16.3830 N   0  0  0  0  0  0  0  0  0  0  0  0
    6.5390   -1.3950   15.2520 N   0  0  0  0  0  0  0  0  0  0  0  0
    6.3410   -2.5270   14.5000 C   0  0  0  0  0  0  0  0  0  0  0  0
    5.6300   -2.8910   12.9850 C   0  0  0  0  0  0  0  0  0  0  0  0
    5.9380   -2.7270   11.5590 C   0  0  0  0  0  0  0  0  0  0  0  0
    4.9600   -3.3410   10.8050 C   0  0  0  0  0  0  0  0  0  0  0  0
    4.2800   -2.5140   10.3470 N   0  0  0  0  0  0  0  0  0  0  0  0
    5.3700   -1.6060   10.9400 S   0  0  0  0  0  0  0  0  0  0  0  0
    5.3650   -0.5010   10.1660 O   0  0  0  0  0  0  0  0  0  0  0  0
    5.1780   -1.8020   12.3520 O   0  0  0  0  0  0  0  0  0  0  0  0
    6.8310   -1.8950   10.2170 C   0  0  0  0  0  0  0  0  0  0  0  0
    7.2890   -0.6650    9.6110 C   0  0  0  0  0  0  0  0  0  0  0  0
    8.3230   -1.1050    8.9480 C   0  0  0  0  0  0  0  0  0  0  0  0
    8.9410   -1.9270    8.6930 C   0  0  0  0  0  0  0  0  0  0  0  0
    8.6060   -3.1190    9.2950 C   0  0  0  0  0  0  0  0  0  0  0  0
    7.5390   -3.0580   10.0660 C   0  0  0  0  0  0  0  0  0  0  0  0
    3.5930   -2.0070   11.3860 C   0  0  0  0  0  0  0  0  0  0  0  0
    4.0320   -2.6430   12.6490 C   0  0  0  0  0  0  0  0  0  0  0  0
    6.8710   -3.3940   15.4300 O   0  0  0  0  0  0  0  0  0  0  0  0
    6.4090    0.2760   17.5560 C   0  0  0  0  0  0  0  0  0  0  0  0
    5.6560    1.3810   17.7890 C   0  0  0  0  0  0  0  0  0  0  0  0
    3.3590    1.4690   20.1400 C   0  0  0  0  0  0  0  0  0  0  0  0
    4.3750    1.5910   21.0750 C   0  0  0  0  0  0  0  0  0  0  0  0
  1  2  1  0
  2  3  1  0
  3  4  2  0
  3  5  1  0
  5  6  1  0
  6  7  1  0
  7  8  1  0
  8  9  1  0
  9 10  2  0
  9 11  2  0
  9 12  1  0
 12 13  2  0
 13 14  1  0
 14 15  2  0
 15 16  1  0
 16 17  1  0
 17 18  1  0
 18 19  2  0
 19 20  1  0
 20 21  2  0
 21 22  1  0
 22 23  1  0
 23 24  1  0
 24 25  1  0
 25 26  1  0
 26 27  2  0
 26 28  2  0
 26 29  1  0
 29 30  2  0
 30 31  1  0
 31 32  2  0
 32 33  1  0
 29 34  1  0
 33 34  2  0
 25 35  1  0
 22 36  1  0
 35 36  1  0
 18 37  1  0
 21 37  1  0
 15 38  1  0
 12 39  1  0
 38 39  2  0
  8 40  1  0
  5 41  1  0
 40 41  1  0
M  END
