HOL-KAN-b6135d2e-1
     RDKit          3D

 39 44  0  0  0  0  0  0  0  0999 V2000
    5.2870   -5.6950   22.1380 O   0  0  0  0  0  0  0  0  0  0  0  0
    5.7970   -4.6050   21.9460 C   0  0  0  0  0  0  0  0  0  0  0  0
    5.9140   -3.4480   22.8120 C   0  0  0  0  0  0  0  0  0  0  0  0
    6.2310   -2.4550   22.0240 C   0  0  0  0  0  0  0  0  0  0  0  0
    6.4550   -1.0840   22.4910 C   0  0  0  0  0  0  0  0  0  0  0  0
    6.7800   -0.2180   21.3610 N   0  0  0  0  0  0  0  0  0  0  0  0
    7.7920    0.5750   21.2330 N   0  0  0  0  0  0  0  0  0  0  0  0
    6.8090    0.5450   20.2320 C   0  0  0  0  0  0  0  0  0  0  0  0
    5.6410    0.1740   20.5210 C   0  0  0  0  0  0  0  0  0  0  0  0
    4.9740    1.0350   19.3470 C   0  0  0  0  0  0  0  0  0  0  0  0
    5.3300    1.4000   17.7160 C   0  0  0  0  0  0  0  0  0  0  0  0
    4.9400    2.0720   16.7930 O   0  0  0  0  0  0  0  0  0  0  0  0
    5.6500    0.2930   18.2330 C   0  0  0  0  0  0  0  0  0  0  0  0
    6.4350    0.8410   19.2370 C   0  0  0  0  0  0  0  0  0  0  0  0
    6.0430   -0.2090   20.0940 N   0  0  0  0  0  0  0  0  0  0  0  0
    6.3300   -0.7960   23.8500 C   0  0  0  0  0  0  0  0  0  0  0  0
    6.5060    0.4430   24.4090 O   0  0  0  0  0  0  0  0  0  0  0  0
    5.9670   -1.9150   24.7990 C   0  0  0  0  0  0  0  0  0  0  0  0
    5.7670   -3.2540   24.1960 C   0  0  0  0  0  0  0  0  0  0  0  0
    5.4370   -4.2990   25.0180 O   0  0  0  0  0  0  0  0  0  0  0  0
    6.4550   -4.1230   20.7250 C   0  0  0  0  0  0  0  0  0  0  0  0
    7.7430   -4.4440   20.5200 C   0  0  0  0  0  0  0  0  0  0  0  0
    8.5750   -4.0410   19.4460 C   0  0  0  0  0  0  0  0  0  0  0  0
   10.0640   -4.3860   19.1570 N   0  0  0  0  0  0  0  0  0  0  0  0
   10.4730   -5.0320   18.0450 N   0  0  0  0  0  0  0  0  0  0  0  0
   12.0200   -4.9480   17.9350 C   0  0  0  0  0  0  0  0  0  0  0  0
   13.1930   -5.2090   16.7970 C   0  0  0  0  0  0  0  0  0  0  0  0
   14.5680   -5.1480   17.2030 C   0  0  0  0  0  0  0  0  0  0  0  0
   14.8490   -4.7910   18.6340 C   0  0  0  0  0  0  0  0  0  0  0  0
   16.1260   -4.7170   19.1190 O   0  0  0  0  0  0  0  0  0  0  0  0
   13.8080   -4.4820   19.5110 C   0  0  0  0  0  0  0  0  0  0  0  0
   12.3990   -4.5110   19.1440 C   0  0  0  0  0  0  0  0  0  0  0  0
   11.1820   -4.1040   19.8220 N   0  0  0  0  0  0  0  0  0  0  0  0
    7.8510   -3.2300   18.5370 C   0  0  0  0  0  0  0  0  0  0  0  0
    8.3680   -2.7650   17.4360 F   0  0  0  0  0  0  0  0  0  0  0  0
    6.5820   -2.8900   18.7030 C   0  0  0  0  0  0  0  0  0  0  0  0
    5.9490   -2.1210   17.8390 F   0  0  0  0  0  0  0  0  0  0  0  0
    5.8320   -3.3570   19.8470 C   0  0  0  0  0  0  0  0  0  0  0  0
    4.5710   -3.0340   20.0190 O   0  0  0  0  0  0  0  0  0  0  0  0
  1  2  2  0
  2  3  1  0
  3  4  2  0
  4  5  1  0
  5  6  1  0
  6  7  1  0
  7  8  2  0
  8  9  1  0
  9 10  2  0
 10 11  1  0
 11 12  1  0
 11 13  2  0
  8 14  1  0
 13 14  1  0
  6 15  1  0
 14 15  2  0
  5 16  2  0
 16 17  1  0
 16 18  1  0
  3 19  1  0
 18 19  2  0
 19 20  1  0
  2 21  1  0
 21 22  2  0
 22 23  1  0
 23 24  1  0
 24 25  1  0
 25 26  2  0
 26 27  1  0
 27 28  2  0
 28 29  1  0
 29 30  1  0
 29 31  2  0
 26 32  1  0
 31 32  1  0
 24 33  1  0
 32 33  2  0
 23 34  2  0
 34 35  1  0
 34 36  1  0
 36 37  1  0
 21 38  1  0
 36 38  2  0
 38 39  1  0
M  END
