HOL-KAN-b6135d2e-3
     RDKit          3D

 39 44  0  0  0  0  0  0  0  0999 V2000
    3.0470   -2.2110   28.3490 O   0  0  0  0  0  0  0  0  0  0  0  0
    4.0720   -2.8370   28.6130 C   0  0  0  0  0  0  0  0  0  0  0  0
    4.8670   -3.4670   27.5400 C   0  0  0  0  0  0  0  0  0  0  0  0
    5.1140   -2.6540   26.4360 C   0  0  0  0  0  0  0  0  0  0  0  0
    5.8530   -3.1400   25.3640 C   0  0  0  0  0  0  0  0  0  0  0  0
    6.0360   -2.2540   24.3350 O   0  0  0  0  0  0  0  0  0  0  0  0
    6.3720   -4.4500   25.3470 C   0  0  0  0  0  0  0  0  0  0  0  0
    7.1550   -4.8950   24.1450 C   0  0  0  0  0  0  0  0  0  0  0  0
    8.2840   -5.3670   24.2600 O   0  0  0  0  0  0  0  0  0  0  0  0
    6.5810   -4.7890   22.8030 C   0  0  0  0  0  0  0  0  0  0  0  0
    6.6530   -3.5440   22.1500 C   0  0  0  0  0  0  0  0  0  0  0  0
    6.0880   -3.3890   20.8650 C   0  0  0  0  0  0  0  0  0  0  0  0
    6.1310   -2.1230   20.1970 N   0  0  0  0  0  0  0  0  0  0  0  0
    6.0150   -1.0260   20.8620 N   0  0  0  0  0  0  0  0  0  0  0  0
    5.9640    0.2160   20.2570 C   0  0  0  0  0  0  0  0  0  0  0  0
    5.9110    1.5070   19.6270 C   0  0  0  0  0  0  0  0  0  0  0  0
    5.9780    1.8890   18.2950 C   0  0  0  0  0  0  0  0  0  0  0  0
    6.1360    1.0350   17.2670 C   0  0  0  0  0  0  0  0  0  0  0  0
    6.1880    1.5280   15.9860 O   0  0  0  0  0  0  0  0  0  0  0  0
    6.2370   -0.2680   17.5380 C   0  0  0  0  0  0  0  0  0  0  0  0
    6.1510   -0.6190   18.8890 C   0  0  0  0  0  0  0  0  0  0  0  0
    6.2420   -1.9200   18.9630 N   0  0  0  0  0  0  0  0  0  0  0  0
    5.4640   -4.5010   20.2720 C   0  0  0  0  0  0  0  0  0  0  0  0
    4.8740   -4.4060   19.0370 O   0  0  0  0  0  0  0  0  0  0  0  0
    5.4170   -5.7460   20.9300 C   0  0  0  0  0  0  0  0  0  0  0  0
    5.9740   -5.8840   22.1950 C   0  0  0  0  0  0  0  0  0  0  0  0
    5.9330   -7.0790   22.8650 O   0  0  0  0  0  0  0  0  0  0  0  0
    6.1190   -5.2720   26.4700 C   0  0  0  0  0  0  0  0  0  0  0  0
    5.3650   -4.7850   27.5700 C   0  0  0  0  0  0  0  0  0  0  0  0
    5.1330   -5.6430   28.6780 N   0  0  0  0  0  0  0  0  0  0  0  0
    6.1250   -6.1780   29.4190 N   0  0  0  0  0  0  0  0  0  0  0  0
    5.4700   -6.8930   30.3390 C   0  0  0  0  0  0  0  0  0  0  0  0
    5.9790   -7.6710   31.3890 C   0  0  0  0  0  0  0  0  0  0  0  0
    4.9960   -8.2930   32.1880 C   0  0  0  0  0  0  0  0  0  0  0  0
    3.6030   -8.1470   31.9450 C   0  0  0  0  0  0  0  0  0  0  0  0
    2.7590   -8.8100   32.8000 O   0  0  0  0  0  0  0  0  0  0  0  0
    3.0660   -7.3790   30.9020 C   0  0  0  0  0  0  0  0  0  0  0  0
    4.0370   -6.7500   30.1030 C   0  0  0  0  0  0  0  0  0  0  0  0
    3.8640   -5.9550   29.0440 N   0  0  0  0  0  0  0  0  0  0  0  0
  1  2  2  0
  2  3  1  0
  3  4  2  0
  4  5  1  0
  5  6  1  0
  5  7  2  0
  7  8  1  0
  8  9  2  0
  8 10  1  0
 10 11  2  0
 11 12  1  0
 12 13  1  0
 13 14  1  0
 14 15  2  0
 15 16  1  0
 16 17  2  0
 17 18  1  0
 18 19  1  0
 18 20  2  0
 15 21  1  0
 20 21  1  0
 13 22  1  0
 21 22  2  0
 12 23  2  0
 23 24  1  0
 23 25  1  0
 10 26  1  0
 25 26  2  0
 26 27  1  0
  7 28  1  0
  3 29  1  0
 28 29  2  0
 29 30  1  0
 30 31  1  0
 31 32  2  0
 32 33  1  0
 33 34  2  0
 34 35  1  0
 35 36  1  0
 35 37  2  0
 32 38  1  0
 37 38  1  0
 30 39  1  0
 38 39  2  0
M  END
