HOL-KAN-bccba850-1
     RDKit          3D

 26 29  0  0  0  0  0  0  0  0999 V2000
    4.9370    1.9890   19.8250 C   0  0  0  0  0  0  0  0  0  0  0  0
    6.0580    1.8160   20.8440 C   0  0  2  0  0  0  0  0  0  0  0  0
    5.9910    2.7670   21.9600 C   0  0  0  0  0  0  0  0  0  0  0  0
    7.1260    3.0220   22.7010 C   0  0  0  0  0  0  0  0  0  0  0  0
    8.2700    2.3520   22.3310 C   0  0  0  0  0  0  0  0  0  0  0  0
    9.1880    2.2260   23.1340 O   0  0  0  0  0  0  0  0  0  0  0  0
    8.3630    1.8890   21.0250 C   0  0  0  0  0  0  0  0  0  0  0  0
    7.2110    1.6480   20.1740 C   0  0  0  0  0  0  0  0  0  0  0  0
    7.0750    1.1330   18.6410 C   0  0  0  0  0  0  0  0  0  0  0  0
    7.2080   -0.3380   18.7120 C   0  0  0  0  0  0  0  0  0  0  0  0
    6.9700   -0.2610   20.0880 C   0  0  1  0  0  0  0  0  0  0  0  0
    8.2320   -0.7610   20.5430 N   0  0  0  0  0  0  0  0  0  0  0  0
    6.4000    0.3220   21.2780 C   0  0  1  0  0  0  0  0  0  0  0  0
    7.2020   -0.0890   22.3400 C   0  0  0  0  0  0  0  0  0  0  0  0
    7.3670   -1.5990   22.1630 C   0  0  0  0  0  0  0  0  0  0  0  0
    6.1870   -1.9530   21.2760 C   0  0  2  0  0  0  0  0  0  0  0  0
    5.8150   -3.4290   21.3180 C   0  0  0  0  0  0  0  0  0  0  0  0
    6.1690   -1.4390   20.0060 C   0  0  1  0  0  0  0  0  0  0  0  0
    4.9120   -1.0420   19.4070 C   0  0  0  0  0  0  0  0  0  0  0  0
    4.4940   -0.2920   20.4920 C   0  0  0  0  0  0  0  0  0  0  0  0
    4.9770   -1.0910   21.7780 C   0  0  1  0  0  0  0  0  0  0  0  0
    4.1100   -2.0500   22.3530 O   0  0  0  0  0  0  0  0  0  0  0  0
    5.2450   -0.2150   23.0120 C   0  0  0  0  0  0  0  0  0  0  0  0
    5.8070   -0.6470   24.0320 O   0  0  0  0  0  0  0  0  0  0  0  0
    4.7400    1.2380   22.9820 C   0  0  0  0  0  0  0  0  0  0  0  0
    3.6340    1.4070   23.8590 O   0  0  0  0  0  0  0  0  0  0  0  0
  2  1  1  6
  2  3  1  0
  3  4  2  0
  4  5  1  0
  5  6  2  0
  5  7  1  0
  2  8  1  0
  7  8  2  0
  8  9  1  0
  9 10  1  0
 10 11  1  0
 11 12  1  1
  2 13  1  0
 11 13  1  0
 13 14  1  1
 14 15  1  0
 15 16  1  0
 16 17  1  6
 11 18  1  0
 16 18  1  0
 18 19  1  1
 19 20  1  0
 16 21  1  0
 20 21  1  0
 21 22  1  1
 21 23  1  0
 23 24  2  0
 23 25  1  0
 25 26  1  0
M  END
