HUB-UNK-9845d277-12
     RDKit          3D

 44 48  0  0  0  0  0  0  0  0999 V2000
   11.1440    3.8890   23.9570 O   0  0  0  0  0  0  0  0  0  0  0  0
   11.0470    4.1890   22.7790 C   0  0  0  0  0  0  0  0  0  0  0  0
   11.8570    5.5710   22.3890 C   0  0  0  0  0  0  0  0  0  0  0  0
   13.0610    5.6660   21.6240 C   0  0  0  0  0  0  0  0  0  0  0  0
   13.5140    4.6740   21.2460 C   0  0  0  0  0  0  0  0  0  0  0  0
   14.7040    4.8300   20.3880 C   0  0  0  0  0  0  0  0  0  0  0  0
   16.0270    5.3100   19.4520 C   0  0  0  0  0  0  0  0  0  0  0  0
   16.1400    6.3400   19.6010 C   0  0  0  0  0  0  0  0  0  0  0  0
   17.9510    7.5420   19.2080 C   0  0  0  0  0  0  0  0  0  0  0  0
   19.3160    7.3110   19.9680 C   0  0  0  0  0  0  0  0  0  0  0  0
   20.6380    8.0900   19.9080 C   0  0  0  0  0  0  0  0  0  0  0  0
   20.8270    8.9380   18.7680 C   0  0  0  0  0  0  0  0  0  0  0  0
   19.7380    8.8970   17.9710 C   0  0  0  0  0  0  0  0  0  0  0  0
   19.7970    9.2490   16.6480 O   0  0  0  0  0  0  0  0  0  0  0  0
   18.4550    8.6940   18.5660 N   0  0  0  0  0  0  0  0  0  0  0  0
   14.1460    6.5220   21.0550 C   0  0  0  0  0  0  0  0  0  0  0  0
   10.1880    3.3140   21.8660 N   0  0  0  0  0  0  0  0  0  0  0  0
    9.4470    1.8730   22.1970 C   0  0  2  0  0  0  0  0  0  0  0  0
   10.3130    1.0870   23.0020 C   0  0  0  0  0  0  0  0  0  0  0  0
   11.3000    0.2430   22.4550 C   0  0  2  0  0  0  0  0  0  0  0  0
   10.7400   -1.0430   21.8320 C   0  0  0  0  0  0  0  0  0  0  0  0
   12.0000   -1.8900   21.6760 C   0  0  0  0  0  0  0  0  0  0  0  0
   13.0180   -1.3640   22.3460 N   0  0  0  0  0  0  0  0  0  0  0  0
   12.5510   -0.3530   23.1560 C   0  0  0  0  0  0  0  0  0  0  0  0
   13.1860   -0.0010   24.3570 O   0  0  0  0  0  0  0  0  0  0  0  0
    8.4070    1.0900   21.0870 C   0  0  0  0  0  0  0  0  0  0  0  0
    8.0260    1.7660   20.1640 O   0  0  0  0  0  0  0  0  0  0  0  0
    7.7450   -0.4180   21.0350 C   0  0  0  0  0  0  0  0  0  0  0  0
    7.6000   -1.0230   19.9510 O   0  0  0  0  0  0  0  0  0  0  0  0
    7.2260   -1.0260   22.1520 N   0  0  0  0  0  0  0  0  0  0  0  0
    6.2510   -2.1260   22.0490 C   0  0  0  0  0  0  0  0  0  0  0  0
    6.0700   -2.7060   23.3210 C   0  0  0  0  0  0  0  0  0  0  0  0
    7.3260   -2.6070   24.1420 N   0  0  0  0  0  0  0  0  0  0  0  0
    8.6020   -3.3680   23.3660 S   0  0  0  0  0  0  0  0  0  0  0  0
    8.3820   -3.1670   21.9660 O   0  0  0  0  0  0  0  0  0  0  0  0
    8.5640   -4.6990   23.8830 O   0  0  0  0  0  0  0  0  0  0  0  0
   10.1080   -2.4780   23.7250 C   0  0  0  0  0  0  0  0  0  0  0  0
   10.1160   -0.9110   23.4140 C   0  0  0  0  0  0  0  0  0  0  0  0
   11.2540   -0.0490   23.6180 C   0  0  0  0  0  0  0  0  0  0  0  0
   11.6730   -1.2350   24.0010 C   0  0  0  0  0  0  0  0  0  0  0  0
   12.2630   -2.3280   24.4220 C   0  0  0  0  0  0  0  0  0  0  0  0
   11.2420   -3.1570   24.2480 C   0  0  0  0  0  0  0  0  0  0  0  0
    7.6540   -1.2160   24.4870 C   0  0  0  0  0  0  0  0  0  0  0  0
    7.1370   -0.3100   23.3930 C   0  0  0  0  0  0  0  0  0  0  0  0
  1  2  2  0
  2  3  1  0
  3  4  1  0
  4  5  2  0
  5  6  1  0
  6  7  2  0
  7  8  1  0
  8  9  1  0
  9 10  2  0
 10 11  1  0
 11 12  2  0
 12 13  1  0
 13 14  2  0
  9 15  1  0
 13 15  1  0
  4 16  1  0
  8 16  2  0
  2 17  1  0
 17 18  1  0
 18 19  1  6
 20 19  1  1
 20 21  1  0
 21 22  1  0
 22 23  1  0
 20 24  1  0
 23 24  1  0
 24 25  2  0
 18 26  1  0
 26 27  2  0
 26 28  1  0
 28 29  2  0
 28 30  1  0
 30 31  1  0
 31 32  1  0
 32 33  1  0
 33 34  1  0
 34 35  2  0
 34 36  2  0
 34 37  1  0
 37 38  2  0
 38 39  1  0
 39 40  2  0
 40 41  1  0
 37 42  1  0
 41 42  2  0
 33 43  1  0
 30 44  1  0
 43 44  1  0
M  END
