HUB-UNK-9845d277-15
     RDKit          3D

 34 36  0  0  0  0  0  0  0  0999 V2000
   12.4420    0.1490   23.1470 C   0  0  0  0  0  0  0  0  0  0  0  0
   11.4930   -1.0280   23.1050 C   0  0  0  0  0  0  0  0  0  0  0  0
   11.8700   -1.9590   22.1370 C   0  0  0  0  0  0  0  0  0  0  0  0
   11.6120   -1.8040   24.4240 C   0  0  0  0  0  0  0  0  0  0  0  0
   10.2830   -0.8190   22.8460 O   0  0  0  0  0  0  0  0  0  0  0  0
    9.1980   -1.4490   23.4590 C   0  0  0  0  0  0  0  0  0  0  0  0
    9.0670   -1.5660   24.6550 O   0  0  0  0  0  0  0  0  0  0  0  0
    8.2890   -1.9670   22.5270 N   0  0  0  0  0  0  0  0  0  0  0  0
    8.5320   -3.2490   22.1480 C   0  0  0  0  0  0  0  0  0  0  0  0
    9.4930   -2.4200   21.7180 C   0  0  0  0  0  0  0  0  0  0  0  0
    8.8680   -1.0210   22.0020 C   0  0  0  0  0  0  0  0  0  0  0  0
    7.3090   -1.0330   22.3590 C   0  0  0  0  0  0  0  0  0  0  0  0
    6.5910    0.3230   22.6660 C   0  0  0  0  0  0  0  0  0  0  0  0
    5.2900    0.0030   23.4970 C   0  0  0  0  0  0  0  0  0  0  0  0
    4.8970   -1.2290   23.8630 F   0  0  0  0  0  0  0  0  0  0  0  0
    4.5030    1.1950   23.8560 C   0  0  0  0  0  0  0  0  0  0  0  0
    5.1550    2.2230   23.3490 C   0  0  0  0  0  0  0  0  0  0  0  0
    6.2580    2.5460   22.6410 C   0  0  0  0  0  0  0  0  0  0  0  0
    7.2100    1.5930   22.1580 C   0  0  0  0  0  0  0  0  0  0  0  0
    7.6090    2.8780   21.7830 C   0  0  0  0  0  0  0  0  0  0  0  0
    8.5970    3.5590   22.5040 C   0  0  0  0  0  0  0  0  0  0  0  0
    8.2720    3.7230   23.9330 N   0  0  0  0  0  0  0  0  0  0  0  0
    9.1410    4.8730   24.8060 S   0  0  0  0  0  0  0  0  0  0  0  0
    9.4140    4.3290   26.1160 O   0  0  0  0  0  0  0  0  0  0  0  0
    8.4330    6.1240   24.6410 O   0  0  0  0  0  0  0  0  0  0  0  0
   10.6540    4.9850   23.8820 C   0  0  0  0  0  0  0  0  0  0  0  0
   11.2390    6.2870   23.7210 C   0  0  0  0  0  0  0  0  0  0  0  0
   12.4270    6.4000   22.9970 C   0  0  0  0  0  0  0  0  0  0  0  0
   13.1140    5.1850   22.3720 C   0  0  0  0  0  0  0  0  0  0  0  0
   12.4420    3.8490   22.5850 C   0  0  0  0  0  0  0  0  0  0  0  0
   11.1750    3.8100   23.3700 C   0  0  0  0  0  0  0  0  0  0  0  0
    6.5680   -2.1770   22.4360 N   0  0  0  0  0  0  0  0  0  0  0  0
    7.2020   -3.3320   22.7670 C   0  0  0  0  0  0  0  0  0  0  0  0
    6.7720   -4.2690   23.4400 O   0  0  0  0  0  0  0  0  0  0  0  0
  1  2  1  0
  2  3  1  0
  2  4  1  0
  2  5  1  0
  5  6  1  0
  6  7  2  0
  6  8  1  0
  8  9  1  0
  9 10  2  0
 10 11  1  0
 11 12  2  0
 12 13  1  0
 13 14  2  0
 14 15  1  0
 14 16  1  0
 16 17  2  0
 17 18  1  0
 13 19  1  0
 18 19  2  0
 19 20  1  0
 20 21  1  0
 21 22  1  0
 23 22  1  0
 23 24  2  0
 23 25  2  0
 23 26  1  0
 26 27  2  0
 27 28  1  0
 28 29  2  0
 29 30  1  0
 26 31  1  0
 30 31  2  0
 12 32  1  0
  9 33  1  0
 32 33  1  0
 33 34  2  0
M  END
