HUB-UNK-9845d277-4
     RDKit          3D

 31 33  0  0  0  0  0  0  0  0999 V2000
    8.5010    4.3400   29.8430 C   0  0  0  0  0  0  0  0  0  0  0  0
    7.2520    4.4660   29.0710 C   0  0  0  0  0  0  0  0  0  0  0  0
    6.9640    5.7660   28.6500 C   0  0  0  0  0  0  0  0  0  0  0  0
    6.1550    4.0360   30.0510 C   0  0  0  0  0  0  0  0  0  0  0  0
    7.1790    3.7550   28.0690 O   0  0  0  0  0  0  0  0  0  0  0  0
    6.5600    2.5470   28.0630 C   0  0  0  0  0  0  0  0  0  0  0  0
    6.2280    1.7700   29.2040 O   0  0  0  0  0  0  0  0  0  0  0  0
    6.2560    2.0910   26.8050 N   0  0  0  0  0  0  0  0  0  0  0  0
    7.3530    1.4780   26.2520 C   0  0  0  0  0  0  0  0  0  0  0  0
    8.3960    0.6200   26.9840 C   0  0  0  0  0  0  0  0  0  0  0  0
    9.5480    0.0120   26.2520 C   0  0  0  0  0  0  0  0  0  0  0  0
    9.5340    0.0450   24.7810 C   0  0  0  0  0  0  0  0  0  0  0  0
   10.5560   -0.4890   24.0570 C   0  0  0  0  0  0  0  0  0  0  0  0
   11.9180   -0.4110   24.4430 C   0  0  0  0  0  0  0  0  0  0  0  0
   12.9170   -0.9770   23.6530 C   0  0  0  0  0  0  0  0  0  0  0  0
   12.6280   -1.6290   22.4890 C   0  0  0  0  0  0  0  0  0  0  0  0
   11.3140   -1.7150   22.1040 C   0  0  0  0  0  0  0  0  0  0  0  0
   10.2730   -1.1700   22.8410 C   0  0  0  0  0  0  0  0  0  0  0  0
    8.9970   -1.3500   22.2950 N   0  0  0  0  0  0  0  0  0  0  0  0
    8.2410   -0.4960   21.5350 C   0  0  0  0  0  0  0  0  0  0  0  0
    8.7300    0.6000   21.2420 O   0  0  0  0  0  0  0  0  0  0  0  0
    7.0120   -0.8790   21.1500 N   0  0  0  0  0  0  0  0  0  0  0  0
    6.5000   -0.1980   20.0890 C   0  0  0  0  0  0  0  0  0  0  0  0
    5.2460    0.6040   20.3340 C   0  0  0  0  0  0  0  0  0  0  0  0
    4.6740    1.3310   19.2840 C   0  0  0  0  0  0  0  0  0  0  0  0
    5.3180    1.2610   18.0560 C   0  0  0  0  0  0  0  0  0  0  0  0
    6.4350    0.5570   17.8000 N   0  0  0  0  0  0  0  0  0  0  0  0
    7.0070   -0.1610   18.8070 C   0  0  0  0  0  0  0  0  0  0  0  0
    8.4380    0.6370   24.1800 N   0  0  0  0  0  0  0  0  0  0  0  0
    7.6350    1.6140   24.7600 C   0  0  0  0  0  0  0  0  0  0  0  0
    7.1910    2.5330   24.0710 O   0  0  0  0  0  0  0  0  0  0  0  0
  1  2  1  0
  2  3  1  0
  2  4  1  0
  2  5  1  0
  5  6  1  0
  6  7  2  0
  6  8  1  0
  8  9  1  0
  9 10  2  0
 10 11  1  0
 11 12  2  0
 12 13  1  0
 13 14  2  0
 14 15  1  0
 15 16  2  0
 16 17  1  0
 13 18  1  0
 17 18  2  0
 18 19  1  0
 19 20  1  0
 20 21  2  0
 20 22  1  0
 22 23  1  0
 23 24  2  0
 24 25  1  0
 25 26  2  0
 26 27  1  0
 23 28  1  0
 27 28  2  0
 12 29  1  0
  9 30  1  0
 29 30  1  0
 30 31  2  0
M  END
