HUB-UNK-9845d277-10
     RDKit          3D

 45 49  0  0  0  0  0  0  0  0999 V2000
    7.2470   -3.9400   15.4610 O   0  0  0  0  0  0  0  0  0  0  0  0
    6.7340   -3.0240   15.0420 C   0  0  0  0  0  0  0  0  0  0  0  0
    6.1560   -2.8520   13.4870 C   0  0  0  0  0  0  0  0  0  0  0  0
    5.0970   -2.9210   12.5200 C   0  0  0  0  0  0  0  0  0  0  0  0
    6.0810   -2.5920   11.3440 C   0  0  0  0  0  0  0  0  0  0  0  0
    7.2370   -2.9430   10.3090 C   0  0  0  0  0  0  0  0  0  0  0  0
    7.8580   -2.1360    9.4570 C   0  0  0  0  0  0  0  0  0  0  0  0
    7.5020   -0.9450    9.4730 C   0  0  0  0  0  0  0  0  0  0  0  0
    6.4170   -0.8710   10.5140 C   0  0  0  0  0  0  0  0  0  0  0  0
    6.2070    0.2250   10.7590 C   0  0  0  0  0  0  0  0  0  0  0  0
    5.3570    0.7790   11.4200 C   0  0  0  0  0  0  0  0  0  0  0  0
    6.0630    1.9110   11.6460 C   0  0  0  0  0  0  0  0  0  0  0  0
    7.2250    2.1710   10.7670 C   0  0  0  0  0  0  0  0  0  0  0  0
    7.1290    1.1830    9.7060 C   0  0  0  0  0  0  0  0  0  0  0  0
    6.8840    1.2710    8.5410 O   0  0  0  0  0  0  0  0  0  0  0  0
    7.2490    0.2700   10.1480 N   0  0  0  0  0  0  0  0  0  0  0  0
    5.7660   -1.4870   11.2880 C   0  0  0  0  0  0  0  0  0  0  0  0
    7.1330   -2.2370   16.0320 N   0  0  0  0  0  0  0  0  0  0  0  0
    7.4100   -2.8840   17.3390 C   0  0  1  0  0  0  0  0  0  0  0  0
    8.5280   -3.3300   16.9360 C   0  0  0  0  0  0  0  0  0  0  0  0
    9.1050   -3.7710   17.8740 C   0  0  1  0  0  0  0  0  0  0  0  0
    7.8730   -3.1900   18.3460 C   0  0  0  0  0  0  0  0  0  0  0  0
    7.9130   -2.8160   19.6100 C   0  0  0  0  0  0  0  0  0  0  0  0
    8.8030   -3.5340   20.1310 N   0  0  0  0  0  0  0  0  0  0  0  0
    9.0010   -4.3860   19.0850 C   0  0  0  0  0  0  0  0  0  0  0  0
    9.1980   -5.5560   19.0640 O   0  0  0  0  0  0  0  0  0  0  0  0
    7.8580   -2.0530   18.6360 C   0  0  0  0  0  0  0  0  0  0  0  0
    8.4090   -1.5400   17.6780 O   0  0  0  0  0  0  0  0  0  0  0  0
    7.0830   -2.8330   19.5610 C   0  0  0  0  0  0  0  0  0  0  0  0
    6.0880   -3.7670   19.0010 O   0  0  0  0  0  0  0  0  0  0  0  0
    7.0880   -2.4520   20.9550 N   0  0  0  0  0  0  0  0  0  0  0  0
    6.5680   -3.0810   22.2140 C   0  0  0  0  0  0  0  0  0  0  0  0
    7.6170   -3.4040   23.0180 C   0  0  0  0  0  0  0  0  0  0  0  0
    8.7500   -2.4710   22.7310 N   0  0  0  0  0  0  0  0  0  0  0  0
    9.8060   -2.3710   23.9480 S   0  0  0  0  0  0  0  0  0  0  0  0
   10.4610   -3.6180   24.1890 O   0  0  0  0  0  0  0  0  0  0  0  0
    8.9860   -1.6980   24.9040 O   0  0  0  0  0  0  0  0  0  0  0  0
   11.0280   -1.2370   23.4060 C   0  0  0  0  0  0  0  0  0  0  0  0
   10.5910    0.2550   23.4460 C   0  0  0  0  0  0  0  0  0  0  0  0
   11.9190    0.8470   22.9690 C   0  0  0  0  0  0  0  0  0  0  0  0
   13.1080    0.2300   22.6010 C   0  0  0  0  0  0  0  0  0  0  0  0
   13.2480   -1.1060   22.6160 C   0  0  0  0  0  0  0  0  0  0  0  0
   12.2100   -1.8400   23.0270 C   0  0  0  0  0  0  0  0  0  0  0  0
    8.4120   -1.0790   22.3430 C   0  0  0  0  0  0  0  0  0  0  0  0
    7.4350   -1.0750   21.2200 C   0  0  0  0  0  0  0  0  0  0  0  0
  1  2  2  0
  2  3  1  0
  3  4  1  0
  4  5  1  0
  5  6  2  0
  6  7  1  0
  7  8  2  0
  8  9  1  0
  9 10  1  0
 10 11  2  0
 11 12  1  0
 12 13  2  0
 13 14  1  0
 14 15  2  0
 10 16  1  0
 14 16  1  0
  5 17  1  0
  9 17  2  0
  2 18  1  0
 18 19  1  0
 19 20  1  6
 21 20  1  6
 21 22  1  0
 22 23  1  0
 23 24  1  0
 21 25  1  0
 24 25  1  0
 25 26  2  0
 19 27  1  0
 27 28  2  0
 27 29  1  0
 29 30  2  0
 29 31  1  0
 31 32  1  0
 32 33  1  0
 33 34  1  0
 34 35  1  0
 35 36  2  0
 35 37  2  0
 35 38  1  0
 38 39  2  0
 39 40  1  0
 40 41  2  0
 41 42  1  0
 38 43  1  0
 42 43  2  0
 34 44  1  0
 31 45  1  0
 44 45  1  0
M  END
