HUB-UNK-9845d277-9
     RDKit          3D

 53 57  0  0  0  0  0  0  0  0999 V2000
   18.5870   -8.2980    5.8230 C   0  0  0  0  0  0  0  0  0  0  0  0
   18.1840   -7.7630    6.5240 C   0  0  0  0  0  0  0  0  0  0  0  0
   17.5070   -6.7110    6.6390 C   0  0  0  0  0  0  0  0  0  0  0  0
   19.5490   -8.3920    7.0590 C   0  0  0  0  0  0  0  0  0  0  0  0
   17.0350   -8.0850    6.3490 O   0  0  0  0  0  0  0  0  0  0  0  0
   15.8450   -7.2690    6.7360 C   0  0  0  0  0  0  0  0  0  0  0  0
   15.9170   -6.4830    7.9230 O   0  0  0  0  0  0  0  0  0  0  0  0
   13.6170   -7.6100    6.3270 N   0  0  0  0  0  0  0  0  0  0  0  0
   12.5410   -7.1090    6.9160 C   0  0  0  0  0  0  0  0  0  0  0  0
   11.9760   -4.9030    6.5180 C   0  0  0  0  0  0  0  0  0  0  0  0
   10.4800   -3.5890    7.6500 C   0  0  0  0  0  0  0  0  0  0  0  0
   10.0380   -4.0530    8.6500 C   0  0  0  0  0  0  0  0  0  0  0  0
    9.0370   -3.4620    8.8970 C   0  0  0  0  0  0  0  0  0  0  0  0
    8.7170   -4.1340    9.4270 C   0  0  0  0  0  0  0  0  0  0  0  0
    7.7180   -4.0520   10.0410 C   0  0  0  0  0  0  0  0  0  0  0  0
    6.8110   -3.3690   10.3300 C   0  0  0  0  0  0  0  0  0  0  0  0
    6.7890   -2.5770    9.9790 C   0  0  0  0  0  0  0  0  0  0  0  0
    5.5850   -2.3690   10.7820 C   0  0  0  0  0  0  0  0  0  0  0  0
    5.5750   -2.2730   12.4080 C   0  0  0  0  0  0  0  0  0  0  0  0
    6.2770   -2.6740   13.7460 C   0  0  0  0  0  0  0  0  0  0  0  0
    6.6830   -3.8300   13.8260 O   0  0  0  0  0  0  0  0  0  0  0  0
    6.6260   -1.8200   14.9910 N   0  0  0  0  0  0  0  0  0  0  0  0
    7.0830   -2.0450   16.5320 C   0  0  1  0  0  0  0  0  0  0  0  0
    7.5650   -0.8120   17.0130 C   0  0  0  0  0  0  0  0  0  0  0  0
    6.5270   -0.1470   17.7130 C   0  0  2  0  0  0  0  0  0  0  0  0
    6.3470    1.1600   17.4500 C   0  0  0  0  0  0  0  0  0  0  0  0
    5.3380    1.6890   18.2570 C   0  0  0  0  0  0  0  0  0  0  0  0
    5.8930    1.2780   19.5050 N   0  0  0  0  0  0  0  0  0  0  0  0
    6.8880    0.2550   19.1620 C   0  0  0  0  0  0  0  0  0  0  0  0
    7.7780   -0.1180   19.8780 O   0  0  0  0  0  0  0  0  0  0  0  0
    5.9770   -2.1740   17.7080 C   0  0  0  0  0  0  0  0  0  0  0  0
    4.9560   -1.5640   17.5200 O   0  0  0  0  0  0  0  0  0  0  0  0
    6.0140   -2.9070   19.0220 C   0  0  0  0  0  0  0  0  0  0  0  0
    5.3240   -3.9140   19.0790 O   0  0  0  0  0  0  0  0  0  0  0  0
    6.6750   -2.5800   20.2560 N   0  0  0  0  0  0  0  0  0  0  0  0
    6.2650   -3.1510   21.5910 C   0  0  0  0  0  0  0  0  0  0  0  0
    7.4370   -3.5490   22.5310 C   0  0  0  0  0  0  0  0  0  0  0  0
    8.5380   -2.5680   22.4080 N   0  0  0  0  0  0  0  0  0  0  0  0
    9.4380   -2.4050   23.7960 S   0  0  0  0  0  0  0  0  0  0  0  0
    8.5840   -1.7000   24.7200 O   0  0  0  0  0  0  0  0  0  0  0  0
    9.9840   -3.6870   24.0990 O   0  0  0  0  0  0  0  0  0  0  0  0
   10.8170   -1.3890   23.3540 C   0  0  0  0  0  0  0  0  0  0  0  0
   10.7030    0.1190   23.3270 C   0  0  0  0  0  0  0  0  0  0  0  0
   11.8440    0.8530   22.9920 C   0  0  0  0  0  0  0  0  0  0  0  0
   13.0320    0.1980   22.6950 C   0  0  0  0  0  0  0  0  0  0  0  0
   13.1230   -1.1920   22.7030 C   0  0  0  0  0  0  0  0  0  0  0  0
   12.0290   -1.9860   23.0320 C   0  0  0  0  0  0  0  0  0  0  0  0
    8.2180   -1.2810   21.7390 C   0  0  0  0  0  0  0  0  0  0  0  0
    7.5190   -1.4160   20.3730 C   0  0  0  0  0  0  0  0  0  0  0  0
    8.2200   -2.4740    8.8410 C   0  0  0  0  0  0  0  0  0  0  0  0
   10.6690   -5.1600    9.2460 N   0  0  0  0  0  0  0  0  0  0  0  0
   11.9040   -7.4100    8.5820 C   0  0  0  0  0  0  0  0  0  0  0  0
   12.4310   -8.1510    9.4190 O   0  0  0  0  0  0  0  0  0  0  0  0
  1  2  1  0
  2  3  1  0
  2  4  1  0
  2  5  1  0
  5  6  1  0
  6  7  2  0
  6  8  1  0
  8  9  1  0
  9 10  2  0
 10 11  1  0
 11 12  2  0
 12 13  1  0
 13 14  2  0
 14 15  1  0
 15 16  2  0
 16 17  1  0
 17 18  1  0
 18 19  1  0
 19 20  1  0
 20 21  2  0
 20 22  1  0
 22 23  1  0
 23 24  1  1
 25 24  1  6
 25 26  1  0
 26 27  1  0
 27 28  1  0
 25 29  1  0
 28 29  1  0
 29 30  2  0
 23 31  1  0
 31 32  2  0
 31 33  1  0
 33 34  2  0
 33 35  1  0
 35 36  1  0
 36 37  1  0
 37 38  1  0
 38 39  1  0
 39 40  2  0
 39 41  2  0
 39 42  1  0
 42 43  2  0
 43 44  1  0
 44 45  2  0
 45 46  1  0
 42 47  1  0
 46 47  2  0
 38 48  1  0
 35 49  1  0
 48 49  1  0
 13 50  1  0
 17 50  2  0
 12 51  1  0
  9 52  1  0
 51 52  1  0
 52 53  2  0
M  END
