HUB-UNK-9845d277-16
     RDKit          3D

 32 34  0  0  0  0  0  0  0  0999 V2000
    8.6530    0.4840   31.3950 C   0  0  0  0  0  0  0  0  0  0  0  0
    8.9950    1.2910   30.2070 C   0  0  0  0  0  0  0  0  0  0  0  0
    9.4870    0.5380   29.1440 C   0  0  0  0  0  0  0  0  0  0  0  0
   10.1530    2.1710   30.7060 C   0  0  0  0  0  0  0  0  0  0  0  0
    8.0700    2.0450   29.8190 O   0  0  0  0  0  0  0  0  0  0  0  0
    7.6470    2.2580   28.5320 C   0  0  0  0  0  0  0  0  0  0  0  0
    7.6630    3.5140   27.8770 O   0  0  0  0  0  0  0  0  0  0  0  0
    7.1580    1.1560   27.8690 N   0  0  0  0  0  0  0  0  0  0  0  0
    7.8970    0.8820   26.7310 C   0  0  0  0  0  0  0  0  0  0  0  0
    8.0560    1.7380   25.4500 C   0  0  0  0  0  0  0  0  0  0  0  0
    8.9250    1.2810   24.2950 C   0  0  0  0  0  0  0  0  0  0  0  0
    9.8180    0.1320   24.5640 C   0  0  0  0  0  0  0  0  0  0  0  0
   10.6750   -0.4110   23.6720 C   0  0  0  0  0  0  0  0  0  0  0  0
   12.0400   -0.1730   23.7450 C   0  0  0  0  0  0  0  0  0  0  0  0
   12.5290    0.6000   24.6500 F   0  0  0  0  0  0  0  0  0  0  0  0
   12.9270   -0.7530   22.8670 C   0  0  0  0  0  0  0  0  0  0  0  0
   12.4730   -1.5900   21.8990 C   0  0  0  0  0  0  0  0  0  0  0  0
   11.1170   -1.8510   21.7680 C   0  0  0  0  0  0  0  0  0  0  0  0
   10.2320   -1.2480   22.6430 C   0  0  0  0  0  0  0  0  0  0  0  0
    8.8910   -1.5380   22.3950 N   0  0  0  0  0  0  0  0  0  0  0  0
    8.1200   -0.6840   21.6340 C   0  0  0  0  0  0  0  0  0  0  0  0
    8.6230    0.4170   21.3750 O   0  0  0  0  0  0  0  0  0  0  0  0
    6.8970   -1.0270   21.1990 N   0  0  0  0  0  0  0  0  0  0  0  0
    6.4360   -0.3180   20.1290 C   0  0  0  0  0  0  0  0  0  0  0  0
    5.1930    0.5020   20.3500 C   0  0  0  0  0  0  0  0  0  0  0  0
    4.6540    1.2620   19.3080 C   0  0  0  0  0  0  0  0  0  0  0  0
    5.3060    1.2320   18.0780 C   0  0  0  0  0  0  0  0  0  0  0  0
    6.4250    0.5040   17.8520 N   0  0  0  0  0  0  0  0  0  0  0  0
    6.9650   -0.2500   18.8580 C   0  0  0  0  0  0  0  0  0  0  0  0
    9.7700   -0.4290   25.8220 N   0  0  0  0  0  0  0  0  0  0  0  0
    8.6750   -0.4230   26.6590 C   0  0  0  0  0  0  0  0  0  0  0  0
    8.3630   -1.4350   27.2830 O   0  0  0  0  0  0  0  0  0  0  0  0
  1  2  1  0
  2  3  1  0
  2  4  1  0
  2  5  1  0
  5  6  1  0
  6  7  2  0
  6  8  1  0
  8  9  1  0
  9 10  2  0
 10 11  1  0
 11 12  2  0
 12 13  1  0
 13 14  2  0
 14 15  1  0
 14 16  1  0
 16 17  2  0
 17 18  1  0
 13 19  1  0
 18 19  2  0
 19 20  1  0
 20 21  1  0
 21 22  2  0
 21 23  1  0
 23 24  1  0
 24 25  2  0
 25 26  1  0
 26 27  2  0
 27 28  1  0
 24 29  1  0
 28 29  2  0
 12 30  1  0
  9 31  1  0
 30 31  1  0
 31 32  2  0
M  END
