IAN-BAS-5ff43d1c-1
     RDKit          3D

 25 27  0  0  0  0  0  0  0  0999 V2000
    6.3290   -6.3590   22.0910 C   0  0  0  0  0  0  0  0  0  0  0  0
    5.6860   -5.5620   23.1890 C   0  0  0  0  0  0  0  0  0  0  0  0
    6.0270   -5.6940   24.3690 O   0  0  0  0  0  0  0  0  0  0  0  0
    4.7180   -4.6900   22.7810 N   0  0  0  0  0  0  0  0  0  0  0  0
    5.0920   -3.4020   22.6940 C   0  0  0  0  0  0  0  0  0  0  0  0
    4.7150   -2.2270   23.5230 C   0  0  0  0  0  0  0  0  0  0  0  0
    5.3340   -1.0560   23.1040 N   0  0  0  0  0  0  0  0  0  0  0  0
    6.1350   -1.5060   21.9610 C   0  0  0  0  0  0  0  0  0  0  0  0
    6.9330   -0.6440   21.2290 N   0  0  0  0  0  0  0  0  0  0  0  0
    8.2270   -0.4220   21.5960 C   0  0  0  0  0  0  0  0  0  0  0  0
    8.8280    0.8310   21.2340 O   0  0  0  0  0  0  0  0  0  0  0  0
    9.0070   -1.4860   22.3790 C   0  0  0  0  0  0  0  0  0  0  0  0
   10.4110   -0.9560   22.4860 C   0  0  0  0  0  0  0  0  0  0  0  0
   11.4880   -1.8460   22.2940 C   0  0  0  0  0  0  0  0  0  0  0  0
   12.8170   -1.4320   22.3760 C   0  0  0  0  0  0  0  0  0  0  0  0
   13.1120   -0.1010   22.6530 C   0  0  0  0  0  0  0  0  0  0  0  0
   12.0040    0.8600   22.8610 C   0  0  0  0  0  0  0  0  0  0  0  0
   10.6930    0.3990   22.7710 C   0  0  0  0  0  0  0  0  0  0  0  0
    6.3880    0.0060   20.0610 C   0  0  0  0  0  0  0  0  0  0  0  0
    5.1370    0.7460   20.4160 C   0  0  0  0  0  0  0  0  0  0  0  0
    4.6270    1.3830   19.2570 C   0  0  0  0  0  0  0  0  0  0  0  0
    5.2280    1.3190   17.9700 C   0  0  0  0  0  0  0  0  0  0  0  0
    6.3620    0.6160   17.7580 N   0  0  0  0  0  0  0  0  0  0  0  0
    6.9310   -0.0320   18.7800 C   0  0  0  0  0  0  0  0  0  0  0  0
    5.9660   -2.8830   21.7530 N   0  0  0  0  0  0  0  0  0  0  0  0
  1  2  1  0
  2  3  2  0
  2  4  1  0
  4  5  1  0
  5  6  2  0
  6  7  1  0
  7  8  2  0
  8  9  1  0
  9 10  1  0
 10 11  2  0
 10 12  1  0
 12 13  1  0
 13 14  2  0
 14 15  1  0
 15 16  2  0
 16 17  1  0
 13 18  1  0
 17 18  2  0
  9 19  1  0
 19 20  2  0
 20 21  1  0
 21 22  2  0
 22 23  1  0
 19 24  1  0
 23 24  2  0
  5 25  1  0
  8 25  1  0
M  END
