IAN-BAS-a0d88a3d-1
     RDKit          3D

 29 33  0  0  0  0  0  0  0  0999 V2000
    8.8790    1.3250   21.0680 O   0  0  0  0  0  0  0  0  0  0  0  0
    8.6800    0.2770   21.6730 C   0  0  0  0  0  0  0  0  0  0  0  0
    7.7260   -0.6410   21.2740 N   0  0  0  0  0  0  0  0  0  0  0  0
    6.8930   -0.1040   20.2850 C   0  0  0  0  0  0  0  0  0  0  0  0
    5.7810    0.6310   20.7400 C   0  0  0  0  0  0  0  0  0  0  0  0
    4.8760    1.2360   19.7110 C   0  0  0  0  0  0  0  0  0  0  0  0
    5.1880    1.0370   18.2510 C   0  0  0  0  0  0  0  0  0  0  0  0
    6.2720    0.3120   17.9330 N   0  0  0  0  0  0  0  0  0  0  0  0
    7.0770   -0.2300   18.8940 C   0  0  0  0  0  0  0  0  0  0  0  0
    7.0730   -1.4700   22.2880 C   0  0  0  0  0  0  0  0  0  0  0  0
    5.9730   -2.2310   21.9230 C   0  0  0  0  0  0  0  0  0  0  0  0
    5.5100   -2.9390   22.9920 N   0  0  0  0  0  0  0  0  0  0  0  0
    6.3480   -2.5940   24.0180 C   0  0  0  0  0  0  0  0  0  0  0  0
    6.0830   -3.2570   25.3990 C   0  0  0  0  0  0  0  0  0  0  0  0
    6.3020   -2.5520   26.5590 C   0  0  0  0  0  0  0  0  0  0  0  0
    6.0890   -3.1200   27.8270 C   0  0  0  0  0  0  0  0  0  0  0  0
    5.6400   -4.4460   27.9640 C   0  0  0  0  0  0  0  0  0  0  0  0
    5.4420   -4.9830   29.2040 N   0  0  0  0  0  0  0  0  0  0  0  0
    5.0070   -6.2840   29.1440 C   0  0  0  0  0  0  0  0  0  0  0  0
    4.7550   -7.0690   28.0440 C   0  0  0  0  0  0  0  0  0  0  0  0
    4.9620   -6.4930   26.8190 C   0  0  0  0  0  0  0  0  0  0  0  0
    5.4080   -5.1780   26.7670 C   0  0  0  0  0  0  0  0  0  0  0  0
    5.6290   -4.5840   25.5040 C   0  0  0  0  0  0  0  0  0  0  0  0
    7.3080   -1.7000   23.6220 N   0  0  0  0  0  0  0  0  0  0  0  0
    9.5200    0.1670   22.8650 N   0  0  0  0  0  0  0  0  0  0  0  0
   10.5770   -0.4540   22.8470 C   0  0  0  0  0  0  0  0  0  0  0  0
   10.4580   -0.8160   21.6860 C   0  0  0  0  0  0  0  0  0  0  0  0
   11.5190   -1.1660   22.3290 N   0  0  0  0  0  0  0  0  0  0  0  0
   10.8200   -0.3980   23.4130 C   0  0  0  0  0  0  0  0  0  0  0  0
  1  2  2  0
  2  3  1  0
  3  4  1  0
  4  5  2  0
  5  6  1  0
  6  7  2  0
  7  8  1  0
  4  9  1  0
  8  9  2  0
  3 10  1  0
 10 11  2  0
 11 12  1  0
 12 13  2  0
 13 14  1  0
 14 15  2  0
 15 16  1  0
 16 17  2  0
 17 18  1  0
 18 19  2  0
 19 20  1  0
 20 21  2  0
 17 22  1  0
 21 22  1  0
 14 23  1  0
 22 23  2  0
 10 24  1  0
 13 24  1  0
  2 25  1  0
 25 26  1  0
 26 27  2  0
 27 28  1  0
 25 29  1  0
 28 29  2  0
M  END
