IND-SYN-2c708b29-3
     RDKit          3D

 14 15  0  0  0  0  0  0  0  0999 V2000
   10.0430   -0.7670   22.2460 C   0  0  0  0  0  0  0  0  0  0  0  0
    8.6520    0.2930   21.9100 S   0  0  0  0  0  0  0  0  0  0  0  0
    9.0930    1.4460   21.1400 O   0  0  0  0  0  0  0  0  0  0  0  0
    7.9740    0.4750   23.1750 O   0  0  0  0  0  0  0  0  0  0  0  0
    7.6620   -0.7240   20.9530 N   0  0  0  0  0  0  0  0  0  0  0  0
    6.7350   -0.0920   20.1760 C   0  0  0  0  0  0  0  0  0  0  0  0
    7.0700   -0.2170   18.7970 C   0  0  0  0  0  0  0  0  0  0  0  0
    6.3420    0.3140   17.8140 N   0  0  0  0  0  0  0  0  0  0  0  0
    5.2510    0.9740   18.2870 C   0  0  0  0  0  0  0  0  0  0  0  0
    4.8050    1.1570   19.6850 C   0  0  0  0  0  0  0  0  0  0  0  0
    5.5950    0.5900   20.6640 C   0  0  0  0  0  0  0  0  0  0  0  0
    5.2320    0.7210   22.0000 C   0  0  0  0  0  0  0  0  0  0  0  0
    4.3660    1.6310   22.3920 C   0  0  0  0  0  0  0  0  0  0  0  0
    3.6890    0.5100   22.5100 C   0  0  0  0  0  0  0  0  0  0  0  0
  1  2  1  0
  2  3  2  0
  2  4  2  0
  2  5  1  0
  5  6  1  0
  6  7  2  0
  7  8  1  0
  8  9  2  0
  9 10  1  0
  6 11  1  0
 10 11  2  0
 11 12  1  0
 12 13  1  0
 12 14  1  0
 13 14  1  0
M  END
