IND-SYN-8bc6954a-3
     RDKit          3D

 18 20  0  0  0  0  0  0  0  0999 V2000
   10.9760   -3.0840   23.1570 O   0  0  0  0  0  0  0  0  0  0  0  0
   10.4210   -2.1810   22.5710 C   0  0  0  0  0  0  0  0  0  0  0  0
    9.1790   -2.3220   21.8290 N   0  0  0  0  0  0  0  0  0  0  0  0
    8.3460   -1.1210   21.8470 C   0  0  0  0  0  0  0  0  0  0  0  0
    6.9950   -0.9840   21.2220 N   0  0  0  0  0  0  0  0  0  0  0  0
    6.4190   -0.1920   20.1950 C   0  0  0  0  0  0  0  0  0  0  0  0
    5.1880    0.6640   20.4090 C   0  0  0  0  0  0  0  0  0  0  0  0
    4.6410    1.4220   19.3690 C   0  0  0  0  0  0  0  0  0  0  0  0
    5.3090    1.3760   18.0120 C   0  0  0  0  0  0  0  0  0  0  0  0
    6.4570    0.5790   17.8160 N   0  0  0  0  0  0  0  0  0  0  0  0
    6.9600   -0.1690   18.9070 C   0  0  0  0  0  0  0  0  0  0  0  0
    8.7610   -0.0070   22.5060 N   0  0  0  0  0  0  0  0  0  0  0  0
   10.1450    0.1600   22.6980 C   0  0  0  0  0  0  0  0  0  0  0  0
   10.7030    1.4260   22.8730 C   0  0  0  0  0  0  0  0  0  0  0  0
   12.0780    1.6170   23.0490 C   0  0  0  0  0  0  0  0  0  0  0  0
   12.9400    0.5280   23.0530 C   0  0  0  0  0  0  0  0  0  0  0  0
   12.3770   -0.8300   22.8780 C   0  0  0  0  0  0  0  0  0  0  0  0
   11.0000   -0.9530   22.7140 C   0  0  0  0  0  0  0  0  0  0  0  0
  1  2  2  0
  2  3  1  0
  3  4  2  0
  4  5  1  0
  5  6  1  0
  6  7  2  0
  7  8  1  0
  8  9  2  0
  9 10  1  0
  6 11  1  0
 10 11  2  0
  4 12  1  0
 12 13  1  0
 13 14  1  0
 14 15  2  0
 15 16  1  0
 16 17  2  0
  2 18  1  0
 13 18  2  0
 17 18  1  0
M  END
