IND-SYN-a2b2ab0e-3
     RDKit          3D

 16 17  0  0  0  0  0  0  0  0999 V2000
   13.1980   -2.7850   23.4940 C   0  0  0  0  0  0  0  0  0  0  0  0
   12.5630   -1.3520   24.2850 S   0  0  0  0  0  0  0  0  0  0  0  0
   11.1170   -1.4970   24.4110 O   0  0  0  0  0  0  0  0  0  0  0  0
   13.3690   -1.2270   25.4610 O   0  0  0  0  0  0  0  0  0  0  0  0
   12.9960   -0.1940   23.1460 N   0  0  0  0  0  0  0  0  0  0  0  0
   12.1610    0.9880   23.0710 C   0  0  0  0  0  0  0  0  0  0  0  0
   10.7810    0.7750   23.1370 C   0  0  0  0  0  0  0  0  0  0  0  0
    9.8630    1.8230   23.1090 C   0  0  0  0  0  0  0  0  0  0  0  0
   10.3320    3.0530   23.0140 C   0  0  0  0  0  0  0  0  0  0  0  0
   11.7480    3.3560   22.9330 C   0  0  0  0  0  0  0  0  0  0  0  0
   12.1470    4.6580   22.8440 C   0  0  0  0  0  0  0  0  0  0  0  0
   11.9360    5.6030   23.7600 N   0  0  0  0  0  0  0  0  0  0  0  0
   12.5060    6.6400   23.1820 C   0  0  0  0  0  0  0  0  0  0  0  0
   13.0240    6.2510   21.9580 C   0  0  0  0  0  0  0  0  0  0  0  0
   12.8280    5.0510   21.7150 O   0  0  0  0  0  0  0  0  0  0  0  0
   12.6420    2.2840   22.9560 C   0  0  0  0  0  0  0  0  0  0  0  0
  1  2  1  0
  2  3  2  0
  2  4  2  0
  2  5  1  0
  5  6  1  0
  6  7  2  0
  7  8  1  0
  8  9  2  0
  9 10  1  0
 10 11  1  0
 11 12  2  0
 12 13  1  0
 13 14  2  0
 11 15  1  0
 14 15  1  0
  6 16  1  0
 10 16  2  0
M  END
