ISA-SCH-8e98219b-2
     RDKit          3D

 21 22  0  0  0  0  0  0  0  0999 V2000
    2.6310    3.2290   19.2780 C   0  0  0  0  0  0  0  0  0  0  0  0
    3.9020    2.9890   20.1420 C   0  0  0  0  0  0  0  0  0  0  0  0
    4.2450    3.7620   21.0370 O   0  0  0  0  0  0  0  0  0  0  0  0
    4.5870    1.8400   19.8250 N   0  0  0  0  0  0  0  0  0  0  0  0
    4.8280    1.5460   18.4110 C   0  0  0  0  0  0  0  0  0  0  0  0
    5.9100    0.7000   18.2500 C   0  0  0  0  0  0  0  0  0  0  0  0
    5.9780   -0.3180   19.2150 N   0  0  0  0  0  0  0  0  0  0  0  0
    7.2470   -0.3610   19.9430 C   0  0  0  0  0  0  0  0  0  0  0  0
    7.1420   -1.0070   21.1440 N   0  0  0  0  0  0  0  0  0  0  0  0
    7.8950   -0.3440   22.0680 C   0  0  0  0  0  0  0  0  0  0  0  0
    7.5260    0.8880   22.3360 N   0  0  0  0  0  0  0  0  0  0  0  0
    8.9260   -1.0680   22.5890 N   0  0  0  0  0  0  0  0  0  0  0  0
   10.2570   -0.6680   22.6170 C   0  0  0  0  0  0  0  0  0  0  0  0
   10.4830    0.6660   22.8930 C   0  0  0  0  0  0  0  0  0  0  0  0
   11.8320    1.2830   22.9440 C   0  0  0  0  0  0  0  0  0  0  0  0
   12.8520    0.4040   22.6970 C   0  0  0  0  0  0  0  0  0  0  0  0
   14.0660    0.8750   22.7060 F   0  0  0  0  0  0  0  0  0  0  0  0
   12.6620   -0.9530   22.4250 C   0  0  0  0  0  0  0  0  0  0  0  0
   11.3720   -1.4980   22.3810 C   0  0  0  0  0  0  0  0  0  0  0  0
    4.9930   -0.5170   20.0730 C   0  0  0  0  0  0  0  0  0  0  0  0
    4.2370    0.5850   20.4660 C   0  0  0  0  0  0  0  0  0  0  0  0
  1  2  1  0
  2  3  2  0
  2  4  1  0
  4  5  1  0
  5  6  1  0
  6  7  1  0
  7  8  1  0
  8  9  1  0
  9 10  1  0
 10 11  2  3
 10 12  1  0
 12 13  1  0
 13 14  2  0
 14 15  1  0
 15 16  2  0
 16 17  1  0
 16 18  1  0
 13 19  1  0
 18 19  2  0
  7 20  1  0
  4 21  1  0
 20 21  1  0
M  END
