JAC-SHE-fc18d444-1
     RDKit          3D

 25 27  0  0  0  0  0  0  0  0999 V2000
   16.6150    7.7940   18.3840 C   0  0  0  0  0  0  0  0  0  0  0  0
   16.1090    6.1740   18.5560 C   0  0  0  0  0  0  0  0  0  0  0  0
   16.0290    5.3850   17.7290 O   0  0  0  0  0  0  0  0  0  0  0  0
   15.6440    5.5280   19.7330 N   0  0  0  0  0  0  0  0  0  0  0  0
   14.9940    4.2960   19.8210 C   0  0  0  0  0  0  0  0  0  0  0  0
   14.0200    4.2660   20.8350 C   0  0  0  0  0  0  0  0  0  0  0  0
   14.1190    4.6030   22.1770 C   0  0  0  0  0  0  0  0  0  0  0  0
   12.9260    4.3820   22.7920 C   0  0  0  0  0  0  0  0  0  0  0  0
   11.9680    3.8930   21.9370 C   0  0  0  0  0  0  0  0  0  0  0  0
   10.6280    3.5170   22.2670 C   0  0  0  0  0  0  0  0  0  0  0  0
    9.7990    3.0350   21.2090 O   0  0  0  0  0  0  0  0  0  0  0  0
   10.1110    3.3940   23.4960 N   0  0  0  0  0  0  0  0  0  0  0  0
   10.1880    4.2490   24.6240 C   0  0  0  0  0  0  0  0  0  0  0  0
   11.1970    5.2530   24.7150 C   0  0  0  0  0  0  0  0  0  0  0  0
   11.3280    6.1220   25.8000 C   0  0  0  0  0  0  0  0  0  0  0  0
   10.3700    6.0220   26.9460 C   0  0  0  0  0  0  0  0  0  0  0  0
    9.2920    4.9740   26.8770 C   0  0  0  0  0  0  0  0  0  0  0  0
    9.2290    4.0760   25.6620 C   0  0  0  0  0  0  0  0  0  0  0  0
    9.5390    2.0830   23.5690 C   0  0  0  0  0  0  0  0  0  0  0  0
   10.2250    1.0580   23.0470 C   0  0  0  0  0  0  0  0  0  0  0  0
    9.6760   -0.3760   23.0660 C   0  0  0  0  0  0  0  0  0  0  0  0
    8.5120   -0.5790   23.6210 C   0  0  0  0  0  0  0  0  0  0  0  0
    7.8340    0.4500   24.1460 N   0  0  0  0  0  0  0  0  0  0  0  0
    8.3340    1.7330   24.1110 C   0  0  0  0  0  0  0  0  0  0  0  0
   12.7170    3.8520   20.6540 N   0  0  0  0  0  0  0  0  0  0  0  0
  1  2  1  0
  2  3  2  0
  2  4  1  0
  4  5  1  0
  5  6  1  0
  6  7  2  0
  7  8  1  0
  8  9  2  0
  9 10  1  0
 10 11  2  0
 10 12  1  0
 12 13  1  0
 13 14  2  0
 14 15  1  0
 15 16  2  0
 16 17  1  0
 13 18  1  0
 17 18  2  0
 12 19  1  0
 19 20  2  0
 20 21  1  0
 21 22  2  0
 22 23  1  0
 19 24  1  0
 23 24  2  0
  6 25  1  0
  9 25  1  0
M  END
