JAG-SYN-9c2cd0bd-9
     RDKit          3D

 18 19  0  0  0  0  0  0  0  0999 V2000
    8.5120   -0.8110   22.2760 O   0  0  0  0  0  0  0  0  0  0  0  0
    7.7090   -1.3510   21.5320 C   0  0  0  0  0  0  0  0  0  0  0  0
    7.6210   -1.1000   20.1870 N   0  0  0  0  0  0  0  0  0  0  0  0
    6.6670   -0.2710   19.6020 C   0  0  0  0  0  0  0  0  0  0  0  0
    5.8400   -0.6630   18.5670 C   0  0  0  0  0  0  0  0  0  0  0  0
    4.9130    0.2290   18.0500 C   0  0  0  0  0  0  0  0  0  0  0  0
    4.8000    1.5170   18.5550 C   0  0  0  0  0  0  0  0  0  0  0  0
    5.6240    1.9170   19.5930 C   0  0  0  0  0  0  0  0  0  0  0  0
    6.5590    1.0260   20.1150 C   0  0  0  0  0  0  0  0  0  0  0  0
    6.7080   -2.3850   22.0650 C   0  0  0  0  0  0  0  0  0  0  0  0
    7.5110   -3.3330   22.9090 C   0  0  0  0  0  0  0  0  0  0  0  0
    7.8440   -2.5710   24.1780 C   0  0  0  0  0  0  0  0  0  0  0  0
    6.6780   -2.4840   25.0840 N   0  0  0  0  0  0  0  0  0  0  0  0
    6.7720   -1.3680   26.0470 C   0  0  0  0  0  0  0  0  0  0  0  0
    5.6300   -1.2640   27.0710 C   0  0  0  0  0  0  0  0  0  0  0  0
    5.8180   -2.4320   28.4060 Cl  0  0  0  0  0  0  0  0  0  0  0  0
    5.4340   -2.4540   24.3440 C   0  0  0  0  0  0  0  0  0  0  0  0
    5.6140   -1.7590   22.9810 C   0  0  0  0  0  0  0  0  0  0  0  0
  1  2  2  0
  2  3  1  0
  3  4  1  0
  4  5  2  0
  5  6  1  0
  6  7  2  0
  7  8  1  0
  4  9  1  0
  8  9  2  0
  2 10  1  0
 10 11  1  0
 11 12  1  0
 12 13  1  0
 13 14  1  0
 14 15  1  0
 15 16  1  0
 13 17  1  0
 10 18  1  0
 17 18  1  0
M  END
