JAG-SYN-9c2cd0bd-10
     RDKit          3D

 20 22  0  0  0  0  0  0  0  0999 V2000
    6.0600   -4.8170   26.5460 O   0  0  0  0  0  0  0  0  0  0  0  0
    5.1490   -5.1800   25.4880 S   0  0  0  0  0  0  0  0  0  0  0  0
    4.6100   -6.5240   25.4360 O   0  0  0  0  0  0  0  0  0  0  0  0
    3.8030   -4.0650   25.6260 C   0  0  0  0  0  0  0  0  0  0  0  0
    4.0680   -2.6920   26.2130 C   0  0  0  0  0  0  0  0  0  0  0  0
    5.3390   -2.4670   26.5780 F   0  0  0  0  0  0  0  0  0  0  0  0
    3.2790   -1.5990   26.4660 C   0  0  0  0  0  0  0  0  0  0  0  0
    1.8770   -2.0830   25.9810 C   0  0  0  0  0  0  0  0  0  0  0  0
    1.4670   -3.4460   25.3690 C   0  0  0  0  0  0  0  0  0  0  0  0
    2.5690   -4.4230   25.2250 C   0  0  0  0  0  0  0  0  0  0  0  0
    2.2860   -5.6230   24.7050 F   0  0  0  0  0  0  0  0  0  0  0  0
    5.8480   -4.8620   23.9310 N   0  0  0  0  0  0  0  0  0  0  0  0
    5.1810   -4.0290   23.0180 C   0  0  0  0  0  0  0  0  0  0  0  0
    6.2400   -2.9950   22.5080 C   0  0  0  0  0  0  0  0  0  0  0  0
    7.4740   -3.2030   23.0830 C   0  0  0  0  0  0  0  0  0  0  0  0
    6.6030   -4.4990   23.0920 S   0  0  0  0  0  0  0  0  0  0  0  0
    6.9780   -2.8370   22.7580 C   0  0  0  0  0  0  0  0  0  0  0  0
    8.3530   -2.4930   23.2370 C   0  0  0  0  0  0  0  0  0  0  0  0
    8.2610   -3.9640   23.6500 C   0  0  0  0  0  0  0  0  0  0  0  0
    7.3690   -5.1310   23.6350 C   0  0  0  0  0  0  0  0  0  0  0  0
  1  2  2  0
  2  3  2  0
  2  4  1  0
  4  5  2  0
  5  6  1  0
  5  7  1  0
  7  8  2  0
  8  9  1  0
  4 10  1  0
  9 10  2  0
 10 11  1  0
  2 12  1  0
 12 13  1  0
 13 14  1  0
 14 15  1  0
 15 16  1  0
 16 17  1  0
 17 18  2  0
 15 19  2  0
 18 19  1  0
 12 20  1  0
 19 20  1  0
M  END
