JAN-LUN-3e0f9c09-3
     RDKit          3D

 24 25  0  0  0  0  0  0  0  0999 V2000
   12.7920   -2.2650   24.0190 C   0  0  0  0  0  0  0  0  0  0  0  0
   12.4180   -1.1930   22.9960 C   0  0  2  0  0  0  0  0  0  0  0  0
   12.7020    0.0820   23.2980 C   0  0  0  0  0  0  0  0  0  0  0  0
   11.4840    0.9620   23.4120 C   0  0  2  0  0  0  0  0  0  0  0  0
   11.7680    2.0580   23.8440 O   0  0  0  0  0  0  0  0  0  0  0  0
   10.4640    0.2700   24.2980 C   0  0  0  0  0  0  0  0  0  0  0  0
   10.0060   -0.9260   23.5070 C   0  0  1  0  0  0  0  0  0  0  0  0
    8.7180   -0.6450   22.8580 N   0  0  0  0  0  0  0  0  0  0  0  0
    8.4970    0.0280   21.6550 C   0  0  0  0  0  0  0  0  0  0  0  0
    9.0350    1.1180   21.3490 O   0  0  0  0  0  0  0  0  0  0  0  0
    7.6090   -0.6550   20.8920 N   0  0  0  0  0  0  0  0  0  0  0  0
    6.8070    0.0260   20.0590 C   0  0  0  0  0  0  0  0  0  0  0  0
    6.8390   -0.1670   18.7010 C   0  0  0  0  0  0  0  0  0  0  0  0
    6.0590    0.4870   17.8180 N   0  0  0  0  0  0  0  0  0  0  0  0
    5.1880    1.3900   18.3380 C   0  0  0  0  0  0  0  0  0  0  0  0
    5.0730    1.6570   19.6810 C   0  0  0  0  0  0  0  0  0  0  0  0
    4.0710    2.6880   20.1740 C   0  0  0  0  0  0  0  0  0  0  0  0
    2.7680    2.6320   19.6890 C   0  0  0  0  0  0  0  0  0  0  0  0
    1.7460    2.3200   20.5850 C   0  0  0  0  0  0  0  0  0  0  0  0
    0.5170    2.9460   20.4280 C   0  0  0  0  0  0  0  0  0  0  0  0
   -0.3720    2.9950   21.4430 N   0  0  0  0  0  0  0  0  0  0  0  0
    0.2100    3.4760   19.3700 O   0  0  0  0  0  0  0  0  0  0  0  0
    5.9040    0.9590   20.5790 C   0  0  0  0  0  0  0  0  0  0  0  0
   11.1020   -1.4440   22.5450 C   0  0  0  0  0  0  0  0  0  0  0  0
  2  1  1  1
  2  3  1  0
  3  4  1  0
  4  5  1  1
  4  6  1  0
  6  7  1  0
  7  8  1  6
  8  9  1  0
  9 10  2  0
  9 11  1  0
 11 12  1  0
 12 13  2  0
 13 14  1  0
 14 15  2  0
 15 16  1  0
 16 17  1  0
 17 18  1  0
 18 19  1  0
 19 20  1  0
 20 21  1  0
 20 22  2  0
 12 23  1  0
 16 23  2  0
  2 24  1  0
  7 24  1  0
M  END
