JAN-GHE-86445305-2
     RDKit          3D

 42 44  0  0  0  0  0  0  0  0999 V2000
    1.2740   -6.8400   27.5790 C   0  0  0  0  0  0  0  0  0  0  0  0
    2.7030   -7.1920   27.5720 C   0  0  0  0  0  0  0  0  0  0  0  0
    3.5050   -7.4900   26.4970 C   0  0  0  0  0  0  0  0  0  0  0  0
    3.4670   -6.2200   28.5110 C   0  0  0  0  0  0  0  0  0  0  0  0
    4.8880   -6.4840   28.9100 C   0  0  2  0  0  0  0  0  0  0  0  0
    5.0980   -6.4310   30.3740 N   0  0  0  0  0  0  0  0  0  0  0  0
    4.0730   -7.0380   31.2280 C   0  0  0  0  0  0  0  0  0  0  0  0
    4.1640   -8.2030   31.6100 O   0  0  0  0  0  0  0  0  0  0  0  0
    2.8980   -6.1450   31.6510 C   0  0  0  0  0  0  0  0  0  0  0  0
    1.6720   -6.6470   31.2010 N   0  0  0  0  0  0  0  0  0  0  0  0
    0.6210   -6.9150   32.1780 C   0  0  0  0  0  0  0  0  0  0  0  0
   -0.1920   -6.0900   32.5760 O   0  0  0  0  0  0  0  0  0  0  0  0
    0.6990   -8.2100   32.5630 O   0  0  0  0  0  0  0  0  0  0  0  0
    0.3350   -9.2930   31.6610 C   0  0  0  0  0  0  0  0  0  0  0  0
    0.7180  -10.6160   32.2500 C   0  0  0  0  0  0  0  0  0  0  0  0
   -1.1560   -9.2420   31.3040 C   0  0  0  0  0  0  0  0  0  0  0  0
    1.1510   -9.0740   30.3770 C   0  0  0  0  0  0  0  0  0  0  0  0
    5.9220   -5.5550   28.2190 C   0  0  0  0  0  0  0  0  0  0  0  0
    6.8370   -5.0280   28.8540 O   0  0  0  0  0  0  0  0  0  0  0  0
    5.7350   -5.3560   26.8560 N   0  0  0  0  0  0  0  0  0  0  0  0
    5.6810   -3.9920   26.3050 C   0  0  2  0  0  0  0  0  0  0  0  0
    4.3610   -3.5720   26.0050 C   0  0  0  0  0  0  0  0  0  0  0  0
    3.3740   -4.4910   25.6330 C   0  0  2  0  0  0  0  0  0  0  0  0
    3.3480   -5.0370   24.3510 C   0  0  0  0  0  0  0  0  0  0  0  0
    2.0940   -5.4980   23.9600 C   0  0  0  0  0  0  0  0  0  0  0  0
    1.2330   -4.6680   24.7530 N   0  0  0  0  0  0  0  0  0  0  0  0
    1.9790   -3.8810   25.6120 C   0  0  0  0  0  0  0  0  0  0  0  0
    1.5710   -2.9050   26.2160 O   0  0  0  0  0  0  0  0  0  0  0  0
    6.6340   -3.8130   25.1610 C   0  0  0  0  0  0  0  0  0  0  0  0
    7.0910   -4.6200   24.1600 C   0  0  0  0  0  0  0  0  0  0  0  0
    7.9760   -3.9520   23.3220 C   0  0  0  0  0  0  0  0  0  0  0  0
    8.2710   -4.3860   22.2460 O   0  0  0  0  0  0  0  0  0  0  0  0
    8.3440   -2.7950   23.9450 N   0  0  0  0  0  0  0  0  0  0  0  0
    8.8040   -1.6650   23.1470 C   0  0  0  0  0  0  0  0  0  0  0  0
   10.2890   -1.3030   23.1230 C   0  0  0  0  0  0  0  0  0  0  0  0
   10.6540    0.0470   23.2220 C   0  0  0  0  0  0  0  0  0  0  0  0
   11.9930    0.4510   23.1850 C   0  0  0  0  0  0  0  0  0  0  0  0
   12.9740   -0.4840   23.0570 C   0  0  0  0  0  0  0  0  0  0  0  0
   12.6550   -1.8300   22.9590 C   0  0  0  0  0  0  0  0  0  0  0  0
   11.3180   -2.2390   22.9910 C   0  0  0  0  0  0  0  0  0  0  0  0
    7.3630   -2.5540   24.8880 C   0  0  0  0  0  0  0  0  0  0  0  0
    7.0880   -1.5050   25.4310 O   0  0  0  0  0  0  0  0  0  0  0  0
  1  2  1  0
  2  3  1  0
  2  4  1  0
  5  4  1  1
  5  6  1  0
  6  7  1  0
  7  8  2  0
  7  9  1  0
  9 10  1  0
 10 11  1  0
 11 12  2  0
 11 13  1  0
 14 13  1  0
 14 15  1  0
 14 16  1  0
 14 17  1  0
  5 18  1  0
 18 19  2  0
 18 20  1  0
 20 21  1  0
 21 22  1  6
 23 22  1  6
 23 24  1  0
 24 25  1  0
 25 26  1  0
 23 27  1  0
 26 27  1  0
 27 28  2  0
 21 29  1  0
 29 30  2  0
 30 31  1  0
 31 32  2  0
 31 33  1  0
 33 34  1  0
 34 35  1  0
 35 36  2  0
 36 37  1  0
 37 38  2  0
 38 39  1  0
 35 40  1  0
 39 40  2  0
 29 41  1  0
 33 41  1  0
 41 42  2  0
M  END
