JAN-GHE-1d98ec1c-4
     RDKit          3D

 23 25  0  0  0  0  0  0  0  0999 V2000
    6.3190   -1.9930   18.4280 C   0  0  0  0  0  0  0  0  0  0  0  0
    6.0470   -2.9160   19.5860 C   0  0  0  0  0  0  0  0  0  0  0  0
    5.1920   -3.8100   19.5780 O   0  0  0  0  0  0  0  0  0  0  0  0
    6.9320   -2.6700   20.7460 N   0  0  0  0  0  0  0  0  0  0  0  0
    6.5540   -3.2980   21.8940 C   0  0  0  0  0  0  0  0  0  0  0  0
    7.6770   -3.3320   22.9670 C   0  0  0  0  0  0  0  0  0  0  0  0
    8.2010   -2.0050   23.2070 N   0  0  0  0  0  0  0  0  0  0  0  0
    9.4810   -1.9030   23.9870 C   0  0  0  0  0  0  0  0  0  0  0  0
    9.9190   -0.5610   23.9360 C   0  0  0  0  0  0  0  0  0  0  0  0
    9.7200    0.3190   24.9310 C   0  0  0  0  0  0  0  0  0  0  0  0
   10.4000    1.4470   24.0440 C   0  0  0  0  0  0  0  0  0  0  0  0
   10.2240    2.1880   24.8520 C   0  0  0  0  0  0  0  0  0  0  0  0
   10.7220    2.8310   23.9810 C   0  0  0  0  0  0  0  0  0  0  0  0
   11.0140    4.5380   23.9120 S   0  0  0  0  0  0  0  0  0  0  0  0
   12.5230    4.8420   23.1940 N   0  0  0  0  0  0  0  0  0  0  0  0
   11.0570    5.0950   25.2320 O   0  0  0  0  0  0  0  0  0  0  0  0
    9.9630    5.0590   23.0160 O   0  0  0  0  0  0  0  0  0  0  0  0
   10.9660    1.5960   22.8190 C   0  0  0  0  0  0  0  0  0  0  0  0
   11.0910    2.5530   22.9960 N   0  0  0  0  0  0  0  0  0  0  0  0
   10.4610    1.1920   23.7650 C   0  0  0  0  0  0  0  0  0  0  0  0
   10.5110   -0.1000   22.9220 C   0  0  0  0  0  0  0  0  0  0  0  0
    8.0230   -1.0700   22.0450 C   0  0  0  0  0  0  0  0  0  0  0  0
    8.0590   -1.7600   20.8500 C   0  0  0  0  0  0  0  0  0  0  0  0
  1  2  1  0
  2  3  2  0
  2  4  1  0
  4  5  1  0
  5  6  1  0
  6  7  1  0
  7  8  1  0
  8  9  1  0
  9 10  2  0
 10 11  1  0
 11 12  2  0
 12 13  1  0
 13 14  1  0
 14 15  1  0
 14 16  2  0
 14 17  2  0
 13 18  2  0
 18 19  1  0
 12 20  1  0
 19 20  1  0
  9 21  1  0
 20 21  2  0
  7 22  1  0
  4 23  1  0
 22 23  1  0
M  END
