JAN-GHE-86445305-1
     RDKit          3D

 44 46  0  0  0  0  0  0  0  0999 V2000
    4.3810   -7.7930   29.2150 C   0  0  0  0  0  0  0  0  0  0  0  0
    5.0360   -6.7580   28.4210 C   0  0  0  0  0  0  0  0  0  0  0  0
    6.2760   -6.4060   28.7830 C   0  0  0  0  0  0  0  0  0  0  0  0
    4.1390   -5.5620   28.3630 C   0  0  0  0  0  0  0  0  0  0  0  0
    4.4170   -4.3140   28.9620 C   0  0  2  0  0  0  0  0  0  0  0  0
    3.3420   -3.3380   28.8700 N   0  0  0  0  0  0  0  0  0  0  0  0
    2.8030   -2.7190   30.0780 C   0  0  0  0  0  0  0  0  0  0  0  0
    3.4820   -2.5380   31.2760 O   0  0  0  0  0  0  0  0  0  0  0  0
    1.5350   -2.3200   29.9490 C   0  0  0  0  0  0  0  0  0  0  0  0
    0.4970   -3.2890   29.5620 C   0  0  0  0  0  0  0  0  0  0  0  0
    0.9440   -2.2350   28.5600 C   0  0  0  0  0  0  0  0  0  0  0  0
    1.0320   -1.2100   30.6960 N   0  0  0  0  0  0  0  0  0  0  0  0
   -0.3440   -1.0820   30.8320 C   0  0  0  0  0  0  0  0  0  0  0  0
   -1.0420   -0.6690   29.9190 O   0  0  0  0  0  0  0  0  0  0  0  0
   -0.8880   -1.4310   32.0380 O   0  0  0  0  0  0  0  0  0  0  0  0
   -0.7990   -2.7890   32.5430 C   0  0  0  0  0  0  0  0  0  0  0  0
    0.5410   -3.1450   32.7030 C   0  0  0  0  0  0  0  0  0  0  0  0
   -1.6220   -3.5580   31.5890 C   0  0  0  0  0  0  0  0  0  0  0  0
   -1.5150   -2.8760   33.8910 C   0  0  0  0  0  0  0  0  0  0  0  0
    5.7330   -3.6830   28.4520 C   0  0  0  0  0  0  0  0  0  0  0  0
    6.3900   -2.6830   29.1210 O   0  0  0  0  0  0  0  0  0  0  0  0
    6.1770   -4.2130   27.2480 N   0  0  0  0  0  0  0  0  0  0  0  0
    5.7160   -3.7250   25.9500 C   0  0  2  0  0  0  0  0  0  0  0  0
    4.5360   -4.3280   25.5480 C   0  0  0  0  0  0  0  0  0  0  0  0
    4.7610   -5.6190   25.0820 N   0  0  0  0  0  0  0  0  0  0  0  0
    5.3270   -5.5590   23.8260 C   0  0  0  0  0  0  0  0  0  0  0  0
    4.6390   -6.2720   22.8530 C   0  0  0  0  0  0  0  0  0  0  0  0
    3.5410   -6.8970   23.6730 C   0  0  0  0  0  0  0  0  0  0  0  0
    3.7180   -6.5750   25.0300 C   0  0  0  0  0  0  0  0  0  0  0  0
    3.0860   -7.0420   25.9600 O   0  0  0  0  0  0  0  0  0  0  0  0
    6.7920   -3.6880   24.8930 C   0  0  0  0  0  0  0  0  0  0  0  0
    7.3560   -4.7020   24.0800 C   0  0  0  0  0  0  0  0  0  0  0  0
    8.2540   -3.6910   23.3060 C   0  0  0  0  0  0  0  0  0  0  0  0
    8.6000   -3.9270   22.1850 O   0  0  0  0  0  0  0  0  0  0  0  0
    8.5310   -2.5830   23.9720 N   0  0  0  0  0  0  0  0  0  0  0  0
    8.9990   -1.4460   23.2080 C   0  0  0  0  0  0  0  0  0  0  0  0
   10.3850   -1.1840   23.1300 C   0  0  0  0  0  0  0  0  0  0  0  0
   10.7650    0.1550   23.2180 C   0  0  0  0  0  0  0  0  0  0  0  0
   12.0990    0.5320   23.1380 C   0  0  0  0  0  0  0  0  0  0  0  0
   13.0710   -0.4190   22.9690 C   0  0  0  0  0  0  0  0  0  0  0  0
   12.7300   -1.7610   22.8800 C   0  0  0  0  0  0  0  0  0  0  0  0
   11.3870   -2.1440   22.9610 C   0  0  0  0  0  0  0  0  0  0  0  0
    7.3950   -2.3880   24.6190 C   0  0  0  0  0  0  0  0  0  0  0  0
    6.8950   -1.3270   24.9360 O   0  0  0  0  0  0  0  0  0  0  0  0
  1  2  1  0
  2  3  1  0
  2  4  1  0
  5  4  1  6
  5  6  1  0
  6  7  1  0
  7  8  2  0
  9  7  1  0
  9 10  1  0
  9 11  1  0
  9 12  1  0
 12 13  1  0
 13 14  2  0
 13 15  1  0
 16 15  1  0
 16 17  1  0
 16 18  1  0
 16 19  1  0
  5 20  1  0
 20 21  2  0
 20 22  1  0
 22 23  1  0
 23 24  1  6
 24 25  1  0
 25 26  1  0
 26 27  1  0
 27 28  1  0
 25 29  1  0
 28 29  1  0
 29 30  2  0
 23 31  1  0
 31 32  2  0
 32 33  1  0
 33 34  2  0
 33 35  1  0
 35 36  1  0
 36 37  1  0
 37 38  2  0
 38 39  1  0
 39 40  2  0
 40 41  1  0
 37 42  1  0
 41 42  2  0
 31 43  1  0
 35 43  1  0
 43 44  2  0
M  END
