JAN-LUN-3e0f9c09-6
     RDKit          3D

 24 26  0  0  0  0  0  0  0  0999 V2000
    0.7190    1.5070   22.4990 O   0  0  0  0  0  0  0  0  0  0  0  0
    1.3600    1.2200   23.5010 C   0  0  0  0  0  0  0  0  0  0  0  0
    0.8470    1.0350   24.7860 O   0  0  0  0  0  0  0  0  0  0  0  0
    2.8590    1.0300   23.3950 C   0  0  0  0  0  0  0  0  0  0  0  0
    3.3580    1.0300   22.0160 C   0  0  0  0  0  0  0  0  0  0  0  0
    4.5750    0.4610   21.6750 C   0  0  0  0  0  0  0  0  0  0  0  0
    4.9890    0.4870   20.3620 C   0  0  2  0  0  0  0  0  0  0  0  0
    6.3140    0.2260   19.9870 C   0  0  0  0  0  0  0  0  0  0  0  0
    7.2140   -0.4980   20.8880 N   0  0  0  0  0  0  0  0  0  0  0  0
    8.2960    0.1700   21.4810 C   0  0  0  0  0  0  0  0  0  0  0  0
    8.7630    1.4250   21.1190 O   0  0  0  0  0  0  0  0  0  0  0  0
    8.8240   -0.6010   22.4540 N   0  0  0  0  0  0  0  0  0  0  0  0
   10.1180   -0.4030   22.6520 C   0  0  0  0  0  0  0  0  0  0  0  0
   10.5720    1.0490   22.8180 C   0  0  0  0  0  0  0  0  0  0  0  0
   11.9880    0.8550   22.9940 C   0  0  0  0  0  0  0  0  0  0  0  0
   13.0530   -0.0270   23.0770 C   0  0  0  0  0  0  0  0  0  0  0  0
   12.5720   -1.3280   22.9270 C   0  0  0  0  0  0  0  0  0  0  0  0
   13.4270   -2.1980   22.9860 O   0  0  0  0  0  0  0  0  0  0  0  0
   11.0350   -1.5090   22.7020 C   0  0  0  0  0  0  0  0  0  0  0  0
    6.5460    0.7370   18.7040 C   0  0  0  0  0  0  0  0  0  0  0  0
    5.3740    1.3150   18.3630 N   0  0  0  0  0  0  0  0  0  0  0  0
    4.6530    1.6590   19.5830 C   0  0  1  0  0  0  0  0  0  0  0  0
    3.3050    1.8980   19.6830 N   0  0  0  0  0  0  0  0  0  0  0  0
    2.7190    1.5790   20.8820 C   0  0  0  0  0  0  0  0  0  0  0  0
  1  2  2  0
  2  3  1  0
  2  4  1  0
  4  5  1  0
  5  6  2  0
  7  6  1  1
  7  8  1  0
  8  9  1  0
  9 10  1  0
 10 11  2  0
 10 12  1  0
 12 13  1  0
 13 14  2  0
 14 15  1  0
 15 16  2  0
 16 17  1  0
 17 18  1  0
 13 19  1  0
 17 19  2  0
  8 20  2  0
 20 21  1  0
  7 22  1  0
 22 21  1  6
 22 23  1  0
  5 24  1  0
 23 24  2  0
M  END
