JAN-GHE-1d98ec1c-5
     RDKit          3D

 24 26  0  0  0  0  0  0  0  0999 V2000
    6.0450   -1.8950   18.6780 C   0  0  0  0  0  0  0  0  0  0  0  0
    5.9330   -2.7910   19.8890 C   0  0  0  0  0  0  0  0  0  0  0  0
    5.3970   -3.9050   19.8060 O   0  0  0  0  0  0  0  0  0  0  0  0
    6.5320   -2.2630   21.0270 N   0  0  0  0  0  0  0  0  0  0  0  0
    6.4750   -2.8790   22.3630 C   0  0  0  0  0  0  0  0  0  0  0  0
    7.7380   -2.9270   22.9750 C   0  0  0  0  0  0  0  0  0  0  0  0
    8.4840   -1.8650   22.8100 N   0  0  0  0  0  0  0  0  0  0  0  0
    9.5510   -1.7450   23.8200 C   0  0  0  0  0  0  0  0  0  0  0  0
   10.7910   -1.1330   23.4250 C   0  0  0  0  0  0  0  0  0  0  0  0
   12.0180   -1.9060   23.2910 C   0  0  0  0  0  0  0  0  0  0  0  0
   13.0280   -0.9650   22.9050 C   0  0  0  0  0  0  0  0  0  0  0  0
   12.0550    0.0840   22.9380 C   0  0  0  0  0  0  0  0  0  0  0  0
   10.6090   -0.2980   23.3150 C   0  0  0  0  0  0  0  0  0  0  0  0
    9.4830    0.7770   23.3630 C   0  0  0  0  0  0  0  0  0  0  0  0
    9.7930    2.2260   23.0460 C   0  0  0  0  0  0  0  0  0  0  0  0
    8.6660    3.5910   23.0530 S   0  0  0  0  0  0  0  0  0  0  0  0
    9.6770    4.9050   22.7870 N   0  0  0  0  0  0  0  0  0  0  0  0
    8.1070    3.7370   24.3780 O   0  0  0  0  0  0  0  0  0  0  0  0
    7.8140    3.4980   21.8870 O   0  0  0  0  0  0  0  0  0  0  0  0
   11.1350    2.3830   22.7370 C   0  0  0  0  0  0  0  0  0  0  0  0
   11.9830    1.2840   22.7460 C   0  0  0  0  0  0  0  0  0  0  0  0
   10.8490    0.4560   23.1270 N   0  0  0  0  0  0  0  0  0  0  0  0
    8.6640   -1.4450   21.4280 C   0  0  0  0  0  0  0  0  0  0  0  0
    7.4370   -1.1170   20.8680 C   0  0  0  0  0  0  0  0  0  0  0  0
  1  2  1  0
  2  3  2  0
  2  4  1  0
  4  5  1  0
  5  6  1  0
  6  7  1  0
  7  8  1  0
  8  9  1  0
  9 10  2  0
 10 11  1  0
 11 12  2  0
 12 13  1  0
 13 14  2  0
 14 15  1  0
 15 16  1  0
 16 17  1  0
 16 18  2  0
 16 19  2  0
 15 20  2  0
 12 21  1  0
 20 21  1  0
  9 22  1  0
 21 22  2  0
  7 23  1  0
  4 24  1  0
 23 24  1  0
M  END
