JAN-GHE-4287bd1a-8
     RDKit          3D

 23 25  0  0  0  0  0  0  0  0999 V2000
    9.6350   -3.7700   24.0760 O   0  0  0  0  0  0  0  0  0  0  0  0
    8.8230   -2.9110   24.0970 C   0  0  0  0  0  0  0  0  0  0  0  0
    7.7130   -3.0780   25.0510 C   0  0  0  0  0  0  0  0  0  0  0  0
    7.9590   -4.0160   26.0100 C   0  0  0  0  0  0  0  0  0  0  0  0
    6.8130   -4.7920   26.2830 N   0  0  0  0  0  0  0  0  0  0  0  0
    5.7040   -5.1810   25.4970 C   0  0  0  0  0  0  0  0  0  0  0  0
    4.8560   -5.9640   26.2920 C   0  0  0  0  0  0  0  0  0  0  0  0
    5.3760   -6.0980   27.5840 N   0  0  0  0  0  0  0  0  0  0  0  0
    6.5330   -5.4090   27.5790 C   0  0  0  0  0  0  0  0  0  0  0  0
    8.9780   -1.7950   23.2340 N   0  0  0  0  0  0  0  0  0  0  0  0
   10.2870   -1.2440   23.0260 C   0  0  0  0  0  0  0  0  0  0  0  0
   10.6050    0.0980   23.4770 C   0  0  0  0  0  0  0  0  0  0  0  0
   11.9800    0.6140   23.2660 C   0  0  0  0  0  0  0  0  0  0  0  0
   12.9110   -0.1940   22.6450 C   0  0  0  0  0  0  0  0  0  0  0  0
   12.6110   -1.4580   22.2030 C   0  0  0  0  0  0  0  0  0  0  0  0
   11.3180   -1.9800   22.3860 C   0  0  0  0  0  0  0  0  0  0  0  0
    8.0540   -1.7280   22.1020 C   0  0  1  0  0  0  0  0  0  0  0  0
    6.8320   -2.4140   22.3620 C   0  0  0  0  0  0  0  0  0  0  0  0
    5.6060   -1.7880   22.1500 C   0  0  0  0  0  0  0  0  0  0  0  0
    5.8570   -0.1950   21.5660 S   0  0  0  0  0  0  0  0  0  0  0  0
    5.4730    0.7710   22.5710 O   0  0  0  0  0  0  0  0  0  0  0  0
    5.3780   -0.1000   20.2050 O   0  0  0  0  0  0  0  0  0  0  0  0
    7.6650   -0.3250   21.5590 C   0  0  0  0  0  0  0  0  0  0  0  0
  1  2  2  0
  2  3  1  0
  3  4  1  0
  4  5  1  0
  5  6  1  0
  6  7  2  0
  7  8  1  0
  5  9  1  0
  8  9  2  0
  2 10  1  0
 10 11  1  0
 11 12  2  0
 12 13  1  0
 13 14  2  0
 14 15  1  0
 11 16  1  0
 15 16  2  0
 17 10  1  1
 17 18  1  0
 18 19  2  0
 20 19  1  0
 20 21  2  0
 20 22  2  0
 17 23  1  0
 20 23  1  0
M  END
