JAN-GHE-4287bd1a-9
     RDKit          3D

 17 18  0  0  0  0  0  0  0  0999 V2000
    8.1810   -0.9830   21.9650 O   0  0  0  0  0  0  0  0  0  0  0  0
    8.9500   -1.6760   22.6180 C   0  0  0  0  0  0  0  0  0  0  0  0
    8.6370   -2.8190   23.3490 N   0  0  0  0  0  0  0  0  0  0  0  0
    8.1100   -2.8840   24.6620 C   0  0  0  0  0  0  0  0  0  0  0  0
    7.6940   -1.7830   25.3880 C   0  0  0  0  0  0  0  0  0  0  0  0
    7.2060   -1.9420   26.6830 C   0  0  0  0  0  0  0  0  0  0  0  0
    7.1440   -3.2110   27.2170 C   0  0  0  0  0  0  0  0  0  0  0  0
    7.5310   -4.3150   26.5520 N   0  0  0  0  0  0  0  0  0  0  0  0
    8.0040   -4.1290   25.2950 C   0  0  0  0  0  0  0  0  0  0  0  0
   10.4010   -1.2850   22.6600 C   0  0  0  0  0  0  0  0  0  0  0  0
   11.2890   -2.0340   21.9950 C   0  0  0  0  0  0  0  0  0  0  0  0
   12.9890   -1.6990   22.0260 S   0  0  0  0  0  0  0  0  0  0  0  0
   13.6350   -2.7950   22.6970 O   0  0  0  0  0  0  0  0  0  0  0  0
   13.4680   -1.3820   20.7040 O   0  0  0  0  0  0  0  0  0  0  0  0
   13.1980   -0.2800   23.0730 C   0  0  0  0  0  0  0  0  0  0  0  0
   12.0060    0.6270   23.0930 C   0  0  0  0  0  0  0  0  0  0  0  0
   10.6970   -0.0770   23.4660 C   0  0  0  0  0  0  0  0  0  0  0  0
  1  2  2  0
  2  3  1  0
  3  4  1  0
  4  5  2  0
  5  6  1  0
  6  7  2  0
  7  8  1  0
  4  9  1  0
  8  9  2  0
  2 10  1  0
 10 11  2  0
 12 11  1  0
 12 13  2  0
 12 14  2  0
 12 15  1  0
 15 16  1  0
 10 17  1  0
 16 17  1  0
M  END
