JAN-LUN-8953ce76-4
     RDKit          3D

 23 24  0  0  0  0  0  0  0  0999 V2000
    5.2910    5.3930   22.9070 N   0  0  0  0  0  0  0  0  0  0  0  0
    4.3280    4.6190   22.5360 C   0  0  0  0  0  0  0  0  0  0  0  0
    3.1590    4.4650   23.3450 O   0  0  0  0  0  0  0  0  0  0  0  0
    4.4550    3.8870   21.2450 C   0  0  0  0  0  0  0  0  0  0  0  0
    3.3450    3.5980   20.5460 C   0  0  0  0  0  0  0  0  0  0  0  0
    3.3580    2.2900   19.7250 C   0  0  0  0  0  0  0  0  0  0  0  0
    4.5480    1.5050   19.4380 C   0  0  0  0  0  0  0  0  0  0  0  0
    5.0760    1.3780   18.1180 C   0  0  0  0  0  0  0  0  0  0  0  0
    6.2270    0.6170   17.7860 N   0  0  0  0  0  0  0  0  0  0  0  0
    6.9470   -0.0720   18.7600 C   0  0  0  0  0  0  0  0  0  0  0  0
    6.4560    0.0300   20.1470 C   0  0  0  0  0  0  0  0  0  0  0  0
    7.1980   -0.6540   21.0610 N   0  0  0  0  0  0  0  0  0  0  0  0
    8.2560    0.0870   21.5430 C   0  0  0  0  0  0  0  0  0  0  0  0
    8.6340    1.2070   21.1190 O   0  0  0  0  0  0  0  0  0  0  0  0
    8.8760   -0.6640   22.6430 N   0  0  0  0  0  0  0  0  0  0  0  0
   10.3020   -0.4090   22.7550 C   0  0  0  0  0  0  0  0  0  0  0  0
   10.7330    0.9210   22.8520 C   0  0  0  0  0  0  0  0  0  0  0  0
   12.1540    1.2690   22.9660 C   0  0  0  0  0  0  0  0  0  0  0  0
   13.0430    0.1320   22.9690 C   0  0  0  0  0  0  0  0  0  0  0  0
   12.5950   -1.2030   22.8740 C   0  0  0  0  0  0  0  0  0  0  0  0
   13.3750   -2.1470   22.8800 O   0  0  0  0  0  0  0  0  0  0  0  0
   11.2210   -1.4480   22.7670 C   0  0  0  0  0  0  0  0  0  0  0  0
    5.3130    0.7620   20.5470 C   0  0  0  0  0  0  0  0  0  0  0  0
  1  2  1  0
  2  3  2  0
  2  4  1  0
  4  5  1  0
  5  6  1  0
  6  7  1  0
  7  8  2  0
  8  9  1  0
  9 10  2  0
 10 11  1  0
 11 12  1  0
 12 13  1  0
 13 14  2  0
 13 15  1  0
 15 16  1  0
 16 17  2  0
 17 18  1  0
 18 19  2  0
 19 20  1  0
 20 21  1  0
 16 22  1  0
 20 22  2  0
  7 23  1  0
 11 23  2  0
M  END
