JAR-KUA-672ec752-1
     RDKit          3D

 23 26  0  0  0  0  0  0  0  0999 V2000
    8.9200   -3.9300   23.7740 O   0  0  0  0  0  0  0  0  0  0  0  0
    9.0520   -2.8970   23.1270 C   0  0  0  0  0  0  0  0  0  0  0  0
   10.1340   -2.1510   23.3120 C   0  0  0  0  0  0  0  0  0  0  0  0
   10.3980   -1.3640   24.4020 C   0  0  0  0  0  0  0  0  0  0  0  0
   11.5770   -0.8610   24.0350 C   0  0  0  0  0  0  0  0  0  0  0  0
   11.3670   -1.8910   22.5680 S   0  0  0  0  0  0  0  0  0  0  0  0
   12.6860   -1.8050   21.3840 C   0  0  0  0  0  0  0  0  0  0  0  0
   13.2560   -0.9140   22.2290 C   0  0  0  0  0  0  0  0  0  0  0  0
   12.5530   -0.7230   23.2620 C   0  0  0  0  0  0  0  0  0  0  0  0
   11.5190   -1.9090   22.3240 S   0  0  0  0  0  0  0  0  0  0  0  0
    8.0720   -2.4870   22.2390 N   0  0  0  0  0  0  0  0  0  0  0  0
    8.0070   -1.1590   21.6080 C   0  0  0  0  0  0  0  0  0  0  0  0
    6.9400   -0.2560   22.1800 C   0  0  0  0  0  0  0  0  0  0  0  0
    5.6980   -0.9160   22.4820 O   0  0  0  0  0  0  0  0  0  0  0  0
    5.8340   -2.1680   23.1940 C   0  0  1  0  0  0  0  0  0  0  0  0
    4.6200   -2.9130   23.6740 C   0  0  0  0  0  0  0  0  0  0  0  0
    4.8370   -4.3780   23.7770 N   0  0  0  0  0  0  0  0  0  0  0  0
    5.5810   -4.7810   24.9990 C   0  0  0  0  0  0  0  0  0  0  0  0
    4.8090   -4.5730   26.1560 C   0  0  0  0  0  0  0  0  0  0  0  0
    3.6590   -5.4270   26.1670 O   0  0  0  0  0  0  0  0  0  0  0  0
    2.8030   -5.0880   25.0740 C   0  0  0  0  0  0  0  0  0  0  0  0
    3.5550   -5.1180   23.7050 C   0  0  0  0  0  0  0  0  0  0  0  0
    6.7620   -3.1080   22.4200 C   0  0  0  0  0  0  0  0  0  0  0  0
  1  2  2  0
  2  3  1  0
  3  4  2  0
  4  5  1  0
  5  6  1  0
  6  7  1  0
  7  8  2  0
  5  9  2  0
  8  9  1  0
  3 10  1  0
  9 10  1  0
  2 11  1  0
 11 12  1  0
 12 13  1  0
 13 14  1  0
 14 15  1  0
 15 16  1  6
 16 17  1  0
 17 18  1  0
 18 19  1  0
 19 20  1  0
 20 21  1  0
 17 22  1  0
 21 22  1  0
 11 23  1  0
 15 23  1  0
M  END
