JAR-IMP-ed466bb3-18
     RDKit          3D

 31 33  0  0  0  0  0  0  0  0999 V2000
   12.8400   -1.0680   25.2230 C   0  0  0  0  0  0  0  0  0  0  0  0
   13.3000   -2.7380   24.8520 S   0  0  0  0  0  0  0  0  0  0  0  0
   12.0810   -3.5070   24.9230 O   0  0  0  0  0  0  0  0  0  0  0  0
   14.4850   -3.0880   25.5830 O   0  0  0  0  0  0  0  0  0  0  0  0
   13.5730   -2.3780   23.2450 N   0  0  0  0  0  0  0  0  0  0  0  0
   12.6080   -1.3980   23.1470 C   0  0  0  0  0  0  0  0  0  0  0  0
   12.8510   -0.0830   23.1430 C   0  0  0  0  0  0  0  0  0  0  0  0
   11.7670    0.8740   23.1160 C   0  0  0  0  0  0  0  0  0  0  0  0
   10.4560    0.4080   23.0830 C   0  0  0  0  0  0  0  0  0  0  0  0
   10.1660   -1.0420   23.0680 C   0  0  0  0  0  0  0  0  0  0  0  0
    8.9260   -1.5540   23.0330 C   0  0  0  0  0  0  0  0  0  0  0  0
    8.0330   -0.9990   22.3940 O   0  0  0  0  0  0  0  0  0  0  0  0
    8.5100   -2.7880   23.7400 C   0  0  0  0  0  0  0  0  0  0  0  0
    7.4370   -2.5550   24.7450 C   0  0  0  0  0  0  0  0  0  0  0  0
    7.6100   -1.6480   25.5660 O   0  0  0  0  0  0  0  0  0  0  0  0
    6.2160   -3.3910   24.6980 N   0  0  0  0  0  0  0  0  0  0  0  0
    5.1510   -2.7720   25.3370 C   0  0  0  0  0  0  0  0  0  0  0  0
    3.9040   -2.3830   24.8730 C   0  0  0  0  0  0  0  0  0  0  0  0
    3.0380   -1.7790   25.7780 C   0  0  0  0  0  0  0  0  0  0  0  0
    3.3430   -1.5350   27.1300 C   0  0  0  0  0  0  0  0  0  0  0  0
    2.4610   -0.9450   27.9490 F   0  0  0  0  0  0  0  0  0  0  0  0
    4.6300   -1.9410   27.5920 C   0  0  0  0  0  0  0  0  0  0  0  0
    5.5370   -2.5640   26.6840 C   0  0  0  0  0  0  0  0  0  0  0  0
    6.3030   -4.8620   24.8590 C   0  0  1  0  0  0  0  0  0  0  0  0
    5.5370   -5.1810   25.9680 C   0  0  0  0  0  0  0  0  0  0  0  0
    4.3910   -5.9410   25.8020 C   0  0  0  0  0  0  0  0  0  0  0  0
    4.1610   -6.3480   24.1490 S   0  0  0  0  0  0  0  0  0  0  0  0
    4.2030   -7.7910   24.0560 O   0  0  0  0  0  0  0  0  0  0  0  0
    3.0650   -5.5690   23.6090 O   0  0  0  0  0  0  0  0  0  0  0  0
    5.7190   -5.6070   23.6190 C   0  0  0  0  0  0  0  0  0  0  0  0
   11.2840   -1.8860   23.1000 C   0  0  0  0  0  0  0  0  0  0  0  0
  1  2  1  0
  2  3  2  0
  2  4  2  0
  2  5  1  0
  5  6  1  0
  6  7  2  0
  7  8  1  0
  8  9  2  0
  9 10  1  0
 10 11  1  0
 11 12  2  0
 11 13  1  0
 13 14  1  0
 14 15  2  0
 14 16  1  0
 16 17  1  0
 17 18  2  0
 18 19  1  0
 19 20  2  0
 20 21  1  0
 20 22  1  0
 17 23  1  0
 22 23  2  0
 24 16  1  6
 24 25  1  0
 25 26  2  0
 27 26  1  0
 27 28  2  0
 27 29  2  0
 24 30  1  0
 27 30  1  0
  6 31  1  0
 10 31  2  0
M  END
