JAR-IMP-ed466bb3-3
     RDKit          3D

 28 32  0  0  0  0  0  0  0  0999 V2000
    8.0490    0.6960   22.5850 O   0  0  0  0  0  0  0  0  0  0  0  0
    8.6710   -0.3360   22.8730 C   0  0  0  0  0  0  0  0  0  0  0  0
   10.0120   -0.1970   23.0340 C   0  0  0  0  0  0  0  0  0  0  0  0
   10.5210    1.1420   22.6690 C   0  0  0  0  0  0  0  0  0  0  0  0
   11.8880    1.4180   22.7810 C   0  0  0  0  0  0  0  0  0  0  0  0
   12.7550    0.4630   23.2310 C   0  0  0  0  0  0  0  0  0  0  0  0
   12.2980   -0.7740   23.5910 C   0  0  0  0  0  0  0  0  0  0  0  0
   13.2370   -1.6400   24.0600 C   0  0  0  0  0  0  0  0  0  0  0  0
   12.9010   -2.9850   24.5010 C   0  0  0  0  0  0  0  0  0  0  0  0
   11.4820   -3.3680   24.3920 C   0  0  0  0  0  0  0  0  0  0  0  0
   10.5390   -2.5100   23.9180 C   0  0  0  0  0  0  0  0  0  0  0  0
   10.9280   -1.1550   23.5050 C   0  0  0  0  0  0  0  0  0  0  0  0
    7.9470   -1.5100   22.9960 N   0  0  0  0  0  0  0  0  0  0  0  0
    6.8000   -1.6080   22.1090 C   0  0  0  0  0  0  0  0  0  0  0  0
    6.4940   -2.9630   22.0180 C   0  0  0  0  0  0  0  0  0  0  0  0
    5.8600   -3.4070   20.7210 C   0  0  0  0  0  0  0  0  0  0  0  0
    5.5520   -4.9210   20.6020 C   0  0  0  0  0  0  0  0  0  0  0  0
    5.8470   -5.7680   21.6540 C   0  0  0  0  0  0  0  0  0  0  0  0
    6.4240   -5.2690   22.8310 C   0  0  0  0  0  0  0  0  0  0  0  0
    6.7340   -3.9120   23.0090 C   0  0  0  0  0  0  0  0  0  0  0  0
    7.2890   -3.5480   24.2070 C   0  0  2  0  0  0  0  0  0  0  0  0
    6.4190   -3.7930   25.2740 C   0  0  0  0  0  0  0  0  0  0  0  0
    6.2280   -2.8380   26.2870 C   0  0  0  0  0  0  0  0  0  0  0  0
    5.2900   -3.1520   27.4180 C   0  0  0  0  0  0  0  0  0  0  0  0
    4.6360   -4.3860   27.4270 C   0  0  0  0  0  0  0  0  0  0  0  0
    4.8560   -5.3110   26.3940 C   0  0  0  0  0  0  0  0  0  0  0  0
    5.7230   -5.0210   25.3490 C   0  0  0  0  0  0  0  0  0  0  0  0
    7.5560   -2.0370   24.2850 C   0  0  0  0  0  0  0  0  0  0  0  0
  1  2  2  0
  2  3  1  0
  3  4  2  0
  4  5  1  0
  5  6  2  0
  6  7  1  0
  7  8  1  0
  8  9  2  0
  9 10  1  0
 10 11  2  0
  3 12  1  0
  7 12  2  0
 11 12  1  0
  2 13  1  0
 13 14  1  0
 14 15  1  0
 15 16  2  0
 16 17  1  0
 17 18  2  0
 18 19  1  0
 15 20  1  0
 19 20  2  0
 20 21  1  0
 21 22  1  1
 22 23  2  0
 23 24  1  0
 24 25  2  0
 25 26  1  0
 22 27  1  0
 26 27  2  0
 13 28  1  0
 21 28  1  0
M  END
