JAR-IMP-ed466bb3-19
     RDKit          3D

 35 38  0  0  0  0  0  0  0  0999 V2000
    8.5660   -5.2390   23.6570 C   0  0  0  0  0  0  0  0  0  0  0  0
    7.8220   -4.1240   24.2440 C   0  0  0  0  0  0  0  0  0  0  0  0
    6.8040   -4.2930   24.9100 O   0  0  0  0  0  0  0  0  0  0  0  0
    8.3950   -2.8320   23.9580 N   0  0  0  0  0  0  0  0  0  0  0  0
    9.7740   -2.5350   24.1820 C   0  0  0  0  0  0  0  0  0  0  0  0
   10.6400   -1.8770   23.1010 C   0  0  0  0  0  0  0  0  0  0  0  0
   11.8710   -1.1560   23.4890 C   0  0  0  0  0  0  0  0  0  0  0  0
   12.3210   -2.4400   23.5870 C   0  0  0  0  0  0  0  0  0  0  0  0
   11.2080   -2.7030   23.2070 N   0  0  0  0  0  0  0  0  0  0  0  0
   10.4960   -1.4600   23.0170 C   0  0  0  0  0  0  0  0  0  0  0  0
    9.5160   -2.0430   22.6550 C   0  0  0  0  0  0  0  0  0  0  0  0
   11.0820   -2.4530   23.1660 C   0  0  0  0  0  0  0  0  0  0  0  0
   12.3360   -1.4800   23.6340 C   0  0  0  0  0  0  0  0  0  0  0  0
   13.6400   -1.9400   24.0380 C   0  0  0  0  0  0  0  0  0  0  0  0
   14.0990   -2.7540   25.1780 C   0  0  0  0  0  0  0  0  0  0  0  0
   13.3540   -3.5880   25.6190 O   0  0  0  0  0  0  0  0  0  0  0  0
   15.4520   -2.7190   25.7980 N   0  0  0  0  0  0  0  0  0  0  0  0
   16.4860   -3.6360   25.5150 C   0  0  0  0  0  0  0  0  0  0  0  0
   18.0050   -3.7180   25.8860 C   0  0  0  0  0  0  0  0  0  0  0  0
   18.9030   -2.8830   26.4610 N   0  0  0  0  0  0  0  0  0  0  0  0
   20.3950   -2.2910   25.7780 S   0  0  0  0  0  0  0  0  0  0  0  0
   20.8830   -1.3400   26.7500 O   0  0  0  0  0  0  0  0  0  0  0  0
   20.0070   -1.7480   24.5010 O   0  0  0  0  0  0  0  0  0  0  0  0
   21.8390   -3.3510   25.4430 C   0  0  0  0  0  0  0  0  0  0  0  0
   22.2730   -4.4170   26.2610 C   0  0  0  0  0  0  0  0  0  0  0  0
   23.4240   -5.1570   25.9300 C   0  0  0  0  0  0  0  0  0  0  0  0
   23.9080   -6.2100   26.7060 C   0  0  0  0  0  0  0  0  0  0  0  0
   24.1460   -4.8600   24.7920 C   0  0  0  0  0  0  0  0  0  0  0  0
   23.7000   -3.7380   23.9130 C   0  0  0  0  0  0  0  0  0  0  0  0
   22.5700   -3.0310   24.2740 C   0  0  0  0  0  0  0  0  0  0  0  0
   22.1880   -1.9250   23.3630 C   0  0  0  0  0  0  0  0  0  0  0  0
   18.0260   -1.9350   25.9810 C   0  0  0  0  0  0  0  0  0  0  0  0
   16.3460   -1.8420   26.3580 C   0  0  0  0  0  0  0  0  0  0  0  0
   12.1570    0.0130   23.6300 C   0  0  0  0  0  0  0  0  0  0  0  0
   10.9930   -0.1840   23.2410 C   0  0  0  0  0  0  0  0  0  0  0  0
  1  2  1  0
  2  3  2  0
  2  4  1  0
  4  5  1  0
  5  6  1  0
  6  7  1  0
  7  8  2  0
  8  9  1  0
  9 10  1  0
 10 11  1  0
 11 12  2  0
 12 13  1  0
 13 14  1  0
 14 15  1  0
 15 16  2  0
 15 17  1  0
 17 18  1  0
 18 19  1  0
 19 20  1  0
 20 21  1  0
 21 22  2  0
 21 23  2  0
 21 24  1  0
 24 25  2  0
 25 26  1  0
 26 27  1  0
 26 28  2  0
 28 29  1  0
 24 30  1  0
 29 30  2  0
 30 31  1  0
 20 32  1  0
 17 33  1  0
 32 33  1  0
 13 34  2  0
  7 35  1  0
 10 35  2  0
 34 35  1  0
M  END
