JAR-KUA-672ec752-2
     RDKit          3D

 17 19  0  0  0  0  0  0  0  0999 V2000
    9.2310    0.0280   23.9820 C   0  0  0  0  0  0  0  0  0  0  0  0
   10.2220    0.8610   24.3130 C   0  0  0  0  0  0  0  0  0  0  0  0
   11.5890    0.3680   24.4250 C   0  0  0  0  0  0  0  0  0  0  0  0
   11.8220   -0.9420   24.2040 C   0  0  0  0  0  0  0  0  0  0  0  0
   12.8500   -1.4170   24.2720 O   0  0  0  0  0  0  0  0  0  0  0  0
   12.5570   -2.3550   23.2710 C   0  0  0  0  0  0  0  0  0  0  0  0
   13.5700   -2.4490   22.4570 C   0  0  0  0  0  0  0  0  0  0  0  0
   13.1720   -1.2550   21.6370 N   0  0  0  0  0  0  0  0  0  0  0  0
   13.5460    0.0980   22.1920 C   0  0  0  0  0  0  0  0  0  0  0  0
   14.1910    1.1220   21.1280 C   0  0  0  0  0  0  0  0  0  0  0  0
   14.6630    0.7650   19.7370 C   0  0  0  0  0  0  0  0  0  0  0  0
   15.1700    1.9110   19.0360 N   0  0  0  0  0  0  0  0  0  0  0  0
   14.9720    2.9450   20.0560 C   0  0  0  0  0  0  0  0  0  0  0  0
   14.4290    2.5150   21.2310 N   0  0  0  0  0  0  0  0  0  0  0  0
   11.8510   -1.7570   22.0400 C   0  0  0  0  0  0  0  0  0  0  0  0
   10.7970   -1.7840   23.8580 C   0  0  0  0  0  0  0  0  0  0  0  0
    9.5120   -1.3120   23.7430 C   0  0  0  0  0  0  0  0  0  0  0  0
  1  2  2  0
  2  3  1  0
  3  4  2  0
  4  5  1  0
  5  6  1  0
  6  7  1  0
  7  8  1  0
  8  9  1  0
  9 10  1  0
 10 11  2  0
 11 12  1  0
 12 13  1  0
 10 14  1  0
 13 14  2  0
  6 15  1  0
  8 15  1  0
  4 16  1  0
  1 17  1  0
 16 17  2  0
M  END
