JAR-KUA-672ec752-3
     RDKit          3D

 25 27  0  0  0  0  0  0  0  0999 V2000
   13.7400   -4.3600   26.7550 C   0  0  0  0  0  0  0  0  0  0  0  0
   13.1550   -3.1890   26.5230 N   0  0  0  0  0  0  0  0  0  0  0  0
   11.8850   -3.1170   25.8890 C   0  0  0  0  0  0  0  0  0  0  0  0
   11.9990   -1.8520   25.1830 C   0  0  0  0  0  0  0  0  0  0  0  0
   12.5860   -2.1040   24.0910 N   0  0  0  0  0  0  0  0  0  0  0  0
   11.9370   -3.1550   23.4300 C   0  0  0  0  0  0  0  0  0  0  0  0
   12.0870   -3.2960   22.2310 O   0  0  0  0  0  0  0  0  0  0  0  0
   11.0010   -4.0790   24.2890 C   0  0  0  0  0  0  0  0  0  0  0  0
   10.3100   -3.7230   25.3570 N   0  0  0  0  0  0  0  0  0  0  0  0
    9.5230   -2.8010   24.7860 C   0  0  0  0  0  0  0  0  0  0  0  0
    8.0010   -2.9140   25.2090 C   0  0  0  0  0  0  0  0  0  0  0  0
    8.0890   -4.2780   26.3340 S   0  0  0  0  0  0  0  0  0  0  0  0
    6.4750   -4.8120   26.4700 N   0  0  0  0  0  0  0  0  0  0  0  0
    8.7630   -5.4360   25.7760 O   0  0  0  0  0  0  0  0  0  0  0  0
    8.4040   -3.7750   27.6260 O   0  0  0  0  0  0  0  0  0  0  0  0
    8.5850   -2.1120   24.4000 C   0  0  0  0  0  0  0  0  0  0  0  0
    8.1680   -1.1180   23.6810 C   0  0  0  0  0  0  0  0  0  0  0  0
    9.5310   -1.0350   23.3300 C   0  0  0  0  0  0  0  0  0  0  0  0
    9.5720    0.0860   22.4080 C   0  0  0  0  0  0  0  0  0  0  0  0
   10.5840    0.5070   21.8280 C   0  0  0  0  0  0  0  0  0  0  0  0
   11.7190   -0.1760   22.1390 C   0  0  0  0  0  0  0  0  0  0  0  0
   11.6220   -1.1880   22.9830 C   0  0  0  0  0  0  0  0  0  0  0  0
   10.5540   -2.0080   23.9000 C   0  0  0  0  0  0  0  0  0  0  0  0
   13.9560   -2.2840   24.4280 C   0  0  0  0  0  0  0  0  0  0  0  0
   14.1200   -2.2840   25.7890 C   0  0  0  0  0  0  0  0  0  0  0  0
  1  2  1  0
  2  3  1  0
  3  4  1  0
  4  5  1  0
  5  6  1  0
  6  7  2  0
  6  8  1  0
  8  9  1  0
  9 10  1  0
 10 11  2  0
 11 12  1  0
 12 13  1  0
 12 14  2  0
 12 15  2  0
 11 16  1  0
 16 17  2  0
 17 18  1  0
 18 19  1  0
 19 20  2  0
 20 21  1  0
 21 22  2  0
 10 23  1  0
 18 23  2  0
 22 23  1  0
  5 24  1  0
  2 25  1  0
 24 25  1  0
M  END
