JAR-KUA-672ec752-13
     RDKit          3D

 22 24  0  0  0  0  0  0  0  0999 V2000
    7.8910   -2.6080   24.2330 C   0  0  0  0  0  0  0  0  0  0  0  0
    9.1350   -2.5530   23.7990 C   0  0  0  0  0  0  0  0  0  0  0  0
    9.8780   -1.2790   23.8240 C   0  0  0  0  0  0  0  0  0  0  0  0
    9.3640   -0.1440   23.2480 C   0  0  0  0  0  0  0  0  0  0  0  0
   10.0370    1.0430   23.1970 C   0  0  0  0  0  0  0  0  0  0  0  0
   11.2830    1.2040   23.7060 C   0  0  0  0  0  0  0  0  0  0  0  0
   11.9810    2.3970   23.5780 C   0  0  0  0  0  0  0  0  0  0  0  0
   12.6020    2.8340   22.2900 N   0  0  0  0  0  0  0  0  0  0  0  0
   13.8620    2.1650   21.9410 C   0  0  0  0  0  0  0  0  0  0  0  0
   14.8880    2.9180   21.2530 C   0  0  0  0  0  0  0  0  0  0  0  0
   14.5140    3.9960   20.4270 N   0  0  0  0  0  0  0  0  0  0  0  0
   15.8160    4.5910   19.7700 C   0  0  0  0  0  0  0  0  0  0  0  0
   17.0630    4.3050   20.5060 C   0  0  0  0  0  0  0  0  0  0  0  0
   18.4280    5.1440   20.8680 C   0  0  0  0  0  0  0  0  0  0  0  0
   19.0490    4.7860   22.0290 C   0  0  0  0  0  0  0  0  0  0  0  0
   20.2940    5.5730   22.2860 C   0  0  0  0  0  0  0  0  0  0  0  0
   20.7250    6.5360   21.4430 N   0  0  0  0  0  0  0  0  0  0  0  0
   19.5600    6.5230   20.2270 S   0  0  0  0  0  0  0  0  0  0  0  0
   13.3160    4.6750   21.1200 C   0  0  0  0  0  0  0  0  0  0  0  0
   12.9190    4.2420   22.3790 C   0  0  0  0  0  0  0  0  0  0  0  0
   11.8320    0.0750   24.3490 C   0  0  0  0  0  0  0  0  0  0  0  0
   11.1310   -1.1580   24.4110 C   0  0  0  0  0  0  0  0  0  0  0  0
  1  2  1  0
  2  3  1  0
  3  4  2  0
  4  5  1  0
  5  6  2  0
  6  7  1  0
  7  8  1  0
  8  9  1  0
  9 10  1  0
 10 11  1  0
 11 12  1  0
 12 13  1  0
 13 14  1  0
 14 15  2  0
 15 16  1  0
 16 17  2  0
 14 18  1  0
 17 18  1  0
 11 19  1  0
  8 20  1  0
 19 20  1  0
  6 21  1  0
  3 22  1  0
 21 22  2  0
M  END
