JAR-IMP-ed466bb3-16
     RDKit          3D

 29 33  0  0  0  0  0  0  0  0999 V2000
   12.9040   -2.0650   23.2480 C   0  0  0  0  0  0  0  0  0  0  0  0
   12.3570   -1.8790   24.4300 C   0  0  0  0  0  0  0  0  0  0  0  0
   10.9420   -1.6050   24.5190 C   0  0  0  0  0  0  0  0  0  0  0  0
   10.1320   -1.5270   23.4120 C   0  0  0  0  0  0  0  0  0  0  0  0
    8.7430   -1.2390   23.5590 C   0  0  2  0  0  0  0  0  0  0  0  0
    8.3360   -0.8980   24.8560 C   0  0  0  0  0  0  0  0  0  0  0  0
    7.2040   -0.0480   24.4000 N   0  0  0  0  0  0  0  0  0  0  0  0
    6.7850    0.6860   25.6110 C   0  0  0  0  0  0  0  0  0  0  0  0
    7.0380   -0.0980   26.8830 C   0  0  0  0  0  0  0  0  0  0  0  0
    6.6480    0.5660   28.1650 C   0  0  0  0  0  0  0  0  0  0  0  0
    6.0860    1.8320   28.1880 C   0  0  0  0  0  0  0  0  0  0  0  0
    5.7250    2.4360   29.3580 O   0  0  0  0  0  0  0  0  0  0  0  0
    6.2000    3.7000   29.5310 C   0  0  0  0  0  0  0  0  0  0  0  0
    7.6020    3.9020   30.0100 N   0  0  0  0  0  0  0  0  0  0  0  0
    8.0700    5.3130   30.1760 C   0  0  0  0  0  0  0  0  0  0  0  0
    7.1640    6.3450   29.8750 C   0  0  0  0  0  0  0  0  0  0  0  0
    5.7820    5.9350   29.4040 C   0  0  0  0  0  0  0  0  0  0  0  0
    5.2940    4.6820   29.2310 N   0  0  0  0  0  0  0  0  0  0  0  0
    5.8750    2.5130   26.9680 C   0  0  0  0  0  0  0  0  0  0  0  0
    6.2100    1.9710   25.7120 C   0  0  0  0  0  0  0  0  0  0  0  0
    6.0830   -0.8310   23.8210 C   0  0  0  0  0  0  0  0  0  0  0  0
    6.5160   -2.1150   23.4970 C   0  0  0  0  0  0  0  0  0  0  0  0
    5.5910   -3.1550   23.3210 C   0  0  0  0  0  0  0  0  0  0  0  0
    5.9970   -4.4560   23.0060 C   0  0  0  0  0  0  0  0  0  0  0  0
    7.3460   -4.7770   22.8540 C   0  0  0  0  0  0  0  0  0  0  0  0
    8.3260   -3.6630   23.0400 C   0  0  0  0  0  0  0  0  0  0  0  0
    7.8310   -2.4250   23.3440 C   0  0  0  0  0  0  0  0  0  0  0  0
   10.7660   -1.7320   22.1770 C   0  0  0  0  0  0  0  0  0  0  0  0
   12.1240   -1.9960   22.1020 C   0  0  0  0  0  0  0  0  0  0  0  0
  1  2  2  0
  2  3  1  0
  3  4  2  0
  5  4  1  1
  5  6  1  0
  6  7  1  0
  7  8  1  0
  8  9  2  0
  9 10  1  0
 10 11  2  0
 11 12  1  0
 12 13  1  0
 13 14  2  0
 14 15  1  0
 15 16  2  0
 16 17  1  0
 13 18  1  0
 17 18  2  0
 11 19  1  0
  8 20  1  0
 19 20  2  0
  7 21  1  0
 21 22  1  0
 22 23  2  0
 23 24  1  0
 24 25  2  0
 25 26  1  0
  5 27  1  0
 22 27  1  0
 26 27  2  0
  4 28  1  0
  1 29  1  0
 28 29  2  0
M  END
