JAR-IMP-ed466bb3-8
     RDKit          3D

 35 40  0  0  0  0  0  0  0  0999 V2000
    6.1290   -2.5690   27.4030 O   0  0  0  0  0  0  0  0  0  0  0  0
    6.4120   -3.5160   26.6710 C   0  0  0  0  0  0  0  0  0  0  0  0
    7.7690   -3.6790   26.0920 C   0  0  0  0  0  0  0  0  0  0  0  0
    7.8260   -3.2190   24.7100 N   0  0  0  0  0  0  0  0  0  0  0  0
    6.8500   -3.4160   23.7040 C   0  0  0  0  0  0  0  0  0  0  0  0
    6.9490   -2.4650   22.5480 C   0  0  0  0  0  0  0  0  0  0  0  0
    5.8120   -2.1790   21.7380 C   0  0  0  0  0  0  0  0  0  0  0  0
    5.8970   -1.2380   20.5890 C   0  0  0  0  0  0  0  0  0  0  0  0
    7.0430   -0.6210   20.2730 C   0  0  0  0  0  0  0  0  0  0  0  0
    8.2310   -0.8890   21.0800 C   0  0  0  0  0  0  0  0  0  0  0  0
    8.1590   -1.8170   22.2090 C   0  0  0  0  0  0  0  0  0  0  0  0
    9.2630   -2.1080   22.9990 C   0  0  1  0  0  0  0  0  0  0  0  0
   10.4420   -1.3710   22.8620 C   0  0  0  0  0  0  0  0  0  0  0  0
   10.6340   -0.0530   23.2430 C   0  0  0  0  0  0  0  0  0  0  0  0
   11.8720    0.6440   23.1000 C   0  0  0  0  0  0  0  0  0  0  0  0
   12.9790   -0.0310   22.5510 C   0  0  0  0  0  0  0  0  0  0  0  0
   12.8050   -1.3640   22.1440 C   0  0  0  0  0  0  0  0  0  0  0  0
   11.5670   -2.0050   22.2950 C   0  0  0  0  0  0  0  0  0  0  0  0
    8.6370   -2.0290   24.4210 C   0  0  0  0  0  0  0  0  0  0  0  0
    5.4810   -4.4910   26.3620 N   0  0  0  0  0  0  0  0  0  0  0  0
    5.9530   -5.7360   25.8590 C   0  0  0  0  0  0  0  0  0  0  0  0
    5.8110   -5.8460   24.4890 C   0  0  0  0  0  0  0  0  0  0  0  0
    6.9870   -6.1610   23.5970 C   0  0  0  0  0  0  0  0  0  0  0  0
    6.7600   -6.2380   22.2250 C   0  0  0  0  0  0  0  0  0  0  0  0
    5.3780   -6.0210   21.6770 C   0  0  0  0  0  0  0  0  0  0  0  0
    4.3230   -5.7430   22.5370 C   0  0  0  0  0  0  0  0  0  0  0  0
    4.5570   -5.6480   24.0160 C   0  0  0  0  0  0  0  0  0  0  0  0
    3.5340   -5.3460   25.0770 C   0  0  2  0  0  0  0  0  0  0  0  0
    2.1860   -5.2000   24.6810 C   0  0  0  0  0  0  0  0  0  0  0  0
    1.6990   -5.9910   23.6230 C   0  0  0  0  0  0  0  0  0  0  0  0
    0.3700   -5.8880   23.2110 C   0  0  0  0  0  0  0  0  0  0  0  0
   -0.4870   -4.9970   23.8490 C   0  0  0  0  0  0  0  0  0  0  0  0
   -0.0180   -4.2060   24.8960 C   0  0  0  0  0  0  0  0  0  0  0  0
    1.3130   -4.3050   25.3110 C   0  0  0  0  0  0  0  0  0  0  0  0
    4.0950   -4.1710   25.9330 C   0  0  0  0  0  0  0  0  0  0  0  0
  1  2  2  0
  2  3  1  0
  3  4  1  0
  4  5  1  0
  5  6  1  0
  6  7  2  0
  7  8  1  0
  8  9  2  0
  9 10  1  0
  6 11  1  0
 10 11  2  0
 11 12  1  0
 12 13  1  1
 13 14  2  0
 14 15  1  0
 15 16  2  0
 16 17  1  0
 13 18  1  0
 17 18  2  0
  4 19  1  0
 12 19  1  0
  2 20  1  0
 20 21  1  0
 21 22  1  0
 22 23  2  0
 23 24  1  0
 24 25  2  0
 25 26  1  0
 22 27  1  0
 26 27  2  0
 27 28  1  0
 28 29  1  6
 29 30  2  0
 30 31  1  0
 31 32  2  0
 32 33  1  0
 29 34  1  0
 33 34  2  0
 20 35  1  0
 28 35  1  0
M  END
