JAS-UND-c13ee042-3
     RDKit          3D

 15 15  0  0  0  0  0  0  0  0999 V2000
    4.8340    3.0770   19.9010 C   0  0  0  0  0  0  0  0  0  0  0  0
    4.6530    1.7920   19.1920 C   0  0  0  0  0  0  0  0  0  0  0  0
    3.4560    1.2850   19.2420 C   0  0  0  0  0  0  0  0  0  0  0  0
    5.0010    1.8540   17.7080 C   0  0  0  0  0  0  0  0  0  0  0  0
    5.5900    0.9050   19.6020 C   0  0  0  0  0  0  0  0  0  0  0  0
    6.2790    0.1220   18.5060 N   0  0  0  0  0  0  0  0  0  0  0  0
    7.1790   -0.7350   19.0120 C   0  0  0  0  0  0  0  0  0  0  0  0
    7.8620   -1.5240   18.0760 O   0  0  0  0  0  0  0  0  0  0  0  0
    7.3090   -0.7330   20.3670 C   0  0  0  0  0  0  0  0  0  0  0  0
    6.3630    0.2130   20.1450 C   0  0  0  0  0  0  0  0  0  0  0  0
    5.0430   -0.4070   19.9730 N   0  0  0  0  0  0  0  0  0  0  0  0
    6.6000    1.4360   20.1220 O   0  0  0  0  0  0  0  0  0  0  0  0
    6.9020   -0.2110   21.5140 N   0  0  0  0  0  0  0  0  0  0  0  0
    5.8860    0.7480   21.0150 C   0  0  0  0  0  0  0  0  0  0  0  0
    5.2420    1.4790   21.9390 F   0  0  0  0  0  0  0  0  0  0  0  0
  2  1  1  0
  2  3  1  0
  2  4  1  0
  2  5  1  0
  5  6  2  0
  6  7  1  0
  7  8  1  0
  7  9  2  0
  9 10  1  0
 10 11  1  0
 10 12  2  0
  9 13  1  0
  5 14  1  0
 13 14  2  0
 14 15  1  0
M  END
