JAS-UNI-326cae60-1
     RDKit          3D

 31 34  0  0  0  0  0  0  0  0999 V2000
    7.6330   -4.2180   22.7320 O   0  0  0  0  0  0  0  0  0  0  0  0
    7.5560   -3.5090   23.7300 C   0  0  0  0  0  0  0  0  0  0  0  0
    8.3430   -2.4000   23.9800 N   0  0  0  0  0  0  0  0  0  0  0  0
    8.1610   -1.0930   23.4650 C   0  0  0  0  0  0  0  0  0  0  0  0
    9.2410   -0.3340   23.3220 C   0  0  0  0  0  0  0  0  0  0  0  0
    9.2740    1.1200   23.0460 C   0  0  0  0  0  0  0  0  0  0  0  0
   10.5100    1.8140   22.9100 C   0  0  0  0  0  0  0  0  0  0  0  0
   11.7320    1.0580   23.0550 C   0  0  0  0  0  0  0  0  0  0  0  0
   11.5860   -0.2010   23.3020 C   0  0  0  0  0  0  0  0  0  0  0  0
   12.5960   -0.9980   23.4550 C   0  0  0  0  0  0  0  0  0  0  0  0
   12.5820   -1.8590   24.6290 C   0  0  0  0  0  0  0  0  0  0  0  0
   13.5590   -2.7530   24.6750 C   0  0  0  0  0  0  0  0  0  0  0  0
   13.9820   -3.0140   23.4090 C   0  0  0  0  0  0  0  0  0  0  0  0
   13.4750   -2.4050   22.2690 C   0  0  0  0  0  0  0  0  0  0  0  0
   13.1300   -2.9080   21.2100 O   0  0  0  0  0  0  0  0  0  0  0  0
   13.4800   -1.0430   22.5290 N   0  0  0  0  0  0  0  0  0  0  0  0
   10.4380   -0.9250   23.4360 C   0  0  0  0  0  0  0  0  0  0  0  0
    6.5570   -3.8080   24.7770 C   0  0  0  0  0  0  0  0  0  0  0  0
    6.3260   -2.9430   25.8770 C   0  0  0  0  0  0  0  0  0  0  0  0
    5.4000   -3.2590   26.8630 C   0  0  0  0  0  0  0  0  0  0  0  0
    4.7270   -4.4550   26.7910 C   0  0  0  0  0  0  0  0  0  0  0  0
    4.9460   -5.3280   25.7210 C   0  0  0  0  0  0  0  0  0  0  0  0
    5.8300   -5.0300   24.6410 C   0  0  1  0  0  0  0  0  0  0  0  0
    5.0050   -4.7520   23.5010 O   0  0  0  0  0  0  0  0  0  0  0  0
    3.6260   -5.0870   23.7100 C   0  0  0  0  0  0  0  0  0  0  0  0
    2.9500   -4.1560   24.5230 C   0  0  0  0  0  0  0  0  0  0  0  0
    1.4900   -4.3190   24.8700 C   0  0  0  0  0  0  0  0  0  0  0  0
    0.7770   -5.3950   24.3920 C   0  0  0  0  0  0  0  0  0  0  0  0
    1.4820   -6.4170   23.5100 C   0  0  0  0  0  0  0  0  0  0  0  0
    0.8120   -7.4740   23.0310 F   0  0  0  0  0  0  0  0  0  0  0  0
    2.9460   -6.2210   23.1850 C   0  0  0  0  0  0  0  0  0  0  0  0
  1  2  2  0
  2  3  1  0
  3  4  1  0
  4  5  1  0
  5  6  2  0
  6  7  1  0
  7  8  2  0
  8  9  1  0
  9 10  1  0
 10 11  2  0
 11 12  1  0
 12 13  2  0
 13 14  1  0
 14 15  2  0
 10 16  1  0
 14 16  1  0
  5 17  1  0
  9 17  2  0
  2 18  1  0
 18 19  2  0
 19 20  1  0
 20 21  2  0
 21 22  2  0
 18 23  1  0
 22 23  1  0
 23 24  1  6
 24 25  1  0
 25 26  2  0
 26 27  1  0
 27 28  2  0
 28 29  1  0
 29 30  1  0
 25 31  1  0
 29 31  2  0
M  END
