JIA-UNI-9972d268-3
     RDKit          3D

 31 32  0  0  0  0  0  0  0  0999 V2000
    7.2340    0.2660   19.9630 C   0  0  0  0  0  0  0  0  0  0  0  0
    8.0160    0.7650   21.0210 C   0  0  0  0  0  0  0  0  0  0  0  0
    8.6020    1.8450   20.9700 O   0  0  0  0  0  0  0  0  0  0  0  0
    8.0790   -0.0650   22.1040 N   0  0  0  0  0  0  0  0  0  0  0  0
    9.1520   -1.0370   22.3620 C   0  0  2  0  0  0  0  0  0  0  0  0
    8.7220   -1.9510   23.3430 C   0  0  0  0  0  0  0  0  0  0  0  0
    9.2630   -3.2610   23.1460 O   0  0  0  0  0  0  0  0  0  0  0  0
    7.8240   -1.6110   24.3960 N   0  0  0  0  0  0  0  0  0  0  0  0
    6.6110   -2.4220   24.5550 C   0  0  1  0  0  0  0  0  0  0  0  0
    6.9650   -3.8300   24.8340 C   0  0  0  0  0  0  0  0  0  0  0  0
    6.0440   -4.7790   24.3840 C   0  0  0  0  0  0  0  0  0  0  0  0
    6.0750   -5.2930   23.0930 C   0  0  0  0  0  0  0  0  0  0  0  0
    5.1700   -6.2260   22.6300 C   0  0  0  0  0  0  0  0  0  0  0  0
    4.1340   -6.7450   23.4190 C   0  0  0  0  0  0  0  0  0  0  0  0
    4.0060   -6.2720   24.8220 N   0  0  0  0  0  0  0  0  0  0  0  0
    5.0300   -5.2690   25.2170 C   0  0  0  0  0  0  0  0  0  0  0  0
    5.7910   -1.8610   25.5670 C   0  0  0  0  0  0  0  0  0  0  0  0
    6.2160   -0.9570   26.2790 O   0  0  0  0  0  0  0  0  0  0  0  0
    4.4880   -2.3290   25.7500 C   0  0  0  0  0  0  0  0  0  0  0  0
    3.3700   -1.0010   26.1050 Cl  0  0  0  0  0  0  0  0  0  0  0  0
   10.3500   -0.3260   22.5790 C   0  0  0  0  0  0  0  0  0  0  0  0
   10.2510    1.0700   22.8080 C   0  0  0  0  0  0  0  0  0  0  0  0
   11.3800    1.8800   23.0160 C   0  0  0  0  0  0  0  0  0  0  0  0
   12.6090    1.2890   22.9990 C   0  0  0  0  0  0  0  0  0  0  0  0
   12.7310   -0.1070   22.7790 C   0  0  0  0  0  0  0  0  0  0  0  0
   11.6300   -0.9130   22.5740 C   0  0  0  0  0  0  0  0  0  0  0  0
   11.8790   -2.2440   22.3840 C   0  0  0  0  0  0  0  0  0  0  0  0
   12.8220   -2.6410   23.8470 S   0  0  0  0  0  0  0  0  0  0  0  0
   14.1340   -3.0480   23.4640 O   0  0  0  0  0  0  0  0  0  0  0  0
   12.0250   -3.4470   24.7200 O   0  0  0  0  0  0  0  0  0  0  0  0
   13.0420   -1.2890   24.6460 F   0  0  0  0  0  0  0  0  0  0  0  0
  1  2  1  0
  2  3  2  0
  2  4  1  0
  5  4  1  1
  5  6  1  0
  6  7  2  0
  6  8  1  0
  8  9  1  0
  9 10  1  1
 10 11  1  0
 11 12  2  0
 12 13  1  0
 13 14  2  0
 14 15  1  0
 11 16  1  0
 15 16  2  0
  9 17  1  0
 17 18  2  0
 17 19  1  0
 19 20  1  0
  5 21  1  0
 21 22  2  0
 22 23  1  0
 23 24  2  0
 24 25  1  0
 21 26  1  0
 25 26  2  0
 26 27  1  0
 27 28  1  0
 28 29  2  0
 28 30  2  0
 28 31  1  0
M  END
