JOH-UNI-27ac80fd-19
     RDKit          3D

 18 19  0  0  0  0  0  0  0  0999 V2000
    6.1430   -1.8420   18.7560 C   0  0  0  0  0  0  0  0  0  0  0  0
    5.9160   -2.7950   19.9250 C   0  0  0  0  0  0  0  0  0  0  0  0
    5.3820   -3.9050   19.7550 O   0  0  0  0  0  0  0  0  0  0  0  0
    6.4270   -2.3110   21.2160 N   0  0  0  0  0  0  0  0  0  0  0  0
    7.6520   -1.4720   21.2850 C   0  0  0  0  0  0  0  0  0  0  0  0
    8.7630   -1.9880   22.2060 C   0  0  0  0  0  0  0  0  0  0  0  0
    8.3870   -3.0790   23.1260 N   0  0  0  0  0  0  0  0  0  0  0  0
    8.6470   -2.8870   24.5790 C   0  0  0  0  0  0  0  0  0  0  0  0
    9.1040   -3.7950   25.2710 O   0  0  0  0  0  0  0  0  0  0  0  0
    8.3070   -1.6100   25.0900 N   0  0  0  0  0  0  0  0  0  0  0  0
    8.7460   -1.1170   26.3010 C   0  0  0  0  0  0  0  0  0  0  0  0
    7.8960   -1.7070   27.4440 C   0  0  0  0  0  0  0  0  0  0  0  0
    6.6100   -0.8340   27.6520 C   0  0  0  0  0  0  0  0  0  0  0  0
    6.2180   -0.0960   26.7480 O   0  0  0  0  0  0  0  0  0  0  0  0
    6.0340   -0.7630   25.4960 C   0  0  0  0  0  0  0  0  0  0  0  0
    7.2590   -0.9280   24.5640 C   0  0  0  0  0  0  0  0  0  0  0  0
    7.2170   -3.9280   22.8820 C   0  0  0  0  0  0  0  0  0  0  0  0
    6.0340   -3.1450   22.3490 C   0  0  0  0  0  0  0  0  0  0  0  0
  1  2  1  0
  2  3  2  0
  2  4  1  0
  4  5  1  0
  5  6  1  0
  6  7  1  0
  7  8  1  0
  8  9  2  0
  8 10  1  0
 10 11  1  0
 11 12  1  0
 12 13  1  0
 13 14  1  0
 14 15  1  0
 10 16  1  0
 15 16  1  0
  7 17  1  0
  4 18  1  0
 17 18  1  0
M  END
