JOH-UNI-27ac80fd-20
     RDKit          3D

 19 20  0  0  0  0  0  0  0  0999 V2000
    6.2290   -1.7880   18.8940 C   0  0  0  0  0  0  0  0  0  0  0  0
    6.0080   -2.8010   20.0000 C   0  0  0  0  0  0  0  0  0  0  0  0
    5.4370   -3.8820   19.7730 O   0  0  0  0  0  0  0  0  0  0  0  0
    6.5370   -2.4460   21.2380 N   0  0  0  0  0  0  0  0  0  0  0  0
    7.6800   -1.5420   21.4480 C   0  0  0  0  0  0  0  0  0  0  0  0
    8.7850   -2.1730   22.0530 C   0  0  0  0  0  0  0  0  0  0  0  0
    8.5860   -3.0250   23.0500 N   0  0  0  0  0  0  0  0  0  0  0  0
    8.8060   -2.5260   24.4250 C   0  0  0  0  0  0  0  0  0  0  0  0
    8.0450   -1.4250   24.6270 F   0  0  0  0  0  0  0  0  0  0  0  0
   10.0920   -2.0910   24.5090 F   0  0  0  0  0  0  0  0  0  0  0  0
    8.5880   -3.4550   25.4470 N   0  0  0  0  0  0  0  0  0  0  0  0
    9.2010   -4.7240   25.6200 C   0  0  0  0  0  0  0  0  0  0  0  0
    9.3900   -5.3190   26.8720 C   0  0  0  0  0  0  0  0  0  0  0  0
    8.0920   -5.0600   27.6140 C   0  0  0  0  0  0  0  0  0  0  0  0
    6.9260   -5.5100   27.0450 O   0  0  0  0  0  0  0  0  0  0  0  0
    6.5840   -4.8260   25.8390 C   0  0  0  0  0  0  0  0  0  0  0  0
    7.2740   -3.4410   25.7710 C   0  0  0  0  0  0  0  0  0  0  0  0
    7.5080   -3.8900   22.9160 C   0  0  0  0  0  0  0  0  0  0  0  0
    6.2310   -3.2760   22.3880 C   0  0  0  0  0  0  0  0  0  0  0  0
  1  2  1  0
  2  3  2  0
  2  4  1  0
  4  5  1  0
  5  6  1  0
  6  7  1  0
  7  8  1  0
  8  9  1  0
  8 10  1  0
  8 11  1  0
 11 12  1  0
 12 13  1  0
 13 14  1  0
 14 15  1  0
 15 16  1  0
 11 17  1  0
 16 17  1  0
  7 18  1  0
  4 19  1  0
 18 19  1  0
M  END
