JOH-MSK-ec639444-1
     RDKit          3D

 19 20  0  0  0  0  0  0  0  0999 V2000
   13.2330   -2.1060   21.0850 C   0  0  0  0  0  0  0  0  0  0  0  0
   13.4850   -1.7690   22.4340 O   0  0  0  0  0  0  0  0  0  0  0  0
   12.6260   -0.8290   22.8810 C   0  0  0  0  0  0  0  0  0  0  0  0
   12.8720    0.6740   22.7430 C   0  0  0  0  0  0  0  0  0  0  0  0
   11.8980    1.5450   23.2010 C   0  0  0  0  0  0  0  0  0  0  0  0
   11.7500    2.9380   23.2300 C   0  0  0  0  0  0  0  0  0  0  0  0
   12.5340    4.0350   22.8080 C   0  0  1  0  0  0  0  0  0  0  0  0
   12.5400    4.3770   21.4660 C   0  0  0  0  0  0  0  0  0  0  0  0
   12.2010    5.1890   23.5110 C   0  0  0  0  0  0  0  0  0  0  0  0
   11.1700    5.8950   22.7580 N   0  0  0  0  0  0  0  0  0  0  0  0
   10.0250    6.3570   23.4080 C   0  0  0  0  0  0  0  0  0  0  0  0
    8.9220    6.7380   22.6480 C   0  0  0  0  0  0  0  0  0  0  0  0
    9.9800    6.4330   24.6310 O   0  0  0  0  0  0  0  0  0  0  0  0
   10.3770    3.2660   23.9070 C   0  0  0  0  0  0  0  0  0  0  0  0
    9.7970    1.9420   24.2410 N   0  0  0  0  0  0  0  0  0  0  0  0
   10.7780    1.0220   23.7760 C   0  0  0  0  0  0  0  0  0  0  0  0
   10.5400   -0.3280   23.9340 C   0  0  0  0  0  0  0  0  0  0  0  0
   11.4500   -1.2660   23.4920 C   0  0  0  0  0  0  0  0  0  0  0  0
   11.0770   -2.8960   23.7230 Cl  0  0  0  0  0  0  0  0  0  0  0  0
  1  2  1  0
  2  3  1  0
  3  4  2  0
  4  5  1  0
  5  6  1  0
  6  7  1  0
  7  8  1  6
  7  9  1  0
  9 10  1  0
 10 11  1  0
 11 12  1  0
 11 13  2  0
  6 14  2  0
 14 15  1  0
  5 16  2  0
 15 16  1  0
 16 17  1  0
  3 18  1  0
 17 18  2  0
 18 19  1  0
M  END
