JOH-MEM-5e386bbd-3
     RDKit          3D

 29 31  0  0  0  0  0  0  0  0999 V2000
   13.6550   -1.1380   22.6790 C   0  0  0  0  0  0  0  0  0  0  0  0
   12.7570   -1.7480   21.8740 O   0  0  0  0  0  0  0  0  0  0  0  0
   11.7030   -1.0410   22.3540 C   0  0  0  0  0  0  0  0  0  0  0  0
   10.3760   -1.4600   22.7480 C   0  0  0  0  0  0  0  0  0  0  0  0
    9.4120   -0.3800   23.2620 C   0  0  0  0  0  0  0  0  0  0  0  0
    9.8840    0.9140   23.2940 C   0  0  0  0  0  0  0  0  0  0  0  0
   11.1450    1.2700   22.9130 C   0  0  0  0  0  0  0  0  0  0  0  0
   12.0230    0.3130   22.4720 C   0  0  0  0  0  0  0  0  0  0  0  0
   11.2970    2.6600   23.0510 C   0  0  0  0  0  0  0  0  0  0  0  0
   12.4650    3.5990   22.7510 C   0  0  0  0  0  0  0  0  0  0  0  0
   12.3070    4.9960   23.3170 C   0  0  0  0  0  0  0  0  0  0  0  0
   11.3540    5.7940   22.5110 N   0  0  0  0  0  0  0  0  0  0  0  0
   10.3060    6.2940   23.2580 C   0  0  0  0  0  0  0  0  0  0  0  0
    9.1270    6.6760   22.6070 C   0  0  0  0  0  0  0  0  0  0  0  0
   10.3810    6.4140   24.4890 O   0  0  0  0  0  0  0  0  0  0  0  0
   10.0130    3.0520   23.5570 C   0  0  0  0  0  0  0  0  0  0  0  0
    9.0540    2.0000   23.7350 N   0  0  0  0  0  0  0  0  0  0  0  0
    7.7230    1.9700   24.1670 C   0  0  2  0  0  0  0  0  0  0  0  0
    7.0000    2.9120   23.3160 O   0  0  0  0  0  0  0  0  0  0  0  0
    5.5780    3.0830   23.5410 C   0  0  1  0  0  0  0  0  0  0  0  0
    4.6290    2.3570   22.8180 C   0  0  0  0  0  0  0  0  0  0  0  0
    3.6500    3.0240   22.1280 O   0  0  0  0  0  0  0  0  0  0  0  0
    4.7450    0.9940   22.8490 O   0  0  0  0  0  0  0  0  0  0  0  0
    5.2130    2.9140   25.0170 C   0  0  2  0  0  0  0  0  0  0  0  0
    4.2940    3.9710   25.3860 O   0  0  0  0  0  0  0  0  0  0  0  0
    6.4590    3.0520   25.8990 C   0  0  2  0  0  0  0  0  0  0  0  0
    6.9320    4.3990   25.7510 O   0  0  0  0  0  0  0  0  0  0  0  0
    7.5240    2.2230   25.5410 C   0  0  1  0  0  0  0  0  0  0  0  0
    7.1260    0.9680   26.1450 O   0  0  0  0  0  0  0  0  0  0  0  0
  1  2  1  0
  2  3  1  0
  3  4  2  0
  4  5  1  0
  5  6  2  0
  6  7  1  0
  3  8  1  0
  7  8  2  0
  7  9  1  0
  9 10  1  0
 10 11  1  0
 11 12  1  0
 12 13  1  0
 13 14  1  0
 13 15  2  0
  9 16  2  0
  6 17  1  0
 16 17  1  0
 18 17  1  1
 18 19  1  0
 19 20  1  0
 20 21  1  6
 21 22  2  0
 21 23  1  0
 20 24  1  0
 24 25  1  1
 24 26  1  0
 26 27  1  6
 18 28  1  0
 26 28  1  0
 28 29  1  1
M  END
