JOH-MSK-35a8745a-1
     RDKit          3D

 17 18  0  0  0  0  0  0  0  0999 V2000
   13.2570   -2.1150   20.9530 C   0  0  0  0  0  0  0  0  0  0  0  0
   13.5880   -1.7970   22.2770 O   0  0  0  0  0  0  0  0  0  0  0  0
   12.6180   -1.0770   22.8440 C   0  0  0  0  0  0  0  0  0  0  0  0
   11.5330   -1.5960   23.5060 C   0  0  0  0  0  0  0  0  0  0  0  0
   10.4980   -0.6650   24.0850 C   0  0  0  0  0  0  0  0  0  0  0  0
   10.7160    0.6970   23.8960 C   0  0  0  0  0  0  0  0  0  0  0  0
    9.9580    1.7660   24.2920 N   0  0  0  0  0  0  0  0  0  0  0  0
   10.5350    2.9350   23.8910 C   0  0  0  0  0  0  0  0  0  0  0  0
   11.7040    2.6330   23.2160 C   0  0  0  0  0  0  0  0  0  0  0  0
   12.5210    3.6400   22.6710 C   0  0  0  0  0  0  0  0  0  0  0  0
   12.4120    4.9750   23.1220 C   0  0  0  0  0  0  0  0  0  0  0  0
   11.2550    5.6610   22.5470 N   0  0  0  0  0  0  0  0  0  0  0  0
   10.2610    6.1840   23.3420 C   0  0  0  0  0  0  0  0  0  0  0  0
    9.1280    6.5890   22.6140 C   0  0  0  0  0  0  0  0  0  0  0  0
   10.3340    6.3010   24.5630 O   0  0  0  0  0  0  0  0  0  0  0  0
   11.8340    1.2030   23.2150 C   0  0  0  0  0  0  0  0  0  0  0  0
   12.7740    0.3040   22.7070 C   0  0  0  0  0  0  0  0  0  0  0  0
  1  2  1  0
  2  3  1  0
  3  4  2  0
  4  5  1  0
  5  6  2  0
  6  7  1  0
  7  8  1  0
  8  9  2  0
  9 10  1  0
 10 11  1  0
 11 12  1  0
 12 13  1  0
 13 14  1  0
 13 15  2  0
  6 16  1  0
  9 16  1  0
  3 17  1  0
 16 17  2  0
M  END
