JOH-UNK-14e6adc5-7
     RDKit          3D

 23 25  0  0  0  0  0  0  0  0999 V2000
   13.2230    6.1890   22.4030 C   0  0  0  0  0  0  0  0  0  0  0  0
   11.8560    5.9760   22.6960 O   0  0  0  0  0  0  0  0  0  0  0  0
   11.5760    4.7010   23.0660 C   0  0  0  0  0  0  0  0  0  0  0  0
   10.4550    4.3280   23.9130 C   0  0  0  0  0  0  0  0  0  0  0  0
   10.5000    2.8540   24.0880 C   0  0  0  0  0  0  0  0  0  0  0  0
   11.1040    1.5280   23.8410 C   0  0  0  0  0  0  0  0  0  0  0  0
   11.9910    0.4790   23.3510 N   0  0  0  0  0  0  0  0  0  0  0  0
   10.7380   -0.1300   23.6860 C   0  0  0  0  0  0  0  0  0  0  0  0
   10.6710   -1.4620   23.4750 C   0  0  0  0  0  0  0  0  0  0  0  0
    9.5200   -2.2150   23.7520 C   0  0  0  0  0  0  0  0  0  0  0  0
    8.4420   -2.2940   22.8450 N   0  0  0  0  0  0  0  0  0  0  0  0
    7.5110   -3.3260   22.8710 C   0  0  0  0  0  0  0  0  0  0  0  0
    6.2620   -3.0140   22.1330 C   0  0  0  0  0  0  0  0  0  0  0  0
    6.3480   -2.1760   21.0530 N   0  0  0  0  0  0  0  0  0  0  0  0
    5.9010   -2.6960   19.8920 C   0  0  0  0  0  0  0  0  0  0  0  0
    6.0510   -1.9020   18.7640 C   0  0  0  0  0  0  0  0  0  0  0  0
    5.3900   -3.8270   19.7850 O   0  0  0  0  0  0  0  0  0  0  0  0
    7.2180   -1.1150   21.1750 C   0  0  0  0  0  0  0  0  0  0  0  0
    8.4820   -1.5250   21.5980 C   0  0  0  0  0  0  0  0  0  0  0  0
   11.7990   -1.8850   23.0020 N   0  0  0  0  0  0  0  0  0  0  0  0
   12.5220   -0.7690   22.9470 N   0  0  0  0  0  0  0  0  0  0  0  0
   12.1210    2.2110   23.0230 C   0  0  0  0  0  0  0  0  0  0  0  0
   12.3530    3.6120   22.6640 C   0  0  0  0  0  0  0  0  0  0  0  0
  1  2  1  0
  2  3  1  0
  3  4  2  0
  4  5  1  0
  5  6  2  0
  6  7  1  0
  7  8  1  0
  8  9  2  0
  9 10  1  0
 10 11  1  0
 11 12  1  0
 12 13  1  0
 13 14  1  0
 14 15  1  0
 15 16  1  0
 15 17  2  0
 14 18  1  0
 11 19  1  0
 18 19  1  0
  9 20  1  0
  7 21  1  0
 20 21  2  0
  6 22  1  0
  3 23  1  0
 22 23  2  0
M  END
