JOH-UNI-c7afdb96-18
     RDKit          3D

 19 20  0  0  0  0  0  0  0  0999 V2000
   18.0790    2.9400   23.8080 C   0  0  0  0  0  0  0  0  0  0  0  0
   17.5640    4.1430   23.7650 C   0  0  0  0  0  0  0  0  0  0  0  0
   18.6210    4.7710   23.9370 O   0  0  0  0  0  0  0  0  0  0  0  0
   18.4900    6.0420   23.9640 N   0  0  0  0  0  0  0  0  0  0  0  0
   17.1080    6.0080   23.7630 C   0  0  0  0  0  0  0  0  0  0  0  0
   16.2940    4.7720   23.5930 C   0  0  0  0  0  0  0  0  0  0  0  0
   14.5610    4.4890   23.3330 C   0  0  0  0  0  0  0  0  0  0  0  0
   13.6140    5.2170   23.6270 O   0  0  0  0  0  0  0  0  0  0  0  0
   14.1890    3.0170   22.6080 N   0  0  0  0  0  0  0  0  0  0  0  0
   13.0930    1.8630   22.7260 C   0  0  0  0  0  0  0  0  0  0  0  0
   11.6610    2.1990   23.0040 C   0  0  0  0  0  0  0  0  0  0  0  0
   10.6620    1.1670   23.0580 C   0  0  0  0  0  0  0  0  0  0  0  0
   10.8660   -0.3140   22.8640 C   0  0  0  0  0  0  0  0  0  0  0  0
    9.8040   -1.2490   22.9120 C   0  0  0  0  0  0  0  0  0  0  0  0
   10.1850   -2.4860   22.4980 F   0  0  0  0  0  0  0  0  0  0  0  0
    8.7720   -0.8930   22.0960 F   0  0  0  0  0  0  0  0  0  0  0  0
    9.2310   -1.4260   24.1260 F   0  0  0  0  0  0  0  0  0  0  0  0
   12.1970   -0.6570   22.6230 C   0  0  0  0  0  0  0  0  0  0  0  0
   13.2910    0.4460   22.5600 C   0  0  0  0  0  0  0  0  0  0  0  0
  1  2  1  0
  2  3  1  0
  3  4  1  0
  4  5  2  0
  2  6  2  0
  5  6  1  0
  6  7  1  0
  7  8  2  0
  7  9  1  0
  9 10  1  0
 10 11  2  0
 11 12  1  0
 12 13  2  0
 13 14  1  0
 14 15  1  0
 14 16  1  0
 14 17  1  0
 13 18  1  0
 10 19  1  0
 18 19  2  0
M  END
