JOH-UNI-abdb2f0c-1
     RDKit          3D

 22 24  0  0  0  0  0  0  0  0999 V2000
   12.0410    1.5460   22.6740 O   0  0  0  0  0  0  0  0  0  0  0  0
   10.8250    1.4350   22.7630 C   0  0  0  0  0  0  0  0  0  0  0  0
    9.9720    2.5300   22.6260 N   0  0  0  0  0  0  0  0  0  0  0  0
   10.6910    3.8060   22.8880 C   0  0  0  0  0  0  0  0  0  0  0  0
   11.7930    4.1450   22.0820 C   0  0  0  0  0  0  0  0  0  0  0  0
   12.4930    5.3360   22.2930 C   0  0  0  0  0  0  0  0  0  0  0  0
   12.1010    6.2100   23.3190 C   0  0  0  0  0  0  0  0  0  0  0  0
   10.9570    5.8810   24.1760 N   0  0  0  0  0  0  0  0  0  0  0  0
   10.2780    4.6680   23.9270 C   0  0  0  0  0  0  0  0  0  0  0  0
   10.1830    0.1710   23.0730 C   0  0  0  0  0  0  0  0  0  0  0  0
   10.5620   -1.2440   22.5400 C   0  0  0  0  0  0  0  0  0  0  0  0
    9.8690   -2.5260   22.9740 C   0  0  0  0  0  0  0  0  0  0  0  0
    8.8870   -2.4080   23.8770 C   0  0  0  0  0  0  0  0  0  0  0  0
    8.2210   -3.6250   24.3690 N   0  0  0  0  0  0  0  0  0  0  0  0
    8.6540   -4.7130   23.7610 C   0  0  0  0  0  0  0  0  0  0  0  0
    7.7530   -5.6780   23.3900 C   0  0  0  0  0  0  0  0  0  0  0  0
    6.6030   -5.5380   24.1410 C   0  0  0  0  0  0  0  0  0  0  0  0
    6.8790   -5.5970   25.4810 O   0  0  0  0  0  0  0  0  0  0  0  0
    7.0690   -4.3370   26.1550 C   0  0  0  0  0  0  0  0  0  0  0  0
    8.2580   -3.7750   25.7120 C   0  0  0  0  0  0  0  0  0  0  0  0
    8.7390   -1.1070   24.1420 C   0  0  0  0  0  0  0  0  0  0  0  0
    9.1110    0.1990   23.9620 N   0  0  0  0  0  0  0  0  0  0  0  0
  1  2  2  0
  2  3  1  0
  3  4  1  0
  4  5  2  0
  5  6  1  0
  6  7  2  0
  7  8  1  0
  4  9  1  0
  8  9  2  0
  2 10  1  0
 10 11  2  0
 11 12  1  0
 12 13  2  0
 13 14  1  0
 14 15  1  0
 15 16  1  0
 16 17  1  0
 17 18  1  0
 18 19  1  0
 14 20  1  0
 19 20  1  0
 13 21  1  0
 10 22  1  0
 21 22  2  0
M  END
