JOH-UNI-27ac80fd-1
     RDKit          3D

 17 18  0  0  0  0  0  0  0  0999 V2000
    6.1670   -1.8410   18.8090 C   0  0  0  0  0  0  0  0  0  0  0  0
    5.9820   -2.7740   19.9470 C   0  0  0  0  0  0  0  0  0  0  0  0
    5.4110   -3.8680   19.7690 O   0  0  0  0  0  0  0  0  0  0  0  0
    6.5250   -2.3870   21.1790 N   0  0  0  0  0  0  0  0  0  0  0  0
    7.6960   -1.5050   21.2290 C   0  0  0  0  0  0  0  0  0  0  0  0
    8.8360   -2.0640   22.0500 C   0  0  0  0  0  0  0  0  0  0  0  0
    8.4390   -2.8790   23.2130 N   0  0  0  0  0  0  0  0  0  0  0  0
    8.3660   -2.0690   24.4280 C   0  0  0  0  0  0  0  0  0  0  0  0
    8.4000   -2.8520   25.6690 N   0  0  0  0  0  0  0  0  0  0  0  0
    8.4660   -4.3320   25.6000 C   0  0  0  0  0  0  0  0  0  0  0  0
    7.6200   -5.1890   26.5550 C   0  0  0  0  0  0  0  0  0  0  0  0
    8.0870   -5.0250   28.0010 C   0  0  0  0  0  0  0  0  0  0  0  0
    8.0920   -3.9040   28.4780 O   0  0  0  0  0  0  0  0  0  0  0  0
    7.2320   -2.9810   27.8230 C   0  0  0  0  0  0  0  0  0  0  0  0
    7.7600   -2.2300   26.7740 C   0  0  0  0  0  0  0  0  0  0  0  0
    7.3350   -3.6640   23.0070 C   0  0  0  0  0  0  0  0  0  0  0  0
    6.2210   -3.0350   22.4470 C   0  0  0  0  0  0  0  0  0  0  0  0
  1  2  1  0
  2  3  2  0
  2  4  1  0
  4  5  1  0
  5  6  1  0
  6  7  1  0
  7  8  1  0
  8  9  1  0
  9 10  1  0
 10 11  1  0
 11 12  1  0
 12 13  1  0
 13 14  1  0
  9 15  1  0
 14 15  1  0
  7 16  1  0
  4 17  1  0
 16 17  1  0
M  END
