JOH-MSK-a63bdd1d-3
     RDKit          3D

 30 32  0  0  0  0  0  0  0  0999 V2000
   10.0000   -5.8980   19.6660 C   0  0  0  0  0  0  0  0  0  0  0  0
   11.1750   -5.8500   20.2220 O   0  0  0  0  0  0  0  0  0  0  0  0
   11.2010   -4.6260   20.1760 C   0  0  1  0  0  0  0  0  0  0  0  0
   10.1660   -4.4240   19.2660 C   0  0  0  0  0  0  0  0  0  0  0  0
    9.0920   -3.6680   19.6270 O   0  0  0  0  0  0  0  0  0  0  0  0
   10.1780   -5.1030   18.1010 O   0  0  0  0  0  0  0  0  0  0  0  0
   10.7460   -3.9270   21.2880 O   0  0  0  0  0  0  0  0  0  0  0  0
   11.4810   -2.7730   21.5320 C   0  0  1  0  0  0  0  0  0  0  0  0
   11.2420   -2.3520   22.8550 O   0  0  0  0  0  0  0  0  0  0  0  0
   11.5340   -1.0740   22.8540 C   0  0  0  0  0  0  0  0  0  0  0  0
   12.8050   -0.5530   22.7340 C   0  0  0  0  0  0  0  0  0  0  0  0
   12.9660    0.8100   22.7220 C   0  0  0  0  0  0  0  0  0  0  0  0
   11.8580    1.5960   22.8330 C   0  0  0  0  0  0  0  0  0  0  0  0
   11.8370    2.9480   22.8420 C   0  0  0  0  0  0  0  0  0  0  0  0
   10.3810    3.3750   22.9940 C   0  0  0  0  0  0  0  0  0  0  0  0
    9.6650    2.1910   23.0550 N   0  0  0  0  0  0  0  0  0  0  0  0
   10.5540    1.1070   22.9580 C   0  0  0  0  0  0  0  0  0  0  0  0
   10.4210   -0.2570   22.9670 C   0  0  0  0  0  0  0  0  0  0  0  0
   13.0050   -2.8990   21.5130 C   0  0  1  0  0  0  0  0  0  0  0  0
   13.4730   -3.0170   22.8830 O   0  0  0  0  0  0  0  0  0  0  0  0
   13.5260   -3.9420   20.7210 C   0  0  1  0  0  0  0  0  0  0  0  0
   14.2520   -3.3100   19.7170 O   0  0  0  0  0  0  0  0  0  0  0  0
   14.7730   -4.5240   21.0070 C   0  0  0  0  0  0  0  0  0  0  0  0
   15.4050   -5.6860   20.9800 C   0  0  0  0  0  0  0  0  0  0  0  0
   16.6600   -5.3070   20.4690 N   0  0  0  0  0  0  0  0  0  0  0  0
   16.1260   -5.0870   19.2990 C   0  0  0  0  0  0  0  0  0  0  0  0
   16.5130   -3.8830   18.6280 C   0  0  0  0  0  0  0  0  0  0  0  0
   15.4000   -5.9950   19.0400 O   0  0  0  0  0  0  0  0  0  0  0  0
   12.6770   -4.6770   20.0610 C   0  0  1  0  0  0  0  0  0  0  0  0
   13.1770   -5.9380   20.5230 O   0  0  0  0  0  0  0  0  0  0  0  0
  1  2  1  0
  3  2  1  1
  3  4  1  0
  4  5  2  0
  4  6  1  0
  3  7  1  0
  7  8  1  0
  8  9  1  1
  9 10  1  0
 10 11  2  0
 11 12  1  0
 12 13  2  0
 13 14  1  0
 14 15  2  0
 15 16  1  0
 13 17  1  0
 16 17  1  0
 10 18  1  0
 17 18  2  0
  8 19  1  0
 19 20  1  1
 19 21  1  0
 21 22  1  6
 21 23  1  0
 23 24  1  0
 24 25  1  0
 25 26  1  0
 26 27  1  0
 26 28  2  0
  3 29  1  0
 21 29  1  0
 29 30  1  1
M  END
