JOH-UNK-14e6adc5-8
     RDKit          3D

 23 25  0  0  0  0  0  0  0  0999 V2000
    8.8890   -0.3660   27.4350 C   0  0  0  0  0  0  0  0  0  0  0  0
    8.2030    0.0580   26.5140 O   0  0  0  0  0  0  0  0  0  0  0  0
    8.8450    0.8500   25.6070 C   0  0  0  0  0  0  0  0  0  0  0  0
    8.4710    2.0510   25.2740 C   0  0  0  0  0  0  0  0  0  0  0  0
    9.1700    2.9260   24.2880 C   0  0  0  0  0  0  0  0  0  0  0  0
   10.4420    2.7230   23.4200 C   0  0  0  0  0  0  0  0  0  0  0  0
   10.7630    1.2620   23.9190 C   0  0  0  0  0  0  0  0  0  0  0  0
   11.8320    0.7030   23.3760 N   0  0  0  0  0  0  0  0  0  0  0  0
   10.7800   -0.1620   23.2580 C   0  0  0  0  0  0  0  0  0  0  0  0
   10.8720   -1.4780   22.6250 C   0  0  0  0  0  0  0  0  0  0  0  0
    9.8160   -2.4060   22.5010 C   0  0  0  0  0  0  0  0  0  0  0  0
    8.5170   -1.9500   22.5700 N   0  0  0  0  0  0  0  0  0  0  0  0
    7.5410   -2.9380   23.0820 C   0  0  0  0  0  0  0  0  0  0  0  0
    6.3180   -3.0450   22.1910 C   0  0  0  0  0  0  0  0  0  0  0  0
    6.1300   -2.1820   21.1780 N   0  0  0  0  0  0  0  0  0  0  0  0
    5.7950   -2.7320   19.8660 C   0  0  0  0  0  0  0  0  0  0  0  0
    6.0070   -1.8800   18.7740 C   0  0  0  0  0  0  0  0  0  0  0  0
    5.3210   -4.0190   19.6710 O   0  0  0  0  0  0  0  0  0  0  0  0
    6.8240   -0.8800   21.2820 C   0  0  0  0  0  0  0  0  0  0  0  0
    8.1680   -1.0100   21.6050 C   0  0  0  0  0  0  0  0  0  0  0  0
   12.1130   -1.5100   22.2630 N   0  0  0  0  0  0  0  0  0  0  0  0
   12.6150   -0.3010   22.6970 N   0  0  0  0  0  0  0  0  0  0  0  0
   10.0760    0.4520   24.8620 C   0  0  0  0  0  0  0  0  0  0  0  0
  1  2  1  0
  2  3  1  0
  3  4  2  0
  4  5  1  0
  5  6  2  0
  6  7  1  0
  7  8  1  0
  8  9  1  0
  9 10  2  0
 10 11  1  0
 11 12  1  0
 12 13  1  0
 13 14  1  0
 14 15  1  0
 15 16  1  0
 16 17  1  0
 16 18  2  0
 15 19  1  0
 12 20  1  0
 19 20  1  0
 10 21  1  0
  8 22  1  0
 21 22  2  0
  3 23  1  0
  7 23  2  0
M  END
