JOH-UNI-abdb2f0c-3
     RDKit          3D

 17 18  0  0  0  0  0  0  0  0999 V2000
   11.6380    1.7030   22.7430 O   0  0  0  0  0  0  0  0  0  0  0  0
   10.4270    1.5270   22.7910 C   0  0  0  0  0  0  0  0  0  0  0  0
    9.4530    2.5940   22.4610 C   0  0  0  0  0  0  0  0  0  0  0  0
    8.0150    1.9120   21.6690 Cl  0  0  0  0  0  0  0  0  0  0  0  0
    9.8730    0.2120   23.2150 C   0  0  0  0  0  0  0  0  0  0  0  0
   10.6470   -1.0110   23.0150 C   0  0  0  0  0  0  0  0  0  0  0  0
   10.1940   -2.3180   23.4040 C   0  0  0  0  0  0  0  0  0  0  0  0
    8.9510   -2.3490   23.9910 C   0  0  0  0  0  0  0  0  0  0  0  0
    8.2310   -3.4990   24.4790 N   0  0  0  0  0  0  0  0  0  0  0  0
    8.5650   -4.6270   23.8040 C   0  0  0  0  0  0  0  0  0  0  0  0
    7.5230   -5.2440   23.0520 C   0  0  0  0  0  0  0  0  0  0  0  0
    6.2630   -5.7300   23.6770 C   0  0  0  0  0  0  0  0  0  0  0  0
    6.4780   -5.5900   25.0700 O   0  0  0  0  0  0  0  0  0  0  0  0
    6.0970   -4.3000   25.5410 C   0  0  0  0  0  0  0  0  0  0  0  0
    6.9150   -3.2420   25.1440 C   0  0  0  0  0  0  0  0  0  0  0  0
    8.4170   -1.0010   24.0560 C   0  0  0  0  0  0  0  0  0  0  0  0
    8.6260    0.2600   23.7880 N   0  0  0  0  0  0  0  0  0  0  0  0
  1  2  2  0
  2  3  1  0
  3  4  1  0
  2  5  1  0
  5  6  2  0
  6  7  1  0
  7  8  2  0
  8  9  1  0
  9 10  1  0
 10 11  1  0
 11 12  1  0
 12 13  1  0
 13 14  1  0
  9 15  1  0
 14 15  1  0
  8 16  1  0
  5 17  1  0
 16 17  2  0
M  END
