JOH-MEM-5e386bbd-4
     RDKit          3D

 17 19  0  0  0  0  0  0  0  0999 V2000
   13.0370   -2.4360   21.0990 C   0  0  0  0  0  0  0  0  0  0  0  0
   13.6820   -1.6020   22.0080 O   0  0  0  0  0  0  0  0  0  0  0  0
   12.6650   -0.8020   22.4770 C   0  0  0  0  0  0  0  0  0  0  0  0
   11.3150   -1.2470   22.9050 C   0  0  0  0  0  0  0  0  0  0  0  0
   10.2080   -0.2940   23.4300 C   0  0  0  0  0  0  0  0  0  0  0  0
   10.5090    1.0330   23.4510 C   0  0  0  0  0  0  0  0  0  0  0  0
    9.7960    2.1320   23.8170 N   0  0  0  0  0  0  0  0  0  0  0  0
   10.3050    3.5470   23.7190 C   0  0  0  0  0  0  0  0  0  0  0  0
   11.5370    3.0070   23.2100 C   0  0  0  0  0  0  0  0  0  0  0  0
   11.6450    1.5130   23.0760 C   0  0  0  0  0  0  0  0  0  0  0  0
   12.7800    0.6880   22.6070 C   0  0  0  0  0  0  0  0  0  0  0  0
   12.5920    3.7520   22.8330 C   0  0  0  0  0  0  0  0  0  0  0  0
   12.2640    4.9810   23.2160 C   0  0  0  0  0  0  0  0  0  0  0  0
   10.9480    4.8840   23.5620 N   0  0  0  0  0  0  0  0  0  0  0  0
   10.1660    6.0960   23.7960 C   0  0  0  0  0  0  0  0  0  0  0  0
    9.4930    6.5380   22.6510 C   0  0  0  0  0  0  0  0  0  0  0  0
   10.0920    6.6690   24.8800 O   0  0  0  0  0  0  0  0  0  0  0  0
  1  2  1  0
  2  3  1  0
  3  4  2  0
  4  5  1  0
  5  6  2  0
  6  7  1  0
  7  8  1  0
  8  9  2  0
  6 10  1  0
  9 10  1  0
  3 11  1  0
 10 11  2  0
  9 12  1  0
 12 13  1  0
  8 14  1  0
 13 14  1  0
 14 15  1  0
 15 16  1  0
 15 17  2  0
M  END
