JOH-UNI-44664832-3
     RDKit          3D

 13 13  0  0  0  0  0  0  0  0999 V2000
    9.0110   -2.7260   24.1160 O   0  0  0  0  0  0  0  0  0  0  0  0
    9.0930   -1.7590   23.3520 C   0  0  0  0  0  0  0  0  0  0  0  0
   10.4130   -1.0590   23.2410 C   0  0  1  0  0  0  0  0  0  0  0  0
   10.6990   -0.2840   24.1400 O   0  0  0  0  0  0  0  0  0  0  0  0
   11.8860    0.3020   24.0500 C   0  0  2  0  0  0  0  0  0  0  0  0
   11.6470    1.9810   23.3630 S   0  0  0  0  0  0  0  0  0  0  0  0
   10.1970    2.8700   23.6010 Au  0  0  0  0  0  1  0  0  0  0  0  0
   12.9110   -0.3820   23.2390 C   0  0  2  0  0  0  0  0  0  0  0  0
   13.3390    0.2840   22.3280 O   0  0  0  0  0  0  0  0  0  0  0  0
   12.6050   -1.6900   22.5860 C   0  0  1  0  0  0  0  0  0  0  0  0
   13.5780   -2.6290   22.8940 O   0  0  0  0  0  0  0  0  0  0  0  0
   11.4050   -2.1270   22.9600 C   0  0  2  0  0  0  0  0  0  0  0  0
   10.8750   -2.7220   21.8110 O   0  0  0  0  0  0  0  0  0  0  0  0
  1  2  1  0
  3  2  1  1
  3  4  1  0
  4  5  1  0
  5  6  1  6
  6  7  1  0
  5  8  1  0
  8  9  1  6
  8 10  1  0
 10 11  1  1
  3 12  1  0
 10 12  1  0
 12 13  1  6
M  END
