JOH-UNK-14e6adc5-5
     RDKit          3D

 28 30  0  0  0  0  0  0  0  0999 V2000
    6.8620    0.2620   19.1200 C   0  0  0  0  0  0  0  0  0  0  0  0
    5.4090    0.2300   19.5960 C   0  0  0  0  0  0  0  0  0  0  0  0
    5.0600   -0.8040   20.4580 N   0  0  0  0  0  0  0  0  0  0  0  0
    5.9470   -1.5280   21.3720 C   0  0  0  0  0  0  0  0  0  0  0  0
    5.6060   -2.8560   21.4910 C   0  0  0  0  0  0  0  0  0  0  0  0
    6.2990   -3.6870   22.3260 C   0  0  0  0  0  0  0  0  0  0  0  0
    7.3560   -3.2440   23.0770 C   0  0  0  0  0  0  0  0  0  0  0  0
    8.0130   -4.0720   23.8960 F   0  0  0  0  0  0  0  0  0  0  0  0
    7.6840   -1.8920   22.9210 C   0  0  0  0  0  0  0  0  0  0  0  0
    8.7270   -1.3450   23.6060 C   0  0  0  0  0  0  0  0  0  0  0  0
    9.8170   -0.5250   23.6360 C   0  0  0  0  0  0  0  0  0  0  0  0
    9.7270    0.8410   23.8980 C   0  0  0  0  0  0  0  0  0  0  0  0
   10.7800    1.7350   23.9140 C   0  0  0  0  0  0  0  0  0  0  0  0
   12.1460    1.1620   23.6200 C   0  0  0  0  0  0  0  0  0  0  0  0
   12.1700   -0.3200   23.3630 C   0  0  0  0  0  0  0  0  0  0  0  0
   13.3840   -0.9350   23.0960 N   0  0  0  0  0  0  0  0  0  0  0  0
   13.1260   -2.1280   22.4580 C   0  0  0  0  0  0  0  0  0  0  0  0
   13.2470   -2.0100   21.1150 C   0  0  0  0  0  0  0  0  0  0  0  0
   13.6380   -0.9880   20.6020 O   0  0  0  0  0  0  0  0  0  0  0  0
   12.9860   -3.1360   20.4520 N   0  0  0  0  0  0  0  0  0  0  0  0
   14.1750   -3.8510   20.0660 C   0  0  0  0  0  0  0  0  0  0  0  0
   14.2660   -4.7510   20.7720 C   0  0  0  0  0  0  0  0  0  0  0  0
   15.3070   -5.7050   20.7960 C   0  0  0  0  0  0  0  0  0  0  0  0
   16.2310   -5.3600   19.7790 C   0  0  0  0  0  0  0  0  0  0  0  0
   16.2030   -4.4210   18.9720 N   0  0  0  0  0  0  0  0  0  0  0  0
   15.1750   -3.7070   19.1860 C   0  0  0  0  0  0  0  0  0  0  0  0
   11.0340   -1.0810   23.3780 C   0  0  0  0  0  0  0  0  0  0  0  0
    6.9950   -1.0330   22.0790 N   0  0  0  0  0  0  0  0  0  0  0  0
  1  2  1  0
  2  3  1  0
  3  4  1  0
  4  5  2  0
  5  6  1  0
  6  7  2  0
  7  8  1  0
  7  9  1  0
  9 10  1  0
 10 11  1  0
 11 12  2  0
 12 13  1  0
 13 14  2  0
 14 15  1  0
 15 16  1  0
 16 17  1  0
 17 18  1  0
 18 19  2  0
 18 20  1  0
 20 21  1  0
 21 22  2  0
 22 23  1  0
 23 24  2  0
 24 25  1  0
 21 26  1  0
 25 26  2  0
 11 27  1  0
 15 27  2  0
  4 28  1  0
  9 28  2  0
M  END
