JOH-MSK-ec639444-4
     RDKit          3D

 18 20  0  0  0  0  0  0  0  0999 V2000
   12.4450    7.1030   23.4250 C   0  0  0  0  0  0  0  0  0  0  0  0
   12.7140    5.9990   22.6360 C   0  0  0  0  0  0  0  0  0  0  0  0
   12.0550    4.7900   22.9050 C   0  0  0  0  0  0  0  0  0  0  0  0
   10.9060    4.7130   23.3280 O   0  0  0  0  0  0  0  0  0  0  0  0
   12.8780    3.7170   22.6380 N   0  0  0  0  0  0  0  0  0  0  0  0
   12.5590    2.3240   22.9000 C   0  0  0  0  0  0  0  0  0  0  0  0
   13.5290    1.1720   22.7890 C   0  0  1  0  0  0  0  0  0  0  0  0
   13.3290    0.1910   23.5370 C   0  0  0  0  0  0  0  0  0  0  0  0
   12.9380   -0.1490   22.2510 C   0  0  1  0  0  0  0  0  0  0  0  0
   11.7920   -0.4850   22.5870 C   0  0  0  0  0  0  0  0  0  0  0  0
   11.4850   -1.7610   22.3780 C   0  0  0  0  0  0  0  0  0  0  0  0
   10.1020   -2.2300   22.8210 C   0  0  0  0  0  0  0  0  0  0  0  0
    9.2850   -1.2560   23.4100 C   0  0  0  0  0  0  0  0  0  0  0  0
    9.7250    0.0800   23.5740 C   0  0  0  0  0  0  0  0  0  0  0  0
   10.9470    0.4370   23.1670 C   0  0  0  0  0  0  0  0  0  0  0  0
   11.1790    1.7780   23.4270 C   0  0  0  0  0  0  0  0  0  0  0  0
    9.9090    2.2650   23.7150 C   0  0  0  0  0  0  0  0  0  0  0  0
    9.1020    1.1990   24.1180 O   0  0  0  0  0  0  0  0  0  0  0  0
  1  2  1  0
  2  3  1  0
  3  4  2  0
  3  5  1  0
  5  6  1  0
  7  6  1  1
  7  8  1  0
  7  9  1  0
  8  9  1  0
  9 10  1  1
 10 11  2  0
 11 12  1  0
 12 13  2  0
 13 14  1  0
 10 15  1  0
 14 15  2  0
 15 16  1  0
 16 17  1  0
 14 18  1  0
 17 18  1  0
M  END
