JOH-MSK-a63bdd1d-1
     RDKit          3D

 18 19  0  0  0  0  0  0  0  0999 V2000
   13.2230   -2.1490   20.8680 C   0  0  0  0  0  0  0  0  0  0  0  0
   13.4280   -1.8230   22.2000 O   0  0  0  0  0  0  0  0  0  0  0  0
   12.5450   -0.9030   22.5560 C   0  0  0  0  0  0  0  0  0  0  0  0
   12.9240    0.5510   22.6180 C   0  0  0  0  0  0  0  0  0  0  0  0
   11.8860    1.5250   23.0180 C   0  0  0  0  0  0  0  0  0  0  0  0
   11.7560    2.8820   23.1630 C   0  0  0  0  0  0  0  0  0  0  0  0
   12.8150    3.9490   22.8510 C   0  0  0  0  0  0  0  0  0  0  0  0
   12.3570    5.3240   23.3120 C   0  0  0  0  0  0  0  0  0  0  0  0
   11.1170    5.7300   22.7230 N   0  0  0  0  0  0  0  0  0  0  0  0
   10.0370    6.2630   23.4020 C   0  0  0  0  0  0  0  0  0  0  0  0
    9.0240    6.6820   22.5270 C   0  0  0  0  0  0  0  0  0  0  0  0
    9.9320    6.3870   24.8220 O   0  0  0  0  0  0  0  0  0  0  0  0
   10.3980    3.2290   23.6560 C   0  0  0  0  0  0  0  0  0  0  0  0
    9.6970    1.9360   23.7640 N   0  0  0  0  0  0  0  0  0  0  0  0
   10.5650    0.9180   23.3670 C   0  0  0  0  0  0  0  0  0  0  0  0
   10.2480   -0.5080   23.2880 C   0  0  0  0  0  0  0  0  0  0  0  0
   11.2440   -1.3720   22.8650 C   0  0  0  0  0  0  0  0  0  0  0  0
   10.9650   -2.7070   22.7640 O   0  0  0  0  0  0  0  0  0  0  0  0
  1  2  1  0
  2  3  1  0
  3  4  2  0
  4  5  1  0
  5  6  1  0
  6  7  1  0
  7  8  1  0
  8  9  1  0
  9 10  1  0
 10 11  1  0
 10 12  2  0
  6 13  2  0
 13 14  1  0
  5 15  2  0
 14 15  1  0
 15 16  1  0
  3 17  1  0
 16 17  2  0
 17 18  1  0
M  END
