JON-UIO-066ce08b-11
     RDKit          3D

 29 31  0  0  0  0  0  0  0  0999 V2000
   -1.4030   -6.9980   19.7110 C   0  0  0  0  0  0  0  0  0  0  0  0
   -2.4700   -6.5370   20.6320 C   0  0  0  0  0  0  0  0  0  0  0  0
   -2.5980   -6.9580   21.8990 C   0  0  0  0  0  0  0  0  0  0  0  0
   -3.6170   -7.4940   22.3070 O   0  0  0  0  0  0  0  0  0  0  0  0
   -1.4180   -6.7120   22.7590 N   0  0  0  0  0  0  0  0  0  0  0  0
   -1.1590   -5.2710   22.9390 C   0  0  0  0  0  0  0  0  0  0  0  0
   -0.3170   -5.0720   24.2080 C   0  0  0  0  0  0  0  0  0  0  0  0
    0.7720   -5.8350   24.4340 N   0  0  0  0  0  0  0  0  0  0  0  0
    1.5620   -5.5110   25.4960 C   0  0  0  0  0  0  0  0  0  0  0  0
    2.2190   -4.1060   25.6910 C   0  0  0  0  0  0  0  0  0  0  0  0
    1.3140   -2.8530   25.7790 C   0  0  0  0  0  0  0  0  0  0  0  0
    1.9290   -1.6150   25.9640 C   0  0  0  0  0  0  0  0  0  0  0  0
    3.4320   -1.4240   26.0810 C   0  0  0  0  0  0  0  0  0  0  0  0
    4.2830   -2.6550   25.9920 C   0  0  0  0  0  0  0  0  0  0  0  0
    3.7850   -3.9700   25.8080 C   0  0  0  0  0  0  0  0  0  0  0  0
    4.6810   -5.0530   25.7500 C   0  0  0  0  0  0  0  0  0  0  0  0
    5.4410   -5.1550   24.4800 N   0  0  0  0  0  0  0  0  0  0  0  0
    6.2570   -3.9640   24.1240 C   0  0  0  0  0  0  0  0  0  0  0  0
    7.0010   -4.1950   22.9740 C   0  0  0  0  0  0  0  0  0  0  0  0
    6.4210   -4.7520   21.8950 N   0  0  0  0  0  0  0  0  0  0  0  0
    5.9420   -3.8770   20.7780 C   0  0  0  0  0  0  0  0  0  0  0  0
    5.3000   -4.2910   19.8000 O   0  0  0  0  0  0  0  0  0  0  0  0
    6.3370   -2.4030   20.9170 C   0  0  2  0  0  0  0  0  0  0  0  0
    5.8120   -1.7930   22.0770 O   0  0  0  0  0  0  0  0  0  0  0  0
    5.8840   -1.6520   19.8760 F   0  0  0  0  0  0  0  0  0  0  0  0
    5.6520   -5.9360   22.2480 C   0  0  0  0  0  0  0  0  0  0  0  0
    4.6950   -5.6160   23.4330 C   0  0  0  0  0  0  0  0  0  0  0  0
    0.4880   -7.2700   24.3360 C   0  0  0  0  0  0  0  0  0  0  0  0
   -0.9420   -7.5760   23.8580 C   0  0  0  0  0  0  0  0  0  0  0  0
  1  2  1  0
  2  3  1  0
  3  4  2  0
  3  5  1  0
  5  6  1  0
  6  7  1  0
  7  8  1  0
  8  9  1  0
  9 10  1  0
 10 11  2  0
 11 12  1  0
 12 13  2  0
 13 14  1  0
 10 15  1  0
 14 15  2  0
 15 16  1  0
 16 17  1  0
 17 18  1  0
 18 19  1  0
 19 20  1  0
 20 21  1  0
 21 22  2  0
 21 23  1  0
 23 24  1  1
 23 25  1  0
 20 26  1  0
 17 27  1  0
 26 27  1  0
  8 28  1  0
  5 29  1  0
 28 29  1  0
M  END
