JON-UIO-066ce08b-7
     RDKit          3D

 22 23  0  0  0  0  0  0  0  0999 V2000
   15.0390   -6.0020   20.6670 C   0  0  0  0  0  0  0  0  0  0  0  0
   14.9700   -4.6300   20.7410 C   0  0  2  0  0  0  0  0  0  0  0  0
   13.7070   -3.9320   21.0560 N   0  0  0  0  0  0  0  0  0  0  0  0
   13.3560   -2.7620   21.9710 C   0  0  0  0  0  0  0  0  0  0  0  0
   13.7310   -1.6160   21.7880 O   0  0  0  0  0  0  0  0  0  0  0  0
   12.5660   -2.7380   23.1160 C   0  0  1  0  0  0  0  0  0  0  0  0
   12.9810   -1.7790   24.0610 C   0  0  0  0  0  0  0  0  0  0  0  0
   11.2170   -2.5620   23.0150 C   0  0  0  0  0  0  0  0  0  0  0  0
   11.8340   -1.3220   23.3710 C   0  0  0  0  0  0  0  0  0  0  0  0
   11.3320    0.0650   23.6220 C   0  0  0  0  0  0  0  0  0  0  0  0
    9.8710    0.4110   23.4850 C   0  0  0  0  0  0  0  0  0  0  0  0
    9.2290    1.5880   23.6300 F   0  0  0  0  0  0  0  0  0  0  0  0
    9.4650   -0.8510   23.1810 C   0  0  0  0  0  0  0  0  0  0  0  0
    8.1330   -0.8320   23.0260 F   0  0  0  0  0  0  0  0  0  0  0  0
    9.8710   -2.1390   22.9660 C   0  0  0  0  0  0  0  0  0  0  0  0
   15.2690   -4.6550   19.4790 C   0  0  0  0  0  0  0  0  0  0  0  0
   15.4140   -5.9380   18.8730 C   0  0  0  0  0  0  0  0  0  0  0  0
   15.6720   -6.1510   17.4140 C   0  0  0  0  0  0  0  0  0  0  0  0
   15.8110   -5.1090   16.5420 C   0  0  0  0  0  0  0  0  0  0  0  0
   15.6970   -3.8830   17.2460 C   0  0  0  0  0  0  0  0  0  0  0  0
   15.7600   -2.7560   16.7900 F   0  0  0  0  0  0  0  0  0  0  0  0
   15.4630   -3.6900   18.5510 C   0  0  0  0  0  0  0  0  0  0  0  0
  2  1  1  6
  2  3  1  0
  3  4  1  0
  4  5  2  0
  4  6  1  0
  6  7  1  1
  6  8  1  0
  8  9  2  0
  9 10  1  0
 10 11  2  0
 11 12  1  0
 11 13  1  0
 13 14  1  0
  8 15  1  0
 13 15  2  0
  2 16  1  0
 16 17  2  0
 17 18  1  0
 18 19  2  0
 19 20  1  0
 20 21  1  0
 16 22  1  0
 20 22  2  0
M  END
