JON-UIO-066ce08b-13
     RDKit          3D

 19 19  0  0  0  0  0  0  0  0999 V2000
    8.2960   -0.7840   20.9620 C   0  0  0  0  0  0  0  0  0  0  0  0
    7.5350   -1.5140   21.9840 C   0  0  0  0  0  0  0  0  0  0  0  0
    6.6430   -2.2950   21.6560 O   0  0  0  0  0  0  0  0  0  0  0  0
    7.8710   -1.2530   23.3100 N   0  0  0  0  0  0  0  0  0  0  0  0
    9.1850   -1.5930   23.8500 C   0  0  2  0  0  0  0  0  0  0  0  0
   10.0830   -0.5720   23.6430 C   0  0  0  0  0  0  0  0  0  0  0  0
   11.4070   -0.8960   23.3050 C   0  0  0  0  0  0  0  0  0  0  0  0
   12.5100    0.0730   23.0380 C   0  0  0  0  0  0  0  0  0  0  0  0
   13.7180   -0.3350   22.7240 F   0  0  0  0  0  0  0  0  0  0  0  0
   12.0730    1.5340   23.1590 C   0  0  0  0  0  0  0  0  0  0  0  0
   10.6510    1.8630   23.5130 C   0  0  0  0  0  0  0  0  0  0  0  0
   10.0910    3.4830   23.6180 S   0  0  0  0  0  0  0  0  0  0  0  0
    9.1470    3.5890   22.2570 N   0  0  0  0  0  0  0  0  0  0  0  0
    9.1380    3.6150   24.6910 O   0  0  0  0  0  0  0  0  0  0  0  0
   11.2010    4.3930   23.4380 O   0  0  0  0  0  0  0  0  0  0  0  0
    9.6860    0.7700   23.7570 C   0  0  0  0  0  0  0  0  0  0  0  0
    9.7300   -2.9030   23.2570 C   0  0  2  0  0  0  0  0  0  0  0  0
    8.5020   -3.5340   23.5010 C   0  0  0  0  0  0  0  0  0  0  0  0
   10.7040   -3.3760   24.0870 F   0  0  0  0  0  0  0  0  0  0  0  0
  1  2  1  0
  2  3  2  0
  2  4  1  0
  5  4  1  6
  5  6  1  0
  6  7  2  0
  7  8  1  0
  8  9  1  0
  8 10  2  0
 10 11  1  0
 11 12  1  0
 12 13  1  0
 12 14  2  0
 12 15  2  0
  6 16  1  0
 11 16  2  0
  5 17  1  0
 17 18  1  1
 17 19  1  0
M  END
