JON-UIO-cc955e79-2
     RDKit          3D

 24 26  0  0  0  0  0  0  0  0999 V2000
    8.0610   -1.2870   20.9050 C   0  0  0  0  0  0  0  0  0  0  0  0
    8.0380   -2.1560   21.9970 C   0  0  0  0  0  0  0  0  0  0  0  0
    8.8310   -1.6370   23.1270 N   0  0  0  0  0  0  0  0  0  0  0  0
   10.2070   -1.3850   22.6850 C   0  0  0  0  0  0  0  0  0  0  0  0
   10.7940   -2.2700   21.8720 N   0  0  0  0  0  0  0  0  0  0  0  0
   12.0410   -1.8520   21.5700 C   0  0  0  0  0  0  0  0  0  0  0  0
   12.8780   -0.8610   22.2500 C   0  0  0  0  0  0  0  0  0  0  0  0
   12.2730   -0.3450   23.3320 C   0  0  0  0  0  0  0  0  0  0  0  0
   10.8760   -0.0850   23.2010 C   0  0  1  0  0  0  0  0  0  0  0  0
   10.5610    1.0950   22.4350 C   0  0  0  0  0  0  0  0  0  0  0  0
   10.2960    2.4470   22.9700 C   0  0  2  0  0  0  0  0  0  0  0  0
    8.9230    2.6420   23.7140 C   0  0  2  0  0  0  0  0  0  0  0  0
    8.0740    3.1940   22.6880 O   0  0  0  0  0  0  0  0  0  0  0  0
    8.8010    3.5270   24.7860 C   0  0  0  0  0  0  0  0  0  0  0  0
    7.4700    3.5930   25.2380 C   0  0  0  0  0  0  0  0  0  0  0  0
    7.0400    4.6750   25.9280 F   0  0  0  0  0  0  0  0  0  0  0  0
    6.5880    2.5460   24.9740 C   0  0  0  0  0  0  0  0  0  0  0  0
    6.9970    1.4170   24.2690 C   0  0  0  0  0  0  0  0  0  0  0  0
    8.3430    1.3680   23.9960 O   0  0  0  0  0  0  0  0  0  0  0  0
   10.2220    3.4250   22.0000 C   0  0  0  0  0  0  0  0  0  0  0  0
   11.3180    4.2690   21.9240 C   0  0  0  0  0  0  0  0  0  0  0  0
   12.0560    4.2210   22.9130 N   0  0  0  0  0  0  0  0  0  0  0  0
   13.4430    4.2020   22.6390 C   0  0  0  0  0  0  0  0  0  0  0  0
   11.4420    3.1100   23.5820 C   0  0  0  0  0  0  0  0  0  0  0  0
  1  2  1  0
  2  3  1  0
  3  4  1  0
  4  5  2  0
  5  6  1  0
  6  7  2  0
  7  8  1  0
  4  9  1  0
  8  9  1  0
  9 10  1  6
 11 10  1  6
 11 12  1  0
 12 13  1  6
 12 14  1  0
 14 15  1  0
 15 16  1  0
 15 17  2  0
 17 18  1  0
 12 19  1  0
 18 19  1  0
 11 20  1  0
 20 21  1  0
 21 22  1  0
 22 23  1  0
 11 24  1  0
 22 24  1  0
M  END
