JON-CHE-41f76505-1
     RDKit          3D

 28 30  0  0  0  0  0  0  0  0999 V2000
    8.5100    2.5780   21.5820 N   0  0  0  0  0  0  0  0  0  0  0  0
    7.5460    1.4840   21.8200 C   0  0  0  0  0  0  0  0  0  0  0  0
    6.9610    1.2630   23.1060 O   0  0  0  0  0  0  0  0  0  0  0  0
    7.2000    0.6550   20.7530 C   0  0  0  0  0  0  0  0  0  0  0  0
    6.4130    1.3140   19.7490 N   0  0  0  0  0  0  0  0  0  0  0  0
    6.0480    0.6240   18.6640 C   0  0  0  0  0  0  0  0  0  0  0  0
    5.5660    1.2930   17.6010 F   0  0  0  0  0  0  0  0  0  0  0  0
    6.1740   -0.8770   18.6140 C   0  0  0  0  0  0  0  0  0  0  0  0
    6.6820   -1.5790   19.7860 N   0  0  0  0  0  0  0  0  0  0  0  0
    5.7730   -2.3600   20.4000 C   0  0  0  0  0  0  0  0  0  0  0  0
    5.9190   -3.7460   20.5980 C   0  0  0  0  0  0  0  0  0  0  0  0
    5.5090   -4.7160   19.7890 O   0  0  0  0  0  0  0  0  0  0  0  0
    6.5590   -4.1940   21.7410 N   0  0  0  0  0  0  0  0  0  0  0  0
    7.5520   -3.4870   22.5270 C   0  0  0  0  0  0  0  0  0  0  0  0
    6.9680   -2.9920   23.6880 C   0  0  0  0  0  0  0  0  0  0  0  0
    6.2630   -3.9940   24.3700 C   0  0  0  0  0  0  0  0  0  0  0  0
    5.3380   -3.3620   25.4760 C   0  0  0  0  0  0  0  0  0  0  0  0
    4.5860   -2.4590   25.1060 O   0  0  0  0  0  0  0  0  0  0  0  0
    5.3260   -3.7660   26.8250 N   0  0  0  0  0  0  0  0  0  0  0  0
    6.5330   -3.5740   27.5500 C   0  0  0  0  0  0  0  0  0  0  0  0
    6.7800   -4.7330   28.3290 C   0  0  0  0  0  0  0  0  0  0  0  0
    5.6880   -5.0280   29.0990 C   0  0  0  0  0  0  0  0  0  0  0  0
    4.7320   -4.0190   29.0260 C   0  0  0  0  0  0  0  0  0  0  0  0
    4.2420   -3.6260   27.7680 C   0  0  0  0  0  0  0  0  0  0  0  0
    5.4570   -4.8560   23.6070 C   0  0  0  0  0  0  0  0  0  0  0  0
    6.0940   -5.2640   22.4210 C   0  0  0  0  0  0  0  0  0  0  0  0
    7.6080   -0.8080   20.6290 C   0  0  0  0  0  0  0  0  0  0  0  0
    8.6120   -1.2180   21.1870 O   0  0  0  0  0  0  0  0  0  0  0  0
  1  2  1  0
  2  3  2  0
  2  4  1  0
  4  5  2  0
  5  6  1  0
  6  7  1  0
  6  8  2  0
  8  9  1  0
  9 10  1  0
 10 11  1  0
 11 12  2  0
 11 13  1  0
 13 14  1  0
 14 15  1  0
 15 16  1  0
 16 17  1  0
 17 18  2  0
 17 19  1  0
 19 20  1  0
 20 21  1  0
 21 22  1  0
 22 23  1  0
 19 24  1  0
 23 24  1  0
 16 25  1  0
 13 26  1  0
 25 26  1  0
  4 27  1  0
  9 27  1  0
 27 28  2  0
M  END
