JON-CHE-41f76505-2
     RDKit          3D

 28 30  0  0  0  0  0  0  0  0999 V2000
    5.2240    0.1240   18.2340 N   0  0  0  0  0  0  0  0  0  0  0  0
    6.2660    0.5660   18.8450 C   0  0  0  0  0  0  0  0  0  0  0  0
    7.2570    0.9270   18.2430 O   0  0  0  0  0  0  0  0  0  0  0  0
    6.1820    0.6130   20.3740 C   0  0  0  0  0  0  0  0  0  0  0  0
    5.7540    1.7680   20.9710 N   0  0  0  0  0  0  0  0  0  0  0  0
    5.7150    1.7420   22.3260 C   0  0  0  0  0  0  0  0  0  0  0  0
    5.3020    2.8600   22.9410 F   0  0  0  0  0  0  0  0  0  0  0  0
    6.0720    0.6350   23.1260 C   0  0  0  0  0  0  0  0  0  0  0  0
    6.5060   -0.5580   22.6210 N   0  0  0  0  0  0  0  0  0  0  0  0
    6.5840   -0.6280   21.1720 C   0  0  0  0  0  0  0  0  0  0  0  0
    6.9740   -1.6800   20.6470 O   0  0  0  0  0  0  0  0  0  0  0  0
    5.9380   -2.4980   20.1080 C   0  0  0  0  0  0  0  0  0  0  0  0
    5.9250   -3.8600   20.5100 C   0  0  0  0  0  0  0  0  0  0  0  0
    5.4270   -4.7350   19.8220 O   0  0  0  0  0  0  0  0  0  0  0  0
    6.5840   -4.1990   21.7900 N   0  0  0  0  0  0  0  0  0  0  0  0
    7.5600   -3.2780   22.4060 C   0  0  0  0  0  0  0  0  0  0  0  0
    7.2000   -2.9850   23.7370 C   0  0  0  0  0  0  0  0  0  0  0  0
    5.9640   -3.5630   24.0070 C   0  0  0  0  0  0  0  0  0  0  0  0
    5.3210   -3.1460   25.1800 C   0  0  0  0  0  0  0  0  0  0  0  0
    4.6010   -2.1550   25.1310 O   0  0  0  0  0  0  0  0  0  0  0  0
    5.4410   -3.8120   26.3900 N   0  0  0  0  0  0  0  0  0  0  0  0
    6.4100   -3.3440   27.1960 C   0  0  0  0  0  0  0  0  0  0  0  0
    6.7510   -4.4320   28.2340 C   0  0  0  0  0  0  0  0  0  0  0  0
    5.5760   -4.7000   29.0920 C   0  0  0  0  0  0  0  0  0  0  0  0
    4.5180   -5.1420   28.1440 C   0  0  0  0  0  0  0  0  0  0  0  0
    4.2590   -4.1870   27.1580 C   0  0  0  0  0  0  0  0  0  0  0  0
    5.7930   -4.9760   23.7880 C   0  0  0  0  0  0  0  0  0  0  0  0
    6.2620   -5.4100   22.5620 C   0  0  0  0  0  0  0  0  0  0  0  0
  1  2  1  0
  2  3  2  0
  2  4  1  0
  4  5  2  0
  5  6  1  0
  6  7  1  0
  6  8  2  0
  8  9  1  0
  4 10  1  0
  9 10  2  0
 10 11  1  0
 11 12  1  0
 12 13  1  0
 13 14  2  0
 13 15  1  0
 15 16  1  0
 16 17  1  0
 17 18  1  0
 18 19  1  0
 19 20  2  0
 19 21  1  0
 21 22  1  0
 22 23  1  0
 23 24  1  0
 24 25  1  0
 21 26  1  0
 25 26  1  0
 18 27  1  0
 15 28  1  0
 27 28  1  0
M  END
