JOO-IND-b13e14cc-2
     RDKit          3D

 20 22  0  0  0  0  0  0  0  0999 V2000
    5.4190   -4.0540   19.5040 O   0  0  0  0  0  0  0  0  0  0  0  0
    5.7170   -3.3670   20.4560 C   0  0  0  0  0  0  0  0  0  0  0  0
    5.6420   -1.9800   20.2910 C   0  0  1  0  0  0  0  0  0  0  0  0
    6.5480   -1.3070   21.0480 F   0  0  0  0  0  0  0  0  0  0  0  0
    6.0180   -1.5480   18.6140 Cl  0  0  0  0  0  0  0  0  0  0  0  0
    6.1440   -3.8980   21.7310 N   0  0  0  0  0  0  0  0  0  0  0  0
    6.1020   -5.3500   22.0740 C   0  0  0  0  0  0  0  0  0  0  0  0
    6.8200   -5.7780   23.2390 C   0  0  0  0  0  0  0  0  0  0  0  0
    7.4830   -4.8430   23.9480 C   0  0  0  0  0  0  0  0  0  0  0  0
    8.0990   -3.8810   23.0600 C   0  0  2  0  0  0  0  0  0  0  0  0
    9.2500   -3.1910   23.4500 C   0  0  0  0  0  0  0  0  0  0  0  0
    9.7060   -2.0060   23.0470 N   0  0  0  0  0  0  0  0  0  0  0  0
   10.9450   -1.6650   23.5450 C   0  0  0  0  0  0  0  0  0  0  0  0
   11.8420   -0.6330   23.4370 C   0  0  0  0  0  0  0  0  0  0  0  0
   13.0390   -0.7090   24.1130 C   0  0  0  0  0  0  0  0  0  0  0  0
   13.3900   -1.7950   24.9220 C   0  0  0  0  0  0  0  0  0  0  0  0
   12.6050   -2.8410   25.1150 C   0  0  0  0  0  0  0  0  0  0  0  0
   11.4130   -2.7820   24.4550 C   0  0  0  0  0  0  0  0  0  0  0  0
   10.2780   -3.9690   24.5530 S   0  0  0  0  0  0  0  0  0  0  0  0
    7.0490   -3.0200   22.4920 C   0  0  0  0  0  0  0  0  0  0  0  0
  1  2  2  0
  2  3  1  0
  3  4  1  1
  3  5  1  0
  2  6  1  0
  6  7  1  0
  7  8  1  0
  8  9  1  0
  9 10  1  0
 10 11  1  1
 11 12  2  0
 12 13  1  0
 13 14  2  0
 14 15  1  0
 15 16  2  0
 16 17  1  0
 13 18  1  0
 17 18  2  0
 11 19  1  0
 18 19  1  0
  6 20  1  0
 10 20  1  0
M  END
