JOR-UNI-2fc98d0b-5
     RDKit          3D

 25 27  0  0  0  0  0  0  0  0999 V2000
    7.0800   -4.7150   24.2440 C   0  0  0  0  0  0  0  0  0  0  0  0
    7.3170   -4.5840   25.6630 N   0  0  0  0  0  0  0  0  0  0  0  0
    8.6080   -4.6430   26.0210 C   0  0  0  0  0  0  0  0  0  0  0  0
    9.2540   -3.6710   25.0680 C   0  0  0  0  0  0  0  0  0  0  0  0
    8.8420   -2.2700   25.2500 N   0  0  0  0  0  0  0  0  0  0  0  0
    8.0900   -1.8360   24.0590 C   0  0  0  0  0  0  0  0  0  0  0  0
    8.7550   -0.8610   23.1430 N   0  0  0  0  0  0  0  0  0  0  0  0
    8.1340   -0.2650   21.9950 C   0  0  0  0  0  0  0  0  0  0  0  0
    8.6310    0.7610   21.5220 O   0  0  0  0  0  0  0  0  0  0  0  0
    7.0180   -0.8030   21.3760 N   0  0  0  0  0  0  0  0  0  0  0  0
    6.4040   -0.1440   20.2730 C   0  0  0  0  0  0  0  0  0  0  0  0
    5.0890    0.6350   20.5450 C   0  0  0  0  0  0  0  0  0  0  0  0
    4.5650    1.2930   19.3040 C   0  0  0  0  0  0  0  0  0  0  0  0
    5.2480    1.1910   17.9890 C   0  0  0  0  0  0  0  0  0  0  0  0
    6.3820    0.4910   17.8460 N   0  0  0  0  0  0  0  0  0  0  0  0
    6.9130   -0.1400   18.9540 C   0  0  0  0  0  0  0  0  0  0  0  0
   10.1440   -0.6710   23.1760 C   0  0  0  0  0  0  0  0  0  0  0  0
   10.7560    0.2860   23.9630 C   0  0  0  0  0  0  0  0  0  0  0  0
   12.1280    0.4370   23.9090 C   0  0  0  0  0  0  0  0  0  0  0  0
   12.9290   -0.3530   23.0790 C   0  0  0  0  0  0  0  0  0  0  0  0
   12.3740   -1.3470   22.2600 C   0  0  0  0  0  0  0  0  0  0  0  0
   13.1780   -2.3900   21.1970 Cl  0  0  0  0  0  0  0  0  0  0  0  0
   10.8960   -1.4660   22.3570 C   0  0  0  0  0  0  0  0  0  0  0  0
    7.8720   -2.3030   26.3600 C   0  0  0  0  0  0  0  0  0  0  0  0
    6.8060   -3.2780   26.1560 C   0  0  0  0  0  0  0  0  0  0  0  0
  1  2  1  0
  2  3  1  0
  3  4  1  0
  4  5  1  0
  5  6  1  0
  6  7  1  0
  7  8  1  0
  8  9  2  0
  8 10  1  0
 10 11  1  0
 11 12  2  0
 12 13  1  0
 13 14  2  0
 14 15  1  0
 11 16  1  0
 15 16  2  0
  7 17  1  0
 17 18  2  0
 18 19  1  0
 19 20  2  0
 20 21  1  0
 21 22  1  0
 17 23  1  0
 21 23  2  0
  5 24  1  0
  2 25  1  0
 24 25  1  0
M  END
