JOR-UNI-2fc98d0b-9
     RDKit          3D

 26 28  0  0  0  0  0  0  0  0999 V2000
    8.6040    0.8830   21.2420 O   0  0  0  0  0  0  0  0  0  0  0  0
    8.1780   -0.1990   21.6280 C   0  0  0  0  0  0  0  0  0  0  0  0
    6.9810   -0.8760   21.1670 N   0  0  0  0  0  0  0  0  0  0  0  0
    6.3620   -0.1130   20.0760 C   0  0  0  0  0  0  0  0  0  0  0  0
    5.2210    0.5620   20.3730 C   0  0  0  0  0  0  0  0  0  0  0  0
    4.5960    1.3630   19.2180 C   0  0  0  0  0  0  0  0  0  0  0  0
    5.2100    1.3730   17.9230 C   0  0  0  0  0  0  0  0  0  0  0  0
    6.3430    0.6540   17.7630 N   0  0  0  0  0  0  0  0  0  0  0  0
    6.9390   -0.0910   18.7940 C   0  0  0  0  0  0  0  0  0  0  0  0
    8.8300   -1.0200   22.6390 N   0  0  0  0  0  0  0  0  0  0  0  0
    8.4980   -2.4540   22.7270 C   0  0  0  0  0  0  0  0  0  0  0  0
    7.0430   -2.7050   23.1040 C   0  0  0  0  0  0  0  0  0  0  0  0
    6.9390   -3.7820   23.9180 N   0  0  0  0  0  0  0  0  0  0  0  0
    6.8830   -4.9990   23.3160 C   0  0  0  0  0  0  0  0  0  0  0  0
    5.7240   -5.5030   22.7450 C   0  0  0  0  0  0  0  0  0  0  0  0
    4.5770   -5.0260   23.4530 C   0  0  0  0  0  0  0  0  0  0  0  0
    4.3970   -5.2920   24.6440 O   0  0  0  0  0  0  0  0  0  0  0  0
    5.4900   -4.9030   25.4710 C   0  0  0  0  0  0  0  0  0  0  0  0
    6.0380   -3.6220   25.0580 C   0  0  0  0  0  0  0  0  0  0  0  0
   10.1560   -0.7270   22.8790 C   0  0  0  0  0  0  0  0  0  0  0  0
   10.6420    0.5630   22.7640 C   0  0  0  0  0  0  0  0  0  0  0  0
   11.9500    0.8630   22.9740 C   0  0  0  0  0  0  0  0  0  0  0  0
   12.8550   -0.0820   23.3210 C   0  0  0  0  0  0  0  0  0  0  0  0
   12.4810   -1.4220   23.4820 C   0  0  0  0  0  0  0  0  0  0  0  0
   13.5800   -2.6350   23.9370 Cl  0  0  0  0  0  0  0  0  0  0  0  0
   11.1970   -1.7840   23.2740 C   0  0  0  0  0  0  0  0  0  0  0  0
  1  2  2  0
  2  3  1  0
  3  4  1  0
  4  5  2  0
  5  6  1  0
  6  7  2  0
  7  8  1  0
  4  9  1  0
  8  9  2  0
  2 10  1  0
 10 11  1  0
 11 12  1  0
 12 13  1  0
 13 14  1  0
 14 15  1  0
 15 16  1  0
 16 17  1  0
 17 18  1  0
 13 19  1  0
 18 19  1  0
 10 20  1  0
 20 21  2  0
 21 22  1  0
 22 23  2  0
 23 24  1  0
 24 25  1  0
 20 26  1  0
 24 26  2  0
M  END
