JOR-UNI-2fc98d0b-14
     RDKit          3D

 25 27  0  0  0  0  0  0  0  0999 V2000
    7.9700   -5.0960   23.8370 C   0  0  0  0  0  0  0  0  0  0  0  0
    8.5270   -5.1530   25.2150 C   0  0  0  0  0  0  0  0  0  0  0  0
    8.2050   -4.2710   26.1010 C   0  0  0  0  0  0  0  0  0  0  0  0
    8.8550   -2.9410   25.9490 C   0  0  0  0  0  0  0  0  0  0  0  0
    9.4060   -2.6300   24.7340 N   0  0  0  0  0  0  0  0  0  0  0  0
    8.4760   -2.2600   23.7520 C   0  0  0  0  0  0  0  0  0  0  0  0
    8.8240   -1.0640   23.1320 N   0  0  0  0  0  0  0  0  0  0  0  0
    8.2010   -0.4770   22.0110 C   0  0  0  0  0  0  0  0  0  0  0  0
    8.7120    0.5510   21.5600 O   0  0  0  0  0  0  0  0  0  0  0  0
    7.0580   -1.0000   21.3700 N   0  0  0  0  0  0  0  0  0  0  0  0
    6.3960   -0.2700   20.3630 C   0  0  0  0  0  0  0  0  0  0  0  0
    5.0930    0.5520   20.5310 C   0  0  0  0  0  0  0  0  0  0  0  0
    4.6100    1.2100   19.4060 C   0  0  0  0  0  0  0  0  0  0  0  0
    5.3210    1.1300   18.0740 C   0  0  0  0  0  0  0  0  0  0  0  0
    6.4430    0.4170   17.9350 N   0  0  0  0  0  0  0  0  0  0  0  0
    6.9510   -0.2550   19.0480 C   0  0  0  0  0  0  0  0  0  0  0  0
   10.1520   -0.7640   23.1510 C   0  0  0  0  0  0  0  0  0  0  0  0
   10.6620    0.1890   23.9950 C   0  0  0  0  0  0  0  0  0  0  0  0
   12.0060    0.4850   23.9550 C   0  0  0  0  0  0  0  0  0  0  0  0
   12.9130   -0.1210   23.1100 C   0  0  0  0  0  0  0  0  0  0  0  0
   12.4510   -1.1000   22.2370 C   0  0  0  0  0  0  0  0  0  0  0  0
   13.3380   -1.9610   21.1190 Cl  0  0  0  0  0  0  0  0  0  0  0  0
   10.9950   -1.4100   22.2900 C   0  0  0  0  0  0  0  0  0  0  0  0
   10.3270   -3.6660   24.3350 C   0  0  0  0  0  0  0  0  0  0  0  0
   10.0250   -4.9060   25.2170 C   0  0  0  0  0  0  0  0  0  0  0  0
  1  2  1  0
  2  3  1  0
  3  4  1  0
  4  5  1  0
  5  6  1  0
  6  7  1  0
  7  8  1  0
  8  9  2  0
  8 10  1  0
 10 11  1  0
 11 12  2  0
 12 13  1  0
 13 14  2  0
 14 15  1  0
 11 16  1  0
 15 16  2  0
  7 17  1  0
 17 18  2  0
 18 19  1  0
 19 20  2  0
 20 21  1  0
 21 22  1  0
 17 23  1  0
 21 23  2  0
  5 24  1  0
  2 25  1  0
 24 25  1  0
M  END
