JOR-UNI-2fc98d0b-7
     RDKit          3D

 17 18  0  0  0  0  0  0  0  0999 V2000
    8.7660    0.6490   21.2470 O   0  0  0  0  0  0  0  0  0  0  0  0
    8.1910   -0.3220   21.7280 C   0  0  0  0  0  0  0  0  0  0  0  0
    6.9140   -0.7650   21.4110 N   0  0  0  0  0  0  0  0  0  0  0  0
    6.4640   -0.1110   20.1970 C   0  0  0  0  0  0  0  0  0  0  0  0
    5.3000    0.6430   20.3980 C   0  0  0  0  0  0  0  0  0  0  0  0
    4.6690    1.3960   19.2650 C   0  0  0  0  0  0  0  0  0  0  0  0
    5.2330    1.3530   18.0110 C   0  0  0  0  0  0  0  0  0  0  0  0
    6.3860    0.6190   17.7630 N   0  0  0  0  0  0  0  0  0  0  0  0
    6.9950   -0.0850   18.7540 C   0  0  0  0  0  0  0  0  0  0  0  0
    8.8290   -1.0640   22.7000 N   0  0  0  0  0  0  0  0  0  0  0  0
   10.1810   -1.2580   23.0400 C   0  0  0  0  0  0  0  0  0  0  0  0
   10.6640   -1.3410   24.4480 C   0  0  0  0  0  0  0  0  0  0  0  0
   12.1570   -1.5560   24.7060 C   0  0  0  0  0  0  0  0  0  0  0  0
   13.0120   -1.6650   23.5110 C   0  0  0  0  0  0  0  0  0  0  0  0
   12.4270   -1.5770   22.1820 C   0  0  0  0  0  0  0  0  0  0  0  0
   13.4460   -1.7360   20.8800 Cl  0  0  0  0  0  0  0  0  0  0  0  0
   11.0730   -1.3810   22.0080 C   0  0  0  0  0  0  0  0  0  0  0  0
  1  2  2  0
  2  3  1  0
  3  4  1  0
  4  5  2  0
  5  6  1  0
  6  7  2  0
  7  8  1  0
  4  9  1  0
  8  9  2  0
  2 10  1  0
 10 11  1  0
 11 12  2  0
 12 13  1  0
 13 14  2  0
 14 15  1  0
 15 16  1  0
 11 17  1  0
 15 17  2  0
M  END
