JOR-UNI-2fc98d0b-15
     RDKit          3D

 26 28  0  0  0  0  0  0  0  0999 V2000
    3.6590   -4.7120   23.3080 C   0  0  0  0  0  0  0  0  0  0  0  0
    4.7820   -5.5810   23.7510 C   0  0  0  0  0  0  0  0  0  0  0  0
    5.7050   -5.9310   22.7750 C   0  0  0  0  0  0  0  0  0  0  0  0
    7.0690   -5.3130   22.8870 C   0  0  0  0  0  0  0  0  0  0  0  0
    7.1520   -4.0020   23.3740 N   0  0  0  0  0  0  0  0  0  0  0  0
    8.0480   -2.9540   23.1280 C   0  0  0  0  0  0  0  0  0  0  0  0
    7.6650   -1.5100   23.3910 C   0  0  0  0  0  0  0  0  0  0  0  0
    8.4580   -0.5730   22.7650 N   0  0  0  0  0  0  0  0  0  0  0  0
    7.9260   -0.1460   21.6340 C   0  0  0  0  0  0  0  0  0  0  0  0
    8.3530    0.8840   21.1110 O   0  0  0  0  0  0  0  0  0  0  0  0
    6.9170   -0.8880   21.0900 N   0  0  0  0  0  0  0  0  0  0  0  0
    6.3690   -0.1650   20.0690 C   0  0  0  0  0  0  0  0  0  0  0  0
    5.1170    0.6160   20.3670 C   0  0  0  0  0  0  0  0  0  0  0  0
    4.5230    1.4230   19.2350 C   0  0  0  0  0  0  0  0  0  0  0  0
    5.2080    1.3990   17.8950 C   0  0  0  0  0  0  0  0  0  0  0  0
    6.3570    0.6170   17.7930 N   0  0  0  0  0  0  0  0  0  0  0  0
    6.8790   -0.1050   18.8230 C   0  0  0  0  0  0  0  0  0  0  0  0
    9.9150   -0.4920   22.9120 C   0  0  0  0  0  0  0  0  0  0  0  0
   10.5610    0.4040   23.7550 C   0  0  0  0  0  0  0  0  0  0  0  0
   11.9500    0.4940   23.8530 C   0  0  0  0  0  0  0  0  0  0  0  0
   12.8740   -0.2720   23.1510 C   0  0  0  0  0  0  0  0  0  0  0  0
   12.2780   -1.2990   22.2000 C   0  0  0  0  0  0  0  0  0  0  0  0
   13.1820   -2.3440   21.2340 Cl  0  0  0  0  0  0  0  0  0  0  0  0
   10.7840   -1.4040   22.0880 C   0  0  0  0  0  0  0  0  0  0  0  0
    6.3430   -3.7590   24.5820 C   0  0  0  0  0  0  0  0  0  0  0  0
    5.5000   -4.9660   24.9660 C   0  0  0  0  0  0  0  0  0  0  0  0
  1  2  1  0
  2  3  1  0
  3  4  1  0
  4  5  1  0
  5  6  1  0
  6  7  1  0
  7  8  1  0
  8  9  1  0
  9 10  2  0
  9 11  1  0
 11 12  1  0
 12 13  2  0
 13 14  1  0
 14 15  2  0
 15 16  1  0
 12 17  1  0
 16 17  2  0
  8 18  1  0
 18 19  2  0
 19 20  1  0
 20 21  2  0
 21 22  1  0
 22 23  1  0
 18 24  1  0
 22 24  2  0
  5 25  1  0
  2 26  1  0
 25 26  1  0
M  END
