JOR-UNI-2fc98d0b-2
     RDKit          3D

 22 23  0  0  0  0  0  0  0  0999 V2000
    7.3100   -3.5990   25.6930 N   0  0  0  0  0  0  0  0  0  0  0  0
    8.4260   -3.3750   25.0800 C   0  0  0  0  0  0  0  0  0  0  0  0
    9.6400   -3.7610   25.6600 N   0  0  0  0  0  0  0  0  0  0  0  0
    8.5720   -2.7180   23.7620 C   0  0  0  0  0  0  0  0  0  0  0  0
    7.9770   -1.4630   23.5610 C   0  0  0  0  0  0  0  0  0  0  0  0
    8.7570   -0.6090   22.8600 N   0  0  0  0  0  0  0  0  0  0  0  0
    8.3030    0.0380   21.6750 C   0  0  0  0  0  0  0  0  0  0  0  0
    8.8270    1.0870   21.2310 O   0  0  0  0  0  0  0  0  0  0  0  0
    7.2530   -0.5690   21.0610 N   0  0  0  0  0  0  0  0  0  0  0  0
    6.4710    0.0760   20.1000 C   0  0  0  0  0  0  0  0  0  0  0  0
    5.1850    0.7950   20.3630 C   0  0  0  0  0  0  0  0  0  0  0  0
    4.4450    1.4790   19.2110 C   0  0  0  0  0  0  0  0  0  0  0  0
    5.1510    1.3290   17.8920 C   0  0  0  0  0  0  0  0  0  0  0  0
    6.3080    0.6530   17.7370 N   0  0  0  0  0  0  0  0  0  0  0  0
    6.9140    0.0660   18.7900 C   0  0  0  0  0  0  0  0  0  0  0  0
   10.0890   -0.6360   23.0630 C   0  0  0  0  0  0  0  0  0  0  0  0
   10.6870    0.0030   24.1500 C   0  0  0  0  0  0  0  0  0  0  0  0
   12.0680   -0.0660   24.2740 C   0  0  0  0  0  0  0  0  0  0  0  0
   12.8360   -0.7320   23.3730 C   0  0  0  0  0  0  0  0  0  0  0  0
   12.2580   -1.3760   22.2950 C   0  0  0  0  0  0  0  0  0  0  0  0
   13.1800   -2.2250   21.1560 Cl  0  0  0  0  0  0  0  0  0  0  0  0
   10.8950   -1.3250   22.1460 C   0  0  0  0  0  0  0  0  0  0  0  0
  1  2  2  3
  2  3  1  0
  2  4  1  0
  4  5  1  0
  5  6  1  0
  6  7  1  0
  7  8  2  0
  7  9  1  0
  9 10  1  0
 10 11  2  0
 11 12  1  0
 12 13  2  0
 13 14  1  0
 10 15  1  0
 14 15  2  0
  6 16  1  0
 16 17  2  0
 17 18  1  0
 18 19  2  0
 19 20  1  0
 20 21  1  0
 16 22  1  0
 20 22  2  0
M  END
