JOR-UNI-2fc98d0b-4
     RDKit          3D

 24 26  0  0  0  0  0  0  0  0999 V2000
    8.4670    0.9270   21.2110 O   0  0  0  0  0  0  0  0  0  0  0  0
    8.0300   -0.1120   21.7130 C   0  0  0  0  0  0  0  0  0  0  0  0
    6.9300   -0.7960   21.1990 N   0  0  0  0  0  0  0  0  0  0  0  0
    6.3430   -0.0590   20.0740 C   0  0  0  0  0  0  0  0  0  0  0  0
    5.1740    0.6810   20.2950 C   0  0  0  0  0  0  0  0  0  0  0  0
    4.5950    1.4020   19.2450 C   0  0  0  0  0  0  0  0  0  0  0  0
    5.1840    1.3880   17.9740 C   0  0  0  0  0  0  0  0  0  0  0  0
    6.3990    0.6150   17.7470 N   0  0  0  0  0  0  0  0  0  0  0  0
    6.9470   -0.0980   18.8170 C   0  0  0  0  0  0  0  0  0  0  0  0
    8.6330   -0.6870   22.8600 N   0  0  0  0  0  0  0  0  0  0  0  0
    7.9480   -1.0270   24.0200 C   0  0  0  0  0  0  0  0  0  0  0  0
    8.2480   -2.3350   24.3810 N   0  0  0  0  0  0  0  0  0  0  0  0
    8.3720   -3.4850   23.5760 C   0  0  0  0  0  0  0  0  0  0  0  0
    7.4600   -4.6040   23.9440 C   0  0  0  0  0  0  0  0  0  0  0  0
    7.2680   -4.8140   25.2950 N   0  0  0  0  0  0  0  0  0  0  0  0
    8.0410   -4.0490   26.0290 C   0  0  0  0  0  0  0  0  0  0  0  0
    7.9020   -2.6830   25.7550 C   0  0  0  0  0  0  0  0  0  0  0  0
   10.0230   -0.5140   22.9650 C   0  0  0  0  0  0  0  0  0  0  0  0
   10.6130    0.4390   23.7860 C   0  0  0  0  0  0  0  0  0  0  0  0
   11.9800    0.6410   23.8860 C   0  0  0  0  0  0  0  0  0  0  0  0
   12.7710   -0.1650   23.1180 C   0  0  0  0  0  0  0  0  0  0  0  0
   12.2350   -1.1390   22.2810 C   0  0  0  0  0  0  0  0  0  0  0  0
   13.1870   -2.1500   21.3120 Cl  0  0  0  0  0  0  0  0  0  0  0  0
   10.8640   -1.3200   22.2000 C   0  0  0  0  0  0  0  0  0  0  0  0
  1  2  2  0
  2  3  1  0
  3  4  1  0
  4  5  2  0
  5  6  1  0
  6  7  2  0
  7  8  1  0
  4  9  1  0
  8  9  2  0
  2 10  1  0
 10 11  1  0
 11 12  1  0
 12 13  1  0
 13 14  1  0
 14 15  1  0
 15 16  1  0
 12 17  1  0
 16 17  1  0
 10 18  1  0
 18 19  2  0
 19 20  1  0
 20 21  2  0
 21 22  1  0
 22 23  1  0
 18 24  1  0
 22 24  2  0
M  END
