JUA-UNI-b93289a4-3
     RDKit          3D

 17 17  0  0  0  0  0  0  0  0999 V2000
    9.2150    5.4010   23.0070 C   0  0  0  0  0  0  0  0  0  0  0  0
    8.6500    3.9880   22.8060 C   0  0  0  0  0  0  0  0  0  0  0  0
    9.3930    2.9650   23.4240 C   0  0  0  0  0  0  0  0  0  0  0  0
   10.7460    3.4020   23.7080 O   0  0  0  0  0  0  0  0  0  0  0  0
    8.8410    1.7180   23.7010 N   0  0  0  0  0  0  0  0  0  0  0  0
    9.5090    0.6420   24.4510 C   0  0  0  0  0  0  0  0  0  0  0  0
   10.5030   -0.0090   23.7230 C   0  0  0  0  0  0  0  0  0  0  0  0
   11.7550    0.5870   23.5610 C   0  0  0  0  0  0  0  0  0  0  0  0
   12.7690   -0.0510   22.8320 C   0  0  0  0  0  0  0  0  0  0  0  0
   12.5440   -1.3060   22.2440 C   0  0  0  0  0  0  0  0  0  0  0  0
   11.2880   -1.8940   22.4130 C   0  0  0  0  0  0  0  0  0  0  0  0
   10.2730   -1.2740   23.1390 C   0  0  0  0  0  0  0  0  0  0  0  0
    8.8020   -2.1610   23.2480 S   0  0  0  0  0  0  0  0  0  0  0  0
    7.7870   -1.3290   23.8490 O   0  0  0  0  0  0  0  0  0  0  0  0
    9.1300   -3.4450   23.8190 O   0  0  0  0  0  0  0  0  0  0  0  0
    8.2690   -2.4060   21.6850 N   0  0  0  0  0  0  0  0  0  0  0  0
    8.3550   -1.2760   20.8610 C   0  0  0  0  0  0  0  0  0  0  0  0
  1  2  1  0
  2  3  1  0
  3  4  2  0
  3  5  1  0
  5  6  1  0
  6  7  1  0
  7  8  2  0
  8  9  1  0
  9 10  2  0
 10 11  1  0
  7 12  1  0
 11 12  2  0
 12 13  1  0
 13 14  2  0
 13 15  2  0
 13 16  1  0
 16 17  1  0
M  END
