JUS-UNI-57125a42-1
     RDKit          3D

 30 31  0  0  0  0  0  0  0  0999 V2000
    6.8950   -1.5770   29.2340 C   0  0  0  0  0  0  0  0  0  0  0  0
    5.7380   -2.2290   29.0480 C   0  0  0  0  0  0  0  0  0  0  0  0
    4.5710   -1.3440   28.7650 C   0  0  0  0  0  0  0  0  0  0  0  0
    5.7560   -3.4410   28.0990 C   0  0  0  0  0  0  0  0  0  0  0  0
    4.5360   -3.7750   27.4620 C   0  0  2  0  0  0  0  0  0  0  0  0
    3.8360   -2.8010   26.7430 N   0  0  0  0  0  0  0  0  0  0  0  0
    4.1840   -2.4480   25.3400 C   0  0  0  0  0  0  0  0  0  0  0  0
    3.6270   -2.9730   24.3660 O   0  0  0  0  0  0  0  0  0  0  0  0
    5.2030   -1.4830   25.2700 C   0  0  2  0  0  0  0  0  0  0  0  0
    4.9090    0.0060   25.0640 C   0  0  0  0  0  0  0  0  0  0  0  0
    3.5350    0.4970   25.4660 C   0  0  0  0  0  0  0  0  0  0  0  0
    2.7040    1.3220   24.7340 C   0  0  0  0  0  0  0  0  0  0  0  0
    1.5260    1.5530   25.3820 N   0  0  0  0  0  0  0  0  0  0  0  0
    1.6470    0.8230   26.6390 C   0  0  0  0  0  0  0  0  0  0  0  0
    2.8520    0.1490   26.7590 N   0  0  0  0  0  0  0  0  0  0  0  0
    6.1860   -1.9510   24.2750 N   0  0  0  0  0  0  0  0  0  0  0  0
    7.5380   -2.0510   24.8090 C   0  0  0  0  0  0  0  0  0  0  0  0
    7.7360   -1.5900   25.9040 O   0  0  0  0  0  0  0  0  0  0  0  0
    8.5430   -2.6850   24.0310 C   0  0  1  0  0  0  0  0  0  0  0  0
    7.9030   -3.9010   23.4940 N   0  0  0  0  0  0  0  0  0  0  0  0
    8.9330   -1.7410   22.9000 C   0  0  0  0  0  0  0  0  0  0  0  0
   10.4060   -1.1910   22.9130 C   0  0  0  0  0  0  0  0  0  0  0  0
   10.6690    0.1490   23.1340 C   0  0  0  0  0  0  0  0  0  0  0  0
   11.9990    0.5920   23.1190 C   0  0  0  0  0  0  0  0  0  0  0  0
   13.0670   -0.2510   22.9000 C   0  0  0  0  0  0  0  0  0  0  0  0
   12.8260   -1.5980   22.6810 C   0  0  0  0  0  0  0  0  0  0  0  0
   11.5040   -2.0330   22.6930 C   0  0  0  0  0  0  0  0  0  0  0  0
    3.5150   -4.3620   28.4660 C   0  0  0  0  0  0  0  0  0  0  0  0
    2.3280   -4.1120   28.6190 O   0  0  0  0  0  0  0  0  0  0  0  0
    3.9950   -5.3590   29.3710 O   0  0  0  0  0  0  0  0  0  0  0  0
  1  2  1  0
  2  3  1  0
  2  4  1  0
  5  4  1  1
  5  6  1  0
  6  7  1  0
  7  8  2  0
  7  9  1  0
  9 10  1  6
 10 11  1  0
 11 12  2  0
 12 13  1  0
 13 14  2  0
 11 15  1  0
 14 15  1  0
  9 16  1  0
 16 17  1  0
 17 18  2  0
 17 19  1  0
 19 20  1  6
 19 21  1  0
 21 22  1  0
 22 23  2  0
 23 24  1  0
 24 25  2  0
 25 26  1  0
 22 27  1  0
 26 27  2  0
  5 28  1  0
 28 29  2  0
 28 30  1  0
M  END
