KEI-UNI-85a52787-10
     RDKit          3D

 32 35  0  0  0  0  0  0  0  0999 V2000
    5.8000   -2.3110   19.1560 C   0  0  0  0  0  0  0  0  0  0  0  0
    5.6830   -3.4060   20.1850 C   0  0  0  0  0  0  0  0  0  0  0  0
    5.3560   -4.5360   19.8370 O   0  0  0  0  0  0  0  0  0  0  0  0
    6.0190   -3.0000   21.4700 N   0  0  0  0  0  0  0  0  0  0  0  0
    6.8430   -3.7370   22.3570 C   0  0  0  0  0  0  0  0  0  0  0  0
    7.8060   -3.0180   23.0780 C   0  0  0  0  0  0  0  0  0  0  0  0
    8.7550   -2.2760   22.4490 N   0  0  0  0  0  0  0  0  0  0  0  0
    9.8070   -1.8340   23.1680 C   0  0  0  0  0  0  0  0  0  0  0  0
   10.0810   -0.4880   23.1050 C   0  0  0  0  0  0  0  0  0  0  0  0
    8.7970    0.2090   23.1860 C   0  0  0  0  0  0  0  0  0  0  0  0
    9.2100    1.6530   23.0850 C   0  0  0  0  0  0  0  0  0  0  0  0
   10.5800    2.1040   22.9510 C   0  0  0  0  0  0  0  0  0  0  0  0
   10.6430    3.4580   22.8900 N   0  0  0  0  0  0  0  0  0  0  0  0
   11.9110    4.1090   22.7710 C   0  0  0  0  0  0  0  0  0  0  0  0
   12.0220    5.8460   22.6980 S   0  0  0  0  0  0  0  0  0  0  0  0
   12.2610    6.3540   24.2820 N   0  0  0  0  0  0  0  0  0  0  0  0
   13.2150    6.2290   21.9760 O   0  0  0  0  0  0  0  0  0  0  0  0
   10.7480    6.4240   22.3340 O   0  0  0  0  0  0  0  0  0  0  0  0
   13.0780    3.2820   22.7210 C   0  0  0  0  0  0  0  0  0  0  0  0
   12.9370    1.8800   22.7910 C   0  0  0  0  0  0  0  0  0  0  0  0
   11.5960    1.1940   22.9110 C   0  0  0  0  0  0  0  0  0  0  0  0
   11.5430   -0.3530   22.9800 C   0  0  0  0  0  0  0  0  0  0  0  0
   12.9600    0.1660   22.8450 C   0  0  0  0  0  0  0  0  0  0  0  0
    8.2680   -1.3210   21.4000 C   0  0  0  0  0  0  0  0  0  0  0  0
    6.9100   -0.6140   21.5920 C   0  0  1  0  0  0  0  0  0  0  0  0
    6.4250    0.0090   20.4040 C   0  0  0  0  0  0  0  0  0  0  0  0
    5.1770    0.8540   20.6170 C   0  0  0  0  0  0  0  0  0  0  0  0
    4.5840    1.5400   19.4170 C   0  0  0  0  0  0  0  0  0  0  0  0
    5.3200    1.3050   18.1030 C   0  0  0  0  0  0  0  0  0  0  0  0
    6.4310    0.5340   17.9960 N   0  0  0  0  0  0  0  0  0  0  0  0
    6.9450   -0.0780   19.1070 C   0  0  0  0  0  0  0  0  0  0  0  0
    5.7940   -1.6250   21.8910 C   0  0  0  0  0  0  0  0  0  0  0  0
  1  2  1  0
  2  3  2  0
  2  4  1  0
  4  5  1  0
  5  6  1  0
  6  7  1  0
  7  8  1  0
  8  9  1  0
  9 10  2  0
 10 11  1  0
 11 12  2  0
 12 13  1  0
 13 14  2  0
 14 15  1  0
 15 16  1  0
 15 17  2  0
 15 18  2  0
 14 19  1  0
 19 20  2  0
 12 21  1  0
 20 21  1  0
  9 22  1  0
 21 22  2  0
 22 23  1  0
  7 24  1  0
 24 25  1  0
 25 26  1  6
 26 27  2  0
 27 28  1  0
 28 29  2  0
 29 30  1  0
 26 31  1  0
 30 31  2  0
  4 32  1  0
 25 32  1  0
M  END
