KEI-UNI-85a52787-8
     RDKit          3D

 31 34  0  0  0  0  0  0  0  0999 V2000
    5.8160   -2.3210   18.9770 C   0  0  0  0  0  0  0  0  0  0  0  0
    5.6380   -3.4180   19.9910 C   0  0  0  0  0  0  0  0  0  0  0  0
    5.3470   -4.5540   19.6610 O   0  0  0  0  0  0  0  0  0  0  0  0
    5.8740   -3.0100   21.2720 N   0  0  0  0  0  0  0  0  0  0  0  0
    6.6380   -3.7680   22.1840 C   0  0  0  0  0  0  0  0  0  0  0  0
    7.0060   -3.1590   23.3690 C   0  0  0  0  0  0  0  0  0  0  0  0
    7.6520   -1.9760   23.4240 N   0  0  0  0  0  0  0  0  0  0  0  0
    8.6870   -1.9700   24.2280 C   0  0  0  0  0  0  0  0  0  0  0  0
    9.7090   -1.1710   23.9530 C   0  0  0  0  0  0  0  0  0  0  0  0
   10.6530   -1.7670   23.2110 C   0  0  0  0  0  0  0  0  0  0  0  0
   11.8100   -0.9560   22.8440 C   0  0  0  0  0  0  0  0  0  0  0  0
   11.8880    0.4900   23.3180 C   0  0  0  0  0  0  0  0  0  0  0  0
   13.2050    0.8570   22.6920 N   0  0  0  0  0  0  0  0  0  0  0  0
   13.0160   -0.4190   22.2490 C   0  0  0  0  0  0  0  0  0  0  0  0
   13.5050   -1.5300   21.4620 C   0  0  0  0  0  0  0  0  0  0  0  0
   12.1630   -1.8500   21.4710 N   0  0  0  0  0  0  0  0  0  0  0  0
   13.5500   -2.5350   20.8010 O   0  0  0  0  0  0  0  0  0  0  0  0
   12.1240    0.0380   22.9690 C   0  0  0  0  0  0  0  0  0  0  0  0
   12.0190    1.4580   23.6040 C   0  0  0  0  0  0  0  0  0  0  0  0
   10.8510    1.2340   24.1840 C   0  0  0  0  0  0  0  0  0  0  0  0
    9.7650    0.1560   24.3980 C   0  0  0  0  0  0  0  0  0  0  0  0
    8.2190    0.6410   25.4130 Br  0  0  0  0  0  0  0  0  0  0  0  0
    7.7720   -1.1750   22.1640 C   0  0  0  0  0  0  0  0  0  0  0  0
    6.4360   -0.5670   21.7480 C   0  0  1  0  0  0  0  0  0  0  0  0
    6.2310    0.0230   20.4670 C   0  0  0  0  0  0  0  0  0  0  0  0
    4.9980    0.9360   20.4680 C   0  0  0  0  0  0  0  0  0  0  0  0
    4.6620    1.6060   19.1520 C   0  0  0  0  0  0  0  0  0  0  0  0
    5.6110    1.2670   18.0100 C   0  0  0  0  0  0  0  0  0  0  0  0
    6.6800    0.4450   18.1100 N   0  0  0  0  0  0  0  0  0  0  0  0
    6.9680   -0.1460   19.2980 C   0  0  0  0  0  0  0  0  0  0  0  0
    5.4200   -1.6970   21.7230 C   0  0  0  0  0  0  0  0  0  0  0  0
  1  2  1  0
  2  3  2  0
  2  4  1  0
  4  5  1  0
  5  6  1  0
  6  7  1  0
  7  8  1  0
  8  9  1  0
  9 10  2  0
 10 11  1  0
 11 12  2  0
 12 13  1  0
 13 14  2  0
 14 15  1  0
 15 16  1  0
 15 17  2  0
 14 18  1  0
 18 19  2  0
 12 20  1  0
 19 20  1  0
  9 21  1  0
 20 21  2  0
 21 22  1  0
  7 23  1  0
 23 24  1  0
 24 25  1  6
 25 26  2  0
 26 27  1  0
 27 28  2  0
 28 29  1  0
 25 30  1  0
 29 30  2  0
  4 31  1  0
 24 31  1  0
M  END
