KEI-UNI-85a52787-9
     RDKit          3D

 32 35  0  0  0  0  0  0  0  0999 V2000
    5.8280   -2.2680   19.0640 C   0  0  0  0  0  0  0  0  0  0  0  0
    5.6880   -3.3000   20.1150 C   0  0  0  0  0  0  0  0  0  0  0  0
    5.3670   -4.4520   19.8110 O   0  0  0  0  0  0  0  0  0  0  0  0
    5.9670   -2.9170   21.4150 N   0  0  0  0  0  0  0  0  0  0  0  0
    6.7570   -3.7830   22.2760 C   0  0  0  0  0  0  0  0  0  0  0  0
    7.5460   -2.9620   23.2520 C   0  0  0  0  0  0  0  0  0  0  0  0
    8.6840   -2.2780   22.6330 N   0  0  0  0  0  0  0  0  0  0  0  0
    9.8130   -2.1580   23.5750 C   0  0  0  0  0  0  0  0  0  0  0  0
   10.5440   -0.8420   23.4280 C   0  0  0  0  0  0  0  0  0  0  0  0
   11.9740   -1.1400   22.8190 C   0  0  0  0  0  0  0  0  0  0  0  0
   12.4070    0.3670   22.7820 C   0  0  0  0  0  0  0  0  0  0  0  0
   11.6670    1.6010   23.1870 C   0  0  0  0  0  0  0  0  0  0  0  0
   12.3010    2.7880   23.0120 N   0  0  0  0  0  0  0  0  0  0  0  0
   11.6610    3.9710   23.3720 C   0  0  0  0  0  0  0  0  0  0  0  0
   12.5870    5.4330   23.1060 S   0  0  0  0  0  0  0  0  0  0  0  0
   12.3340    5.6780   21.5110 N   0  0  0  0  0  0  0  0  0  0  0  0
   13.9730    5.0640   23.1810 O   0  0  0  0  0  0  0  0  0  0  0  0
   11.9930    6.5210   23.8510 O   0  0  0  0  0  0  0  0  0  0  0  0
   10.3810    3.9650   23.9050 C   0  0  0  0  0  0  0  0  0  0  0  0
    9.7450    2.7340   24.0770 C   0  0  0  0  0  0  0  0  0  0  0  0
   10.4080    1.5510   23.7060 C   0  0  0  0  0  0  0  0  0  0  0  0
    9.8760    0.3330   23.8220 C   0  0  0  0  0  0  0  0  0  0  0  0
    8.1110    0.1990   24.5570 Br  0  0  0  0  0  0  0  0  0  0  0  0
    8.4010   -1.1330   21.7120 C   0  0  0  0  0  0  0  0  0  0  0  0
    6.9190   -0.6790   21.7170 C   0  0  1  0  0  0  0  0  0  0  0  0
    6.3130    0.1970   20.5970 C   0  0  0  0  0  0  0  0  0  0  0  0
    6.7930    0.2220   19.2820 C   0  0  0  0  0  0  0  0  0  0  0  0
    6.1690    1.0280   18.3620 C   0  0  0  0  0  0  0  0  0  0  0  0
    5.0850    1.7900   18.7690 C   0  0  0  0  0  0  0  0  0  0  0  0
    4.5770    1.8150   20.0110 N   0  0  0  0  0  0  0  0  0  0  0  0
    5.2090    1.0120   20.8950 C   0  0  0  0  0  0  0  0  0  0  0  0
    5.7990   -1.5570   21.8980 C   0  0  0  0  0  0  0  0  0  0  0  0
  1  2  1  0
  2  3  2  0
  2  4  1  0
  4  5  1  0
  5  6  1  0
  6  7  1  0
  7  8  1  0
  8  9  1  0
  9 10  2  0
 10 11  1  0
 11 12  2  0
 12 13  1  0
 13 14  2  0
 14 15  1  0
 15 16  1  0
 15 17  2  0
 15 18  2  0
 14 19  1  0
 19 20  2  0
 12 21  1  0
 20 21  1  0
  9 22  1  0
 21 22  2  0
 22 23  1  0
  7 24  1  0
 24 25  1  0
 25 26  1  6
 26 27  2  0
 27 28  1  0
 28 29  2  0
 29 30  1  0
 26 31  1  0
 30 31  2  0
  4 32  1  0
 25 32  1  0
M  END
