KEI-UNI-85a52787-1
     RDKit          3D

 32 35  0  0  0  0  0  0  0  0999 V2000
   12.3870    7.4620   28.6400 C   0  0  0  0  0  0  0  0  0  0  0  0
   12.0420    8.2350   27.3700 C   0  0  0  0  0  0  0  0  0  0  0  0
   12.4570    9.3900   27.2310 O   0  0  0  0  0  0  0  0  0  0  0  0
   11.2560    7.5970   26.4130 N   0  0  0  0  0  0  0  0  0  0  0  0
   10.0950    6.7220   26.7570 C   0  0  0  0  0  0  0  0  0  0  0  0
   10.1680    5.4080   26.1790 C   0  0  0  0  0  0  0  0  0  0  0  0
    9.6080    5.2510   24.7920 N   0  0  0  0  0  0  0  0  0  0  0  0
   10.5010    4.3010   24.0010 C   0  0  0  0  0  0  0  0  0  0  0  0
    9.8720    3.1390   23.5740 C   0  0  0  0  0  0  0  0  0  0  0  0
    8.7210    2.9060   23.4240 C   0  0  0  0  0  0  0  0  0  0  0  0
    9.9370    2.0720   23.2320 C   0  0  0  0  0  0  0  0  0  0  0  0
   10.5440    0.8460   22.8890 C   0  0  0  0  0  0  0  0  0  0  0  0
   11.6990    0.1490   22.7430 C   0  0  0  0  0  0  0  0  0  0  0  0
   11.7220   -1.1410   22.3500 C   0  0  0  0  0  0  0  0  0  0  0  0
   13.2220   -1.7720   22.2340 S   0  0  0  0  0  0  0  0  0  0  0  0
   13.3470   -2.7180   23.6110 N   0  0  0  0  0  0  0  0  0  0  0  0
   13.3070   -2.5850   21.0490 O   0  0  0  0  0  0  0  0  0  0  0  0
   13.9450   -0.5730   22.4550 O   0  0  0  0  0  0  0  0  0  0  0  0
   10.3750   -1.7280   22.0940 C   0  0  0  0  0  0  0  0  0  0  0  0
    9.2290   -0.7400   22.3300 C   0  0  0  0  0  0  0  0  0  0  0  0
    9.2340    0.6090   22.7420 C   0  0  0  0  0  0  0  0  0  0  0  0
   10.1780    1.7840   23.1520 C   0  0  0  0  0  0  0  0  0  0  0  0
   11.4890    1.4850   23.1200 F   0  0  0  0  0  0  0  0  0  0  0  0
    9.4940    6.5230   24.1320 C   0  0  0  0  0  0  0  0  0  0  0  0
   10.7500    6.9310   24.3560 C   0  0  1  0  0  0  0  0  0  0  0  0
   11.6910    6.3530   23.3480 C   0  0  0  0  0  0  0  0  0  0  0  0
   11.1670    5.0370   22.7900 C   0  0  0  0  0  0  0  0  0  0  0  0
   11.8810    4.3120   21.8700 C   0  0  0  0  0  0  0  0  0  0  0  0
   13.1740    4.9400   21.4830 C   0  0  0  0  0  0  0  0  0  0  0  0
   13.6540    6.0830   21.9350 N   0  0  0  0  0  0  0  0  0  0  0  0
   12.8930    6.8300   22.9130 C   0  0  0  0  0  0  0  0  0  0  0  0
   11.2500    8.0530   25.0250 C   0  0  0  0  0  0  0  0  0  0  0  0
  1  2  1  0
  2  3  2  0
  2  4  1  0
  4  5  1  0
  5  6  1  0
  6  7  1  0
  7  8  1  0
  8  9  1  0
  9 10  2  0
 10 11  1  0
 11 12  2  0
 12 13  1  0
 13 14  2  0
 14 15  1  0
 15 16  1  0
 15 17  2  0
 15 18  2  0
 14 19  1  0
 19 20  2  0
 12 21  1  0
 20 21  1  0
  9 22  1  0
 21 22  2  0
 22 23  1  0
  7 24  1  0
 24 25  1  0
 25 26  1  6
 26 27  2  0
 27 28  1  0
 28 29  2  0
 29 30  1  0
 26 31  1  0
 30 31  2  0
  4 32  1  0
 25 32  1  0
M  END
