KEN-MCD-4729dc98-1
     RDKit          3D

 37 41  0  0  0  0  0  0  0  0999 V2000
    5.5520   -4.3630   19.9430 O   0  0  0  0  0  0  0  0  0  0  0  0
    6.1850   -4.1830   20.9980 C   0  0  0  0  0  0  0  0  0  0  0  0
    6.6900   -2.8160   21.3770 C   0  0  2  0  0  0  0  0  0  0  0  0
    6.8330   -1.8160   20.5140 C   0  0  0  0  0  0  0  0  0  0  0  0
    6.9070   -0.5370   21.2060 N   0  0  0  0  0  0  0  0  0  0  0  0
    6.1710    0.4130   20.3470 C   0  0  0  0  0  0  0  0  0  0  0  0
    5.2400    1.3960   21.0620 C   0  0  0  0  0  0  0  0  0  0  0  0
    4.4680    2.3540   20.1510 C   0  0  0  0  0  0  0  0  0  0  0  0
    4.6200    2.3280   18.6090 C   0  0  0  0  0  0  0  0  0  0  0  0
    5.6060    1.2730   18.0680 C   0  0  0  0  0  0  0  0  0  0  0  0
    6.2920    0.4150   18.9450 C   0  0  0  0  0  0  0  0  0  0  0  0
    8.3130   -0.4220   21.6930 C   0  0  0  0  0  0  0  0  0  0  0  0
    8.8990    0.6490   21.8060 O   0  0  0  0  0  0  0  0  0  0  0  0
    8.8750   -1.6250   21.9930 N   0  0  0  0  0  0  0  0  0  0  0  0
   10.0910   -1.7070   22.6340 C   0  0  0  0  0  0  0  0  0  0  0  0
   11.3140   -1.7820   21.9430 C   0  0  0  0  0  0  0  0  0  0  0  0
   12.5560   -1.8720   22.5480 C   0  0  0  0  0  0  0  0  0  0  0  0
   12.6560   -1.8990   23.9220 C   0  0  0  0  0  0  0  0  0  0  0  0
   11.5580   -1.8360   24.6910 N   0  0  0  0  0  0  0  0  0  0  0  0
   10.2740   -1.7360   24.0230 C   0  0  0  0  0  0  0  0  0  0  0  0
    8.0430   -2.8450   22.0950 C   0  0  0  0  0  0  0  0  0  0  0  0
    6.4130   -5.2660   21.8380 N   0  0  0  0  0  0  0  0  0  0  0  0
    7.3450   -5.1310   22.9360 C   0  0  0  0  0  0  0  0  0  0  0  0
    6.5650   -4.9840   24.2370 C   0  0  0  0  0  0  0  0  0  0  0  0
    5.1260   -5.1810   24.2170 N   0  0  0  0  0  0  0  0  0  0  0  0
    4.5240   -5.4570   25.7820 S   0  0  0  0  0  0  0  0  0  0  0  0
    3.8720   -6.7420   25.7660 O   0  0  0  0  0  0  0  0  0  0  0  0
    5.5890   -5.1450   26.7100 O   0  0  0  0  0  0  0  0  0  0  0  0
    3.2870   -4.2030   25.8600 C   0  0  0  0  0  0  0  0  0  0  0  0
    1.8130   -4.6070   25.8360 C   0  0  0  0  0  0  0  0  0  0  0  0
    0.7720   -3.4880   25.9080 C   0  0  0  0  0  0  0  0  0  0  0  0
    1.3440   -2.0740   25.9980 C   0  0  0  0  0  0  0  0  0  0  0  0
    2.7420   -1.8670   26.0040 C   0  0  0  0  0  0  0  0  0  0  0  0
    3.1830   -0.6050   26.0790 F   0  0  0  0  0  0  0  0  0  0  0  0
    3.6900   -2.8810   25.9380 C   0  0  0  0  0  0  0  0  0  0  0  0
    4.5570   -6.0050   23.0920 C   0  0  0  0  0  0  0  0  0  0  0  0
    5.5040   -6.3700   22.1160 C   0  0  0  0  0  0  0  0  0  0  0  0
  1  2  2  0
  3  2  1  6
  3  4  1  0
  4  5  1  0
  5  6  1  0
  6  7  2  0
  7  8  1  0
  8  9  2  0
  9 10  1  0
  6 11  1  0
 10 11  2  0
  5 12  1  0
 12 13  2  0
 12 14  1  0
 14 15  1  0
 15 16  2  0
 16 17  1  0
 17 18  2  0
 18 19  1  0
 15 20  1  0
 19 20  2  0
  3 21  1  0
 14 21  1  0
  2 22  1  0
 22 23  1  0
 23 24  1  0
 24 25  1  0
 25 26  1  0
 26 27  2  0
 26 28  2  0
 26 29  1  0
 29 30  2  0
 30 31  1  0
 31 32  2  0
 32 33  1  0
 33 34  1  0
 29 35  1  0
 33 35  2  0
 25 36  1  0
 22 37  1  0
 36 37  1  0
M  END
