KIM-UNI-60f168f5-9
     RDKit          3D

 23 25  0  0  0  0  0  0  0  0999 V2000
    5.8530    0.5050   22.2590 C   0  0  0  0  0  0  0  0  0  0  0  0
    5.9040    0.4700   20.7820 C   0  0  0  0  0  0  0  0  0  0  0  0
    7.0060   -0.0420   20.1210 C   0  0  0  0  0  0  0  0  0  0  0  0
    7.0630   -0.0780   18.7450 C   0  0  0  0  0  0  0  0  0  0  0  0
    6.0700    0.3900   17.9690 N   0  0  0  0  0  0  0  0  0  0  0  0
    4.9680    0.9040   18.6080 C   0  0  0  0  0  0  0  0  0  0  0  0
    4.8170    0.9670   20.0150 C   0  0  0  0  0  0  0  0  0  0  0  0
    3.6320    1.5010   20.6840 N   0  0  0  0  0  0  0  0  0  0  0  0
    2.8540    2.6300   20.2340 C   0  0  0  0  0  0  0  0  0  0  0  0
    1.6790    2.9820   20.9920 C   0  0  0  0  0  0  0  0  0  0  0  0
    1.2040    2.2740   22.2320 C   0  0  0  0  0  0  0  0  0  0  0  0
    2.0680    1.0730   22.6450 C   0  0  0  0  0  0  0  0  0  0  0  0
    3.1840    0.7080   21.8780 C   0  0  0  0  0  0  0  0  0  0  0  0
    3.7370   -0.3170   22.2760 O   0  0  0  0  0  0  0  0  0  0  0  0
    0.9780    4.0550   20.5200 N   0  0  0  0  0  0  0  0  0  0  0  0
   -0.1620    4.5330   21.0790 C   0  0  0  0  0  0  0  0  0  0  0  0
   -1.2530    3.8140   20.5560 C   0  0  0  0  0  0  0  0  0  0  0  0
   -2.1320    4.5970   19.5670 C   0  0  0  0  0  0  0  0  0  0  0  0
   -3.3770    5.0040   19.8900 N   0  0  0  0  0  0  0  0  0  0  0  0
   -1.7020    4.9170   18.3280 N   0  0  0  0  0  0  0  0  0  0  0  0
    1.0640    4.3690   19.0880 C   0  0  0  0  0  0  0  0  0  0  0  0
    2.3850    4.4570   18.6920 C   0  0  0  0  0  0  0  0  0  0  0  0
    3.2660    3.4220   19.0210 C   0  0  0  0  0  0  0  0  0  0  0  0
  1  2  1  0
  2  3  2  0
  3  4  1  0
  4  5  2  0
  5  6  1  0
  2  7  1  0
  6  7  2  0
  7  8  1  0
  8  9  1  0
  9 10  2  0
 10 11  1  0
 11 12  2  0
  8 13  1  0
 12 13  1  0
 13 14  2  0
 10 15  1  0
 15 16  1  0
 16 17  1  0
 17 18  1  0
 18 19  2  3
 18 20  1  0
 15 21  1  0
 21 22  1  0
  9 23  1  0
 22 23  1  0
M  END
