KIM-UNI-60f168f5-11
     RDKit          3D

 23 25  0  0  0  0  0  0  0  0999 V2000
    3.6770   -1.7210   26.6700 N   0  0  0  0  0  0  0  0  0  0  0  0
    3.5450   -0.6760   25.7360 C   0  0  0  0  0  0  0  0  0  0  0  0
    2.2790    0.0070   25.6220 O   0  0  0  0  0  0  0  0  0  0  0  0
    4.7950   -0.3290   24.9290 C   0  0  0  0  0  0  0  0  0  0  0  0
    5.3930   -1.4600   24.1010 C   0  0  0  0  0  0  0  0  0  0  0  0
    6.6250   -1.0210   23.4110 N   0  0  0  0  0  0  0  0  0  0  0  0
    7.2920    0.1100   23.8170 C   0  0  0  0  0  0  0  0  0  0  0  0
    8.6650    0.1130   23.1690 C   0  0  0  0  0  0  0  0  0  0  0  0
    8.5430    0.3310   21.7040 C   0  0  0  0  0  0  0  0  0  0  0  0
    9.2120    1.2390   21.1530 O   0  0  0  0  0  0  0  0  0  0  0  0
    7.5810   -0.5500   21.1710 N   0  0  0  0  0  0  0  0  0  0  0  0
    6.7070    0.0300   20.1670 C   0  0  0  0  0  0  0  0  0  0  0  0
    6.9730   -0.1590   18.7670 C   0  0  0  0  0  0  0  0  0  0  0  0
    6.2420    0.3340   17.6820 N   0  0  0  0  0  0  0  0  0  0  0  0
    5.1530    1.0480   17.9780 C   0  0  0  0  0  0  0  0  0  0  0  0
    4.9600    1.1740   19.3720 C   0  0  0  0  0  0  0  0  0  0  0  0
    5.5420    0.8110   20.4970 C   0  0  0  0  0  0  0  0  0  0  0  0
    5.1740    1.1130   21.7280 C   0  0  0  0  0  0  0  0  0  0  0  0
    6.3890    1.8950   21.6840 C   0  0  0  0  0  0  0  0  0  0  0  0
    7.0650    1.4400   20.3860 N   0  0  0  0  0  0  0  0  0  0  0  0
    6.2590    0.4800   19.4520 C   0  0  0  0  0  0  0  0  0  0  0  0
    6.8830   -1.4960   22.0990 C   0  0  0  0  0  0  0  0  0  0  0  0
    6.5150   -2.6340   21.8060 O   0  0  0  0  0  0  0  0  0  0  0  0
  1  2  1  0
  2  3  2  0
  2  4  1  0
  4  5  1  0
  5  6  1  0
  6  7  1  0
  7  8  1  0
  8  9  1  0
  9 10  2  0
  9 11  1  0
 11 12  1  0
 12 13  2  0
 13 14  1  0
 14 15  2  0
 15 16  1  0
 12 17  1  0
 16 17  2  0
 17 18  1  0
 18 19  1  0
 19 20  1  0
 16 21  1  0
 20 21  1  0
  6 22  1  0
 11 22  1  0
 22 23  2  0
M  END
