KIM-UNI-60f168f5-4
     RDKit          3D

 19 20  0  0  0  0  0  0  0  0999 V2000
    5.6610    0.2950   22.2690 C   0  0  0  0  0  0  0  0  0  0  0  0
    5.8300    0.3000   20.7960 C   0  0  0  0  0  0  0  0  0  0  0  0
    6.9100   -0.2440   20.2290 C   0  0  0  0  0  0  0  0  0  0  0  0
    7.0810   -0.2380   18.7570 C   0  0  0  0  0  0  0  0  0  0  0  0
    6.2080    0.3010   17.8970 N   0  0  0  0  0  0  0  0  0  0  0  0
    5.1090    0.8520   18.4510 C   0  0  0  0  0  0  0  0  0  0  0  0
    4.8510    0.8780   19.9660 C   0  0  0  0  0  0  0  0  0  0  0  0
    3.6670    1.4630   20.5120 N   0  0  0  0  0  0  0  0  0  0  0  0
    3.0320    0.9360   21.7410 C   0  0  0  0  0  0  0  0  0  0  0  0
    3.3520   -0.0450   22.4300 O   0  0  0  0  0  0  0  0  0  0  0  0
    1.9100    1.6520   22.1860 C   0  0  0  0  0  0  0  0  0  0  0  0
    1.0560    2.1150   21.1770 C   0  0  0  0  0  0  0  0  0  0  0  0
    1.5530    2.7150   20.0680 N   0  0  0  0  0  0  0  0  0  0  0  0
    0.8290    3.6710   19.4470 C   0  0  0  0  0  0  0  0  0  0  0  0
    0.8350    4.9830   19.9260 C   0  0  0  0  0  0  0  0  0  0  0  0
    1.8960    5.8150   20.2080 N   0  0  0  0  0  0  0  0  0  0  0  0
   -0.5040    5.4320   20.1110 O   0  0  0  0  0  0  0  0  0  0  0  0
    2.9240    2.4070   19.6680 C   0  0  0  0  0  0  0  0  0  0  0  0
    3.3160    3.0570   18.5620 O   0  0  0  0  0  0  0  0  0  0  0  0
  1  2  1  0
  2  3  2  0
  3  4  1  0
  4  5  2  0
  5  6  1  0
  2  7  1  0
  6  7  2  0
  7  8  1  0
  8  9  1  0
  9 10  2  0
  9 11  1  0
 11 12  1  0
 12 13  1  0
 13 14  1  0
 14 15  1  0
 15 16  1  0
 15 17  2  0
  8 18  1  0
 13 18  1  0
 18 19  2  0
M  END
