KIM-UNI-2ee5d8f9-1
     RDKit          3D

 18 19  0  0  0  0  0  0  0  0999 V2000
    5.9670   -2.0130   18.8040 C   0  0  0  0  0  0  0  0  0  0  0  0
    5.7690   -2.9330   20.0490 C   0  0  0  0  0  0  0  0  0  0  0  0
    5.3170   -4.2610   19.6900 O   0  0  0  0  0  0  0  0  0  0  0  0
    6.0530   -2.4750   21.3100 N   0  0  0  0  0  0  0  0  0  0  0  0
    5.8200   -3.3460   22.4470 C   0  0  0  0  0  0  0  0  0  0  0  0
    6.8130   -3.2560   23.4200 C   0  0  0  0  0  0  0  0  0  0  0  0
    8.0920   -2.7670   22.9150 N   0  0  0  0  0  0  0  0  0  0  0  0
    8.9600   -2.4220   24.0200 C   0  0  0  0  0  0  0  0  0  0  0  0
   10.0210   -1.5060   23.4900 C   0  0  0  0  0  0  0  0  0  0  0  0
    9.7650   -0.0190   23.5130 C   0  0  0  0  0  0  0  0  0  0  0  0
   10.6980    0.8910   23.0440 C   0  0  0  0  0  0  0  0  0  0  0  0
   10.4240    2.0960   23.0880 O   0  0  0  0  0  0  0  0  0  0  0  0
   11.8570    0.3830   22.5530 C   0  0  0  0  0  0  0  0  0  0  0  0
   12.1370   -0.9500   22.4780 C   0  0  0  0  0  0  0  0  0  0  0  0
   13.5370   -1.4570   21.7950 Cl  0  0  0  0  0  0  0  0  0  0  0  0
   11.3230   -1.9520   22.9130 C   0  0  0  0  0  0  0  0  0  0  0  0
    8.1920   -1.7490   21.8550 C   0  0  0  0  0  0  0  0  0  0  0  0
    6.8500   -1.3160   21.2940 C   0  0  0  0  0  0  0  0  0  0  0  0
  1  2  1  0
  2  3  2  0
  2  4  1  0
  4  5  1  0
  5  6  1  0
  6  7  1  0
  7  8  1  0
  8  9  1  0
  9 10  2  0
 10 11  1  0
 11 12  1  0
 11 13  2  0
 13 14  1  0
 14 15  1  0
  9 16  1  0
 14 16  2  0
  7 17  1  0
  4 18  1  0
 17 18  1  0
M  END
