KRI-LIF-2e3dfaa5-1
     RDKit          3D

 21 23  0  0  0  0  0  0  0  0999 V2000
    5.6330    1.5800   22.5630 O   0  0  0  0  0  0  0  0  0  0  0  0
    5.2800    0.5800   21.9630 C   0  0  0  0  0  0  0  0  0  0  0  0
    5.5740    0.5070   20.6070 C   0  0  0  0  0  0  0  0  0  0  0  0
    6.7670   -0.1470   20.2100 C   0  0  0  0  0  0  0  0  0  0  0  0
    7.1400   -0.2610   18.7790 C   0  0  0  0  0  0  0  0  0  0  0  0
    6.2840    0.3070   17.8170 N   0  0  0  0  0  0  0  0  0  0  0  0
    5.1050    0.9460   18.2900 C   0  0  0  0  0  0  0  0  0  0  0  0
    4.7180    1.0600   19.6200 C   0  0  0  0  0  0  0  0  0  0  0  0
    3.5110    1.7060   19.8990 C   0  0  0  0  0  0  0  0  0  0  0  0
    3.2100    2.9240   19.2830 C   0  0  0  0  0  0  0  0  0  0  0  0
    1.9740    3.5060   19.6100 C   0  0  0  0  0  0  0  0  0  0  0  0
    1.5680    4.8650   18.9720 C   0  0  0  0  0  0  0  0  0  0  0  0
    0.8470    4.6520   17.8190 C   0  0  0  0  0  0  0  0  0  0  0  0
    0.3540    5.7970   17.1930 C   0  0  0  0  0  0  0  0  0  0  0  0
    1.1090    6.7610   16.6130 C   0  0  0  0  0  0  0  0  0  0  0  0
    0.3800    7.7590   16.0820 N   0  0  0  0  0  0  0  0  0  0  0  0
   -0.9170    7.3460   16.3740 N   0  0  0  0  0  0  0  0  0  0  0  0
   -0.9930    6.1450   17.0560 C   0  0  0  0  0  0  0  0  0  0  0  0
    1.1340    2.8520   20.5070 C   0  0  0  0  0  0  0  0  0  0  0  0
    1.5180    1.6510   21.0660 C   0  0  0  0  0  0  0  0  0  0  0  0
    2.6890    1.0660   20.7800 N   0  0  0  0  0  0  0  0  0  0  0  0
  1  2  1  0
  2  3  1  0
  3  4  2  0
  4  5  1  0
  5  6  2  0
  6  7  1  0
  3  8  1  0
  7  8  2  0
  8  9  1  0
  9 10  2  0
 10 11  1  0
 11 12  1  0
 12 13  1  0
 13 14  1  0
 14 15  1  0
 15 16  2  0
 16 17  1  0
 14 18  2  0
 17 18  1  0
 11 19  2  0
 19 20  1  0
  9 21  1  0
 20 21  2  0
M  END
