KTA-UNK-dac325de-3
     RDKit          3D

  6  6  0  0  0  0  0  0  0  0999 V2000
   10.7280    0.0900   23.3820 C   0  0  0  0  0  0  0  0  0  0  0  0
   10.5770   -1.2060   23.0690 C   0  0  0  0  0  0  0  0  0  0  0  0
   11.7160   -2.0350   22.6030 C   0  0  0  0  0  0  0  0  0  0  0  0
   12.9870   -1.4960   22.4770 N   0  0  0  0  0  0  0  0  0  0  0  0
   13.0660   -0.1200   22.8320 C   0  0  0  0  0  0  0  0  0  0  0  0
   12.0020    0.6660   23.2660 C   0  0  0  0  0  0  0  0  0  0  0  0
  1  2  2  0
  2  3  1  0
  3  4  2  0
  4  5  1  0
  1  6  1  0
  5  6  2  0
M  END
