KUS-THE-322b9b63-2
     RDKit          3D

 26 29  0  0  0  0  0  0  0  0999 V2000
    6.1320   -7.1030   32.5300 O   0  0  0  0  0  0  0  0  0  0  0  0
    5.2040   -7.0030   31.7350 C   0  0  0  0  0  0  0  0  0  0  0  0
    3.8500   -7.3130   32.0890 C   0  0  0  0  0  0  0  0  0  0  0  0
    3.1120   -6.7120   31.0920 C   0  0  0  0  0  0  0  0  0  0  0  0
    3.8960   -6.0490   30.0990 C   0  0  2  0  0  0  0  0  0  0  0  0
    3.5670   -6.3900   28.7740 C   0  0  0  0  0  0  0  0  0  0  0  0
    2.3320   -6.9580   28.7080 N   0  0  0  0  0  0  0  0  0  0  0  0
    2.1110   -7.2480   27.3970 N   0  0  0  0  0  0  0  0  0  0  0  0
    3.2420   -6.8400   26.6590 C   0  0  0  0  0  0  0  0  0  0  0  0
    3.3720   -6.9790   25.2640 N   0  0  0  0  0  0  0  0  0  0  0  0
    3.5100   -5.9370   24.3650 C   0  0  0  0  0  0  0  0  0  0  0  0
    2.7610   -6.2750   23.1490 C   0  0  0  0  0  0  0  0  0  0  0  0
    2.1150   -7.5470   23.4440 C   0  0  0  0  0  0  0  0  0  0  0  0
    2.4470   -7.8890   24.7250 C   0  0  0  0  0  0  0  0  0  0  0  0
    4.1940   -6.2840   27.5260 N   0  0  0  0  0  0  0  0  0  0  0  0
    5.5390   -5.7300   27.1620 C   0  0  0  0  0  0  0  0  0  0  0  0
    5.8730   -4.4750   27.7450 C   0  0  0  0  0  0  0  0  0  0  0  0
    6.1800   -3.4810   26.8400 N   0  0  0  0  0  0  0  0  0  0  0  0
    5.6980   -3.3020   25.5410 C   0  0  0  0  0  0  0  0  0  0  0  0
    4.4540   -2.7800   25.3920 O   0  0  0  0  0  0  0  0  0  0  0  0
    6.4310   -3.6200   24.4070 C   0  0  0  0  0  0  0  0  0  0  0  0
    6.3350   -4.7750   23.6610 C   0  0  0  0  0  0  0  0  0  0  0  0
    7.1820   -4.8020   22.5950 C   0  0  0  0  0  0  0  0  0  0  0  0
    7.9840   -3.6670   22.4560 C   0  0  0  0  0  0  0  0  0  0  0  0
    7.6620   -2.5340   23.6960 S   0  0  0  0  0  0  0  0  0  0  0  0
    5.2310   -6.5650   30.4220 N   0  0  0  0  0  0  0  0  0  0  0  0
  1  2  2  0
  2  3  1  0
  3  4  1  0
  4  5  1  0
  5  6  1  6
  6  7  2  0
  7  8  1  0
  8  9  2  0
  9 10  1  0
 10 11  1  0
 11 12  1  0
 12 13  1  0
 10 14  1  0
 13 14  1  0
  6 15  1  0
  9 15  1  0
 15 16  1  0
 16 17  1  0
 17 18  1  0
 18 19  1  0
 19 20  2  0
 19 21  1  0
 21 22  2  0
 22 23  1  0
 23 24  2  0
 21 25  1  0
 24 25  1  0
  2 26  1  0
  5 26  1  0
M  END
