KUS-THE-322b9b63-8
     RDKit          3D

 28 31  0  0  0  0  0  0  0  0999 V2000
   14.9210   -5.1520   20.3930 C   0  0  0  0  0  0  0  0  0  0  0  0
   13.6650   -4.4280   20.5540 N   0  0  0  0  0  0  0  0  0  0  0  0
   13.3040   -3.5040   21.5020 C   0  0  0  0  0  0  0  0  0  0  0  0
   12.0550   -3.1100   21.2380 C   0  0  0  0  0  0  0  0  0  0  0  0
   11.5030   -2.1710   22.0440 N   0  0  0  0  0  0  0  0  0  0  0  0
   12.3620   -1.2660   21.7760 C   0  0  0  0  0  0  0  0  0  0  0  0
   13.0740   -1.6130   20.7900 N   0  0  0  0  0  0  0  0  0  0  0  0
   13.8990   -0.6720   20.5570 N   0  0  0  0  0  0  0  0  0  0  0  0
   13.7170    0.3510   21.4160 C   0  0  0  0  0  0  0  0  0  0  0  0
   14.6380    1.5350   21.2080 C   0  0  1  0  0  0  0  0  0  0  0  0
   15.3270    1.3280   19.7010 C   0  0  0  0  0  0  0  0  0  0  0  0
   15.6960    2.6930   19.1990 C   0  0  0  0  0  0  0  0  0  0  0  0
   15.0520    3.6130   20.1690 C   0  0  0  0  0  0  0  0  0  0  0  0
   14.9530    4.7810   20.1020 O   0  0  0  0  0  0  0  0  0  0  0  0
   14.5310    2.8950   21.3290 N   0  0  0  0  0  0  0  0  0  0  0  0
   12.7520   -0.0160   22.2600 N   0  0  0  0  0  0  0  0  0  0  0  0
   12.3070    0.7360   23.3420 C   0  0  0  0  0  0  0  0  0  0  0  0
   12.0810   -0.2240   24.4960 C   0  0  0  0  0  0  0  0  0  0  0  0
   10.6990   -0.1070   24.6640 N   0  0  0  0  0  0  0  0  0  0  0  0
   10.4810    1.1340   23.9540 C   0  0  0  0  0  0  0  0  0  0  0  0
    9.0870    1.6010   24.1790 C   0  0  0  0  0  0  0  0  0  0  0  0
    8.1250    0.4570   23.9180 C   0  0  0  0  0  0  0  0  0  0  0  0
    8.7860   -0.7200   23.1740 C   0  0  0  0  0  0  0  0  0  0  0  0
    7.7910   -1.8720   23.0930 C   0  0  0  0  0  0  0  0  0  0  0  0
    9.1390   -0.3290   21.7280 C   0  0  0  0  0  0  0  0  0  0  0  0
   10.0220   -1.1930   23.9700 C   0  0  0  0  0  0  0  0  0  0  0  0
   11.7030   -3.8670   20.1150 C   0  0  0  0  0  0  0  0  0  0  0  0
   12.6780   -4.6510   19.7030 N   0  0  0  0  0  0  0  0  0  0  0  0
  1  2  1  0
  2  3  1  0
  3  4  2  0
  4  5  1  0
  5  6  1  0
  6  7  2  0
  7  8  1  0
  8  9  2  0
 10  9  1  6
 10 11  1  0
 11 12  1  0
 12 13  1  0
 13 14  2  0
 10 15  1  0
 13 15  1  0
  6 16  1  0
  9 16  1  0
 16 17  1  0
 17 18  1  0
 18 19  1  0
 19 20  1  0
 20 21  1  0
 21 22  1  0
 22 23  1  0
 23 24  1  0
 23 25  1  0
 19 26  1  0
 23 26  1  0
  4 27  1  0
  2 28  1  0
 27 28  2  0
M  END
