KUS-THE-322b9b63-24
     RDKit          3D

 29 32  0  0  0  0  0  0  0  0999 V2000
   14.2770    1.2630   22.6040 O   0  0  0  0  0  0  0  0  0  0  0  0
   13.3680    2.0400   22.8790 C   0  0  0  0  0  0  0  0  0  0  0  0
   12.2250    0.9820   23.0580 C   0  0  0  0  0  0  0  0  0  0  0  0
   10.7730    1.1540   22.9740 C   0  0  0  0  0  0  0  0  0  0  0  0
   10.3890    2.4730   22.9670 C   0  0  0  0  0  0  0  0  0  0  0  0
   11.3840    3.2060   22.3460 C   0  0  0  0  0  0  0  0  0  0  0  0
   12.0940    4.1400   23.0150 C   0  0  0  0  0  0  0  0  0  0  0  0
   13.4420    3.6020   23.0370 N   0  0  0  0  0  0  0  0  0  0  0  0
   14.5220    4.6990   23.6600 C   0  0  0  0  0  0  0  0  0  0  0  0
   16.6020    4.7160   24.4470 C   0  0  0  0  0  0  0  0  0  0  0  0
   18.2810    4.1350   24.1850 C   0  0  0  0  0  0  0  0  0  0  0  0
   19.7280    4.8120   24.5320 N   0  0  0  0  0  0  0  0  0  0  0  0
   20.6500    5.6120   23.7580 C   0  0  0  0  0  0  0  0  0  0  0  0
   20.8850    6.1850   22.4820 C   0  0  0  0  0  0  0  0  0  0  0  0
   21.7360    5.4250   21.7080 C   0  0  0  0  0  0  0  0  0  0  0  0
   22.0020    6.0770   20.4570 C   0  0  0  0  0  0  0  0  0  0  0  0
   21.1970    7.3410   20.5280 C   0  0  0  0  0  0  0  0  0  0  0  0
   20.5500    7.3690   21.7670 N   0  0  0  0  0  0  0  0  0  0  0  0
   21.8180    5.9930   24.4380 N   0  0  0  0  0  0  0  0  0  0  0  0
   21.8170    5.5070   25.5730 N   0  0  0  0  0  0  0  0  0  0  0  0
   20.6110    4.7600   25.7070 C   0  0  0  0  0  0  0  0  0  0  0  0
   20.5750    4.1580   26.8840 N   0  0  0  0  0  0  0  0  0  0  0  0
   21.5940    3.1010   26.8630 C   0  0  0  0  0  0  0  0  0  0  0  0
   21.6940    2.4500   28.2180 C   0  0  0  0  0  0  0  0  0  0  0  0
   22.2060    3.3460   29.2010 C   0  0  0  0  0  0  0  0  0  0  0  0
   23.5630    2.8790   29.7310 C   0  0  0  0  0  0  0  0  0  0  0  0
   24.5730    3.8810   29.6940 O   0  0  0  0  0  0  0  0  0  0  0  0
   22.2590    4.7800   28.6400 C   0  0  0  0  0  0  0  0  0  0  0  0
   20.9410    5.1560   27.9460 C   0  0  0  0  0  0  0  0  0  0  0  0
  1  2  2  0
  2  3  1  0
  3  4  1  0
  4  5  1  0
  5  6  1  0
  6  7  1  0
  2  8  1  0
  7  8  1  0
  8  9  1  0
  9 10  1  0
 10 11  1  0
 11 12  1  0
 12 13  1  0
 13 14  1  0
 14 15  2  0
 15 16  1  0
 16 17  2  0
 14 18  1  0
 17 18  1  0
 13 19  2  0
 19 20  1  0
 12 21  1  0
 20 21  2  0
 21 22  1  0
 22 23  1  0
 23 24  1  0
 24 25  1  0
 25 26  1  0
 26 27  1  0
 25 28  1  0
 22 29  1  0
 28 29  1  0
M  END
