KUS-THE-322b9b63-5
     RDKit          3D

 27 30  0  0  0  0  0  0  0  0999 V2000
    7.3630   -1.3450   18.8380 C   0  0  0  0  0  0  0  0  0  0  0  0
    7.7480   -1.2830   20.3270 C   0  0  0  0  0  0  0  0  0  0  0  0
    6.8280   -0.7560   21.2750 N   0  0  0  0  0  0  0  0  0  0  0  0
    7.5180   -0.8280   22.5120 C   0  0  0  0  0  0  0  0  0  0  0  0
    6.7620   -0.2920   23.7150 C   0  0  0  0  0  0  0  0  0  0  0  0
    6.1840    1.1310   23.4250 C   0  0  0  0  0  0  0  0  0  0  0  0
    6.9570    1.8670   22.4010 N   0  0  0  0  0  0  0  0  0  0  0  0
    7.1770    1.6330   21.0390 C   0  0  0  0  0  0  0  0  0  0  0  0
    6.8190    0.6370   19.8920 C   0  0  1  0  0  0  0  0  0  0  0  0
    5.5240   -0.0680   20.3300 C   0  0  0  0  0  0  0  0  0  0  0  0
    4.4020    0.5100   19.8550 C   0  0  0  0  0  0  0  0  0  0  0  0
    4.9100    1.5450   18.8320 C   0  0  0  0  0  0  0  0  0  0  0  0
    4.2300    2.4090   18.2850 O   0  0  0  0  0  0  0  0  0  0  0  0
    6.3720    1.3290   18.6460 N   0  0  0  0  0  0  0  0  0  0  0  0
    7.7550    2.6970   21.5130 N   0  0  0  0  0  0  0  0  0  0  0  0
    8.4150    3.6920   21.5290 N   0  0  0  0  0  0  0  0  0  0  0  0
    7.7760    3.2730   22.7460 C   0  0  0  0  0  0  0  0  0  0  0  0
    7.8230    3.9100   23.9600 N   0  0  0  0  0  0  0  0  0  0  0  0
    9.0890    3.8110   24.7190 C   0  0  0  0  0  0  0  0  0  0  0  0
    9.3580    5.0080   25.3860 C   0  0  0  0  0  0  0  0  0  0  0  0
    9.5320    6.0460   24.7560 O   0  0  0  0  0  0  0  0  0  0  0  0
    8.4620    6.3940   23.8390 C   0  0  0  0  0  0  0  0  0  0  0  0
    7.8210    7.6080   24.0530 C   0  0  0  0  0  0  0  0  0  0  0  0
    9.0890    6.2940   22.5850 C   0  0  0  0  0  0  0  0  0  0  0  0
    7.3200    5.3160   23.8920 C   0  0  0  0  0  0  0  0  0  0  0  0
    8.7690   -1.3770   22.3900 N   0  0  0  0  0  0  0  0  0  0  0  0
    8.8830   -1.6460   21.0260 N   0  0  0  0  0  0  0  0  0  0  0  0
  1  2  1  0
  2  3  2  0
  3  4  1  0
  4  5  1  0
  5  6  1  0
  6  7  1  0
  7  8  1  0
  9  8  1  1
  9 10  1  0
 10 11  1  0
 11 12  1  0
 12 13  2  0
  9 14  1  0
 12 14  1  0
  8 15  2  0
 15 16  1  0
  7 17  1  0
 16 17  2  0
 17 18  1  0
 18 19  1  0
 19 20  1  0
 20 21  1  0
 21 22  1  0
 22 23  1  0
 22 24  1  0
 18 25  1  0
 22 25  1  0
  4 26  2  0
  2 27  1  0
 26 27  1  0
M  END
