KUS-THE-322b9b63-23
     RDKit          3D

 28 31  0  0  0  0  0  0  0  0999 V2000
    7.9850   -2.7050   18.1740 O   0  0  0  0  0  0  0  0  0  0  0  0
    7.2020   -1.8000   18.3350 C   0  0  0  0  0  0  0  0  0  0  0  0
    5.8280   -1.9300   18.7440 C   0  0  0  0  0  0  0  0  0  0  0  0
    5.2800   -0.7260   18.4060 C   0  0  0  0  0  0  0  0  0  0  0  0
    6.2630    0.2350   18.4300 C   0  0  1  0  0  0  0  0  0  0  0  0
    6.5190    0.4510   19.7070 C   0  0  0  0  0  0  0  0  0  0  0  0
    5.4920    1.1950   19.1350 N   0  0  0  0  0  0  0  0  0  0  0  0
    4.8330    2.0590   19.9130 N   0  0  0  0  0  0  0  0  0  0  0  0
    5.4420    1.9180   21.1200 C   0  0  0  0  0  0  0  0  0  0  0  0
    5.1420    2.6080   22.3240 N   0  0  0  0  0  0  0  0  0  0  0  0
    5.3050    2.1560   23.6250 C   0  0  0  0  0  0  0  0  0  0  0  0
    4.6930    2.9870   24.7380 C   0  0  0  0  0  0  0  0  0  0  0  0
    4.4670    4.4280   24.4600 C   0  0  0  0  0  0  0  0  0  0  0  0
    3.2850    4.8230   24.9750 C   0  0  0  0  0  0  0  0  0  0  0  0
    3.0300    6.0320   24.9900 O   0  0  0  0  0  0  0  0  0  0  0  0
    4.3340    4.7140   22.9560 C   0  0  0  0  0  0  0  0  0  0  0  0
    4.1380    3.5990   22.1300 C   0  0  0  0  0  0  0  0  0  0  0  0
    6.4260    0.9760   20.9840 N   0  0  0  0  0  0  0  0  0  0  0  0
    7.3160    0.5170   22.0530 C   0  0  0  0  0  0  0  0  0  0  0  0
    8.3060   -0.3490   21.5740 C   0  0  0  0  0  0  0  0  0  0  0  0
    8.9490   -1.5150   22.7590 S   0  0  0  0  0  0  0  0  0  0  0  0
   10.5920   -0.8590   22.8000 C   0  0  0  0  0  0  0  0  0  0  0  0
   10.7040    0.5180   22.9230 C   0  0  0  0  0  0  0  0  0  0  0  0
   11.9400    1.1230   22.9430 C   0  0  0  0  0  0  0  0  0  0  0  0
   13.1730    0.3060   22.8420 C   0  0  0  0  0  0  0  0  0  0  0  0
   13.0150   -1.0890   22.7270 C   0  0  0  0  0  0  0  0  0  0  0  0
   11.7330   -1.6770   22.7030 C   0  0  0  0  0  0  0  0  0  0  0  0
    7.4030   -0.4690   18.1100 N   0  0  0  0  0  0  0  0  0  0  0  0
  1  2  2  0
  2  3  1  0
  3  4  1  0
  4  5  1  0
  5  6  1  1
  6  7  2  0
  7  8  1  0
  8  9  2  0
  9 10  1  0
 10 11  1  0
 11 12  1  0
 12 13  1  0
 13 14  1  0
 14 15  1  0
 13 16  1  0
 10 17  1  0
 16 17  1  0
  6 18  1  0
  9 18  1  0
 18 19  1  0
 19 20  1  0
 20 21  1  0
 21 22  1  0
 22 23  2  0
 23 24  1  0
 24 25  2  0
 25 26  1  0
 22 27  1  0
 26 27  2  0
  2 28  1  0
  5 28  1  0
M  END
