KUS-THE-322b9b63-21
     RDKit          3D

 26 29  0  0  0  0  0  0  0  0999 V2000
    5.4850   -5.3810   25.8220 C   0  0  0  0  0  0  0  0  0  0  0  0
    5.7940   -4.7790   24.5110 C   0  0  0  0  0  0  0  0  0  0  0  0
    6.2130   -3.4680   24.3850 N   0  0  0  0  0  0  0  0  0  0  0  0
    6.4410   -3.1260   22.9900 C   0  0  0  0  0  0  0  0  0  0  0  0
    6.8760   -1.8270   22.6870 C   0  0  0  0  0  0  0  0  0  0  0  0
    7.4790   -1.2210   23.8940 N   0  0  0  0  0  0  0  0  0  0  0  0
    8.8530   -1.2940   24.3300 C   0  0  0  0  0  0  0  0  0  0  0  0
   10.0250   -2.0100   23.6600 C   0  0  1  0  0  0  0  0  0  0  0  0
   10.5250   -1.3780   22.3060 C   0  0  0  0  0  0  0  0  0  0  0  0
   12.0120   -1.5500   22.2240 C   0  0  0  0  0  0  0  0  0  0  0  0
   12.3200   -2.0040   23.5570 C   0  0  0  0  0  0  0  0  0  0  0  0
   13.5690   -2.4030   23.8950 O   0  0  0  0  0  0  0  0  0  0  0  0
   11.2490   -1.9950   24.4310 N   0  0  0  0  0  0  0  0  0  0  0  0
    8.8490   -0.5630   25.5220 N   0  0  0  0  0  0  0  0  0  0  0  0
    7.5930   -0.0570   25.8140 N   0  0  0  0  0  0  0  0  0  0  0  0
    6.8010   -0.4500   24.8490 C   0  0  0  0  0  0  0  0  0  0  0  0
    5.4650   -0.1440   24.7760 N   0  0  0  0  0  0  0  0  0  0  0  0
    5.2750    1.3460   24.7900 C   0  0  0  0  0  0  0  0  0  0  0  0
    3.9380    1.7570   24.8930 C   0  0  0  0  0  0  0  0  0  0  0  0
    3.3440    0.7430   25.3920 N   0  0  0  0  0  0  0  0  0  0  0  0
    3.3200   -0.5300   25.8060 C   0  0  0  0  0  0  0  0  0  0  0  0
    2.2150   -1.1670   26.2920 O   0  0  0  0  0  0  0  0  0  0  0  0
    4.6020   -1.0740   25.6610 C   0  0  0  0  0  0  0  0  0  0  0  0
    6.1330   -4.3970   21.9080 S   0  0  0  0  0  0  0  0  0  0  0  0
    5.6940   -5.4580   23.2840 C   0  0  0  0  0  0  0  0  0  0  0  0
    5.3190   -6.7650   23.0100 C   0  0  0  0  0  0  0  0  0  0  0  0
  1  2  1  0
  2  3  1  0
  3  4  2  0
  4  5  1  0
  5  6  1  0
  6  7  1  0
  8  7  1  1
  8  9  1  0
  9 10  1  0
 10 11  1  0
 11 12  2  0
  8 13  1  0
 11 13  1  0
  7 14  2  0
 14 15  1  0
  6 16  1  0
 15 16  2  0
 16 17  1  0
 17 18  1  0
 18 19  1  0
 19 20  1  0
 20 21  1  0
 21 22  2  0
 17 23  1  0
 21 23  1  0
  4 24  1  0
  2 25  2  0
 24 25  1  0
 25 26  1  0
M  END
