KUS-THE-322b9b63-6
     RDKit          3D

 25 28  0  0  0  0  0  0  0  0999 V2000
    8.7660   -0.8800   22.0920 O   0  0  0  0  0  0  0  0  0  0  0  0
    9.5170   -0.9570   23.0460 C   0  0  0  0  0  0  0  0  0  0  0  0
    8.8570   -1.4570   24.3190 C   0  0  0  0  0  0  0  0  0  0  0  0
    8.0280   -2.6940   24.1680 N   0  0  0  0  0  0  0  0  0  0  0  0
    8.5920   -3.8890   24.4810 C   0  0  0  0  0  0  0  0  0  0  0  0
    9.9860   -3.8490   24.9630 C   0  0  0  0  0  0  0  0  0  0  0  0
   11.1000   -3.0360   24.6050 C   0  0  0  0  0  0  0  0  0  0  0  0
   12.1830   -3.3210   25.3400 C   0  0  0  0  0  0  0  0  0  0  0  0
   13.7860   -2.4950   25.1840 Br  0  0  0  0  0  0  0  0  0  0  0  0
   11.7990   -4.3050   26.1730 C   0  0  0  0  0  0  0  0  0  0  0  0
   10.5330   -4.6880   26.0160 N   0  0  0  0  0  0  0  0  0  0  0  0
    7.7840   -4.9090   24.3100 N   0  0  0  0  0  0  0  0  0  0  0  0
    6.6100   -4.4090   23.8780 N   0  0  0  0  0  0  0  0  0  0  0  0
    6.6890   -3.0580   23.7770 C   0  0  0  0  0  0  0  0  0  0  0  0
    5.7680   -2.2530   23.4150 N   0  0  0  0  0  0  0  0  0  0  0  0
    5.6260   -2.2480   21.9610 C   0  0  0  0  0  0  0  0  0  0  0  0
    5.2770   -3.5590   21.6850 C   0  0  0  0  0  0  0  0  0  0  0  0
    4.3830   -3.7960   22.7920 C   0  0  0  0  0  0  0  0  0  0  0  0
    4.5630   -2.7670   23.8400 C   0  0  0  0  0  0  0  0  0  0  0  0
    9.9200    0.3730   23.1370 C   0  0  0  0  0  0  0  0  0  0  0  0
   10.6980    0.6670   24.2540 C   0  0  0  0  0  0  0  0  0  0  0  0
   12.0500    0.3980   24.0980 C   0  0  0  0  0  0  0  0  0  0  0  0
   12.4870   -0.1770   22.9370 C   0  0  0  0  0  0  0  0  0  0  0  0
   12.0500   -1.4560   22.6010 C   0  0  0  0  0  0  0  0  0  0  0  0
   10.6810   -1.8520   22.5090 C   0  0  0  0  0  0  0  0  0  0  0  0
  2  1  1  0
  2  3  1  0
  3  4  1  0
  4  5  1  0
  5  6  1  0
  6  7  2  0
  7  8  1  0
  8  9  1  0
  8 10  2  0
  6 11  1  0
 10 11  1  0
  5 12  2  0
 12 13  1  0
  4 14  1  0
 13 14  2  0
 14 15  1  0
 15 16  1  0
 16 17  1  0
 17 18  1  0
 15 19  1  0
 18 19  1  0
  2 20  1  0
 20 21  1  0
 21 22  1  0
 22 23  1  0
 23 24  1  0
  2 25  1  0
 24 25  1  0
M  END
