KUS-THE-322b9b63-1
     RDKit          3D

 24 27  0  0  0  0  0  0  0  0999 V2000
    5.2070   -2.1070   18.8500 C   0  0  0  0  0  0  0  0  0  0  0  0
    6.1420   -1.6770   19.8840 C   0  0  0  0  0  0  0  0  0  0  0  0
    6.1080   -2.3960   21.0520 N   0  0  0  0  0  0  0  0  0  0  0  0
    7.0670   -1.7840   21.7460 N   0  0  0  0  0  0  0  0  0  0  0  0
    7.6840   -0.7400   21.0950 C   0  0  0  0  0  0  0  0  0  0  0  0
    8.6990    0.0220   21.6180 C   0  0  0  0  0  0  0  0  0  0  0  0
    8.9340    1.1710   21.1920 O   0  0  0  0  0  0  0  0  0  0  0  0
    9.4290   -0.5560   22.6500 N   0  0  0  0  0  0  0  0  0  0  0  0
    8.7460   -0.5730   23.9460 C   0  0  0  0  0  0  0  0  0  0  0  0
    9.6990   -0.0780   24.8200 C   0  0  0  0  0  0  0  0  0  0  0  0
   10.9150   -0.5650   24.4140 C   0  0  2  0  0  0  0  0  0  0  0  0
   12.2350    0.1070   24.5890 C   0  0  0  0  0  0  0  0  0  0  0  0
   12.8870   -0.2350   23.4760 N   0  0  0  0  0  0  0  0  0  0  0  0
   13.1370    0.8520   22.7610 C   0  0  0  0  0  0  0  0  0  0  0  0
   12.3020    2.1170   22.9340 C   0  0  0  0  0  0  0  0  0  0  0  0
   13.2930    3.0860   22.7910 N   0  0  0  0  0  0  0  0  0  0  0  0
   12.9980    4.3690   22.8690 N   0  0  0  0  0  0  0  0  0  0  0  0
   11.4010    4.6200   23.1450 S   0  0  0  0  0  0  0  0  0  0  0  0
   11.0970    2.9530   23.1550 C   0  0  0  0  0  0  0  0  0  0  0  0
    9.4840    2.4560   23.4070 Cl  0  0  0  0  0  0  0  0  0  0  0  0
   12.0240   -1.1180   22.6860 C   0  0  0  0  0  0  0  0  0  0  0  0
   10.8170   -0.2720   22.9570 C   0  0  1  0  0  0  0  0  0  0  0  0
    7.0690   -0.6560   19.8640 C   0  0  0  0  0  0  0  0  0  0  0  0
    7.3240    0.2260   18.8660 O   0  0  0  0  0  0  0  0  0  0  0  0
  1  2  1  0
  2  3  2  0
  3  4  1  0
  4  5  1  0
  5  6  1  0
  6  7  2  0
  6  8  1  0
  8  9  1  0
  9 10  1  0
 11 10  1  1
 11 12  1  0
 12 13  1  0
 13 14  1  0
 14 15  1  0
 15 16  1  0
 16 17  2  0
 17 18  1  0
 15 19  2  0
 18 19  1  0
 19 20  1  0
 13 21  1  0
  8 22  1  0
 11 22  1  0
 22 21  1  6
  2 23  1  0
  5 23  2  0
 23 24  1  0
M  END
