KUS-THE-322b9b63-14
     RDKit          3D

 31 34  0  0  0  0  0  0  0  0999 V2000
    8.3920    0.3300   22.8490 C   0  0  0  0  0  0  0  0  0  0  0  0
    9.1590   -0.9440   22.5280 C   0  0  0  0  0  0  0  0  0  0  0  0
    8.9130   -1.5430   21.3800 C   0  0  0  0  0  0  0  0  0  0  0  0
    8.7370   -1.9880   23.5540 C   0  0  0  0  0  0  0  0  0  0  0  0
    7.4030   -2.2770   23.5670 N   0  0  0  0  0  0  0  0  0  0  0  0
    6.4770   -2.0250   22.5160 C   0  0  0  0  0  0  0  0  0  0  0  0
    6.8190   -1.3770   21.1820 C   0  0  1  0  0  0  0  0  0  0  0  0
    5.6820   -1.6700   20.1630 C   0  0  0  0  0  0  0  0  0  0  0  0
    5.8580   -0.5610   19.1120 C   0  0  0  0  0  0  0  0  0  0  0  0
    6.6220    0.4320   19.6200 C   0  0  0  0  0  0  0  0  0  0  0  0
    6.9630    1.4620   19.0610 O   0  0  0  0  0  0  0  0  0  0  0  0
    6.9590    0.0470   20.9940 N   0  0  0  0  0  0  0  0  0  0  0  0
    5.1890   -2.4650   22.8940 N   0  0  0  0  0  0  0  0  0  0  0  0
    5.2590   -2.9820   24.1540 N   0  0  0  0  0  0  0  0  0  0  0  0
    6.6540   -2.8450   24.5450 C   0  0  0  0  0  0  0  0  0  0  0  0
    7.0760   -3.2750   25.8360 N   0  0  0  0  0  0  0  0  0  0  0  0
    7.6790   -2.2590   26.4650 C   0  0  0  0  0  0  0  0  0  0  0  0
    7.4590   -2.1280   27.9320 C   0  0  0  0  0  0  0  0  0  0  0  0
    7.0380   -3.2560   28.5940 C   0  0  0  0  0  0  0  0  0  0  0  0
    6.2190   -4.1690   27.9450 C   0  0  2  0  0  0  0  0  0  0  0  0
    6.5410   -5.4760   28.2680 C   0  0  0  0  0  0  0  0  0  0  0  0
    5.9210   -5.9720   29.5090 N   0  0  0  0  0  0  0  0  0  0  0  0
    7.2850   -6.2030   27.6170 O   0  0  0  0  0  0  0  0  0  0  0  0
    5.9740   -3.8960   26.5740 C   0  0  0  0  0  0  0  0  0  0  0  0
   10.5150   -0.6200   22.5920 C   0  0  0  0  0  0  0  0  0  0  0  0
   10.6930    0.7050   22.8820 C   0  0  0  0  0  0  0  0  0  0  0  0
   11.9920    1.2450   22.9730 C   0  0  0  0  0  0  0  0  0  0  0  0
   13.1740    0.3220   22.7490 C   0  0  0  0  0  0  0  0  0  0  0  0
   13.0350   -1.0140   22.4580 C   0  0  0  0  0  0  0  0  0  0  0  0
   11.5950   -1.4850   22.3790 C   0  0  0  0  0  0  0  0  0  0  0  0
   11.4040   -2.7540   22.0940 F   0  0  0  0  0  0  0  0  0  0  0  0
  2  1  1  0
  2  3  1  0
  2  4  1  0
  4  5  1  0
  5  6  1  0
  7  6  1  1
  7  8  1  0
  8  9  1  0
  9 10  1  0
 10 11  2  0
  7 12  1  0
 10 12  1  0
  6 13  2  0
 13 14  1  0
  5 15  1  0
 14 15  2  0
 15 16  1  0
 16 17  1  0
 17 18  1  0
 18 19  1  0
 19 20  1  0
 20 21  1  6
 21 22  1  0
 21 23  2  0
 16 24  1  0
 20 24  1  0
  2 25  1  0
 25 26  2  0
 26 27  1  0
 27 28  2  0
 28 29  1  0
 25 30  1  0
 29 30  2  0
 30 31  1  0
M  END
