KUS-THE-322b9b63-11
     RDKit          3D

 30 33  0  0  0  0  0  0  0  0999 V2000
    8.9890    0.6720   21.3800 O   0  0  0  0  0  0  0  0  0  0  0  0
    8.4400   -0.3710   21.7130 C   0  0  0  0  0  0  0  0  0  0  0  0
    9.0660   -1.1510   22.7840 C   0  0  0  0  0  0  0  0  0  0  0  0
   10.3940   -0.8420   22.8900 C   0  0  0  0  0  0  0  0  0  0  0  0
   10.7070    0.5140   22.8770 C   0  0  0  0  0  0  0  0  0  0  0  0
   12.0090    0.9830   22.9450 C   0  0  0  0  0  0  0  0  0  0  0  0
   13.1390    0.0370   23.0440 C   0  0  0  0  0  0  0  0  0  0  0  0
   12.7980   -1.4610   23.0740 C   0  0  0  0  0  0  0  0  0  0  0  0
   13.7240   -2.4090   23.1700 F   0  0  0  0  0  0  0  0  0  0  0  0
   11.3560   -1.8370   22.9880 C   0  0  0  0  0  0  0  0  0  0  0  0
    7.2810   -0.8290   21.1450 N   0  0  0  0  0  0  0  0  0  0  0  0
    6.3540    0.1530   20.8600 C   0  0  0  0  0  0  0  0  0  0  0  0
    6.8170    1.2190   20.1790 C   0  0  0  0  0  0  0  0  0  0  0  0
    5.7770    2.1110   20.1900 N   0  0  0  0  0  0  0  0  0  0  0  0
    4.6970    1.7830   19.4120 C   0  0  0  0  0  0  0  0  0  0  0  0
    4.6260    0.6430   18.6770 C   0  0  1  0  0  0  0  0  0  0  0  0
    5.8320    0.1830   18.1550 C   0  0  0  0  0  0  0  0  0  0  0  0
    6.1370   -1.1360   18.5060 C   0  0  0  0  0  0  0  0  0  0  0  0
    5.1750   -1.5180   19.3640 C   0  0  0  0  0  0  0  0  0  0  0  0
    5.0270   -2.6540   19.7990 O   0  0  0  0  0  0  0  0  0  0  0  0
    4.3540   -0.4260   19.6700 N   0  0  0  0  0  0  0  0  0  0  0  0
    3.7260    2.7060   19.4840 N   0  0  0  0  0  0  0  0  0  0  0  0
    4.1770    3.6620   20.3370 N   0  0  0  0  0  0  0  0  0  0  0  0
    5.4650    3.3230   20.8120 C   0  0  0  0  0  0  0  0  0  0  0  0
    6.2140    4.0620   21.7040 N   0  0  0  0  0  0  0  0  0  0  0  0
    5.9010    5.5190   21.7190 C   0  0  0  0  0  0  0  0  0  0  0  0
    7.1130    6.4210   21.5710 C   0  0  0  0  0  0  0  0  0  0  0  0
    8.4070    6.0740   22.8040 S   0  0  0  0  0  0  0  0  0  0  0  0
    7.8890    4.3750   23.2450 C   0  0  0  0  0  0  0  0  0  0  0  0
    7.4470    3.6630   22.1240 C   0  0  0  0  0  0  0  0  0  0  0  0
  1  2  2  0
  2  3  1  0
  3  4  1  0
  4  5  2  0
  5  6  1  0
  6  7  2  0
  7  8  1  0
  8  9  1  0
  4 10  1  0
  8 10  2  0
  2 11  1  0
 11 12  1  0
 12 13  1  0
 13 14  1  0
 14 15  1  0
 16 15  1  1
 16 17  1  0
 17 18  1  0
 18 19  1  0
 19 20  2  0
 16 21  1  0
 19 21  1  0
 15 22  2  0
 22 23  1  0
 14 24  1  0
 23 24  2  0
 24 25  1  0
 25 26  1  0
 26 27  1  0
 27 28  1  0
 28 29  1  0
 25 30  1  0
 29 30  1  0
M  END
