KUS-THE-322b9b63-15
     RDKit          3D

 32 35  0  0  0  0  0  0  0  0999 V2000
   11.1690    0.5040   33.3260 C   0  0  0  0  0  0  0  0  0  0  0  0
   10.8690    1.8040   32.6820 C   0  0  0  0  0  0  0  0  0  0  0  0
   11.1480    2.8520   33.2630 O   0  0  0  0  0  0  0  0  0  0  0  0
   10.2790    1.7600   31.4210 N   0  0  0  0  0  0  0  0  0  0  0  0
    9.8830    0.4510   30.8890 C   0  0  0  0  0  0  0  0  0  0  0  0
    9.5500    0.5180   29.5360 C   0  0  0  0  0  0  0  0  0  0  0  0
    8.5300    1.5290   29.2350 N   0  0  0  0  0  0  0  0  0  0  0  0
    7.3540    0.9610   28.5790 C   0  0  0  0  0  0  0  0  0  0  0  0
    6.2780    0.5600   29.2830 N   0  0  0  0  0  0  0  0  0  0  0  0
    5.3800    0.0900   28.3640 N   0  0  0  0  0  0  0  0  0  0  0  0
    5.8950    0.2070   27.1460 C   0  0  0  0  0  0  0  0  0  0  0  0
    5.1540   -0.2170   25.8600 C   0  0  1  0  0  0  0  0  0  0  0  0
    5.0880   -1.7090   25.5700 C   0  0  0  0  0  0  0  0  0  0  0  0
    3.6850   -2.1690   25.5530 C   0  0  0  0  0  0  0  0  0  0  0  0
    3.0040   -1.0620   25.8570 C   0  0  0  0  0  0  0  0  0  0  0  0
    1.7780   -1.0820   26.0200 O   0  0  0  0  0  0  0  0  0  0  0  0
    3.7840    0.0730   25.9700 N   0  0  0  0  0  0  0  0  0  0  0  0
    7.1530    0.7520   27.2300 N   0  0  0  0  0  0  0  0  0  0  0  0
    8.1140    1.0700   26.1680 C   0  0  0  0  0  0  0  0  0  0  0  0
    8.2210    0.1730   25.0800 C   0  0  0  0  0  0  0  0  0  0  0  0
    7.2650   -0.5600   24.8730 O   0  0  0  0  0  0  0  0  0  0  0  0
    9.3370    0.1350   24.3140 N   0  0  0  0  0  0  0  0  0  0  0  0
   10.5920   -0.0510   23.7010 C   0  0  0  0  0  0  0  0  0  0  0  0
   10.7410   -1.4390   23.4830 C   0  0  0  0  0  0  0  0  0  0  0  0
    9.7780   -2.3650   23.8200 C   0  0  0  0  0  0  0  0  0  0  0  0
   12.0200   -1.9190   22.8440 C   0  0  0  0  0  0  0  0  0  0  0  0
   12.8920   -0.9570   22.5480 C   0  0  0  0  0  0  0  0  0  0  0  0
   12.6020    0.4850   22.8290 C   0  0  0  0  0  0  0  0  0  0  0  0
   11.4310    1.1080   23.4220 C   0  0  0  0  0  0  0  0  0  0  0  0
   12.3480    2.1040   23.0880 C   0  0  0  0  0  0  0  0  0  0  0  0
    8.2910    2.4970   30.3470 C   0  0  0  0  0  0  0  0  0  0  0  0
    9.4670    2.8980   30.9820 C   0  0  0  0  0  0  0  0  0  0  0  0
  1  2  1  0
  2  3  2  0
  2  4  1  0
  4  5  1  0
  5  6  1  0
  6  7  1  0
  7  8  1  0
  8  9  2  0
  9 10  1  0
 10 11  2  0
 12 11  1  1
 12 13  1  0
 13 14  1  0
 14 15  1  0
 15 16  2  0
 12 17  1  0
 15 17  1  0
  8 18  1  0
 11 18  1  0
 18 19  1  0
 19 20  1  0
 20 21  2  0
 20 22  1  0
 22 23  1  0
 23 24  2  0
 24 25  1  0
 24 26  1  0
 26 27  2  0
 27 28  1  0
 23 29  1  0
 28 29  2  0
 29 30  1  0
  7 31  1  0
  4 32  1  0
 31 32  1  0
M  END
