LAU-FAC-e2c8b4ad-1
     RDKit          3D

 23 24  0  0  0  0  0  0  0  0999 V2000
    7.7140   -2.0550   24.5970 C   0  0  0  0  0  0  0  0  0  0  0  0
    7.9450   -2.7840   23.3040 C   0  0  0  0  0  0  0  0  0  0  0  0
    7.6000   -3.9620   23.1570 O   0  0  0  0  0  0  0  0  0  0  0  0
    8.5560   -2.0390   22.3390 N   0  0  0  0  0  0  0  0  0  0  0  0
    8.9280   -0.7570   22.5850 C   0  0  2  0  0  0  0  0  0  0  0  0
    8.3740    0.3500   21.7480 C   0  0  0  0  0  0  0  0  0  0  0  0
    9.0780    1.2470   21.2580 O   0  0  0  0  0  0  0  0  0  0  0  0
    6.9890    0.3200   21.5670 N   0  0  0  0  0  0  0  0  0  0  0  0
    6.5130    0.3890   20.2040 C   0  0  0  0  0  0  0  0  0  0  0  0
    5.3300    1.2750   20.0960 C   0  0  0  0  0  0  0  0  0  0  0  0
    4.6500    1.5110   18.7830 C   0  0  0  0  0  0  0  0  0  0  0  0
    5.8100    0.4540   18.0560 S   0  0  0  0  0  0  0  0  0  0  0  0
    7.0980   -0.2900   19.1660 C   0  0  0  0  0  0  0  0  0  0  0  0
   10.4380   -0.6670   22.7340 C   0  0  1  0  0  0  0  0  0  0  0  0
   10.9730   -1.7570   22.0240 C   0  0  0  0  0  0  0  0  0  0  0  0
   10.7920    0.3750   22.2110 O   0  0  0  0  0  0  0  0  0  0  0  0
   12.1020    0.6550   22.6310 C   0  0  0  0  0  0  0  0  0  0  0  0
   12.4830   -0.6240   23.2250 C   0  0  0  0  0  0  0  0  0  0  0  0
   13.5000   -1.4350   22.8150 C   0  0  0  0  0  0  0  0  0  0  0  0
   13.7950   -2.6080   23.4920 C   0  0  0  0  0  0  0  0  0  0  0  0
   13.0310   -3.0070   24.6720 C   0  0  0  0  0  0  0  0  0  0  0  0
   12.0480   -2.1300   24.9220 C   0  0  0  0  0  0  0  0  0  0  0  0
   11.7340   -1.0040   24.2760 C   0  0  0  0  0  0  0  0  0  0  0  0
  1  2  1  0
  2  3  2  0
  2  4  1  0
  5  4  1  6
  5  6  1  0
  6  7  2  0
  6  8  1  0
  8  9  1  0
  9 10  1  0
 10 11  2  0
 11 12  1  0
  9 13  2  0
 12 13  1  0
  5 14  1  0
 14 15  1  6
 14 16  1  0
 16 17  1  0
 17 18  1  0
 18 19  2  0
 19 20  1  0
 20 21  2  0
 21 22  1  0
 18 23  1  0
 22 23  2  0
M  END
