LEO-EVO-0d2ed6fc-2
     RDKit          3D

 25 27  0  0  0  0  0  0  0  0999 V2000
   12.6610    3.9940   22.7270 C   0  0  0  0  0  0  0  0  0  0  0  0
   11.4710    3.2510   23.1920 C   0  0  0  0  0  0  0  0  0  0  0  0
   10.5950    3.7490   23.8970 O   0  0  0  0  0  0  0  0  0  0  0  0
   11.2370    1.9190   22.8360 C   0  0  0  0  0  0  0  0  0  0  0  0
   11.1540    0.8600   23.7570 C   0  0  1  0  0  0  0  0  0  0  0  0
    9.9480    0.7190   24.5120 C   0  0  0  0  0  0  0  0  0  0  0  0
    8.8490    1.6160   24.4630 O   0  0  0  0  0  0  0  0  0  0  0  0
    9.6590   -0.4080   25.4860 C   0  0  0  0  0  0  0  0  0  0  0  0
    8.4800   -0.1700   26.4590 C   0  0  0  0  0  0  0  0  0  0  0  0
    7.6460   -1.4290   26.5840 C   0  0  1  0  0  0  0  0  0  0  0  0
    7.8250   -2.1030   27.9070 C   0  0  0  0  0  0  0  0  0  0  0  0
    6.8060   -1.8030   28.7160 C   0  0  2  0  0  0  0  0  0  0  0  0
    6.1960   -2.9900   28.9860 F   0  0  0  0  0  0  0  0  0  0  0  0
    5.8910   -0.9680   28.0980 C   0  0  0  0  0  0  0  0  0  0  0  0
    4.9790   -0.3290   28.5990 O   0  0  0  0  0  0  0  0  0  0  0  0
    6.2310   -1.0030   26.7530 N   0  0  0  0  0  0  0  0  0  0  0  0
   11.5740   -0.4590   23.0680 C   0  0  0  0  0  0  0  0  0  0  0  0
   12.4870   -0.4390   22.6060 C   0  0  0  0  0  0  0  0  0  0  0  0
   11.0390   -0.8530   21.9980 N   0  0  0  0  0  0  0  0  0  0  0  0
    9.8440   -1.9190   22.6370 C   0  0  0  0  0  0  0  0  0  0  0  0
    8.5410   -1.8700   22.2810 N   0  0  0  0  0  0  0  0  0  0  0  0
    8.2510   -0.6790   22.0150 C   0  0  0  0  0  0  0  0  0  0  0  0
    9.1390    0.1850   22.3210 N   0  0  0  0  0  0  0  0  0  0  0  0
   10.3560   -0.3130   22.7340 C   0  0  0  0  0  0  0  0  0  0  0  0
   10.9260   -1.6600   22.8310 C   0  0  0  0  0  0  0  0  0  0  0  0
  1  2  1  0
  2  3  2  0
  2  4  1  0
  5  4  1  6
  5  6  1  0
  6  7  2  0
  6  8  1  0
  8  9  1  0
 10  9  1  1
 10 11  1  0
 11 12  1  0
 12 13  1  6
 12 14  1  0
 14 15  2  0
 10 16  1  0
 14 16  1  0
  5 17  1  0
 17 18  2  0
 18 19  1  0
 19 20  1  0
 20 21  1  0
 21 22  2  0
 22 23  1  0
 23 24  2  0
 17 25  1  0
 20 25  2  0
 24 25  1  0
M  END
