LEO-EVO-0d2ed6fc-3
     RDKit          3D

 27 30  0  0  0  0  0  0  0  0999 V2000
   12.3770    7.4220   23.2170 O   0  0  0  0  0  0  0  0  0  0  0  0
   12.3420    6.2920   22.7480 C   0  0  0  0  0  0  0  0  0  0  0  0
   11.2100    5.5820   22.2660 N   0  0  0  0  0  0  0  0  0  0  0  0
   11.4190    4.2490   22.1890 C   0  0  2  0  0  0  0  0  0  0  0  0
   10.4690    3.3710   22.4970 C   0  0  0  0  0  0  0  0  0  0  0  0
   10.7530    2.2280   23.4510 C   0  0  0  0  0  0  0  0  0  0  0  0
    9.6640    2.2700   24.5340 C   0  0  0  0  0  0  0  0  0  0  0  0
    8.9970    3.2880   24.7300 O   0  0  0  0  0  0  0  0  0  0  0  0
    9.4330    1.0490   25.3140 N   0  0  0  0  0  0  0  0  0  0  0  0
    8.1720    0.7380   25.8240 C   0  0  0  0  0  0  0  0  0  0  0  0
    8.0800   -0.1810   27.0550 C   0  0  0  0  0  0  0  0  0  0  0  0
    6.5860   -0.3550   27.3980 C   0  0  0  0  0  0  0  0  0  0  0  0
    5.5020    0.1880   26.7630 C   0  0  0  0  0  0  0  0  0  0  0  0
    5.6700    0.9910   25.6860 N   0  0  0  0  0  0  0  0  0  0  0  0
    6.9590    1.2390   25.2560 C   0  0  0  0  0  0  0  0  0  0  0  0
   10.3130   -0.1190   25.0100 C   0  0  0  0  0  0  0  0  0  0  0  0
    9.4230   -0.1260   23.8280 C   0  0  0  0  0  0  0  0  0  0  0  0
    9.4950   -1.0300   22.8270 N   0  0  0  0  0  0  0  0  0  0  0  0
   10.5630   -2.0430   23.0050 C   0  0  0  0  0  0  0  0  0  0  0  0
   10.0660   -2.5360   21.7700 N   0  0  0  0  0  0  0  0  0  0  0  0
    9.1380   -1.6860   21.5520 C   0  0  0  0  0  0  0  0  0  0  0  0
    8.9100   -0.7220   22.3990 N   0  0  0  0  0  0  0  0  0  0  0  0
    9.6580   -0.5690   23.5790 C   0  0  0  0  0  0  0  0  0  0  0  0
   10.7720   -1.2090   24.2750 C   0  0  0  0  0  0  0  0  0  0  0  0
   12.5660    4.1990   22.9730 C   0  0  0  0  0  0  0  0  0  0  0  0
   13.3710    5.2370   22.5480 C   0  0  1  0  0  0  0  0  0  0  0  0
   13.7890    5.0200   21.2860 F   0  0  0  0  0  0  0  0  0  0  0  0
  1  2  2  0
  2  3  1  0
  3  4  1  0
  4  5  1  1
  5  6  1  0
  6  7  1  0
  7  8  2  0
  7  9  1  0
  9 10  1  0
 10 11  2  0
 11 12  1  0
 12 13  2  0
 13 14  1  0
 10 15  1  0
 14 15  2  0
  9 16  1  0
 16 17  2  0
 17 18  1  0
 18 19  1  0
 19 20  1  0
 20 21  2  0
 21 22  1  0
 22 23  2  0
 16 24  1  0
 19 24  2  0
 23 24  1  0
  4 25  1  0
  2 26  1  0
 25 26  1  0
 26 27  1  6
M  END
