LIZ-THE-8e85e675-1
     RDKit          3D

 19 21  0  0  0  0  0  0  0  0999 V2000
   10.0430    3.1780   22.2560 N   0  0  0  0  0  0  0  0  0  0  0  0
    9.2620    2.1560   22.1170 C   0  0  0  0  0  0  0  0  0  0  0  0
    8.6690    1.8510   20.8700 O   0  0  0  0  0  0  0  0  0  0  0  0
    8.9570    1.2590   23.2260 C   0  0  1  0  0  0  0  0  0  0  0  0
    7.5800    1.2060   23.4830 C   0  0  0  0  0  0  0  0  0  0  0  0
    7.1470   -0.0990   23.5210 C   0  0  0  0  0  0  0  0  0  0  0  0
    8.2460   -0.8730   23.1910 C   0  0  1  0  0  0  0  0  0  0  0  0
    8.1320   -1.7750   21.9870 C   0  0  0  0  0  0  0  0  0  0  0  0
    6.7090   -2.1960   21.8070 N   0  0  0  0  0  0  0  0  0  0  0  0
    5.6360   -1.4360   21.3770 C   0  0  0  0  0  0  0  0  0  0  0  0
    5.7440   -0.7270   20.0410 C   0  0  0  0  0  0  0  0  0  0  0  0
    4.7460    0.1510   19.4660 C   0  0  0  0  0  0  0  0  0  0  0  0
    5.1410    0.6070   18.3050 C   0  0  0  0  0  0  0  0  0  0  0  0
    6.2620    0.1850   17.9690 O   0  0  0  0  0  0  0  0  0  0  0  0
    6.7000   -0.6550   19.0110 C   0  0  0  0  0  0  0  0  0  0  0  0
    6.2660   -3.3530   22.6140 C   0  0  0  0  0  0  0  0  0  0  0  0
    7.1810   -4.2670   22.7480 C   0  0  0  0  0  0  0  0  0  0  0  0
    7.0800   -3.8590   23.9730 C   0  0  0  0  0  0  0  0  0  0  0  0
    9.4330   -0.0800   22.9960 C   0  0  0  0  0  0  0  0  0  0  0  0
  1  2  1  0
  2  3  2  0
  4  2  1  6
  4  5  1  0
  5  6  1  0
  6  7  1  0
  7  8  1  6
  8  9  1  0
  9 10  1  0
 10 11  1  0
 11 12  1  0
 12 13  2  0
 13 14  1  0
 11 15  2  0
 14 15  1  0
  9 16  1  0
 16 17  1  0
 16 18  1  0
 17 18  1  0
  4 19  1  0
  7 19  1  0
M  END
