LIZ-THE-8e85e675-2
     RDKit          3D

 18 19  0  0  0  0  0  0  0  0999 V2000
    9.0000   -1.8480   21.7140 C   0  0  0  0  0  0  0  0  0  0  0  0
    7.7450   -1.1430   21.2550 C   0  0  0  0  0  0  0  0  0  0  0  0
    6.9920   -1.8090   20.3130 N   0  0  0  0  0  0  0  0  0  0  0  0
    6.8690   -1.4230   18.9130 C   0  0  0  0  0  0  0  0  0  0  0  0
    6.0640   -0.1630   18.7220 C   0  0  0  0  0  0  0  0  0  0  0  0
    4.9980    0.3310   19.5510 C   0  0  0  0  0  0  0  0  0  0  0  0
    4.5330    1.4930   19.0340 C   0  0  0  0  0  0  0  0  0  0  0  0
    5.2790    1.7490   17.8920 O   0  0  0  0  0  0  0  0  0  0  0  0
    6.2510    0.7510   17.6440 N   0  0  0  0  0  0  0  0  0  0  0  0
    5.9950   -2.6840   20.8250 C   0  0  0  0  0  0  0  0  0  0  0  0
    6.4380   -3.4730   21.9200 C   0  0  2  0  0  0  0  0  0  0  0  0
    5.8500   -4.8810   22.0400 C   0  0  0  0  0  0  0  0  0  0  0  0
    5.6920   -5.1830   23.3620 C   0  0  0  0  0  0  0  0  0  0  0  0
    5.3830   -3.8590   24.0110 C   0  0  2  0  0  0  0  0  0  0  0  0
    3.8870   -3.7870   24.3110 C   0  0  0  0  0  0  0  0  0  0  0  0
    3.4190   -2.7460   25.2010 N   0  0  0  0  0  0  0  0  0  0  0  0
    3.0850   -4.7710   23.6570 O   0  0  0  0  0  0  0  0  0  0  0  0
    5.8820   -2.8120   23.2210 C   0  0  0  0  0  0  0  0  0  0  0  0
  1  2  1  0
  2  3  1  0
  3  4  1  0
  4  5  1  0
  5  6  1  0
  6  7  2  0
  7  8  1  0
  5  9  2  0
  8  9  1  0
  3 10  1  0
 11 10  1  6
 11 12  1  0
 12 13  1  0
 13 14  1  0
 14 15  1  6
 15 16  1  0
 15 17  2  0
 11 18  1  0
 14 18  1  0
M  END
