LIZ-THE-6efed59f-3
     RDKit          3D

 12 12  0  0  0  0  0  0  0  0999 V2000
   12.7010   -0.9720   24.4170 C   0  0  0  0  0  0  0  0  0  0  0  0
   12.7670   -0.2570   23.4040 O   0  0  0  0  0  0  0  0  0  0  0  0
   12.1740    0.9780   23.4520 C   0  0  0  0  0  0  0  0  0  0  0  0
   10.8760    1.1590   23.9690 C   0  0  0  0  0  0  0  0  0  0  0  0
   10.2540    2.4380   24.0310 C   0  0  0  0  0  0  0  0  0  0  0  0
   10.9120    3.5830   23.5770 C   0  0  0  0  0  0  0  0  0  0  0  0
   10.1990    5.1640   23.6640 S   0  0  0  0  0  0  0  0  0  0  0  0
    8.7970    5.0250   22.7500 N   0  0  0  0  0  0  0  0  0  0  0  0
   11.0600    6.1060   22.9870 O   0  0  0  0  0  0  0  0  0  0  0  0
    9.7510    5.4390   25.0130 O   0  0  0  0  0  0  0  0  0  0  0  0
   12.1720    3.4060   23.0610 C   0  0  0  0  0  0  0  0  0  0  0  0
   12.7800    2.1580   23.0020 C   0  0  0  0  0  0  0  0  0  0  0  0
  1  2  1  0
  2  3  1  0
  3  4  2  0
  4  5  1  0
  5  6  2  0
  6  7  1  0
  7  8  1  0
  7  9  2  0
  7 10  2  0
  6 11  1  0
  3 12  1  0
 11 12  2  0
M  END
