LIZ-THE-6efed59f-2
     RDKit          3D

 16 16  0  0  0  0  0  0  0  0999 V2000
   13.5110   -2.7430   24.0230 C   0  0  0  0  0  0  0  0  0  0  0  0
   12.8380   -2.2600   22.7900 C   0  0  0  0  0  0  0  0  0  0  0  0
   11.7110   -0.8180   23.1430 Si  0  0  0  0  0  4  0  0  0  0  0  0
   11.2670   -0.9310   24.9440 C   0  0  0  0  0  0  0  0  0  0  0  0
   10.1340   -1.0740   22.1210 C   0  0  0  0  0  0  0  0  0  0  0  0
   12.4700    0.5910   22.8120 O   0  0  0  0  0  0  0  0  0  0  0  0
   12.0060    1.8220   22.7910 C   0  0  0  0  0  0  0  0  0  0  0  0
   10.6300    1.8830   22.7530 C   0  0  0  0  0  0  0  0  0  0  0  0
    9.9740    3.1710   22.7170 C   0  0  0  0  0  0  0  0  0  0  0  0
   10.6400    4.3390   22.7380 C   0  0  0  0  0  0  0  0  0  0  0  0
    9.7450    5.8360   22.7370 S   0  0  0  0  0  0  0  0  0  0  0  0
    8.3200    5.4750   21.8910 N   0  0  0  0  0  0  0  0  0  0  0  0
   10.5720    6.7890   22.0740 O   0  0  0  0  0  0  0  0  0  0  0  0
    9.2250    6.1970   24.0140 O   0  0  0  0  0  0  0  0  0  0  0  0
   12.0910    4.2080   22.7710 C   0  0  0  0  0  0  0  0  0  0  0  0
   12.7190    3.0280   22.7920 C   0  0  0  0  0  0  0  0  0  0  0  0
  1  2  1  0
  2  3  1  0
  3  4  1  0
  3  5  1  0
  3  6  1  0
  6  7  1  0
  7  8  2  0
  8  9  1  0
  9 10  2  0
 10 11  1  0
 11 12  1  0
 11 13  2  0
 11 14  2  0
 10 15  1  0
  7 16  1  0
 15 16  2  0
M  END
