LON-WEI-b8d98729-3
     RDKit          3D

 21 23  0  0  0  0  0  0  0  0999 V2000
    5.2920   -5.4900   26.2800 O   0  0  0  0  0  0  0  0  0  0  0  0
    5.2410   -5.7960   25.0940 C   0  0  0  0  0  0  0  0  0  0  0  0
    6.2860   -5.2260   24.1620 C   0  0  0  0  0  0  0  0  0  0  0  0
    6.6960   -3.8950   24.1660 C   0  0  0  0  0  0  0  0  0  0  0  0
    7.7840   -3.3680   23.1970 C   0  0  0  0  0  0  0  0  0  0  0  0
    8.8760   -2.6310   23.6780 C   0  0  0  0  0  0  0  0  0  0  0  0
   10.1190   -1.8670   23.7210 C   0  0  0  0  0  0  0  0  0  0  0  0
   10.9310   -1.1430   24.2600 C   0  0  0  0  0  0  0  0  0  0  0  0
   12.2020   -0.5580   23.8490 C   0  0  0  0  0  0  0  0  0  0  0  0
   12.5760   -0.8760   22.6480 C   0  0  0  0  0  0  0  0  0  0  0  0
   11.7480   -1.7520   21.8110 C   0  0  0  0  0  0  0  0  0  0  0  0
   10.5110   -2.2120   22.4220 C   0  0  0  0  0  0  0  0  0  0  0  0
   12.1460   -2.0120   20.7230 O   0  0  0  0  0  0  0  0  0  0  0  0
   13.4700   -1.7340   21.1110 C   0  0  0  0  0  0  0  0  0  0  0  0
   13.6420   -0.5640   21.9420 O   0  0  0  0  0  0  0  0  0  0  0  0
    4.2840   -6.6390   24.5490 N   0  0  0  0  0  0  0  0  0  0  0  0
    3.6470   -6.1730   23.3250 C   0  0  0  0  0  0  0  0  0  0  0  0
    2.2800   -6.4810   23.3040 C   0  0  0  0  0  0  0  0  0  0  0  0
    1.5510   -6.3400   24.4830 C   0  0  0  0  0  0  0  0  0  0  0  0
    2.1820   -6.7180   25.6560 C   0  0  0  0  0  0  0  0  0  0  0  0
    3.3790   -7.4030   25.4070 C   0  0  0  0  0  0  0  0  0  0  0  0
  1  2  2  0
  2  3  1  0
  3  4  2  3
  4  5  1  0
  5  6  2  3
  6  7  1  0
  7  8  2  0
  8  9  1  0
  9 10  2  0
 10 11  1  0
  7 12  1  0
 11 12  2  0
 11 13  1  0
 13 14  1  0
 10 15  1  0
 14 15  1  0
  2 16  1  0
 16 17  1  0
 17 18  1  0
 18 19  1  0
 19 20  1  0
 16 21  1  0
 20 21  1  0
M  END
