LON-WEI-8f408cad-11
     RDKit          3D

 21 23  0  0  0  0  0  0  0  0999 V2000
    3.1950   -3.6190   24.1130 O   0  0  0  0  0  0  0  0  0  0  0  0
    3.5850   -2.6640   24.7870 C   0  0  0  0  0  0  0  0  0  0  0  0
    4.9530   -2.1360   24.6750 C   0  0  0  0  0  0  0  0  0  0  0  0
    5.5710   -1.3500   23.7290 C   0  0  0  0  0  0  0  0  0  0  0  0
    6.9270   -1.1290   24.0880 C   0  0  0  0  0  0  0  0  0  0  0  0
    8.2070   -1.0700   23.3140 C   0  0  0  0  0  0  0  0  0  0  0  0
    9.5400   -0.9440   23.0190 C   0  0  0  0  0  0  0  0  0  0  0  0
   10.2990    0.2740   23.3930 C   0  0  0  0  0  0  0  0  0  0  0  0
   11.6560    0.4010   23.1090 C   0  0  0  0  0  0  0  0  0  0  0  0
   12.4720   -0.6750   22.3920 C   0  0  0  0  0  0  0  0  0  0  0  0
   11.5070   -1.7550   22.1100 C   0  0  0  0  0  0  0  0  0  0  0  0
   10.2090   -1.8810   22.3900 C   0  0  0  0  0  0  0  0  0  0  0  0
   11.9990   -2.6470   21.5300 O   0  0  0  0  0  0  0  0  0  0  0  0
   13.3680   -2.2590   21.5940 C   0  0  0  0  0  0  0  0  0  0  0  0
   13.7000   -0.8800   21.9810 O   0  0  0  0  0  0  0  0  0  0  0  0
    2.7270   -2.0340   25.7040 N   0  0  0  0  0  0  0  0  0  0  0  0
    1.3950   -2.6690   25.9210 C   0  0  0  0  0  0  0  0  0  0  0  0
    0.5800   -1.9450   26.9790 C   0  0  0  0  0  0  0  0  0  0  0  0
    0.7860   -0.5600   27.0080 C   0  0  0  0  0  0  0  0  0  0  0  0
    2.1430   -0.2640   27.0730 C   0  0  0  0  0  0  0  0  0  0  0  0
    2.8570   -0.5930   25.9240 C   0  0  0  0  0  0  0  0  0  0  0  0
  1  2  2  0
  2  3  1  0
  3  4  2  3
  4  5  1  0
  5  6  2  3
  6  7  1  0
  7  8  2  0
  8  9  1  0
  9 10  2  0
 10 11  1  0
  7 12  1  0
 11 12  2  0
 11 13  1  0
 13 14  1  0
 10 15  1  0
 14 15  1  0
  2 16  1  0
 16 17  1  0
 17 18  1  0
 18 19  1  0
 19 20  1  0
 16 21  1  0
 20 21  1  0
M  END
