LON-WEI-8f408cad-6
     RDKit          3D

 23 25  0  0  0  0  0  0  0  0999 V2000
    6.8540    0.0220   22.4540 O   0  0  0  0  0  0  0  0  0  0  0  0
    7.0230   -0.3520   23.6200 C   0  0  0  0  0  0  0  0  0  0  0  0
    5.9760   -0.2150   24.6500 C   0  0  0  0  0  0  0  0  0  0  0  0
    4.8540   -0.9930   24.8020 C   0  0  0  0  0  0  0  0  0  0  0  0
    4.1920   -0.2420   25.8080 C   0  0  0  0  0  0  0  0  0  0  0  0
    3.7060    1.1050   26.1020 C   0  0  0  0  0  0  0  0  0  0  0  0
    3.0940    1.1370   27.4020 N   0  0  0  0  0  0  0  0  0  0  0  0
    3.1710   -0.1310   27.9400 N   0  0  0  0  0  0  0  0  0  0  0  0
    3.8290   -0.9450   26.9800 N   0  0  0  0  0  0  0  0  0  0  0  0
    8.2050   -0.9110   24.0620 N   0  0  0  0  0  0  0  0  0  0  0  0
    9.0610   -1.7190   23.1870 C   0  0  2  0  0  0  0  0  0  0  0  0
    9.0260   -3.1810   23.5640 C   0  0  0  0  0  0  0  0  0  0  0  0
    7.7730   -3.7210   24.0540 N   0  0  0  0  0  0  0  0  0  0  0  0
    6.8870   -3.1730   24.9060 C   0  0  0  0  0  0  0  0  0  0  0  0
    5.6570   -4.0200   25.2220 C   0  0  0  0  0  0  0  0  0  0  0  0
    6.2010   -5.0980   24.2950 C   0  0  0  0  0  0  0  0  0  0  0  0
    7.3630   -4.9310   23.6570 N   0  0  0  0  0  0  0  0  0  0  0  0
   10.3510   -1.1560   23.1060 C   0  0  0  0  0  0  0  0  0  0  0  0
   10.5470    0.3670   23.2450 C   0  0  0  0  0  0  0  0  0  0  0  0
   11.9980    0.8690   23.1310 C   0  0  0  0  0  0  0  0  0  0  0  0
   13.0710   -0.1340   22.9010 C   0  0  0  0  0  0  0  0  0  0  0  0
   12.8070   -1.4860   22.7890 C   0  0  0  0  0  0  0  0  0  0  0  0
   11.5480   -2.0710   22.8720 C   0  0  0  0  0  0  0  0  0  0  0  0
  1  2  2  0
  2  3  1  0
  3  4  1  0
  4  5  1  0
  5  6  2  0
  6  7  1  0
  7  8  1  0
  5  9  1  0
  8  9  2  0
  2 10  1  0
 10 11  1  0
 11 12  1  1
 12 13  1  0
 13 14  1  0
 14 15  2  0
 15 16  1  0
 13 17  1  0
 16 17  2  0
 11 18  1  0
 18 19  2  0
 19 20  1  0
 20 21  2  0
 21 22  1  0
 18 23  1  0
 22 23  2  0
M  END
