LUI-IND-a1be81af-1
     RDKit          3D

 29 32  0  0  0  0  0  0  0  0999 V2000
    4.2870   -5.8260   26.6700 O   0  0  0  0  0  0  0  0  0  0  0  0
    5.4720   -5.4970   25.9460 C   0  0  0  0  0  0  0  0  0  0  0  0
    6.6440   -5.0610   26.7910 C   0  0  0  0  0  0  0  0  0  0  0  0
    7.6330   -4.3650   26.0570 C   0  0  0  0  0  0  0  0  0  0  0  0
    7.1500   -3.7590   24.8850 C   0  0  1  0  0  0  0  0  0  0  0  0
    8.1820   -3.0760   24.2890 C   0  0  0  0  0  0  0  0  0  0  0  0
    9.2850   -3.4640   24.5940 O   0  0  0  0  0  0  0  0  0  0  0  0
    8.0590   -1.9870   23.4090 C   0  0  0  0  0  0  0  0  0  0  0  0
    9.1470   -1.1870   23.8030 C   0  0  2  0  0  0  0  0  0  0  0  0
    9.2380    0.1090   23.0040 C   0  0  0  0  0  0  0  0  0  0  0  0
   10.4650    0.9310   23.3020 C   0  0  0  0  0  0  0  0  0  0  0  0
   11.2200    0.2200   24.2770 N   0  0  0  0  0  0  0  0  0  0  0  0
   10.4170   -0.2070   25.2550 N   0  0  0  0  0  0  0  0  0  0  0  0
   11.1520   -1.3690   25.4040 C   0  0  0  0  0  0  0  0  0  0  0  0
   10.6640   -2.6750   25.6750 C   0  0  0  0  0  0  0  0  0  0  0  0
   11.5500   -3.7780   25.8390 C   0  0  0  0  0  0  0  0  0  0  0  0
   12.9340   -3.5620   25.7380 C   0  0  0  0  0  0  0  0  0  0  0  0
   13.4840   -2.2470   25.4350 C   0  0  0  0  0  0  0  0  0  0  0  0
   12.5550   -1.1110   25.2560 C   0  0  0  0  0  0  0  0  0  0  0  0
   11.5670   -1.1500   23.8640 C   0  0  2  0  0  0  0  0  0  0  0  0
   12.2320   -1.1900   22.8330 C   0  0  0  0  0  0  0  0  0  0  0  0
   12.2410   -2.3110   22.0490 C   0  0  0  0  0  0  0  0  0  0  0  0
   13.0120   -2.3070   20.8420 C   0  0  0  0  0  0  0  0  0  0  0  0
   13.6760   -1.1350   20.5950 C   0  0  0  0  0  0  0  0  0  0  0  0
   13.5610    0.0320   21.5920 C   0  0  0  0  0  0  0  0  0  0  0  0
   12.8590   -0.0510   22.6420 C   0  0  0  0  0  0  0  0  0  0  0  0
   10.3720   -1.9820   23.4750 C   0  0  0  0  0  0  0  0  0  0  0  0
    6.6760   -4.8670   23.9540 C   0  0  0  0  0  0  0  0  0  0  0  0
    5.5900   -5.5570   24.5900 N   0  0  0  0  0  0  0  0  0  0  0  0
  1  2  2  0
  2  3  1  0
  3  4  1  0
  4  5  1  0
  5  6  1  6
  6  7  2  0
  6  8  1  0
  9  8  1  6
  9 10  1  0
 10 11  1  0
 11 12  1  0
 12 13  1  0
 13 14  1  0
 14 15  2  0
 15 16  1  0
 16 17  2  0
 17 18  1  0
 14 19  1  0
 18 19  2  0
 12 20  1  0
 20 21  1  6
 21 22  2  0
 22 23  1  0
 23 24  2  0
 24 25  1  0
 21 26  1  0
 25 26  2  0
  9 27  1  0
 20 27  1  0
  5 28  1  0
  2 29  1  0
 28 29  1  0
M  END
