LUI-IND-2c46affe-3
     RDKit          3D

 26 28  0  0  0  0  0  0  0  0999 V2000
   13.5340   -1.7250   20.8640 C   0  0  0  0  0  0  0  0  0  0  0  0
   13.6670   -1.5990   22.2620 O   0  0  0  0  0  0  0  0  0  0  0  0
   12.6570   -0.8220   22.5970 C   0  0  0  0  0  0  0  0  0  0  0  0
   12.6890    0.5640   22.5620 C   0  0  0  0  0  0  0  0  0  0  0  0
   11.5540    1.2740   22.8770 C   0  0  0  0  0  0  0  0  0  0  0  0
   10.3940    0.5950   23.2420 C   0  0  0  0  0  0  0  0  0  0  0  0
   10.3630   -0.7930   23.3020 C   0  0  0  0  0  0  0  0  0  0  0  0
    9.2020   -1.4720   23.6860 C   0  0  0  0  0  0  0  0  0  0  0  0
    8.7190   -2.4990   22.9020 N   0  0  0  0  0  0  0  0  0  0  0  0
    8.7070   -3.9160   23.2480 C   0  0  0  0  0  0  0  0  0  0  0  0
    9.6660   -4.5220   23.6940 O   0  0  0  0  0  0  0  0  0  0  0  0
    7.4800   -4.4870   22.9970 N   0  0  0  0  0  0  0  0  0  0  0  0
    6.4850   -3.8380   22.1480 C   0  0  0  0  0  0  0  0  0  0  0  0
    5.8210   -4.9450   21.3480 C   0  0  0  0  0  0  0  0  0  0  0  0
    5.1080   -5.7300   22.3350 N   0  0  0  0  0  0  0  0  0  0  0  0
    3.9390   -5.1250   22.9830 C   0  0  0  0  0  0  0  0  0  0  0  0
    3.5790   -4.0250   22.6090 O   0  0  0  0  0  0  0  0  0  0  0  0
    3.2640   -5.8200   23.9930 N   0  0  0  0  0  0  0  0  0  0  0  0
    1.9060   -5.3470   24.2370 C   0  0  0  0  0  0  0  0  0  0  0  0
    1.1170   -6.4150   24.9950 C   0  0  0  0  0  0  0  0  0  0  0  0
    1.0260   -7.6300   24.3120 C   0  0  0  0  0  0  0  0  0  0  0  0
    2.0810   -7.6850   23.3820 C   0  0  0  0  0  0  0  0  0  0  0  0
    3.2910   -7.2720   23.9570 C   0  0  0  0  0  0  0  0  0  0  0  0
    6.0660   -6.3780   23.2210 C   0  0  0  0  0  0  0  0  0  0  0  0
    7.3900   -5.9440   23.0300 C   0  0  0  0  0  0  0  0  0  0  0  0
   11.5110   -1.5030   22.9700 C   0  0  0  0  0  0  0  0  0  0  0  0
  1  2  1  0
  2  3  1  0
  3  4  2  0
  4  5  1  0
  5  6  2  0
  6  7  1  0
  7  8  1  0
  8  9  1  0
  9 10  1  0
 10 11  2  0
 10 12  1  0
 12 13  1  0
 13 14  1  0
 14 15  1  0
 15 16  1  0
 16 17  2  0
 16 18  1  0
 18 19  1  0
 19 20  1  0
 20 21  1  0
 21 22  1  0
 18 23  1  0
 22 23  1  0
 15 24  1  0
 12 25  1  0
 24 25  1  0
  3 26  1  0
  7 26  2  0
M  END
