MAK-UNK-2084232d-13
     RDKit          3D

 23 25  0  0  0  0  0  0  0  0999 V2000
   13.2760   -0.9900   24.7320 N   0  0  0  0  0  0  0  0  0  0  0  0
   12.2840   -1.9770   25.1290 C   0  0  0  0  0  0  0  0  0  0  0  0
   11.5860   -2.4200   23.9750 C   0  0  1  0  0  0  0  0  0  0  0  0
   10.4510   -3.2040   24.1260 O   0  0  0  0  0  0  0  0  0  0  0  0
    9.2630   -3.1990   23.1800 C   0  0  1  0  0  0  0  0  0  0  0  0
    7.8130   -3.6150   23.4220 C   0  0  1  0  0  0  0  0  0  0  0  0
    7.1160   -3.1930   22.2900 C   0  0  0  0  0  0  0  0  0  0  0  0
    6.0120   -4.0630   21.7100 C   0  0  1  0  0  0  0  0  0  0  0  0
    5.7370   -3.5490   20.3970 O   0  0  0  0  0  0  0  0  0  0  0  0
    6.3030   -5.5290   21.9290 C   0  0  0  0  0  0  0  0  0  0  0  0
    6.9740   -5.8390   23.2250 C   0  0  1  0  0  0  0  0  0  0  0  0
    7.9790   -6.8470   23.1580 O   0  0  0  0  0  0  0  0  0  0  0  0
    7.5400   -4.8070   24.0260 C   0  0  1  0  0  0  0  0  0  0  0  0
    8.6990   -5.2870   24.6710 O   0  0  0  0  0  0  0  0  0  0  0  0
    9.2750   -1.7870   23.0760 C   0  0  0  0  0  0  0  0  0  0  0  0
   10.5360   -1.9110   23.4830 C   0  0  0  0  0  0  0  0  0  0  0  0
   11.5220   -1.0660   23.1910 C   0  0  0  0  0  0  0  0  0  0  0  0
   12.8450   -0.8670   23.4150 C   0  0  0  0  0  0  0  0  0  0  0  0
   13.3720   -1.8420   24.2140 C   0  0  0  0  0  0  0  0  0  0  0  0
   12.5710   -2.9800   24.7610 C   0  0  0  0  0  0  0  0  0  0  0  0
   13.2510   -3.8660   25.5710 O   0  0  0  0  0  0  0  0  0  0  0  0
   11.1360   -2.9760   24.3450 C   0  0  0  0  0  0  0  0  0  0  0  0
   10.4210   -4.0470   24.8470 O   0  0  0  0  0  0  0  0  0  0  0  0
  1  2  1  0
  3  2  1  1
  3  4  1  0
  4  5  1  0
  5  6  1  0
  6  7  1  6
  7  8  1  0
  8  9  1  6
  8 10  1  0
 10 11  1  0
 11 12  1  6
  6 13  1  0
 11 13  1  0
 13 14  1  6
  5 15  1  1
 15 16  1  0
  3 17  1  0
 16 17  2  0
 17 18  1  0
 18 19  2  0
 19 20  1  0
 20 21  1  0
 16 22  1  0
 20 22  2  0
 22 23  1  0
M  END
