MAK-UNK-6435e6c2-8
     RDKit          3D

 11 11  0  0  0  0  0  0  0  0999 V2000
    6.5810   -2.5090   20.7380 C   0  0  0  0  0  0  0  0  0  0  0  0
    6.1550   -3.9390   20.5750 C   0  0  0  0  0  0  0  0  0  0  0  0
    5.3580   -4.2660   19.6950 O   0  0  0  0  0  0  0  0  0  0  0  0
    6.7630   -4.7900   21.4800 N   0  0  0  0  0  0  0  0  0  0  0  0
    6.5720   -4.4970   22.8640 C   0  0  0  0  0  0  0  0  0  0  0  0
    6.1210   -4.4500   24.2080 C   0  0  0  0  0  0  0  0  0  0  0  0
    5.1000   -5.1170   24.9350 N   0  0  0  0  0  0  0  0  0  0  0  0
    4.2920   -6.0540   24.3180 C   0  0  0  0  0  0  0  0  0  0  0  0
    4.6340   -6.2020   23.0390 C   0  0  0  0  0  0  0  0  0  0  0  0
    5.6470   -5.5130   22.3980 C   0  0  0  0  0  0  0  0  0  0  0  0
    5.7630   -5.9540   20.9560 C   0  0  0  0  0  0  0  0  0  0  0  0
  1  2  1  0
  2  3  2  0
  2  4  1  0
  4  5  1  0
  5  6  2  0
  6  7  1  0
  7  8  2  0
  8  9  1  0
  5 10  1  0
  9 10  2  0
 10 11  1  0
M  END
