MAK-UNK-ae34c249-7
     RDKit          3D

 29 32  0  0  0  0  0  0  0  0999 V2000
    8.7210    1.2990   21.0610 O   0  0  0  0  0  0  0  0  0  0  0  0
    8.4190    0.2210   21.5830 C   0  0  0  0  0  0  0  0  0  0  0  0
    9.1890   -0.3090   22.7100 N   0  0  0  0  0  0  0  0  0  0  0  0
   10.3530    0.5860   22.7090 C   0  0  0  0  0  0  0  0  0  0  0  0
   10.0710    1.9140   22.7090 C   0  0  0  0  0  0  0  0  0  0  0  0
   11.2090    2.9550   22.6540 C   0  0  0  0  0  0  0  0  0  0  0  0
   12.5780    2.5820   22.6060 C   0  0  0  0  0  0  0  0  0  0  0  0
   13.7800    3.3920   22.5670 C   0  0  0  0  0  0  0  0  0  0  0  0
   14.9290    2.7090   22.3010 N   0  0  0  0  0  0  0  0  0  0  0  0
   16.1250    3.3530   22.4310 N   0  0  0  0  0  0  0  0  0  0  0  0
   16.0940    4.6610   22.8350 C   0  0  0  0  0  0  0  0  0  0  0  0
   17.6680    4.9950   23.0170 C   0  0  0  0  0  0  0  0  0  0  0  0
   18.3880    5.5220   24.0620 N   0  0  0  0  0  0  0  0  0  0  0  0
   19.3110    4.5860   24.4450 C   0  0  0  0  0  0  0  0  0  0  0  0
   20.6680    4.6280   24.1620 C   0  0  0  0  0  0  0  0  0  0  0  0
   21.0310    5.7620   24.9070 C   0  0  0  0  0  0  0  0  0  0  0  0
   20.2380    6.9520   24.6260 C   0  0  0  0  0  0  0  0  0  0  0  0
   20.4380    8.1450   25.2280 F   0  0  0  0  0  0  0  0  0  0  0  0
   19.2280    6.6650   23.6190 C   0  0  0  0  0  0  0  0  0  0  0  0
   14.2860    5.1050   22.8810 S   0  0  0  0  0  0  0  0  0  0  0  0
   12.8100    1.1610   22.6390 C   0  0  0  0  0  0  0  0  0  0  0  0
   11.8160    0.1480   22.6850 C   0  0  0  0  0  0  0  0  0  0  0  0
    7.3590   -0.4850   21.1350 N   0  0  0  0  0  0  0  0  0  0  0  0
    6.5670    0.0650   20.1120 C   0  0  0  0  0  0  0  0  0  0  0  0
    5.4000    0.7550   20.3640 C   0  0  0  0  0  0  0  0  0  0  0  0
    4.6440    1.3130   19.3400 C   0  0  0  0  0  0  0  0  0  0  0  0
    5.1020    1.1510   18.0900 C   0  0  0  0  0  0  0  0  0  0  0  0
    6.2250    0.4830   17.7600 N   0  0  0  0  0  0  0  0  0  0  0  0
    6.9250   -0.0430   18.7870 C   0  0  0  0  0  0  0  0  0  0  0  0
  1  2  2  0
  2  3  1  0
  3  4  1  0
  4  5  2  0
  5  6  1  0
  6  7  2  0
  7  8  1  0
  8  9  2  0
  9 10  1  0
 10 11  2  0
 11 12  1  0
 12 13  1  0
 13 14  1  0
 14 15  1  0
 15 16  1  0
 16 17  2  0
 17 18  1  0
 13 19  1  0
 17 19  1  0
  8 20  1  0
 11 20  1  0
  7 21  1  0
  4 22  1  0
 21 22  2  0
  2 23  1  0
 23 24  1  0
 24 25  2  0
 25 26  1  0
 26 27  2  0
 27 28  1  0
 24 29  1  0
 28 29  2  0
M  END
