MAK-UNK-198e6d85-9
     RDKit          3D

 23 25  0  0  0  0  0  0  0  0999 V2000
   13.9230   -2.7550   23.9420 N   0  0  0  0  0  0  0  0  0  0  0  0
   12.7930   -2.6110   24.8810 C   0  0  0  0  0  0  0  0  0  0  0  0
   11.6420   -2.3620   24.2460 C   0  0  1  0  0  0  0  0  0  0  0  0
   10.4410   -3.3620   24.3710 O   0  0  0  0  0  0  0  0  0  0  0  0
    9.3520   -3.1760   23.3500 C   0  0  1  0  0  0  0  0  0  0  0  0
    8.0660   -4.0670   23.1480 C   0  0  2  0  0  0  0  0  0  0  0  0
    7.1520   -3.4610   22.3420 C   0  0  0  0  0  0  0  0  0  0  0  0
    6.3250   -4.3080   21.6100 C   0  0  2  0  0  0  0  0  0  0  0  0
    5.8390   -3.7940   20.6040 O   0  0  0  0  0  0  0  0  0  0  0  0
    5.5350   -5.0950   22.4380 C   0  0  0  0  0  0  0  0  0  0  0  0
    6.3460   -5.8380   23.5040 C   0  0  1  0  0  0  0  0  0  0  0  0
    6.9700   -6.9520   22.8760 O   0  0  0  0  0  0  0  0  0  0  0  0
    7.3860   -4.9550   24.2040 C   0  0  1  0  0  0  0  0  0  0  0  0
    8.3450   -5.8230   24.7970 O   0  0  0  0  0  0  0  0  0  0  0  0
    9.1720   -1.7660   23.6060 C   0  0  0  0  0  0  0  0  0  0  0  0
   10.4710   -1.8180   23.9190 C   0  0  0  0  0  0  0  0  0  0  0  0
   11.3600   -0.9150   23.7630 C   0  0  0  0  0  0  0  0  0  0  0  0
   12.6780   -0.6240   23.9320 C   0  0  0  0  0  0  0  0  0  0  0  0
   13.3320   -1.6600   24.5090 C   0  0  0  0  0  0  0  0  0  0  0  0
   12.5500   -2.8560   24.8450 C   0  0  0  0  0  0  0  0  0  0  0  0
   13.3160   -3.8010   25.4610 O   0  0  0  0  0  0  0  0  0  0  0  0
   11.1470   -2.9520   24.5410 C   0  0  0  0  0  0  0  0  0  0  0  0
   10.5640   -4.1540   24.8970 O   0  0  0  0  0  0  0  0  0  0  0  0
  1  2  1  0
  3  2  1  1
  3  4  1  0
  4  5  1  0
  5  6  1  0
  6  7  1  1
  7  8  1  0
  8  9  1  6
  8 10  1  0
 10 11  1  0
 11 12  1  6
  6 13  1  0
 11 13  1  0
 13 14  1  6
  5 15  1  1
 15 16  1  0
  3 17  1  0
 16 17  2  0
 17 18  1  0
 18 19  2  0
 19 20  1  0
 20 21  1  0
 16 22  1  0
 20 22  2  0
 22 23  1  0
M  END
