MAK-UNK-de9577cf-15
     RDKit          3D

 37 40  0  0  0  0  0  0  0  0999 V2000
   14.3370   -1.2940   20.0190 C   0  0  0  0  0  0  0  0  0  0  0  0
   13.9530   -0.9910   21.3080 N   0  0  0  0  0  0  0  0  0  0  0  0
   13.3090   -2.0570   21.4800 C   0  0  0  0  0  0  0  0  0  0  0  0
   12.9150   -2.3900   22.7440 C   0  0  0  0  0  0  0  0  0  0  0  0
   13.7030   -3.1610   23.6890 C   0  0  0  0  0  0  0  0  0  0  0  0
   13.0920   -3.4920   24.8470 C   0  0  0  0  0  0  0  0  0  0  0  0
   13.8400   -4.3580   25.9410 C   0  0  0  0  0  0  0  0  0  0  0  0
   14.4590   -5.5570   26.1220 C   0  0  0  0  0  0  0  0  0  0  0  0
   15.2280   -6.3520   27.2120 C   0  0  0  0  0  0  0  0  0  0  0  0
   15.2530   -5.8230   28.2130 C   0  0  0  0  0  0  0  0  0  0  0  0
   14.6170   -4.6980   27.9830 C   0  0  0  0  0  0  0  0  0  0  0  0
   13.9710   -3.9990   26.8290 C   0  0  0  0  0  0  0  0  0  0  0  0
   13.4170   -2.8290   26.5270 F   0  0  0  0  0  0  0  0  0  0  0  0
   11.6860   -2.8100   24.5260 N   0  0  0  0  0  0  0  0  0  0  0  0
   10.2120   -2.7490   25.3780 S   0  0  0  0  0  0  0  0  0  0  0  0
    9.6800   -4.0870   25.4360 O   0  0  0  0  0  0  0  0  0  0  0  0
    9.5770   -1.5890   24.8040 O   0  0  0  0  0  0  0  0  0  0  0  0
   11.8160   -2.7430   25.6130 C   0  0  0  0  0  0  0  0  0  0  0  0
   12.4660   -3.8520   26.0700 C   0  0  0  0  0  0  0  0  0  0  0  0
   13.8130   -3.7770   26.2440 C   0  0  0  0  0  0  0  0  0  0  0  0
   14.4170   -2.4680   25.9000 C   0  0  0  0  0  0  0  0  0  0  0  0
   13.7440   -1.3950   25.4280 N   0  0  0  0  0  0  0  0  0  0  0  0
   12.4620   -1.5430   25.2830 C   0  0  0  0  0  0  0  0  0  0  0  0
   11.7990   -2.1010   23.2880 C   0  0  0  0  0  0  0  0  0  0  0  0
   10.9580   -1.2660   22.7210 O   0  0  0  0  0  0  0  0  0  0  0  0
   11.8770   -0.1850   22.7290 C   0  0  0  0  0  0  0  0  0  0  0  0
   13.2310   -0.3170   22.8220 O   0  0  0  0  0  0  0  0  0  0  0  0
   11.4070    1.1220   22.6760 C   0  0  0  0  0  0  0  0  0  0  0  0
   10.0550    1.3730   22.6050 C   0  0  0  0  0  0  0  0  0  0  0  0
    9.5600    2.7040   22.5650 C   0  0  0  0  0  0  0  0  0  0  0  0
   10.4140    3.8260   22.5990 C   0  0  0  0  0  0  0  0  0  0  0  0
    9.6930    5.4890   22.6360 S   0  0  0  0  0  0  0  0  0  0  0  0
    8.3970    5.4400   21.6070 N   0  0  0  0  0  0  0  0  0  0  0  0
   10.6910    6.4460   22.2180 O   0  0  0  0  0  0  0  0  0  0  0  0
    9.0610    5.6650   23.9320 O   0  0  0  0  0  0  0  0  0  0  0  0
   11.8210    3.6550   22.6470 C   0  0  0  0  0  0  0  0  0  0  0  0
   12.3190    2.2100   22.6910 C   0  0  0  0  0  0  0  0  0  0  0  0
  1  2  1  0
  2  3  1  0
  3  4  1  0
  4  5  1  0
  5  6  2  0
  6  7  1  0
  7  8  2  0
  8  9  1  0
  9 10  2  0
 10 11  1  0
  7 12  1  0
 11 12  2  0
 12 13  1  0
  6 14  1  0
 14 15  1  0
 15 16  2  0
 15 17  2  0
 15 18  1  0
 18 19  2  0
 19 20  1  0
 20 21  2  0
 21 22  1  0
 18 23  1  0
 22 23  2  0
  4 24  2  0
 14 24  1  0
 24 25  1  0
 25 26  1  0
 26 27  2  0
 26 28  1  0
 28 29  2  0
 29 30  1  0
 30 31  2  0
 31 32  1  0
 32 33  1  0
 32 34  2  0
 32 35  2  0
 31 36  1  0
 28 37  1  0
 36 37  2  0
M  END
