MAK-UNK-ae34c249-6
     RDKit          3D

 29 32  0  0  0  0  0  0  0  0999 V2000
    8.6520   -0.8150   20.8870 O   0  0  0  0  0  0  0  0  0  0  0  0
    7.6490   -0.3040   21.3250 C   0  0  0  0  0  0  0  0  0  0  0  0
    6.3900   -0.7740   21.0930 N   0  0  0  0  0  0  0  0  0  0  0  0
    5.9630   -0.0140   19.9440 C   0  0  0  0  0  0  0  0  0  0  0  0
    4.8150    0.7540   20.0690 C   0  0  0  0  0  0  0  0  0  0  0  0
    4.3870    1.5100   18.9850 C   0  0  0  0  0  0  0  0  0  0  0  0
    5.1140    1.4900   17.7920 C   0  0  0  0  0  0  0  0  0  0  0  0
    6.3140    0.6790   17.6660 N   0  0  0  0  0  0  0  0  0  0  0  0
    6.7140   -0.0660   18.7700 C   0  0  0  0  0  0  0  0  0  0  0  0
    7.7440    0.8490   22.0950 N   0  0  0  0  0  0  0  0  0  0  0  0
    9.0280    0.9570   22.4170 C   0  0  0  0  0  0  0  0  0  0  0  0
    9.8810    2.1770   22.2920 C   0  0  0  0  0  0  0  0  0  0  0  0
   11.3090    2.0800   22.6660 C   0  0  0  0  0  0  0  0  0  0  0  0
   11.7200    0.8960   23.0990 C   0  0  0  0  0  0  0  0  0  0  0  0
   10.8360   -0.1890   23.2160 C   0  0  0  0  0  0  0  0  0  0  0  0
   11.1970   -1.3350   23.7150 C   0  0  0  0  0  0  0  0  0  0  0  0
   10.5030   -2.5280   23.7750 N   0  0  0  0  0  0  0  0  0  0  0  0
   11.2670   -3.4380   24.4440 N   0  0  0  0  0  0  0  0  0  0  0  0
   12.4770   -2.8400   24.8290 C   0  0  0  0  0  0  0  0  0  0  0  0
   13.5800   -3.1390   25.4290 C   0  0  0  0  0  0  0  0  0  0  0  0
   14.0190   -2.3080   24.4210 N   0  0  0  0  0  0  0  0  0  0  0  0
   13.6800   -2.9600   23.2730 C   0  0  0  0  0  0  0  0  0  0  0  0
   13.1840   -2.5130   22.0450 C   0  0  0  0  0  0  0  0  0  0  0  0
   13.3600   -1.1880   21.9060 C   0  0  0  0  0  0  0  0  0  0  0  0
   13.3570   -0.4410   23.1780 C   0  0  0  0  0  0  0  0  0  0  0  0
   13.4940    0.8860   23.1300 F   0  0  0  0  0  0  0  0  0  0  0  0
   13.2110   -1.1740   24.4000 C   0  0  0  0  0  0  0  0  0  0  0  0
   12.7000   -1.3100   24.4230 S   0  0  0  0  0  0  0  0  0  0  0  0
    9.5730   -0.1530   22.8810 C   0  0  0  0  0  0  0  0  0  0  0  0
  1  2  2  0
  2  3  1  0
  3  4  1  0
  4  5  2  0
  5  6  1  0
  6  7  2  0
  7  8  1  0
  4  9  1  0
  8  9  2  0
  2 10  1  0
 10 11  1  0
 11 12  2  0
 12 13  1  0
 13 14  2  0
 14 15  1  0
 15 16  1  0
 16 17  2  0
 17 18  1  0
 18 19  2  0
 19 20  1  0
 20 21  1  0
 21 22  1  0
 22 23  1  0
 23 24  1  0
 24 25  2  0
 25 26  1  0
 21 27  1  0
 25 27  1  0
 16 28  1  0
 19 28  1  0
 11 29  1  0
 15 29  2  0
M  END
