MAK-UNK-1bb0b7ee-15
     RDKit          3D

 32 36  0  0  0  0  0  0  0  0999 V2000
    5.9150   -6.5730   21.9340 C   0  0  0  0  0  0  0  0  0  0  0  0
    5.0090   -5.5570   22.5920 C   0  0  1  0  0  0  0  0  0  0  0  0
    4.7980   -5.7490   23.9560 C   0  0  2  0  0  0  0  0  0  0  0  0
    4.0860   -4.5040   23.7260 O   0  0  0  0  0  0  0  0  0  0  0  0
    2.8570   -4.4570   24.3490 C   0  0  0  0  0  0  0  0  0  0  0  0
    2.0230   -5.5510   24.1570 C   0  0  0  0  0  0  0  0  0  0  0  0
    0.7640   -5.6000   24.7400 C   0  0  0  0  0  0  0  0  0  0  0  0
    0.3300   -4.5350   25.5320 C   0  0  0  0  0  0  0  0  0  0  0  0
    1.1650   -3.4310   25.7290 C   0  0  0  0  0  0  0  0  0  0  0  0
    2.4370   -3.3690   25.1470 C   0  0  0  0  0  0  0  0  0  0  0  0
    3.2360   -2.2410   25.3720 C   0  0  0  0  0  0  0  0  0  0  0  0
    2.4920   -1.1790   26.0370 N   0  0  0  0  0  0  0  0  0  0  0  0
    2.7830    0.1350   25.8880 C   0  0  0  0  0  0  0  0  0  0  0  0
    1.9720    1.0710   25.4410 N   0  0  0  0  0  0  0  0  0  0  0  0
    2.7130    2.2290   25.4690 C   0  0  0  0  0  0  0  0  0  0  0  0
    2.3390    3.6600   25.0730 C   0  0  0  0  0  0  0  0  0  0  0  0
    3.3440    4.7950   25.1960 C   0  0  0  0  0  0  0  0  0  0  0  0
    4.7040    4.3830   25.7290 C   0  0  0  0  0  0  0  0  0  0  0  0
    5.0540    3.0700   26.0920 C   0  0  0  0  0  0  0  0  0  0  0  0
    4.0000    1.9990   25.9420 C   0  0  0  0  0  0  0  0  0  0  0  0
    4.0140    0.6560   26.2010 N   0  0  0  0  0  0  0  0  0  0  0  0
    5.4480   -4.9830   25.1370 C   0  0  0  0  0  0  0  0  0  0  0  0
    6.2010   -3.7600   24.6120 C   0  0  0  0  0  0  0  0  0  0  0  0
    6.6550   -3.9870   23.1730 C   0  0  0  0  0  0  0  0  0  0  0  0
    5.5090   -4.2240   22.2900 N   0  0  0  0  0  0  0  0  0  0  0  0
    5.9000   -4.0290   20.9130 C   0  0  0  0  0  0  0  0  0  0  0  0
    5.6520   -2.6040   20.4380 C   0  0  0  0  0  0  0  0  0  0  0  0
    5.4490   -1.5820   21.3790 C   0  0  0  0  0  0  0  0  0  0  0  0
    5.2230   -0.2680   20.9670 C   0  0  0  0  0  0  0  0  0  0  0  0
    5.1960    0.0450   19.6100 C   0  0  0  0  0  0  0  0  0  0  0  0
    5.3940   -0.9560   18.6660 C   0  0  0  0  0  0  0  0  0  0  0  0
    5.6190   -2.2700   19.0760 C   0  0  0  0  0  0  0  0  0  0  0  0
  2  1  1  1
  2  3  1  0
  3  4  1  6
  4  5  1  0
  5  6  2  0
  6  7  1  0
  7  8  2  0
  8  9  1  0
  5 10  1  0
  9 10  2  0
 10 11  1  0
 11 12  1  0
 12 13  1  0
 13 14  2  0
 14 15  1  0
 15 16  2  0
 16 17  1  0
 17 18  2  0
 18 19  1  0
 15 20  1  0
 19 20  2  0
 13 21  1  0
 20 21  1  0
  3 22  1  0
 22 23  1  0
 23 24  1  0
  2 25  1  0
 24 25  1  0
 25 26  1  0
 26 27  1  0
 27 28  2  0
 28 29  1  0
 29 30  2  0
 30 31  1  0
 27 32  1  0
 31 32  2  0
M  END
