MAK-UNK-9e4a73aa-11
     RDKit          3D

 26 29  0  0  0  0  0  0  0  0999 V2000
    9.0140   -5.6840   24.0550 O   0  0  0  0  0  0  0  0  0  0  0  0
    8.6700   -4.6890   23.4880 C   0  0  0  0  0  0  0  0  0  0  0  0
    9.5380   -3.6100   23.2070 C   0  0  0  0  0  0  0  0  0  0  0  0
   10.6670   -3.3170   23.9950 C   0  0  0  0  0  0  0  0  0  0  0  0
   11.5270   -2.1800   23.7040 C   0  0  0  0  0  0  0  0  0  0  0  0
   12.5870   -1.9310   24.4860 F   0  0  0  0  0  0  0  0  0  0  0  0
   11.1960   -1.3230   22.5450 C   0  0  0  0  0  0  0  0  0  0  0  0
   11.9620   -0.2680   22.2740 F   0  0  0  0  0  0  0  0  0  0  0  0
   10.0590   -1.6950   21.7840 C   0  0  0  0  0  0  0  0  0  0  0  0
    9.2330   -2.8210   22.0850 C   0  0  0  0  0  0  0  0  0  0  0  0
    8.0620   -3.2660   21.3230 N   0  0  0  0  0  0  0  0  0  0  0  0
    7.2790   -2.4160   20.4730 C   0  0  0  0  0  0  0  0  0  0  0  0
    7.6410   -1.1350   20.0830 C   0  0  0  0  0  0  0  0  0  0  0  0
    6.7070   -0.3430   19.1430 C   0  0  0  0  0  0  0  0  0  0  0  0
    5.5440   -0.9590   18.7360 C   0  0  0  0  0  0  0  0  0  0  0  0
    5.2540   -2.2560   19.1800 C   0  0  0  0  0  0  0  0  0  0  0  0
    6.0830   -2.9540   20.0140 C   0  0  0  0  0  0  0  0  0  0  0  0
    7.4210   -4.4730   21.6770 C   0  0  0  0  0  0  0  0  0  0  0  0
    6.8560   -5.4080   20.8720 O   0  0  0  0  0  0  0  0  0  0  0  0
    7.4030   -4.5550   23.0110 N   0  0  0  0  0  0  0  0  0  0  0  0
    6.6250   -3.3970   23.2640 C   0  0  0  0  0  0  0  0  0  0  0  0
    7.7400   -3.0220   22.4450 C   0  0  0  0  0  0  0  0  0  0  0  0
    8.1530   -1.7990   21.8890 C   0  0  0  0  0  0  0  0  0  0  0  0
    7.3990   -0.6970   22.1100 C   0  0  0  0  0  0  0  0  0  0  0  0
    6.3430   -0.8500   22.8370 N   0  0  0  0  0  0  0  0  0  0  0  0
    6.0600   -2.0900   23.3330 C   0  0  0  0  0  0  0  0  0  0  0  0
  1  2  2  0
  2  3  1  0
  3  4  2  0
  4  5  1  0
  5  6  1  0
  5  7  2  0
  7  8  1  0
  7  9  1  0
  3 10  1  0
  9 10  2  0
 10 11  1  0
 11 12  1  0
 12 13  2  0
 13 14  1  0
 14 15  2  0
 15 16  1  0
 12 17  1  0
 16 17  2  0
 11 18  1  0
 18 19  2  0
  2 20  1  0
 18 20  1  0
 20 21  1  0
 21 22  2  0
 22 23  1  0
 23 24  2  0
 24 25  1  0
 21 26  1  0
 25 26  2  0
M  END
