MAK-UNK-01147c51-15
     RDKit          3D

 22 24  0  0  0  0  0  0  0  0999 V2000
    5.6370   -3.6500   20.3710 C   0  0  0  0  0  0  0  0  0  0  0  0
    6.4110   -4.2300   21.5550 C   0  0  1  0  0  0  0  0  0  0  0  0
    7.1430   -3.2660   22.2360 C   0  0  0  0  0  0  0  0  0  0  0  0
    8.0400   -3.7760   23.1390 C   0  0  1  0  0  0  0  0  0  0  0  0
    8.9700   -2.8950   23.7150 C   0  0  2  0  0  0  0  0  0  0  0  0
    9.1670   -1.8240   23.0220 C   0  0  0  0  0  0  0  0  0  0  0  0
   10.4480   -1.8340   23.3670 C   0  0  0  0  0  0  0  0  0  0  0  0
   11.3180   -0.9580   23.1560 C   0  0  0  0  0  0  0  0  0  0  0  0
   12.6410   -0.6430   23.3640 C   0  0  0  0  0  0  0  0  0  0  0  0
   13.2900   -1.6080   24.0690 C   0  0  0  0  0  0  0  0  0  0  0  0
   12.6350   -2.7200   24.4890 C   0  0  0  0  0  0  0  0  0  0  0  0
   13.3720   -3.6080   25.2130 O   0  0  0  0  0  0  0  0  0  0  0  0
   11.1330   -2.8630   24.1190 C   0  0  0  0  0  0  0  0  0  0  0  0
   10.6100   -4.0720   24.6290 O   0  0  0  0  0  0  0  0  0  0  0  0
   11.5620   -2.2190   23.7730 C   0  0  1  0  0  0  0  0  0  0  0  0
   11.9640   -2.0840   25.1540 C   0  0  0  0  0  0  0  0  0  0  0  0
   13.3740   -1.7150   25.3530 N   0  0  0  0  0  0  0  0  0  0  0  0
   10.4050   -3.1850   23.8940 O   0  0  0  0  0  0  0  0  0  0  0  0
    7.4820   -4.7760   23.9640 C   0  0  0  0  0  0  0  0  0  0  0  0
    6.6280   -5.7120   23.3290 C   0  0  0  0  0  0  0  0  0  0  0  0
    5.7200   -5.0060   22.4370 N   0  0  0  0  0  0  0  0  0  0  0  0
    4.6010   -4.3690   22.9160 C   0  0  0  0  0  0  0  0  0  0  0  0
  2  1  1  6
  2  3  1  0
  4  3  1  1
  4  5  1  0
  5  6  1  6
  6  7  1  0
  7  8  2  0
  8  9  1  0
  9 10  2  0
 10 11  1  0
 11 12  1  0
  7 13  1  0
 11 13  2  0
 13 14  1  0
  8 15  1  0
 15 16  1  1
 16 17  1  0
  5 18  1  0
 15 18  1  0
  4 19  1  0
 19 20  1  0
  2 21  1  0
 20 21  1  0
 21 22  1  0
M  END
