MAK-UNK-0cb6a3ad-7
     RDKit          3D

 11 11  0  0  0  0  0  0  0  0999 V2000
    9.0350   -0.3590   25.2340 C   0  0  0  0  0  0  0  0  0  0  0  0
    9.8780   -0.6960   24.0020 C   0  0  1  0  0  0  0  0  0  0  0  0
   11.1650   -0.1540   23.9330 C   0  0  0  0  0  0  0  0  0  0  0  0
   12.0540   -0.6770   24.8210 C   0  0  0  0  0  0  0  0  0  0  0  0
   12.3180   -1.9180   24.3820 C   0  0  1  0  0  0  0  0  0  0  0  0
   13.3440   -2.8120   24.7140 C   0  0  0  0  0  0  0  0  0  0  0  0
   13.9080   -2.8650   23.3510 C   0  0  0  0  0  0  0  0  0  0  0  0
   14.2080   -2.5590   25.9220 C   0  0  0  0  0  0  0  0  0  0  0  0
   11.1390   -2.7980   24.3430 C   0  0  0  0  0  0  0  0  0  0  0  0
   11.2060   -3.9490   24.7020 O   0  0  0  0  0  0  0  0  0  0  0  0
    9.8680   -2.2150   23.8030 C   0  0  0  0  0  0  0  0  0  0  0  0
  2  1  1  1
  2  3  1  0
  3  4  1  0
  4  5  1  0
  5  6  1  1
  6  7  1  0
  6  8  1  0
  5  9  1  0
  9 10  2  0
  2 11  1  0
  9 11  1  0
M  END
