MAK-UNK-f2409524-15
     RDKit          3D

 24 25  0  0  0  0  0  0  0  0999 V2000
    8.8450   -2.4850   22.7490 C   0  0  0  0  0  0  0  0  0  0  0  0
    8.5390   -1.0310   22.6320 C   0  0  0  0  0  0  0  0  0  0  0  0
    9.4230   -0.2260   22.9270 O   0  0  0  0  0  0  0  0  0  0  0  0
    7.3570   -0.5970   22.2210 N   0  0  0  0  0  0  0  0  0  0  0  0
    6.9250   -0.7780   20.8410 C   0  0  0  0  0  0  0  0  0  0  0  0
    7.8210   -1.6120   20.0310 C   0  0  0  0  0  0  0  0  0  0  0  0
    7.4950   -1.8620   18.6320 N   0  0  0  0  0  0  0  0  0  0  0  0
    6.2570   -1.2480   18.1430 C   0  0  0  0  0  0  0  0  0  0  0  0
    5.4330   -0.4380   19.0170 C   0  0  0  0  0  0  0  0  0  0  0  0
    5.7600   -0.2310   20.2600 C   0  0  0  0  0  0  0  0  0  0  0  0
    4.8300    0.6110   20.9740 C   0  0  0  0  0  0  0  0  0  0  0  0
    5.3440    2.0120   21.0540 C   0  0  0  0  0  0  0  0  0  0  0  0
    6.0030    2.1790   22.4020 C   0  0  0  0  0  0  0  0  0  0  0  0
    4.8970    2.0930   23.4040 C   0  0  0  0  0  0  0  0  0  0  0  0
    3.8400    2.7680   22.9420 N   0  0  0  0  0  0  0  0  0  0  0  0
    2.6040    2.6410   23.5180 C   0  0  0  0  0  0  0  0  0  0  0  0
    2.3370    1.8870   24.4420 O   0  0  0  0  0  0  0  0  0  0  0  0
    1.7370    3.5000   22.8720 N   0  0  0  0  0  0  0  0  0  0  0  0
    0.4180    3.9270   23.3360 C   0  0  0  0  0  0  0  0  0  0  0  0
    0.4820    4.5080   24.6000 C   0  0  0  0  0  0  0  0  0  0  0  0
   -0.7690    4.9180   25.0980 C   0  0  0  0  0  0  0  0  0  0  0  0
   -1.9380    4.6750   24.3570 C   0  0  0  0  0  0  0  0  0  0  0  0
   -1.9630    3.2450   23.8040 C   0  0  0  0  0  0  0  0  0  0  0  0
   -0.5690    2.7580   23.3770 C   0  0  0  0  0  0  0  0  0  0  0  0
  1  2  1  0
  2  3  2  0
  2  4  1  0
  4  5  1  0
  5  6  2  0
  6  7  1  0
  7  8  2  0
  8  9  1  0
  5 10  1  0
  9 10  2  0
 10 11  1  0
 11 12  1  0
 12 13  1  0
 13 14  1  0
 14 15  1  0
 15 16  1  0
 16 17  2  0
 16 18  1  0
 18 19  1  0
 19 20  1  0
 20 21  1  0
 21 22  1  0
 22 23  1  0
 19 24  1  0
 23 24  1  0
M  END
