MAK-UNK-194150d3-16
     RDKit          3D

 20 21  0  0  0  0  0  0  0  0999 V2000
    4.1190    0.0820   22.2510 O   0  0  0  0  0  0  0  0  0  0  0  0
    4.1250    0.2460   20.8190 S   0  0  0  0  0  0  0  0  0  0  0  0
    5.6230    1.0690   20.3630 C   0  0  0  0  0  0  0  0  0  0  0  0
    6.9110    0.2960   20.2560 C   0  0  0  0  0  0  0  0  0  0  0  0
    7.3530   -0.1520   21.4710 N   0  0  0  0  0  0  0  0  0  0  0  0
    8.6820   -0.2410   21.7040 C   0  0  0  0  0  0  0  0  0  0  0  0
    9.1980   -0.6380   23.0610 C   0  0  0  0  0  0  0  0  0  0  0  0
   10.5160   -1.0700   23.1800 C   0  0  0  0  0  0  0  0  0  0  0  0
   11.3570   -1.3440   21.9600 C   0  0  0  0  0  0  0  0  0  0  0  0
   12.7810   -1.7970   22.0990 C   0  0  0  0  0  0  0  0  0  0  0  0
   13.2640   -1.9490   23.4830 C   0  0  0  0  0  0  0  0  0  0  0  0
   12.5010   -1.7100   24.6070 C   0  0  0  0  0  0  0  0  0  0  0  0
   11.1630   -1.2900   24.4960 C   0  0  0  0  0  0  0  0  0  0  0  0
    2.8770    1.4880   20.4330 C   0  0  0  0  0  0  0  0  0  0  0  0
    1.7310    1.6660   21.3810 C   0  0  0  0  0  0  0  0  0  0  0  0
    0.7360    2.5990   21.1420 C   0  0  0  0  0  0  0  0  0  0  0  0
    0.7800    3.3980   20.0110 C   0  0  0  0  0  0  0  0  0  0  0  0
    1.9010    3.2850   19.0020 C   0  0  0  0  0  0  0  0  0  0  0  0
    2.8910    2.3160   19.2890 C   0  0  0  0  0  0  0  0  0  0  0  0
    3.8550    2.0680   18.6050 O   0  0  0  0  0  0  0  0  0  0  0  0
  2  1  1  1
  2  3  1  0
  3  4  1  0
  4  5  1  0
  5  6  1  0
  6  7  1  0
  7  8  1  0
  8  9  2  0
  9 10  1  0
 10 11  2  0
 11 12  1  0
  8 13  1  0
 12 13  2  0
  2 14  1  0
 14 15  2  0
 15 16  1  0
 16 17  2  0
 17 18  1  0
 14 19  1  0
 18 19  2  0
 19 20  1  0
M  CHG  2   1  -1   2   1
M  END
