MAK-UNK-6435e6c2-1
     RDKit          3D

 17 18  0  0  0  0  0  0  0  0999 V2000
    6.3440   -2.7870   20.9360 C   0  0  0  0  0  0  0  0  0  0  0  0
    5.9810   -4.2380   20.7780 C   0  0  0  0  0  0  0  0  0  0  0  0
    5.3170   -4.6180   19.8180 O   0  0  0  0  0  0  0  0  0  0  0  0
    6.4520   -5.0660   21.7700 N   0  0  0  0  0  0  0  0  0  0  0  0
    7.1640   -4.5180   22.9190 C   0  0  0  0  0  0  0  0  0  0  0  0
    6.2500   -4.1870   23.9130 C   0  0  0  0  0  0  0  0  0  0  0  0
    5.3910   -5.2450   24.3410 N   0  0  0  0  0  0  0  0  0  0  0  0
    4.6260   -5.1870   25.8590 S   0  0  0  0  0  0  0  0  0  0  0  0
    3.8460   -6.3890   26.0160 O   0  0  0  0  0  0  0  0  0  0  0  0
    5.6400   -4.7990   26.8130 O   0  0  0  0  0  0  0  0  0  0  0  0
    3.4540   -3.8680   25.7810 C   0  0  0  0  0  0  0  0  0  0  0  0
    2.1120   -3.9800   25.4720 C   0  0  0  0  0  0  0  0  0  0  0  0
    1.4180   -2.8010   25.5050 C   0  0  0  0  0  0  0  0  0  0  0  0
    2.2240   -1.5730   25.8670 C   0  0  0  0  0  0  0  0  0  0  0  0
    3.8730   -1.9820   26.1520 S   0  0  0  0  0  0  0  0  0  0  0  0
    4.6910   -5.8180   23.2850 C   0  0  0  0  0  0  0  0  0  0  0  0
    5.5160   -5.9790   22.1690 C   0  0  0  0  0  0  0  0  0  0  0  0
  1  2  1  0
  2  3  2  0
  2  4  1  0
  4  5  1  0
  5  6  1  0
  6  7  1  0
  7  8  1  0
  8  9  2  0
  8 10  2  0
  8 11  1  0
 11 12  2  0
 12 13  1  0
 13 14  2  0
 11 15  1  0
 14 15  1  0
  7 16  1  0
  4 17  1  0
 16 17  1  0
M  END
