MAK-UNK-a7992eb3-23
     RDKit          3D

 21 23  0  0  0  0  0  0  0  0999 V2000
    8.6300   -0.4060   21.4870 C   0  0  0  0  0  0  0  0  0  0  0  0
    8.9770   -1.6800   22.2390 C   0  0  0  0  0  0  0  0  0  0  0  0
    8.1570   -2.8050   22.1230 C   0  0  0  0  0  0  0  0  0  0  0  0
    6.9970   -2.7890   21.3130 C   0  0  0  0  0  0  0  0  0  0  0  0
    6.1790   -3.9190   21.2030 C   0  0  0  0  0  0  0  0  0  0  0  0
    6.6960   -5.1000   21.9230 N   0  0  0  0  0  0  0  0  0  0  0  0
    7.2930   -4.8390   23.2410 C   0  0  0  0  0  0  0  0  0  0  0  0
    6.3220   -4.4200   24.1390 C   0  0  0  0  0  0  0  0  0  0  0  0
    5.6270   -5.3690   24.4940 O   0  0  0  0  0  0  0  0  0  0  0  0
    4.8430   -5.9750   23.4340 C   0  0  1  0  0  0  0  0  0  0  0  0
    3.6490   -5.2570   23.3500 C   0  0  0  0  0  0  0  0  0  0  0  0
    3.7690   -4.0460   22.6020 O   0  0  0  0  0  0  0  0  0  0  0  0
    3.9680   -2.9210   23.3970 C   0  0  0  0  0  0  0  0  0  0  0  0
    4.7560   -1.9250   22.8450 C   0  0  0  0  0  0  0  0  0  0  0  0
    5.0490   -0.6560   23.6010 C   0  0  0  0  0  0  0  0  0  0  0  0
    4.4140   -0.5810   24.9850 C   0  0  0  0  0  0  0  0  0  0  0  0
    3.5790   -1.7770   25.4160 C   0  0  0  0  0  0  0  0  0  0  0  0
    3.3920   -2.8710   24.6310 N   0  0  0  0  0  0  0  0  0  0  0  0
    5.6050   -6.0840   22.0860 C   0  0  0  0  0  0  0  0  0  0  0  0
    6.6540   -1.6140   20.5990 C   0  0  0  0  0  0  0  0  0  0  0  0
    7.5000   -0.3760   20.6890 C   0  0  0  0  0  0  0  0  0  0  0  0
  1  2  2  0
  2  3  1  0
  3  4  2  0
  4  5  1  0
  5  6  1  0
  6  7  1  0
  7  8  1  0
  8  9  1  0
  9 10  1  0
 10 11  1  6
 11 12  1  0
 12 13  1  0
 13 14  2  0
 14 15  1  0
 15 16  2  0
 16 17  1  0
 13 18  1  0
 17 18  2  0
  6 19  1  0
 10 19  1  0
  4 20  1  0
  1 21  1  0
 20 21  2  0
M  END
