MAK-UNK-9e4a73aa-3
     RDKit          3D

 26 29  0  0  0  0  0  0  0  0999 V2000
    7.7660   -3.6210   24.2590 O   0  0  0  0  0  0  0  0  0  0  0  0
    7.8570   -2.9950   23.2270 C   0  0  0  0  0  0  0  0  0  0  0  0
    7.0310   -3.4150   22.0910 C   0  0  0  0  0  0  0  0  0  0  0  0
    6.6140   -4.4620   21.7600 C   0  0  0  0  0  0  0  0  0  0  0  0
    6.0030   -3.7090   20.5910 C   0  0  0  0  0  0  0  0  0  0  0  0
    5.3300   -4.5250   19.7930 F   0  0  0  0  0  0  0  0  0  0  0  0
    6.0320   -2.2070   20.1800 C   0  0  0  0  0  0  0  0  0  0  0  0
    5.4100   -1.2360   18.9050 Cl  0  0  0  0  0  0  0  0  0  0  0  0
    5.6160   -3.2190   19.8230 C   0  0  0  0  0  0  0  0  0  0  0  0
    6.4830   -2.7080   21.0450 C   0  0  0  0  0  0  0  0  0  0  0  0
    6.8210   -1.3400   21.2300 C   0  0  2  0  0  0  0  0  0  0  0  0
    6.3310   -0.3210   20.3860 C   0  0  0  0  0  0  0  0  0  0  0  0
    6.9030   -0.0180   19.0670 C   0  0  0  0  0  0  0  0  0  0  0  0
    6.3370    1.0050   18.2900 C   0  0  0  0  0  0  0  0  0  0  0  0
    5.2410    1.7330   18.7600 C   0  0  0  0  0  0  0  0  0  0  0  0
    4.6940    1.4570   20.0070 C   0  0  0  0  0  0  0  0  0  0  0  0
    5.2270    0.4500   20.8090 C   0  0  0  0  0  0  0  0  0  0  0  0
    8.2380   -1.0750   21.7950 C   0  0  0  0  0  0  0  0  0  0  0  0
    8.8980   -0.1900   21.2570 O   0  0  0  0  0  0  0  0  0  0  0  0
    8.6530   -1.8540   22.9190 N   0  0  0  0  0  0  0  0  0  0  0  0
   10.0880   -1.9680   23.0990 C   0  0  0  0  0  0  0  0  0  0  0  0
   11.2130   -1.4020   23.2630 C   0  0  0  0  0  0  0  0  0  0  0  0
   12.6080   -1.7270   23.4100 C   0  0  0  0  0  0  0  0  0  0  0  0
   12.7870   -0.4030   23.4740 C   0  0  0  0  0  0  0  0  0  0  0  0
   11.5400    0.2360   23.3530 N   0  0  0  0  0  0  0  0  0  0  0  0
   10.2720   -0.5140   23.1770 C   0  0  0  0  0  0  0  0  0  0  0  0
  1  2  2  0
  2  3  1  0
  3  4  1  0
  4  5  2  0
  5  6  1  0
  5  7  1  0
  7  8  1  0
  7  9  2  0
  3 10  2  0
  9 10  1  0
 10 11  1  0
 11 12  1  6
 12 13  2  0
 13 14  1  0
 14 15  2  0
 15 16  1  0
 12 17  1  0
 16 17  2  0
 11 18  1  0
 18 19  2  0
  2 20  1  0
 18 20  1  0
 20 21  1  0
 21 22  2  0
 22 23  1  0
 23 24  2  0
 24 25  1  0
 21 26  1  0
 25 26  2  0
M  END
