MAK-UNK-acefcb18-11
     RDKit          3D

 14 15  0  0  0  0  0  0  0  0999 V2000
    5.6510   -3.5920   24.2230 C   0  0  0  0  0  0  0  0  0  0  0  0
    7.0590   -3.0730   23.9150 C   0  0  1  0  0  0  0  0  0  0  0  0
    7.3230   -1.7570   24.3130 C   0  0  0  0  0  0  0  0  0  0  0  0
    8.7750   -1.5360   24.3970 O   0  0  0  0  0  0  0  0  0  0  0  0
    9.5370   -2.4230   23.6800 C   0  0  1  0  0  0  0  0  0  0  0  0
   10.8910   -2.1480   23.5730 C   0  0  0  0  0  0  0  0  0  0  0  0
   11.9140   -2.1710   24.4690 C   0  0  0  0  0  0  0  0  0  0  0  0
   13.1230   -1.8300   23.9400 C   0  0  0  0  0  0  0  0  0  0  0  0
   13.1650   -1.4200   22.2230 S   0  0  0  0  0  0  0  0  0  0  0  0
   11.4590   -1.7180   22.1710 C   0  0  0  0  0  0  0  0  0  0  0  0
    9.2030   -3.7470   23.8290 C   0  0  1  0  0  0  0  0  0  0  0  0
   10.2670   -4.2850   24.5960 O   0  0  0  0  0  0  0  0  0  0  0  0
    8.0650   -3.8770   24.5740 C   0  0  2  0  0  0  0  0  0  0  0  0
    7.7030   -5.2400   24.6970 O   0  0  0  0  0  0  0  0  0  0  0  0
  2  1  1  1
  2  3  1  0
  3  4  1  0
  4  5  1  0
  5  6  1  1
  6  7  1  0
  7  8  2  0
  8  9  1  0
  6 10  2  0
  9 10  1  0
  5 11  1  0
 11 12  1  1
  2 13  1  0
 11 13  1  0
 13 14  1  6
M  END
