MAK-UNK-9e4a73aa-36
     RDKit          3D

 27 30  0  0  0  0  0  0  0  0999 V2000
   10.2970    1.2940   23.0070 C   0  0  0  0  0  0  0  0  0  0  0  0
   10.5400   -0.0600   23.2210 C   0  0  0  0  0  0  0  0  0  0  0  0
   11.8640   -0.5190   23.1530 C   0  0  0  0  0  0  0  0  0  0  0  0
   13.1430    0.5570   22.8350 Cl  0  0  0  0  0  0  0  0  0  0  0  0
   12.2020   -1.9410   23.3580 C   0  0  0  0  0  0  0  0  0  0  0  0
   13.4710   -2.3510   23.2940 F   0  0  0  0  0  0  0  0  0  0  0  0
   11.0750   -2.8640   23.6300 C   0  0  0  0  0  0  0  0  0  0  0  0
    9.7890   -2.3750   23.6840 C   0  0  0  0  0  0  0  0  0  0  0  0
    8.7770   -3.3070   23.9170 C   0  0  0  0  0  0  0  0  0  0  0  0
    9.0510   -4.4980   24.0030 O   0  0  0  0  0  0  0  0  0  0  0  0
    7.4470   -2.8690   24.0380 N   0  0  0  0  0  0  0  0  0  0  0  0
    6.5960   -3.0600   22.9190 C   0  0  0  0  0  0  0  0  0  0  0  0
    7.6260   -2.1270   22.5320 C   0  0  0  0  0  0  0  0  0  0  0  0
    8.1540   -1.2150   21.3150 C   0  0  0  0  0  0  0  0  0  0  0  0
    7.1890   -1.5320   20.4110 C   0  0  0  0  0  0  0  0  0  0  0  0
    6.1700   -2.3730   20.5590 N   0  0  0  0  0  0  0  0  0  0  0  0
    5.9340   -3.0700   21.7300 C   0  0  0  0  0  0  0  0  0  0  0  0
    7.2850   -1.4270   24.3750 C   0  0  0  0  0  0  0  0  0  0  0  0
    6.5050   -0.9950   25.2280 O   0  0  0  0  0  0  0  0  0  0  0  0
    8.1020   -0.6330   23.6350 N   0  0  0  0  0  0  0  0  0  0  0  0
    7.6640    0.5980   23.2500 C   0  0  0  0  0  0  0  0  0  0  0  0
    7.9940    1.1420   22.0000 C   0  0  0  0  0  0  0  0  0  0  0  0
    7.5400    2.4040   21.6260 C   0  0  0  0  0  0  0  0  0  0  0  0
    6.7460    3.1540   22.4850 C   0  0  0  0  0  0  0  0  0  0  0  0
    6.4040    2.6170   23.7460 C   0  0  0  0  0  0  0  0  0  0  0  0
    6.8570    1.3560   24.1220 C   0  0  0  0  0  0  0  0  0  0  0  0
    9.4890   -0.9970   23.5070 C   0  0  0  0  0  0  0  0  0  0  0  0
  1  2  1  0
  2  3  2  0
  3  4  1  0
  3  5  1  0
  5  6  1  0
  5  7  2  0
  7  8  1  0
  8  9  1  0
  9 10  2  0
  9 11  1  0
 11 12  1  0
 12 13  2  0
 13 14  1  0
 14 15  2  0
 15 16  1  0
 12 17  1  0
 16 17  2  0
 11 18  1  0
 18 19  2  0
 18 20  1  0
 20 21  1  0
 21 22  2  0
 22 23  1  0
 23 24  2  0
 24 25  1  0
 21 26  1  0
 25 26  2  0
  2 27  1  0
  8 27  2  0
 20 27  1  0
M  END
