MAK-UNK-acefcb18-26
     RDKit          3D

 30 33  0  0  0  0  0  0  0  0999 V2000
   11.8300   -3.0520   24.6880 C   0  0  0  0  0  0  0  0  0  0  0  0
   12.5220   -2.7130   23.5050 N   0  0  0  0  0  0  0  0  0  0  0  0
   13.5870   -1.7560   23.6580 C   0  0  0  0  0  0  0  0  0  0  0  0
   13.3950   -0.3270   23.1300 C   0  0  0  0  0  0  0  0  0  0  0  0
   12.4460   -0.3270   22.1010 N   0  0  0  0  0  0  0  0  0  0  0  0
   11.3110   -0.2580   22.7240 C   0  0  0  0  0  0  0  0  0  0  0  0
   11.6180   -0.5120   24.0730 C   0  0  0  0  0  0  0  0  0  0  0  0
   10.6310   -0.6240   25.1970 C   0  0  0  0  0  0  0  0  0  0  0  0
    9.2310   -0.4740   24.7810 C   0  0  0  0  0  0  0  0  0  0  0  0
    8.1020   -0.6480   25.6500 C   0  0  0  0  0  0  0  0  0  0  0  0
    7.7940   -1.9360   25.3320 N   0  0  0  0  0  0  0  0  0  0  0  0
    8.5770   -2.4570   24.2510 C   0  0  0  0  0  0  0  0  0  0  0  0
    8.3460   -3.7540   23.8040 C   0  0  0  0  0  0  0  0  0  0  0  0
    7.1390   -4.3600   24.2150 C   0  0  0  0  0  0  0  0  0  0  0  0
    7.3300   -5.5430   24.4730 O   0  0  0  0  0  0  0  0  0  0  0  0
    6.3870   -3.6140   25.2960 C   0  0  0  0  0  0  0  0  0  0  0  0
    6.5140   -2.2310   25.2160 C   0  0  0  0  0  0  0  0  0  0  0  0
    9.2060   -0.2040   23.5350 C   0  0  0  0  0  0  0  0  0  0  0  0
    9.9450   -0.0200   22.3910 C   0  0  0  0  0  0  0  0  0  0  0  0
    9.0220    0.3050   21.3750 C   0  0  0  0  0  0  0  0  0  0  0  0
    8.9750    1.4780   21.0000 O   0  0  0  0  0  0  0  0  0  0  0  0
    8.2610   -0.6000   20.9660 O   0  0  0  0  0  0  0  0  0  0  0  0
    7.3060   -0.2890   19.9140 C   0  0  2  0  0  0  0  0  0  0  0  0
    6.8030    0.9960   19.7790 C   0  0  0  0  0  0  0  0  0  0  0  0
    5.7590    1.2430   20.3540 O   0  0  0  0  0  0  0  0  0  0  0  0
    5.0920   -0.0050   20.5350 C   0  0  0  0  0  0  0  0  0  0  0  0
    5.9820   -1.0280   20.1630 C   0  0  2  0  0  0  0  0  0  0  0  0
    6.0650   -1.9890   21.2070 O   0  0  0  0  0  0  0  0  0  0  0  0
   12.4620   -1.6220   21.5710 C   0  0  0  0  0  0  0  0  0  0  0  0
   11.6520   -2.3300   22.4190 C   0  0  0  0  0  0  0  0  0  0  0  0
  1  2  1  0
  2  3  1  0
  3  4  1  0
  4  5  1  0
  5  6  1  0
  6  7  2  0
  7  8  1  0
  8  9  2  0
  9 10  1  0
 10 11  1  0
 11 12  1  0
 12 13  1  0
 13 14  1  0
 14 15  1  0
 14 16  1  0
 11 17  1  0
 16 17  1  0
  9 18  1  0
  6 19  1  0
 18 19  2  0
 19 20  1  0
 20 21  2  0
 20 22  1  0
 23 22  1  1
 23 24  1  0
 24 25  1  0
 25 26  1  0
 23 27  1  0
 26 27  1  0
 27 28  1  1
  5 29  1  0
  2 30  1  0
 29 30  1  0
M  END
