MAK-UNK-a7992eb3-27
     RDKit          3D

 34 34  0  0  0  0  0  0  0  0999 V2000
    6.4770   -5.1660   23.8300 C   0  0  0  0  0  0  0  0  0  0  0  0
    6.6330   -3.8520   24.3020 C   0  0  0  0  0  0  0  0  0  0  0  0
    7.5090   -3.1080   23.8820 O   0  0  0  0  0  0  0  0  0  0  0  0
    5.7290   -3.4840   25.2770 N   0  0  0  0  0  0  0  0  0  0  0  0
    4.9660   -2.2210   25.2590 C   0  0  1  0  0  0  0  0  0  0  0  0
    3.6020   -2.3590   25.6260 C   0  0  0  0  0  0  0  0  0  0  0  0
    3.0330   -3.4450   25.1000 C   0  0  0  0  0  0  0  0  0  0  0  0
    2.0360   -4.1800   24.8850 C   0  0  0  0  0  0  0  0  0  0  0  0
    1.5630   -3.1460   25.6320 C   0  0  0  0  0  0  0  0  0  0  0  0
    2.4070   -1.9590   26.1750 C   0  0  0  0  0  0  0  0  0  0  0  0
    2.2950   -0.9110   26.8600 O   0  0  0  0  0  0  0  0  0  0  0  0
    0.9890   -0.4660   27.3200 C   0  0  2  0  0  0  0  0  0  0  0  0
    0.4380    0.6490   26.6720 C   0  0  0  0  0  0  0  0  0  0  0  0
    1.0880   -0.0770   28.8250 C   0  0  2  0  0  0  0  0  0  0  0  0
    2.2570    0.7470   29.1390 N   0  0  0  0  0  0  0  0  0  0  0  0
    2.1830    2.0860   29.4220 C   0  0  0  0  0  0  0  0  0  0  0  0
    3.3950    2.7590   29.2720 C   0  0  0  0  0  0  0  0  0  0  0  0
    1.1520    2.6580   29.7760 O   0  0  0  0  0  0  0  0  0  0  0  0
    1.1140   -1.2930   29.7850 C   0  0  0  0  0  0  0  0  0  0  0  0
    1.9070   -1.3660   30.7220 O   0  0  0  0  0  0  0  0  0  0  0  0
    0.1930   -2.2960   29.5370 N   0  0  0  0  0  0  0  0  0  0  0  0
    0.6070   -3.5920   29.0210 C   0  0  0  0  0  0  0  0  0  0  0  0
   -0.0500   -4.6820   29.5930 C   0  0  0  0  0  0  0  0  0  0  0  0
    0.5560   -5.9250   29.5250 C   0  0  0  0  0  0  0  0  0  0  0  0
    1.3870   -7.6430   29.4450 Br  0  0  0  0  0  0  0  0  0  0  0  0
    1.3020   -2.2100   26.2740 C   0  0  0  0  0  0  0  0  0  0  0  0
    1.4350   -3.3870   25.5110 C   0  0  0  0  0  0  0  0  0  0  0  0
    5.6450   -1.2260   26.2210 C   0  0  0  0  0  0  0  0  0  0  0  0
    5.6930   -0.0170   25.9850 O   0  0  0  0  0  0  0  0  0  0  0  0
    6.1930   -1.7860   27.3600 N   0  0  0  0  0  0  0  0  0  0  0  0
    6.9040   -0.9310   28.2730 C   0  0  0  0  0  0  0  0  0  0  0  0
    6.6660   -1.3530   29.5790 C   0  0  0  0  0  0  0  0  0  0  0  0
    6.8950   -0.4660   30.6340 C   0  0  0  0  0  0  0  0  0  0  0  0
    7.1980    0.7410   32.0810 Br  0  0  0  0  0  0  0  0  0  0  0  0
  1  2  1  0
  2  3  2  0
  2  4  1  0
  4  5  1  0
  5  6  1  1
  6  7  1  0
  7  8  2  0
  8  9  1  0
  9 10  2  0
 10 11  1  0
 11 12  1  0
 12 13  1  6
 12 14  1  0
 14 15  1  6
 15 16  1  0
 16 17  1  0
 16 18  2  0
 14 19  1  0
 19 20  2  0
 19 21  1  0
 21 22  1  0
 22 23  1  0
 23 24  3  0
 24 25  1  0
 10 26  1  0
  7 27  1  0
 26 27  2  0
  5 28  1  0
 28 29  2  0
 28 30  1  0
 30 31  1  0
 31 32  1  0
 32 33  3  0
 33 34  1  0
M  END
