MAK-UNK-0d6072ac-11
     RDKit          3D

 19 21  0  0  0  0  0  0  0  0999 V2000
    5.7370   -4.1990   20.4840 C   0  0  0  0  0  0  0  0  0  0  0  0
    6.3250   -4.9950   21.6530 C   0  0  2  0  0  0  0  0  0  0  0  0
    5.3990   -5.3740   22.5890 C   0  0  0  0  0  0  0  0  0  0  0  0
    5.9200   -6.3520   23.5140 O   0  0  0  0  0  0  0  0  0  0  0  0
    4.1580   -4.8040   22.5360 O   0  0  0  0  0  0  0  0  0  0  0  0
    7.5020   -4.2660   22.2000 C   0  0  0  0  0  0  0  0  0  0  0  0
    8.4630   -4.1170   22.9050 C   0  0  0  0  0  0  0  0  0  0  0  0
    9.3180   -3.2020   23.0460 C   0  0  0  0  0  0  0  0  0  0  0  0
    9.8250   -1.9900   22.7470 N   0  0  0  0  0  0  0  0  0  0  0  0
   10.9720   -1.8900   23.4920 C   0  0  0  0  0  0  0  0  0  0  0  0
   11.9360   -0.9540   23.6250 C   0  0  0  0  0  0  0  0  0  0  0  0
   13.0220   -1.1050   24.4200 C   0  0  0  0  0  0  0  0  0  0  0  0
   13.1710   -2.2810   25.1700 C   0  0  0  0  0  0  0  0  0  0  0  0
   14.4760   -2.5810   26.1500 Cl  0  0  0  0  0  0  0  0  0  0  0  0
   12.2490   -3.2780   25.1420 C   0  0  0  0  0  0  0  0  0  0  0  0
   11.1190   -3.0470   24.2460 C   0  0  0  0  0  0  0  0  0  0  0  0
    9.9310   -3.8740   23.8760 C   0  0  0  0  0  0  0  0  0  0  0  0
    9.0690   -5.1940   24.0130 C   0  0  0  0  0  0  0  0  0  0  0  0
    7.8520   -5.3210   23.1290 N   0  0  0  0  0  0  0  0  0  0  0  0
  2  1  1  6
  2  3  1  0
  3  4  2  0
  3  5  1  0
  2  6  1  0
  6  7  2  0
  7  8  1  0
  8  9  1  0
  9 10  1  0
 10 11  2  0
 11 12  1  0
 12 13  2  0
 13 14  1  0
 13 15  1  0
 10 16  1  0
 15 16  2  0
  8 17  2  0
 16 17  1  0
 17 18  1  0
  6 19  1  0
 18 19  2  0
M  END
