MAK-UNK-60abb798-10
     RDKit          3D

 22 24  0  0  0  0  0  0  0  0999 V2000
   13.2920   -3.1340   25.1700 N   0  0  0  0  0  0  0  0  0  0  0  0
   12.8870   -2.5670   23.8580 C   0  0  0  0  0  0  0  0  0  0  0  0
   11.6090   -2.1100   23.7540 C   0  0  1  0  0  0  0  0  0  0  0  0
   10.4980   -3.1970   23.7680 O   0  0  0  0  0  0  0  0  0  0  0  0
    9.0210   -2.8500   23.9340 C   0  0  2  0  0  0  0  0  0  0  0  0
    7.9380   -3.7570   23.2260 C   0  0  1  0  0  0  0  0  0  0  0  0
    6.8690   -4.1640   23.9910 C   0  0  0  0  0  0  0  0  0  0  0  0
    6.4140   -5.4620   23.7420 C   0  0  0  0  0  0  0  0  0  0  0  0
    5.9690   -5.6930   22.4460 C   0  0  0  0  0  0  0  0  0  0  0  0
    6.8530   -4.8770   21.5230 C   0  0  1  0  0  0  0  0  0  0  0  0
    6.1810   -3.7910   20.6690 C   0  0  0  0  0  0  0  0  0  0  0  0
    6.7580   -2.5640   20.4490 O   0  0  0  0  0  0  0  0  0  0  0  0
    7.4650   -3.5260   21.9350 C   0  0  0  0  0  0  0  0  0  0  0  0
    9.1240   -1.3840   23.7230 C   0  0  0  0  0  0  0  0  0  0  0  0
   10.4430   -1.6210   23.8570 C   0  0  0  0  0  0  0  0  0  0  0  0
   11.3250   -1.3280   24.7930 C   0  0  0  0  0  0  0  0  0  0  0  0
   12.6680   -1.5340   25.0420 C   0  0  0  0  0  0  0  0  0  0  0  0
   13.3140   -2.2510   23.9820 C   0  0  0  0  0  0  0  0  0  0  0  0
   12.5220   -2.6090   22.8920 C   0  0  0  0  0  0  0  0  0  0  0  0
   13.0430   -3.2690   21.7560 O   0  0  0  0  0  0  0  0  0  0  0  0
   11.0990   -2.3320   22.7940 C   0  0  0  0  0  0  0  0  0  0  0  0
   10.3660   -2.7310   21.7010 O   0  0  0  0  0  0  0  0  0  0  0  0
  1  2  1  0
  3  2  1  1
  3  4  1  0
  4  5  1  0
  5  6  1  0
  6  7  1  1
  7  8  1  0
  8  9  1  0
  9 10  1  0
 10 11  1  6
 11 12  2  0
  6 13  1  0
 10 13  1  0
  5 14  1  6
 14 15  1  0
  3 16  1  0
 15 16  2  0
 16 17  1  0
 17 18  2  0
 18 19  1  0
 19 20  1  0
 15 21  1  0
 19 21  2  0
 21 22  1  0
M  END
