MAK-UNK-f2409524-19
     RDKit          3D

 24 25  0  0  0  0  0  0  0  0999 V2000
    8.5940    3.5800   25.1610 C   0  0  0  0  0  0  0  0  0  0  0  0
    7.2890    3.1180   25.7070 C   0  0  0  0  0  0  0  0  0  0  0  0
    6.7860    3.6060   26.7210 O   0  0  0  0  0  0  0  0  0  0  0  0
    6.7030    2.0390   24.8970 N   0  0  0  0  0  0  0  0  0  0  0  0
    5.6790    1.3140   25.5240 C   0  0  0  0  0  0  0  0  0  0  0  0
    5.4880    1.3410   27.0570 C   0  0  0  0  0  0  0  0  0  0  0  0
    4.4000    0.5600   27.6830 N   0  0  0  0  0  0  0  0  0  0  0  0
    3.5270   -0.2260   26.7780 C   0  0  0  0  0  0  0  0  0  0  0  0
    3.7680   -0.1920   25.4060 C   0  0  0  0  0  0  0  0  0  0  0  0
    4.7700    0.5230   24.7840 C   0  0  0  0  0  0  0  0  0  0  0  0
    4.7650    0.3610   23.4160 N   0  0  0  0  0  0  0  0  0  0  0  0
    4.8460    1.5440   22.7310 C   0  0  1  0  0  0  0  0  0  0  0  0
    5.5670    1.0930   21.4610 C   0  0  0  0  0  0  0  0  0  0  0  0
    6.1430    0.0050   21.3900 O   0  0  0  0  0  0  0  0  0  0  0  0
    3.7440    2.2520   22.3910 N   0  0  0  0  0  0  0  0  0  0  0  0
    2.5820    2.3710   23.2930 C   0  0  0  0  0  0  0  0  0  0  0  0
    2.3530    1.5890   24.2030 O   0  0  0  0  0  0  0  0  0  0  0  0
    1.8300    3.4710   22.9440 N   0  0  0  0  0  0  0  0  0  0  0  0
    0.4840    3.8280   23.4250 C   0  0  0  0  0  0  0  0  0  0  0  0
    0.5670    4.5590   24.7120 C   0  0  0  0  0  0  0  0  0  0  0  0
   -0.8100    4.8530   25.0940 C   0  0  0  0  0  0  0  0  0  0  0  0
   -1.7930    4.4350   24.1750 C   0  0  0  0  0  0  0  0  0  0  0  0
   -1.7050    3.1020   23.7330 C   0  0  0  0  0  0  0  0  0  0  0  0
   -0.4150    2.7730   23.3060 C   0  0  0  0  0  0  0  0  0  0  0  0
  1  2  1  0
  2  3  2  0
  2  4  1  0
  4  5  1  0
  5  6  2  0
  6  7  1  0
  7  8  2  0
  8  9  1  0
  5 10  1  0
  9 10  2  0
 10 11  1  0
 11 12  1  0
 12 13  1  6
 13 14  2  0
 12 15  1  0
 15 16  1  0
 16 17  2  0
 16 18  1  0
 18 19  1  0
 19 20  1  0
 20 21  1  0
 21 22  1  0
 22 23  1  0
 19 24  1  0
 23 24  1  0
M  END
