MAK-UNK-acefcb18-14
     RDKit          3D

 26 28  0  0  0  0  0  0  0  0999 V2000
    6.1100   -4.7680   25.5980 C   0  0  0  0  0  0  0  0  0  0  0  0
    7.0390   -3.9880   24.7970 N   0  0  0  0  0  0  0  0  0  0  0  0
    8.0720   -4.3340   23.9540 C   0  0  0  0  0  0  0  0  0  0  0  0
    9.1130   -3.2710   23.9960 C   0  0  0  0  0  0  0  0  0  0  0  0
    8.8500   -2.0230   24.4830 N   0  0  0  0  0  0  0  0  0  0  0  0
    9.8920   -1.0610   24.8720 C   0  0  0  0  0  0  0  0  0  0  0  0
    9.6580   -0.0650   25.5600 O   0  0  0  0  0  0  0  0  0  0  0  0
   11.1650   -1.3420   24.4350 C   0  0  0  0  0  0  0  0  0  0  0  0
   12.0190   -0.1920   24.5220 O   0  0  0  0  0  0  0  0  0  0  0  0
   12.5750    0.2380   23.3600 C   0  0  0  0  0  0  0  0  0  0  0  0
   12.1400    1.9030   23.0480 S   0  0  0  0  0  0  0  0  0  0  0  0
   10.3250    2.0280   23.4240 C   0  0  0  0  0  0  0  0  0  0  0  0
    9.3870    1.5440   22.3090 C   0  0  1  0  0  0  0  0  0  0  0  0
   10.2020    0.5640   21.7150 O   0  0  0  0  0  0  0  0  0  0  0  0
   10.0200   -0.5800   22.5750 C   0  0  2  0  0  0  0  0  0  0  0  0
   11.2710   -1.4470   22.5660 C   0  0  0  0  0  0  0  0  0  0  0  0
   12.0030   -1.9860   21.5490 C   0  0  0  0  0  0  0  0  0  0  0  0
   13.1050   -2.6850   21.9330 C   0  0  0  0  0  0  0  0  0  0  0  0
   13.3530   -2.7470   23.6320 S   0  0  0  0  0  0  0  0  0  0  0  0
   11.9490   -1.8280   23.9050 C   0  0  0  0  0  0  0  0  0  0  0  0
    8.6810   -0.8500   22.2590 C   0  0  2  0  0  0  0  0  0  0  0  0
    8.4120   -1.0590   20.8440 O   0  0  0  0  0  0  0  0  0  0  0  0
    8.2400    0.5560   22.5410 C   0  0  2  0  0  0  0  0  0  0  0  0
    7.1520    0.9880   21.8350 O   0  0  0  0  0  0  0  0  0  0  0  0
    7.6110   -1.7830   24.9950 C   0  0  0  0  0  0  0  0  0  0  0  0
    6.6080   -2.6440   24.6180 C   0  0  0  0  0  0  0  0  0  0  0  0
  1  2  1  0
  2  3  1  0
  3  4  1  0
  4  5  1  0
  5  6  1  0
  6  7  2  0
  6  8  1  0
  8  9  1  0
  9 10  1  0
 10 11  1  0
 11 12  1  0
 13 12  1  1
 13 14  1  0
 14 15  1  0
 15 16  1  6
 16 17  1  0
 17 18  2  0
 18 19  1  0
 16 20  2  0
 19 20  1  0
 15 21  1  0
 21 22  1  6
 13 23  1  0
 21 23  1  0
 23 24  1  6
  5 25  1  0
  2 26  1  0
 25 26  1  0
M  END
