MAK-UNK-b1d4dcd7-2
     RDKit          3D

 31 34  0  0  0  0  0  0  0  0999 V2000
    6.0450   -3.0920   17.6510 O   0  0  0  0  0  0  0  0  0  0  0  0
    7.1160   -3.0400   18.2050 C   0  0  0  0  0  0  0  0  0  0  0  0
    7.1370   -2.2680   19.4260 C   0  0  0  0  0  0  0  0  0  0  0  0
    6.2520   -2.8450   20.3200 C   0  0  0  0  0  0  0  0  0  0  0  0
    5.4330   -3.7180   20.0150 O   0  0  0  0  0  0  0  0  0  0  0  0
    6.4050   -2.3460   21.5690 N   0  0  0  0  0  0  0  0  0  0  0  0
    7.1200   -1.1050   21.7510 C   0  0  0  0  0  0  0  0  0  0  0  0
    8.5410   -1.3640   22.1160 C   0  0  0  0  0  0  0  0  0  0  0  0
    8.7100   -2.3650   23.1880 N   0  0  0  0  0  0  0  0  0  0  0  0
   10.1330   -2.7090   23.3580 C   0  0  0  0  0  0  0  0  0  0  0  0
   10.9490   -1.5890   23.2090 C   0  0  0  0  0  0  0  0  0  0  0  0
   12.4020   -1.5450   22.8830 C   0  0  0  0  0  0  0  0  0  0  0  0
   12.9350   -0.1680   22.7980 C   0  0  0  0  0  0  0  0  0  0  0  0
   11.9480    0.7770   23.0460 C   0  0  0  0  0  0  0  0  0  0  0  0
   10.4110    0.0260   23.3670 S   0  0  0  0  0  0  0  0  0  0  0  0
    7.8860   -3.5710   22.9030 C   0  0  0  0  0  0  0  0  0  0  0  0
    6.5340   -3.2940   22.6780 C   0  0  0  0  0  0  0  0  0  0  0  0
    8.3270   -3.6380   17.8830 N   0  0  0  0  0  0  0  0  0  0  0  0
    8.7960   -4.3700   16.7250 C   0  0  0  0  0  0  0  0  0  0  0  0
    8.2970   -4.5470   15.2760 C   0  0  0  0  0  0  0  0  0  0  0  0
    8.9540   -5.3510   13.7010 C   0  0  0  0  0  0  0  0  0  0  0  0
   10.1700   -6.2630   13.5080 C   0  0  0  0  0  0  0  0  0  0  0  0
   10.5890   -7.7720   11.8550 O   0  0  0  0  0  0  0  0  0  0  0  0
   10.3460   -9.8970   12.3670 C   0  0  0  0  0  0  0  0  0  0  0  0
   10.1400  -10.2980   13.7370 N   0  0  0  0  0  0  0  0  0  0  0  0
    9.3090  -10.9060   13.4920 C   0  0  0  0  0  0  0  0  0  0  0  0
    8.7330  -11.3920   12.6000 C   0  0  0  0  0  0  0  0  0  0  0  0
    9.2020  -11.3850   11.6010 C   0  0  0  0  0  0  0  0  0  0  0  0
   10.0360  -10.6960   11.4250 N   0  0  0  0  0  0  0  0  0  0  0  0
   10.8840   -6.2070   15.0920 C   0  0  0  0  0  0  0  0  0  0  0  0
    9.9950   -5.1820   16.8410 C   0  0  0  0  0  0  0  0  0  0  0  0
  1  2  2  0
  2  3  1  0
  3  4  1  0
  4  5  2  0
  4  6  1  0
  6  7  1  0
  7  8  1  0
  8  9  1  0
  9 10  1  0
 10 11  1  0
 11 12  2  0
 12 13  1  0
 13 14  2  0
 11 15  1  0
 14 15  1  0
  9 16  1  0
  6 17  1  0
 16 17  1  0
  2 18  1  0
 18 19  1  0
 19 20  2  0
 20 21  1  0
 21 22  2  0
 22 23  1  0
 23 24  1  0
 24 25  2  0
 25 26  1  0
 26 27  2  0
 27 28  1  0
 24 29  1  0
 28 29  2  0
 22 30  1  0
 19 31  1  0
 30 31  2  0
M  END
