MAK-UNK-acefcb18-22
     RDKit          3D

 24 26  0  0  0  0  0  0  0  0999 V2000
    9.0040   -4.0890   24.0840 C   0  0  0  0  0  0  0  0  0  0  0  0
   10.3150   -3.3920   23.6500 C   0  0  0  0  0  0  0  0  0  0  0  0
   11.5510   -3.5210   24.5410 C   0  0  0  0  0  0  0  0  0  0  0  0
   12.7450   -2.9150   24.1730 C   0  0  0  0  0  0  0  0  0  0  0  0
   12.8450   -2.1910   22.9990 C   0  0  0  0  0  0  0  0  0  0  0  0
   13.9950   -1.6100   22.6390 O   0  0  0  0  0  0  0  0  0  0  0  0
   13.5970   -1.1920   21.4050 C   0  0  0  0  0  0  0  0  0  0  0  0
   12.4690   -1.8280   21.3100 C   0  0  0  0  0  0  0  0  0  0  0  0
   12.2190   -2.5010   20.3420 O   0  0  0  0  0  0  0  0  0  0  0  0
   11.7210   -1.6650   22.4490 C   0  0  0  0  0  0  0  0  0  0  0  0
   12.3090   -1.7110   23.8370 C   0  0  0  0  0  0  0  0  0  0  0  0
   11.2430   -1.5330   24.7460 N   0  0  0  0  0  0  0  0  0  0  0  0
   10.1470   -1.3820   23.9720 C   0  0  0  0  0  0  0  0  0  0  0  0
    8.9030   -1.1770   24.4930 C   0  0  0  0  0  0  0  0  0  0  0  0
    8.0850   -2.3470   24.3530 N   0  0  0  0  0  0  0  0  0  0  0  0
    8.8860   -3.5430   24.0720 C   0  0  0  0  0  0  0  0  0  0  0  0
    8.1500   -4.7310   24.2390 C   0  0  0  0  0  0  0  0  0  0  0  0
    6.8830   -4.7510   24.8150 C   0  0  0  0  0  0  0  0  0  0  0  0
    6.8380   -5.7790   25.4530 O   0  0  0  0  0  0  0  0  0  0  0  0
    6.3440   -3.6160   25.4130 C   0  0  0  0  0  0  0  0  0  0  0  0
    6.9840   -2.3880   25.2940 C   0  0  0  0  0  0  0  0  0  0  0  0
   10.3680   -1.4400   22.5980 N   0  0  0  0  0  0  0  0  0  0  0  0
   11.7150   -2.0650   22.1580 C   0  0  0  0  0  0  0  0  0  0  0  0
   10.4290   -2.6660   22.4780 C   0  0  0  0  0  0  0  0  0  0  0  0
  1  2  1  0
  2  3  2  0
  3  4  1  0
  4  5  2  0
  5  6  1  0
  6  7  1  0
  7  8  1  0
  8  9  2  0
  8 10  1  0
 10 11  2  0
 11 12  1  0
 12 13  1  0
 13 14  1  0
 14 15  1  0
 15 16  1  0
 16 17  1  0
 17 18  1  0
 18 19  1  0
 18 20  1  0
 15 21  1  0
 20 21  1  0
 10 22  1  0
 13 22  2  0
  5 23  1  0
  2 24  1  0
 23 24  2  0
M  END
