MAK-UNK-9e4a73aa-21
     RDKit          3D

 26 29  0  0  0  0  0  0  0  0999 V2000
    9.0090   -4.1900   24.0300 O   0  0  0  0  0  0  0  0  0  0  0  0
    8.6150   -3.2100   23.4920 C   0  0  0  0  0  0  0  0  0  0  0  0
    7.4080   -3.1140   22.6810 C   0  0  0  0  0  0  0  0  0  0  0  0
    8.3700   -1.9960   22.1490 C   0  0  0  0  0  0  0  0  0  0  0  0
    8.3560   -0.8550   21.0340 C   0  0  0  0  0  0  0  0  0  0  0  0
    9.5320   -0.8610   21.6750 F   0  0  0  0  0  0  0  0  0  0  0  0
    7.0620   -0.9340   20.4110 C   0  0  0  0  0  0  0  0  0  0  0  0
    6.5990    0.1140   19.1050 Cl  0  0  0  0  0  0  0  0  0  0  0  0
    6.0670   -1.8960   20.8040 N   0  0  0  0  0  0  0  0  0  0  0  0
    6.5530   -2.6820   21.7910 C   0  0  0  0  0  0  0  0  0  0  0  0
    7.5140   -1.5680   21.6500 N   0  0  0  0  0  0  0  0  0  0  0  0
    6.7750   -0.3920   21.3390 C   0  0  0  0  0  0  0  0  0  0  0  0
    7.4950    0.9450   21.2310 C   0  0  0  0  0  0  0  0  0  0  0  0
    6.8270    2.1330   20.9440 C   0  0  0  0  0  0  0  0  0  0  0  0
    5.4480    2.1760   20.7300 C   0  0  0  0  0  0  0  0  0  0  0  0
    4.6540    1.0240   20.7980 C   0  0  0  0  0  0  0  0  0  0  0  0
    5.2340   -0.3340   21.1060 C   0  0  0  0  0  0  0  0  0  0  0  0
    8.3510   -1.0730   22.6890 C   0  0  0  0  0  0  0  0  0  0  0  0
    8.4260    0.3160   23.0520 O   0  0  0  0  0  0  0  0  0  0  0  0
    9.1290   -1.9710   23.4470 N   0  0  0  0  0  0  0  0  0  0  0  0
   10.5470   -1.7500   23.6060 C   0  0  0  0  0  0  0  0  0  0  0  0
   11.1810   -2.9380   24.2150 C   0  0  0  0  0  0  0  0  0  0  0  0
   12.5470   -2.6970   24.3690 C   0  0  0  0  0  0  0  0  0  0  0  0
   13.2000   -1.5100   23.9910 C   0  0  0  0  0  0  0  0  0  0  0  0
   12.5540   -0.4690   23.4300 N   0  0  0  0  0  0  0  0  0  0  0  0
   11.2360   -0.5810   23.2400 C   0  0  0  0  0  0  0  0  0  0  0  0
  1  2  2  0
  2  3  1  0
  3  4  2  0
  4  5  1  0
  5  6  1  0
  5  7  2  0
  7  8  1  0
  7  9  1  0
  3 10  1  0
  9 10  2  0
 10 11  1  0
 11 12  1  0
 12 13  2  0
 13 14  1  0
 14 15  2  0
 15 16  1  0
 12 17  1  0
 16 17  2  0
 11 18  1  0
 18 19  2  0
  2 20  1  0
 18 20  1  0
 20 21  1  0
 21 22  2  0
 22 23  1  0
 23 24  2  0
 24 25  1  0
 21 26  1  0
 25 26  2  0
M  END
