MAK-UNK-acefcb18-8
     RDKit          3D

 19 20  0  0  0  0  0  0  0  0999 V2000
    1.3900   -3.9460   25.9920 C   0  0  0  0  0  0  0  0  0  0  0  0
    2.3450   -4.1190   25.0040 C   0  0  0  0  0  0  0  0  0  0  0  0
    2.4670   -5.3590   24.3140 C   0  0  0  0  0  0  0  0  0  0  0  0
    3.5130   -5.5110   23.2470 C   0  0  0  0  0  0  0  0  0  0  0  0
    4.4280   -4.3670   22.9010 C   0  0  0  0  0  0  0  0  0  0  0  0
    5.3430   -4.6590   21.8910 C   0  0  0  0  0  0  0  0  0  0  0  0
    6.6860   -4.5900   22.1990 C   0  0  0  0  0  0  0  0  0  0  0  0
    7.4060   -5.5130   21.8050 O   0  0  0  0  0  0  0  0  0  0  0  0
    7.1890   -3.4800   22.9450 N   0  0  0  0  0  0  0  0  0  0  0  0
    8.5760   -3.4830   23.2830 C   0  0  0  0  0  0  0  0  0  0  0  0
    9.0930   -2.4690   24.0760 C   0  0  0  0  0  0  0  0  0  0  0  0
    9.4160   -1.1620   23.3130 C   0  0  0  0  0  0  0  0  0  0  0  0
   10.7720   -1.0200   23.0600 C   0  0  0  0  0  0  0  0  0  0  0  0
   11.4960    0.1580   23.2100 C   0  0  0  0  0  0  0  0  0  0  0  0
   12.8320    0.1250   22.9150 C   0  0  0  0  0  0  0  0  0  0  0  0
   13.2450   -1.4460   22.4070 S   0  0  0  0  0  0  0  0  0  0  0  0
   11.6320   -2.0010   22.6150 C   0  0  0  0  0  0  0  0  0  0  0  0
    4.2250   -3.2120   23.6290 C   0  0  0  0  0  0  0  0  0  0  0  0
    3.2520   -3.1020   24.6110 C   0  0  0  0  0  0  0  0  0  0  0  0
  1  2  1  0
  2  3  2  0
  3  4  1  0
  4  5  2  0
  5  6  1  0
  6  7  1  0
  7  8  2  0
  7  9  1  0
  9 10  1  0
 10 11  1  0
 11 12  1  0
 12 13  1  0
 13 14  1  0
 14 15  2  0
 15 16  1  0
 13 17  2  0
 16 17  1  0
  5 18  1  0
  2 19  1  0
 18 19  2  0
M  END
