MAK-UNK-c7aa8293-7
     RDKit          3D

 21 23  0  0  0  0  0  0  0  0999 V2000
   12.8760   -2.4400   22.0630 N   0  0  0  0  0  0  0  0  0  0  0  0
   13.0260   -2.4890   23.5340 C   0  0  0  0  0  0  0  0  0  0  0  0
   11.7050   -2.2380   24.2620 C   0  0  2  0  0  0  0  0  0  0  0  0
   10.6830   -3.1660   24.0570 O   0  0  0  0  0  0  0  0  0  0  0  0
    9.4420   -2.9610   23.1640 C   0  0  1  0  0  0  0  0  0  0  0  0
    8.1720   -3.8340   23.1230 C   0  0  1  0  0  0  0  0  0  0  0  0
    7.8010   -4.7070   24.1220 C   0  0  0  0  0  0  0  0  0  0  0  0
    6.9270   -5.8390   23.5700 C   0  0  0  0  0  0  0  0  0  0  0  0
    6.4640   -5.4730   22.1550 C   0  0  0  0  0  0  0  0  0  0  0  0
    6.2390   -3.9940   21.9430 C   0  0  2  0  0  0  0  0  0  0  0  0
    5.8090   -3.5860   20.6900 N   0  0  0  0  0  0  0  0  0  0  0  0
    7.2550   -3.1500   22.4520 C   0  0  0  0  0  0  0  0  0  0  0  0
    9.1550   -1.6510   23.6690 C   0  0  0  0  0  0  0  0  0  0  0  0
   10.4580   -1.7410   23.9690 C   0  0  0  0  0  0  0  0  0  0  0  0
   11.4110   -0.8070   23.7600 C   0  0  0  0  0  0  0  0  0  0  0  0
   12.7350   -0.5650   23.9090 C   0  0  0  0  0  0  0  0  0  0  0  0
   13.3600   -1.6420   24.5120 C   0  0  0  0  0  0  0  0  0  0  0  0
   12.5750   -2.8540   24.9080 C   0  0  0  0  0  0  0  0  0  0  0  0
   13.2880   -3.8370   25.5320 O   0  0  0  0  0  0  0  0  0  0  0  0
   11.1350   -2.8690   24.6030 C   0  0  0  0  0  0  0  0  0  0  0  0
   10.5320   -3.9010   24.9340 O   0  0  0  0  0  0  0  0  0  0  0  0
  1  2  1  0
  3  2  1  6
  3  4  1  0
  4  5  1  0
  5  6  1  0
  6  7  1  1
  7  8  1  0
  8  9  1  0
  9 10  1  0
 10 11  1  6
  6 12  1  0
 10 12  1  0
  5 13  1  1
 13 14  1  0
  3 15  1  0
 14 15  2  0
 15 16  1  0
 16 17  2  0
 17 18  1  0
 18 19  1  0
 14 20  1  0
 18 20  2  0
 20 21  1  0
M  END
