MAK-UNK-0d6072ac-26
     RDKit          3D

 19 21  0  0  0  0  0  0  0  0999 V2000
    6.3960   -6.8780   22.7640 N   0  0  0  0  0  0  0  0  0  0  0  0
    6.0390   -5.6290   23.4720 C   0  0  2  0  0  0  0  0  0  0  0  0
    5.4270   -4.6350   22.6920 C   0  0  0  0  0  0  0  0  0  0  0  0
    4.6850   -4.0460   21.9080 O   0  0  0  0  0  0  0  0  0  0  0  0
    4.7910   -5.6490   22.4270 O   0  0  0  0  0  0  0  0  0  0  0  0
    7.3530   -5.0310   23.9560 C   0  0  0  0  0  0  0  0  0  0  0  0
    8.0730   -5.4970   25.0950 C   0  0  0  0  0  0  0  0  0  0  0  0
    9.2510   -4.9670   25.4280 C   0  0  0  0  0  0  0  0  0  0  0  0
    9.7200   -3.9040   24.5700 C   0  0  0  0  0  0  0  0  0  0  0  0
    9.0490   -3.3990   23.5070 C   0  0  0  0  0  0  0  0  0  0  0  0
    7.8370   -3.9610   23.1780 C   0  0  0  0  0  0  0  0  0  0  0  0
    9.7590   -2.3980   22.9500 N   0  0  0  0  0  0  0  0  0  0  0  0
   10.9540   -2.2360   23.5990 C   0  0  0  0  0  0  0  0  0  0  0  0
   11.9850   -1.3510   23.3380 C   0  0  0  0  0  0  0  0  0  0  0  0
   13.1080   -1.4290   24.1430 C   0  0  0  0  0  0  0  0  0  0  0  0
   13.1270   -2.3840   25.1510 C   0  0  0  0  0  0  0  0  0  0  0  0
   14.4450   -2.5870   26.1380 Cl  0  0  0  0  0  0  0  0  0  0  0  0
   12.1030   -3.2380   25.4200 C   0  0  0  0  0  0  0  0  0  0  0  0
   11.0110   -3.1650   24.6360 C   0  0  0  0  0  0  0  0  0  0  0  0
  2  1  1  6
  2  3  1  0
  3  4  2  0
  3  5  1  0
  2  6  1  0
  6  7  2  0
  7  8  1  0
  8  9  2  0
  9 10  1  0
  6 11  1  0
 10 11  2  0
 10 12  1  0
 12 13  1  0
 13 14  1  0
 14 15  2  0
 15 16  1  0
 16 17  1  0
 16 18  2  0
  9 19  1  0
 13 19  2  0
 18 19  1  0
M  END
