MAK-UNK-9a6be56d-31
     RDKit          3D

 38 42  0  0  0  0  0  0  0  0999 V2000
   10.1540   -1.3040   24.2460 C   0  0  0  0  0  0  0  0  0  0  0  0
   10.4870   -0.5980   23.0400 N   0  0  0  0  0  0  0  0  0  0  0  0
   11.0040    0.7690   23.0550 C   0  0  0  0  0  0  0  0  0  0  0  0
   10.2160    2.0600   23.2560 C   0  0  0  0  0  0  0  0  0  0  0  0
   10.9850    3.3710   23.2620 C   0  0  0  0  0  0  0  0  0  0  0  0
   10.2730    4.9630   23.5680 S   0  0  0  0  0  0  0  0  0  0  0  0
    8.9610    5.1570   22.5950 N   0  0  0  0  0  0  0  0  0  0  0  0
    9.8010    5.0580   24.9940 O   0  0  0  0  0  0  0  0  0  0  0  0
   11.2100    6.0560   23.2090 O   0  0  0  0  0  0  0  0  0  0  0  0
   12.3390    3.3140   23.0410 C   0  0  0  0  0  0  0  0  0  0  0  0
   13.1250    2.0450   22.8260 C   0  0  0  0  0  0  0  0  0  0  0  0
   12.3610    0.7620   22.8590 C   0  0  0  0  0  0  0  0  0  0  0  0
   13.1370   -0.5030   22.6710 C   0  0  0  0  0  0  0  0  0  0  0  0
   12.4330   -1.6910   22.4300 C   0  0  0  0  0  0  0  0  0  0  0  0
   11.0460   -1.5330   22.2820 C   0  0  1  0  0  0  0  0  0  0  0  0
   10.4580   -2.6960   22.6140 N   0  0  0  0  0  0  0  0  0  0  0  0
    9.2460   -2.7730   22.0100 C   0  0  0  0  0  0  0  0  0  0  0  0
    8.1390   -1.8260   22.3350 C   0  0  0  0  0  0  0  0  0  0  0  0
    7.0750   -2.1910   23.1140 C   0  0  0  0  0  0  0  0  0  0  0  0
    6.0590   -1.3000   23.3790 C   0  0  0  0  0  0  0  0  0  0  0  0
    4.8510   -1.6490   24.2280 C   0  0  0  0  0  0  0  0  0  0  0  0
    4.5950   -0.7030   25.2170 C   0  0  0  0  0  0  0  0  0  0  0  0
    3.5360   -0.8090   26.1200 C   0  0  0  0  0  0  0  0  0  0  0  0
    2.7170   -1.9330   25.9940 C   0  0  0  0  0  0  0  0  0  0  0  0
    2.9580   -2.8940   25.0100 C   0  0  0  0  0  0  0  0  0  0  0  0
    4.0210   -2.7770   24.1100 C   0  0  0  0  0  0  0  0  0  0  0  0
    4.2260   -3.7170   23.1720 F   0  0  0  0  0  0  0  0  0  0  0  0
    6.5500   -0.2070   22.6650 N   0  0  0  0  0  0  0  0  0  0  0  0
    5.8430    1.3420   22.4830 S   0  0  0  0  0  0  0  0  0  0  0  0
    6.9180    2.2090   22.0390 O   0  0  0  0  0  0  0  0  0  0  0  0
    4.6720    1.1850   21.6500 O   0  0  0  0  0  0  0  0  0  0  0  0
    5.3240    1.8340   24.0810 C   0  0  0  0  0  0  0  0  0  0  0  0
    3.9710    1.8790   24.4180 C   0  0  0  0  0  0  0  0  0  0  0  0
    3.6100    2.2770   25.7010 C   0  0  0  0  0  0  0  0  0  0  0  0
    4.6140    2.6170   26.6010 C   0  0  0  0  0  0  0  0  0  0  0  0
    5.9340    2.5810   26.2950 N   0  0  0  0  0  0  0  0  0  0  0  0
    6.2650    2.1890   25.0360 C   0  0  0  0  0  0  0  0  0  0  0  0
    7.8550   -0.5290   22.0120 C   0  0  0  0  0  0  0  0  0  0  0  0
  1  2  1  0
  2  3  1  0
  3  4  1  0
  4  5  2  0
  5  6  1  0
  6  7  1  0
  6  8  2  0
  6  9  2  0
  5 10  1  0
 10 11  2  0
  3 12  2  0
 11 12  1  0
 12 13  1  0
 13 14  1  0
  2 15  1  0
 14 15  1  0
 15 16  1  1
 16 17  1  0
 17 18  1  0
 18 19  1  0
 19 20  2  0
 20 21  1  0
 21 22  2  0
 22 23  1  0
 23 24  2  0
 24 25  1  0
 21 26  1  0
 25 26  2  0
 26 27  1  0
 20 28  1  0
 28 29  1  0
 29 30  2  0
 29 31  2  0
 29 32  1  0
 32 33  2  0
 33 34  1  0
 34 35  2  0
 35 36  1  0
 32 37  1  0
 36 37  2  0
 18 38  2  0
 28 38  1  0
M  END
