MAK-UNK-9e4a73aa-33
     RDKit          3D

 27 30  0  0  0  0  0  0  0  0999 V2000
   13.2170   -1.5630   24.4020 C   0  0  0  0  0  0  0  0  0  0  0  0
   11.8760   -1.8950   23.8290 C   0  0  0  0  0  0  0  0  0  0  0  0
   11.8060   -2.2090   22.4640 C   0  0  0  0  0  0  0  0  0  0  0  0
   10.5930   -2.5350   21.8860 C   0  0  0  0  0  0  0  0  0  0  0  0
    9.4140   -2.5330   22.7780 C   0  0  0  0  0  0  0  0  0  0  0  0
    9.4830   -2.2230   24.0950 C   0  0  0  0  0  0  0  0  0  0  0  0
    8.1530   -2.2930   24.7500 N   0  0  0  0  0  0  0  0  0  0  0  0
    7.6590   -1.0060   25.2530 C   0  0  0  0  0  0  0  0  0  0  0  0
    8.1750   -0.2830   26.0990 O   0  0  0  0  0  0  0  0  0  0  0  0
    6.5310   -0.8070   24.5910 N   0  0  0  0  0  0  0  0  0  0  0  0
    6.8360   -0.9820   23.2670 C   0  0  0  0  0  0  0  0  0  0  0  0
    8.1690   -0.4450   22.8480 C   0  0  0  0  0  0  0  0  0  0  0  0
    8.5530   -0.5850   21.5140 C   0  0  0  0  0  0  0  0  0  0  0  0
    7.7350   -1.1970   20.5580 C   0  0  0  0  0  0  0  0  0  0  0  0
    6.4160   -1.7460   20.9040 N   0  0  0  0  0  0  0  0  0  0  0  0
    6.0430   -1.5990   22.2960 C   0  0  0  0  0  0  0  0  0  0  0  0
    5.5650   -1.6980   24.9170 C   0  0  0  0  0  0  0  0  0  0  0  0
    4.3880   -1.5580   25.7370 O   0  0  0  0  0  0  0  0  0  0  0  0
    5.7640   -2.9270   24.3720 C   0  0  0  0  0  0  0  0  0  0  0  0
    4.7620   -3.7620   23.9440 C   0  0  0  0  0  0  0  0  0  0  0  0
    5.0650   -4.9820   23.3760 C   0  0  0  0  0  0  0  0  0  0  0  0
    4.0850   -5.7940   22.9500 F   0  0  0  0  0  0  0  0  0  0  0  0
    6.3980   -5.3400   23.2520 C   0  0  0  0  0  0  0  0  0  0  0  0
    6.7740   -6.8360   22.5390 Cl  0  0  0  0  0  0  0  0  0  0  0  0
    7.4280   -4.5100   23.6870 C   0  0  0  0  0  0  0  0  0  0  0  0
    7.1240   -3.2930   24.2510 C   0  0  0  0  0  0  0  0  0  0  0  0
   10.7290   -1.8930   24.6320 C   0  0  0  0  0  0  0  0  0  0  0  0
  1  2  1  0
  2  3  2  0
  3  4  1  0
  4  5  2  0
  5  6  1  0
  6  7  1  0
  7  8  1  0
  8  9  2  0
  8 10  1  0
 10 11  1  0
 11 12  2  0
 12 13  1  0
 13 14  2  0
 14 15  1  0
 11 16  1  0
 15 16  2  0
 10 17  1  0
 17 18  2  0
 17 19  1  0
 19 20  1  0
 20 21  2  0
 21 22  1  0
 21 23  1  0
 23 24  1  0
 23 25  2  0
  7 26  1  0
 19 26  2  0
 25 26  1  0
  2 27  1  0
  6 27  2  0
M  END
