MAK-UNK-8145c7a0-1
     RDKit          3D

 26 28  0  0  0  0  0  0  0  0999 V2000
    6.1000   -3.9110   27.8860 O   0  0  0  0  0  0  0  0  0  0  0  0
    5.3410   -4.8650   27.1090 S   0  0  0  0  0  0  0  0  0  0  0  0
    3.9170   -4.6830   26.9260 O   0  0  0  0  0  0  0  0  0  0  0  0
    6.1150   -5.1230   25.4760 C   0  0  0  0  0  0  0  0  0  0  0  0
    6.8730   -3.8930   25.0160 C   0  0  0  0  0  0  0  0  0  0  0  0
    6.8890   -2.7280   25.6340 N   0  0  0  0  0  0  0  0  0  0  0  0
    7.6550   -1.7750   24.9750 N   0  0  0  0  0  0  0  0  0  0  0  0
    8.2040   -2.2400   23.8690 C   0  0  0  0  0  0  0  0  0  0  0  0
    9.0630   -1.4500   22.8910 C   0  0  0  0  0  0  0  0  0  0  0  0
   10.4580   -1.1590   23.2750 N   0  0  0  0  0  0  0  0  0  0  0  0
   10.7510    0.3460   23.0000 C   0  0  0  0  0  0  0  0  0  0  0  0
   12.1370    0.7860   22.9800 C   0  0  0  0  0  0  0  0  0  0  0  0
   12.7030   -0.2980   22.5200 C   0  0  0  0  0  0  0  0  0  0  0  0
   12.4190   -1.3510   22.3790 C   0  0  0  0  0  0  0  0  0  0  0  0
   13.4280   -2.0200   21.8210 F   0  0  0  0  0  0  0  0  0  0  0  0
   11.3880   -2.1410   22.5840 C   0  0  0  0  0  0  0  0  0  0  0  0
    7.8350   -3.8930   23.5820 S   0  0  0  0  0  0  0  0  0  0  0  0
    5.4320   -6.3710   27.9360 N   0  0  0  0  0  0  0  0  0  0  0  0
    5.4210   -6.4830   29.4370 C   0  0  0  0  0  0  0  0  0  0  0  0
    6.1880   -7.7530   29.6970 C   0  0  0  0  0  0  0  0  0  0  0  0
    6.3950   -8.4770   30.9010 C   0  0  0  0  0  0  0  0  0  0  0  0
    7.4310   -9.7160   30.8640 C   0  0  0  0  0  0  0  0  0  0  0  0
    7.6010  -10.5820   32.2400 C   0  0  0  0  0  0  0  0  0  0  0  0
    6.8040  -10.1530   33.5090 C   0  0  0  0  0  0  0  0  0  0  0  0
    5.8510   -8.9150   33.4230 C   0  0  0  0  0  0  0  0  0  0  0  0
    5.7030   -8.1420   32.0850 C   0  0  0  0  0  0  0  0  0  0  0  0
  1  2  2  0
  2  3  2  0
  2  4  1  0
  4  5  1  0
  5  6  2  0
  6  7  1  0
  7  8  2  0
  8  9  1  0
  9 10  1  0
 10 11  1  0
 11 12  1  0
 12 13  1  0
 13 14  2  0
 14 15  1  0
 10 16  1  0
 14 16  1  0
  5 17  1  0
  8 17  1  0
  2 18  1  0
 18 19  1  0
 19 20  1  0
 20 21  1  0
 21 22  2  0
 22 23  1  0
 23 24  2  0
 24 25  1  0
 21 26  1  0
 25 26  2  0
M  END
