MAK-UNK-b1d4dcd7-3
     RDKit          3D

 30 33  0  0  0  0  0  0  0  0999 V2000
    5.0930   -4.4840   21.2120 O   0  0  0  0  0  0  0  0  0  0  0  0
    5.4520   -3.5170   20.5740 C   0  0  0  0  0  0  0  0  0  0  0  0
    4.7610   -2.8800   19.6650 N   0  0  0  0  0  0  0  0  0  0  0  0
    5.0590   -1.6260   19.2110 C   0  0  0  0  0  0  0  0  0  0  0  0
    4.5550   -0.4240   19.7850 C   0  0  0  0  0  0  0  0  0  0  0  0
    4.8570    0.8280   19.2690 C   0  0  0  0  0  0  0  0  0  0  0  0
    5.6670    0.8100   18.1870 C   0  0  0  0  0  0  0  0  0  0  0  0
    6.0790    1.6970   17.5670 O   0  0  0  0  0  0  0  0  0  0  0  0
    6.9600    0.8050   17.0320 C   0  0  0  0  0  0  0  0  0  0  0  0
    7.5910    0.9000   15.8580 N   0  0  0  0  0  0  0  0  0  0  0  0
    8.4440   -0.1100   15.3590 C   0  0  0  0  0  0  0  0  0  0  0  0
    8.5260   -1.1950   16.2340 C   0  0  0  0  0  0  0  0  0  0  0  0
    7.8820   -1.2530   17.4360 C   0  0  0  0  0  0  0  0  0  0  0  0
    7.0880   -0.2320   17.8500 N   0  0  0  0  0  0  0  0  0  0  0  0
    6.2000   -0.3140   17.5850 C   0  0  0  0  0  0  0  0  0  0  0  0
    5.9470   -1.5310   18.0450 C   0  0  0  0  0  0  0  0  0  0  0  0
    6.5920   -2.8590   20.6890 C   0  0  0  0  0  0  0  0  0  0  0  0
    7.4370   -2.9420   19.6750 O   0  0  0  0  0  0  0  0  0  0  0  0
    6.7740   -2.1580   21.7460 N   0  0  0  0  0  0  0  0  0  0  0  0
    7.6980   -1.0860   21.6790 C   0  0  0  0  0  0  0  0  0  0  0  0
    9.0670   -1.6980   21.8550 C   0  0  0  0  0  0  0  0  0  0  0  0
    9.0530   -2.2550   23.0690 N   0  0  0  0  0  0  0  0  0  0  0  0
   10.3190   -2.4850   23.4780 C   0  0  0  0  0  0  0  0  0  0  0  0
   11.0290   -1.1490   23.2760 C   0  0  0  0  0  0  0  0  0  0  0  0
   12.4980   -1.4450   23.2100 C   0  0  0  0  0  0  0  0  0  0  0  0
   13.1270   -0.2390   23.0200 C   0  0  0  0  0  0  0  0  0  0  0  0
   12.3000    0.8980   22.9390 C   0  0  0  0  0  0  0  0  0  0  0  0
   10.5800    0.5220   23.0970 S   0  0  0  0  0  0  0  0  0  0  0  0
    8.0870   -3.3280   23.1940 C   0  0  0  0  0  0  0  0  0  0  0  0
    6.7730   -2.9120   22.9880 C   0  0  0  0  0  0  0  0  0  0  0  0
  1  2  2  0
  2  3  1  0
  3  4  1  0
  4  5  2  0
  5  6  1  0
  6  7  2  0
  7  8  1  0
  8  9  1  0
  9 10  2  0
 10 11  1  0
 11 12  2  0
 12 13  1  0
  9 14  1  0
 13 14  2  0
  7 15  1  0
  4 16  1  0
 15 16  2  0
  2 17  1  0
 17 18  2  0
 17 19  1  0
 19 20  1  0
 20 21  1  0
 21 22  1  0
 22 23  1  0
 23 24  1  0
 24 25  2  0
 25 26  1  0
 26 27  2  0
 24 28  1  0
 27 28  1  0
 22 29  1  0
 19 30  1  0
 29 30  1  0
M  END
