MAK-UNK-f2409524-30
     RDKit          3D

 30 31  0  0  0  0  0  0  0  0999 V2000
    9.9660   -0.4690   22.4250 C   0  0  0  0  0  0  0  0  0  0  0  0
    8.9580    0.2220   21.5040 C   0  0  0  0  0  0  0  0  0  0  0  0
    9.1000    1.4330   21.2330 O   0  0  0  0  0  0  0  0  0  0  0  0
    7.9110   -0.5510   20.9940 N   0  0  0  0  0  0  0  0  0  0  0  0
    6.8600    0.0150   20.1690 C   0  0  0  0  0  0  0  0  0  0  0  0
    7.0230   -0.1700   18.8050 C   0  0  0  0  0  0  0  0  0  0  0  0
    6.0720    0.3510   17.8040 N   0  0  0  0  0  0  0  0  0  0  0  0
    4.9200    1.0860   18.3790 C   0  0  0  0  0  0  0  0  0  0  0  0
    4.8390    1.2080   19.7550 C   0  0  0  0  0  0  0  0  0  0  0  0
    5.7510    0.7080   20.6810 C   0  0  0  0  0  0  0  0  0  0  0  0
    5.5150    0.9280   22.0300 C   0  0  0  0  0  0  0  0  0  0  0  0
    6.1770    0.2480   22.8280 O   0  0  0  0  0  0  0  0  0  0  0  0
    5.4890   -0.6590   23.5760 C   0  0  0  0  0  0  0  0  0  0  0  0
    6.0740   -0.9280   24.8240 C   0  0  2  0  0  0  0  0  0  0  0  0
    7.3770   -1.2590   24.6280 N   0  0  0  0  0  0  0  0  0  0  0  0
    7.5390   -2.5800   24.3000 C   0  0  0  0  0  0  0  0  0  0  0  0
    6.8020   -3.6710   24.8550 O   0  0  0  0  0  0  0  0  0  0  0  0
    8.6250   -2.8190   23.2470 C   0  0  0  0  0  0  0  0  0  0  0  0
    9.9190   -2.7950   23.7090 N   0  0  0  0  0  0  0  0  0  0  0  0
    5.3720   -1.7810   25.6980 C   0  0  0  0  0  0  0  0  0  0  0  0
    5.5200   -1.7420   26.9220 O   0  0  0  0  0  0  0  0  0  0  0  0
    4.4500   -2.7190   25.2020 C   0  0  0  0  0  0  0  0  0  0  0  0
    3.3570   -2.2880   24.8760 O   0  0  0  0  0  0  0  0  0  0  0  0
    4.7720   -4.0030   25.1290 N   0  0  0  0  0  0  0  0  0  0  0  0
    4.1760   -4.7220   23.9410 C   0  0  0  0  0  0  0  0  0  0  0  0
    3.9980   -6.0710   24.2610 C   0  0  0  0  0  0  0  0  0  0  0  0
    3.8420   -6.8630   23.1560 C   0  0  0  0  0  0  0  0  0  0  0  0
    5.1330   -6.9330   22.3690 C   0  0  0  0  0  0  0  0  0  0  0  0
    5.4500   -5.5420   21.8260 C   0  0  0  0  0  0  0  0  0  0  0  0
    5.1230   -4.4880   22.7170 C   0  0  0  0  0  0  0  0  0  0  0  0
  1  2  1  0
  2  3  2  0
  2  4  1  0
  4  5  1  0
  5  6  2  0
  6  7  1  0
  7  8  2  0
  8  9  1  0
  5 10  1  0
  9 10  2  0
 10 11  1  0
 11 12  1  0
 12 13  1  0
 14 13  1  6
 14 15  1  0
 15 16  1  0
 16 17  2  0
 16 18  1  0
 18 19  1  0
 14 20  1  0
 20 21  2  0
 20 22  1  0
 22 23  2  0
 22 24  1  0
 24 25  1  0
 25 26  1  0
 26 27  1  0
 27 28  1  0
 28 29  1  0
 25 30  1  0
 29 30  1  0
M  END
