MAK-UNK-6435e6c2-11
     RDKit          3D

 17 18  0  0  0  0  0  0  0  0999 V2000
    6.4280   -2.7180   20.9640 C   0  0  0  0  0  0  0  0  0  0  0  0
    5.9390   -4.1550   20.7500 C   0  0  0  0  0  0  0  0  0  0  0  0
    5.2830   -4.5000   19.7710 O   0  0  0  0  0  0  0  0  0  0  0  0
    6.3420   -5.0430   21.8100 N   0  0  0  0  0  0  0  0  0  0  0  0
    7.1070   -4.6160   22.9260 C   0  0  0  0  0  0  0  0  0  0  0  0
    6.2190   -4.1980   23.9240 C   0  0  0  0  0  0  0  0  0  0  0  0
    5.3640   -5.1900   24.2860 N   0  0  0  0  0  0  0  0  0  0  0  0
    4.6360   -5.1610   25.8270 S   0  0  0  0  0  0  0  0  0  0  0  0
    3.9350   -6.4020   26.0570 O   0  0  0  0  0  0  0  0  0  0  0  0
    5.6500   -4.6990   26.7420 O   0  0  0  0  0  0  0  0  0  0  0  0
    3.3780   -3.9150   25.7440 C   0  0  0  0  0  0  0  0  0  0  0  0
    2.1950   -3.6540   25.5400 C   0  0  0  0  0  0  0  0  0  0  0  0
    1.2730   -2.7940   25.4800 C   0  0  0  0  0  0  0  0  0  0  0  0
    0.4440   -4.1650   25.1090 S   0  0  0  0  0  0  0  0  0  0  0  0
    2.1240   -4.9350   25.3390 C   0  0  0  0  0  0  0  0  0  0  0  0
    4.6610   -5.7620   23.2070 C   0  0  0  0  0  0  0  0  0  0  0  0
    5.4870   -6.1700   22.1620 C   0  0  0  0  0  0  0  0  0  0  0  0
  1  2  1  0
  2  3  2  0
  2  4  1  0
  4  5  1  0
  5  6  1  0
  6  7  1  0
  7  8  1  0
  8  9  2  0
  8 10  2  0
  8 11  1  0
 11 12  1  0
 12 13  2  0
 13 14  1  0
 11 15  2  0
 14 15  1  0
  7 16  1  0
  4 17  1  0
 16 17  1  0
M  END
