MAK-UNK-de9577cf-8
     RDKit          3D

 37 40  0  0  0  0  0  0  0  0999 V2000
   16.9610   -3.5030   18.7610 C   0  0  0  0  0  0  0  0  0  0  0  0
   17.6050   -3.8400   19.9900 N   0  0  0  0  0  0  0  0  0  0  0  0
   17.2090   -5.1590   20.4800 C   0  0  0  0  0  0  0  0  0  0  0  0
   16.9990   -4.5790   21.5370 C   0  0  0  0  0  0  0  0  0  0  0  0
   15.7340   -4.5840   21.8960 C   0  0  0  0  0  0  0  0  0  0  0  0
   15.3770   -3.6040   22.9680 C   0  0  0  0  0  0  0  0  0  0  0  0
   14.0440   -3.0460   23.8270 C   0  0  0  0  0  0  0  0  0  0  0  0
   13.0920   -1.9950   23.6250 C   0  0  0  0  0  0  0  0  0  0  0  0
   11.9060   -1.6640   24.3770 C   0  0  0  0  0  0  0  0  0  0  0  0
   11.2800   -0.7330   23.9670 O   0  0  0  0  0  0  0  0  0  0  0  0
   12.0660    0.2000   23.3520 C   0  0  0  0  0  0  0  0  0  0  0  0
   13.1490    0.1010   22.8430 O   0  0  0  0  0  0  0  0  0  0  0  0
   11.4860    1.4180   23.3830 C   0  0  0  0  0  0  0  0  0  0  0  0
   10.2250    1.6170   23.8890 C   0  0  0  0  0  0  0  0  0  0  0  0
    9.6900    2.8940   23.9180 C   0  0  0  0  0  0  0  0  0  0  0  0
   10.4540    3.9490   23.4250 C   0  0  0  0  0  0  0  0  0  0  0  0
    9.9060    5.6260   23.4460 S   0  0  0  0  0  0  0  0  0  0  0  0
    8.4800    5.4900   22.6320 N   0  0  0  0  0  0  0  0  0  0  0  0
   10.8100    6.4030   22.6290 O   0  0  0  0  0  0  0  0  0  0  0  0
    9.6770    6.0210   24.8230 O   0  0  0  0  0  0  0  0  0  0  0  0
   11.7120    3.7360   22.9020 C   0  0  0  0  0  0  0  0  0  0  0  0
   12.2180    2.4690   22.8900 C   0  0  0  0  0  0  0  0  0  0  0  0
   11.5550   -2.3390   25.4050 C   0  0  0  0  0  0  0  0  0  0  0  0
   12.4320   -3.2890   25.7350 C   0  0  0  0  0  0  0  0  0  0  0  0
   13.5530   -3.6000   25.0800 C   0  0  0  0  0  0  0  0  0  0  0  0
   14.0460   -4.5430   25.8470 F   0  0  0  0  0  0  0  0  0  0  0  0
   17.2710   -3.0550   23.2540 N   0  0  0  0  0  0  0  0  0  0  0  0
   18.5020   -1.6150   24.1940 S   0  0  0  0  0  0  0  0  0  0  0  0
   18.6640   -0.4500   23.3850 O   0  0  0  0  0  0  0  0  0  0  0  0
   18.1160   -1.5530   25.5890 O   0  0  0  0  0  0  0  0  0  0  0  0
   20.2380   -1.9490   24.2900 C   0  0  0  0  0  0  0  0  0  0  0  0
   20.8500   -2.3780   25.4640 C   0  0  0  0  0  0  0  0  0  0  0  0
   22.2340   -2.6240   25.4820 C   0  0  0  0  0  0  0  0  0  0  0  0
   22.9970   -2.4350   24.3200 C   0  0  0  0  0  0  0  0  0  0  0  0
   22.3860   -2.0090   23.1690 N   0  0  0  0  0  0  0  0  0  0  0  0
   21.0500   -1.7770   23.1730 C   0  0  0  0  0  0  0  0  0  0  0  0
   17.9480   -3.8550   22.2380 C   0  0  0  0  0  0  0  0  0  0  0  0
  1  2  1  0
  2  3  1  0
  3  4  1  0
  4  5  1  0
  5  6  2  0
  6  7  1  0
  7  8  2  0
  8  9  1  0
  9 10  1  0
 10 11  1  0
 11 12  2  0
 11 13  1  0
 13 14  2  0
 14 15  1  0
 15 16  2  0
 16 17  1  0
 17 18  1  0
 17 19  2  0
 17 20  2  0
 16 21  1  0
 13 22  1  0
 21 22  2  0
  9 23  2  0
 23 24  1  0
  7 25  1  0
 24 25  2  0
 25 26  1  0
  6 27  1  0
 27 28  1  0
 28 29  2  0
 28 30  2  0
 28 31  1  0
 31 32  2  0
 32 33  1  0
 33 34  2  0
 34 35  1  0
 31 36  1  0
 35 36  2  0
  4 37  2  0
 27 37  1  0
M  END
