MAK-UNK-bdda130a-4
     RDKit          3D

 23 26  0  0  0  0  0  0  0  0999 V2000
    5.7350   -6.0690   27.1900 C   0  0  0  0  0  0  0  0  0  0  0  0
    4.9120   -5.0280   26.0880 S   0  0  0  0  0  0  0  0  0  0  0  0
    3.8560   -4.5960   27.3890 C   0  0  0  0  0  0  0  0  0  0  0  0
    3.6070   -3.9190   25.9870 C   0  0  0  0  0  0  0  0  0  0  0  0
    2.2790   -4.1010   25.3640 C   0  0  0  0  0  0  0  0  0  0  0  0
    1.4130   -3.0590   25.4250 C   0  0  0  0  0  0  0  0  0  0  0  0
    2.1410   -1.7460   26.2500 S   0  0  0  0  0  0  0  0  0  0  0  0
    3.6280   -2.6240   26.5110 C   0  0  0  0  0  0  0  0  0  0  0  0
    5.3020   -4.8080   24.4720 N   0  0  0  0  0  0  0  0  0  0  0  0
    5.2650   -3.5940   23.9020 C   0  0  0  0  0  0  0  0  0  0  0  0
    4.6740   -3.8330   22.5560 C   0  0  0  0  0  0  0  0  0  0  0  0
    5.4320   -4.6250   21.8170 N   0  0  0  0  0  0  0  0  0  0  0  0
    5.6210   -3.8430   20.6020 C   0  0  0  0  0  0  0  0  0  0  0  0
    5.2370   -4.1360   19.4750 O   0  0  0  0  0  0  0  0  0  0  0  0
    6.3560   -2.6290   20.8800 N   0  0  0  0  0  0  0  0  0  0  0  0
    7.3940   -2.7050   21.7940 C   0  0  0  0  0  0  0  0  0  0  0  0
    8.4010   -1.5840   21.9260 C   0  0  0  0  0  0  0  0  0  0  0  0
    9.4180   -1.7060   22.8470 N   0  0  0  0  0  0  0  0  0  0  0  0
    9.4400   -2.8350   23.5740 C   0  0  0  0  0  0  0  0  0  0  0  0
    8.5430   -3.9010   23.4990 C   0  0  0  0  0  0  0  0  0  0  0  0
    7.4980   -3.8710   22.6100 C   0  0  0  0  0  0  0  0  0  0  0  0
    6.5820   -4.9610   22.5250 C   0  0  1  0  0  0  0  0  0  0  0  0
    6.1660   -5.6190   23.7070 C   0  0  0  0  0  0  0  0  0  0  0  0
  1  2  2  0
  2  3  2  0
  2  4  1  0
  4  5  1  0
  5  6  2  0
  6  7  1  0
  4  8  2  0
  7  8  1  0
  2  9  1  0
  9 10  1  0
 10 11  1  0
 11 12  1  0
 12 13  1  0
 13 14  2  0
 13 15  1  0
 15 16  1  0
 16 17  2  0
 17 18  1  0
 18 19  2  0
 19 20  1  0
 16 21  1  0
 20 21  2  0
 12 22  1  0
 21 22  1  0
  9 23  1  0
 22 23  1  1
M  END
