MAK-UNK-1bb0b7ee-5
     RDKit          3D

 30 34  0  0  0  0  0  0  0  0999 V2000
    4.5090   -6.2450   22.7040 C   0  0  0  0  0  0  0  0  0  0  0  0
    4.3160   -5.1290   23.5570 C   0  0  0  0  0  0  0  0  0  0  0  0
    5.0990   -3.9900   23.7710 C   0  0  0  0  0  0  0  0  0  0  0  0
    6.3320   -3.8160   23.0560 C   0  0  0  0  0  0  0  0  0  0  0  0
    7.2330   -2.6040   23.2290 C   0  0  0  0  0  0  0  0  0  0  0  0
    7.1250   -2.0530   24.5160 C   0  0  0  0  0  0  0  0  0  0  0  0
    5.9370   -2.4470   25.0430 O   0  0  0  0  0  0  0  0  0  0  0  0
    5.9920   -3.2020   26.2460 C   0  0  0  0  0  0  0  0  0  0  0  0
    5.7310   -4.5800   26.1680 C   0  0  0  0  0  0  0  0  0  0  0  0
    5.7980   -5.2870   27.3640 C   0  0  0  0  0  0  0  0  0  0  0  0
    6.1430   -4.5600   28.6770 C   0  0  0  0  0  0  0  0  0  0  0  0
    6.3770   -3.2050   28.6390 C   0  0  0  0  0  0  0  0  0  0  0  0
    6.3060   -2.5130   27.4290 C   0  0  0  0  0  0  0  0  0  0  0  0
    6.5570   -1.1370   27.4270 C   0  0  0  0  0  0  0  0  0  0  0  0
    5.6240   -0.4880   28.2060 N   0  0  0  0  0  0  0  0  0  0  0  0
    6.1290   -0.2230   29.4980 C   0  0  0  0  0  0  0  0  0  0  0  0
    7.4570    0.1040   29.7680 N   0  0  0  0  0  0  0  0  0  0  0  0
    7.5420    0.2830   31.2000 C   0  0  0  0  0  0  0  0  0  0  0  0
    8.6410    0.6070   31.9770 C   0  0  0  0  0  0  0  0  0  0  0  0
    8.5510    0.7410   33.3610 C   0  0  0  0  0  0  0  0  0  0  0  0
    7.2730    0.5320   33.9630 C   0  0  0  0  0  0  0  0  0  0  0  0
    6.1470    0.2050   33.1930 C   0  0  0  0  0  0  0  0  0  0  0  0
    6.2900    0.0800   31.8130 C   0  0  0  0  0  0  0  0  0  0  0  0
    5.4390   -0.2250   30.7610 N   0  0  0  0  0  0  0  0  0  0  0  0
    6.8780   -1.5280   22.1470 C   0  0  0  0  0  0  0  0  0  0  0  0
    8.0950   -0.9040   21.8660 C   0  0  0  0  0  0  0  0  0  0  0  0
    9.1360   -1.6540   22.3580 C   0  0  0  0  0  0  0  0  0  0  0  0
    8.7180   -2.8520   22.8850 C   0  0  0  0  0  0  0  0  0  0  0  0
    6.6120   -4.7990   22.2240 N   0  0  0  0  0  0  0  0  0  0  0  0
    5.7540   -5.8570   22.1170 C   0  0  0  0  0  0  0  0  0  0  0  0
  1  2  2  0
  2  3  1  0
  3  4  2  0
  4  5  1  0
  5  6  1  0
  6  7  1  0
  7  8  1  0
  8  9  2  0
  9 10  1  0
 10 11  2  0
 11 12  1  0
  8 13  1  0
 12 13  2  0
 13 14  1  0
 14 15  1  0
 15 16  1  0
 16 17  2  0
 17 18  1  0
 18 19  2  0
 19 20  1  0
 20 21  2  0
 21 22  1  0
 18 23  1  0
 22 23  2  0
 16 24  1  0
 23 24  1  0
  5 25  1  0
 25 26  1  0
 26 27  1  0
  5 28  1  0
 27 28  1  0
  4 29  1  0
  1 30  1  0
 29 30  2  0
M  END
