MAK-UNK-9a6be56d-26
     RDKit          3D

 38 42  0  0  0  0  0  0  0  0999 V2000
    9.6610   -0.4190   24.9500 C   0  0  0  0  0  0  0  0  0  0  0  0
   10.4750   -0.5340   23.8310 N   0  0  0  0  0  0  0  0  0  0  0  0
   11.2970   -1.6620   23.5440 C   0  0  0  0  0  0  0  0  0  0  0  0
   12.3790   -1.4640   22.6860 C   0  0  0  0  0  0  0  0  0  0  0  0
   13.1360   -0.3320   22.9240 C   0  0  0  0  0  0  0  0  0  0  0  0
   12.3880    0.7970   23.1360 C   0  0  0  0  0  0  0  0  0  0  0  0
   13.0440    2.1170   22.8830 C   0  0  0  0  0  0  0  0  0  0  0  0
   12.2770    3.3780   23.1020 C   0  0  0  0  0  0  0  0  0  0  0  0
   13.0170    4.6440   22.8650 N   0  0  0  0  0  0  0  0  0  0  0  0
   12.3010    5.7250   22.1680 C   0  0  0  0  0  0  0  0  0  0  0  0
   11.4940    6.5430   23.0000 C   0  0  0  0  0  0  0  0  0  0  0  0
   10.2300    6.9560   22.6610 C   0  0  0  0  0  0  0  0  0  0  0  0
    9.6600    7.7330   23.6130 C   0  0  0  0  0  0  0  0  0  0  0  0
    8.3610    8.2400   23.3870 C   0  0  0  0  0  0  0  0  0  0  0  0
    7.3850    7.4210   22.5950 C   0  0  0  0  0  0  0  0  0  0  0  0
    6.0080    8.0100   22.3620 C   0  0  0  0  0  0  0  0  0  0  0  0
    5.6630    9.2760   22.8710 C   0  0  0  0  0  0  0  0  0  0  0  0
    6.6040   10.2130   23.7070 C   0  0  0  0  0  0  0  0  0  0  0  0
    7.9930    9.5080   23.8840 C   0  0  0  0  0  0  0  0  0  0  0  0
    8.9000   10.2090   24.5780 F   0  0  0  0  0  0  0  0  0  0  0  0
   10.5050    7.8770   24.6240 N   0  0  0  0  0  0  0  0  0  0  0  0
   10.3390    8.7590   26.0950 S   0  0  0  0  0  0  0  0  0  0  0  0
   11.1590    8.0700   27.0710 O   0  0  0  0  0  0  0  0  0  0  0  0
   10.6130   10.1500   25.7860 O   0  0  0  0  0  0  0  0  0  0  0  0
    8.5980    8.5870   26.6430 C   0  0  0  0  0  0  0  0  0  0  0  0
    7.8270    9.7540   26.6070 C   0  0  0  0  0  0  0  0  0  0  0  0
    6.5200    9.5540   27.0360 C   0  0  0  0  0  0  0  0  0  0  0  0
    6.0200    8.3350   27.4590 C   0  0  0  0  0  0  0  0  0  0  0  0
    6.7780    7.2190   27.4900 N   0  0  0  0  0  0  0  0  0  0  0  0
    8.0670    7.3740   27.0740 C   0  0  0  0  0  0  0  0  0  0  0  0
   11.6780    7.1400   24.2780 C   0  0  0  0  0  0  0  0  0  0  0  0
   10.9530    3.1920   23.5320 C   0  0  0  0  0  0  0  0  0  0  0  0
    9.8950    4.5610   23.8410 S   0  0  0  0  0  0  0  0  0  0  0  0
   11.0200    5.7040   24.2990 N   0  0  0  0  0  0  0  0  0  0  0  0
    9.0440    4.3190   24.9930 O   0  0  0  0  0  0  0  0  0  0  0  0
    9.2390    4.9960   22.6320 O   0  0  0  0  0  0  0  0  0  0  0  0
   10.3350    1.9530   23.7730 C   0  0  0  0  0  0  0  0  0  0  0  0
   11.0760    0.7430   23.5750 C   0  0  0  0  0  0  0  0  0  0  0  0
  1  2  1  0
  2  3  1  0
  3  4  1  0
  4  5  1  0
  5  6  1  0
  6  7  1  0
  7  8  2  0
  8  9  1  0
  9 10  1  0
 10 11  1  0
 11 12  1  0
 12 13  2  0
 13 14  1  0
 14 15  2  0
 15 16  1  0
 16 17  2  0
 17 18  1  0
 14 19  1  0
 18 19  2  0
 19 20  1  0
 13 21  1  0
 21 22  1  0
 22 23  2  0
 22 24  2  0
 22 25  1  0
 25 26  2  0
 26 27  1  0
 27 28  2  0
 28 29  1  0
 25 30  1  0
 29 30  2  0
 11 31  2  0
 21 31  1  0
  8 32  1  0
 32 33  1  0
 33 34  1  0
 33 35  2  0
 33 36  2  0
 32 37  2  0
  2 38  1  0
  6 38  2  0
 37 38  1  0
M  END
