MAK-UNK-f2409524-14
     RDKit          3D

 25 26  0  0  0  0  0  0  0  0999 V2000
    4.3550   -0.6940   22.7650 C   0  0  0  0  0  0  0  0  0  0  0  0
    4.3540    0.4440   21.9550 C   0  0  1  0  0  0  0  0  0  0  0  0
    4.9260    1.5980   22.4920 C   0  0  0  0  0  0  0  0  0  0  0  0
    3.9670    2.7210   22.5450 N   0  0  0  0  0  0  0  0  0  0  0  0
    2.7980    2.4240   23.3560 C   0  0  0  0  0  0  0  0  0  0  0  0
    2.7930    1.3970   24.3250 O   0  0  0  0  0  0  0  0  0  0  0  0
    1.6410    3.2600   23.0880 N   0  0  0  0  0  0  0  0  0  0  0  0
    0.5460    3.2800   23.9560 C   0  0  0  0  0  0  0  0  0  0  0  0
    0.4190    4.5440   24.8610 C   0  0  0  0  0  0  0  0  0  0  0  0
   -0.9160    5.2810   24.6020 C   0  0  0  0  0  0  0  0  0  0  0  0
   -2.1420    4.4150   24.4760 C   0  0  0  0  0  0  0  0  0  0  0  0
   -1.8730    3.2800   23.7170 C   0  0  0  0  0  0  0  0  0  0  0  0
   -0.6170    3.1810   23.1350 C   0  0  0  0  0  0  0  0  0  0  0  0
    4.9620    0.1160   20.6700 N   0  0  0  0  0  0  0  0  0  0  0  0
    4.6160    0.7430   19.4980 C   0  0  0  0  0  0  0  0  0  0  0  0
    3.5320    1.2890   19.3190 O   0  0  0  0  0  0  0  0  0  0  0  0
    5.6220    0.6780   18.5560 C   0  0  0  0  0  0  0  0  0  0  0  0
    6.9020    0.2280   18.9560 C   0  0  0  0  0  0  0  0  0  0  0  0
    7.2300    0.6080   20.2460 N   0  0  0  0  0  0  0  0  0  0  0  0
    8.2000    0.1300   21.1950 C   0  0  0  0  0  0  0  0  0  0  0  0
    7.5790   -1.1660   20.6560 C   0  0  0  0  0  0  0  0  0  0  0  0
    7.5490    0.0580   20.5800 N   0  0  0  0  0  0  0  0  0  0  0  0
    8.6050    0.0060   21.5800 C   0  0  0  0  0  0  0  0  0  0  0  0
    9.1820    1.0620   22.0860 N   0  0  0  0  0  0  0  0  0  0  0  0
    8.3720    1.5940   21.3020 C   0  0  0  0  0  0  0  0  0  0  0  0
  2  1  1  1
  2  3  1  0
  3  4  1  0
  4  5  1  0
  5  6  2  0
  5  7  1  0
  7  8  1  0
  8  9  1  0
  9 10  1  0
 10 11  1  0
 11 12  1  0
  8 13  1  0
 12 13  1  0
  2 14  1  0
 14 15  1  0
 15 16  2  0
 15 17  1  0
 17 18  1  0
 18 19  1  0
 19 20  1  0
 20 21  2  0
 21 22  1  0
 22 23  2  0
 23 24  1  0
 20 25  1  0
 24 25  2  0
M  END
