MAK-UNK-e4a48a85-15
     RDKit          3D

 45 51  0  0  0  0  0  0  0  0999 V2000
    2.8510    2.2450   19.7440 C   0  0  0  0  0  0  0  0  0  0  0  0
    3.9510    1.4050   19.2480 C   0  0  0  0  0  0  0  0  0  0  0  0
    4.7870    1.8410   18.2280 C   0  0  0  0  0  0  0  0  0  0  0  0
    5.8410    1.1220   17.6980 C   0  0  0  0  0  0  0  0  0  0  0  0
    6.0550   -0.1330   18.2490 C   0  0  0  0  0  0  0  0  0  0  0  0
    5.2180   -0.6790   19.3220 C   0  0  0  0  0  0  0  0  0  0  0  0
    5.5980   -2.0950   19.7940 C   0  0  0  0  0  0  0  0  0  0  0  0
    6.5510   -2.1510   20.6370 N   0  0  0  0  0  0  0  0  0  0  0  0
    6.2380   -2.1660   21.9670 C   0  0  0  0  0  0  0  0  0  0  0  0
    6.2040   -0.8110   22.6090 C   0  0  0  0  0  0  0  0  0  0  0  0
    7.4380   -0.1930   22.3930 N   0  0  0  0  0  0  0  0  0  0  0  0
    8.4670   -0.9870   22.7830 C   0  0  0  0  0  0  0  0  0  0  0  0
    9.1930   -1.9350   23.4030 C   0  0  0  0  0  0  0  0  0  0  0  0
    8.9110   -2.8470   24.3150 C   0  0  0  0  0  0  0  0  0  0  0  0
   10.5470   -3.4250   24.2790 Cl  0  0  0  0  0  0  0  0  0  0  0  0
    7.5460   -2.9630   24.8940 C   0  0  0  0  0  0  0  0  0  0  0  0
    6.6540   -3.6130   25.8030 C   0  0  0  0  0  0  0  0  0  0  0  0
    5.9230   -4.7470   25.3950 C   0  0  0  0  0  0  0  0  0  0  0  0
    5.0620   -5.3060   26.3340 C   0  0  0  0  0  0  0  0  0  0  0  0
    4.5450   -6.6040   26.4230 C   0  0  0  0  0  0  0  0  0  0  0  0
    3.7160   -6.9760   27.4270 N   0  0  0  0  0  0  0  0  0  0  0  0
    3.4050   -6.0340   28.3530 C   0  0  0  0  0  0  0  0  0  0  0  0
    2.5640   -6.3530   29.4390 C   0  0  0  0  0  0  0  0  0  0  0  0
    1.1810   -6.3970   29.2860 C   0  0  0  0  0  0  0  0  0  0  0  0
    0.3780   -6.4000   30.4360 C   0  0  0  0  0  0  0  0  0  0  0  0
    1.0210   -7.1740   31.5220 N   0  0  0  0  0  0  0  0  0  0  0  0
    1.7730   -6.2650   32.4140 C   0  0  0  0  0  0  0  0  0  0  0  0
    1.0050   -5.8810   33.5180 C   0  0  0  0  0  0  0  0  0  0  0  0
    1.2330   -4.6850   34.2810 C   0  0  0  0  0  0  0  0  0  0  0  0
    0.3250   -4.5400   35.3310 C   0  0  0  0  0  0  0  0  0  0  0  0
   -0.7870   -5.8330   35.3880 S   0  0  0  0  0  0  0  0  0  0  0  0
   -0.0700   -6.5870   34.0270 C   0  0  0  0  0  0  0  0  0  0  0  0
    1.9000   -8.2360   30.9890 C   0  0  0  0  0  0  0  0  0  0  0  0
    3.0140   -7.6340   30.1350 C   0  0  0  0  0  0  0  0  0  0  0  0
    3.8690   -4.7430   28.3150 N   0  0  0  0  0  0  0  0  0  0  0  0
    4.6800   -4.4580   27.2910 C   0  0  0  0  0  0  0  0  0  0  0  0
    5.2190   -3.2080   27.1260 N   0  0  0  0  0  0  0  0  0  0  0  0
    6.5570   -2.9740   27.2180 C   0  0  0  0  0  0  0  0  0  0  0  0
    6.1660   -2.5320   28.2950 O   0  0  0  0  0  0  0  0  0  0  0  0
    6.7970   -2.0900   24.3740 C   0  0  0  0  0  0  0  0  0  0  0  0
    5.1250   -1.9490   24.8390 Cl  0  0  0  0  0  0  0  0  0  0  0  0
    7.2470   -1.2340   23.4390 C   0  0  0  0  0  0  0  0  0  0  0  0
    7.5770    0.1230   21.0040 C   0  0  0  0  0  0  0  0  0  0  0  0
    7.6680   -1.2460   20.3340 C   0  0  0  0  0  0  0  0  0  0  0  0
    4.1840    0.1340   19.7900 C   0  0  0  0  0  0  0  0  0  0  0  0
  1  2  1  0
  2  3  2  0
  3  4  1  0
  4  5  2  0
  5  6  1  0
  6  7  1  0
  7  8  1  0
  8  9  1  0
  9 10  1  0
 10 11  1  0
 11 12  1  0
 12 13  2  0
 13 14  1  0
 14 15  1  0
 14 16  2  0
 16 17  1  0
 17 18  2  0
 18 19  1  0
 19 20  2  0
 20 21  1  0
 21 22  2  0
 22 23  1  0
 23 24  1  0
 24 25  1  0
 25 26  1  0
 26 27  1  0
 27 28  1  0
 28 29  1  0
 29 30  2  0
 30 31  1  0
 28 32  2  0
 31 32  1  0
 26 33  1  0
 23 34  1  0
 33 34  1  0
 22 35  1  0
 19 36  1  0
 35 36  2  0
 36 37  1  0
 17 38  1  0
 37 38  1  0
 38 39  2  0
 16 40  1  0
 40 41  1  0
 12 42  1  0
 40 42  2  0
 11 43  1  0
  8 44  1  0
 43 44  1  0
  2 45  1  0
  6 45  2  0
M  END
