MAK-UNK-27459e11-18
     RDKit          3D

 16 16  0  0  0  0  0  0  0  0999 V2000
    6.3970   -5.0500   26.3910 C   0  0  0  0  0  0  0  0  0  0  0  0
    7.9290   -4.2040   26.0580 S   0  0  0  0  0  0  0  0  0  0  0  0
    8.9300   -5.2090   25.7950 O   0  0  0  0  0  0  0  0  0  0  0  0
    8.0850   -3.2160   27.0970 O   0  0  0  0  0  0  0  0  0  0  0  0
    7.5920   -3.3330   24.6450 N   0  0  0  0  0  0  0  0  0  0  0  0
    8.6430   -2.9240   23.7830 C   0  0  0  0  0  0  0  0  0  0  0  0
    8.8600   -1.5990   23.3550 C   0  0  0  0  0  0  0  0  0  0  0  0
   10.1550   -1.0250   23.2940 C   0  0  0  0  0  0  0  0  0  0  0  0
   10.5050    0.0390   24.0730 C   0  0  0  0  0  0  0  0  0  0  0  0
   11.7480    0.5880   24.0110 C   0  0  0  0  0  0  0  0  0  0  0  0
   12.7140    0.1050   23.1700 C   0  0  0  0  0  0  0  0  0  0  0  0
   12.5010   -0.9730   22.3180 C   0  0  0  0  0  0  0  0  0  0  0  0
   13.0150   -1.7960   21.3580 C   0  0  0  0  0  0  0  0  0  0  0  0
   13.9180   -1.2410   20.4040 N   0  0  0  0  0  0  0  0  0  0  0  0
   12.7020   -3.1050   21.2310 N   0  0  0  0  0  0  0  0  0  0  0  0
   11.1630   -1.5060   22.4310 C   0  0  0  0  0  0  0  0  0  0  0  0
  1  2  1  0
  2  3  2  0
  2  4  2  0
  2  5  1  0
  5  6  1  0
  6  7  1  0
  7  8  1  0
  8  9  2  0
  9 10  1  0
 10 11  2  0
 11 12  1  0
 12 13  1  0
 13 14  2  3
 13 15  1  0
  8 16  1  0
 12 16  2  0
M  END
