MAK-UNK-c7aa8293-9
     RDKit          3D

 27 29  0  0  0  0  0  0  0  0999 V2000
   13.8430   -2.7170   23.7380 N   0  0  0  0  0  0  0  0  0  0  0  0
   12.8990   -2.4460   24.5940 C   0  0  0  0  0  0  0  0  0  0  0  0
   11.5980   -2.0460   23.8780 C   0  0  1  0  0  0  0  0  0  0  0  0
   10.4040   -2.6380   24.1790 O   0  0  0  0  0  0  0  0  0  0  0  0
    9.2900   -2.8790   23.1660 C   0  0  1  0  0  0  0  0  0  0  0  0
    8.0110   -3.4240   23.5080 C   0  0  1  0  0  0  0  0  0  0  0  0
    7.0800   -3.1060   22.5250 C   0  0  0  0  0  0  0  0  0  0  0  0
    6.1340   -4.0150   22.0680 C   0  0  0  0  0  0  0  0  0  0  0  0
    5.6560   -4.9460   22.9860 C   0  0  2  0  0  0  0  0  0  0  0  0
    4.7820   -4.4700   24.0020 N   0  0  0  0  0  0  0  0  0  0  0  0
    3.4540   -3.9260   23.7330 C   0  0  0  0  0  0  0  0  0  0  0  0
    2.9610   -3.5120   24.9750 C   0  0  0  0  0  0  0  0  0  0  0  0
    1.3620   -4.2150   25.3750 S   0  0  0  0  0  0  0  0  0  0  0  0
    1.4930   -4.9180   26.6330 O   0  0  0  0  0  0  0  0  0  0  0  0
    0.3890   -3.1480   25.2860 O   0  0  0  0  0  0  0  0  0  0  0  0
    1.3580   -5.2560   24.3730 O   0  0  0  0  0  0  0  0  0  0  0  0
    6.7270   -5.6100   23.7880 C   0  0  0  0  0  0  0  0  0  0  0  0
    7.9370   -4.9660   23.7060 C   0  0  0  0  0  0  0  0  0  0  0  0
    9.2930   -1.6350   22.7280 C   0  0  0  0  0  0  0  0  0  0  0  0
   10.6130   -1.6700   23.3410 C   0  0  0  0  0  0  0  0  0  0  0  0
   11.5570   -0.6890   23.3730 C   0  0  0  0  0  0  0  0  0  0  0  0
   12.9100   -0.5150   23.9160 C   0  0  0  0  0  0  0  0  0  0  0  0
   13.3600   -1.6230   24.5910 C   0  0  0  0  0  0  0  0  0  0  0  0
   12.4630   -2.7720   24.6720 C   0  0  0  0  0  0  0  0  0  0  0  0
   13.0510   -3.7670   25.3880 O   0  0  0  0  0  0  0  0  0  0  0  0
   11.1480   -2.7950   24.0670 C   0  0  0  0  0  0  0  0  0  0  0  0
   10.4220   -3.9380   24.2290 O   0  0  0  0  0  0  0  0  0  0  0  0
  1  2  1  0
  3  2  1  1
  3  4  1  0
  4  5  1  0
  5  6  1  0
  6  7  1  6
  7  8  1  0
  8  9  1  0
  9 10  1  1
 10 11  1  0
 11 12  1  0
 12 13  1  0
 13 14  2  0
 13 15  2  0
 13 16  1  0
  9 17  1  0
  6 18  1  0
 17 18  1  0
  5 19  1  1
 19 20  1  0
  3 21  1  0
 20 21  2  0
 21 22  1  0
 22 23  2  0
 23 24  1  0
 24 25  1  0
 20 26  1  0
 24 26  2  0
 26 27  1  0
M  END
