MAK-UNK-de8f6d00-8
     RDKit          3D

 34 38  0  0  0  0  0  0  0  0999 V2000
    6.8390    1.5400   18.2610 O   0  0  0  0  0  0  0  0  0  0  0  0
    6.7990    1.4710   19.4970 C   0  0  0  0  0  0  0  0  0  0  0  0
    5.9970    0.4440   20.1070 N   0  0  0  0  0  0  0  0  0  0  0  0
    5.9980    0.3730   21.4420 C   0  0  0  0  0  0  0  0  0  0  0  0
    6.9490   -0.2620   22.2130 C   0  0  0  0  0  0  0  0  0  0  0  0
    6.8140   -0.2720   23.7290 C   0  0  0  0  0  0  0  0  0  0  0  0
    5.5990    0.4130   24.3950 C   0  0  0  0  0  0  0  0  0  0  0  0
    4.5540    1.0910   23.5330 C   0  0  0  0  0  0  0  0  0  0  0  0
    4.8580    1.0050   22.0170 C   0  0  0  0  0  0  0  0  0  0  0  0
    7.5030    2.3120   20.3590 N   0  0  0  0  0  0  0  0  0  0  0  0
    8.3360    1.9790   21.4000 C   0  0  0  0  0  0  0  0  0  0  0  0
    7.9700    0.7470   22.1790 C   0  0  0  0  0  0  0  0  0  0  0  0
    8.9920    0.4510   23.2730 C   0  0  0  0  0  0  0  0  0  0  0  0
    9.7060    1.4860   22.9520 C   0  0  0  0  0  0  0  0  0  0  0  0
   10.6200    1.0790   23.8580 N   0  0  0  0  0  0  0  0  0  0  0  0
   10.2440   -0.1560   24.5670 C   0  0  0  0  0  0  0  0  0  0  0  0
    9.6970   -1.0310   23.5970 C   0  0  0  0  0  0  0  0  0  0  0  0
   10.2520   -0.7040   22.2890 N   0  0  0  0  0  0  0  0  0  0  0  0
    9.5280   -0.2210   21.1660 C   0  0  0  0  0  0  0  0  0  0  0  0
   10.0840   -0.0520   20.0750 O   0  0  0  0  0  0  0  0  0  0  0  0
    8.1640    0.0770   21.3550 C   0  0  0  0  0  0  0  0  0  0  0  0
    7.2910   -0.2150   20.2860 C   0  0  0  0  0  0  0  0  0  0  0  0
    7.5910   -1.2390   19.4430 C   0  0  0  0  0  0  0  0  0  0  0  0
    6.4530   -1.0090   18.7140 N   0  0  0  0  0  0  0  0  0  0  0  0
    5.3980   -0.0780   18.7910 C   0  0  0  0  0  0  0  0  0  0  0  0
    4.4250    0.7990   18.8810 N   0  0  0  0  0  0  0  0  0  0  0  0
    3.9310    1.8670   19.5600 C   0  0  0  0  0  0  0  0  0  0  0  0
    4.6710    2.3770   20.6650 C   0  0  0  0  0  0  0  0  0  0  0  0
    5.7770    1.6890   20.9060 C   0  0  0  0  0  0  0  0  0  0  0  0
    6.1230    0.4920   20.0110 C   0  0  0  0  0  0  0  0  0  0  0  0
   11.6930   -0.2980   22.4470 C   0  0  0  0  0  0  0  0  0  0  0  0
   11.9270    0.8130   23.2320 C   0  0  0  0  0  0  0  0  0  0  0  0
   10.4050    2.5000   22.6370 N   0  0  0  0  0  0  0  0  0  0  0  0
    9.5130    2.7800   21.6590 C   0  0  0  0  0  0  0  0  0  0  0  0
  1  2  2  0
  2  3  1  0
  3  4  1  0
  4  5  2  0
  5  6  1  0
  6  7  2  0
  7  8  1  0
  4  9  1  0
  8  9  2  0
  2 10  1  0
 10 11  1  0
 11 12  2  0
 12 13  1  0
 13 14  2  0
 14 15  1  0
 15 16  1  0
 16 17  1  0
 17 18  1  0
 18 19  1  0
 19 20  2  0
 19 21  1  0
 21 22  1  0
 22 23  2  0
 23 24  1  0
 24 25  1  0
 25 26  1  0
 26 27  2  0
 27 28  1  0
 28 29  2  0
 22 30  1  0
 25 30  2  0
 29 30  1  0
 18 31  1  0
 15 32  1  0
 31 32  1  0
 14 33  1  0
 11 34  1  0
 33 34  2  0
M  END
