MAK-UNK-f2409524-11
     RDKit          3D

 28 31  0  0  0  0  0  0  0  0999 V2000
    5.4070    3.6180   26.2940 O   0  0  0  0  0  0  0  0  0  0  0  0
    4.9270    3.7940   25.1790 C   0  0  0  0  0  0  0  0  0  0  0  0
    3.5040    3.4070   24.8870 C   0  0  0  0  0  0  0  0  0  0  0  0
    3.0490    3.0260   23.5430 C   0  0  0  0  0  0  0  0  0  0  0  0
    1.7860    2.6970   23.1200 N   0  0  0  0  0  0  0  0  0  0  0  0
    0.7100    3.5420   23.3100 C   0  0  0  0  0  0  0  0  0  0  0  0
    0.6870    4.1750   24.5720 C   0  0  0  0  0  0  0  0  0  0  0  0
   -0.4780    4.8660   24.9280 C   0  0  0  0  0  0  0  0  0  0  0  0
   -1.5610    4.6260   24.0550 C   0  0  0  0  0  0  0  0  0  0  0  0
   -1.7490    3.1700   23.6380 C   0  0  0  0  0  0  0  0  0  0  0  0
   -0.3950    2.6910   23.1030 C   0  0  0  0  0  0  0  0  0  0  0  0
    4.1790    3.0870   22.7100 N   0  0  0  0  0  0  0  0  0  0  0  0
    5.0150    1.9790   22.5260 C   0  0  2  0  0  0  0  0  0  0  0  0
    5.6720    2.1860   21.4720 O   0  0  0  0  0  0  0  0  0  0  0  0
    5.7560    1.0690   20.5390 C   0  0  0  0  0  0  0  0  0  0  0  0
    4.7450    0.2260   20.9750 C   0  0  2  0  0  0  0  0  0  0  0  0
    3.6450    0.3300   20.1810 O   0  0  0  0  0  0  0  0  0  0  0  0
    4.5480    0.5090   22.4570 C   0  0  2  0  0  0  0  0  0  0  0  0
    3.2120    0.1460   22.9300 N   0  0  0  0  0  0  0  0  0  0  0  0
    3.0770   -0.5270   24.2460 C   0  0  0  0  0  0  0  0  0  0  0  0
    1.7620   -0.3760   24.9850 C   0  0  0  0  0  0  0  0  0  0  0  0
    1.4400   -0.9070   26.1820 N   0  0  0  0  0  0  0  0  0  0  0  0
    2.4670   -1.6310   26.6880 C   0  0  0  0  0  0  0  0  0  0  0  0
    3.6970   -1.8520   26.1390 N   0  0  0  0  0  0  0  0  0  0  0  0
    3.9650   -1.3090   24.9640 C   0  0  0  0  0  0  0  0  0  0  0  0
    4.9360    4.2430   22.8780 C   0  0  0  0  0  0  0  0  0  0  0  0
    5.0940    5.1450   22.0590 O   0  0  0  0  0  0  0  0  0  0  0  0
    5.5370    4.3320   24.1010 N   0  0  0  0  0  0  0  0  0  0  0  0
  1  2  2  0
  2  3  1  0
  3  4  2  0
  4  5  1  0
  5  6  1  0
  6  7  1  0
  7  8  1  0
  8  9  1  0
  9 10  1  0
  6 11  1  0
 10 11  1  0
  4 12  1  0
 13 12  1  6
 13 14  1  0
 14 15  1  0
 15 16  1  0
 16 17  1  6
 13 18  1  0
 16 18  1  0
 18 19  1  6
 19 20  1  0
 20 21  2  0
 21 22  1  0
 22 23  2  0
 23 24  1  0
 20 25  1  0
 24 25  2  0
 12 26  1  0
 26 27  2  0
  2 28  1  0
 26 28  1  0
M  END
