MAK-UNK-acefcb18-24
     RDKit          3D

 28 30  0  0  0  0  0  0  0  0999 V2000
   21.4370    4.7540   25.9370 C   0  0  0  0  0  0  0  0  0  0  0  0
   20.1160    4.7460   25.1270 C   0  0  0  0  0  0  0  0  0  0  0  0
   19.1190    3.6030   25.3610 C   0  0  0  0  0  0  0  0  0  0  0  0
   17.8500    3.6470   24.5660 C   0  0  0  0  0  0  0  0  0  0  0  0
   17.3790    4.5680   23.5650 C   0  0  0  0  0  0  0  0  0  0  0  0
   16.0030    4.4530   22.7890 O   0  0  0  0  0  0  0  0  0  0  0  0
   15.0550    3.3120   22.0770 C   0  0  0  0  0  0  0  0  0  0  0  0
   13.6540    2.7850   22.6070 C   0  0  0  0  0  0  0  0  0  0  0  0
   13.0230    3.7140   23.1410 O   0  0  0  0  0  0  0  0  0  0  0  0
   12.8340    1.4690   22.6140 C   0  0  0  0  0  0  0  0  0  0  0  0
   11.4130    1.5920   23.1250 C   0  0  0  0  0  0  0  0  0  0  0  0
   10.7050    0.3990   23.1060 C   0  0  0  0  0  0  0  0  0  0  0  0
    9.3680    0.1250   23.4890 C   0  0  0  0  0  0  0  0  0  0  0  0
    9.1200   -1.2260   24.0280 N   0  0  0  0  0  0  0  0  0  0  0  0
   10.1390   -2.1480   24.1420 C   0  0  0  0  0  0  0  0  0  0  0  0
    9.7360   -3.4300   23.9580 C   0  0  0  0  0  0  0  0  0  0  0  0
    8.3700   -3.7830   23.9230 C   0  0  0  0  0  0  0  0  0  0  0  0
    8.3430   -4.9530   24.2390 O   0  0  0  0  0  0  0  0  0  0  0  0
    7.4670   -2.9440   24.5800 C   0  0  0  0  0  0  0  0  0  0  0  0
    7.7300   -1.5830   24.4300 C   0  0  0  0  0  0  0  0  0  0  0  0
   11.5040   -0.5300   22.6350 O   0  0  0  0  0  0  0  0  0  0  0  0
   12.7400    0.0100   22.3240 C   0  0  0  0  0  0  0  0  0  0  0  0
   13.3550   -1.1920   21.8300 C   0  0  0  0  0  0  0  0  0  0  0  0
   12.3440   -2.0310   21.4910 F   0  0  0  0  0  0  0  0  0  0  0  0
   13.9440   -1.9140   22.7980 F   0  0  0  0  0  0  0  0  0  0  0  0
   13.9820   -1.1180   20.6390 F   0  0  0  0  0  0  0  0  0  0  0  0
   18.4490    5.6120   23.4450 C   0  0  0  0  0  0  0  0  0  0  0  0
   19.7150    5.7180   24.1490 C   0  0  0  0  0  0  0  0  0  0  0  0
  1  2  1  0
  2  3  2  0
  3  4  1  0
  4  5  2  0
  5  6  1  0
  6  7  1  0
  7  8  1  0
  8  9  2  0
  8 10  1  0
 10 11  1  0
 11 12  2  0
 12 13  1  0
 13 14  1  0
 14 15  1  0
 15 16  1  0
 16 17  1  0
 17 18  1  0
 17 19  1  0
 14 20  1  0
 19 20  1  0
 12 21  1  0
 10 22  2  0
 21 22  1  0
 22 23  1  0
 23 24  1  0
 23 25  1  0
 23 26  1  0
  5 27  1  0
  2 28  1  0
 27 28  2  0
M  END
