MAK-UNK-de9577cf-22
     RDKit          3D

 37 40  0  0  0  0  0  0  0  0999 V2000
   13.3350    0.1680   22.4490 C   0  0  0  0  0  0  0  0  0  0  0  0
   12.9450   -0.5000   23.5970 N   0  0  0  0  0  0  0  0  0  0  0  0
   12.2980    0.3470   24.6210 C   0  0  0  0  0  0  0  0  0  0  0  0
   10.8930   -0.1790   24.8110 C   0  0  0  0  0  0  0  0  0  0  0  0
   10.0530   -0.3750   25.9220 C   0  0  0  0  0  0  0  0  0  0  0  0
    8.8130   -0.9490   25.6290 C   0  0  0  0  0  0  0  0  0  0  0  0
    7.8080   -1.2700   26.5400 C   0  0  0  0  0  0  0  0  0  0  0  0
    7.6280   -2.6030   26.9160 C   0  0  0  0  0  0  0  0  0  0  0  0
    6.6450   -2.9900   27.8380 C   0  0  0  0  0  0  0  0  0  0  0  0
    5.7250   -1.9860   28.4730 C   0  0  0  0  0  0  0  0  0  0  0  0
    5.9740   -0.6870   28.0400 C   0  0  0  0  0  0  0  0  0  0  0  0
    6.9590   -0.3010   27.1180 C   0  0  0  0  0  0  0  0  0  0  0  0
    7.0740    0.9980   26.8060 F   0  0  0  0  0  0  0  0  0  0  0  0
    9.0300   -1.0450   24.2570 N   0  0  0  0  0  0  0  0  0  0  0  0
    8.6250   -1.4390   22.7450 S   0  0  2  0  0  0  0  0  0  0  0  0
    7.5370   -1.5050   23.7030 O   0  0  0  0  0  0  0  0  0  0  0  0
   10.4310   -1.0850   22.9140 C   0  0  0  0  0  0  0  0  0  0  0  0
   11.4070   -1.0010   22.1560 O   0  0  0  0  0  0  0  0  0  0  0  0
   12.5640   -0.4310   22.7210 C   0  0  0  0  0  0  0  0  0  0  0  0
   13.4920    0.2200   23.2070 O   0  0  0  0  0  0  0  0  0  0  0  0
   11.9250    0.8810   22.7040 C   0  0  0  0  0  0  0  0  0  0  0  0
   10.5660    1.0540   22.5950 C   0  0  0  0  0  0  0  0  0  0  0  0
    9.9980    2.3390   22.5510 C   0  0  0  0  0  0  0  0  0  0  0  0
   10.5110    3.7690   22.6010 C   0  0  0  0  0  0  0  0  0  0  0  0
   11.4270    5.2200   22.6890 S   0  0  0  0  0  0  0  0  0  0  0  0
   10.0830    6.2130   22.5210 N   0  0  0  0  0  0  0  0  0  0  0  0
   12.2000    5.4810   21.5210 O   0  0  0  0  0  0  0  0  0  0  0  0
   11.9630    5.5030   23.9820 O   0  0  0  0  0  0  0  0  0  0  0  0
   11.8190    3.0900   22.7180 C   0  0  0  0  0  0  0  0  0  0  0  0
   12.5600    2.1410   22.7800 C   0  0  0  0  0  0  0  0  0  0  0  0
    7.4020   -1.8000   21.5880 C   0  0  0  0  0  0  0  0  0  0  0  0
    6.5990   -2.9420   21.7660 C   0  0  0  0  0  0  0  0  0  0  0  0
    5.6240   -3.1660   20.8110 C   0  0  0  0  0  0  0  0  0  0  0  0
    5.5220   -2.1570   19.6790 C   0  0  0  0  0  0  0  0  0  0  0  0
    6.2930   -1.0610   19.5110 N   0  0  0  0  0  0  0  0  0  0  0  0
    7.2300   -0.9200   20.4960 C   0  0  0  0  0  0  0  0  0  0  0  0
   10.1910   -0.6010   23.8450 C   0  0  0  0  0  0  0  0  0  0  0  0
  1  2  1  0
  2  3  1  0
  3  4  1  0
  4  5  1  0
  5  6  2  0
  6  7  1  0
  7  8  2  0
  8  9  1  0
  9 10  2  0
 10 11  1  0
  7 12  1  0
 11 12  2  0
 12 13  1  0
  6 14  1  0
 14 15  1  0
 15 16  2  0
 15 17  2  0
 17 18  1  0
 18 19  1  0
 19 20  2  0
 19 21  1  0
 21 22  2  0
 22 23  1  0
 23 24  2  0
 24 25  1  0
 25 26  1  0
 25 27  2  0
 25 28  2  0
 24 29  1  0
 21 30  1  0
 29 30  2  0
 15 31  1  6
 31 32  2  0
 32 33  1  0
 33 34  2  0
 34 35  1  0
 31 36  1  0
 35 36  2  0
  4 37  2  0
 14 37  1  0
M  END
