MAK-UNK-07311286-4
     RDKit          3D

 23 24  0  0  0  0  0  0  0  0999 V2000
    5.4800   -4.7780   22.2100 N   0  0  0  0  0  0  0  0  0  0  0  0
    6.5130   -5.7310   23.1000 S   0  0  0  0  0  0  0  0  0  0  0  0
    6.4700   -7.0850   22.6060 O   0  0  0  0  0  0  0  0  0  0  0  0
    7.7560   -5.0250   23.1440 O   0  0  0  0  0  0  0  0  0  0  0  0
    5.7780   -5.6800   24.7200 C   0  0  0  0  0  0  0  0  0  0  0  0
    4.4170   -6.3100   24.8290 C   0  0  0  0  0  0  0  0  0  0  0  0
    3.7620   -6.3280   26.0540 C   0  0  0  0  0  0  0  0  0  0  0  0
    4.3790   -5.7600   27.1700 C   0  0  0  0  0  0  0  0  0  0  0  0
    3.4630   -5.8000   28.8240 Br  0  0  0  0  0  0  0  0  0  0  0  0
    5.6570   -5.1640   27.0880 C   0  0  0  0  0  0  0  0  0  0  0  0
    6.3640   -5.1130   25.8880 C   0  0  0  0  0  0  0  0  0  0  0  0
    7.9760   -4.3180   25.9660 S   0  0  0  0  0  0  0  0  0  0  0  0
    9.0080   -5.2910   25.6860 O   0  0  0  0  0  0  0  0  0  0  0  0
    8.0270   -3.5930   27.2150 O   0  0  0  0  0  0  0  0  0  0  0  0
    7.9220   -3.1420   24.7570 N   0  0  0  0  0  0  0  0  0  0  0  0
    8.8640   -3.1060   23.6180 C   0  0  0  0  0  0  0  0  0  0  0  0
    9.0250   -1.6810   23.1120 C   0  0  0  0  0  0  0  0  0  0  0  0
   10.4750   -1.2160   22.8460 C   0  0  0  0  0  0  0  0  0  0  0  0
   10.7830    0.2140   23.2310 C   0  0  0  0  0  0  0  0  0  0  0  0
   12.0600    0.7640   23.0580 C   0  0  0  0  0  0  0  0  0  0  0  0
   13.0800   -0.0040   22.5280 C   0  0  0  0  0  0  0  0  0  0  0  0
   12.8250   -1.3060   22.1590 C   0  0  0  0  0  0  0  0  0  0  0  0
   11.5000   -1.9720   22.3010 C   0  0  0  0  0  0  0  0  0  0  0  0
  2  1  1  0
  2  3  2  0
  2  4  2  0
  2  5  1  0
  5  6  2  0
  6  7  1  0
  7  8  2  0
  8  9  1  0
  8 10  1  0
  5 11  1  0
 10 11  2  0
 11 12  1  0
 12 13  2  0
 12 14  2  0
 12 15  1  0
 15 16  1  0
 16 17  1  0
 17 18  1  0
 18 19  2  0
 19 20  1  0
 20 21  2  0
 21 22  1  0
 18 23  1  0
 22 23  2  0
M  END
