MAK-UNK-de9577cf-6
     RDKit          3D

 37 40  0  0  0  0  0  0  0  0999 V2000
    8.5670   -4.7740   25.7460 C   0  0  0  0  0  0  0  0  0  0  0  0
    7.4210   -5.3570   25.2060 N   0  0  0  0  0  0  0  0  0  0  0  0
    6.4620   -4.8000   24.3210 C   0  0  0  0  0  0  0  0  0  0  0  0
    6.8780   -3.6920   23.5780 C   0  0  0  0  0  0  0  0  0  0  0  0
    8.1710   -3.3480   23.3750 C   0  0  0  0  0  0  0  0  0  0  0  0
    8.4210   -2.2480   22.6400 C   0  0  0  0  0  0  0  0  0  0  0  0
    9.8950   -1.9160   22.4540 C   0  0  0  0  0  0  0  0  0  0  0  0
   10.5830   -2.5540   21.3720 C   0  0  0  0  0  0  0  0  0  0  0  0
   11.9530   -2.3510   21.1390 C   0  0  0  0  0  0  0  0  0  0  0  0
   12.6730   -1.5520   21.9440 C   0  0  0  0  0  0  0  0  0  0  0  0
   11.9940   -0.9610   22.9530 C   0  0  0  0  0  0  0  0  0  0  0  0
   12.6760   -0.1740   23.7770 O   0  0  0  0  0  0  0  0  0  0  0  0
   13.1230    0.6360   22.8500 C   0  0  0  0  0  0  0  0  0  0  0  0
   13.9830    0.3370   22.1030 O   0  0  0  0  0  0  0  0  0  0  0  0
   12.3870    1.8090   22.9400 C   0  0  0  0  0  0  0  0  0  0  0  0
   10.9310    1.7880   23.1470 C   0  0  0  0  0  0  0  0  0  0  0  0
    9.8800    2.8910   23.3710 C   0  0  0  0  0  0  0  0  0  0  0  0
   10.7920    4.0280   23.2910 C   0  0  0  0  0  0  0  0  0  0  0  0
    9.9910    5.5720   23.5730 S   0  0  0  0  0  0  0  0  0  0  0  0
    8.6510    5.5010   22.5740 N   0  0  0  0  0  0  0  0  0  0  0  0
   10.8430    6.6240   23.0740 O   0  0  0  0  0  0  0  0  0  0  0  0
    9.5130    5.5790   24.9390 O   0  0  0  0  0  0  0  0  0  0  0  0
   12.3190    4.3130   23.0340 C   0  0  0  0  0  0  0  0  0  0  0  0
   13.0120    2.9870   22.8610 C   0  0  0  0  0  0  0  0  0  0  0  0
   10.6560   -1.1240   23.1860 C   0  0  0  0  0  0  0  0  0  0  0  0
   10.1270   -0.5140   24.1540 F   0  0  0  0  0  0  0  0  0  0  0  0
    7.1370   -1.8030   22.3100 N   0  0  0  0  0  0  0  0  0  0  0  0
    6.6350   -0.4480   21.3910 S   0  0  0  0  0  0  0  0  0  0  0  0
    5.4200   -0.8690   20.7100 O   0  0  0  0  0  0  0  0  0  0  0  0
    7.7710    0.0780   20.6690 O   0  0  0  0  0  0  0  0  0  0  0  0
    6.1960    0.6990   22.6540 C   0  0  0  0  0  0  0  0  0  0  0  0
    6.7610    1.9690   22.6960 C   0  0  0  0  0  0  0  0  0  0  0  0
    6.3840    2.8390   23.7160 C   0  0  0  0  0  0  0  0  0  0  0  0
    5.4490    2.4000   24.6580 C   0  0  0  0  0  0  0  0  0  0  0  0
    4.8900    1.1680   24.6290 N   0  0  0  0  0  0  0  0  0  0  0  0
    5.2740    0.3360   23.6250 C   0  0  0  0  0  0  0  0  0  0  0  0
    6.1900   -2.6870   22.8830 C   0  0  0  0  0  0  0  0  0  0  0  0
  1  2  1  0
  2  3  1  0
  3  4  1  0
  4  5  1  0
  5  6  2  0
  6  7  1  0
  7  8  2  0
  8  9  1  0
  9 10  2  0
 10 11  1  0
 11 12  1  0
 12 13  1  0
 13 14  2  0
 13 15  1  0
 15 16  2  0
 16 17  1  0
 17 18  2  0
 18 19  1  0
 19 20  1  0
 19 21  2  0
 19 22  2  0
 18 23  1  0
 15 24  1  0
 23 24  2  0
  7 25  1  0
 11 25  2  0
 25 26  1  0
  6 27  1  0
 27 28  1  0
 28 29  2  0
 28 30  2  0
 28 31  1  0
 31 32  2  0
 32 33  1  0
 33 34  2  0
 34 35  1  0
 31 36  1  0
 35 36  2  0
  4 37  2  0
 27 37  1  0
M  END
