MAK-UNK-702fb7d3-3
     RDKit          3D

 43 48  0  0  0  0  0  0  0  0999 V2000
    6.9030    8.6060   23.0940 O   0  0  0  0  0  0  0  0  0  0  0  0
    7.6510    7.4050   22.7680 S   0  0  0  0  0  0  0  0  0  0  0  0
    7.8200    6.9950   21.3970 O   0  0  0  0  0  0  0  0  0  0  0  0
    9.2320    7.4890   23.5410 C   0  0  0  0  0  0  0  0  0  0  0  0
    9.4620    8.3430   24.7800 C   0  0  0  0  0  0  0  0  0  0  0  0
   10.7510    8.3280   25.3150 C   0  0  0  0  0  0  0  0  0  0  0  0
   11.7520    7.5540   24.7090 C   0  0  0  0  0  0  0  0  0  0  0  0
   11.5470    6.7940   23.6040 N   0  0  0  0  0  0  0  0  0  0  0  0
   10.3030    6.7780   23.0490 C   0  0  0  0  0  0  0  0  0  0  0  0
    6.9400    6.1180   23.5920 N   0  0  0  0  0  0  0  0  0  0  0  0
    6.5300    5.0320   22.9200 C   0  0  0  0  0  0  0  0  0  0  0  0
    5.9830    4.0860   23.7700 C   0  0  0  0  0  0  0  0  0  0  0  0
    5.4690    2.8450   23.3710 C   0  0  0  0  0  0  0  0  0  0  0  0
    6.6090    2.0280   22.8260 N   0  0  0  0  0  0  0  0  0  0  0  0
    7.2480    1.1490   23.8270 C   0  0  0  0  0  0  0  0  0  0  0  0
    7.3430   -0.2370   23.6770 C   0  0  0  0  0  0  0  0  0  0  0  0
    6.8020   -0.8030   22.5310 C   0  0  0  0  0  0  0  0  0  0  0  0
    7.3350   -0.0890   21.0520 Cl  0  0  0  0  0  0  0  0  0  0  0  0
    7.9380   -1.0890   24.5890 N   0  0  0  0  0  0  0  0  0  0  0  0
    7.2020   -1.8520   25.4100 C   0  0  0  0  0  0  0  0  0  0  0  0
    7.0620   -3.2480   24.8510 C   0  0  0  0  0  0  0  0  0  0  0  0
    5.8910   -4.0500   25.4000 C   0  0  0  0  0  0  0  0  0  0  0  0
    5.7300   -5.4100   24.7970 C   0  0  0  0  0  0  0  0  0  0  0  0
    6.5790   -5.8970   23.8120 C   0  0  0  0  0  0  0  0  0  0  0  0
    7.7010   -5.0280   23.3570 C   0  0  0  0  0  0  0  0  0  0  0  0
    7.9400   -3.7580   23.8610 C   0  0  0  0  0  0  0  0  0  0  0  0
    9.0960   -2.8070   23.3470 C   0  0  2  0  0  0  0  0  0  0  0  0
   10.6190   -2.7640   23.2750 C   0  0  0  0  0  0  0  0  0  0  0  0
   11.1500   -2.2110   22.1120 C   0  0  0  0  0  0  0  0  0  0  0  0
   12.6470   -2.0590   21.9960 C   0  0  0  0  0  0  0  0  0  0  0  0
   13.4170   -2.4780   23.0750 C   0  0  0  0  0  0  0  0  0  0  0  0
   12.8360   -3.0160   24.1800 C   0  0  0  0  0  0  0  0  0  0  0  0
   11.4870   -3.1640   24.2760 C   0  0  0  0  0  0  0  0  0  0  0  0
    9.1000   -1.5580   24.1830 C   0  0  0  0  0  0  0  0  0  0  0  0
    6.0810    4.6800   25.0680 C   0  0  0  0  0  0  0  0  0  0  0  0
    6.6810    5.9490   24.9510 C   0  0  0  0  0  0  0  0  0  0  0  0
    6.9790    6.8940   26.0270 C   0  0  0  0  0  0  0  0  0  0  0  0
    6.6860    8.2600   25.8970 C   0  0  0  0  0  0  0  0  0  0  0  0
    6.9790    9.1520   26.9310 C   0  0  0  0  0  0  0  0  0  0  0  0
    7.5710    8.6960   28.1120 C   0  0  0  0  0  0  0  0  0  0  0  0
    7.8660    7.3400   28.2550 C   0  0  0  0  0  0  0  0  0  0  0  0
    7.5720    6.4540   27.2250 C   0  0  0  0  0  0  0  0  0  0  0  0
    7.8700    5.1550   27.3990 F   0  0  0  0  0  0  0  0  0  0  0  0
  1  2  2  0
  2  3  2  0
  2  4  1  0
  4  5  2  0
  5  6  1  0
  6  7  2  0
  7  8  1  0
  4  9  1  0
  8  9  2  0
  2 10  1  0
 10 11  1  0
 11 12  2  0
 12 13  1  0
 13 14  1  0
 14 15  1  0
 15 16  2  3
 16 17  1  0
 17 18  1  0
 16 19  1  0
 19 20  1  0
 20 21  1  0
 21 22  2  0
 22 23  1  0
 23 24  2  0
 24 25  1  0
 21 26  1  0
 25 26  2  0
 26 27  1  0
 27 28  1  1
 28 29  2  0
 29 30  1  0
 30 31  2  0
 31 32  1  0
 28 33  1  0
 32 33  2  0
 19 34  1  0
 27 34  1  0
 12 35  1  0
 10 36  1  0
 35 36  2  0
 36 37  1  0
 37 38  2  0
 38 39  1  0
 39 40  2  0
 40 41  1  0
 37 42  1  0
 41 42  2  0
 42 43  1  0
M  END
