MAK-UNK-f2409524-5
     RDKit          3D

 34 38  0  0  0  0  0  0  0  0999 V2000
    2.9110    2.0530   24.7370 O   0  0  0  0  0  0  0  0  0  0  0  0
    2.7970    2.5770   23.5540 C   0  0  0  0  0  0  0  0  0  0  0  0
    3.8370    2.4730   22.6690 N   0  0  0  0  0  0  0  0  0  0  0  0
    4.9910    1.6510   22.9040 C   0  0  0  0  0  0  0  0  0  0  0  0
    5.1980    1.4210   24.0450 O   0  0  0  0  0  0  0  0  0  0  0  0
    5.8650    1.0770   22.0090 C   0  0  0  0  0  0  0  0  0  0  0  0
    7.1440    1.0720   22.4820 N   0  0  0  0  0  0  0  0  0  0  0  0
    8.1770    0.5460   21.7090 C   0  0  0  0  0  0  0  0  0  0  0  0
    9.1600    0.8720   22.7540 C   0  0  0  0  0  0  0  0  0  0  0  0
   10.5960    0.2990   22.4630 C   0  0  0  0  0  0  0  0  0  0  0  0
   12.0110   -0.3500   22.0170 Cl  0  0  0  0  0  0  0  0  0  0  0  0
   10.0960   -0.2250   21.0620 C   0  0  0  0  0  0  0  0  0  0  0  0
    8.6100    0.0150   20.8880 C   0  0  0  0  0  0  0  0  0  0  0  0
    7.2140    0.3060   20.8620 C   0  0  0  0  0  0  0  0  0  0  0  0
    6.0570    0.5480   20.8410 C   0  0  0  0  0  0  0  0  0  0  0  0
    5.1610    0.3350   19.8110 C   0  0  0  0  0  0  0  0  0  0  0  0
    5.2190   -0.3510   18.6910 C   0  0  0  0  0  0  0  0  0  0  0  0
    5.8560   -1.0270   18.0090 N   0  0  0  0  0  0  0  0  0  0  0  0
    4.4280   -0.4110   17.9020 C   0  0  0  0  0  0  0  0  0  0  0  0
    4.0750    0.4660   19.1460 N   0  0  0  0  0  0  0  0  0  0  0  0
    2.8860    1.2360   19.4920 C   0  0  0  0  0  0  0  0  0  0  0  0
    3.1240    2.5490   19.7910 C   0  0  0  0  0  0  0  0  0  0  0  0
    4.4260    3.2360   20.2530 C   0  0  0  0  0  0  0  0  0  0  0  0
    4.4320    4.5250   20.4270 N   0  0  0  0  0  0  0  0  0  0  0  0
    3.2460    5.2550   20.1670 C   0  0  0  0  0  0  0  0  0  0  0  0
    2.0680    4.7630   19.7650 N   0  0  0  0  0  0  0  0  0  0  0  0
    2.1010    3.4250   19.6260 C   0  0  0  0  0  0  0  0  0  0  0  0
    1.6310    3.3320   23.2840 N   0  0  0  0  0  0  0  0  0  0  0  0
    0.5610    3.1320   24.2080 C   0  0  0  0  0  0  0  0  0  0  0  0
    0.5340    4.4560   24.9630 C   0  0  0  0  0  0  0  0  0  0  0  0
   -0.9220    5.0530   25.0170 C   0  0  0  0  0  0  0  0  0  0  0  0
   -1.7430    4.8150   24.0170 C   0  0  0  0  0  0  0  0  0  0  0  0
   -1.9730    3.3620   23.8820 C   0  0  0  0  0  0  0  0  0  0  0  0
   -0.6620    2.7060   23.5600 C   0  0  0  0  0  0  0  0  0  0  0  0
  1  2  2  0
  2  3  1  0
  3  4  1  0
  4  5  2  0
  4  6  1  0
  6  7  1  0
  7  8  1  0
  8  9  2  0
  9 10  1  0
 10 11  1  0
 10 12  2  0
 12 13  1  0
  8 14  1  0
 13 14  2  0
  6 15  2  0
 14 15  1  0
 15 16  1  0
 16 17  2  0
 17 18  1  0
 18 19  2  0
 16 20  1  0
 19 20  1  0
 20 21  1  0
 21 22  1  0
 22 23  2  0
 23 24  1  0
 24 25  2  0
 25 26  1  0
 22 27  1  0
 26 27  2  0
  2 28  1  0
 28 29  1  0
 29 30  1  0
 30 31  1  0
 31 32  1  0
 32 33  1  0
 29 34  1  0
 33 34  1  0
M  END
