MAK-UNK-b1d4dcd7-1
     RDKit          3D

 32 36  0  0  0  0  0  0  0  0999 V2000
    4.8100   -3.1970   21.4150 O   0  0  0  0  0  0  0  0  0  0  0  0
    5.4070   -2.1200   21.5920 C   0  0  0  0  0  0  0  0  0  0  0  0
    5.1150   -0.9710   20.8600 C   0  0  1  0  0  0  0  0  0  0  0  0
    5.1520    0.4080   21.4620 N   0  0  0  0  0  0  0  0  0  0  0  0
    6.3290    1.1680   21.9420 C   0  0  0  0  0  0  0  0  0  0  0  0
    7.4540    1.5580   21.3310 N   0  0  0  0  0  0  0  0  0  0  0  0
    8.2100    2.2650   22.2630 C   0  0  0  0  0  0  0  0  0  0  0  0
    9.5460    2.9470   22.1980 C   0  0  0  0  0  0  0  0  0  0  0  0
    9.9560    3.5620   23.3990 C   0  0  0  0  0  0  0  0  0  0  0  0
    9.1760    3.5430   24.5730 C   0  0  0  0  0  0  0  0  0  0  0  0
    7.9340    2.9120   24.6400 C   0  0  0  0  0  0  0  0  0  0  0  0
    7.5570    2.3160   23.4490 C   0  0  0  0  0  0  0  0  0  0  0  0
    6.3090    1.5940   23.2550 N   0  0  0  0  0  0  0  0  0  0  0  0
    5.8740   -1.3560   19.7530 C   0  0  0  0  0  0  0  0  0  0  0  0
    6.9380   -2.0640   20.1510 C   0  0  0  0  0  0  0  0  0  0  0  0
    7.7640   -2.5730   19.2610 C   0  0  0  0  0  0  0  0  0  0  0  0
    7.5090   -2.3850   17.9320 C   0  0  0  0  0  0  0  0  0  0  0  0
    6.4060   -1.6550   17.4970 C   0  0  0  0  0  0  0  0  0  0  0  0
    5.5690   -1.1010   18.3730 C   0  0  0  0  0  0  0  0  0  0  0  0
    4.5120   -0.3780   17.9320 O   0  0  0  0  0  0  0  0  0  0  0  0
    6.4630   -2.0030   22.4190 N   0  0  0  0  0  0  0  0  0  0  0  0
    7.5530   -1.0570   22.0900 C   0  0  0  0  0  0  0  0  0  0  0  0
    8.7940   -1.6510   22.0560 C   0  0  0  0  0  0  0  0  0  0  0  0
    9.0330   -2.3640   23.3010 N   0  0  0  0  0  0  0  0  0  0  0  0
   10.4580   -2.6360   23.4740 C   0  0  0  0  0  0  0  0  0  0  0  0
   11.1790   -1.4690   23.2930 C   0  0  0  0  0  0  0  0  0  0  0  0
   12.5530   -1.5020   23.1000 C   0  0  0  0  0  0  0  0  0  0  0  0
   13.1000   -0.2180   22.9240 C   0  0  0  0  0  0  0  0  0  0  0  0
   12.1440    0.7750   22.9840 C   0  0  0  0  0  0  0  0  0  0  0  0
   10.5840    0.1340   23.2530 S   0  0  0  0  0  0  0  0  0  0  0  0
    8.1620   -3.5400   23.1810 C   0  0  0  0  0  0  0  0  0  0  0  0
    6.8110   -3.2440   23.1360 C   0  0  0  0  0  0  0  0  0  0  0  0
  1  2  2  0
  2  3  1  0
  3  4  1  1
  4  5  1  0
  5  6  2  0
  6  7  1  0
  7  8  2  0
  8  9  1  0
  9 10  2  0
 10 11  1  0
  7 12  1  0
 11 12  2  0
  5 13  1  0
 12 13  1  0
  3 14  1  0
 14 15  2  0
 15 16  1  0
 16 17  2  0
 17 18  1  0
 14 19  1  0
 18 19  2  0
 19 20  1  0
  2 21  1  0
 21 22  1  0
 22 23  1  0
 23 24  1  0
 24 25  1  0
 25 26  1  0
 26 27  2  0
 27 28  1  0
 28 29  2  0
 26 30  1  0
 29 30  1  0
 24 31  1  0
 21 32  1  0
 31 32  1  0
M  END
