MAK-UNK-902cc841-8
     RDKit          3D

 33 36  0  0  0  0  0  0  0  0999 V2000
    6.0130   -1.8880   18.5030 C   0  0  0  0  0  0  0  0  0  0  0  0
    5.7660   -2.7190   19.7150 C   0  0  0  0  0  0  0  0  0  0  0  0
    5.3530   -3.8860   19.6390 O   0  0  0  0  0  0  0  0  0  0  0  0
    6.0760   -2.1040   20.8950 N   0  0  0  0  0  0  0  0  0  0  0  0
    6.2030   -2.8440   22.1320 C   0  0  0  0  0  0  0  0  0  0  0  0
    7.5980   -3.4200   22.2390 C   0  0  0  0  0  0  0  0  0  0  0  0
    8.6720   -2.4380   21.9990 N   0  0  0  0  0  0  0  0  0  0  0  0
    9.5460   -2.4080   23.1390 C   0  0  2  0  0  0  0  0  0  0  0  0
    8.6630   -2.2780   24.3630 C   0  0  0  0  0  0  0  0  0  0  0  0
    7.4280   -2.2650   24.3700 O   0  0  0  0  0  0  0  0  0  0  0  0
    9.3930   -2.1710   25.4730 N   0  0  0  0  0  0  0  0  0  0  0  0
    9.6630   -3.5100   26.0390 C   0  0  0  0  0  0  0  0  0  0  0  0
   10.9520   -4.0720   25.4700 C   0  0  0  0  0  0  0  0  0  0  0  0
   12.0100   -3.0540   25.6710 N   0  0  0  0  0  0  0  0  0  0  0  0
   13.6610   -3.2650   25.7790 S   0  0  0  0  0  0  0  0  0  0  0  0
   14.1780   -2.1010   26.4120 O   0  0  0  0  0  0  0  0  0  0  0  0
   14.0490   -3.3820   24.4040 O   0  0  0  0  0  0  0  0  0  0  0  0
   14.2830   -4.7060   26.6530 C   0  0  0  0  0  0  0  0  0  0  0  0
   14.3850   -5.8290   26.2200 C   0  0  0  0  0  0  0  0  0  0  0  0
   14.8880   -7.2420   26.6130 C   0  0  0  0  0  0  0  0  0  0  0  0
   15.3730   -7.3750   27.4030 C   0  0  0  0  0  0  0  0  0  0  0  0
   15.2610   -6.2420   27.9670 C   0  0  0  0  0  0  0  0  0  0  0  0
   15.5890   -6.3480   28.8700 F   0  0  0  0  0  0  0  0  0  0  0  0
   14.7240   -4.9570   27.7490 C   0  0  0  0  0  0  0  0  0  0  0  0
   11.8070   -1.8750   24.8450 C   0  0  0  0  0  0  0  0  0  0  0  0
   10.5060   -1.2290   25.2530 C   0  0  0  0  0  0  0  0  0  0  0  0
   10.6670   -1.3480   23.1090 C   0  0  0  0  0  0  0  0  0  0  0  0
   11.9460   -1.4870   22.4460 C   0  0  0  0  0  0  0  0  0  0  0  0
   12.7630   -0.3840   22.5950 C   0  0  0  0  0  0  0  0  0  0  0  0
   12.0330    0.8380   23.5190 S   0  0  0  0  0  0  0  0  0  0  0  0
   10.6120   -0.0920   23.7320 C   0  0  0  0  0  0  0  0  0  0  0  0
    8.2480   -1.0820   21.6290 C   0  0  0  0  0  0  0  0  0  0  0  0
    6.9770   -0.9560   20.7800 C   0  0  0  0  0  0  0  0  0  0  0  0
  1  2  1  0
  2  3  2  0
  2  4  1  0
  4  5  1  0
  5  6  1  0
  6  7  1  0
  7  8  1  0
  8  9  1  1
  9 10  2  0
  9 11  1  0
 11 12  1  0
 12 13  1  0
 13 14  1  0
 14 15  1  0
 15 16  2  0
 15 17  2  0
 15 18  1  0
 18 19  2  0
 19 20  1  0
 20 21  2  0
 21 22  1  0
 22 23  1  0
 18 24  1  0
 22 24  2  0
 14 25  1  0
 11 26  1  0
 25 26  1  0
  8 27  1  0
 27 28  1  0
 28 29  2  0
 29 30  1  0
 27 31  2  0
 30 31  1  0
  7 32  1  0
  4 33  1  0
 32 33  1  0
M  END
