MAK-UNK-9e4a73aa-7
     RDKit          3D

 26 29  0  0  0  0  0  0  0  0999 V2000
    6.8410   -0.4240   24.9730 O   0  0  0  0  0  0  0  0  0  0  0  0
    6.6150   -1.5250   25.4340 C   0  0  0  0  0  0  0  0  0  0  0  0
    5.9370   -1.5840   26.6330 C   0  0  0  0  0  0  0  0  0  0  0  0
    5.8000   -0.4080   27.3860 C   0  0  0  0  0  0  0  0  0  0  0  0
    5.0590   -0.4500   28.6670 C   0  0  0  0  0  0  0  0  0  0  0  0
    4.9200    0.6700   29.3910 F   0  0  0  0  0  0  0  0  0  0  0  0
    4.4750   -1.7520   29.1280 C   0  0  0  0  0  0  0  0  0  0  0  0
    3.5920   -1.8840   30.6000 Cl  0  0  0  0  0  0  0  0  0  0  0  0
    4.6870   -2.8610   28.2870 C   0  0  0  0  0  0  0  0  0  0  0  0
    5.3990   -2.7840   27.0710 C   0  0  0  0  0  0  0  0  0  0  0  0
    5.5780   -3.9360   26.2620 N   0  0  0  0  0  0  0  0  0  0  0  0
    5.3490   -5.1660   26.9530 C   0  0  0  0  0  0  0  0  0  0  0  0
    4.3420   -5.9920   26.3650 C   0  0  0  0  0  0  0  0  0  0  0  0
    4.3960   -7.1810   27.4150 C   0  0  0  0  0  0  0  0  0  0  0  0
    5.1780   -7.3480   28.5370 C   0  0  0  0  0  0  0  0  0  0  0  0
    6.0820   -6.4140   28.9000 C   0  0  0  0  0  0  0  0  0  0  0  0
    6.1570   -5.3290   28.1020 C   0  0  0  0  0  0  0  0  0  0  0  0
    6.2950   -3.9110   25.0410 C   0  0  0  0  0  0  0  0  0  0  0  0
    6.3390   -5.2480   23.9750 S   0  0  0  0  0  0  0  0  0  0  0  0
    6.9770   -2.7040   24.7830 N   0  0  0  0  0  0  0  0  0  0  0  0
    7.3490   -2.3500   23.4320 C   0  0  0  0  0  0  0  0  0  0  0  0
    8.6420   -1.9360   23.1090 C   0  0  0  0  0  0  0  0  0  0  0  0
    8.9400   -1.5540   21.8020 C   0  0  0  0  0  0  0  0  0  0  0  0
    7.9110   -1.6010   20.8360 C   0  0  0  0  0  0  0  0  0  0  0  0
    6.6610   -2.0120   21.1060 N   0  0  0  0  0  0  0  0  0  0  0  0
    6.4160   -2.3730   22.3890 C   0  0  0  0  0  0  0  0  0  0  0  0
  1  2  2  0
  2  3  1  0
  3  4  2  0
  4  5  1  0
  5  6  1  0
  5  7  2  0
  7  8  1  0
  7  9  1  0
  3 10  1  0
  9 10  2  0
 10 11  1  0
 11 12  1  0
 12 13  2  0
 13 14  1  0
 14 15  2  0
 15 16  1  0
 12 17  1  0
 16 17  2  0
 11 18  1  0
 18 19  2  0
  2 20  1  0
 18 20  1  0
 20 21  1  0
 21 22  2  0
 22 23  1  0
 23 24  2  0
 24 25  1  0
 21 26  1  0
 25 26  2  0
M  END
