MAK-UNK-194150d3-3
     RDKit          3D

 18 18  0  0  0  0  0  0  0  0999 V2000
    0.4890    3.0020   20.3070 O   0  0  0  0  0  0  0  0  0  0  0  0
    1.3070    2.4470   19.5760 C   0  0  0  0  0  0  0  0  0  0  0  0
    2.6360    2.6580   19.3370 N   0  0  0  0  0  0  0  0  0  0  0  0
    3.2650    1.5330   18.9460 C   0  0  0  0  0  0  0  0  0  0  0  0
    4.6860    1.6670   18.8560 C   0  0  0  0  0  0  0  0  0  0  0  0
    5.4660    1.6960   20.4980 S   0  0  0  0  0  0  0  0  0  0  0  0
    7.2100    1.7810   19.9110 C   0  0  0  0  0  0  0  0  0  0  0  0
    7.9170    0.4350   19.8760 C   0  0  2  0  0  0  0  0  0  0  0  0
    7.4580   -0.3530   19.0580 O   0  0  0  0  0  0  0  0  0  0  0  0
    7.7910   -0.1240   21.1080 N   0  0  0  0  0  0  0  0  0  0  0  0
    8.7320    0.2770   22.0590 C   0  0  0  0  0  0  0  0  0  0  0  0
    9.3350   -0.7600   22.8120 C   0  0  0  0  0  0  0  0  0  0  0  0
   10.7200   -0.7360   23.0640 C   0  0  0  0  0  0  0  0  0  0  0  0
   11.3930   -0.0830   21.8000 C   0  0  0  0  0  0  0  0  0  0  0  0
   12.9310   -0.0790   22.2370 C   0  0  0  0  0  0  0  0  0  0  0  0
   12.7810   -0.6400   23.3940 C   0  0  0  0  0  0  0  0  0  0  0  0
   12.6530   -1.1270   24.3990 C   0  0  0  0  0  0  0  0  0  0  0  0
   11.3280   -1.2770   24.3410 C   0  0  0  0  0  0  0  0  0  0  0  0
  1  2  2  0
  2  3  1  0
  3  4  1  0
  4  5  1  0
  5  6  1  0
  6  7  1  0
  7  8  1  0
  8  9  1  6
  8 10  1  0
 10 11  1  0
 11 12  1  0
 12 13  1  0
 13 14  2  0
 14 15  1  0
 15 16  2  0
 16 17  1  0
 13 18  1  0
 17 18  2  0
M  END
