MAK-UNK-a7992eb3-17
     RDKit          3D

 25 28  0  0  0  0  0  0  0  0999 V2000
   -1.9310   -1.6930   26.8810 C   0  0  0  0  0  0  0  0  0  0  0  0
   -0.9440   -0.7760   26.9210 C   0  0  0  0  0  0  0  0  0  0  0  0
    0.4790   -1.1050   26.9290 C   0  0  0  0  0  0  0  0  0  0  0  0
    0.7730   -2.6150   26.8880 C   0  0  0  0  0  0  0  0  0  0  0  0
    2.0590   -3.1150   26.8890 C   0  0  0  0  0  0  0  0  0  0  0  0
    2.4090   -3.8180   25.7310 C   0  0  0  0  0  0  0  0  0  0  0  0
    3.4680   -4.4710   25.7930 O   0  0  0  0  0  0  0  0  0  0  0  0
    4.5070   -4.0200   24.9170 C   0  0  0  0  0  0  0  0  0  0  0  0
    5.9610   -4.1840   25.3240 C   0  0  0  0  0  0  0  0  0  0  0  0
    6.7450   -3.7530   24.1130 C   0  0  0  0  0  0  0  0  0  0  0  0
    6.0520   -3.2040   23.0230 N   0  0  0  0  0  0  0  0  0  0  0  0
    6.6430   -2.8550   21.8520 C   0  0  0  0  0  0  0  0  0  0  0  0
    6.4350   -4.0630   21.4110 C   0  0  0  0  0  0  0  0  0  0  0  0
    6.9870   -5.1280   22.0900 C   0  0  0  0  0  0  0  0  0  0  0  0
    6.6620   -6.2980   21.5630 C   0  0  0  0  0  0  0  0  0  0  0  0
    5.6470   -6.1050   20.1500 S   0  0  0  0  0  0  0  0  0  0  0  0
    5.6760   -4.3920   20.3270 C   0  0  0  0  0  0  0  0  0  0  0  0
    4.8720   -4.0490   22.6220 C   0  0  0  0  0  0  0  0  0  0  0  0
    4.3860   -4.8580   23.6470 C   0  0  0  0  0  0  0  0  0  0  0  0
    2.1380   -4.0920   28.1230 C   0  0  0  0  0  0  0  0  0  0  0  0
    3.3240   -3.5470   28.9740 C   0  0  0  0  0  0  0  0  0  0  0  0
    3.9170   -2.4840   28.3210 C   0  0  0  0  0  0  0  0  0  0  0  0
    3.1970   -2.2960   27.1740 C   0  0  0  0  0  0  0  0  0  0  0  0
   -0.3100   -3.5470   26.8460 N   0  0  0  0  0  0  0  0  0  0  0  0
   -1.5870   -3.0610   26.8440 C   0  0  0  0  0  0  0  0  0  0  0  0
  1  2  2  0
  2  3  1  0
  3  4  2  0
  4  5  1  0
  5  6  1  0
  6  7  1  0
  7  8  1  0
  8  9  1  0
  9 10  1  0
 10 11  1  0
 11 12  1  0
 12 13  1  0
 13 14  1  0
 14 15  2  0
 15 16  1  0
 13 17  2  0
 16 17  1  0
 11 18  1  0
  8 19  1  0
 18 19  1  0
  5 20  1  0
 20 21  1  0
 21 22  1  0
  5 23  1  0
 22 23  1  0
  4 24  1  0
  1 25  1  0
 24 25  2  0
M  END
