MAK-UNK-b1d4dcd7-6
     RDKit          3D

 29 32  0  0  0  0  0  0  0  0999 V2000
    6.1170   -1.8970   18.5870 C   0  0  0  0  0  0  0  0  0  0  0  0
    5.8850   -2.7540   19.7950 C   0  0  0  0  0  0  0  0  0  0  0  0
    5.4160   -3.9030   19.7140 O   0  0  0  0  0  0  0  0  0  0  0  0
    6.2840   -2.1460   20.9610 N   0  0  0  0  0  0  0  0  0  0  0  0
    6.6680   -0.7470   20.9800 C   0  0  0  0  0  0  0  0  0  0  0  0
    8.0370   -0.6310   21.0520 C   0  0  0  0  0  0  0  0  0  0  0  0
    8.6760   -1.3680   22.0550 N   0  0  0  0  0  0  0  0  0  0  0  0
    9.2960   -0.7290   23.2080 C   0  0  2  0  0  0  0  0  0  0  0  0
   10.4080    0.0640   23.0290 C   0  0  0  0  0  0  0  0  0  0  0  0
   11.7290   -0.4220   22.9360 C   0  0  0  0  0  0  0  0  0  0  0  0
   12.8040    0.5740   22.8180 C   0  0  0  0  0  0  0  0  0  0  0  0
   12.1360    1.9030   22.8270 C   0  0  0  0  0  0  0  0  0  0  0  0
   10.4110    1.7970   22.9540 S   0  0  0  0  0  0  0  0  0  0  0  0
    9.8790   -1.5250   24.0310 C   0  0  2  0  0  0  0  0  0  0  0  0
   10.9310   -1.8480   23.1420 C   0  0  2  0  0  0  0  0  0  0  0  0
   10.5810   -2.2100   22.0200 O   0  0  0  0  0  0  0  0  0  0  0  0
   11.7730   -2.7960   23.5750 C   0  0  0  0  0  0  0  0  0  0  0  0
   10.9520   -3.4910   24.3770 C   0  0  0  0  0  0  0  0  0  0  0  0
    9.5910   -3.6030   23.9870 C   0  0  0  0  0  0  0  0  0  0  0  0
    9.0130   -2.4060   24.4630 N   0  0  0  0  0  0  0  0  0  0  0  0
    7.5800   -2.0460   24.3190 C   0  0  0  0  0  0  0  0  0  0  0  0
    6.8260   -3.0260   24.9880 C   0  0  0  0  0  0  0  0  0  0  0  0
    6.3370   -2.7600   26.2640 C   0  0  0  0  0  0  0  0  0  0  0  0
    5.5800   -3.6940   26.9630 C   0  0  0  0  0  0  0  0  0  0  0  0
    5.2980   -4.9210   26.3820 C   0  0  0  0  0  0  0  0  0  0  0  0
    5.7670   -5.2270   25.1080 C   0  0  0  0  0  0  0  0  0  0  0  0
    6.5360   -4.2750   24.4100 C   0  0  0  0  0  0  0  0  0  0  0  0
    8.2700   -2.7980   22.1380 C   0  0  0  0  0  0  0  0  0  0  0  0
    6.8670   -2.9680   22.0090 C   0  0  0  0  0  0  0  0  0  0  0  0
  1  2  1  0
  2  3  2  0
  2  4  1  0
  4  5  1  0
  5  6  1  0
  6  7  1  0
  7  8  1  0
  8  9  1  6
  9 10  2  0
 10 11  1  0
 11 12  2  0
  9 13  1  0
 12 13  1  0
  8 14  1  0
 14 15  1  0
 15 16  1  6
 15 17  1  0
 17 18  1  0
 18 19  1  0
 14 20  1  6
 19 20  1  0
 20 21  1  0
 21 22  1  0
 22 23  2  0
 23 24  1  0
 24 25  2  0
 25 26  1  0
 22 27  1  0
 26 27  2  0
  7 28  1  0
  4 29  1  0
 28 29  1  0
M  END
