MAK-UNK-2084232d-6
     RDKit          3D

 20 22  0  0  0  0  0  0  0  0999 V2000
   12.7210   -2.3450   22.0800 N   0  0  0  0  0  0  0  0  0  0  0  0
   12.8650   -2.3960   23.3640 C   0  0  0  0  0  0  0  0  0  0  0  0
   11.5560   -2.0950   24.1570 C   0  0  2  0  0  0  0  0  0  0  0  0
   10.5210   -3.0210   24.0800 O   0  0  0  0  0  0  0  0  0  0  0  0
    9.3130   -2.8950   23.1480 C   0  0  1  0  0  0  0  0  0  0  0  0
    8.1370   -3.7390   23.1160 C   0  0  0  0  0  0  0  0  0  0  0  0
    7.1510   -3.3860   22.2520 C   0  0  0  0  0  0  0  0  0  0  0  0
    6.4940   -4.4830   21.7400 C   0  0  0  0  0  0  0  0  0  0  0  0
    5.9690   -5.3200   22.7080 C   0  0  0  0  0  0  0  0  0  0  0  0
    6.7900   -5.4960   23.8500 C   0  0  0  0  0  0  0  0  0  0  0  0
    7.6960   -4.4600   24.2120 C   0  0  0  0  0  0  0  0  0  0  0  0
    9.0200   -1.5540   23.5430 C   0  0  0  0  0  0  0  0  0  0  0  0
   10.3060   -1.6320   23.8520 C   0  0  0  0  0  0  0  0  0  0  0  0
   11.2420   -0.6500   23.6560 C   0  0  0  0  0  0  0  0  0  0  0  0
   12.7130   -0.4080   23.8620 C   0  0  0  0  0  0  0  0  0  0  0  0
   13.2890   -1.6310   24.4980 C   0  0  0  0  0  0  0  0  0  0  0  0
   12.3770   -2.7510   24.7790 C   0  0  0  0  0  0  0  0  0  0  0  0
   13.1520   -3.7420   25.3970 O   0  0  0  0  0  0  0  0  0  0  0  0
   10.9660   -2.7780   24.4650 C   0  0  0  0  0  0  0  0  0  0  0  0
   10.3300   -3.9380   24.7950 O   0  0  0  0  0  0  0  0  0  0  0  0
  1  2  1  0
  3  2  1  6
  3  4  1  0
  4  5  1  0
  5  6  1  1
  6  7  1  0
  7  8  1  0
  8  9  1  0
  9 10  1  0
  6 11  1  0
 10 11  1  0
  5 12  1  0
 12 13  1  0
  3 14  1  0
 13 14  2  0
 14 15  1  0
 15 16  2  0
 16 17  1  0
 17 18  1  0
 13 19  1  0
 17 19  2  0
 19 20  1  0
M  END
