MAK-UNK-acefcb18-19
     RDKit          3D

 21 23  0  0  0  0  0  0  0  0999 V2000
   11.3870    6.9270   23.6300 C   0  0  0  0  0  0  0  0  0  0  0  0
   11.7290    5.4710   23.3070 C   0  0  0  0  0  0  0  0  0  0  0  0
   10.7150    4.5270   23.4380 C   0  0  0  0  0  0  0  0  0  0  0  0
   10.9700    3.1760   23.1570 C   0  0  0  0  0  0  0  0  0  0  0  0
   12.2360    2.7490   22.7450 C   0  0  0  0  0  0  0  0  0  0  0  0
   12.5470    1.4310   22.4580 O   0  0  0  0  0  0  0  0  0  0  0  0
   11.7710    0.3810   22.9850 C   0  0  2  0  0  0  0  0  0  0  0  0
   12.1950   -0.9260   22.9540 C   0  0  0  0  0  0  0  0  0  0  0  0
   11.1250   -1.8150   23.1480 C   0  0  0  0  0  0  0  0  0  0  0  0
   10.0830   -1.3050   23.9380 C   0  0  2  0  0  0  0  0  0  0  0  0
    9.0580   -2.2590   24.3690 N   0  0  0  0  0  0  0  0  0  0  0  0
    9.2420   -3.5750   23.8220 C   0  0  0  0  0  0  0  0  0  0  0  0
    8.1500   -4.4510   23.8990 C   0  0  0  0  0  0  0  0  0  0  0  0
    6.8350   -4.1240   24.5860 C   0  0  0  0  0  0  0  0  0  0  0  0
    6.4060   -5.1210   25.5190 O   0  0  0  0  0  0  0  0  0  0  0  0
    6.7980   -2.7750   25.2540 C   0  0  0  0  0  0  0  0  0  0  0  0
    7.6870   -1.7890   24.5410 C   0  0  0  0  0  0  0  0  0  0  0  0
    9.4320   -0.0500   23.3340 C   0  0  0  0  0  0  0  0  0  0  0  0
   10.3310    0.5050   22.4470 C   0  0  0  0  0  0  0  0  0  0  0  0
   13.2150    3.7410   22.6320 C   0  0  0  0  0  0  0  0  0  0  0  0
   12.9820    5.0690   22.9000 C   0  0  0  0  0  0  0  0  0  0  0  0
  1  2  1  0
  2  3  2  0
  3  4  1  0
  4  5  2  0
  5  6  1  0
  7  6  1  6
  7  8  1  0
  8  9  1  0
  9 10  1  0
 10 11  1  6
 11 12  1  0
 12 13  1  0
 13 14  1  0
 14 15  1  0
 14 16  1  0
 11 17  1  0
 16 17  1  0
 10 18  1  0
  7 19  1  0
 18 19  1  0
  5 20  1  0
  2 21  1  0
 20 21  2  0
M  END
