MAK-UNK-2084232d-10
     RDKit          3D

 22 24  0  0  0  0  0  0  0  0999 V2000
    5.4460   -2.7290   20.8290 C   0  0  0  0  0  0  0  0  0  0  0  0
    6.4730   -3.5580   20.5120 C   0  0  0  0  0  0  0  0  0  0  0  0
    7.0780   -4.4640   21.4140 C   0  0  2  0  0  0  0  0  0  0  0  0
    6.2510   -5.2400   22.3620 C   0  0  0  0  0  0  0  0  0  0  0  0
    7.0100   -6.0570   23.3570 C   0  0  0  0  0  0  0  0  0  0  0  0
    8.2060   -5.4190   23.7200 C   0  0  0  0  0  0  0  0  0  0  0  0
    8.2720   -4.0510   23.5020 C   0  0  1  0  0  0  0  0  0  0  0  0
    9.2020   -3.2210   24.1680 C   0  0  2  0  0  0  0  0  0  0  0  0
    9.2910   -2.0280   23.5980 C   0  0  0  0  0  0  0  0  0  0  0  0
   10.6570   -2.0180   24.1090 C   0  0  0  0  0  0  0  0  0  0  0  0
   11.6240   -1.2240   23.9650 C   0  0  0  0  0  0  0  0  0  0  0  0
   12.9330   -1.0630   24.3590 C   0  0  0  0  0  0  0  0  0  0  0  0
   13.3270   -2.1100   25.2030 C   0  0  0  0  0  0  0  0  0  0  0  0
   12.4450   -3.1650   25.5540 C   0  0  0  0  0  0  0  0  0  0  0  0
   12.8390   -4.1840   26.3920 O   0  0  0  0  0  0  0  0  0  0  0  0
   11.1280   -3.1700   25.0410 C   0  0  0  0  0  0  0  0  0  0  0  0
   10.3530   -4.2420   25.4420 O   0  0  0  0  0  0  0  0  0  0  0  0
   11.7020   -2.4090   24.7150 C   0  0  2  0  0  0  0  0  0  0  0  0
   13.0750   -2.7980   24.6000 C   0  0  0  0  0  0  0  0  0  0  0  0
   13.6510   -3.5750   25.7230 N   0  0  0  0  0  0  0  0  0  0  0  0
   10.7340   -3.4910   24.1960 O   0  0  0  0  0  0  0  0  0  0  0  0
    8.1290   -3.7510   22.1020 O   0  0  0  0  0  0  0  0  0  0  0  0
  1  2  1  0
  3  2  1  1
  3  4  1  0
  4  5  1  0
  5  6  1  0
  7  6  1  6
  7  8  1  0
  8  9  1  6
  9 10  1  0
 10 11  2  0
 11 12  1  0
 12 13  2  0
 13 14  1  0
 14 15  1  0
 10 16  1  0
 14 16  2  0
 16 17  1  0
 11 18  1  0
 18 19  1  6
 19 20  1  0
  8 21  1  0
 18 21  1  0
  3 22  1  0
  7 22  1  0
M  END
