MAK-UNK-c7aa8293-15
     RDKit          3D

 24 26  0  0  0  0  0  0  0  0999 V2000
    6.2210   -2.5760   19.8590 C   0  0  0  0  0  0  0  0  0  0  0  0
    5.6850   -3.8660   20.4400 C   0  0  0  0  0  0  0  0  0  0  0  0
    5.2780   -4.7630   19.7230 O   0  0  0  0  0  0  0  0  0  0  0  0
    5.6980   -3.9740   21.8200 N   0  0  0  0  0  0  0  0  0  0  0  0
    5.9030   -5.3040   22.3350 C   0  0  2  0  0  0  0  0  0  0  0  0
    6.0510   -5.4800   23.7070 C   0  0  0  0  0  0  0  0  0  0  0  0
    7.4300   -4.9540   24.0930 C   0  0  0  0  0  0  0  0  0  0  0  0
    7.8360   -3.8110   23.4090 C   0  0  1  0  0  0  0  0  0  0  0  0
    8.9830   -3.0410   23.8170 C   0  0  2  0  0  0  0  0  0  0  0  0
    9.3220   -2.0350   22.8450 C   0  0  0  0  0  0  0  0  0  0  0  0
   10.6670   -2.1120   23.3680 C   0  0  0  0  0  0  0  0  0  0  0  0
   11.6550   -1.3670   23.0970 C   0  0  0  0  0  0  0  0  0  0  0  0
   12.9770   -1.1700   23.4330 C   0  0  0  0  0  0  0  0  0  0  0  0
   13.4510   -2.0420   24.3750 C   0  0  0  0  0  0  0  0  0  0  0  0
   12.5600   -2.9700   24.8330 C   0  0  0  0  0  0  0  0  0  0  0  0
   13.0670   -3.8680   25.8200 O   0  0  0  0  0  0  0  0  0  0  0  0
   11.1830   -3.0760   24.3850 C   0  0  0  0  0  0  0  0  0  0  0  0
   10.3740   -4.0190   24.8840 O   0  0  0  0  0  0  0  0  0  0  0  0
   11.5640   -2.4990   23.9600 C   0  0  1  0  0  0  0  0  0  0  0  0
   11.2130   -2.0140   25.1090 C   0  0  0  0  0  0  0  0  0  0  0  0
    9.9190   -1.3460   24.9860 N   0  0  0  0  0  0  0  0  0  0  0  0
   10.4380   -3.5030   23.7550 O   0  0  0  0  0  0  0  0  0  0  0  0
    7.7090   -4.0220   22.0330 C   0  0  0  0  0  0  0  0  0  0  0  0
    7.2810   -5.3640   21.8860 C   0  0  0  0  0  0  0  0  0  0  0  0
  1  2  1  0
  2  3  2  0
  2  4  1  0
  5  4  1  1
  5  6  1  0
  6  7  1  0
  8  7  1  1
  8  9  1  0
  9 10  1  6
 10 11  1  0
 11 12  2  0
 12 13  1  0
 13 14  2  0
 14 15  1  0
 15 16  1  0
 11 17  1  0
 15 17  2  0
 17 18  1  0
 12 19  1  0
 19 20  1  1
 20 21  1  0
  9 22  1  0
 19 22  1  0
  8 23  1  0
  5 24  1  0
 23 24  1  0
M  END
