MAK-UNK-de9577cf-18
     RDKit          3D

 37 40  0  0  0  0  0  0  0  0999 V2000
    4.1390   -7.1380   27.5710 C   0  0  0  0  0  0  0  0  0  0  0  0
    5.1900   -6.5560   26.9540 N   0  0  0  0  0  0  0  0  0  0  0  0
    5.1340   -5.1880   27.0360 C   0  0  0  0  0  0  0  0  0  0  0  0
    5.7200   -4.6450   25.8590 C   0  0  0  0  0  0  0  0  0  0  0  0
    5.1150   -3.7400   24.8610 C   0  0  0  0  0  0  0  0  0  0  0  0
    6.0580   -3.4180   23.7830 C   0  0  0  0  0  0  0  0  0  0  0  0
    5.7500   -2.5880   22.6920 C   0  0  0  0  0  0  0  0  0  0  0  0
    5.6050   -3.1570   21.4160 C   0  0  0  0  0  0  0  0  0  0  0  0
    5.3230   -2.4510   20.2500 C   0  0  0  0  0  0  0  0  0  0  0  0
    5.1670   -1.0740   20.3100 C   0  0  0  0  0  0  0  0  0  0  0  0
    5.3150   -0.4190   21.7060 C   0  0  0  0  0  0  0  0  0  0  0  0
    5.5950   -1.1900   22.8240 C   0  0  0  0  0  0  0  0  0  0  0  0
    5.7190   -0.5870   24.0220 F   0  0  0  0  0  0  0  0  0  0  0  0
    7.1670   -4.0890   24.1160 N   0  0  0  0  0  0  0  0  0  0  0  0
    8.6320   -4.1560   23.2590 S   0  0  0  0  0  0  0  0  0  0  0  0
    9.5840   -4.5830   24.2700 O   0  0  0  0  0  0  0  0  0  0  0  0
    8.1940   -5.0000   22.1710 O   0  0  0  0  0  0  0  0  0  0  0  0
    9.1860   -2.5860   22.6720 C   0  0  0  0  0  0  0  0  0  0  0  0
    8.2320   -1.6560   22.3290 C   0  0  0  0  0  0  0  0  0  0  0  0
    8.4750   -0.4230   21.8890 N   0  0  0  0  0  0  0  0  0  0  0  0
    9.7800   -0.1190   21.8070 C   0  0  0  0  0  0  0  0  0  0  0  0
   10.9000   -0.9390   22.1090 C   0  0  0  0  0  0  0  0  0  0  0  0
   12.3420   -0.4250   21.9840 O   0  0  0  0  0  0  0  0  0  0  0  0
   13.1030    0.8730   22.1880 C   0  0  0  0  0  0  0  0  0  0  0  0
   14.3960    0.7360   22.4580 O   0  0  0  0  0  0  0  0  0  0  0  0
   12.4900    2.3860   22.3300 C   0  0  0  0  0  0  0  0  0  0  0  0
   11.0730    2.7780   22.2120 C   0  0  0  0  0  0  0  0  0  0  0  0
   10.5750    3.9610   22.5070 C   0  0  0  0  0  0  0  0  0  0  0  0
   11.3810    4.9160   22.9460 C   0  0  0  0  0  0  0  0  0  0  0  0
   10.5970    6.3790   23.4450 S   0  0  0  0  0  0  0  0  0  0  0  0
    9.2650    6.4090   22.4250 N   0  0  0  0  0  0  0  0  0  0  0  0
   11.5250    7.4050   23.1800 O   0  0  0  0  0  0  0  0  0  0  0  0
   10.0570    6.1280   24.7720 O   0  0  0  0  0  0  0  0  0  0  0  0
   12.7720    4.7040   23.0080 C   0  0  0  0  0  0  0  0  0  0  0  0
   13.2770    3.4480   22.6880 C   0  0  0  0  0  0  0  0  0  0  0  0
   10.5670   -2.2360   22.5470 C   0  0  0  0  0  0  0  0  0  0  0  0
    7.0060   -4.8160   25.3260 C   0  0  0  0  0  0  0  0  0  0  0  0
  1  2  1  0
  2  3  1  0
  3  4  1  0
  4  5  1  0
  5  6  2  0
  6  7  1  0
  7  8  2  0
  8  9  1  0
  9 10  2  0
 10 11  1  0
  7 12  1  0
 11 12  2  0
 12 13  1  0
  6 14  1  0
 14 15  1  0
 15 16  2  0
 15 17  2  0
 15 18  1  0
 18 19  2  0
 19 20  1  0
 20 21  2  0
 21 22  1  0
 22 23  1  0
 23 24  1  0
 24 25  2  0
 24 26  1  0
 26 27  2  0
 27 28  1  0
 28 29  2  0
 29 30  1  0
 30 31  1  0
 30 32  2  0
 30 33  2  0
 29 34  1  0
 26 35  1  0
 34 35  2  0
 18 36  1  0
 22 36  2  0
  4 37  2  0
 14 37  1  0
M  END
