MAK-UNK-6435e6c2-2
     RDKit          3D

 15 16  0  0  0  0  0  0  0  0999 V2000
    6.4000   -2.7270   20.9970 C   0  0  0  0  0  0  0  0  0  0  0  0
    6.0170   -4.2320   20.9150 C   0  0  0  0  0  0  0  0  0  0  0  0
    5.2870   -4.5060   19.7030 O   0  0  0  0  0  0  0  0  0  0  0  0
    6.3920   -5.0780   21.9250 N   0  0  0  0  0  0  0  0  0  0  0  0
    7.1490   -4.5510   23.0520 C   0  0  0  0  0  0  0  0  0  0  0  0
    6.2880   -4.1200   24.0600 C   0  0  0  0  0  0  0  0  0  0  0  0
    5.3390   -5.1850   24.4260 N   0  0  0  0  0  0  0  0  0  0  0  0
    4.6330   -5.0120   25.7060 C   0  0  0  0  0  0  0  0  0  0  0  0
    3.4880   -3.9930   25.6750 C   0  0  0  0  0  0  0  0  0  0  0  0
    3.7320   -2.5180   25.9250 C   0  0  0  0  0  0  0  0  0  0  0  0
    2.5610   -1.7870   25.8730 C   0  0  0  0  0  0  0  0  0  0  0  0
    1.4590   -2.5900   25.6030 C   0  0  0  0  0  0  0  0  0  0  0  0
    1.8170   -4.3050   25.3890 S   0  0  0  0  0  0  0  0  0  0  0  0
    4.5940   -5.7340   23.2710 C   0  0  0  0  0  0  0  0  0  0  0  0
    5.4790   -6.1620   22.2770 C   0  0  0  0  0  0  0  0  0  0  0  0
  1  2  1  0
  2  3  2  0
  2  4  1  0
  4  5  1  0
  5  6  1  0
  6  7  1  0
  7  8  1  0
  8  9  1  0
  9 10  2  0
 10 11  1  0
 11 12  2  0
  9 13  1  0
 12 13  1  0
  7 14  1  0
  4 15  1  0
 14 15  1  0
M  END
