MAK-UNK-f2409524-13
     RDKit          3D

 19 20  0  0  0  0  0  0  0  0999 V2000
    2.0390    1.3520   22.9600 C   0  0  0  0  0  0  0  0  0  0  0  0
    2.8820    2.5010   23.3520 C   0  0  0  0  0  0  0  0  0  0  0  0
    3.8660    1.5100   23.5450 C   0  0  0  0  0  0  0  0  0  0  0  0
    3.8360    0.1180   23.3900 C   0  0  0  0  0  0  0  0  0  0  0  0
    3.7200   -0.6040   24.5950 C   0  0  0  0  0  0  0  0  0  0  0  0
    2.3780   -0.5560   24.8670 N   0  0  0  0  0  0  0  0  0  0  0  0
    2.0520   -1.4050   25.8980 C   0  0  0  0  0  0  0  0  0  0  0  0
    3.0080   -2.3440   26.6610 C   0  0  0  0  0  0  0  0  0  0  0  0
    2.5930   -3.1530   27.6740 N   0  0  0  0  0  0  0  0  0  0  0  0
    1.1840   -3.0950   28.0140 C   0  0  0  0  0  0  0  0  0  0  0  0
    0.2910   -2.3070   27.4000 N   0  0  0  0  0  0  0  0  0  0  0  0
    0.7470   -1.5100   26.3880 C   0  0  0  0  0  0  0  0  0  0  0  0
    1.6950    3.1610   23.0620 N   0  0  0  0  0  0  0  0  0  0  0  0
    0.4750    3.3170   23.8590 C   0  0  0  0  0  0  0  0  0  0  0  0
    0.4230    4.5630   24.4880 C   0  0  0  0  0  0  0  0  0  0  0  0
   -0.8210    5.0530   24.9110 C   0  0  0  0  0  0  0  0  0  0  0  0
   -1.9700    4.6270   24.2280 C   0  0  0  0  0  0  0  0  0  0  0  0
   -1.9080    3.3280   23.6980 C   0  0  0  0  0  0  0  0  0  0  0  0
   -0.6870    2.9370   23.1730 C   0  0  0  0  0  0  0  0  0  0  0  0
  1  2  1  0
  2  3  2  3
  3  4  1  0
  4  5  1  0
  5  6  1  0
  6  7  1  0
  7  8  2  0
  8  9  1  0
  9 10  2  0
 10 11  1  0
  7 12  1  0
 11 12  2  0
  2 13  1  0
 13 14  1  0
 14 15  1  0
 15 16  1  0
 16 17  1  0
 17 18  1  0
 14 19  1  0
 18 19  1  0
M  END
