MAK-UNK-acefcb18-6
     RDKit          3D

 21 23  0  0  0  0  0  0  0  0999 V2000
    0.6860   -2.8530   25.7170 C   0  0  0  0  0  0  0  0  0  0  0  0
    2.1790   -2.9810   25.5940 C   0  0  0  0  0  0  0  0  0  0  0  0
    2.9930   -1.8510   25.8150 C   0  0  0  0  0  0  0  0  0  0  0  0
    4.3910   -1.9200   25.7230 C   0  0  0  0  0  0  0  0  0  0  0  0
    4.9820   -3.2580   25.3770 C   0  0  0  0  0  0  0  0  0  0  0  0
    6.3400   -3.5570   25.2450 C   0  0  1  0  0  0  0  0  0  0  0  0
    7.1480   -2.3640   25.1860 O   0  0  0  0  0  0  0  0  0  0  0  0
    8.5490   -2.7000   25.0590 C   0  0  0  0  0  0  0  0  0  0  0  0
    8.8730   -4.1430   25.3700 C   0  0  2  0  0  0  0  0  0  0  0  0
    8.5880   -4.8330   24.2120 N   0  0  0  0  0  0  0  0  0  0  0  0
    7.5020   -4.7840   23.3770 C   0  0  0  0  0  0  0  0  0  0  0  0
    6.9080   -3.5950   22.9250 C   0  0  0  0  0  0  0  0  0  0  0  0
    5.8140   -3.7750   22.0800 C   0  0  0  0  0  0  0  0  0  0  0  0
    5.5190   -5.4410   21.8330 S   0  0  0  0  0  0  0  0  0  0  0  0
    6.8400   -5.8770   22.8480 C   0  0  0  0  0  0  0  0  0  0  0  0
    8.1420   -4.3480   26.7050 C   0  0  2  0  0  0  0  0  0  0  0  0
    8.6650   -5.4780   27.4100 O   0  0  0  0  0  0  0  0  0  0  0  0
    6.8300   -4.4100   26.3880 C   0  0  1  0  0  0  0  0  0  0  0  0
    5.9870   -4.1680   27.3710 O   0  0  0  0  0  0  0  0  0  0  0  0
    4.1210   -4.3250   25.1670 C   0  0  0  0  0  0  0  0  0  0  0  0
    2.7450   -4.2110   25.2660 C   0  0  0  0  0  0  0  0  0  0  0  0
  1  2  1  0
  2  3  2  0
  3  4  1  0
  4  5  2  0
  6  5  1  1
  6  7  1  0
  7  8  1  0
  8  9  1  0
  9 10  1  6
 10 11  1  0
 11 12  1  0
 12 13  2  0
 13 14  1  0
 11 15  2  0
 14 15  1  0
  9 16  1  0
 16 17  1  6
  6 18  1  0
 16 18  1  0
 18 19  1  1
  5 20  1  0
  2 21  1  0
 20 21  2  0
M  END
