MAK-UNK-f2409524-6
     RDKit          3D

 26 29  0  0  0  0  0  0  0  0999 V2000
    3.1610    1.3950   24.3140 O   0  0  0  0  0  0  0  0  0  0  0  0
    3.3070    2.0310   23.2770 C   0  0  0  0  0  0  0  0  0  0  0  0
    4.2480    1.6790   22.1270 N   0  0  0  0  0  0  0  0  0  0  0  0
    5.7550    1.2870   22.2860 C   0  0  0  0  0  0  0  0  0  0  0  0
    6.7790    0.9200   21.7780 C   0  0  0  0  0  0  0  0  0  0  0  0
    8.2800    0.5420   21.8200 C   0  0  0  0  0  0  0  0  0  0  0  0
    8.8400   -0.6880   22.5440 C   0  0  0  0  0  0  0  0  0  0  0  0
   10.3490   -0.6190   22.8670 C   0  0  0  0  0  0  0  0  0  0  0  0
   10.9700   -1.7520   23.5380 N   0  0  0  0  0  0  0  0  0  0  0  0
   10.1810   -2.9200   23.8940 C   0  0  0  0  0  0  0  0  0  0  0  0
    8.8470   -2.8830   23.5690 N   0  0  0  0  0  0  0  0  0  0  0  0
    8.1730   -1.8280   22.9220 C   0  0  0  0  0  0  0  0  0  0  0  0
    6.0580    0.9450   20.7950 N   0  0  0  0  0  0  0  0  0  0  0  0
    4.6600    1.3360   20.7220 C   0  0  0  0  0  0  0  0  0  0  0  0
    3.9070    1.3620   19.3890 C   0  0  0  0  0  0  0  0  0  0  0  0
    4.4520    1.0280   18.2500 N   0  0  0  0  0  0  0  0  0  0  0  0
    5.7660    0.6380   18.3050 C   0  0  0  0  0  0  0  0  0  0  0  0
    6.4700    0.6110   19.4980 C   0  0  0  0  0  0  0  0  0  0  0  0
    5.7940    0.9970   20.6440 N   0  0  0  0  0  0  0  0  0  0  0  0
    2.5600    3.2270   23.0250 N   0  0  0  0  0  0  0  0  0  0  0  0
    1.1230    3.5670   23.3530 C   0  0  0  0  0  0  0  0  0  0  0  0
    0.9670    4.2870   24.5430 C   0  0  0  0  0  0  0  0  0  0  0  0
   -0.3290    4.6880   24.8980 C   0  0  0  0  0  0  0  0  0  0  0  0
   -1.4150    4.3690   24.0750 C   0  0  0  0  0  0  0  0  0  0  0  0
   -1.3640    2.9110   23.6220 C   0  0  0  0  0  0  0  0  0  0  0  0
    0.0810    2.4280   23.3020 C   0  0  0  0  0  0  0  0  0  0  0  0
  1  2  2  0
  2  3  1  0
  3  4  1  0
  4  5  2  0
  5  6  1  0
  6  7  1  0
  7  8  2  0
  8  9  1  0
  9 10  2  0
 10 11  1  0
  7 12  1  0
 11 12  2  0
  5 13  1  0
 13 14  2  0
 14 15  1  0
 15 16  2  0
 16 17  1  0
 17 18  2  0
  4 19  1  0
 14 19  1  0
 18 19  1  0
  2 20  1  0
 20 21  1  0
 21 22  1  0
 22 23  1  0
 23 24  1  0
 24 25  1  0
 21 26  1  0
 25 26  1  0
M  END
