MAK-UNK-129dcd6f-10
     RDKit          3D

 26 28  0  0  0  0  0  0  0  0999 V2000
   13.2890   -2.7640   25.1710 C   0  0  0  0  0  0  0  0  0  0  0  0
   12.7360   -2.6480   23.8290 C   0  0  0  0  0  0  0  0  0  0  0  0
   13.5550   -2.6930   22.7870 C   0  0  0  0  0  0  0  0  0  0  0  0
   13.2370   -2.5900   21.4210 C   0  0  0  0  0  0  0  0  0  0  0  0
   12.0190   -2.4250   20.9860 N   0  0  0  0  0  0  0  0  0  0  0  0
   11.1330   -2.3710   21.9710 C   0  0  0  0  0  0  0  0  0  0  0  0
   11.4430   -2.4900   23.4330 C   0  0  0  0  0  0  0  0  0  0  0  0
   10.2550   -2.4080   24.1960 N   0  0  0  0  0  0  0  0  0  0  0  0
    9.5950   -1.4650   23.6270 C   0  0  0  0  0  0  0  0  0  0  0  0
    8.4160   -1.3610   23.3250 O   0  0  0  0  0  0  0  0  0  0  0  0
   10.6390   -0.4180   23.3900 C   0  0  0  0  0  0  0  0  0  0  0  0
   12.1250   -0.5190   23.4670 C   0  0  0  0  0  0  0  0  0  0  0  0
   12.8460    0.5680   23.2530 C   0  0  0  0  0  0  0  0  0  0  0  0
   12.2480    1.7820   22.9720 C   0  0  0  0  0  0  0  0  0  0  0  0
   10.8640    1.9210   22.8760 C   0  0  0  0  0  0  0  0  0  0  0  0
   10.0200    0.8500   23.0630 C   0  0  0  0  0  0  0  0  0  0  0  0
    8.6540    0.8400   22.9580 N   0  0  0  0  0  0  0  0  0  0  0  0
    8.1980    0.9610   21.6960 C   0  0  0  0  0  0  0  0  0  0  0  0
    8.6410    1.8290   20.9570 O   0  0  0  0  0  0  0  0  0  0  0  0
    7.2490    0.0370   21.3480 N   0  0  0  0  0  0  0  0  0  0  0  0
    6.4630    0.3480   20.2640 C   0  0  0  0  0  0  0  0  0  0  0  0
    5.2520    1.0540   20.3660 C   0  0  0  0  0  0  0  0  0  0  0  0
    4.5100    1.3790   19.2310 C   0  0  0  0  0  0  0  0  0  0  0  0
    5.0590    0.9440   17.9060 C   0  0  0  0  0  0  0  0  0  0  0  0
    6.2120    0.2600   17.8300 N   0  0  0  0  0  0  0  0  0  0  0  0
    6.9150   -0.0430   19.0110 C   0  0  0  0  0  0  0  0  0  0  0  0
  1  2  1  0
  2  3  2  0
  3  4  1  0
  4  5  2  0
  5  6  1  0
  2  7  1  0
  6  7  2  0
  7  8  1  0
  8  9  1  0
  9 10  2  0
  9 11  1  0
 11 12  2  0
 12 13  1  0
 13 14  2  0
 14 15  1  0
 11 16  1  0
 15 16  2  0
 16 17  1  0
 17 18  1  0
 18 19  2  0
 18 20  1  0
 20 21  1  0
 21 22  2  0
 22 23  1  0
 23 24  2  0
 24 25  1  0
 21 26  1  0
 25 26  2  0
M  END
