MAK-UNK-702fb7d3-1
     RDKit          3D

 43 48  0  0  0  0  0  0  0  0999 V2000
    8.2820    0.3420   23.7910 O   0  0  0  0  0  0  0  0  0  0  0  0
    8.3290   -0.8540   23.5170 C   0  0  0  0  0  0  0  0  0  0  0  0
    8.6420   -1.1520   22.2560 C   0  0  0  0  0  0  0  0  0  0  0  0
    9.9920   -1.6610   22.1850 C   0  0  0  0  0  0  0  0  0  0  0  0
   10.4750   -1.8820   23.4400 N   0  0  0  0  0  0  0  0  0  0  0  0
   11.7670   -2.0660   23.4900 C   0  0  0  0  0  0  0  0  0  0  0  0
   12.4480   -1.8350   22.3510 C   0  0  0  0  0  0  0  0  0  0  0  0
   12.9580   -2.7540   21.6000 C   0  0  0  0  0  0  0  0  0  0  0  0
   13.6170   -2.2690   20.5460 C   0  0  0  0  0  0  0  0  0  0  0  0
   14.3950   -3.5760   19.8710 C   0  0  0  0  0  0  0  0  0  0  0  0
   15.3570   -3.6980   18.8000 C   0  0  0  0  0  0  0  0  0  0  0  0
   15.8480   -4.9900   18.4880 C   0  0  0  0  0  0  0  0  0  0  0  0
   15.4000   -5.8940   19.3050 C   0  0  0  0  0  0  0  0  0  0  0  0
   14.5990   -5.6250   20.2870 C   0  0  0  0  0  0  0  0  0  0  0  0
   14.1050   -4.4240   20.5330 C   0  0  0  0  0  0  0  0  0  0  0  0
   13.3160   -3.8470   21.4350 F   0  0  0  0  0  0  0  0  0  0  0  0
   13.6000   -0.8340   20.4040 N   0  0  0  0  0  0  0  0  0  0  0  0
   14.3240    0.4510   19.2160 S   0  0  0  0  0  0  0  0  0  0  0  0
   15.6180    0.8570   19.5370 O   0  0  0  0  0  0  0  0  0  0  0  0
   13.9310    0.5450   17.8750 O   0  0  0  0  0  0  0  0  0  0  0  0
   14.4890    2.0690   19.3070 C   0  0  0  0  0  0  0  0  0  0  0  0
   15.7070    2.3310   19.3380 C   0  0  0  0  0  0  0  0  0  0  0  0
   16.0130    3.5050   19.4820 C   0  0  0  0  0  0  0  0  0  0  0  0
   15.2720    4.4740   19.5410 C   0  0  0  0  0  0  0  0  0  0  0  0
   14.1360    4.2980   19.4770 N   0  0  0  0  0  0  0  0  0  0  0  0
   13.7610    3.2600   19.3410 C   0  0  0  0  0  0  0  0  0  0  0  0
   12.7960   -0.6970   21.7290 C   0  0  0  0  0  0  0  0  0  0  0  0
    8.1160   -1.9190   24.3740 N   0  0  0  0  0  0  0  0  0  0  0  0
    7.1020   -1.9680   25.4660 C   0  0  0  0  0  0  0  0  0  0  0  0
    6.3980   -3.1450   25.7280 C   0  0  0  0  0  0  0  0  0  0  0  0
    5.5110   -3.1340   26.8080 C   0  0  0  0  0  0  0  0  0  0  0  0
    4.7400   -4.2460   27.1610 C   0  0  0  0  0  0  0  0  0  0  0  0
    4.9230   -5.4710   26.2880 C   0  0  0  0  0  0  0  0  0  0  0  0
    5.8140   -5.4270   25.2310 C   0  0  0  0  0  0  0  0  0  0  0  0
    6.5490   -4.2820   24.9590 C   0  0  0  0  0  0  0  0  0  0  0  0
    7.5060   -4.3000   23.8140 C   0  0  1  0  0  0  0  0  0  0  0  0
    6.7450   -4.1240   22.5280 C   0  0  0  0  0  0  0  0  0  0  0  0
    6.3960   -5.2450   21.7630 C   0  0  0  0  0  0  0  0  0  0  0  0
    5.6970   -5.0800   20.5770 C   0  0  0  0  0  0  0  0  0  0  0  0
    5.3470   -3.7920   20.1480 C   0  0  0  0  0  0  0  0  0  0  0  0
    5.6790   -2.6870   20.8990 C   0  0  0  0  0  0  0  0  0  0  0  0
    6.3720   -2.8500   22.0820 C   0  0  0  0  0  0  0  0  0  0  0  0
    8.6050   -3.2120   23.9020 C   0  0  0  0  0  0  0  0  0  0  0  0
  1  2  2  0
  2  3  1  0
  3  4  1  0
  4  5  1  0
  5  6  1  0
  6  7  1  0
  7  8  1  0
  8  9  2  0
  9 10  1  0
 10 11  2  0
 11 12  1  0
 12 13  2  0
 13 14  1  0
 10 15  1  0
 14 15  2  0
 15 16  1  0
  9 17  1  0
 17 18  1  0
 18 19  2  0
 18 20  2  0
 18 21  1  0
 21 22  2  0
 22 23  1  0
 23 24  2  0
 24 25  1  0
 21 26  1  0
 25 26  2  0
  7 27  2  0
 17 27  1  0
  2 28  1  0
 28 29  1  0
 29 30  1  0
 30 31  2  0
 31 32  1  0
 32 33  2  0
 33 34  1  0
 30 35  1  0
 34 35  2  0
 35 36  1  0
 36 37  1  6
 37 38  2  0
 38 39  1  0
 39 40  2  0
 40 41  1  0
 37 42  1  0
 41 42  2  0
 28 43  1  0
 36 43  1  0
M  END
