MAK-UNK-31051d4e-2
     RDKit          3D

 25 27  0  0  0  0  0  0  0  0999 V2000
    9.1610   -5.0400   25.7790 O   0  0  0  0  0  0  0  0  0  0  0  0
    8.0900   -4.0990   26.0060 S   0  0  0  0  0  0  0  0  0  0  0  0
    8.1030   -3.2440   27.1700 O   0  0  0  0  0  0  0  0  0  0  0  0
    7.8250   -3.1020   24.6610 N   0  0  0  0  0  0  0  0  0  0  0  0
    8.7160   -3.0260   23.7100 C   0  0  0  0  0  0  0  0  0  0  0  0
    9.0480   -1.6860   23.1470 C   0  0  0  0  0  0  0  0  0  0  0  0
   10.3710   -1.2740   22.9030 C   0  0  0  0  0  0  0  0  0  0  0  0
   10.7820   -0.0140   23.3260 C   0  0  0  0  0  0  0  0  0  0  0  0
   12.0550    0.5760   23.1870 C   0  0  0  0  0  0  0  0  0  0  0  0
   13.1020   -0.2160   22.5170 C   0  0  0  0  0  0  0  0  0  0  0  0
   12.7130   -1.5990   22.0220 C   0  0  0  0  0  0  0  0  0  0  0  0
   11.3040   -2.0920   22.2430 C   0  0  0  0  0  0  0  0  0  0  0  0
    6.6590   -5.1110   26.3170 C   0  0  0  0  0  0  0  0  0  0  0  0
    5.6530   -5.3520   25.4770 C   0  0  0  0  0  0  0  0  0  0  0  0
    4.6430   -6.1870   25.9560 C   0  0  0  0  0  0  0  0  0  0  0  0
    3.5080   -6.5490   25.2110 C   0  0  0  0  0  0  0  0  0  0  0  0
    2.2570   -5.9130   25.6050 N   0  0  0  0  0  0  0  0  0  0  0  0
    2.0680   -5.3930   26.9760 C   0  0  0  0  0  0  0  0  0  0  0  0
    0.7530   -5.0070   27.2550 C   0  0  0  0  0  0  0  0  0  0  0  0
   -0.0650   -4.9290   26.1480 C   0  0  0  0  0  0  0  0  0  0  0  0
   -1.0880   -3.9810   26.4580 O   0  0  0  0  0  0  0  0  0  0  0  0
    0.5370   -4.5050   24.9580 C   0  0  0  0  0  0  0  0  0  0  0  0
    1.7820   -5.0870   24.6380 C   0  0  0  0  0  0  0  0  0  0  0  0
    4.9550   -6.5790   27.2540 C   0  0  0  0  0  0  0  0  0  0  0  0
    6.4430   -5.9100   27.8080 S   0  0  0  0  0  0  0  0  0  0  0  0
  1  2  2  0
  2  3  2  0
  2  4  1  0
  4  5  1  0
  5  6  1  0
  6  7  1  0
  7  8  2  0
  8  9  1  0
  9 10  2  0
 10 11  1  0
  7 12  1  0
 11 12  2  0
  2 13  1  0
 13 14  2  0
 14 15  1  0
 15 16  1  0
 16 17  1  0
 17 18  1  0
 18 19  1  0
 19 20  1  0
 20 21  1  0
 20 22  1  0
 17 23  1  0
 22 23  1  0
 15 24  2  0
 13 25  1  0
 24 25  1  0
M  END
