MAK-UNK-0d6072ac-21
     RDKit          3D

 20 22  0  0  0  0  0  0  0  0999 V2000
    9.4500   -5.8730   25.3350 C   0  0  0  0  0  0  0  0  0  0  0  0
    9.0850   -5.0320   24.3090 C   0  0  0  0  0  0  0  0  0  0  0  0
    7.7670   -5.4130   23.4630 C   0  0  0  0  0  0  0  0  0  0  0  0
    7.8090   -4.2130   22.4520 C   0  0  0  0  0  0  0  0  0  0  0  0
    6.5950   -4.7380   21.6900 C   0  0  2  0  0  0  0  0  0  0  0  0
    6.0410   -3.9280   20.6770 C   0  0  0  0  0  0  0  0  0  0  0  0
    5.5070   -5.2270   22.6020 C   0  0  0  0  0  0  0  0  0  0  0  0
    5.6220   -6.1790   23.3720 O   0  0  0  0  0  0  0  0  0  0  0  0
    4.2860   -4.4430   22.4730 O   0  0  0  0  0  0  0  0  0  0  0  0
    8.5700   -4.4410   23.3910 C   0  0  0  0  0  0  0  0  0  0  0  0
    9.3010   -3.3780   23.1870 C   0  0  0  0  0  0  0  0  0  0  0  0
    9.7120   -2.1950   22.6320 N   0  0  0  0  0  0  0  0  0  0  0  0
   10.9310   -1.9190   23.3410 C   0  0  0  0  0  0  0  0  0  0  0  0
   11.9030   -0.9540   23.3430 C   0  0  0  0  0  0  0  0  0  0  0  0
   12.9940   -1.1250   24.2120 C   0  0  0  0  0  0  0  0  0  0  0  0
   13.0800   -2.2480   25.0640 C   0  0  0  0  0  0  0  0  0  0  0  0
   14.3700   -2.5550   26.0890 Cl  0  0  0  0  0  0  0  0  0  0  0  0
   12.0970   -3.1840   25.0930 C   0  0  0  0  0  0  0  0  0  0  0  0
   11.0470   -3.0720   24.2760 C   0  0  0  0  0  0  0  0  0  0  0  0
    9.9630   -3.8670   24.0730 C   0  0  0  0  0  0  0  0  0  0  0  0
  1  2  1  0
  2  3  2  0
  3  4  1  0
  4  5  1  0
  5  6  1  1
  5  7  1  0
  7  8  2  0
  7  9  1  0
  4 10  2  0
 10 11  1  0
 11 12  1  0
 12 13  1  0
 13 14  1  0
 14 15  2  0
 15 16  1  0
 16 17  1  0
 16 18  2  0
 13 19  2  0
 18 19  1  0
  2 20  1  0
 11 20  2  0
 19 20  1  0
M  END
