MAK-UNK-37f1d6fa-4
     RDKit          3D

 31 34  0  0  0  0  0  0  0  0999 V2000
    8.5650    0.9530   21.2450 O   0  0  0  0  0  0  0  0  0  0  0  0
    8.2710   -0.1910   21.5690 C   0  0  0  0  0  0  0  0  0  0  0  0
    9.0460   -0.9980   22.3630 N   0  0  0  0  0  0  0  0  0  0  0  0
   10.4090   -0.7080   22.4880 C   0  0  0  0  0  0  0  0  0  0  0  0
   11.4290   -1.6620   22.2310 C   0  0  0  0  0  0  0  0  0  0  0  0
   12.8060   -1.3590   22.3330 C   0  0  0  0  0  0  0  0  0  0  0  0
   13.1540   -0.0800   22.6990 C   0  0  0  0  0  0  0  0  0  0  0  0
   12.2450    0.8870   22.9680 C   0  0  0  0  0  0  0  0  0  0  0  0
   10.7850    0.5840   22.8670 C   0  0  0  0  0  0  0  0  0  0  0  0
    7.0910   -0.7820   21.1360 N   0  0  0  0  0  0  0  0  0  0  0  0
    6.2930   -0.0780   20.1330 C   0  0  0  0  0  0  0  0  0  0  0  0
    6.9680   -0.0660   18.8010 C   0  0  0  0  0  0  0  0  0  0  0  0
    6.3030    0.6450   17.6960 N   0  0  0  0  0  0  0  0  0  0  0  0
    5.1380    1.2200   17.9720 C   0  0  0  0  0  0  0  0  0  0  0  0
    4.4220    1.2080   19.3090 C   0  0  0  0  0  0  0  0  0  0  0  0
    5.0400    0.5390   20.3730 C   0  0  0  0  0  0  0  0  0  0  0  0
    4.4210    0.4980   21.6280 C   0  0  0  0  0  0  0  0  0  0  0  0
    4.7440   -0.3400   22.4750 O   0  0  0  0  0  0  0  0  0  0  0  0
    3.3810    1.4950   21.8350 N   0  0  0  0  0  0  0  0  0  0  0  0
    2.6320    1.5040   23.0830 C   0  0  0  0  0  0  0  0  0  0  0  0
    1.5250    2.5630   23.0840 C   0  0  0  0  0  0  0  0  0  0  0  0
    1.8960    3.9140   23.6550 C   0  0  0  0  0  0  0  0  0  0  0  0
    1.4360    5.1640   22.9310 C   0  0  0  0  0  0  0  0  0  0  0  0
    1.9110    6.1990   23.6660 N   0  0  0  0  0  0  0  0  0  0  0  0
    2.6270    5.7550   24.7830 C   0  0  0  0  0  0  0  0  0  0  0  0
    3.2630    6.5640   25.7680 C   0  0  0  0  0  0  0  0  0  0  0  0
    3.9080    5.8570   26.7760 C   0  0  0  0  0  0  0  0  0  0  0  0
    3.9180    4.4550   26.8040 C   0  0  0  0  0  0  0  0  0  0  0  0
    4.5570    3.8310   27.8080 F   0  0  0  0  0  0  0  0  0  0  0  0
    3.2880    3.6970   25.8300 C   0  0  0  0  0  0  0  0  0  0  0  0
    2.6270    4.3420   24.7950 C   0  0  0  0  0  0  0  0  0  0  0  0
  1  2  2  0
  2  3  1  0
  3  4  1  0
  4  5  2  0
  5  6  1  0
  6  7  2  0
  7  8  1  0
  4  9  1  0
  8  9  2  0
  2 10  1  0
 10 11  1  0
 11 12  2  0
 12 13  1  0
 13 14  2  0
 14 15  1  0
 11 16  1  0
 15 16  2  0
 16 17  1  0
 17 18  2  0
 17 19  1  0
 19 20  1  0
 20 21  1  0
 21 22  1  0
 22 23  2  0
 23 24  1  0
 24 25  1  0
 25 26  1  0
 26 27  2  0
 27 28  1  0
 28 29  1  0
 28 30  2  0
 22 31  1  0
 25 31  2  0
 30 31  1  0
M  END
