MAK-UNK-2084232d-17
     RDKit          3D

 22 24  0  0  0  0  0  0  0  0999 V2000
   13.6150   -3.1020   25.7070 N   0  0  0  0  0  0  0  0  0  0  0  0
   13.1410   -2.1590   24.9600 C   0  0  0  0  0  0  0  0  0  0  0  0
   11.8220   -2.3960   24.1490 C   0  0  1  0  0  0  0  0  0  0  0  0
   10.6810   -3.0960   24.5480 O   0  0  0  0  0  0  0  0  0  0  0  0
    9.2180   -2.9850   23.9980 C   0  0  2  0  0  0  0  0  0  0  0  0
    8.5400   -4.0770   23.3510 C   0  0  1  0  0  0  0  0  0  0  0  0
    7.8300   -5.0280   24.0780 C   0  0  0  0  0  0  0  0  0  0  0  0
    6.9130   -5.8690   23.4440 C   0  0  0  0  0  0  0  0  0  0  0  0
    6.2240   -5.3620   22.3630 C   0  0  0  0  0  0  0  0  0  0  0  0
    6.9900   -4.5240   21.5900 C   0  0  1  0  0  0  0  0  0  0  0  0
    6.1410   -3.8800   20.6380 O   0  0  0  0  0  0  0  0  0  0  0  0
    7.8030   -3.5930   22.2480 C   0  0  1  0  0  0  0  0  0  0  0  0
    6.9520   -2.5090   22.6420 O   0  0  0  0  0  0  0  0  0  0  0  0
    9.5120   -2.0100   22.9910 C   0  0  0  0  0  0  0  0  0  0  0  0
   10.7060   -2.0560   23.5210 C   0  0  0  0  0  0  0  0  0  0  0  0
   11.5960   -1.0290   23.4550 C   0  0  0  0  0  0  0  0  0  0  0  0
   12.9770   -0.7160   23.9150 C   0  0  0  0  0  0  0  0  0  0  0  0
   13.4770   -1.9120   24.6750 C   0  0  0  0  0  0  0  0  0  0  0  0
   12.6110   -3.0920   24.8370 C   0  0  0  0  0  0  0  0  0  0  0  0
   13.2650   -4.0590   25.5870 O   0  0  0  0  0  0  0  0  0  0  0  0
   11.2620   -3.1920   24.2790 C   0  0  0  0  0  0  0  0  0  0  0  0
   10.6230   -4.2330   24.4650 O   0  0  0  0  0  0  0  0  0  0  0  0
  1  2  1  0
  3  2  1  1
  3  4  1  0
  4  5  1  0
  5  6  1  0
  6  7  1  1
  7  8  1  0
  8  9  1  0
  9 10  1  0
 10 11  1  6
  6 12  1  0
 10 12  1  0
 12 13  1  1
  5 14  1  6
 14 15  1  0
  3 16  1  0
 15 16  2  0
 16 17  1  0
 17 18  2  0
 18 19  1  0
 19 20  1  0
 15 21  1  0
 19 21  2  0
 21 22  1  0
M  END
