MAK-UNK-1cb0e944-9
     RDKit          3D

 24 25  0  0  0  0  0  0  0  0999 V2000
   20.0000    7.3150   23.5850 C   0  0  0  0  0  0  0  0  0  0  0  0
   19.7240    5.8730   23.6620 C   0  0  2  0  0  0  0  0  0  0  0  0
   18.3680    5.5360   23.6360 N   0  0  0  0  0  0  0  0  0  0  0  0
   17.8680    4.6350   22.5910 C   0  0  0  0  0  0  0  0  0  0  0  0
   18.6320    4.2720   21.7310 O   0  0  0  0  0  0  0  0  0  0  0  0
   16.5220    4.2670   22.7990 C   0  0  0  0  0  0  0  0  0  0  0  0
   15.3570    4.1410   21.9050 C   0  0  0  0  0  0  0  0  0  0  0  0
   13.9240    3.5830   22.3410 C   0  0  0  0  0  0  0  0  0  0  0  0
   13.6610    2.0390   22.3380 C   0  0  0  0  0  0  0  0  0  0  0  0
   12.2810    1.5950   22.7700 C   0  0  0  0  0  0  0  0  0  0  0  0
   11.2960    2.6300   23.1600 C   0  0  0  0  0  0  0  0  0  0  0  0
   11.6160    3.9360   23.1460 C   0  0  0  0  0  0  0  0  0  0  0  0
   10.3540    5.0450   23.6760 S   0  0  0  0  0  0  0  0  0  0  0  0
   11.0570    6.5170   23.3990 N   0  0  0  0  0  0  0  0  0  0  0  0
   10.1920    4.9370   25.1110 O   0  0  0  0  0  0  0  0  0  0  0  0
    9.1990    4.9700   22.8180 O   0  0  0  0  0  0  0  0  0  0  0  0
   12.8870    4.4170   22.7450 C   0  0  0  0  0  0  0  0  0  0  0  0
   20.2350    5.2820   24.9210 N   0  0  0  0  0  0  0  0  0  0  0  0
   20.9960    4.1030   24.6930 C   0  0  0  0  0  0  0  0  0  0  0  0
   22.1220    3.7660   25.4530 C   0  0  0  0  0  0  0  0  0  0  0  0
   22.5250    4.5720   26.5250 C   0  0  0  0  0  0  0  0  0  0  0  0
   22.6070    3.9410   27.5820 O   0  0  0  0  0  0  0  0  0  0  0  0
   21.5920    5.5510   26.7930 C   0  0  0  0  0  0  0  0  0  0  0  0
   20.9590    6.1690   25.7100 C   0  0  0  0  0  0  0  0  0  0  0  0
  2  1  1  1
  2  3  1  0
  3  4  1  0
  4  5  2  0
  4  6  1  0
  6  7  1  0
  7  8  1  0
  8  9  2  0
  9 10  1  0
 10 11  2  0
 11 12  1  0
 12 13  1  0
 13 14  1  0
 13 15  2  0
 13 16  2  0
  8 17  1  0
 12 17  2  0
  2 18  1  0
 18 19  1  0
 19 20  1  0
 20 21  1  0
 21 22  1  0
 21 23  1  0
 18 24  1  0
 23 24  1  0
M  END
