MAK-UNK-8145c7a0-7
     RDKit          3D

 26 28  0  0  0  0  0  0  0  0999 V2000
    8.6990   -5.6360   26.5360 C   0  0  0  0  0  0  0  0  0  0  0  0
    8.5390   -4.3080   25.8880 C   0  0  0  0  0  0  0  0  0  0  0  0
    8.0210   -3.2360   26.4410 N   0  0  0  0  0  0  0  0  0  0  0  0
    8.0440   -2.1430   25.5870 N   0  0  0  0  0  0  0  0  0  0  0  0
    8.5750   -2.4330   24.4220 C   0  0  0  0  0  0  0  0  0  0  0  0
    8.7880   -1.4860   23.2740 C   0  0  0  0  0  0  0  0  0  0  0  0
   10.1550   -0.9200   23.3110 N   0  0  0  0  0  0  0  0  0  0  0  0
   11.0440   -1.5480   22.3040 C   0  0  0  0  0  0  0  0  0  0  0  0
   12.4370   -0.9820   22.3240 C   0  0  0  0  0  0  0  0  0  0  0  0
   13.4330   -1.7070   21.7980 F   0  0  0  0  0  0  0  0  0  0  0  0
   12.7220    0.2160   22.8380 C   0  0  0  0  0  0  0  0  0  0  0  0
   11.6350    1.0740   23.4270 C   0  0  0  0  0  0  0  0  0  0  0  0
   10.2150    0.5240   23.2440 C   0  0  2  0  0  0  0  0  0  0  0  0
    9.0700    1.4590   24.4030 S   0  0  0  0  0  0  0  0  0  0  0  0
    9.0680    0.7800   25.6740 O   0  0  0  0  0  0  0  0  0  0  0  0
    9.3400    2.8770   24.3100 O   0  0  0  0  0  0  0  0  0  0  0  0
    7.5200    1.1990   23.7710 N   0  0  0  0  0  0  0  0  0  0  0  0
    6.5720    0.3700   24.5930 C   0  0  0  0  0  0  0  0  0  0  0  0
    6.5680    0.7390   26.0610 C   0  0  0  0  0  0  0  0  0  0  0  0
    6.6340   -0.3910   26.8970 C   0  0  0  0  0  0  0  0  0  0  0  0
    5.5290   -1.2230   27.0530 C   0  0  0  0  0  0  0  0  0  0  0  0
    5.5260   -2.3530   27.8610 C   0  0  0  0  0  0  0  0  0  0  0  0
    6.6770   -2.6970   28.5680 C   0  0  0  0  0  0  0  0  0  0  0  0
    7.8640   -1.9580   28.5120 C   0  0  0  0  0  0  0  0  0  0  0  0
    7.8060   -0.7220   27.6000 C   0  0  0  0  0  0  0  0  0  0  0  0
    9.0600   -4.0560   24.2870 S   0  0  0  0  0  0  0  0  0  0  0  0
  1  2  1  0
  2  3  2  0
  3  4  1  0
  4  5  2  0
  5  6  1  0
  6  7  1  0
  7  8  1  0
  8  9  1  0
  9 10  1  0
  9 11  2  0
 11 12  1  0
  7 13  1  0
 12 13  1  0
 13 14  1  1
 14 15  2  0
 14 16  2  0
 14 17  1  0
 17 18  1  0
 18 19  1  0
 19 20  1  0
 20 21  2  0
 21 22  1  0
 22 23  2  0
 23 24  1  0
 20 25  1  0
 24 25  2  0
  2 26  1  0
  5 26  1  0
M  END
