MAK-UNK-2084232d-21
     RDKit          3D

 21 23  0  0  0  0  0  0  0  0999 V2000
   12.7190   -2.1300   22.1220 N   0  0  0  0  0  0  0  0  0  0  0  0
   12.8370   -2.4010   23.3840 C   0  0  0  0  0  0  0  0  0  0  0  0
   11.5310   -2.1940   24.2140 C   0  0  2  0  0  0  0  0  0  0  0  0
   10.5550   -3.1990   24.1340 O   0  0  0  0  0  0  0  0  0  0  0  0
    9.2850   -3.0870   23.2910 C   0  0  1  0  0  0  0  0  0  0  0  0
    8.1550   -3.9900   23.1920 C   0  0  2  0  0  0  0  0  0  0  0  0
    7.3000   -3.6100   22.2070 C   0  0  0  0  0  0  0  0  0  0  0  0
    6.5920   -4.6450   21.6520 C   0  0  0  0  0  0  0  0  0  0  0  0
    5.8700   -5.3560   22.5960 C   0  0  0  0  0  0  0  0  0  0  0  0
    6.2050   -5.0750   23.9420 C   0  0  0  0  0  0  0  0  0  0  0  0
    7.4920   -4.5860   24.2700 C   0  0  1  0  0  0  0  0  0  0  0  0
    8.2300   -5.7150   24.6930 O   0  0  0  0  0  0  0  0  0  0  0  0
    8.9420   -1.8250   23.8400 C   0  0  0  0  0  0  0  0  0  0  0  0
   10.2530   -1.8190   24.0340 C   0  0  0  0  0  0  0  0  0  0  0  0
   11.0840   -0.7670   23.7540 C   0  0  0  0  0  0  0  0  0  0  0  0
   12.5390   -0.4040   23.8250 C   0  0  0  0  0  0  0  0  0  0  0  0
   13.2590   -1.5680   24.4060 C   0  0  0  0  0  0  0  0  0  0  0  0
   12.4880   -2.7750   24.7790 C   0  0  0  0  0  0  0  0  0  0  0  0
   13.2700   -3.7300   25.3290 O   0  0  0  0  0  0  0  0  0  0  0  0
   11.0650   -2.9100   24.5810 C   0  0  0  0  0  0  0  0  0  0  0  0
   10.5990   -4.1370   24.9680 O   0  0  0  0  0  0  0  0  0  0  0  0
  1  2  1  0
  3  2  1  6
  3  4  1  0
  4  5  1  0
  5  6  1  0
  6  7  1  1
  7  8  1  0
  8  9  1  0
  9 10  1  0
  6 11  1  0
 10 11  1  0
 11 12  1  6
  5 13  1  1
 13 14  1  0
  3 15  1  0
 14 15  2  0
 15 16  1  0
 16 17  2  0
 17 18  1  0
 18 19  1  0
 14 20  1  0
 18 20  2  0
 20 21  1  0
M  END
