MAK-UNK-8145c7a0-8
     RDKit          3D

 26 28  0  0  0  0  0  0  0  0999 V2000
    3.5400   -6.5080   22.9450 C   0  0  0  0  0  0  0  0  0  0  0  0
    3.8830   -6.5070   24.6820 S   0  0  0  0  0  0  0  0  0  0  0  0
    2.8620   -5.7270   25.3480 O   0  0  0  0  0  0  0  0  0  0  0  0
    4.1750   -7.8680   25.0650 O   0  0  0  0  0  0  0  0  0  0  0  0
    5.3330   -5.6420   24.7360 N   0  0  0  0  0  0  0  0  0  0  0  0
    5.3760   -4.3880   25.3870 C   0  0  1  0  0  0  0  0  0  0  0  0
    5.2880   -4.2840   26.7490 C   0  0  0  0  0  0  0  0  0  0  0  0
    6.4800   -4.6430   27.2290 C   0  0  0  0  0  0  0  0  0  0  0  0
    7.2550   -3.9170   28.1240 C   0  0  0  0  0  0  0  0  0  0  0  0
    8.5160   -4.2990   28.5850 C   0  0  0  0  0  0  0  0  0  0  0  0
    9.0580   -5.4940   28.1300 C   0  0  0  0  0  0  0  0  0  0  0  0
    8.2090   -6.0340   27.3170 C   0  0  0  0  0  0  0  0  0  0  0  0
    7.0150   -5.7800   26.8160 C   0  0  0  0  0  0  0  0  0  0  0  0
    6.6100   -3.6530   24.9160 C   0  0  0  0  0  0  0  0  0  0  0  0
    7.5410   -2.8090   25.6800 N   0  0  0  0  0  0  0  0  0  0  0  0
    8.4900   -2.2860   24.8810 N   0  0  0  0  0  0  0  0  0  0  0  0
    8.3260   -2.6910   23.5820 C   0  0  0  0  0  0  0  0  0  0  0  0
    9.2430   -2.2090   22.4820 C   0  0  0  0  0  0  0  0  0  0  0  0
   10.2870   -1.4530   22.8210 N   0  0  0  0  0  0  0  0  0  0  0  0
   10.3400   -0.2040   23.5820 C   0  0  0  0  0  0  0  0  0  0  0  0
   11.0560    0.7230   22.8580 C   0  0  0  0  0  0  0  0  0  0  0  0
   12.3570    0.2850   22.7100 C   0  0  0  0  0  0  0  0  0  0  0  0
   12.5350   -1.0260   22.3320 C   0  0  0  0  0  0  0  0  0  0  0  0
   13.7910   -1.4090   22.1770 F   0  0  0  0  0  0  0  0  0  0  0  0
   11.4990   -1.8770   22.1190 C   0  0  0  0  0  0  0  0  0  0  0  0
    7.0360   -3.7470   23.2580 S   0  0  0  0  0  0  0  0  0  0  0  0
  1  2  1  0
  2  3  2  0
  2  4  2  0
  2  5  1  0
  5  6  1  0
  6  7  1  1
  7  8  1  0
  8  9  2  0
  9 10  1  0
 10 11  2  0
 11 12  1  0
  8 13  1  0
 12 13  2  0
  6 14  1  0
 14 15  2  0
 15 16  1  0
 16 17  2  0
 17 18  1  0
 18 19  1  0
 19 20  1  0
 20 21  1  0
 21 22  1  0
 22 23  2  0
 23 24  1  0
 19 25  1  0
 23 25  1  0
 14 26  1  0
 17 26  1  0
M  END
