MAK-UNK-01147c51-1
     RDKit          3D

 22 24  0  0  0  0  0  0  0  0999 V2000
    5.7660   -2.8340   19.8450 C   0  0  0  0  0  0  0  0  0  0  0  0
    5.8000   -4.2320   20.2670 N   0  0  0  0  0  0  0  0  0  0  0  0
    6.6060   -4.5870   21.4450 C   0  0  2  0  0  0  0  0  0  0  0  0
    5.9570   -5.4190   22.5070 C   0  0  0  0  0  0  0  0  0  0  0  0
    6.9350   -5.7420   23.6200 C   0  0  0  0  0  0  0  0  0  0  0  0
    7.9060   -4.7900   23.9950 C   0  0  0  0  0  0  0  0  0  0  0  0
    8.4560   -3.9460   22.8580 C   0  0  2  0  0  0  0  0  0  0  0  0
    9.6160   -2.9410   22.9750 C   0  0  1  0  0  0  0  0  0  0  0  0
    9.4440   -1.6470   23.6330 C   0  0  0  0  0  0  0  0  0  0  0  0
   10.7210   -1.7650   23.9610 C   0  0  0  0  0  0  0  0  0  0  0  0
   11.4820   -1.3720   24.8820 C   0  0  0  0  0  0  0  0  0  0  0  0
   12.8030   -1.4780   25.3130 C   0  0  0  0  0  0  0  0  0  0  0  0
   13.5940   -2.2460   24.4720 C   0  0  0  0  0  0  0  0  0  0  0  0
   12.9480   -2.7130   23.3660 C   0  0  0  0  0  0  0  0  0  0  0  0
   13.7200   -3.4020   22.4960 O   0  0  0  0  0  0  0  0  0  0  0  0
   11.5560   -2.4940   23.1070 C   0  0  0  0  0  0  0  0  0  0  0  0
   11.1320   -2.9770   22.0690 O   0  0  0  0  0  0  0  0  0  0  0  0
   12.0080   -2.3340   23.9160 C   0  0  1  0  0  0  0  0  0  0  0  0
   13.0560   -2.8670   24.6750 C   0  0  0  0  0  0  0  0  0  0  0  0
   14.3000   -3.0770   23.9720 N   0  0  0  0  0  0  0  0  0  0  0  0
   10.8920   -3.3980   23.6480 O   0  0  0  0  0  0  0  0  0  0  0  0
    7.3120   -3.3870   22.0570 C   0  0  0  0  0  0  0  0  0  0  0  0
  1  2  1  0
  3  2  1  6
  3  4  1  0
  4  5  1  0
  5  6  1  0
  7  6  1  1
  7  8  1  0
  8  9  1  1
  9 10  1  0
 10 11  2  0
 11 12  1  0
 12 13  2  0
 13 14  1  0
 14 15  1  0
 10 16  1  0
 14 16  2  0
 16 17  1  0
 11 18  1  0
 18 19  1  1
 19 20  1  0
  8 21  1  0
 18 21  1  0
  3 22  1  0
  7 22  1  0
M  END
