MAK-UNK-6435e6c2-6
     RDKit          3D

 20 21  0  0  0  0  0  0  0  0999 V2000
    6.3610   -2.9690   21.0810 C   0  0  0  0  0  0  0  0  0  0  0  0
    5.9560   -4.2700   20.8030 C   0  0  0  0  0  0  0  0  0  0  0  0
    5.3010   -4.5320   19.8000 O   0  0  0  0  0  0  0  0  0  0  0  0
    6.3980   -5.2780   21.8010 N   0  0  0  0  0  0  0  0  0  0  0  0
    7.2300   -4.7400   22.8900 C   0  0  0  0  0  0  0  0  0  0  0  0
    6.3490   -4.1620   23.9440 C   0  0  0  0  0  0  0  0  0  0  0  0
    5.1600   -4.9120   24.1060 N   0  0  0  0  0  0  0  0  0  0  0  0
    4.5870   -5.0900   25.7070 S   0  0  0  0  0  0  0  0  0  0  0  0
    3.8250   -6.3200   25.7490 O   0  0  0  0  0  0  0  0  0  0  0  0
    5.6870   -4.8720   26.6280 O   0  0  0  0  0  0  0  0  0  0  0  0
    3.5240   -3.7270   25.8990 C   0  0  0  0  0  0  0  0  0  0  0  0
    2.1840   -3.8350   25.4990 C   0  0  0  0  0  0  0  0  0  0  0  0
    1.6830   -4.9530   24.9650 F   0  0  0  0  0  0  0  0  0  0  0  0
    1.3430   -2.7420   25.6640 C   0  0  0  0  0  0  0  0  0  0  0  0
    1.7240   -1.5200   26.2030 C   0  0  0  0  0  0  0  0  0  0  0  0
    3.0270   -1.3330   26.6200 C   0  0  0  0  0  0  0  0  0  0  0  0
    3.9940   -2.5260   26.4560 C   0  0  0  0  0  0  0  0  0  0  0  0
    5.2590   -2.3630   26.8600 F   0  0  0  0  0  0  0  0  0  0  0  0
    4.6820   -5.8030   23.1840 C   0  0  0  0  0  0  0  0  0  0  0  0
    5.5450   -6.2670   22.1690 C   0  0  0  0  0  0  0  0  0  0  0  0
  1  2  1  0
  2  3  2  0
  2  4  1  0
  4  5  1  0
  5  6  1  0
  6  7  1  0
  7  8  1  0
  8  9  2  0
  8 10  2  0
  8 11  1  0
 11 12  2  0
 12 13  1  0
 12 14  1  0
 14 15  2  0
 15 16  1  0
 11 17  1  0
 16 17  2  0
 17 18  1  0
  7 19  1  0
  4 20  1  0
 19 20  1  0
M  END
