MAK-UNK-1bb0b7ee-3
     RDKit          3D

 27 28  0  0  0  0  0  0  0  0999 V2000
    0.2680   -9.7200   24.4010 C   0  0  0  0  0  0  0  0  0  0  0  0
   -0.5020   -8.7750   23.4280 C   0  0  0  0  0  0  0  0  0  0  0  0
   -0.9200   -9.1700   22.3340 O   0  0  0  0  0  0  0  0  0  0  0  0
   -0.6680   -7.4810   23.9010 N   0  0  0  0  0  0  0  0  0  0  0  0
    0.0180   -6.2890   23.3550 C   0  0  2  0  0  0  0  0  0  0  0  0
   -0.9270   -5.4000   22.8000 C   0  0  0  0  0  0  0  0  0  0  0  0
   -1.5070   -4.5430   23.7880 O   0  0  0  0  0  0  0  0  0  0  0  0
   -1.2660   -5.3580   21.3990 N   0  0  0  0  0  0  0  0  0  0  0  0
   -1.9970   -6.5400   20.9030 C   0  0  0  0  0  0  0  0  0  0  0  0
   -1.9730   -6.6180   19.5090 C   0  0  0  0  0  0  0  0  0  0  0  0
   -2.6920   -5.6970   18.7420 C   0  0  0  0  0  0  0  0  0  0  0  0
   -3.6660   -4.4410   17.6830 Br  0  0  0  0  0  0  0  0  0  0  0  0
    1.0630   -6.6460   22.4950 C   0  0  2  0  0  0  0  0  0  0  0  0
    1.6130   -8.0580   22.4560 C   0  0  0  0  0  0  0  0  0  0  0  0
    2.2670   -5.8370   22.7620 O   0  0  0  0  0  0  0  0  0  0  0  0
    3.4410   -6.5820   22.7480 C   0  0  0  0  0  0  0  0  0  0  0  0
    4.7000   -5.9590   22.5260 C   0  0  0  0  0  0  0  0  0  0  0  0
    4.9510   -4.7230   22.9350 C   0  0  0  0  0  0  0  0  0  0  0  0
    3.9890   -3.8720   23.4540 C   0  0  0  0  0  0  0  0  0  0  0  0
    4.8510   -2.7360   23.7440 C   0  0  0  0  0  0  0  0  0  0  0  0
    6.1930   -2.1840   23.7130 C   0  0  0  0  0  0  0  0  0  0  0  0
    6.7470   -3.2890   23.1590 C   0  0  0  0  0  0  0  0  0  0  0  0
    6.2720   -4.4220   22.7940 N   0  0  0  0  0  0  0  0  0  0  0  0
    5.3690   -6.0070   21.2770 C   0  0  0  0  0  0  0  0  0  0  0  0
    6.6260   -6.1390   21.8580 C   0  0  0  0  0  0  0  0  0  0  0  0
    6.9630   -6.5580   22.8300 C   0  0  0  0  0  0  0  0  0  0  0  0
    5.6960   -6.7630   23.4290 C   0  0  0  0  0  0  0  0  0  0  0  0
  1  2  1  0
  2  3  2  0
  2  4  1  0
  5  4  1  6
  5  6  1  0
  6  7  2  0
  6  8  1  0
  8  9  1  0
  9 10  1  0
 10 11  3  0
 11 12  1  0
  5 13  1  0
 13 14  1  1
 13 15  1  0
 15 16  1  0
 17 16  1  0
 17 18  1  0
 18 19  2  0
 19 20  1  0
 20 21  2  0
 21 22  1  0
 18 23  1  0
 22 23  2  0
 17 24  1  0
 24 25  1  0
 25 26  1  0
 17 27  1  0
 26 27  1  0
M  END
