MAK-UNK-129dcd6f-9
     RDKit          3D

 26 28  0  0  0  0  0  0  0  0999 V2000
   13.6120   -2.7830   23.7900 C   0  0  0  0  0  0  0  0  0  0  0  0
   13.9210   -3.4400   22.4630 C   0  0  0  0  0  0  0  0  0  0  0  0
   15.0870   -4.5940   22.1690 C   0  0  0  0  0  0  0  0  0  0  0  0
   15.3120   -5.1750   21.0380 C   0  0  0  0  0  0  0  0  0  0  0  0
   14.6860   -4.8530   20.1640 N   0  0  0  0  0  0  0  0  0  0  0  0
   13.7850   -3.8990   20.2790 C   0  0  0  0  0  0  0  0  0  0  0  0
   13.3600   -3.1610   21.2650 C   0  0  0  0  0  0  0  0  0  0  0  0
   12.4470   -2.2480   20.9540 N   0  0  0  0  0  0  0  0  0  0  0  0
   12.6580   -1.2420   21.7800 C   0  0  0  0  0  0  0  0  0  0  0  0
   13.5620   -0.4320   21.7430 O   0  0  0  0  0  0  0  0  0  0  0  0
   11.7920   -1.2700   22.6380 C   0  0  0  0  0  0  0  0  0  0  0  0
   12.2070   -1.5060   23.9500 C   0  0  0  0  0  0  0  0  0  0  0  0
   11.2900   -1.5630   24.8370 C   0  0  0  0  0  0  0  0  0  0  0  0
    9.8790   -1.3770   24.4960 C   0  0  0  0  0  0  0  0  0  0  0  0
    9.5190   -1.1500   23.2030 C   0  0  0  0  0  0  0  0  0  0  0  0
    8.1310   -0.9700   22.8700 N   0  0  0  0  0  0  0  0  0  0  0  0
    7.9960   -0.2490   21.6520 C   0  0  0  0  0  0  0  0  0  0  0  0
    8.7170    0.6820   21.2790 O   0  0  0  0  0  0  0  0  0  0  0  0
    7.0050   -0.7320   21.0330 N   0  0  0  0  0  0  0  0  0  0  0  0
    6.2660    0.0210   20.0650 C   0  0  0  0  0  0  0  0  0  0  0  0
    4.9760    0.7680   20.3010 C   0  0  0  0  0  0  0  0  0  0  0  0
    4.4590    1.4840   19.0670 C   0  0  0  0  0  0  0  0  0  0  0  0
    5.1470    1.4230   17.8640 C   0  0  0  0  0  0  0  0  0  0  0  0
    6.3210    0.7450   17.6240 N   0  0  0  0  0  0  0  0  0  0  0  0
    6.8410    0.0810   18.6740 C   0  0  0  0  0  0  0  0  0  0  0  0
   10.4930   -1.0990   22.2510 C   0  0  0  0  0  0  0  0  0  0  0  0
  1  2  1  0
  2  3  2  0
  3  4  1  0
  4  5  2  0
  5  6  1  0
  2  7  1  0
  6  7  2  0
  7  8  1  0
  8  9  1  0
  9 10  2  0
  9 11  1  0
 11 12  2  0
 12 13  1  0
 13 14  2  0
 14 15  1  0
 15 16  1  0
 16 17  1  0
 17 18  2  0
 17 19  1  0
 19 20  1  0
 20 21  2  0
 21 22  1  0
 22 23  2  0
 23 24  1  0
 20 25  1  0
 24 25  2  0
 11 26  1  0
 15 26  2  0
M  END
