MAK-UNK-194150d3-11
     RDKit          3D

 29 31  0  0  0  0  0  0  0  0999 V2000
    6.4350   -4.7780   24.6930 O   0  0  0  0  0  0  0  0  0  0  0  0
    5.3310   -4.5480   25.1670 C   0  0  0  0  0  0  0  0  0  0  0  0
    4.5180   -5.5050   25.6710 O   0  0  0  0  0  0  0  0  0  0  0  0
    4.7820   -3.1420   25.2200 C   0  0  0  0  0  0  0  0  0  0  0  0
    3.5200   -2.9470   25.8340 C   0  0  0  0  0  0  0  0  0  0  0  0
    2.9670   -1.6730   25.9110 C   0  0  0  0  0  0  0  0  0  0  0  0
    1.6270   -1.5500   26.5730 C   0  0  0  0  0  0  0  0  0  0  0  0
    1.6510   -1.6850   27.9590 C   0  0  0  0  0  0  0  0  0  0  0  0
    2.5130   -0.7500   28.5620 C   0  0  0  0  0  0  0  0  0  0  0  0
    2.2520   -0.5090   30.0470 C   0  0  0  0  0  0  0  0  0  0  0  0
    1.3700   -1.5350   30.7200 C   0  0  0  0  0  0  0  0  0  0  0  0
    0.3290   -1.9750   29.8930 C   0  0  0  0  0  0  0  0  0  0  0  0
    0.3750   -1.6440   28.5410 C   0  0  0  0  0  0  0  0  0  0  0  0
    3.6610   -0.5910   25.3820 C   0  0  0  0  0  0  0  0  0  0  0  0
    4.8880   -0.7930   24.7860 C   0  0  0  0  0  0  0  0  0  0  0  0
    5.4950   -2.0390   24.6760 C   0  0  0  0  0  0  0  0  0  0  0  0
    6.7760   -2.1430   24.0410 N   0  0  0  0  0  0  0  0  0  0  0  0
    6.9580   -2.2890   22.3340 S   0  0  0  0  0  0  0  0  0  0  0  0
    8.1500   -3.0920   22.1760 O   0  0  0  0  0  0  0  0  0  0  0  0
    5.7030   -2.6600   21.7070 O   0  0  0  0  0  0  0  0  0  0  0  0
    7.3860   -0.7460   21.8690 N   0  0  0  0  0  0  0  0  0  0  0  0
    8.7830   -0.3270   21.8280 C   0  0  0  0  0  0  0  0  0  0  0  0
    9.3570   -0.5280   23.0850 C   0  0  0  0  0  0  0  0  0  0  0  0
   10.6570   -1.0160   23.1760 C   0  0  0  0  0  0  0  0  0  0  0  0
   11.4060   -1.2980   22.0610 C   0  0  0  0  0  0  0  0  0  0  0  0
   12.7040   -1.7700   22.1800 C   0  0  0  0  0  0  0  0  0  0  0  0
   13.2720   -1.9720   23.4220 C   0  0  0  0  0  0  0  0  0  0  0  0
   12.5300   -1.7020   24.5660 C   0  0  0  0  0  0  0  0  0  0  0  0
   11.2300   -1.2350   24.4170 C   0  0  0  0  0  0  0  0  0  0  0  0
  1  2  2  0
  2  3  1  0
  2  4  1  0
  4  5  2  0
  5  6  1  0
  6  7  1  0
  7  8  1  0
  8  9  1  0
  9 10  1  0
 10 11  1  0
 11 12  1  0
  8 13  1  0
 12 13  1  0
  6 14  2  0
 14 15  1  0
  4 16  1  0
 15 16  2  0
 16 17  1  0
 18 17  1  0
 18 19  2  0
 18 20  2  0
 18 21  1  0
 21 22  1  0
 22 23  1  0
 23 24  1  0
 24 25  2  0
 25 26  1  0
 26 27  2  0
 27 28  1  0
 24 29  1  0
 28 29  2  0
M  END
