MAK-UNK-9a6be56d-23
     RDKit          3D

 38 42  0  0  0  0  0  0  0  0999 V2000
    0.2630   -3.4020   25.7410 C   0  0  0  0  0  0  0  0  0  0  0  0
    1.5060   -2.7680   26.1170 N   0  0  0  0  0  0  0  0  0  0  0  0
    2.7010   -3.0030   25.4900 C   0  0  0  0  0  0  0  0  0  0  0  0
    3.5020   -1.7600   25.5180 C   0  0  0  0  0  0  0  0  0  0  0  0
    4.9920   -1.7830   25.7010 C   0  0  0  0  0  0  0  0  0  0  0  0
    5.5920   -0.5790   25.7080 C   0  0  0  0  0  0  0  0  0  0  0  0
    6.9500   -0.4320   25.8810 C   0  0  0  0  0  0  0  0  0  0  0  0
    7.8700   -0.4150   24.7860 C   0  0  0  0  0  0  0  0  0  0  0  0
    9.3660   -0.2690   25.0950 C   0  0  0  0  0  0  0  0  0  0  0  0
   10.2900   -0.2450   24.0520 N   0  0  0  0  0  0  0  0  0  0  0  0
   11.0140   -1.4140   23.7910 C   0  0  0  0  0  0  0  0  0  0  0  0
   12.1760   -1.3850   22.8180 C   0  0  0  0  0  0  0  0  0  0  0  0
   13.0520   -0.3120   23.0460 C   0  0  0  0  0  0  0  0  0  0  0  0
   12.3810    0.9110   23.1850 C   0  0  0  0  0  0  0  0  0  0  0  0
   12.9730    2.1190   22.8700 C   0  0  0  0  0  0  0  0  0  0  0  0
   12.3190    3.3270   22.9940 C   0  0  0  0  0  0  0  0  0  0  0  0
   10.9240    3.3790   23.4980 C   0  0  0  0  0  0  0  0  0  0  0  0
   10.1000    4.9560   23.6570 S   0  0  0  0  0  0  0  0  0  0  0  0
   11.3030    6.0530   23.2320 N   0  0  0  0  0  0  0  0  0  0  0  0
    9.8000    5.2630   25.0260 O   0  0  0  0  0  0  0  0  0  0  0  0
    9.0780    5.0540   22.6590 O   0  0  0  0  0  0  0  0  0  0  0  0
   10.3260    2.1440   23.8270 C   0  0  0  0  0  0  0  0  0  0  0  0
   11.0560    0.9430   23.6650 C   0  0  0  0  0  0  0  0  0  0  0  0
    9.7510   -0.1670   26.4020 C   0  0  0  0  0  0  0  0  0  0  0  0
    8.8440   -0.1680   27.4280 C   0  0  0  0  0  0  0  0  0  0  0  0
    7.5070   -0.2990   27.1520 C   0  0  0  0  0  0  0  0  0  0  0  0
    6.6860   -0.3030   28.2140 F   0  0  0  0  0  0  0  0  0  0  0  0
    4.5270    0.3110   25.5250 N   0  0  0  0  0  0  0  0  0  0  0  0
    4.6290    2.0170   25.4380 S   0  0  0  0  0  0  0  0  0  0  0  0
    4.1480    2.4250   24.1370 O   0  0  0  0  0  0  0  0  0  0  0  0
    5.9570    2.3250   25.9030 O   0  0  0  0  0  0  0  0  0  0  0  0
    3.4690    2.5970   26.6240 C   0  0  0  0  0  0  0  0  0  0  0  0
    3.4930    2.0670   27.9120 C   0  0  0  0  0  0  0  0  0  0  0  0
    2.5850    2.5060   28.8800 C   0  0  0  0  0  0  0  0  0  0  0  0
    1.6190    3.5760   28.3900 C   0  0  0  0  0  0  0  0  0  0  0  0
    1.6230    4.0700   27.1310 N   0  0  0  0  0  0  0  0  0  0  0  0
    2.5480    3.5700   26.2720 C   0  0  0  0  0  0  0  0  0  0  0  0
    3.2620   -0.3920   25.4130 C   0  0  0  0  0  0  0  0  0  0  0  0
  1  2  1  0
  2  3  1  0
  3  4  1  0
  4  5  1  0
  5  6  2  0
  6  7  1  0
  7  8  2  0
  8  9  1  0
  9 10  1  0
 10 11  1  0
 11 12  1  0
 12 13  1  0
 13 14  1  0
 14 15  2  0
 15 16  1  0
 16 17  2  0
 17 18  1  0
 18 19  1  0
 18 20  2  0
 18 21  2  0
 17 22  1  0
 10 23  1  0
 14 23  1  0
 22 23  2  0
  9 24  2  0
 24 25  1  0
  7 26  1  0
 25 26  2  0
 26 27  1  0
  6 28  1  0
 28 29  1  0
 29 30  2  0
 29 31  2  0
 29 32  1  0
 32 33  2  0
 33 34  1  0
 34 35  2  0
 35 36  1  0
 32 37  1  0
 36 37  2  0
  4 38  2  0
 28 38  1  0
M  END
