MAK-UNK-5e88aa6a-9
     RDKit          3D

 20 20  0  0  0  0  0  0  0  0999 V2000
    8.4840    2.6900   23.8100 N   0  0  0  0  0  0  0  0  0  0  0  0
    9.5020    2.5960   22.4560 S   0  0  0  0  0  0  0  0  0  0  0  0
    8.6710    2.6190   21.2660 O   0  0  0  0  0  0  0  0  0  0  0  0
   10.5870    3.5230   22.6850 O   0  0  0  0  0  0  0  0  0  0  0  0
   10.2380    0.9260   22.4550 C   0  0  0  0  0  0  0  0  0  0  0  0
    9.5780    0.0070   22.0000 O   0  0  0  0  0  0  0  0  0  0  0  0
   11.5390    0.8910   22.9770 N   0  0  0  0  0  0  0  0  0  0  0  0
   12.4670   -0.2230   22.7900 C   0  0  0  0  0  0  0  0  0  0  0  0
   11.9270   -1.3780   22.3200 C   0  0  0  0  0  0  0  0  0  0  0  0
   10.5270   -1.8740   22.6110 C   0  0  0  0  0  0  0  0  0  0  0  0
   10.0130   -2.7630   21.9550 O   0  0  0  0  0  0  0  0  0  0  0  0
    9.8460   -1.2740   23.6510 N   0  0  0  0  0  0  0  0  0  0  0  0
    8.4300   -1.4930   23.8590 C   0  0  0  0  0  0  0  0  0  0  0  0
    8.1080   -2.8480   24.1290 N   0  0  0  0  0  0  0  0  0  0  0  0
    9.1310   -3.5340   24.6850 C   0  0  0  0  0  0  0  0  0  0  0  0
    9.1050   -4.8200   25.5040 C   0  0  0  0  0  0  0  0  0  0  0  0
    8.1650   -4.4440   26.6230 C   0  0  0  0  0  0  0  0  0  0  0  0
    8.0130   -5.4830   27.5670 O   0  0  0  0  0  0  0  0  0  0  0  0
    6.9380   -4.0670   25.8780 C   0  0  0  0  0  0  0  0  0  0  0  0
    7.0050   -2.8750   25.1280 C   0  0  0  0  0  0  0  0  0  0  0  0
  1  2  1  0
  2  3  2  0
  2  4  2  0
  2  5  1  0
  5  6  2  0
  5  7  1  0
  7  8  1  0
  8  9  1  0
  9 10  1  0
 10 11  2  0
 10 12  1  0
 12 13  1  0
 13 14  1  0
 14 15  1  0
 15 16  1  0
 16 17  1  0
 17 18  1  0
 17 19  1  0
 14 20  1  0
 19 20  1  0
M  END
