MAK-UNK-1cb0e944-11
     RDKit          3D

 21 22  0  0  0  0  0  0  0  0999 V2000
   10.2260    6.6720   22.3110 N   0  0  0  0  0  0  0  0  0  0  0  0
   11.7210    6.2430   22.9290 S   0  0  0  0  0  0  0  0  0  0  0  0
   12.6440    6.2240   21.8200 O   0  0  0  0  0  0  0  0  0  0  0  0
   11.9050    7.1150   24.0660 O   0  0  0  0  0  0  0  0  0  0  0  0
   11.4120    4.5320   23.4520 C   0  0  1  0  0  0  0  0  0  0  0  0
   10.0040    4.0880   23.4710 O   0  0  0  0  0  0  0  0  0  0  0  0
    9.9740    2.7670   22.8590 C   0  0  2  0  0  0  0  0  0  0  0  0
    8.9190    1.8660   23.3770 C   0  0  0  0  0  0  0  0  0  0  0  0
    9.4780    0.9220   24.8410 S   0  0  0  0  0  0  0  0  0  0  0  0
   10.0530   -0.6410   24.1060 C   0  0  0  0  0  0  0  0  0  0  0  0
    9.0870   -1.7180   24.2710 N   0  0  0  0  0  0  0  0  0  0  0  0
    9.5810   -3.0260   23.8040 C   0  0  0  0  0  0  0  0  0  0  0  0
    8.4300   -3.9730   23.8690 C   0  0  0  0  0  0  0  0  0  0  0  0
    7.3380   -3.5010   24.7220 C   0  0  0  0  0  0  0  0  0  0  0  0
    6.4640   -4.5170   25.1940 O   0  0  0  0  0  0  0  0  0  0  0  0
    6.6900   -2.3610   24.1250 C   0  0  0  0  0  0  0  0  0  0  0  0
    7.8450   -1.4090   23.7770 C   0  0  0  0  0  0  0  0  0  0  0  0
   11.3910    2.2870   23.0960 C   0  0  1  0  0  0  0  0  0  0  0  0
   11.8000    1.0630   22.5110 O   0  0  0  0  0  0  0  0  0  0  0  0
   12.1070    3.5260   22.5520 C   0  0  2  0  0  0  0  0  0  0  0  0
   13.5180    3.4090   22.6950 O   0  0  0  0  0  0  0  0  0  0  0  0
  2  1  1  0
  2  3  2  0
  2  4  2  0
  5  2  1  6
  5  6  1  0
  6  7  1  0
  7  8  1  1
  8  9  1  0
  9 10  1  0
 10 11  1  0
 11 12  1  0
 12 13  1  0
 13 14  1  0
 14 15  1  0
 14 16  1  0
 11 17  1  0
 16 17  1  0
  7 18  1  0
 18 19  1  6
  5 20  1  0
 18 20  1  0
 20 21  1  1
M  END
