MAK-UNK-129dcd6f-17
     RDKit          3D

 26 28  0  0  0  0  0  0  0  0999 V2000
    2.0900    4.5500   16.1580 C   0  0  0  0  0  0  0  0  0  0  0  0
    1.6220    4.3160   17.5750 C   0  0  0  0  0  0  0  0  0  0  0  0
    0.4450    5.0130   17.8620 C   0  0  0  0  0  0  0  0  0  0  0  0
   -0.1580    4.9290   19.1130 C   0  0  0  0  0  0  0  0  0  0  0  0
    0.3320    4.1930   20.1130 N   0  0  0  0  0  0  0  0  0  0  0  0
    1.4710    3.5190   19.8350 C   0  0  0  0  0  0  0  0  0  0  0  0
    2.1810    3.5140   18.6210 C   0  0  0  0  0  0  0  0  0  0  0  0
    3.3470    2.6620   18.7280 N   0  0  0  0  0  0  0  0  0  0  0  0
    4.4820    2.3240   17.9580 C   0  0  0  0  0  0  0  0  0  0  0  0
    4.8440    2.6760   16.8510 O   0  0  0  0  0  0  0  0  0  0  0  0
    5.2300    1.4480   18.6170 C   0  0  0  0  0  0  0  0  0  0  0  0
    4.9100    1.4300   20.0560 C   0  0  0  0  0  0  0  0  0  0  0  0
    5.6820    0.5020   20.9120 C   0  0  0  0  0  0  0  0  0  0  0  0
    6.7300   -0.3400   20.2220 C   0  0  0  0  0  0  0  0  0  0  0  0
    7.4270   -1.1690   20.9920 N   0  0  0  0  0  0  0  0  0  0  0  0
    8.4250   -0.5250   21.6010 C   0  0  0  0  0  0  0  0  0  0  0  0
    8.6460    0.6410   21.2930 O   0  0  0  0  0  0  0  0  0  0  0  0
    9.1780   -1.1280   22.5280 N   0  0  0  0  0  0  0  0  0  0  0  0
   10.4250   -0.6650   22.6130 C   0  0  0  0  0  0  0  0  0  0  0  0
   10.5700    0.8300   22.9080 C   0  0  0  0  0  0  0  0  0  0  0  0
   11.9850    1.3710   22.9920 C   0  0  0  0  0  0  0  0  0  0  0  0
   13.1860    0.5340   22.8150 C   0  0  0  0  0  0  0  0  0  0  0  0
   12.9820   -0.9430   22.5300 C   0  0  0  0  0  0  0  0  0  0  0  0
   11.5510   -1.4850   22.4380 C   0  0  0  0  0  0  0  0  0  0  0  0
    6.8950   -0.1930   18.8390 C   0  0  0  0  0  0  0  0  0  0  0  0
    6.1900    0.6580   18.0140 N   0  0  0  0  0  0  0  0  0  0  0  0
  1  2  1  0
  2  3  2  0
  3  4  1  0
  4  5  2  0
  5  6  1  0
  2  7  1  0
  6  7  2  0
  7  8  1  0
  8  9  1  0
  9 10  2  0
  9 11  1  0
 11 12  2  0
 12 13  1  0
 13 14  2  0
 14 15  1  0
 15 16  1  0
 16 17  2  0
 16 18  1  0
 18 19  1  0
 19 20  2  0
 20 21  1  0
 21 22  2  0
 22 23  1  0
 19 24  1  0
 23 24  2  0
 14 25  1  0
 11 26  1  0
 25 26  2  0
M  END
