MAK-UNK-9e4a73aa-26
     RDKit          3D

 26 29  0  0  0  0  0  0  0  0999 V2000
    4.7110   -4.4610   21.7510 O   0  0  0  0  0  0  0  0  0  0  0  0
    4.9540   -4.6260   22.9370 C   0  0  0  0  0  0  0  0  0  0  0  0
    4.1610   -5.5080   23.8790 C   0  0  0  0  0  0  0  0  0  0  0  0
    3.0670   -6.3850   23.3350 C   0  0  0  0  0  0  0  0  0  0  0  0
    2.3030   -7.2400   24.3110 C   0  0  0  0  0  0  0  0  0  0  0  0
    1.3270   -8.0230   23.8310 F   0  0  0  0  0  0  0  0  0  0  0  0
    2.5780   -7.2380   25.6760 C   0  0  0  0  0  0  0  0  0  0  0  0
    1.6560   -8.2360   26.7250 Cl  0  0  0  0  0  0  0  0  0  0  0  0
    3.6800   -6.3680   26.2730 C   0  0  0  0  0  0  0  0  0  0  0  0
    4.4450   -5.5070   25.2700 C   0  0  0  0  0  0  0  0  0  0  0  0
    5.4980   -4.6440   25.6930 N   0  0  0  0  0  0  0  0  0  0  0  0
    6.6230   -5.0570   26.3470 C   0  0  0  0  0  0  0  0  0  0  0  0
    7.7800   -5.0860   25.5450 C   0  0  0  0  0  0  0  0  0  0  0  0
    9.0050   -5.4760   26.0730 C   0  0  0  0  0  0  0  0  0  0  0  0
    9.0710   -5.8390   27.4120 C   0  0  0  0  0  0  0  0  0  0  0  0
    7.8370   -5.8110   28.2550 C   0  0  0  0  0  0  0  0  0  0  0  0
    6.6500   -5.4180   27.6860 C   0  0  0  0  0  0  0  0  0  0  0  0
    5.7490   -3.5630   24.8820 C   0  0  0  0  0  0  0  0  0  0  0  0
    5.7480   -2.3910   25.2570 O   0  0  0  0  0  0  0  0  0  0  0  0
    5.9940   -3.9640   23.5770 N   0  0  0  0  0  0  0  0  0  0  0  0
    6.8030   -3.0900   22.7720 C   0  0  0  0  0  0  0  0  0  0  0  0
    8.1880   -2.8830   22.9040 C   0  0  0  0  0  0  0  0  0  0  0  0
    8.8560   -1.9870   22.0600 C   0  0  0  0  0  0  0  0  0  0  0  0
    8.1400   -1.3040   21.0860 C   0  0  0  0  0  0  0  0  0  0  0  0
    6.8270   -1.4430   20.8830 N   0  0  0  0  0  0  0  0  0  0  0  0
    6.1770   -2.3720   21.7740 C   0  0  0  0  0  0  0  0  0  0  0  0
  1  2  2  0
  2  3  1  0
  3  4  2  0
  4  5  1  0
  5  6  1  0
  5  7  2  0
  7  8  1  0
  7  9  1  0
  3 10  1  0
  9 10  2  0
 10 11  1  0
 11 12  1  0
 12 13  2  0
 13 14  1  0
 14 15  2  0
 15 16  1  0
 12 17  1  0
 16 17  2  0
 11 18  1  0
 18 19  2  0
  2 20  1  0
 18 20  1  0
 20 21  1  0
 21 22  2  0
 22 23  1  0
 23 24  2  0
 24 25  1  0
 21 26  1  0
 25 26  2  0
M  END
