MAK-UNK-9159f8ed-6
     RDKit          3D

 26 28  0  0  0  0  0  0  0  0999 V2000
   11.8130   -2.0690   23.9980 C   0  0  0  0  0  0  0  0  0  0  0  0
   11.9660   -1.0860   22.5110 S   0  0  0  0  0  0  0  0  0  0  0  0
   12.0520    0.2960   22.9380 O   0  0  0  0  0  0  0  0  0  0  0  0
   13.0220   -1.6550   21.7050 O   0  0  0  0  0  0  0  0  0  0  0  0
   10.4800   -1.2000   21.6880 N   0  0  0  0  0  0  0  0  0  0  0  0
    9.4880   -2.1380   22.0230 C   0  0  0  0  0  0  0  0  0  0  0  0
    9.5240   -2.9410   23.1470 C   0  0  0  0  0  0  0  0  0  0  0  0
    8.5290   -3.8530   23.4100 C   0  0  0  0  0  0  0  0  0  0  0  0
    7.4690   -4.0020   22.5830 C   0  0  0  0  0  0  0  0  0  0  0  0
    7.3750   -3.2250   21.4530 C   0  0  0  0  0  0  0  0  0  0  0  0
    6.2190   -3.4500   20.6900 C   0  0  0  0  0  0  0  0  0  0  0  0
    6.1280   -3.8790   19.5660 O   0  0  0  0  0  0  0  0  0  0  0  0
    5.1150   -3.1300   21.4170 N   0  0  0  0  0  0  0  0  0  0  0  0
    4.7770   -3.9480   22.5670 C   0  0  0  0  0  0  0  0  0  0  0  0
    4.9040   -5.3360   22.3460 C   0  0  0  0  0  0  0  0  0  0  0  0
    4.5840   -6.1790   23.4120 C   0  0  0  0  0  0  0  0  0  0  0  0
    4.1640   -5.6780   24.6280 C   0  0  0  0  0  0  0  0  0  0  0  0
    4.0590   -4.1860   24.7910 C   0  0  0  0  0  0  0  0  0  0  0  0
    3.6470   -3.7460   26.0180 N   0  0  0  0  0  0  0  0  0  0  0  0
    2.3320   -3.7020   25.9630 C   0  0  0  0  0  0  0  0  0  0  0  0
    1.7910   -2.5520   26.8000 C   0  0  0  0  0  0  0  0  0  0  0  0
    3.0580   -1.8740   27.2690 C   0  0  0  0  0  0  0  0  0  0  0  0
    4.1140   -2.4700   26.5720 C   0  0  0  0  0  0  0  0  0  0  0  0
    5.3210   -1.8290   26.5000 O   0  0  0  0  0  0  0  0  0  0  0  0
    4.3720   -3.3760   23.7460 C   0  0  0  0  0  0  0  0  0  0  0  0
    8.3760   -2.2840   21.1560 C   0  0  0  0  0  0  0  0  0  0  0  0
  1  2  1  0
  2  3  2  0
  2  4  2  0
  2  5  1  0
  5  6  1  0
  6  7  2  0
  7  8  1  0
  8  9  2  0
  9 10  1  0
 10 11  1  0
 11 12  2  0
 11 13  1  0
 13 14  1  0
 14 15  2  0
 15 16  1  0
 16 17  2  0
 17 18  1  0
 18 19  1  0
 19 20  1  0
 20 21  1  0
 21 22  1  0
 19 23  1  0
 22 23  1  0
 23 24  2  0
 14 25  1  0
 18 25  2  0
  6 26  1  0
 10 26  2  0
M  END
