MAK-UNK-f2409524-16
     RDKit          3D

 30 32  0  0  0  0  0  0  0  0999 V2000
   -1.0840   -2.7710   25.4290 C   0  0  0  0  0  0  0  0  0  0  0  0
   -1.8040   -2.4480   24.1450 C   0  0  0  0  0  0  0  0  0  0  0  0
   -2.5060   -3.2840   23.5870 O   0  0  0  0  0  0  0  0  0  0  0  0
   -1.5600   -1.1550   23.7210 N   0  0  0  0  0  0  0  0  0  0  0  0
   -2.0980   -0.5170   22.5690 C   0  0  0  0  0  0  0  0  0  0  0  0
   -3.3960   -0.7810   22.1160 C   0  0  0  0  0  0  0  0  0  0  0  0
   -3.9770   -0.2070   21.0260 N   0  0  0  0  0  0  0  0  0  0  0  0
   -3.2370    0.6780   20.3440 C   0  0  0  0  0  0  0  0  0  0  0  0
   -1.9450    1.0160   20.6940 C   0  0  0  0  0  0  0  0  0  0  0  0
   -1.3560    0.4220   21.8110 C   0  0  0  0  0  0  0  0  0  0  0  0
   -0.1880    0.7900   22.0430 O   0  0  0  0  0  0  0  0  0  0  0  0
    0.5170    1.6320   21.1050 C   0  0  0  0  0  0  0  0  0  0  0  0
   -0.2520    2.7200   20.3070 C   0  0  0  0  0  0  0  0  0  0  0  0
    0.7870    3.3310   19.4920 C   0  0  0  0  0  0  0  0  0  0  0  0
    2.1380    3.3800   19.1120 C   0  0  0  0  0  0  0  0  0  0  0  0
    2.7650    2.3910   19.8640 C   0  0  0  0  0  0  0  0  0  0  0  0
    1.9500    1.5080   20.8720 C   0  0  0  0  0  0  0  0  0  0  0  0
    2.8200    0.5360   21.5560 N   0  0  0  0  0  0  0  0  0  0  0  0
    4.2960    0.6410   21.5820 C   0  0  0  0  0  0  0  0  0  0  0  0
    4.7600    1.6260   22.6520 C   0  0  0  0  0  0  0  0  0  0  0  0
    4.0350    2.7580   22.8730 N   0  0  0  0  0  0  0  0  0  0  0  0
    2.8280    2.5610   23.4780 C   0  0  0  0  0  0  0  0  0  0  0  0
    2.7190    1.6010   24.4310 O   0  0  0  0  0  0  0  0  0  0  0  0
    1.7590    3.3330   23.1220 N   0  0  0  0  0  0  0  0  0  0  0  0
    0.7940    3.6060   23.9920 C   0  0  0  0  0  0  0  0  0  0  0  0
    0.5880    4.9180   24.5280 C   0  0  0  0  0  0  0  0  0  0  0  0
   -0.7210    4.9580   25.3140 C   0  0  0  0  0  0  0  0  0  0  0  0
   -1.9120    4.7530   24.4070 C   0  0  0  0  0  0  0  0  0  0  0  0
   -1.7680    3.3540   23.8220 C   0  0  0  0  0  0  0  0  0  0  0  0
   -0.3250    2.9750   23.3780 C   0  0  0  0  0  0  0  0  0  0  0  0
  1  2  1  0
  2  3  2  0
  2  4  1  0
  4  5  1  0
  5  6  2  0
  6  7  1  0
  7  8  2  0
  8  9  1  0
  5 10  1  0
  9 10  2  0
 10 11  1  0
 11 12  1  0
 12 13  2  0
 13 14  1  0
 14 15  2  0
 15 16  1  0
 12 17  1  0
 16 17  2  0
 17 18  1  0
 18 19  1  0
 19 20  1  0
 20 21  1  0
 21 22  1  0
 22 23  2  0
 22 24  1  0
 24 25  1  0
 25 26  1  0
 26 27  1  0
 27 28  1  0
 28 29  1  0
 25 30  1  0
 29 30  1  0
M  END
