MAK-UNK-de9577cf-13
     RDKit          3D

 37 40  0  0  0  0  0  0  0  0999 V2000
   12.6060   -2.1710   21.4820 C   0  0  0  0  0  0  0  0  0  0  0  0
   13.1100   -0.8450   21.8050 N   0  0  0  0  0  0  0  0  0  0  0  0
   12.1080    0.0340   22.4850 C   0  0  0  0  0  0  0  0  0  0  0  0
   10.7970   -0.4990   22.5260 C   0  0  0  0  0  0  0  0  0  0  0  0
    9.6320   -0.2120   21.8330 C   0  0  0  0  0  0  0  0  0  0  0  0
    8.5330   -1.0060   22.1830 N   0  0  0  0  0  0  0  0  0  0  0  0
    6.9790   -0.8880   21.4910 S   0  0  0  0  0  0  0  0  0  0  0  0
    6.3180   -2.1390   21.8030 O   0  0  0  0  0  0  0  0  0  0  0  0
    7.1370   -0.4790   20.1080 O   0  0  0  0  0  0  0  0  0  0  0  0
    6.1980    0.4250   22.3520 C   0  0  0  0  0  0  0  0  0  0  0  0
    6.6060    0.8020   23.7230 C   0  0  0  0  0  0  0  0  0  0  0  0
    5.9280    1.8640   24.3270 C   0  0  0  0  0  0  0  0  0  0  0  0
    4.9130    2.5360   23.6670 C   0  0  0  0  0  0  0  0  0  0  0  0
    4.5280    2.1970   22.4010 N   0  0  0  0  0  0  0  0  0  0  0  0
    5.1650    1.1460   21.7450 C   0  0  0  0  0  0  0  0  0  0  0  0
    9.0470   -1.8960   23.2290 C   0  0  0  0  0  0  0  0  0  0  0  0
    8.0660   -2.8020   23.7270 C   0  0  0  0  0  0  0  0  0  0  0  0
    7.9290   -4.0000   23.0470 C   0  0  0  0  0  0  0  0  0  0  0  0
    6.9930   -4.9460   23.4610 C   0  0  0  0  0  0  0  0  0  0  0  0
    6.1640   -4.7240   24.5510 C   0  0  0  0  0  0  0  0  0  0  0  0
    6.2690   -3.5180   25.2510 C   0  0  0  0  0  0  0  0  0  0  0  0
    7.2100   -2.5730   24.8370 C   0  0  0  0  0  0  0  0  0  0  0  0
    7.2530   -1.4470   25.5380 F   0  0  0  0  0  0  0  0  0  0  0  0
   10.4530   -1.5120   23.3840 C   0  0  0  0  0  0  0  0  0  0  0  0
   11.5180   -1.8090   24.0770 O   0  0  0  0  0  0  0  0  0  0  0  0
   12.4430   -0.8970   23.5200 C   0  0  0  0  0  0  0  0  0  0  0  0
   13.5930   -1.1770   23.2200 O   0  0  0  0  0  0  0  0  0  0  0  0
   11.8990    0.4700   23.3500 C   0  0  0  0  0  0  0  0  0  0  0  0
   10.5110    0.8010   23.3790 C   0  0  0  0  0  0  0  0  0  0  0  0
   10.0550    2.1540   23.3240 C   0  0  0  0  0  0  0  0  0  0  0  0
   10.9370    3.2440   23.2240 C   0  0  0  0  0  0  0  0  0  0  0  0
   10.3320    4.9280   23.2890 S   0  0  0  0  0  0  0  0  0  0  0  0
    8.8650    4.9060   22.4880 N   0  0  0  0  0  0  0  0  0  0  0  0
   10.0250    5.2520   24.6480 O   0  0  0  0  0  0  0  0  0  0  0  0
   11.2020    5.8200   22.6220 O   0  0  0  0  0  0  0  0  0  0  0  0
   12.3100    3.0260   23.1010 C   0  0  0  0  0  0  0  0  0  0  0  0
   12.7800    1.5600   23.1710 C   0  0  0  0  0  0  0  0  0  0  0  0
  1  2  1  0
  2  3  1  0
  3  4  1  0
  4  5  2  0
  5  6  1  0
  6  7  1  0
  7  8  2  0
  7  9  2  0
  7 10  1  0
 10 11  2  0
 11 12  1  0
 12 13  2  0
 13 14  1  0
 10 15  1  0
 14 15  2  0
  6 16  1  0
 16 17  1  0
 17 18  2  0
 18 19  1  0
 19 20  2  0
 20 21  1  0
 17 22  1  0
 21 22  2  0
 22 23  1  0
  4 24  1  0
 16 24  2  0
 24 25  1  0
 25 26  1  0
 26 27  2  0
 26 28  1  0
 28 29  2  0
 29 30  1  0
 30 31  2  0
 31 32  1  0
 32 33  1  0
 32 34  2  0
 32 35  2  0
 31 36  1  0
 28 37  1  0
 36 37  2  0
M  END
