MAK-UNK-f2409524-8
     RDKit          3D

 28 31  0  0  0  0  0  0  0  0999 V2000
    2.6620    2.4990   30.6260 C   0  0  0  0  0  0  0  0  0  0  0  0
    2.2830    1.8180   29.3640 C   0  0  0  0  0  0  0  0  0  0  0  0
    2.3230    2.3770   28.1010 C   0  0  0  0  0  0  0  0  0  0  0  0
    2.7420    3.7010   27.8890 C   0  0  0  0  0  0  0  0  0  0  0  0
    1.8520    4.7750   28.0700 C   0  0  0  0  0  0  0  0  0  0  0  0
    2.2200    6.0750   27.8820 N   0  0  0  0  0  0  0  0  0  0  0  0
    3.4930    6.4240   27.5020 C   0  0  0  0  0  0  0  0  0  0  0  0
    4.4820    5.4290   27.2870 N   0  0  0  0  0  0  0  0  0  0  0  0
    4.0350    4.0650   27.5020 C   0  0  0  0  0  0  0  0  0  0  0  0
    1.9260    1.5720   27.0290 N   0  0  0  0  0  0  0  0  0  0  0  0
    1.6750    1.9930   25.7530 C   0  0  0  0  0  0  0  0  0  0  0  0
    2.7720    1.9760   24.6790 C   0  0  0  0  0  0  0  0  0  0  0  0
    4.0710    1.3100   25.2100 C   0  0  0  0  0  0  0  0  0  0  0  0
    5.1380    1.2320   24.3220 N   0  0  0  0  0  0  0  0  0  0  0  0
    5.0860    1.7180   23.0160 C   0  0  0  0  0  0  0  0  0  0  0  0
    3.9080    2.3470   22.4710 N   0  0  0  0  0  0  0  0  0  0  0  0
    2.7290    2.4690   23.3410 C   0  0  0  0  0  0  0  0  0  0  0  0
    1.6160    3.0970   22.7030 N   0  0  0  0  0  0  0  0  0  0  0  0
    0.3910    3.7200   23.2570 C   0  0  0  0  0  0  0  0  0  0  0  0
    0.5460    4.5490   24.5330 C   0  0  0  0  0  0  0  0  0  0  0  0
   -0.6860    4.9650   25.0410 C   0  0  0  0  0  0  0  0  0  0  0  0
   -1.8260    4.5810   24.3320 C   0  0  0  0  0  0  0  0  0  0  0  0
   -1.8940    3.2750   23.8260 C   0  0  0  0  0  0  0  0  0  0  0  0
   -0.7040    2.6650   23.4440 C   0  0  0  0  0  0  0  0  0  0  0  0
    1.4910    0.3250   27.5510 C   0  0  0  0  0  0  0  0  0  0  0  0
    0.9190   -0.7950   26.9250 C   0  0  0  0  0  0  0  0  0  0  0  0
    0.6110   -1.0150   25.6080 O   0  0  0  0  0  0  0  0  0  0  0  0
    1.7160    0.1570   29.3250 S   0  0  0  0  0  0  0  0  0  0  0  0
  1  2  1  0
  2  3  2  0
  3  4  1  0
  4  5  2  0
  5  6  1  0
  6  7  2  0
  7  8  1  0
  4  9  1  0
  8  9  2  0
  3 10  1  0
 10 11  1  0
 11 12  1  0
 12 13  2  0
 13 14  1  0
 14 15  2  0
 15 16  1  0
 12 17  1  0
 16 17  2  0
 17 18  1  0
 18 19  1  0
 19 20  1  0
 20 21  1  0
 21 22  1  0
 22 23  1  0
 19 24  1  0
 23 24  1  0
 10 25  1  0
 25 26  2  3
 26 27  1  0
  2 28  1  0
 25 28  1  0
M  END
