MAK-UNK-702fb7d3-2
     RDKit          3D

 43 48  0  0  0  0  0  0  0  0999 V2000
    6.7840    1.1590   24.0190 O   0  0  0  0  0  0  0  0  0  0  0  0
    7.4280    0.1220   24.1320 C   0  0  0  0  0  0  0  0  0  0  0  0
    6.0130   -0.3820   24.1500 C   0  0  2  0  0  0  0  0  0  0  0  0
    5.4740   -0.1650   22.4720 Cl  0  0  0  0  0  0  0  0  0  0  0  0
    5.2000    0.3720   25.0050 N   0  0  0  0  0  0  0  0  0  0  0  0
    4.7950   -0.0480   26.3620 C   0  0  0  0  0  0  0  0  0  0  0  0
    4.3460   -1.3600   26.3300 C   0  0  0  0  0  0  0  0  0  0  0  0
    4.8740   -2.4150   27.2230 C   0  0  0  0  0  0  0  0  0  0  0  0
    4.3070   -3.6420   27.0020 C   0  0  0  0  0  0  0  0  0  0  0  0
    4.6850   -4.7970   27.7200 C   0  0  0  0  0  0  0  0  0  0  0  0
    3.7590   -6.0030   27.8230 C   0  0  0  0  0  0  0  0  0  0  0  0
    4.3150   -7.1670   28.6100 C   0  0  0  0  0  0  0  0  0  0  0  0
    5.5940   -7.0760   29.1730 C   0  0  0  0  0  0  0  0  0  0  0  0
    6.3680   -5.9270   29.0280 C   0  0  0  0  0  0  0  0  0  0  0  0
    5.9340   -4.8110   28.3270 C   0  0  0  0  0  0  0  0  0  0  0  0
    6.7400   -3.7490   28.2450 F   0  0  0  0  0  0  0  0  0  0  0  0
    3.3550   -3.5000   25.9530 N   0  0  0  0  0  0  0  0  0  0  0  0
    2.3570   -4.6490   25.1930 S   0  0  0  0  0  0  0  0  0  0  0  0
    1.1690   -3.9870   24.7160 O   0  0  0  0  0  0  0  0  0  0  0  0
    2.2810   -5.8380   26.0100 O   0  0  0  0  0  0  0  0  0  0  0  0
    3.4240   -4.9050   23.8980 C   0  0  0  0  0  0  0  0  0  0  0  0
    4.0340   -3.7930   23.3260 C   0  0  0  0  0  0  0  0  0  0  0  0
    4.9280   -3.9210   22.2890 C   0  0  0  0  0  0  0  0  0  0  0  0
    5.2810   -5.1530   21.7430 C   0  0  0  0  0  0  0  0  0  0  0  0
    4.7690   -6.3210   22.1860 N   0  0  0  0  0  0  0  0  0  0  0  0
    3.8150   -6.2030   23.2930 C   0  0  0  0  0  0  0  0  0  0  0  0
    3.3660   -2.0630   25.5280 C   0  0  0  0  0  0  0  0  0  0  0  0
    7.7730   -1.2200   24.2700 N   0  0  0  0  0  0  0  0  0  0  0  0
    7.1360   -2.0800   25.2700 C   0  0  0  0  0  0  0  0  0  0  0  0
    7.0580   -3.3600   24.7720 C   0  0  0  0  0  0  0  0  0  0  0  0
    6.0230   -4.1670   25.2580 C   0  0  0  0  0  0  0  0  0  0  0  0
    5.8600   -5.4430   24.7560 C   0  0  0  0  0  0  0  0  0  0  0  0
    6.7150   -5.9020   23.7740 C   0  0  0  0  0  0  0  0  0  0  0  0
    7.7350   -5.1140   23.3080 C   0  0  0  0  0  0  0  0  0  0  0  0
    7.9560   -3.8380   23.7910 C   0  0  0  0  0  0  0  0  0  0  0  0
    9.0980   -2.9360   23.2300 C   0  0  2  0  0  0  0  0  0  0  0  0
   10.6070   -2.8190   23.2560 C   0  0  0  0  0  0  0  0  0  0  0  0
   11.1320   -2.2060   22.1120 C   0  0  0  0  0  0  0  0  0  0  0  0
   12.6090   -1.9650   22.0120 C   0  0  0  0  0  0  0  0  0  0  0  0
   13.3850   -2.3600   23.0700 C   0  0  0  0  0  0  0  0  0  0  0  0
   12.8460   -2.9630   24.1780 C   0  0  0  0  0  0  0  0  0  0  0  0
   11.4890   -3.1890   24.2590 C   0  0  0  0  0  0  0  0  0  0  0  0
    9.0780   -1.6380   23.9450 C   0  0  0  0  0  0  0  0  0  0  0  0
  1  2  2  0
  2  3  1  0
  3  4  1  6
  3  5  1  0
  5  6  1  0
  6  7  1  0
  7  8  1  0
  8  9  2  0
  9 10  1  0
 10 11  2  0
 11 12  1  0
 12 13  2  0
 13 14  1  0
 10 15  1  0
 14 15  2  0
 15 16  1  0
  9 17  1  0
 17 18  1  0
 18 19  2  0
 18 20  2  0
 18 21  1  0
 21 22  2  0
 22 23  1  0
 23 24  2  0
 24 25  1  0
 21 26  1  0
 25 26  2  0
  7 27  2  0
 17 27  1  0
  2 28  1  0
 28 29  1  0
 29 30  1  0
 30 31  2  0
 31 32  1  0
 32 33  2  0
 33 34  1  0
 30 35  1  0
 34 35  2  0
 35 36  1  0
 36 37  1  1
 37 38  2  0
 38 39  1  0
 39 40  2  0
 40 41  1  0
 37 42  1  0
 41 42  2  0
 28 43  1  0
 36 43  1  0
M  END
