MAK-UNK-31051d4e-3
     RDKit          3D

 25 27  0  0  0  0  0  0  0  0999 V2000
    8.8330   -5.1920   25.9530 O   0  0  0  0  0  0  0  0  0  0  0  0
    7.9760   -4.0720   26.2720 S   0  0  0  0  0  0  0  0  0  0  0  0
    8.1500   -3.3850   27.5340 O   0  0  0  0  0  0  0  0  0  0  0  0
    8.0330   -2.9080   24.9840 N   0  0  0  0  0  0  0  0  0  0  0  0
    8.8480   -3.1590   23.7700 C   0  0  0  0  0  0  0  0  0  0  0  0
    8.9610   -1.8750   22.9640 C   0  0  0  0  0  0  0  0  0  0  0  0
   10.3440   -1.2900   22.8410 C   0  0  0  0  0  0  0  0  0  0  0  0
   10.7150    0.1080   23.3200 C   0  0  0  0  0  0  0  0  0  0  0  0
   12.1300    0.5600   23.1390 C   0  0  0  0  0  0  0  0  0  0  0  0
   13.0800   -0.2160   22.5750 C   0  0  0  0  0  0  0  0  0  0  0  0
   12.6860   -1.5710   22.1080 C   0  0  0  0  0  0  0  0  0  0  0  0
   11.3660   -2.0550   22.2500 C   0  0  0  0  0  0  0  0  0  0  0  0
    6.3640   -4.7120   26.4580 C   0  0  0  0  0  0  0  0  0  0  0  0
    6.1410   -6.0320   26.8730 C   0  0  0  0  0  0  0  0  0  0  0  0
    4.4830   -6.4960   26.9980 S   0  0  0  0  0  0  0  0  0  0  0  0
    3.9880   -4.9480   26.5130 C   0  0  0  0  0  0  0  0  0  0  0  0
    5.1280   -4.0090   26.2330 C   0  0  0  0  0  0  0  0  0  0  0  0
    4.7860   -2.5930   25.7990 C   0  0  0  0  0  0  0  0  0  0  0  0
    3.7800   -1.9960   26.6940 N   0  0  0  0  0  0  0  0  0  0  0  0
    2.9140   -1.1040   25.9090 C   0  0  0  0  0  0  0  0  0  0  0  0
    3.2410    0.2450   26.0580 C   0  0  0  0  0  0  0  0  0  0  0  0
    3.3420    0.7240   27.3550 C   0  0  0  0  0  0  0  0  0  0  0  0
    4.2660    1.8130   27.3350 O   0  0  0  0  0  0  0  0  0  0  0  0
    3.7070   -0.1910   28.3370 C   0  0  0  0  0  0  0  0  0  0  0  0
    4.3450   -1.3810   27.9180 C   0  0  0  0  0  0  0  0  0  0  0  0
  1  2  2  0
  2  3  2  0
  2  4  1  0
  4  5  1  0
  5  6  1  0
  6  7  1  0
  7  8  2  0
  8  9  1  0
  9 10  2  0
 10 11  1  0
  7 12  1  0
 11 12  2  0
  2 13  1  0
 13 14  2  0
 14 15  1  0
 15 16  1  0
 13 17  1  0
 16 17  2  0
 17 18  1  0
 18 19  1  0
 19 20  1  0
 20 21  1  0
 21 22  1  0
 22 23  1  0
 22 24  1  0
 19 25  1  0
 24 25  1  0
M  END
