MAK-UNK-129dcd6f-4
     RDKit          3D

 26 28  0  0  0  0  0  0  0  0999 V2000
   11.9650    0.2050   24.1390 C   0  0  0  0  0  0  0  0  0  0  0  0
   12.0150   -0.7640   22.9730 C   0  0  0  0  0  0  0  0  0  0  0  0
   13.2770   -0.6290   22.2090 C   0  0  0  0  0  0  0  0  0  0  0  0
   13.4620   -1.5350   21.0300 C   0  0  0  0  0  0  0  0  0  0  0  0
   12.5930   -2.4230   20.6370 N   0  0  0  0  0  0  0  0  0  0  0  0
   11.4640   -2.5060   21.3370 C   0  0  0  0  0  0  0  0  0  0  0  0
   11.0760   -1.7390   22.5290 C   0  0  0  0  0  0  0  0  0  0  0  0
    9.8640   -1.9540   23.1900 N   0  0  0  0  0  0  0  0  0  0  0  0
    9.7590   -1.0940   24.1780 C   0  0  0  0  0  0  0  0  0  0  0  0
    9.1440   -1.1330   25.2420 O   0  0  0  0  0  0  0  0  0  0  0  0
   10.6300    0.0290   23.6950 C   0  0  0  0  0  0  0  0  0  0  0  0
   12.1340    0.3110   23.8380 C   0  0  0  0  0  0  0  0  0  0  0  0
   12.5790    1.4590   23.2610 C   0  0  0  0  0  0  0  0  0  0  0  0
   11.7250    2.3020   22.6090 C   0  0  0  0  0  0  0  0  0  0  0  0
   10.3850    2.0120   22.4780 C   0  0  0  0  0  0  0  0  0  0  0  0
    9.8800    0.8790   23.0140 C   0  0  0  0  0  0  0  0  0  0  0  0
    8.5630    0.5320   22.8730 N   0  0  0  0  0  0  0  0  0  0  0  0
    8.1160    0.6370   21.6210 C   0  0  0  0  0  0  0  0  0  0  0  0
    8.4720    1.5540   20.8850 O   0  0  0  0  0  0  0  0  0  0  0  0
    7.2580   -0.3410   21.2290 N   0  0  0  0  0  0  0  0  0  0  0  0
    6.5130    0.0740   20.0620 C   0  0  0  0  0  0  0  0  0  0  0  0
    5.2290    0.7810   20.4440 C   0  0  0  0  0  0  0  0  0  0  0  0
    4.4260    1.2880   19.2610 C   0  0  0  0  0  0  0  0  0  0  0  0
    5.0120    1.0160   17.9740 C   0  0  0  0  0  0  0  0  0  0  0  0
    6.1570    0.3660   17.7320 N   0  0  0  0  0  0  0  0  0  0  0  0
    6.8790   -0.0900   18.7580 C   0  0  0  0  0  0  0  0  0  0  0  0
  1  2  1  0
  2  3  2  0
  3  4  1  0
  4  5  2  0
  5  6  1  0
  2  7  1  0
  6  7  2  0
  7  8  1  0
  8  9  1  0
  9 10  2  0
  9 11  1  0
 11 12  2  0
 12 13  1  0
 13 14  2  0
 14 15  1  0
 11 16  1  0
 15 16  2  0
 16 17  1  0
 17 18  1  0
 18 19  2  0
 18 20  1  0
 20 21  1  0
 21 22  2  0
 22 23  1  0
 23 24  2  0
 24 25  1  0
 21 26  1  0
 25 26  2  0
M  END
