MAK-UNK-129dcd6f-13
     RDKit          3D

 26 28  0  0  0  0  0  0  0  0999 V2000
   10.4760    2.0970   22.9590 C   0  0  0  0  0  0  0  0  0  0  0  0
   11.9480    2.0370   23.1360 C   0  0  0  0  0  0  0  0  0  0  0  0
   12.5170    3.2580   22.6460 O   0  0  0  0  0  0  0  0  0  0  0  0
   12.5810    0.9580   23.7020 N   0  0  0  0  0  0  0  0  0  0  0  0
   12.6400   -0.1150   22.8530 C   0  0  0  0  0  0  0  0  0  0  0  0
   13.6420   -0.3110   21.9600 C   0  0  0  0  0  0  0  0  0  0  0  0
   13.7830   -1.3590   21.0330 N   0  0  0  0  0  0  0  0  0  0  0  0
   12.8480   -2.2780   21.0320 C   0  0  0  0  0  0  0  0  0  0  0  0
   11.7280   -2.1200   21.9940 C   0  0  0  0  0  0  0  0  0  0  0  0
   11.7230   -1.0440   22.8200 C   0  0  0  0  0  0  0  0  0  0  0  0
   10.8520   -0.7780   23.6250 C   0  0  0  0  0  0  0  0  0  0  0  0
   11.1460   -0.5100   24.9290 C   0  0  0  0  0  0  0  0  0  0  0  0
   10.0840   -0.1850   25.7240 C   0  0  0  0  0  0  0  0  0  0  0  0
    8.7820   -0.1120   25.2810 C   0  0  0  0  0  0  0  0  0  0  0  0
    8.6120   -0.4360   23.8230 C   0  0  0  0  0  0  0  0  0  0  0  0
    7.4120   -0.4010   23.2520 N   0  0  0  0  0  0  0  0  0  0  0  0
    7.8100   -0.1060   21.8720 C   0  0  0  0  0  0  0  0  0  0  0  0
    8.6640    0.6980   21.5050 O   0  0  0  0  0  0  0  0  0  0  0  0
    7.0750   -0.8430   21.0260 N   0  0  0  0  0  0  0  0  0  0  0  0
    6.4550   -0.1230   19.9700 C   0  0  0  0  0  0  0  0  0  0  0  0
    5.3980    0.6560   20.3270 C   0  0  0  0  0  0  0  0  0  0  0  0
    4.6630    1.4860   19.2930 C   0  0  0  0  0  0  0  0  0  0  0  0
    5.1570    1.3780   17.9940 C   0  0  0  0  0  0  0  0  0  0  0  0
    6.2050    0.5900   17.6620 N   0  0  0  0  0  0  0  0  0  0  0  0
    6.8210   -0.1320   18.6450 C   0  0  0  0  0  0  0  0  0  0  0  0
    9.6520   -0.7580   23.0570 C   0  0  0  0  0  0  0  0  0  0  0  0
  1  2  1  0
  2  3  2  0
  2  4  1  0
  4  5  1  0
  5  6  2  0
  6  7  1  0
  7  8  2  0
  8  9  1  0
  5 10  1  0
  9 10  2  0
 10 11  1  0
 11 12  2  0
 12 13  1  0
 13 14  2  0
 14 15  1  0
 15 16  1  0
 16 17  1  0
 17 18  2  0
 17 19  1  0
 19 20  1  0
 20 21  2  0
 21 22  1  0
 22 23  2  0
 23 24  1  0
 20 25  1  0
 24 25  2  0
 11 26  1  0
 15 26  2  0
M  END
