MAK-UNK-198e6d85-12
     RDKit          3D

 22 24  0  0  0  0  0  0  0  0999 V2000
   12.8370   -2.3170   21.9380 N   0  0  0  0  0  0  0  0  0  0  0  0
   12.9080   -2.5040   23.4060 C   0  0  0  0  0  0  0  0  0  0  0  0
   11.6200   -2.0130   24.1550 C   0  0  2  0  0  0  0  0  0  0  0  0
   10.5310   -3.1410   23.9490 O   0  0  0  0  0  0  0  0  0  0  0  0
    9.2770   -2.9400   23.1200 C   0  0  1  0  0  0  0  0  0  0  0  0
    8.0970   -3.7670   23.1080 C   0  0  2  0  0  0  0  0  0  0  0  0
    7.1600   -3.3170   22.2220 C   0  0  2  0  0  0  0  0  0  0  0  0
    6.2530   -2.5830   22.6340 O   0  0  0  0  0  0  0  0  0  0  0  0
    6.5260   -4.5460   21.5700 C   0  0  0  0  0  0  0  0  0  0  0  0
    5.8900   -5.3920   22.6320 C   0  0  0  0  0  0  0  0  0  0  0  0
    6.6910   -5.5660   23.7680 C   0  0  0  0  0  0  0  0  0  0  0  0
    7.5330   -4.5050   24.1540 C   0  0  2  0  0  0  0  0  0  0  0  0
    7.0340   -3.7240   24.9620 O   0  0  0  0  0  0  0  0  0  0  0  0
    9.0980   -1.5570   23.5000 C   0  0  0  0  0  0  0  0  0  0  0  0
   10.4050   -1.5950   23.8250 C   0  0  0  0  0  0  0  0  0  0  0  0
   11.3170   -0.7090   23.7010 C   0  0  0  0  0  0  0  0  0  0  0  0
   12.7550   -0.4610   23.9330 C   0  0  0  0  0  0  0  0  0  0  0  0
   13.3940   -1.6870   24.5750 C   0  0  0  0  0  0  0  0  0  0  0  0
   12.5900   -2.7710   24.8280 C   0  0  0  0  0  0  0  0  0  0  0  0
   13.1760   -3.6860   25.3630 O   0  0  0  0  0  0  0  0  0  0  0  0
   11.0420   -2.7460   24.4290 C   0  0  0  0  0  0  0  0  0  0  0  0
   10.3920   -3.8990   24.7230 O   0  0  0  0  0  0  0  0  0  0  0  0
  1  2  1  0
  3  2  1  6
  3  4  1  0
  4  5  1  0
  6  5  1  1
  6  7  1  0
  7  8  1  1
  7  9  1  0
  9 10  1  0
 10 11  1  0
  6 12  1  0
 11 12  1  0
 12 13  1  1
  5 14  1  1
 14 15  1  0
  3 16  1  0
 15 16  2  0
 16 17  1  0
 17 18  2  0
 18 19  1  0
 19 20  1  0
 15 21  1  0
 19 21  2  0
 21 22  1  0
M  END
