MAK-UNK-a7992eb3-11
     RDKit          3D

 32 34  0  0  0  0  0  0  0  0999 V2000
    7.3680    3.0790   25.3790 C   0  0  0  0  0  0  0  0  0  0  0  0
    6.4200    2.8210   26.5210 C   0  0  0  0  0  0  0  0  0  0  0  0
    6.7460    3.0440   27.6910 O   0  0  0  0  0  0  0  0  0  0  0  0
    5.1970    2.3370   26.1380 N   0  0  0  0  0  0  0  0  0  0  0  0
    4.2210    2.2100   27.0600 C   0  0  2  0  0  0  0  0  0  0  0  0
    3.3840    0.9610   27.2170 C   0  0  0  0  0  0  0  0  0  0  0  0
    3.5860   -0.1100   26.3390 C   0  0  0  0  0  0  0  0  0  0  0  0
    2.6240   -1.3180   26.3270 C   0  0  0  0  0  0  0  0  0  0  0  0
    2.8740   -2.4820   25.3510 C   0  0  0  0  0  0  0  0  0  0  0  0
    4.0450   -2.4490   24.4080 C   0  0  0  0  0  0  0  0  0  0  0  0
    4.0960   -3.6220   23.5910 O   0  0  0  0  0  0  0  0  0  0  0  0
    4.9600   -4.6210   23.9800 C   0  0  0  0  0  0  0  0  0  0  0  0
    6.3180   -4.3000   24.0740 C   0  0  0  0  0  0  0  0  0  0  0  0
    7.0950   -4.2670   22.9130 C   0  0  0  0  0  0  0  0  0  0  0  0
    6.5430   -5.0120   21.9490 N   0  0  0  0  0  0  0  0  0  0  0  0
    5.6430   -4.6540   20.8860 C   0  0  0  0  0  0  0  0  0  0  0  0
    5.5320   -3.2560   20.7430 C   0  0  0  0  0  0  0  0  0  0  0  0
    5.5570   -2.3540   21.7830 C   0  0  0  0  0  0  0  0  0  0  0  0
    5.4130   -0.9770   21.3160 C   0  0  0  0  0  0  0  0  0  0  0  0
    5.2510   -0.7810   19.6450 S   0  0  0  0  0  0  0  0  0  0  0  0
    5.3700   -2.5260   19.5210 C   0  0  0  0  0  0  0  0  0  0  0  0
    5.8910   -6.1640   22.5640 C   0  0  0  0  0  0  0  0  0  0  0  0
    4.7250   -5.8030   23.2520 C   0  0  0  0  0  0  0  0  0  0  0  0
    4.8770   -1.3260   24.4680 C   0  0  0  0  0  0  0  0  0  0  0  0
    4.6200   -0.2950   25.3640 C   0  0  0  0  0  0  0  0  0  0  0  0
    3.3570    3.4850   26.9530 C   0  0  0  0  0  0  0  0  0  0  0  0
    3.2690    4.1090   25.8910 O   0  0  0  0  0  0  0  0  0  0  0  0
    2.7000    3.8670   28.1080 N   0  0  0  0  0  0  0  0  0  0  0  0
    1.8620    5.0250   28.1330 C   0  0  0  0  0  0  0  0  0  0  0  0
    0.7880    5.0790   29.0250 C   0  0  0  0  0  0  0  0  0  0  0  0
    0.6050    6.1970   29.8350 C   0  0  0  0  0  0  0  0  0  0  0  0
    0.3560    7.7210   30.9560 Br  0  0  0  0  0  0  0  0  0  0  0  0
  1  2  1  0
  2  3  2  0
  2  4  1  0
  4  5  1  0
  5  6  1  6
  6  7  1  0
  7  8  2  0
  8  9  1  0
  9 10  2  0
 10 11  1  0
 11 12  1  0
 12 13  1  0
 13 14  1  0
 14 15  1  0
 15 16  1  0
 16 17  1  0
 17 18  1  0
 18 19  2  0
 19 20  1  0
 17 21  2  0
 20 21  1  0
 15 22  1  0
 12 23  1  0
 22 23  1  0
 10 24  1  0
  7 25  1  0
 24 25  2  0
  5 26  1  0
 26 27  2  0
 26 28  1  0
 28 29  1  0
 29 30  1  0
 30 31  3  0
 31 32  1  0
M  END
