MAK-UNK-9a6be56d-27
     RDKit          3D

 38 42  0  0  0  0  0  0  0  0999 V2000
    9.9580   -0.3820   25.0840 C   0  0  0  0  0  0  0  0  0  0  0  0
   10.5120   -0.3980   23.8130 N   0  0  0  0  0  0  0  0  0  0  0  0
   11.1980   -1.5130   23.2310 C   0  0  0  0  0  0  0  0  0  0  0  0
   12.4860   -1.3260   22.6970 C   0  0  0  0  0  0  0  0  0  0  0  0
   13.1710   -0.1540   23.0130 C   0  0  0  0  0  0  0  0  0  0  0  0
   12.3870    0.9560   23.1530 C   0  0  0  0  0  0  0  0  0  0  0  0
   12.9900    2.3000   22.8750 C   0  0  0  0  0  0  0  0  0  0  0  0
   12.1260    3.5060   23.0260 C   0  0  0  0  0  0  0  0  0  0  0  0
   10.8020    3.3870   23.4100 C   0  0  0  0  0  0  0  0  0  0  0  0
    9.9910    4.9010   23.5290 S   0  0  0  0  0  0  0  0  0  0  0  0
   10.9390    5.9950   22.6720 N   0  0  0  0  0  0  0  0  0  0  0  0
    9.9450    5.3870   24.8880 O   0  0  0  0  0  0  0  0  0  0  0  0
    8.7750    4.8340   22.7560 O   0  0  0  0  0  0  0  0  0  0  0  0
   10.2650    2.0900   23.6580 C   0  0  0  0  0  0  0  0  0  0  0  0
    8.9480    1.8410   24.0260 N   0  0  0  0  0  0  0  0  0  0  0  0
    8.1000    2.9380   24.5160 C   0  0  0  0  0  0  0  0  0  0  0  0
    7.1430    2.2860   25.2760 C   0  0  0  0  0  0  0  0  0  0  0  0
    6.7140    1.0020   25.0040 C   0  0  0  0  0  0  0  0  0  0  0  0
    5.7000    0.5470   25.9810 C   0  0  0  0  0  0  0  0  0  0  0  0
    5.0200   -0.8390   25.9680 C   0  0  0  0  0  0  0  0  0  0  0  0
    5.8340   -1.9940   26.0090 C   0  0  0  0  0  0  0  0  0  0  0  0
    5.4000   -3.4950   25.9980 C   0  0  0  0  0  0  0  0  0  0  0  0
    3.8460   -3.3970   25.9340 C   0  0  0  0  0  0  0  0  0  0  0  0
    3.0840   -2.2420   25.8970 C   0  0  0  0  0  0  0  0  0  0  0  0
    3.6390   -0.9800   25.9120 C   0  0  0  0  0  0  0  0  0  0  0  0
    2.8320    0.0920   25.8700 F   0  0  0  0  0  0  0  0  0  0  0  0
    5.5670    1.6180   26.8160 N   0  0  0  0  0  0  0  0  0  0  0  0
    4.5550    1.7480   28.1850 S   0  0  0  0  0  0  0  0  0  0  0  0
    3.4110    0.8600   28.0200 O   0  0  0  0  0  0  0  0  0  0  0  0
    4.3130    3.1710   28.3830 O   0  0  0  0  0  0  0  0  0  0  0  0
    5.5560    1.1100   29.4770 C   0  0  0  0  0  0  0  0  0  0  0  0
    5.6220    1.6810   30.7390 C   0  0  0  0  0  0  0  0  0  0  0  0
    6.4220    1.1690   31.7560 C   0  0  0  0  0  0  0  0  0  0  0  0
    7.1480    0.0800   31.4750 C   0  0  0  0  0  0  0  0  0  0  0  0
    7.1330   -0.5360   30.2600 N   0  0  0  0  0  0  0  0  0  0  0  0
    6.3410   -0.0140   29.2800 C   0  0  0  0  0  0  0  0  0  0  0  0
    6.4160    2.6660   26.4100 C   0  0  0  0  0  0  0  0  0  0  0  0
   11.0750    0.8880   23.5340 C   0  0  0  0  0  0  0  0  0  0  0  0
  1  2  1  0
  2  3  1  0
  3  4  1  0
  4  5  1  0
  5  6  1  0
  6  7  1  0
  7  8  2  0
  8  9  1  0
  9 10  1  0
 10 11  1  0
 10 12  2  0
 10 13  2  0
  9 14  2  0
 14 15  1  0
 15 16  1  0
 16 17  1  0
 17 18  1  0
 18 19  2  0
 19 20  1  0
 20 21  2  0
 21 22  1  0
 22 23  2  0
 23 24  1  0
 20 25  1  0
 24 25  2  0
 25 26  1  0
 19 27  1  0
 27 28  1  0
 28 29  2  0
 28 30  2  0
 28 31  1  0
 31 32  2  0
 32 33  1  0
 33 34  2  0
 34 35  1  0
 31 36  1  0
 35 36  2  0
 17 37  2  0
 27 37  1  0
  2 38  1  0
  6 38  2  0
 14 38  1  0
M  END
