MAK-UNK-0d6072ac-37
     RDKit          3D

 19 21  0  0  0  0  0  0  0  0999 V2000
    5.9250   -5.8860   21.3280 C   0  0  0  0  0  0  0  0  0  0  0  0
    5.8740   -5.1650   22.6390 C   0  0  2  0  0  0  0  0  0  0  0  0
    4.8740   -4.2110   22.7900 C   0  0  0  0  0  0  0  0  0  0  0  0
    4.3260   -4.0030   23.8650 O   0  0  0  0  0  0  0  0  0  0  0  0
    4.5360   -3.5650   21.8020 O   0  0  0  0  0  0  0  0  0  0  0  0
    7.2130   -4.5690   23.0170 C   0  0  0  0  0  0  0  0  0  0  0  0
    8.1730   -5.4060   23.7250 C   0  0  0  0  0  0  0  0  0  0  0  0
    9.3850   -4.9390   24.1080 C   0  0  0  0  0  0  0  0  0  0  0  0
    9.7760   -3.6520   23.8590 C   0  0  0  0  0  0  0  0  0  0  0  0
    8.7790   -2.8120   23.1090 C   0  0  0  0  0  0  0  0  0  0  0  0
    7.5040   -3.2830   22.6990 N   0  0  0  0  0  0  0  0  0  0  0  0
    9.4420   -1.5650   22.9620 N   0  0  0  0  0  0  0  0  0  0  0  0
   10.6880   -1.6380   23.5700 C   0  0  0  0  0  0  0  0  0  0  0  0
   11.6390   -0.6540   23.6510 C   0  0  0  0  0  0  0  0  0  0  0  0
   12.7940   -0.9510   24.3430 C   0  0  0  0  0  0  0  0  0  0  0  0
   12.9370   -2.2150   24.9190 C   0  0  0  0  0  0  0  0  0  0  0  0
   14.2460   -2.6800   25.8510 Cl  0  0  0  0  0  0  0  0  0  0  0  0
   12.0360   -3.2020   24.8130 N   0  0  0  0  0  0  0  0  0  0  0  0
   10.8960   -2.8890   24.1310 C   0  0  0  0  0  0  0  0  0  0  0  0
  2  1  1  6
  2  3  1  0
  3  4  2  0
  3  5  1  0
  2  6  1  0
  6  7  2  0
  7  8  1  0
  8  9  2  0
  9 10  1  0
  6 11  1  0
 10 11  2  0
 10 12  1  0
 12 13  1  0
 13 14  1  0
 14 15  2  0
 15 16  1  0
 16 17  1  0
 16 18  2  0
  9 19  1  0
 13 19  2  0
 18 19  1  0
M  END
