MAK-UNK-c7aa8293-17
     RDKit          3D

 21 23  0  0  0  0  0  0  0  0999 V2000
    5.8380   -3.8200   20.3650 C   0  0  0  0  0  0  0  0  0  0  0  0
    6.1820   -4.1370   21.6310 C   0  0  1  0  0  0  0  0  0  0  0  0
    6.4200   -5.5300   21.9980 C   0  0  0  0  0  0  0  0  0  0  0  0
    7.0970   -5.6650   23.3720 C   0  0  0  0  0  0  0  0  0  0  0  0
    7.6340   -4.5200   23.9570 C   0  0  0  0  0  0  0  0  0  0  0  0
    7.9430   -3.3220   23.2560 C   0  0  1  0  0  0  0  0  0  0  0  0
    9.2600   -2.7730   23.1020 C   0  0  1  0  0  0  0  0  0  0  0  0
    9.1660   -1.3300   22.9550 C   0  0  0  0  0  0  0  0  0  0  0  0
   10.5080   -1.5190   23.4040 C   0  0  0  0  0  0  0  0  0  0  0  0
   11.5800   -0.7590   23.1990 C   0  0  0  0  0  0  0  0  0  0  0  0
   12.9160   -0.7190   23.5030 C   0  0  0  0  0  0  0  0  0  0  0  0
   13.3140   -1.7840   24.2780 C   0  0  0  0  0  0  0  0  0  0  0  0
   12.3450   -2.7140   24.6420 C   0  0  0  0  0  0  0  0  0  0  0  0
   12.7860   -3.7150   25.4280 O   0  0  0  0  0  0  0  0  0  0  0  0
   10.9610   -2.5960   24.2070 C   0  0  0  0  0  0  0  0  0  0  0  0
   10.1200   -3.6430   24.6700 O   0  0  0  0  0  0  0  0  0  0  0  0
   11.4960   -2.0710   23.8570 C   0  0  1  0  0  0  0  0  0  0  0  0
   11.8660   -2.0510   25.1300 C   0  0  0  0  0  0  0  0  0  0  0  0
   13.3050   -1.7650   25.3230 N   0  0  0  0  0  0  0  0  0  0  0  0
   10.3110   -2.8030   23.9110 O   0  0  0  0  0  0  0  0  0  0  0  0
    7.4560   -3.3410   21.9510 C   0  0  0  0  0  0  0  0  0  0  0  0
  2  1  1  6
  2  3  1  0
  3  4  1  0
  4  5  1  0
  6  5  1  6
  6  7  1  0
  7  8  1  1
  8  9  1  0
  9 10  2  0
 10 11  1  0
 11 12  2  0
 12 13  1  0
 13 14  1  0
  9 15  1  0
 13 15  2  0
 15 16  1  0
 10 17  1  0
 17 18  1  1
 18 19  1  0
  7 20  1  0
 17 20  1  0
  2 21  1  0
  6 21  1  0
M  END
