MAK-UNK-acefcb18-1
     RDKit          3D

 18 19  0  0  0  0  0  0  0  0999 V2000
    4.6240    2.2070   18.3640 C   0  0  0  0  0  0  0  0  0  0  0  0
    5.1220    1.0230   19.1750 C   0  0  0  0  0  0  0  0  0  0  0  0
    6.2760    0.3840   18.7160 C   0  0  0  0  0  0  0  0  0  0  0  0
    6.8430   -0.7270   19.3780 C   0  0  0  0  0  0  0  0  0  0  0  0
    6.2940   -1.2770   20.5480 C   0  0  0  0  0  0  0  0  0  0  0  0
    6.8090   -2.3470   21.2160 O   0  0  0  0  0  0  0  0  0  0  0  0
    7.3630   -2.1280   22.4990 C   0  0  0  0  0  0  0  0  0  0  0  0
    8.4850   -2.9090   22.7890 C   0  0  2  0  0  0  0  0  0  0  0  0
    8.0430   -4.1220   23.2970 N   0  0  0  0  0  0  0  0  0  0  0  0
    9.3560   -2.1230   23.5360 C   0  0  0  0  0  0  0  0  0  0  0  0
    8.7890   -1.6310   24.7320 O   0  0  0  0  0  0  0  0  0  0  0  0
   10.6740   -1.7630   23.2540 C   0  0  0  0  0  0  0  0  0  0  0  0
   11.5580   -1.1590   24.1000 C   0  0  0  0  0  0  0  0  0  0  0  0
   12.8360   -0.8450   23.6950 C   0  0  0  0  0  0  0  0  0  0  0  0
   13.0960   -1.3260   22.0780 S   0  0  0  0  0  0  0  0  0  0  0  0
   11.4960   -1.9170   21.9950 C   0  0  0  0  0  0  0  0  0  0  0  0
    5.0630   -0.5930   21.0370 C   0  0  0  0  0  0  0  0  0  0  0  0
    4.4780    0.5890   20.3110 C   0  0  0  0  0  0  0  0  0  0  0  0
  1  2  1  0
  2  3  2  0
  3  4  1  0
  4  5  2  0
  5  6  1  0
  6  7  1  0
  7  8  1  0
  8  9  1  1
  8 10  1  0
 10 11  2  0
 10 12  1  0
 12 13  1  0
 13 14  2  0
 14 15  1  0
 12 16  2  0
 15 16  1  0
  5 17  1  0
  2 18  1  0
 17 18  2  0
M  END
