MAK-UNK-0955449e-1
     RDKit          3D

 26 28  0  0  0  0  0  0  0  0999 V2000
    6.2740   -2.5630   28.6110 C   0  0  0  0  0  0  0  0  0  0  0  0
    6.2870   -0.9810   27.7910 S   0  0  0  0  0  0  0  0  0  0  0  0
    4.9360   -0.6590   27.3900 O   0  0  0  0  0  0  0  0  0  0  0  0
    7.0310   -0.0800   28.6730 O   0  0  0  0  0  0  0  0  0  0  0  0
    7.2710   -1.2170   26.4180 N   0  0  0  0  0  0  0  0  0  0  0  0
    6.8240   -1.0430   25.0310 C   0  0  0  0  0  0  0  0  0  0  0  0
    7.9320   -1.4560   24.2400 C   0  0  0  0  0  0  0  0  0  0  0  0
    8.4370   -0.4980   23.2680 O   0  0  0  0  0  0  0  0  0  0  0  0
    9.8270   -0.4400   23.0860 C   0  0  0  0  0  0  0  0  0  0  0  0
   10.5260    0.7980   23.0360 C   0  0  0  0  0  0  0  0  0  0  0  0
   11.9240    0.9820   22.8660 C   0  0  0  0  0  0  0  0  0  0  0  0
   12.3130    2.3040   22.8640 C   0  0  0  0  0  0  0  0  0  0  0  0
   10.9020    2.5740   23.0250 C   0  0  0  0  0  0  0  0  0  0  0  0
   10.2330    1.3460   23.0640 N   0  0  0  0  0  0  0  0  0  0  0  0
   10.9480    0.0530   22.9440 C   0  0  0  0  0  0  0  0  0  0  0  0
   12.3860   -0.2010   22.7710 C   0  0  0  0  0  0  0  0  0  0  0  0
   11.9820   -1.5170   22.7730 C   0  0  0  0  0  0  0  0  0  0  0  0
   10.5760   -1.6500   22.9400 C   0  0  0  0  0  0  0  0  0  0  0  0
    9.8930   -2.8540   22.9640 O   0  0  0  0  0  0  0  0  0  0  0  0
    8.5940   -2.8210   22.4710 C   0  0  0  0  0  0  0  0  0  0  0  0
    8.2620   -1.7100   21.4940 C   0  0  0  0  0  0  0  0  0  0  0  0
    7.0040   -1.2860   20.7280 C   0  0  0  0  0  0  0  0  0  0  0  0
    6.1010   -2.4170   21.2900 C   0  0  0  0  0  0  0  0  0  0  0  0
    6.3610   -3.4780   22.1950 C   0  0  0  0  0  0  0  0  0  0  0  0
    7.5850   -3.7140   22.8040 C   0  0  0  0  0  0  0  0  0  0  0  0
    7.7330   -4.7450   23.6490 F   0  0  0  0  0  0  0  0  0  0  0  0
  1  2  1  0
  2  3  2  0
  2  4  2  0
  2  5  1  0
  5  6  1  0
  6  7  1  0
  7  8  1  0
  8  9  1  0
  9 10  2  0
 10 11  1  0
 11 12  2  0
 12 13  1  0
 13 14  2  0
 14 15  1  0
 11 16  1  0
 15 16  2  0
 16 17  1  0
  9 18  1  0
 17 18  2  0
 18 19  1  0
 19 20  1  0
 20 21  2  0
 21 22  1  0
 22 23  2  0
 23 24  1  0
 20 25  1  0
 24 25  2  0
 25 26  1  0
M  END
