MAK-UNK-198e6d85-5
     RDKit          3D

 22 24  0  0  0  0  0  0  0  0999 V2000
    5.9490   -2.7630   20.2200 C   0  0  0  0  0  0  0  0  0  0  0  0
    5.7290   -4.0500   20.6100 N   0  0  0  0  0  0  0  0  0  0  0  0
    6.6170   -4.5290   21.5400 C   0  0  2  0  0  0  0  0  0  0  0  0
    5.9270   -5.3420   22.4520 C   0  0  0  0  0  0  0  0  0  0  0  0
    6.6640   -5.7170   23.6980 C   0  0  0  0  0  0  0  0  0  0  0  0
    7.5620   -4.6860   24.3590 C   0  0  0  0  0  0  0  0  0  0  0  0
    8.2820   -4.0510   23.3660 C   0  0  2  0  0  0  0  0  0  0  0  0
    9.4220   -3.2220   23.5410 C   0  0  1  0  0  0  0  0  0  0  0  0
    9.2360   -1.9370   23.5700 C   0  0  0  0  0  0  0  0  0  0  0  0
   10.5140   -1.9180   23.9030 C   0  0  0  0  0  0  0  0  0  0  0  0
   11.4860   -0.9060   23.7550 C   0  0  0  0  0  0  0  0  0  0  0  0
   12.7910   -0.7000   24.0110 C   0  0  0  0  0  0  0  0  0  0  0  0
   13.3750   -1.7880   24.6270 C   0  0  0  0  0  0  0  0  0  0  0  0
   12.6220   -2.9040   24.9070 C   0  0  0  0  0  0  0  0  0  0  0  0
   13.3490   -3.8740   25.5590 O   0  0  0  0  0  0  0  0  0  0  0  0
   11.2130   -3.0190   24.5570 C   0  0  0  0  0  0  0  0  0  0  0  0
   10.5820   -4.2040   24.8900 O   0  0  0  0  0  0  0  0  0  0  0  0
   11.6510   -2.3630   24.2500 C   0  0  1  0  0  0  0  0  0  0  0  0
   12.8330   -2.6300   24.9240 C   0  0  0  0  0  0  0  0  0  0  0  0
   13.9170   -2.7560   23.9260 N   0  0  0  0  0  0  0  0  0  0  0  0
   10.3660   -3.2370   24.4720 O   0  0  0  0  0  0  0  0  0  0  0  0
    7.3380   -3.4270   22.3260 C   0  0  0  0  0  0  0  0  0  0  0  0
  1  2  1  0
  3  2  1  6
  3  4  1  0
  4  5  1  0
  5  6  1  0
  7  6  1  1
  7  8  1  0
  8  9  1  1
  9 10  1  0
 10 11  2  0
 11 12  1  0
 12 13  2  0
 13 14  1  0
 14 15  1  0
 10 16  1  0
 14 16  2  0
 16 17  1  0
 11 18  1  0
 18 19  1  1
 19 20  1  0
  8 21  1  0
 18 21  1  0
  3 22  1  0
  7 22  1  0
M  END
