MAK-UNK-1cb0e944-13
     RDKit          3D

 23 25  0  0  0  0  0  0  0  0999 V2000
    2.1330    6.4610   19.7810 N   0  0  0  0  0  0  0  0  0  0  0  0
    2.1480    5.3160   21.0160 S   0  0  0  0  0  0  0  0  0  0  0  0
    1.0600    4.4030   20.7460 O   0  0  0  0  0  0  0  0  0  0  0  0
    2.2850    6.0580   22.2540 O   0  0  0  0  0  0  0  0  0  0  0  0
    3.5890    4.5660   20.6300 N   0  0  0  0  0  0  0  0  0  0  0  0
    4.4570    4.0630   21.7070 C   0  0  2  0  0  0  0  0  0  0  0  0
    5.5610    4.9400   22.2430 C   0  0  0  0  0  0  0  0  0  0  0  0
    6.8100    4.2380   22.1510 C   0  0  0  0  0  0  0  0  0  0  0  0
    6.5940    2.9870   21.5990 C   0  0  1  0  0  0  0  0  0  0  0  0
    6.8270    1.9360   22.4670 C   0  0  0  0  0  0  0  0  0  0  0  0
    7.9150    1.1170   22.4080 C   0  0  0  0  0  0  0  0  0  0  0  0
    8.0100    0.0960   23.3540 C   0  0  0  0  0  0  0  0  0  0  0  0
    9.1900   -0.8860   23.3840 C   0  0  0  0  0  0  0  0  0  0  0  0
    8.8730   -1.9940   24.3090 N   0  0  0  0  0  0  0  0  0  0  0  0
    9.3610   -3.1430   23.7540 C   0  0  0  0  0  0  0  0  0  0  0  0
    8.2800   -4.1150   23.7770 C   0  0  0  0  0  0  0  0  0  0  0  0
    6.9960   -4.4420   24.2550 C   0  0  0  0  0  0  0  0  0  0  0  0
    6.9930   -5.5460   24.7530 O   0  0  0  0  0  0  0  0  0  0  0  0
    6.6290   -3.3620   25.0260 C   0  0  0  0  0  0  0  0  0  0  0  0
    7.4990   -2.0760   24.9320 C   0  0  0  0  0  0  0  0  0  0  0  0
    6.8990    0.1510   24.1960 C   0  0  0  0  0  0  0  0  0  0  0  0
    5.8050    1.4140   23.8170 S   0  0  0  0  0  0  0  0  0  0  0  0
    5.2670    2.8780   21.1160 C   0  0  0  0  0  0  0  0  0  0  0  0
  2  1  1  0
  2  3  2  0
  2  4  2  0
  2  5  1  0
  6  5  1  6
  6  7  1  0
  7  8  1  0
  8  9  1  0
  9 10  1  1
 10 11  2  0
 11 12  1  0
 12 13  1  0
 13 14  1  0
 14 15  1  0
 15 16  1  0
 16 17  1  0
 17 18  1  0
 17 19  1  0
 14 20  1  0
 19 20  1  0
 12 21  2  0
 10 22  1  0
 21 22  1  0
  6 23  1  0
  9 23  1  0
M  END
