MAK-UNK-e4a48a85-10
     RDKit          3D

 26 28  0  0  0  0  0  0  0  0999 V2000
    4.2220    1.5350   24.1700 C   0  0  0  0  0  0  0  0  0  0  0  0
    4.6140    1.3130   25.6090 C   0  0  0  0  0  0  0  0  0  0  0  0
    3.6450    1.5430   26.6050 C   0  0  0  0  0  0  0  0  0  0  0  0
    4.0890    1.3170   27.8630 C   0  0  0  0  0  0  0  0  0  0  0  0
    5.4100    0.8910   28.0930 C   0  0  0  0  0  0  0  0  0  0  0  0
    6.5190    0.6070   27.2350 C   0  0  0  0  0  0  0  0  0  0  0  0
    7.4700    0.3840   26.2140 C   0  0  0  0  0  0  0  0  0  0  0  0
    7.9060   -0.9900   25.9760 N   0  0  0  0  0  0  0  0  0  0  0  0
    8.6970   -1.2680   24.7590 C   0  0  0  0  0  0  0  0  0  0  0  0
    8.3320   -2.6170   24.1600 C   0  0  2  0  0  0  0  0  0  0  0  0
    8.1220   -2.6380   22.7300 N   0  0  0  0  0  0  0  0  0  0  0  0
    7.1270   -3.4520   22.2760 C   0  0  0  0  0  0  0  0  0  0  0  0
    5.9300   -2.8160   21.7480 C   0  0  0  0  0  0  0  0  0  0  0  0
    6.0080   -1.4420   21.5030 C   0  0  0  0  0  0  0  0  0  0  0  0
    5.0270   -1.1980   20.8250 O   0  0  0  0  0  0  0  0  0  0  0  0
    7.4060   -0.9580   21.0870 C   0  0  0  0  0  0  0  0  0  0  0  0
    8.5300   -1.5810   21.9220 C   0  0  0  0  0  0  0  0  0  0  0  0
    7.0830   -2.9180   24.7730 C   0  0  0  0  0  0  0  0  0  0  0  0
    6.7850   -1.9590   25.9150 C   0  0  1  0  0  0  0  0  0  0  0  0
    6.4740   -2.6660   27.2410 C   0  0  0  0  0  0  0  0  0  0  0  0
    6.9460   -1.9170   28.3590 O   0  0  0  0  0  0  0  0  0  0  0  0
    5.7850   -3.9130   27.3380 N   0  0  0  0  0  0  0  0  0  0  0  0
    5.9700   -4.8390   28.4360 C   0  0  0  0  0  0  0  0  0  0  0  0
    5.7520   -6.2330   27.8430 C   0  0  0  0  0  0  0  0  0  0  0  0
    4.4170   -6.3500   27.3440 O   0  0  0  0  0  0  0  0  0  0  0  0
    5.9000    0.8900   25.9590 C   0  0  0  0  0  0  0  0  0  0  0  0
  1  2  1  0
  2  3  2  0
  3  4  1  0
  4  5  2  0
  5  6  1  0
  6  7  1  0
  7  8  1  0
  8  9  1  0
  9 10  1  0
 10 11  1  6
 11 12  1  0
 12 13  1  0
 13 14  1  0
 14 15  1  0
 14 16  1  0
 11 17  1  0
 16 17  1  0
 10 18  1  0
  8 19  1  0
 18 19  1  0
 19 20  1  1
 20 21  2  0
 20 22  1  0
 22 23  1  0
 23 24  1  0
 24 25  1  0
  2 26  1  0
  6 26  2  0
M  END
