MAK-UNK-27459e11-13
     RDKit          3D

 16 16  0  0  0  0  0  0  0  0999 V2000
    6.4750   -5.0500   26.0650 C   0  0  0  0  0  0  0  0  0  0  0  0
    8.0380   -4.2080   25.9840 S   0  0  0  0  0  0  0  0  0  0  0  0
    9.0580   -5.1900   25.6890 O   0  0  0  0  0  0  0  0  0  0  0  0
    8.1130   -3.3670   27.1520 O   0  0  0  0  0  0  0  0  0  0  0  0
    7.8720   -3.1550   24.6530 N   0  0  0  0  0  0  0  0  0  0  0  0
    8.7780   -3.2670   23.5660 C   0  0  0  0  0  0  0  0  0  0  0  0
    9.0450   -2.1210   22.6670 C   0  0  1  0  0  0  0  0  0  0  0  0
    8.6470   -0.7960   22.8970 C   0  0  0  0  0  0  0  0  0  0  0  0
    8.4750    0.1760   21.9530 N   0  0  0  0  0  0  0  0  0  0  0  0
    8.3180   -0.3330   24.1570 N   0  0  0  0  0  0  0  0  0  0  0  0
   10.3880   -1.2900   22.7280 C   0  0  0  0  0  0  0  0  0  0  0  0
   10.5260   -0.0220   23.2530 C   0  0  0  0  0  0  0  0  0  0  0  0
   11.7950    0.6070   23.2400 C   0  0  0  0  0  0  0  0  0  0  0  0
   13.0720   -0.0010   22.6940 C   0  0  0  0  0  0  0  0  0  0  0  0
   12.8700   -1.4120   22.1200 C   0  0  0  0  0  0  0  0  0  0  0  0
   11.4730   -1.9510   22.1920 C   0  0  0  0  0  0  0  0  0  0  0  0
  1  2  1  0
  2  3  2  0
  2  4  2  0
  2  5  1  0
  5  6  1  0
  7  6  1  1
  7  8  1  0
  8  9  2  3
  8 10  1  0
  7 11  1  0
 11 12  2  0
 12 13  1  0
 13 14  2  0
 14 15  1  0
 11 16  1  0
 15 16  2  0
M  END
