MAK-UNK-de8f6d00-9
     RDKit          3D

 34 38  0  0  0  0  0  0  0  0999 V2000
   17.1770   -2.8300   25.3120 O   0  0  0  0  0  0  0  0  0  0  0  0
   17.0620   -1.9480   26.0250 C   0  0  0  0  0  0  0  0  0  0  0  0
   18.2480   -1.2200   26.4400 N   0  0  0  0  0  0  0  0  0  0  0  0
   19.4040   -1.2160   25.7410 C   0  0  0  0  0  0  0  0  0  0  0  0
   19.5460   -0.7290   24.4870 C   0  0  0  0  0  0  0  0  0  0  0  0
   20.8680   -0.7560   23.7550 C   0  0  0  0  0  0  0  0  0  0  0  0
   22.0870   -1.3500   24.4630 C   0  0  0  0  0  0  0  0  0  0  0  0
   21.7870   -1.8320   25.8020 N   0  0  0  0  0  0  0  0  0  0  0  0
   20.5320   -1.7750   26.3990 C   0  0  0  0  0  0  0  0  0  0  0  0
   15.8100   -1.6210   26.4900 N   0  0  0  0  0  0  0  0  0  0  0  0
   14.5640   -2.1150   25.8270 C   0  0  0  0  0  0  0  0  0  0  0  0
   14.0640   -3.4810   26.2300 C   0  0  0  0  0  0  0  0  0  0  0  0
   12.9840   -4.1350   25.7700 C   0  0  0  0  0  0  0  0  0  0  0  0
   12.1670   -3.3440   24.6900 C   0  0  0  0  0  0  0  0  0  0  0  0
   12.6030   -2.0690   24.2940 C   0  0  0  0  0  0  0  0  0  0  0  0
   12.0160   -1.2680   23.3780 N   0  0  0  0  0  0  0  0  0  0  0  0
   11.1620   -1.9740   22.4130 C   0  0  0  0  0  0  0  0  0  0  0  0
    9.8300   -1.6540   22.6360 C   0  0  0  0  0  0  0  0  0  0  0  0
    9.6660   -0.2070   22.4730 N   0  0  0  0  0  0  0  0  0  0  0  0
    8.8860    0.2430   21.4490 C   0  0  0  0  0  0  0  0  0  0  0  0
    9.1000    1.3830   20.9850 O   0  0  0  0  0  0  0  0  0  0  0  0
    7.8700   -0.5770   20.9520 C   0  0  0  0  0  0  0  0  0  0  0  0
    7.2250   -0.0740   19.8350 C   0  0  0  0  0  0  0  0  0  0  0  0
    7.6630   -0.1450   18.6570 C   0  0  0  0  0  0  0  0  0  0  0  0
    6.7960    0.4360   17.8490 N   0  0  0  0  0  0  0  0  0  0  0  0
    5.5920    1.0270   18.2210 C   0  0  0  0  0  0  0  0  0  0  0  0
    4.3580    1.6330   18.6030 N   0  0  0  0  0  0  0  0  0  0  0  0
    3.6800    1.8480   19.7190 C   0  0  0  0  0  0  0  0  0  0  0  0
    4.1170    1.4320   21.0400 C   0  0  0  0  0  0  0  0  0  0  0  0
    5.2710    0.8120   21.0310 C   0  0  0  0  0  0  0  0  0  0  0  0
    6.0040    0.6030   19.6920 C   0  0  0  0  0  0  0  0  0  0  0  0
   10.5010    0.6280   23.3650 C   0  0  0  0  0  0  0  0  0  0  0  0
   11.8370    0.1910   23.5520 C   0  0  0  0  0  0  0  0  0  0  0  0
   13.7570   -1.5050   24.8580 C   0  0  0  0  0  0  0  0  0  0  0  0
  1  2  2  0
  2  3  1  0
  3  4  1  0
  4  5  2  0
  5  6  1  0
  6  7  2  0
  7  8  1  0
  4  9  1  0
  8  9  2  0
  2 10  1  0
 10 11  1  0
 11 12  2  0
 12 13  1  0
 13 14  2  0
 14 15  1  0
 15 16  1  0
 16 17  1  0
 17 18  1  0
 18 19  1  0
 19 20  1  0
 20 21  2  0
 20 22  1  0
 22 23  1  0
 23 24  2  0
 24 25  1  0
 25 26  1  0
 26 27  1  0
 27 28  2  0
 28 29  1  0
 29 30  2  0
 23 31  1  0
 26 31  2  0
 30 31  1  0
 19 32  1  0
 16 33  1  0
 32 33  1  0
 11 34  1  0
 15 34  2  0
M  END
