MAK-UNK-10572812-13
     RDKit          3D

 34 38  0  0  0  0  0  0  0  0999 V2000
   16.0270   -5.4050   21.9010 C   0  0  0  0  0  0  0  0  0  0  0  0
   15.2170   -5.4690   20.6460 C   0  0  0  0  0  0  0  0  0  0  0  0
   14.9910   -6.5300   20.1370 O   0  0  0  0  0  0  0  0  0  0  0  0
   14.6930   -4.2970   20.1930 N   0  0  0  0  0  0  0  0  0  0  0  0
   13.4400   -3.9080   20.7420 C   0  0  0  0  0  0  0  0  0  0  0  0
   12.9510   -2.7190   20.6470 C   0  0  0  0  0  0  0  0  0  0  0  0
   12.7110   -1.8170   21.4970 C   0  0  0  0  0  0  0  0  0  0  0  0
   13.5640   -0.8870   21.4370 C   0  0  0  0  0  0  0  0  0  0  0  0
   13.3520    0.0840   22.3670 N   0  0  0  0  0  0  0  0  0  0  0  0
   12.2360   -0.2950   23.0140 C   0  0  0  0  0  0  0  0  0  0  0  0
   11.6780    0.3530   23.9480 C   0  0  0  0  0  0  0  0  0  0  0  0
   10.5030   -0.2420   24.4190 C   0  0  0  0  0  0  0  0  0  0  0  0
    9.8630    0.4090   25.2990 N   0  0  0  0  0  0  0  0  0  0  0  0
    8.5550   -0.1980   25.2470 C   0  0  0  0  0  0  0  0  0  0  0  0
    8.0700   -0.1790   23.8470 C   0  0  0  0  0  0  0  0  0  0  0  0
    9.0320    0.4010   22.8800 N   0  0  0  0  0  0  0  0  0  0  0  0
    8.6190    0.4860   21.6020 C   0  0  0  0  0  0  0  0  0  0  0  0
    8.8330    1.5400   21.0030 O   0  0  0  0  0  0  0  0  0  0  0  0
    7.8790   -0.7020   21.0180 C   0  0  0  0  0  0  0  0  0  0  0  0
    7.0570   -0.2900   20.0220 C   0  0  0  0  0  0  0  0  0  0  0  0
    7.2720   -0.6100   18.6050 C   0  0  0  0  0  0  0  0  0  0  0  0
    6.2730    0.0020   17.9240 N   0  0  0  0  0  0  0  0  0  0  0  0
    5.4380    0.6730   18.7900 C   0  0  0  0  0  0  0  0  0  0  0  0
    4.3660    1.3700   18.4090 N   0  0  0  0  0  0  0  0  0  0  0  0
    3.6890    1.9410   19.4330 C   0  0  0  0  0  0  0  0  0  0  0  0
    4.0390    1.8470   20.7760 C   0  0  0  0  0  0  0  0  0  0  0  0
    5.1670    1.1160   21.1170 C   0  0  0  0  0  0  0  0  0  0  0  0
    5.8980    0.5030   20.0930 C   0  0  0  0  0  0  0  0  0  0  0  0
    9.7590    1.5780   23.3130 C   0  0  0  0  0  0  0  0  0  0  0  0
    9.8270    1.7180   24.6510 C   0  0  0  0  0  0  0  0  0  0  0  0
   10.0150   -1.4410   23.9240 C   0  0  0  0  0  0  0  0  0  0  0  0
    8.8920   -2.0360   24.3670 F   0  0  0  0  0  0  0  0  0  0  0  0
   10.6590   -2.0610   22.9380 C   0  0  0  0  0  0  0  0  0  0  0  0
   11.7940   -1.4980   22.4680 C   0  0  0  0  0  0  0  0  0  0  0  0
  1  2  1  0
  2  3  2  0
  2  4  1  0
  4  5  1  0
  5  6  1  0
  6  7  1  0
  7  8  2  0
  8  9  1  0
  9 10  1  0
 10 11  1  0
 11 12  2  0
 12 13  1  0
 13 14  1  0
 14 15  1  0
 15 16  1  0
 16 17  1  0
 17 18  2  0
 17 19  1  0
 19 20  1  0
 20 21  2  0
 21 22  1  0
 22 23  1  0
 23 24  1  0
 24 25  2  0
 25 26  1  0
 26 27  2  0
 20 28  1  0
 23 28  2  0
 27 28  1  0
 16 29  1  0
 13 30  1  0
 29 30  1  0
 12 31  1  0
 31 32  1  0
 31 33  2  0
  7 34  1  0
 10 34  2  0
 33 34  1  0
M  END
