MAK-UNK-9e4a73aa-27
     RDKit          3D

 26 29  0  0  0  0  0  0  0  0999 V2000
    6.5730   -4.2890   24.1400 O   0  0  0  0  0  0  0  0  0  0  0  0
    6.3240   -3.1380   24.5020 C   0  0  0  0  0  0  0  0  0  0  0  0
    6.4770   -2.7420   25.9440 C   0  0  0  0  0  0  0  0  0  0  0  0
    6.2490   -3.6400   26.9790 C   0  0  0  0  0  0  0  0  0  0  0  0
    6.3720   -3.2340   28.2910 C   0  0  0  0  0  0  0  0  0  0  0  0
    6.1420   -4.1210   29.2440 F   0  0  0  0  0  0  0  0  0  0  0  0
    6.7610   -1.7900   28.5180 C   0  0  0  0  0  0  0  0  0  0  0  0
    6.9270   -1.1600   30.1080 Cl  0  0  0  0  0  0  0  0  0  0  0  0
    6.9840   -0.9450   27.4640 C   0  0  0  0  0  0  0  0  0  0  0  0
    6.8450   -1.4140   26.1690 C   0  0  0  0  0  0  0  0  0  0  0  0
    7.0300   -0.6070   25.0340 N   0  0  0  0  0  0  0  0  0  0  0  0
    8.2430   -0.7340   24.3010 C   0  0  0  0  0  0  0  0  0  0  0  0
    8.8340   -2.1080   24.1150 C   0  0  0  0  0  0  0  0  0  0  0  0
   10.0390   -2.2740   23.3930 C   0  0  0  0  0  0  0  0  0  0  0  0
   10.7460   -1.1980   22.8120 C   0  0  0  0  0  0  0  0  0  0  0  0
   10.2890    0.1230   22.9160 C   0  0  0  0  0  0  0  0  0  0  0  0
    9.1150    0.3430   23.6110 C   0  0  0  0  0  0  0  0  0  0  0  0
    5.8650   -0.7560   24.2560 C   0  0  0  0  0  0  0  0  0  0  0  0
    5.0050    0.1150   24.1020 O   0  0  0  0  0  0  0  0  0  0  0  0
    5.8580   -2.0270   23.7000 N   0  0  0  0  0  0  0  0  0  0  0  0
    6.3710   -1.8790   22.3930 C   0  0  0  0  0  0  0  0  0  0  0  0
    7.5630   -1.1850   22.3760 C   0  0  0  0  0  0  0  0  0  0  0  0
    7.9120   -1.0500   21.1000 C   0  0  0  0  0  0  0  0  0  0  0  0
    7.5790   -1.3110   19.8230 C   0  0  0  0  0  0  0  0  0  0  0  0
    6.4020   -2.0100   19.9560 N   0  0  0  0  0  0  0  0  0  0  0  0
    5.7890   -2.3060   21.2330 C   0  0  0  0  0  0  0  0  0  0  0  0
  1  2  2  0
  2  3  1  0
  3  4  2  0
  4  5  1  0
  5  6  1  0
  5  7  2  0
  7  8  1  0
  7  9  1  0
  3 10  1  0
  9 10  2  0
 10 11  1  0
 11 12  1  0
 12 13  2  0
 13 14  1  0
 14 15  2  0
 15 16  1  0
 12 17  1  0
 16 17  2  0
 11 18  1  0
 18 19  2  0
  2 20  1  0
 18 20  1  0
 20 21  1  0
 21 22  2  0
 22 23  1  0
 23 24  2  0
 24 25  1  0
 21 26  1  0
 25 26  2  0
M  END
