MAK-UNK-b1d4dcd7-9
     RDKit          3D

 29 32  0  0  0  0  0  0  0  0999 V2000
    6.0480   -1.8670   18.5760 C   0  0  0  0  0  0  0  0  0  0  0  0
    5.8760   -2.8340   19.7650 C   0  0  0  0  0  0  0  0  0  0  0  0
    5.3500   -3.9490   19.6530 O   0  0  0  0  0  0  0  0  0  0  0  0
    6.4200   -2.3370   20.9080 N   0  0  0  0  0  0  0  0  0  0  0  0
    7.5910   -1.4400   20.8240 C   0  0  0  0  0  0  0  0  0  0  0  0
    8.6800   -1.8760   21.6030 C   0  0  0  0  0  0  0  0  0  0  0  0
    8.4090   -2.4790   22.8610 N   0  0  0  0  0  0  0  0  0  0  0  0
    9.5110   -2.3610   23.8440 C   0  0  0  0  0  0  0  0  0  0  0  0
   10.5500   -1.4670   23.5260 C   0  0  0  0  0  0  0  0  0  0  0  0
   11.8990   -1.7740   23.4170 C   0  0  0  0  0  0  0  0  0  0  0  0
   12.7740   -0.7510   23.1140 C   0  0  0  0  0  0  0  0  0  0  0  0
   12.0240    0.5220   22.9620 C   0  0  0  0  0  0  0  0  0  0  0  0
   10.3420    0.2240   23.2170 S   0  0  0  0  0  0  0  0  0  0  0  0
    7.1020   -2.2680   23.1860 C   0  0  2  0  0  0  0  0  0  0  0  0
    6.5580   -2.2050   24.4890 C   0  0  1  0  0  0  0  0  0  0  0  0
    6.8810   -0.9790   25.0450 C   0  0  2  0  0  0  0  0  0  0  0  0
    6.9730   -1.0990   26.2690 O   0  0  0  0  0  0  0  0  0  0  0  0
    6.0420    0.1290   24.7610 C   0  0  0  0  0  0  0  0  0  0  0  0
    4.7310   -0.0640   24.3020 C   0  0  0  0  0  0  0  0  0  0  0  0
    4.2890   -1.3490   24.0250 C   0  0  0  0  0  0  0  0  0  0  0  0
    5.0670   -2.3680   24.7340 N   0  0  0  0  0  0  0  0  0  0  0  0
    4.4130   -3.6810   24.8290 C   0  0  0  0  0  0  0  0  0  0  0  0
    5.0660   -4.6760   23.9600 C   0  0  0  0  0  0  0  0  0  0  0  0
    6.3890   -5.1170   24.0300 C   0  0  0  0  0  0  0  0  0  0  0  0
    7.1910   -5.7990   23.5880 C   0  0  0  0  0  0  0  0  0  0  0  0
    6.6330   -6.4990   22.5250 C   0  0  0  0  0  0  0  0  0  0  0  0
    5.2650   -6.2700   22.1820 C   0  0  0  0  0  0  0  0  0  0  0  0
    4.4510   -5.3450   22.9060 C   0  0  0  0  0  0  0  0  0  0  0  0
    6.2580   -3.0450   22.1640 C   0  0  0  0  0  0  0  0  0  0  0  0
  1  2  1  0
  2  3  2  0
  2  4  1  0
  4  5  1  0
  5  6  1  0
  6  7  1  0
  7  8  1  0
  8  9  1  0
  9 10  2  0
 10 11  1  0
 11 12  2  0
  9 13  1  0
 12 13  1  0
  7 14  1  0
 14 15  1  0
 15 16  1  0
 16 17  1  1
 16 18  1  0
 18 19  1  0
 19 20  1  0
 15 21  1  6
 20 21  1  0
 21 22  1  0
 22 23  1  0
 23 24  2  0
 24 25  1  0
 25 26  2  0
 26 27  1  0
 23 28  1  0
 27 28  2  0
  4 29  1  0
 14 29  1  6
M  END
