MAK-UNK-f0bfc2e0-3
     RDKit          3D

 28 30  0  0  0  0  0  0  0  0999 V2000
    7.8210   -0.4530   25.7710 C   0  0  0  0  0  0  0  0  0  0  0  0
    6.4580    0.4370   25.0390 S   0  0  0  0  0  0  0  0  0  0  0  0
    5.2510   -0.2880   25.3560 O   0  0  0  0  0  0  0  0  0  0  0  0
    6.5910    1.8400   25.3700 O   0  0  0  0  0  0  0  0  0  0  0  0
    6.7740    0.2930   23.3790 N   0  0  0  0  0  0  0  0  0  0  0  0
    8.0550   -0.1110   22.9360 C   0  0  0  0  0  0  0  0  0  0  0  0
    8.1550   -0.7510   21.6250 C   0  0  1  0  0  0  0  0  0  0  0  0
    9.4080   -1.2850   21.5150 N   0  0  0  0  0  0  0  0  0  0  0  0
   10.4910   -1.4570   22.4300 C   0  0  0  0  0  0  0  0  0  0  0  0
   10.1310   -1.4550   23.7620 C   0  0  0  0  0  0  0  0  0  0  0  0
   10.9980   -1.5830   24.8140 C   0  0  0  0  0  0  0  0  0  0  0  0
   12.3680   -1.7380   24.6270 C   0  0  0  0  0  0  0  0  0  0  0  0
   13.3280   -1.8730   25.5830 O   0  0  0  0  0  0  0  0  0  0  0  0
   12.8590   -1.7620   23.2320 C   0  0  0  0  0  0  0  0  0  0  0  0
   11.8530   -1.6220   22.1090 C   0  0  0  0  0  0  0  0  0  0  0  0
   12.3790   -1.6910   20.8960 O   0  0  0  0  0  0  0  0  0  0  0  0
   13.3080   -2.6320   21.2320 C   0  0  0  0  0  0  0  0  0  0  0  0
   13.9890   -3.6700   20.4200 C   0  0  0  0  0  0  0  0  0  0  0  0
   14.9240   -4.7210   20.7450 C   0  0  0  0  0  0  0  0  0  0  0  0
   15.3270   -4.7930   22.2110 C   0  0  0  0  0  0  0  0  0  0  0  0
   14.5970   -3.5560   23.2140 N   0  0  0  0  0  0  0  0  0  0  0  0
   13.6330   -2.6040   22.6180 C   0  0  0  0  0  0  0  0  0  0  0  0
    7.3380   -1.8670   21.5110 C   0  0  0  0  0  0  0  0  0  0  0  0
    7.4860   -3.1090   22.3970 C   0  0  0  0  0  0  0  0  0  0  0  0
    6.5800   -4.3180   22.2150 C   0  0  0  0  0  0  0  0  0  0  0  0
    5.5710   -4.3430   21.2290 C   0  0  0  0  0  0  0  0  0  0  0  0
    5.3390   -3.1530   20.2970 C   0  0  0  0  0  0  0  0  0  0  0  0
    6.2110   -1.9270   20.4390 C   0  0  0  0  0  0  0  0  0  0  0  0
  1  2  1  0
  2  3  2  0
  2  4  2  0
  2  5  1  0
  5  6  1  0
  7  6  1  1
  7  8  1  0
  8  9  1  0
  9 10  2  0
 10 11  1  0
 11 12  2  0
 12 13  1  0
 12 14  1  0
  9 15  1  0
 14 15  2  0
 15 16  1  0
 16 17  1  0
 17 18  2  0
 18 19  1  0
 19 20  2  0
 20 21  1  0
 17 22  1  0
 21 22  2  0
  7 23  1  0
 23 24  2  0
 24 25  1  0
 25 26  2  0
 26 27  1  0
 23 28  1  0
 27 28  2  0
M  END
