MAK-UNK-0d6072ac-16
     RDKit          3D

 20 22  0  0  0  0  0  0  0  0999 V2000
   13.1600    0.4550   23.2310 C   0  0  0  0  0  0  0  0  0  0  0  0
   12.6010   -0.8620   23.7350 C   0  0  0  0  0  0  0  0  0  0  0  0
   11.3780   -1.0060   23.0200 C   0  0  0  0  0  0  0  0  0  0  0  0
   10.5790   -2.0960   23.2020 C   0  0  0  0  0  0  0  0  0  0  0  0
    9.3460   -2.5790   22.6700 N   0  0  0  0  0  0  0  0  0  0  0  0
    8.9290   -3.8230   23.2170 C   0  0  0  0  0  0  0  0  0  0  0  0
    7.9880   -4.6730   23.0930 C   0  0  0  0  0  0  0  0  0  0  0  0
    7.4450   -4.0530   22.1110 C   0  0  0  0  0  0  0  0  0  0  0  0
    6.3450   -4.5020   21.4240 C   0  0  2  0  0  0  0  0  0  0  0  0
    5.7450   -3.6360   20.5090 C   0  0  0  0  0  0  0  0  0  0  0  0
    5.2900   -5.0010   22.3770 C   0  0  0  0  0  0  0  0  0  0  0  0
    5.5460   -6.0440   23.2340 O   0  0  0  0  0  0  0  0  0  0  0  0
    4.0060   -4.3770   22.4040 O   0  0  0  0  0  0  0  0  0  0  0  0
    8.2760   -2.8750   21.9480 C   0  0  0  0  0  0  0  0  0  0  0  0
    9.5850   -2.7410   22.9080 C   0  0  0  0  0  0  0  0  0  0  0  0
    9.9330   -3.8720   23.9790 C   0  0  0  0  0  0  0  0  0  0  0  0
   10.9670   -2.9750   24.0520 C   0  0  0  0  0  0  0  0  0  0  0  0
   12.1430   -2.9360   24.7900 C   0  0  0  0  0  0  0  0  0  0  0  0
   12.9540   -1.9380   24.6720 C   0  0  0  0  0  0  0  0  0  0  0  0
   14.1650   -2.3860   25.7600 Cl  0  0  0  0  0  0  0  0  0  0  0  0
  1  2  1  0
  2  3  2  0
  3  4  1  0
  4  5  1  0
  5  6  1  0
  6  7  2  0
  7  8  1  0
  8  9  1  0
  9 10  1  1
  9 11  1  0
 11 12  2  0
 11 13  1  0
  8 14  2  0
 14 15  1  0
  6 16  1  0
 15 16  2  0
  4 17  2  0
 16 17  1  0
 17 18  1  0
  2 19  1  0
 18 19  2  0
 19 20  1  0
M  END
