MAK-UNK-10572812-7
     RDKit          3D

 34 38  0  0  0  0  0  0  0  0999 V2000
   13.6240   -2.5940   24.1740 C   0  0  0  0  0  0  0  0  0  0  0  0
   12.4200   -2.4210   23.4560 N   0  0  0  0  0  0  0  0  0  0  0  0
   11.2370   -2.5750   24.1680 C   0  0  0  0  0  0  0  0  0  0  0  0
    9.8990   -2.1200   23.5210 C   0  0  0  0  0  0  0  0  0  0  0  0
   10.0510   -1.2520   22.3350 N   0  0  0  0  0  0  0  0  0  0  0  0
    8.9490   -0.3710   21.8410 C   0  0  0  0  0  0  0  0  0  0  0  0
    9.0920    0.8620   21.8430 O   0  0  0  0  0  0  0  0  0  0  0  0
    7.7200   -1.1090   21.3520 C   0  0  0  0  0  0  0  0  0  0  0  0
    6.9440   -0.3600   20.2750 C   0  0  0  0  0  0  0  0  0  0  0  0
    7.3050   -0.5280   18.8270 C   0  0  0  0  0  0  0  0  0  0  0  0
    6.5180    0.1920   18.0450 N   0  0  0  0  0  0  0  0  0  0  0  0
    5.6160    0.8490   18.8690 C   0  0  0  0  0  0  0  0  0  0  0  0
    4.5410    1.7630   18.4000 N   0  0  0  0  0  0  0  0  0  0  0  0
    3.8090    2.2530   19.4220 C   0  0  0  0  0  0  0  0  0  0  0  0
    3.9920    1.9780   20.7600 C   0  0  0  0  0  0  0  0  0  0  0  0
    5.0200    1.1130   21.1750 C   0  0  0  0  0  0  0  0  0  0  0  0
    5.8560    0.5270   20.2460 C   0  0  0  0  0  0  0  0  0  0  0  0
   11.3060   -0.9040   22.0670 C   0  0  0  0  0  0  0  0  0  0  0  0
   12.4520   -1.0960   22.8830 C   0  0  2  0  0  0  0  0  0  0  0  0
   13.3870   -0.7940   22.0710 C   0  0  0  0  0  0  0  0  0  0  0  0
   14.0680    0.1760   22.2630 O   0  0  0  0  0  0  0  0  0  0  0  0
   13.3460   -1.6260   21.0750 N   0  0  0  0  0  0  0  0  0  0  0  0
   12.1200   -2.4070   21.1890 C   0  0  0  0  0  0  0  0  0  0  0  0
   10.8370   -1.6930   21.7520 C   0  0  0  0  0  0  0  0  0  0  0  0
    9.7630   -2.5350   22.3820 C   0  0  0  0  0  0  0  0  0  0  0  0
   10.0170   -3.2670   23.5070 C   0  0  0  0  0  0  0  0  0  0  0  0
    8.9080   -3.9510   23.9230 N   0  0  0  0  0  0  0  0  0  0  0  0
    7.8740   -3.6860   23.0890 C   0  0  0  0  0  0  0  0  0  0  0  0
    6.4670   -4.1760   23.1100 C   0  0  0  0  0  0  0  0  0  0  0  0
    5.4720   -3.7270   22.0420 C   0  0  0  0  0  0  0  0  0  0  0  0
    5.9210   -2.8630   21.0780 C   0  0  0  0  0  0  0  0  0  0  0  0
    5.1010   -2.4430   20.1200 F   0  0  0  0  0  0  0  0  0  0  0  0
    7.3440   -2.3860   21.0910 C   0  0  0  0  0  0  0  0  0  0  0  0
    8.3470   -2.8030   22.1050 C   0  0  0  0  0  0  0  0  0  0  0  0
  1  2  1  0
  2  3  1  0
  3  4  1  0
  4  5  1  0
  5  6  1  0
  6  7  2  0
  6  8  1  0
  8  9  1  0
  9 10  2  0
 10 11  1  0
 11 12  1  0
 12 13  1  0
 13 14  2  0
 14 15  1  0
 15 16  2  0
  9 17  1  0
 12 17  2  0
 16 17  1  0
  5 18  1  0
  2 19  1  0
 18 19  1  0
 19 20  1  6
 20 21  2  0
 20 22  1  0
 22 23  1  0
 23 24  1  0
 24 25  1  0
 25 26  2  0
 26 27  1  0
 27 28  1  0
 28 29  1  0
 29 30  2  0
 30 31  1  0
 31 32  1  0
 31 33  2  0
 25 34  1  0
 28 34  2  0
 33 34  1  0
M  END
