MAK-UNK-acefcb18-25
     RDKit          3D

 22 24  0  0  0  0  0  0  0  0999 V2000
   13.2920   -1.9490   20.8200 C   0  0  0  0  0  0  0  0  0  0  0  0
   13.6180   -1.5310   22.0180 N   0  0  0  0  0  0  0  0  0  0  0  0
   13.2990   -2.5020   22.9180 C   0  0  0  0  0  0  0  0  0  0  0  0
   13.4290   -2.1420   24.2720 C   0  0  0  0  0  0  0  0  0  0  0  0
   13.0660   -0.9140   24.5060 N   0  0  0  0  0  0  0  0  0  0  0  0
   11.8950   -1.0700   24.0840 C   0  0  0  0  0  0  0  0  0  0  0  0
   10.8110   -1.2940   24.9040 C   0  0  0  0  0  0  0  0  0  0  0  0
    9.6310   -1.4030   24.4000 C   0  0  0  0  0  0  0  0  0  0  0  0
    9.3930   -1.3200   23.1090 C   0  0  0  0  0  0  0  0  0  0  0  0
    8.1210   -1.4690   22.8260 C   0  0  0  0  0  0  0  0  0  0  0  0
    7.6950   -2.2930   23.7690 N   0  0  0  0  0  0  0  0  0  0  0  0
    8.3420   -3.4990   23.6290 C   0  0  0  0  0  0  0  0  0  0  0  0
    7.2880   -4.4590   24.1690 C   0  0  0  0  0  0  0  0  0  0  0  0
    6.7050   -3.8230   25.2730 C   0  0  0  0  0  0  0  0  0  0  0  0
    6.2250   -4.5040   26.1870 O   0  0  0  0  0  0  0  0  0  0  0  0
    5.7840   -3.0040   24.8070 C   0  0  0  0  0  0  0  0  0  0  0  0
    6.2800   -2.3190   23.7170 C   0  0  0  0  0  0  0  0  0  0  0  0
   10.3940   -1.1100   22.2440 C   0  0  0  0  0  0  0  0  0  0  0  0
   10.1150   -1.0210   20.9390 O   0  0  0  0  0  0  0  0  0  0  0  0
   11.6700   -0.9790   22.7070 C   0  0  0  0  0  0  0  0  0  0  0  0
   13.0250    0.0760   23.6640 C   0  0  0  0  0  0  0  0  0  0  0  0
   13.4020   -0.1620   22.4650 C   0  0  0  0  0  0  0  0  0  0  0  0
  1  2  1  0
  2  3  1  0
  3  4  1  0
  4  5  1  0
  5  6  1  0
  6  7  2  0
  7  8  1  0
  8  9  2  0
  9 10  1  0
 10 11  1  0
 11 12  1  0
 12 13  1  0
 13 14  1  0
 14 15  1  0
 14 16  1  0
 11 17  1  0
 16 17  1  0
  9 18  1  0
 18 19  1  0
  6 20  1  0
 18 20  2  0
  5 21  1  0
  2 22  1  0
 21 22  1  0
M  END
