MAK-UNK-e4a48a85-3
     RDKit          3D

 27 30  0  0  0  0  0  0  0  0999 V2000
    6.1200   -6.9780   22.3110 C   0  0  0  0  0  0  0  0  0  0  0  0
    6.2900   -5.5710   22.4000 C   0  0  0  0  0  0  0  0  0  0  0  0
    5.3470   -4.7380   22.0370 C   0  0  0  0  0  0  0  0  0  0  0  0
    5.4960   -3.2770   22.1450 C   0  0  0  0  0  0  0  0  0  0  0  0
    6.7920   -2.7650   22.6970 C   0  0  0  0  0  0  0  0  0  0  0  0
    6.9370   -1.2580   22.8540 C   0  0  0  0  0  0  0  0  0  0  0  0
    5.5910   -0.5010   22.5770 C   0  0  0  0  0  0  0  0  0  0  0  0
    4.5580    0.6360   22.4100 C   0  0  0  0  0  0  0  0  0  0  0  0
    3.5640    0.6060   23.5020 N   0  0  0  0  0  0  0  0  0  0  0  0
    2.3090    1.1190   23.0810 C   0  0  0  0  0  0  0  0  0  0  0  0
    2.0750    2.6410   23.2210 C   0  0  0  0  0  0  0  0  0  0  0  0
    3.2530    3.3660   23.8340 C   0  0  0  0  0  0  0  0  0  0  0  0
    2.7510    4.4120   24.6650 O   0  0  0  0  0  0  0  0  0  0  0  0
    4.2030    2.6430   24.5750 C   0  0  0  0  0  0  0  0  0  0  0  0
    4.0230    1.2690   24.7420 C   0  0  0  0  0  0  0  0  0  0  0  0
    6.3910    0.6970   22.8860 C   0  0  0  0  0  0  0  0  0  0  0  0
    7.6860    0.7610   23.2210 N   0  0  0  0  0  0  0  0  0  0  0  0
    8.0430   -0.5280   23.1980 N   0  0  0  0  0  0  0  0  0  0  0  0
    9.3230   -1.0460   23.4530 C   0  0  0  0  0  0  0  0  0  0  0  0
   10.4030   -1.9300   23.7630 C   0  0  0  0  0  0  0  0  0  0  0  0
   10.2760   -3.3780   24.0540 C   0  0  0  0  0  0  0  0  0  0  0  0
    8.9350   -4.0330   24.0880 C   0  0  0  0  0  0  0  0  0  0  0  0
    7.8390   -3.1460   23.8920 C   0  0  0  0  0  0  0  0  0  0  0  0
    6.3820   -3.6760   24.0090 C   0  0  0  0  0  0  0  0  0  0  0  0
    8.1420   -1.8520   23.5980 C   0  0  0  0  0  0  0  0  0  0  0  0
    7.7660   -3.7100   23.0440 C   0  0  0  0  0  0  0  0  0  0  0  0
    7.4900   -5.0930   22.8920 C   0  0  0  0  0  0  0  0  0  0  0  0
  1  2  1  0
  2  3  2  0
  3  4  1  0
  4  5  2  0
  5  6  1  0
  6  7  2  0
  7  8  1  0
  8  9  1  0
  9 10  1  0
 10 11  1  0
 11 12  1  0
 12 13  1  0
 12 14  1  0
  9 15  1  0
 14 15  1  0
  7 16  1  0
 16 17  2  0
  6 18  1  0
 17 18  1  0
 18 19  1  0
 19 20  2  0
 20 21  1  0
 21 22  2  0
 22 23  1  0
 23 24  1  0
 19 25  1  0
 23 25  2  0
  5 26  1  0
  2 27  1  0
 26 27  2  0
M  END
