MAK-UNK-f2409524-26
     RDKit          3D

 22 23  0  0  0  0  0  0  0  0999 V2000
    9.8150   -0.6330   22.5090 C   0  0  0  0  0  0  0  0  0  0  0  0
    8.8290    0.0570   21.5620 C   0  0  0  0  0  0  0  0  0  0  0  0
    9.0180    1.2490   21.2270 O   0  0  0  0  0  0  0  0  0  0  0  0
    7.7210   -0.6100   21.0810 N   0  0  0  0  0  0  0  0  0  0  0  0
    6.7180   -0.0840   20.2470 C   0  0  0  0  0  0  0  0  0  0  0  0
    6.9460   -0.0750   18.7170 C   0  0  0  0  0  0  0  0  0  0  0  0
    6.1080    0.4050   17.8000 N   0  0  0  0  0  0  0  0  0  0  0  0
    4.9780    0.9040   18.3210 C   0  0  0  0  0  0  0  0  0  0  0  0
    4.6320    0.9500   19.6800 C   0  0  0  0  0  0  0  0  0  0  0  0
    5.4920    0.4560   20.6720 C   0  0  0  0  0  0  0  0  0  0  0  0
    5.1050    0.5210   22.0060 C   0  0  0  0  0  0  0  0  0  0  0  0
    5.0300    1.7600   22.6350 C   0  0  0  0  0  0  0  0  0  0  0  0
    3.7850    2.2420   23.0450 C   0  0  0  0  0  0  0  0  0  0  0  0
    3.9440    3.6550   23.6190 C   0  0  0  0  0  0  0  0  0  0  0  0
    2.7780    4.6380   23.5350 C   0  0  0  0  0  0  0  0  0  0  0  0
    2.7140    5.9360   23.9820 N   0  0  0  0  0  0  0  0  0  0  0  0
    3.5190    6.5310   25.0460 C   0  0  0  0  0  0  0  0  0  0  0  0
    2.6700    7.4900   25.8690 C   0  0  0  0  0  0  0  0  0  0  0  0
    3.5480    8.2650   26.8550 C   0  0  0  0  0  0  0  0  0  0  0  0
    4.6920    8.9320   26.1270 C   0  0  0  0  0  0  0  0  0  0  0  0
    5.4090    8.0200   25.3590 C   0  0  0  0  0  0  0  0  0  0  0  0
    4.7140    7.2600   24.4160 C   0  0  0  0  0  0  0  0  0  0  0  0
  1  2  1  0
  2  3  2  0
  2  4  1  0
  4  5  1  0
  5  6  2  0
  6  7  1  0
  7  8  2  0
  8  9  1  0
  5 10  1  0
  9 10  2  0
 10 11  1  0
 11 12  1  0
 12 13  1  0
 13 14  1  0
 14 15  2  3
 15 16  1  0
 16 17  1  0
 17 18  1  0
 18 19  1  0
 19 20  1  0
 20 21  1  0
 17 22  1  0
 21 22  1  0
M  END
