MAK-UNK-148caf23-1
     RDKit          3D

 34 37  0  0  0  0  0  0  0  0999 V2000
    8.0190   -1.9250   27.3390 C   0  0  0  0  0  0  0  0  0  0  0  0
    8.2140   -2.5220   25.9400 C   0  0  0  0  0  0  0  0  0  0  0  0
    8.1740   -1.5150   24.9070 N   0  0  0  0  0  0  0  0  0  0  0  0
    9.0030   -1.5660   23.8490 C   0  0  0  0  0  0  0  0  0  0  0  0
    8.4490   -1.1830   22.6800 C   0  0  0  0  0  0  0  0  0  0  0  0
    9.2180   -1.2230   21.5630 C   0  0  0  0  0  0  0  0  0  0  0  0
   10.6080   -1.6750   21.6910 C   0  0  0  0  0  0  0  0  0  0  0  0
   11.6370   -1.7980   20.6380 C   0  0  0  0  0  0  0  0  0  0  0  0
   11.9790   -2.5180   21.7210 C   0  0  0  0  0  0  0  0  0  0  0  0
   12.1340   -3.0610   22.9100 N   0  0  0  0  0  0  0  0  0  0  0  0
   13.4800   -3.0000   22.7290 C   0  0  0  0  0  0  0  0  0  0  0  0
   14.1020   -3.5350   21.5880 C   0  0  0  0  0  0  0  0  0  0  0  0
   13.7050   -3.1620   20.2880 C   0  0  0  0  0  0  0  0  0  0  0  0
   14.5550   -3.9150   19.4570 C   0  0  0  0  0  0  0  0  0  0  0  0
   14.9050   -4.3500   18.1800 C   0  0  0  0  0  0  0  0  0  0  0  0
   16.1980   -4.4440   17.7290 C   0  0  0  0  0  0  0  0  0  0  0  0
   16.3200   -5.0870   16.5280 C   0  0  0  0  0  0  0  0  0  0  0  0
   15.2260   -5.5590   15.8050 C   0  0  0  0  0  0  0  0  0  0  0  0
   14.0500   -5.3650   16.1770 C   0  0  0  0  0  0  0  0  0  0  0  0
   13.8960   -4.8100   17.3110 C   0  0  0  0  0  0  0  0  0  0  0  0
   12.6190   -4.7710   17.6030 F   0  0  0  0  0  0  0  0  0  0  0  0
   15.3790   -4.6110   20.3150 N   0  0  0  0  0  0  0  0  0  0  0  0
   16.3130   -5.5010   19.7430 S   0  0  0  0  0  0  0  0  0  0  0  0
   17.4180   -5.1110   20.5940 O   0  0  0  0  0  0  0  0  0  0  0  0
   15.4310   -6.6340   19.9470 O   0  0  0  0  0  0  0  0  0  0  0  0
   15.9840   -4.7870   18.2080 C   0  0  0  0  0  0  0  0  0  0  0  0
   15.3180   -5.5300   17.2630 C   0  0  0  0  0  0  0  0  0  0  0  0
   14.9770   -4.9560   16.0760 C   0  0  0  0  0  0  0  0  0  0  0  0
   15.3540   -3.6380   15.8930 C   0  0  0  0  0  0  0  0  0  0  0  0
   16.0310   -2.9130   16.7730 N   0  0  0  0  0  0  0  0  0  0  0  0
   16.3440   -3.5080   17.9560 C   0  0  0  0  0  0  0  0  0  0  0  0
   15.2110   -4.4740   21.5500 C   0  0  0  0  0  0  0  0  0  0  0  0
   10.9880   -2.0250   22.9570 C   0  0  0  0  0  0  0  0  0  0  0  0
   10.1820   -1.9630   24.0270 N   0  0  0  0  0  0  0  0  0  0  0  0
  1  2  1  0
  2  3  1  0
  3  4  1  0
  4  5  2  0
  5  6  1  0
  6  7  2  0
  7  8  1  0
  8  9  3  0
  9 10  1  0
 10 11  1  0
 11 12  1  0
 12 13  1  0
 13 14  2  0
 14 15  1  0
 15 16  2  0
 16 17  1  0
 17 18  2  0
 18 19  1  0
 15 20  1  0
 19 20  2  0
 20 21  1  0
 14 22  1  0
 22 23  1  0
 23 24  2  0
 23 25  2  0
 23 26  1  0
 26 27  2  0
 27 28  1  0
 28 29  2  0
 29 30  1  0
 26 31  1  0
 30 31  2  0
 12 32  2  0
 22 32  1  0
  7 33  1  0
  4 34  1  0
 33 34  2  0
M  END
