MAK-UNK-31051d4e-1
     RDKit          3D

 25 27  0  0  0  0  0  0  0  0999 V2000
    6.7300   -4.9490   24.7920 O   0  0  0  0  0  0  0  0  0  0  0  0
    6.4790   -3.6220   25.3170 S   0  0  0  0  0  0  0  0  0  0  0  0
    6.8420   -3.2250   26.6590 O   0  0  0  0  0  0  0  0  0  0  0  0
    7.1490   -2.5430   24.2070 N   0  0  0  0  0  0  0  0  0  0  0  0
    8.5250   -2.4020   24.1690 C   0  0  0  0  0  0  0  0  0  0  0  0
    9.0360   -1.8000   22.9200 C   0  0  0  0  0  0  0  0  0  0  0  0
   10.3120   -1.2270   22.9220 C   0  0  0  0  0  0  0  0  0  0  0  0
   10.6300    0.2310   23.0890 C   0  0  0  0  0  0  0  0  0  0  0  0
   11.9150    0.7350   23.0640 C   0  0  0  0  0  0  0  0  0  0  0  0
   13.0520   -0.1720   22.8740 C   0  0  0  0  0  0  0  0  0  0  0  0
   12.8920   -1.4750   22.7220 C   0  0  0  0  0  0  0  0  0  0  0  0
   11.5420   -2.1580   22.7240 C   0  0  0  0  0  0  0  0  0  0  0  0
    4.7340   -3.4630   25.2770 C   0  0  0  0  0  0  0  0  0  0  0  0
    3.8780   -4.7020   24.3850 S   0  0  0  0  0  0  0  0  0  0  0  0
    2.4120   -3.9600   24.7690 C   0  0  0  0  0  0  0  0  0  0  0  0
    2.5740   -2.7500   25.5810 C   0  0  0  0  0  0  0  0  0  0  0  0
    3.9020   -2.4670   25.8710 C   0  0  0  0  0  0  0  0  0  0  0  0
    4.3150   -1.3720   26.6310 C   0  0  0  0  0  0  0  0  0  0  0  0
    3.1120   -0.6220   26.8540 N   0  0  0  0  0  0  0  0  0  0  0  0
    3.0020    0.4550   26.0020 C   0  0  0  0  0  0  0  0  0  0  0  0
    3.7700    1.5650   26.3520 C   0  0  0  0  0  0  0  0  0  0  0  0
    3.1510    2.2570   27.3990 C   0  0  0  0  0  0  0  0  0  0  0  0
    2.1550    3.0980   26.8130 O   0  0  0  0  0  0  0  0  0  0  0  0
    2.4170    1.2680   28.3220 C   0  0  0  0  0  0  0  0  0  0  0  0
    3.0150   -0.1550   28.2520 C   0  0  0  0  0  0  0  0  0  0  0  0
  1  2  2  0
  2  3  2  0
  2  4  1  0
  4  5  1  0
  5  6  1  0
  6  7  1  0
  7  8  2  0
  8  9  1  0
  9 10  2  0
 10 11  1  0
  7 12  1  0
 11 12  2  0
  2 13  1  0
 13 14  1  0
 14 15  1  0
 15 16  2  0
 13 17  2  0
 16 17  1  0
 17 18  1  0
 18 19  1  0
 19 20  1  0
 20 21  1  0
 21 22  1  0
 22 23  1  0
 22 24  1  0
 19 25  1  0
 24 25  1  0
M  END
