MAK-UNK-60abb798-1
     RDKit          3D

 21 23  0  0  0  0  0  0  0  0999 V2000
   13.0700   -1.6020   22.2740 N   0  0  0  0  0  0  0  0  0  0  0  0
   12.4270   -2.5890   23.1700 C   0  0  0  0  0  0  0  0  0  0  0  0
   11.5350   -2.1280   24.1030 C   0  0  2  0  0  0  0  0  0  0  0  0
   10.3130   -3.1460   24.1860 O   0  0  0  0  0  0  0  0  0  0  0  0
    8.8580   -2.7540   23.9860 C   0  0  2  0  0  0  0  0  0  0  0  0
    7.7250   -3.7180   23.3710 C   0  0  1  0  0  0  0  0  0  0  0  0
    7.5020   -3.5650   22.0420 C   0  0  0  0  0  0  0  0  0  0  0  0
    6.2390   -3.9240   21.5680 C   0  0  0  0  0  0  0  0  0  0  0  0
    5.7840   -5.2080   21.8230 C   0  0  0  0  0  0  0  0  0  0  0  0
    6.7680   -6.0000   22.6670 C   0  0  0  0  0  0  0  0  0  0  0  0
    7.3730   -5.1950   23.8120 C   0  0  1  0  0  0  0  0  0  0  0  0
    8.2680   -5.9480   24.4420 O   0  0  0  0  0  0  0  0  0  0  0  0
    9.1420   -1.5410   23.2010 C   0  0  0  0  0  0  0  0  0  0  0  0
   10.4110   -1.5780   23.6260 C   0  0  0  0  0  0  0  0  0  0  0  0
   11.3180   -0.6830   23.6320 C   0  0  0  0  0  0  0  0  0  0  0  0
   12.6320   -0.4570   23.9910 C   0  0  0  0  0  0  0  0  0  0  0  0
   13.2030   -1.5630   24.5770 C   0  0  0  0  0  0  0  0  0  0  0  0
   12.3460   -2.7390   24.7100 C   0  0  0  0  0  0  0  0  0  0  0  0
   12.9040   -3.6450   25.2460 O   0  0  0  0  0  0  0  0  0  0  0  0
   10.9940   -2.7350   24.2300 C   0  0  0  0  0  0  0  0  0  0  0  0
   10.2450   -3.8610   24.3620 O   0  0  0  0  0  0  0  0  0  0  0  0
  1  2  1  0
  3  2  1  6
  3  4  1  0
  4  5  1  0
  5  6  1  0
  6  7  1  6
  7  8  1  0
  8  9  1  0
  9 10  1  0
  6 11  1  0
 10 11  1  0
 11 12  1  6
  5 13  1  6
 13 14  1  0
  3 15  1  0
 14 15  2  0
 15 16  1  0
 16 17  2  0
 17 18  1  0
 18 19  1  0
 14 20  1  0
 18 20  2  0
 20 21  1  0
M  END
