MAK-UNK-a7992eb3-18
     RDKit          3D

 34 36  0  0  0  0  0  0  0  0999 V2000
   10.9690    0.6730   31.3940 C   0  0  0  0  0  0  0  0  0  0  0  0
    9.8790    1.3930   31.8600 C   0  0  0  0  0  0  0  0  0  0  0  0
    9.9450    2.5710   32.1990 O   0  0  0  0  0  0  0  0  0  0  0  0
    8.6510    0.5660   31.8970 N   0  0  0  0  0  0  0  0  0  0  0  0
    7.6080    0.9860   30.9370 C   0  0  1  0  0  0  0  0  0  0  0  0
    6.5660   -0.0590   30.6630 C   0  0  0  0  0  0  0  0  0  0  0  0
    6.3190   -0.5220   29.2410 C   0  0  0  0  0  0  0  0  0  0  0  0
    6.4420   -1.8980   29.0570 C   0  0  0  0  0  0  0  0  0  0  0  0
    6.2400   -2.4590   27.8020 C   0  0  0  0  0  0  0  0  0  0  0  0
    5.9130   -1.6300   26.7340 C   0  0  0  0  0  0  0  0  0  0  0  0
    5.7030   -2.1100   25.4780 O   0  0  0  0  0  0  0  0  0  0  0  0
    6.5030   -3.1720   25.1090 C   0  0  0  0  0  0  0  0  0  0  0  0
    5.9570   -3.9900   23.9080 C   0  0  1  0  0  0  0  0  0  0  0  0
    6.9680   -4.3650   23.0320 C   0  0  0  0  0  0  0  0  0  0  0  0
    6.4550   -4.7870   21.8280 N   0  0  0  0  0  0  0  0  0  0  0  0
    5.5360   -3.9600   21.0940 C   0  0  0  0  0  0  0  0  0  0  0  0
    5.9960   -2.7140   20.6490 C   0  0  0  0  0  0  0  0  0  0  0  0
    6.9110   -1.9210   21.3450 C   0  0  0  0  0  0  0  0  0  0  0  0
    7.3750   -0.6750   20.8910 C   0  0  0  0  0  0  0  0  0  0  0  0
    6.9010   -0.1790   19.6670 C   0  0  0  0  0  0  0  0  0  0  0  0
    5.9800   -0.9470   18.9440 C   0  0  0  0  0  0  0  0  0  0  0  0
    5.5340   -2.1970   19.4300 C   0  0  0  0  0  0  0  0  0  0  0  0
    5.8210   -6.0090   22.1220 C   0  0  0  0  0  0  0  0  0  0  0  0
    5.0170   -5.8600   23.2500 C   0  0  0  0  0  0  0  0  0  0  0  0
    5.4330   -5.0530   24.2850 O   0  0  0  0  0  0  0  0  0  0  0  0
    5.7860   -0.2490   26.9140 C   0  0  0  0  0  0  0  0  0  0  0  0
    5.9890    0.3150   28.1720 C   0  0  0  0  0  0  0  0  0  0  0  0
    7.0150    2.3570   31.3820 C   0  0  0  0  0  0  0  0  0  0  0  0
    6.6270    2.5660   32.5360 O   0  0  0  0  0  0  0  0  0  0  0  0
    6.9420    3.3280   30.4040 N   0  0  0  0  0  0  0  0  0  0  0  0
    5.8450    4.2150   30.3290 C   0  0  0  0  0  0  0  0  0  0  0  0
    5.8620    4.8280   29.0750 C   0  0  0  0  0  0  0  0  0  0  0  0
    5.2390    6.2260   28.8760 C   0  0  0  0  0  0  0  0  0  0  0  0
    4.4630    7.9570   28.6330 Br  0  0  0  0  0  0  0  0  0  0  0  0
  1  2  1  0
  2  3  2  0
  2  4  1  0
  4  5  1  0
  5  6  1  1
  6  7  1  0
  7  8  2  0
  8  9  1  0
  9 10  2  0
 10 11  1  0
 11 12  1  0
 13 12  1  1
 13 14  1  0
 14 15  1  0
 15 16  1  0
 16 17  1  0
 17 18  2  0
 18 19  1  0
 19 20  2  0
 20 21  1  0
 17 22  1  0
 21 22  2  0
 15 23  1  0
 23 24  1  0
 13 25  1  0
 24 25  1  0
 10 26  1  0
  7 27  1  0
 26 27  2  0
  5 28  1  0
 28 29  2  0
 28 30  1  0
 30 31  1  0
 31 32  1  0
 32 33  3  0
 33 34  1  0
M  END
