MAK-UNK-0cb6a3ad-2
     RDKit          3D

 19 18  0  0  0  0  0  0  0  0999 V2000
    7.2110   -1.5080   20.2430 C   0  0  0  0  0  0  0  0  0  0  0  0
    6.2020   -2.2500   19.7500 C   0  0  0  0  0  0  0  0  0  0  0  0
    5.7180   -3.5030   20.3810 C   0  0  0  0  0  0  0  0  0  0  0  0
    6.5450   -4.0900   21.5560 C   0  0  0  0  0  0  0  0  0  0  0  0
    6.2590   -5.4120   21.8250 C   0  0  0  0  0  0  0  0  0  0  0  0
    6.9510   -5.9980   22.8660 C   0  0  0  0  0  0  0  0  0  0  0  0
    7.8020   -5.1990   23.6300 C   0  0  0  0  0  0  0  0  0  0  0  0
    8.2900   -4.2870   22.9330 O   0  0  0  0  0  0  0  0  0  0  0  0
    8.9190   -2.9560   23.6410 P   0  0  0  0  0  0  0  0  0  0  0  0
    7.6330   -2.0880   24.8250 S   0  0  0  0  0  0  0  0  0  0  0  0
   10.8820   -3.4700   24.1800 S   0  0  0  0  0  0  0  0  0  0  0  0
    9.3070   -1.9720   22.4500 O   0  0  0  0  0  0  0  0  0  0  0  0
   10.6680   -1.5780   22.4090 C   0  0  0  0  0  0  0  0  0  0  0  0
   11.0130   -0.6710   23.5910 C   0  0  0  0  0  0  0  0  0  0  0  0
   12.4750   -0.6890   23.9740 C   0  0  0  0  0  0  0  0  0  0  0  0
   12.8350   -1.5840   24.9610 C   0  0  0  0  0  0  0  0  0  0  0  0
   13.3850   -2.6840   24.4750 C   0  0  0  0  0  0  0  0  0  0  0  0
   13.3010   -2.7560   23.0810 C   0  0  0  0  0  0  0  0  0  0  0  0
   13.2990   -1.6260   22.2340 C   0  0  0  0  0  0  0  0  0  0  0  0
  1  2  1  0
  2  3  1  0
  3  4  1  0
  4  5  1  0
  5  6  1  0
  6  7  1  0
  7  8  1  0
  8  9  1  0
  9 10  2  0
  9 11  1  0
  9 12  1  0
 12 13  1  0
 13 14  1  0
 14 15  1  0
 15 16  1  0
 16 17  1  0
 17 18  1  0
 18 19  1  0
M  END
