MAK-UNK-198e6d85-4
     RDKit          3D

 31 35  0  0  0  0  0  0  0  0999 V2000
   12.8780   -2.4710   22.8350 N   0  0  0  0  0  0  0  0  0  0  0  0
   12.0380   -1.6200   21.9960 C   0  0  0  0  0  0  0  0  0  0  0  0
   10.6300   -1.6400   22.0480 C   0  0  1  0  0  0  0  0  0  0  0  0
    9.9490   -2.4340   22.6970 O   0  0  0  0  0  0  0  0  0  0  0  0
    8.7820   -2.8020   21.9170 C   0  0  1  0  0  0  0  0  0  0  0  0
    7.7740   -3.6820   22.6420 C   0  0  1  0  0  0  0  0  0  0  0  0
    7.6800   -5.1760   22.3690 C   0  0  0  0  0  0  0  0  0  0  0  0
    7.8710   -5.9640   23.5370 C   0  0  0  0  0  0  0  0  0  0  0  0
    8.8550   -5.6430   24.5070 C   0  0  0  0  0  0  0  0  0  0  0  0
    9.3290   -4.3860   24.3080 C   0  0  2  0  0  0  0  0  0  0  0  0
   10.1490   -3.6120   25.0350 N   0  0  0  0  0  0  0  0  0  0  0  0
    9.6900   -2.4300   24.6550 C   0  0  0  0  0  0  0  0  0  0  0  0
    8.3190   -2.3100   24.5810 C   0  0  0  0  0  0  0  0  0  0  0  0
    9.4480   -1.5040   24.3270 C   0  0  0  0  0  0  0  0  0  0  0  0
   10.3910   -2.6940   24.9000 C   0  0  0  0  0  0  0  0  0  0  0  0
   11.5700   -3.4520   25.3110 C   0  0  0  0  0  0  0  0  0  0  0  0
   12.9490   -3.2590   25.3400 C   0  0  0  0  0  0  0  0  0  0  0  0
   13.4520   -2.1330   24.8860 C   0  0  0  0  0  0  0  0  0  0  0  0
   12.6120   -1.2320   24.4290 C   0  0  0  0  0  0  0  0  0  0  0  0
   11.2840   -1.5740   24.4800 C   0  0  0  0  0  0  0  0  0  0  0  0
   10.2980   -1.0650   24.2010 N   0  0  0  0  0  0  0  0  0  0  0  0
    8.0470   -3.6050   24.1200 C   0  0  0  0  0  0  0  0  0  0  0  0
    8.1060   -1.5480   21.2840 C   0  0  0  0  0  0  0  0  0  0  0  0
    8.6400   -0.3360   21.7280 C   0  0  0  0  0  0  0  0  0  0  0  0
    9.9800   -0.4170   22.1290 C   0  0  0  0  0  0  0  0  0  0  0  0
   10.5790    0.7630   22.5940 C   0  0  0  0  0  0  0  0  0  0  0  0
    9.8570    1.9560   22.6400 C   0  0  0  0  0  0  0  0  0  0  0  0
    8.5380    2.0210   22.2340 C   0  0  0  0  0  0  0  0  0  0  0  0
    7.8400    3.1970   22.2800 O   0  0  0  0  0  0  0  0  0  0  0  0
    7.9210    0.8690   21.7730 C   0  0  0  0  0  0  0  0  0  0  0  0
    6.6130    0.9480   21.3720 O   0  0  0  0  0  0  0  0  0  0  0  0
  1  2  1  0
  3  2  1  1
  3  4  1  0
  4  5  1  0
  5  6  1  0
  6  7  1  6
  7  8  1  0
  8  9  1  0
  9 10  1  0
 10 11  1  1
 11 12  1  0
 12 13  2  0
 13 14  1  0
 14 15  2  0
 15 16  1  0
 16 17  2  0
 17 18  1  0
 18 19  2  0
 15 20  1  0
 19 20  1  0
 12 21  1  0
 20 21  2  0
  6 22  1  0
 10 22  1  0
  5 23  1  1
 23 24  1  0
  3 25  1  0
 24 25  2  0
 25 26  1  0
 26 27  2  0
 27 28  1  0
 28 29  1  0
 24 30  1  0
 28 30  2  0
 30 31  1  0
M  END
