MAK-UNK-37f1d6fa-6
     RDKit          3D

 31 34  0  0  0  0  0  0  0  0999 V2000
    8.6360    0.9280   21.4410 O   0  0  0  0  0  0  0  0  0  0  0  0
    8.1710   -0.1750   21.7130 C   0  0  0  0  0  0  0  0  0  0  0  0
    6.9990   -0.6300   21.1550 N   0  0  0  0  0  0  0  0  0  0  0  0
    6.3670    0.0210   20.0870 C   0  0  0  0  0  0  0  0  0  0  0  0
    5.1730    0.7200   20.2500 C   0  0  0  0  0  0  0  0  0  0  0  0
    4.5710    1.3840   19.1750 C   0  0  0  0  0  0  0  0  0  0  0  0
    5.1400    1.3720   17.9050 C   0  0  0  0  0  0  0  0  0  0  0  0
    6.3830    0.6320   17.7400 N   0  0  0  0  0  0  0  0  0  0  0  0
    6.9180    0.0110   18.8020 C   0  0  0  0  0  0  0  0  0  0  0  0
    8.8150   -1.0170   22.5670 N   0  0  0  0  0  0  0  0  0  0  0  0
   10.1660   -1.0520   22.4640 C   0  0  0  0  0  0  0  0  0  0  0  0
   10.8000   -2.1050   21.7750 C   0  0  0  0  0  0  0  0  0  0  0  0
   12.2630   -2.2470   21.5430 C   0  0  0  0  0  0  0  0  0  0  0  0
   13.1000   -1.1830   22.1030 C   0  0  0  0  0  0  0  0  0  0  0  0
   12.3860   -0.2320   22.7390 C   0  0  0  0  0  0  0  0  0  0  0  0
   13.2870    0.7740   23.1910 C   0  0  0  0  0  0  0  0  0  0  0  0
   12.8850    1.4540   24.0180 O   0  0  0  0  0  0  0  0  0  0  0  0
   14.4950    0.9490   22.4550 N   0  0  0  0  0  0  0  0  0  0  0  0
   15.4370    2.1400   22.2650 C   0  0  0  0  0  0  0  0  0  0  0  0
   17.5780    2.5510   23.5040 C   0  0  0  0  0  0  0  0  0  0  0  0
   18.4300    3.5330   24.2670 C   0  0  0  0  0  0  0  0  0  0  0  0
   18.2560    4.8230   24.5100 C   0  0  0  0  0  0  0  0  0  0  0  0
   19.3010    5.4100   25.1500 N   0  0  0  0  0  0  0  0  0  0  0  0
   20.2250    4.5270   25.4360 C   0  0  0  0  0  0  0  0  0  0  0  0
   21.4270    4.7130   26.0970 C   0  0  0  0  0  0  0  0  0  0  0  0
   22.2550    3.6390   26.3080 C   0  0  0  0  0  0  0  0  0  0  0  0
   21.8110    2.4140   25.8370 C   0  0  0  0  0  0  0  0  0  0  0  0
   22.5830    1.3350   26.0260 F   0  0  0  0  0  0  0  0  0  0  0  0
   20.5870    2.2700   25.1740 C   0  0  0  0  0  0  0  0  0  0  0  0
   19.7440    3.3330   24.9380 C   0  0  0  0  0  0  0  0  0  0  0  0
   11.0020   -0.0910   22.9630 C   0  0  0  0  0  0  0  0  0  0  0  0
  1  2  2  0
  2  3  1  0
  3  4  1  0
  4  5  2  0
  5  6  1  0
  6  7  2  0
  7  8  1  0
  4  9  1  0
  8  9  2  0
  2 10  1  0
 10 11  1  0
 11 12  2  0
 12 13  1  0
 13 14  2  0
 14 15  1  0
 15 16  1  0
 16 17  2  0
 16 18  1  0
 18 19  1  0
 19 20  1  0
 20 21  1  0
 21 22  2  0
 22 23  1  0
 23 24  1  0
 24 25  1  0
 25 26  2  0
 26 27  1  0
 27 28  1  0
 27 29  2  0
 21 30  1  0
 24 30  2  0
 29 30  1  0
 11 31  1  0
 15 31  2  0
M  END
