MAK-UNK-9e4a73aa-13
     RDKit          3D

 26 29  0  0  0  0  0  0  0  0999 V2000
    6.0370   -2.4810   19.8690 O   0  0  0  0  0  0  0  0  0  0  0  0
    6.6280   -2.3240   20.9350 C   0  0  0  0  0  0  0  0  0  0  0  0
    6.3010   -3.2820   22.0270 C   0  0  0  0  0  0  0  0  0  0  0  0
    5.3250   -4.2340   21.7870 C   0  0  0  0  0  0  0  0  0  0  0  0
    4.9150   -5.1180   22.7680 C   0  0  0  0  0  0  0  0  0  0  0  0
    3.9600   -6.0210   22.5450 F   0  0  0  0  0  0  0  0  0  0  0  0
    5.6010   -4.9790   24.0790 C   0  0  0  0  0  0  0  0  0  0  0  0
    5.0920   -6.0250   25.3410 Cl  0  0  0  0  0  0  0  0  0  0  0  0
    6.5940   -4.0410   24.2750 C   0  0  0  0  0  0  0  0  0  0  0  0
    6.9560   -3.1730   23.2340 C   0  0  0  0  0  0  0  0  0  0  0  0
    7.9420   -2.2010   23.4610 N   0  0  0  0  0  0  0  0  0  0  0  0
    7.5700   -1.7430   24.7280 C   0  0  0  0  0  0  0  0  0  0  0  0
    8.2090   -2.4260   25.9020 C   0  0  0  0  0  0  0  0  0  0  0  0
    7.8510   -2.0390   27.2170 C   0  0  0  0  0  0  0  0  0  0  0  0
    6.9020   -1.0190   27.4850 C   0  0  0  0  0  0  0  0  0  0  0  0
    6.2500   -0.3170   26.4490 C   0  0  0  0  0  0  0  0  0  0  0  0
    6.5620   -0.6560   25.1460 C   0  0  0  0  0  0  0  0  0  0  0  0
    8.3940   -1.3150   22.3820 C   0  0  0  0  0  0  0  0  0  0  0  0
    9.4500   -0.6750   22.4540 O   0  0  0  0  0  0  0  0  0  0  0  0
    7.5460   -1.2590   21.2450 N   0  0  0  0  0  0  0  0  0  0  0  0
    6.9030   -0.0150   20.8270 C   0  0  0  0  0  0  0  0  0  0  0  0
    6.5320   -0.0130   19.5040 C   0  0  0  0  0  0  0  0  0  0  0  0
    5.8870    1.1240   19.0620 C   0  0  0  0  0  0  0  0  0  0  0  0
    5.6230    2.2250   19.9030 C   0  0  0  0  0  0  0  0  0  0  0  0
    6.0440    2.1460   21.2280 N   0  0  0  0  0  0  0  0  0  0  0  0
    6.6740    1.0310   21.6640 N   0  0  0  0  0  0  0  0  0  0  0  0
  1  2  2  0
  2  3  1  0
  3  4  2  0
  4  5  1  0
  5  6  1  0
  5  7  2  0
  7  8  1  0
  7  9  1  0
  3 10  1  0
  9 10  2  0
 10 11  1  0
 11 12  1  0
 12 13  2  0
 13 14  1  0
 14 15  2  0
 15 16  1  0
 12 17  1  0
 16 17  2  0
 11 18  1  0
 18 19  2  0
  2 20  1  0
 18 20  1  0
 20 21  1  0
 21 22  2  0
 22 23  1  0
 23 24  2  0
 24 25  1  0
 21 26  1  0
 25 26  2  0
M  END
