MAK-UNK-a7992eb3-25
     RDKit          3D

 37 40  0  0  0  0  0  0  0  0999 V2000
   -1.4910  -13.7590   21.4560 C   0  0  0  0  0  0  0  0  0  0  0  0
   -2.3690  -12.6540   22.0900 C   0  0  0  0  0  0  0  0  0  0  0  0
   -3.7740  -13.0020   22.0490 O   0  0  0  0  0  0  0  0  0  0  0  0
   -1.7540  -11.5270   22.5770 N   0  0  0  0  0  0  0  0  0  0  0  0
   -2.5100  -10.5590   23.3500 C   0  0  2  0  0  0  0  0  0  0  0  0
   -1.9520   -9.2790   23.2950 C   0  0  0  0  0  0  0  0  0  0  0  0
   -0.6400   -9.0870   23.7030 C   0  0  0  0  0  0  0  0  0  0  0  0
    0.3040   -8.5270   22.6480 C   0  0  0  0  0  0  0  0  0  0  0  0
    1.7070   -8.3380   23.1800 C   0  0  0  0  0  0  0  0  0  0  0  0
    2.1210   -8.6360   24.4850 C   0  0  0  0  0  0  0  0  0  0  0  0
    3.2990   -8.4230   24.7760 O   0  0  0  0  0  0  0  0  0  0  0  0
    3.4940   -7.2620   25.4720 C   0  0  0  0  0  0  0  0  0  0  0  0
    3.6610   -7.2670   26.8620 C   0  0  0  0  0  0  0  0  0  0  0  0
    3.8570   -6.1160   27.6360 C   0  0  0  0  0  0  0  0  0  0  0  0
    3.9000   -4.8260   27.0780 C   0  0  0  0  0  0  0  0  0  0  0  0
    3.7210   -4.7690   25.5820 C   0  0  0  0  0  0  0  0  0  0  0  0
    3.5150   -6.0460   24.7620 C   0  0  0  0  0  0  0  0  0  0  0  0
    3.3440   -6.0850   23.3610 C   0  0  0  0  0  0  0  0  0  0  0  0
    4.3660   -6.3750   22.4780 N   0  0  0  0  0  0  0  0  0  0  0  0
    5.4370   -5.4150   22.7310 C   0  0  0  0  0  0  0  0  0  0  0  0
    6.5270   -5.0990   21.9960 N   0  0  0  0  0  0  0  0  0  0  0  0
    7.0900   -4.0720   22.8540 C   0  0  0  0  0  0  0  0  0  0  0  0
    8.2450   -3.3490   22.6090 C   0  0  0  0  0  0  0  0  0  0  0  0
    8.6070   -2.4020   23.5580 C   0  0  0  0  0  0  0  0  0  0  0  0
    7.8200   -2.2150   24.6920 C   0  0  0  0  0  0  0  0  0  0  0  0
    6.6630   -2.9330   24.9540 C   0  0  0  0  0  0  0  0  0  0  0  0
    6.3240   -3.8720   23.9880 C   0  0  0  0  0  0  0  0  0  0  0  0
    5.2940   -4.7320   23.8880 N   0  0  0  0  0  0  0  0  0  0  0  0
    1.1830   -9.1510   25.3830 C   0  0  0  0  0  0  0  0  0  0  0  0
   -0.1800   -9.3740   25.0010 C   0  0  0  0  0  0  0  0  0  0  0  0
   -2.4940  -10.9630   24.6770 C   0  0  0  0  0  0  0  0  0  0  0  0
   -3.2370  -10.4400   25.5160 O   0  0  0  0  0  0  0  0  0  0  0  0
   -1.6580  -11.9610   25.0890 N   0  0  0  0  0  0  0  0  0  0  0  0
   -2.0250  -13.2900   25.5210 C   0  0  0  0  0  0  0  0  0  0  0  0
   -1.1450  -14.1900   24.9790 C   0  0  0  0  0  0  0  0  0  0  0  0
   -1.4380  -15.5450   25.0940 C   0  0  0  0  0  0  0  0  0  0  0  0
   -1.8530  -17.3980   25.2690 Br  0  0  0  0  0  0  0  0  0  0  0  0
  1  2  1  0
  2  3  2  0
  2  4  1  0
  4  5  1  0
  5  6  1  1
  6  7  1  0
  7  8  2  0
  8  9  1  0
  9 10  2  0
 10 11  1  0
 11 12  1  0
 12 13  2  0
 13 14  1  0
 14 15  2  0
 15 16  1  0
 12 17  1  0
 16 17  2  0
 17 18  1  0
 18 19  1  0
 19 20  1  0
 20 21  2  0
 21 22  1  0
 22 23  2  0
 23 24  1  0
 24 25  2  0
 25 26  1  0
 22 27  1  0
 26 27  2  0
 20 28  1  0
 27 28  1  0
 10 29  1  0
  7 30  1  0
 29 30  2  0
  5 31  1  0
 31 32  2  0
 31 33  1  0
 33 34  1  0
 34 35  1  0
 35 36  3  0
 36 37  1  0
M  END
