MAK-UNK-2c1752f0-2
     RDKit          3D

 11 11  0  0  0  0  0  0  0  0999 V2000
   10.0260   -0.0360   22.4980 C   0  0  0  0  0  0  0  0  0  0  0  0
    8.8840    0.3700   21.5990 C   0  0  0  0  0  0  0  0  0  0  0  0
    8.7710    1.5400   21.2060 O   0  0  0  0  0  0  0  0  0  0  0  0
    8.0480   -0.7080   21.2770 C   0  0  1  0  0  0  0  0  0  0  0  0
    7.0310   -1.1410   22.3340 C   0  0  0  0  0  0  0  0  0  0  0  0
    7.2510   -0.2980   20.0620 C   0  0  0  0  0  0  0  0  0  0  0  0
    6.2140    0.4460   19.7770 C   0  0  0  0  0  0  0  0  0  0  0  0
    5.3600    1.1880   20.3600 C   0  0  0  0  0  0  0  0  0  0  0  0
    5.3050    1.0040   18.9030 C   0  0  0  0  0  0  0  0  0  0  0  0
    6.2290    0.1740   18.1220 N   0  0  0  0  0  0  0  0  0  0  0  0
    7.2730   -0.5320   18.7590 C   0  0  0  0  0  0  0  0  0  0  0  0
  1  2  1  0
  2  3  2  0
  2  4  1  0
  4  5  1  1
  4  6  1  0
  6  7  2  0
  7  8  1  0
  8  9  2  0
  9 10  1  0
  6 11  1  0
 10 11  2  0
M  END
