MAK-UNK-27459e11-14
     RDKit          3D

 16 16  0  0  0  0  0  0  0  0999 V2000
    4.7260   -3.6460   25.1010 C   0  0  0  0  0  0  0  0  0  0  0  0
    6.4760   -3.7890   25.1490 S   0  0  0  0  0  0  0  0  0  0  0  0
    6.7640   -5.1540   24.7450 O   0  0  0  0  0  0  0  0  0  0  0  0
    6.8780   -3.2650   26.4410 O   0  0  0  0  0  0  0  0  0  0  0  0
    7.1790   -2.7570   23.9710 N   0  0  0  0  0  0  0  0  0  0  0  0
    8.5140   -2.4480   23.9580 C   0  0  0  0  0  0  0  0  0  0  0  0
    9.1020   -1.7540   22.9660 C   0  0  0  0  0  0  0  0  0  0  0  0
   10.3820   -0.8900   23.0710 C   0  0  0  0  0  0  0  0  0  0  0  0
   10.1190    0.6170   22.8550 C   0  0  0  0  0  0  0  0  0  0  0  0
   11.3010    1.5950   22.8900 C   0  0  0  0  0  0  0  0  0  0  0  0
   12.6830    1.0030   23.1370 C   0  0  0  0  0  0  0  0  0  0  0  0
   12.7340   -0.4910   23.3430 C   0  0  0  0  0  0  0  0  0  0  0  0
   11.6820   -1.3270   23.3150 C   0  0  0  0  0  0  0  0  0  0  0  0
   12.1110   -2.7030   23.5780 C   0  0  0  0  0  0  0  0  0  0  0  0
   11.3410   -3.4950   24.3220 N   0  0  0  0  0  0  0  0  0  0  0  0
   13.4050   -3.0230   22.9720 N   0  0  0  0  0  0  0  0  0  0  0  0
  1  2  1  0
  2  3  2  0
  2  4  2  0
  2  5  1  0
  5  6  1  0
  6  7  1  0
  7  8  1  0
  8  9  2  0
  9 10  1  0
 10 11  2  0
 11 12  1  0
  8 13  1  0
 12 13  2  0
 13 14  1  0
 14 15  2  3
 14 16  1  0
M  END
