MAK-UNK-f2409524-9
     RDKit          3D

 18 19  0  0  0  0  0  0  0  0999 V2000
   10.6730   -2.3660   24.6780 O   0  0  0  0  0  0  0  0  0  0  0  0
    9.5140   -2.6590   24.4060 C   0  0  0  0  0  0  0  0  0  0  0  0
    8.7740   -2.0820   23.3700 N   0  0  0  0  0  0  0  0  0  0  0  0
    9.0080   -0.8050   22.7970 C   0  0  0  0  0  0  0  0  0  0  0  0
    8.7290   -0.4910   21.4600 C   0  0  0  0  0  0  0  0  0  0  0  0
    7.4200   -0.8560   21.2150 N   0  0  0  0  0  0  0  0  0  0  0  0
    6.6290   -0.2230   20.2890 C   0  0  0  0  0  0  0  0  0  0  0  0
    5.4870    0.4010   20.8940 C   0  0  0  0  0  0  0  0  0  0  0  0
    4.8630    0.9710   19.7190 N   0  0  0  0  0  0  0  0  0  0  0  0
    5.2420    0.9360   18.4400 C   0  0  0  0  0  0  0  0  0  0  0  0
    6.2770    0.3490   17.9560 N   0  0  0  0  0  0  0  0  0  0  0  0
    6.9520   -0.2270   18.9330 C   0  0  0  0  0  0  0  0  0  0  0  0
    8.7490   -3.7610   25.2300 C   0  0  0  0  0  0  0  0  0  0  0  0
    9.6300   -4.2320   26.2050 C   0  0  0  0  0  0  0  0  0  0  0  0
    9.1050   -4.9550   27.2750 C   0  0  0  0  0  0  0  0  0  0  0  0
    7.7920   -5.3510   27.1000 C   0  0  0  0  0  0  0  0  0  0  0  0
    7.0460   -4.0130   27.0930 C   0  0  0  0  0  0  0  0  0  0  0  0
    7.4260   -3.2430   25.8170 C   0  0  0  0  0  0  0  0  0  0  0  0
  1  2  2  0
  2  3  1  0
  3  4  1  0
  4  5  1  0
  5  6  1  0
  6  7  1  0
  7  8  2  0
  8  9  1  0
  9 10  2  0
 10 11  1  0
  7 12  1  0
 11 12  2  0
  2 13  1  0
 13 14  1  0
 14 15  1  0
 15 16  1  0
 16 17  1  0
 13 18  1  0
 17 18  1  0
M  END
