MAK-UNK-1bb0b7ee-13
     RDKit          3D

 29 30  0  0  0  0  0  0  0  0999 V2000
    2.4470   -8.7250   25.2930 C   0  0  0  0  0  0  0  0  0  0  0  0
    1.0460   -8.3240   24.9050 C   0  0  0  0  0  0  0  0  0  0  0  0
    0.0920   -9.0980   25.0200 O   0  0  0  0  0  0  0  0  0  0  0  0
    0.9280   -7.0520   24.4170 N   0  0  0  0  0  0  0  0  0  0  0  0
    1.3240   -6.0150   25.1890 C   0  0  2  0  0  0  0  0  0  0  0  0
    0.4660   -4.7840   25.3430 C   0  0  0  0  0  0  0  0  0  0  0  0
   -0.3630   -4.5080   24.4760 O   0  0  0  0  0  0  0  0  0  0  0  0
    0.6220   -3.9530   26.4830 N   0  0  0  0  0  0  0  0  0  0  0  0
   -0.5270   -3.0990   26.7840 C   0  0  0  0  0  0  0  0  0  0  0  0
   -0.1590   -1.6160   26.8630 C   0  0  0  0  0  0  0  0  0  0  0  0
    1.3400   -1.3390   26.7070 C   0  0  0  0  0  0  0  0  0  0  0  0
    3.2060   -0.9480   26.5060 Br  0  0  0  0  0  0  0  0  0  0  0  0
    2.8000   -5.5890   24.9130 C   0  0  2  0  0  0  0  0  0  0  0  0
    2.9740   -4.2010   25.0260 C   0  0  0  0  0  0  0  0  0  0  0  0
    3.2190   -5.9690   23.5650 O   0  0  0  0  0  0  0  0  0  0  0  0
    4.6320   -5.9320   23.2530 C   0  0  2  0  0  0  0  0  0  0  0  0
    5.3440   -5.6700   24.4070 C   0  0  0  0  0  0  0  0  0  0  0  0
    6.7750   -5.2800   24.1840 C   0  0  0  0  0  0  0  0  0  0  0  0
    7.2100   -5.1920   22.8690 C   0  0  0  0  0  0  0  0  0  0  0  0
    6.4070   -4.5510   21.9220 N   0  0  0  0  0  0  0  0  0  0  0  0
    6.5650   -3.1480   21.6030 C   0  0  0  0  0  0  0  0  0  0  0  0
    7.7910   -2.6560   22.3450 C   0  0  0  0  0  0  0  0  0  0  0  0
    7.4270   -2.2820   23.6230 C   0  0  0  0  0  0  0  0  0  0  0  0
    8.3640   -1.7960   24.5080 C   0  0  0  0  0  0  0  0  0  0  0  0
    9.7030   -1.6820   24.1040 C   0  0  0  0  0  0  0  0  0  0  0  0
   10.0830   -2.0560   22.8190 C   0  0  0  0  0  0  0  0  0  0  0  0
    9.1260   -2.5450   21.9320 C   0  0  0  0  0  0  0  0  0  0  0  0
    5.0010   -4.8350   22.2210 C   0  0  2  0  0  0  0  0  0  0  0  0
    4.3140   -3.6750   22.5490 C   0  0  0  0  0  0  0  0  0  0  0  0
  1  2  1  0
  2  3  2  0
  2  4  1  0
  5  4  1  6
  5  6  1  0
  6  7  2  0
  6  8  1  0
  8  9  1  0
  9 10  1  0
 10 11  3  0
 11 12  1  0
  5 13  1  0
 13 14  1  6
 13 15  1  0
 16 15  1  1
 16 17  1  0
 17 18  1  0
 18 19  1  0
 19 20  1  0
 20 21  1  0
 21 22  1  0
 22 23  2  0
 23 24  1  0
 24 25  2  0
 25 26  1  0
 22 27  1  0
 26 27  2  0
 16 28  1  0
 20 28  1  0
 28 29  1  1
M  END
