MAK-UNK-37f1d6fa-5
     RDKit          3D

 31 34  0  0  0  0  0  0  0  0999 V2000
    8.7090    1.5010   21.0820 O   0  0  0  0  0  0  0  0  0  0  0  0
    8.4630    0.4170   21.6070 C   0  0  0  0  0  0  0  0  0  0  0  0
    7.3710   -0.4200   21.1860 N   0  0  0  0  0  0  0  0  0  0  0  0
    6.6550    0.0880   20.1540 C   0  0  0  0  0  0  0  0  0  0  0  0
    5.4970    0.8260   20.4530 C   0  0  0  0  0  0  0  0  0  0  0  0
    4.6280    1.4770   19.3640 C   0  0  0  0  0  0  0  0  0  0  0  0
    5.1100    1.2720   17.9430 C   0  0  0  0  0  0  0  0  0  0  0  0
    6.3080    0.4810   17.7870 N   0  0  0  0  0  0  0  0  0  0  0  0
    7.0090   -0.0630   18.8350 C   0  0  0  0  0  0  0  0  0  0  0  0
    9.2380   -0.0870   22.6290 N   0  0  0  0  0  0  0  0  0  0  0  0
   10.6250    0.2170   22.7030 C   0  0  0  0  0  0  0  0  0  0  0  0
   11.5910   -0.9290   22.5510 C   0  0  0  0  0  0  0  0  0  0  0  0
   13.0130   -0.7610   22.5780 C   0  0  0  0  0  0  0  0  0  0  0  0
   13.2180    0.5370   22.7620 C   0  0  0  0  0  0  0  0  0  0  0  0
   11.9430    0.7310   22.7830 C   0  0  0  0  0  0  0  0  0  0  0  0
   11.0320    1.6660   22.8990 C   0  0  0  0  0  0  0  0  0  0  0  0
   12.0210    2.8630   23.0610 C   0  0  0  0  0  0  0  0  0  0  0  0
   13.1740    2.7910   22.7020 O   0  0  0  0  0  0  0  0  0  0  0  0
   11.5300    4.0300   23.6690 N   0  0  0  0  0  0  0  0  0  0  0  0
   11.2940    5.3070   23.0020 C   0  0  0  0  0  0  0  0  0  0  0  0
    9.8570    5.7770   23.2940 C   0  0  0  0  0  0  0  0  0  0  0  0
    9.6830    7.1290   23.9200 C   0  0  0  0  0  0  0  0  0  0  0  0
    8.7580    8.0620   23.4930 C   0  0  0  0  0  0  0  0  0  0  0  0
    8.8610    9.1730   24.2800 N   0  0  0  0  0  0  0  0  0  0  0  0
    9.8440    8.9930   25.2250 C   0  0  0  0  0  0  0  0  0  0  0  0
   10.2800    9.8730   26.2250 C   0  0  0  0  0  0  0  0  0  0  0  0
   11.3020    9.4330   27.0640 C   0  0  0  0  0  0  0  0  0  0  0  0
   11.8570    8.1740   26.9050 C   0  0  0  0  0  0  0  0  0  0  0  0
   12.8280    7.8030   27.7440 F   0  0  0  0  0  0  0  0  0  0  0  0
   11.4270    7.2950   25.9020 C   0  0  0  0  0  0  0  0  0  0  0  0
   10.3870    7.7160   25.0340 C   0  0  0  0  0  0  0  0  0  0  0  0
  1  2  2  0
  2  3  1  0
  3  4  1  0
  4  5  2  0
  5  6  1  0
  6  7  2  0
  7  8  1  0
  4  9  1  0
  8  9  2  0
  2 10  1  0
 10 11  1  0
 11 12  2  0
 12 13  1  0
 13 14  2  0
 14 15  1  0
 11 16  1  0
 15 16  2  0
 16 17  1  0
 17 18  2  0
 17 19  1  0
 19 20  1  0
 20 21  1  0
 21 22  1  0
 22 23  2  0
 23 24  1  0
 24 25  1  0
 25 26  1  0
 26 27  2  0
 27 28  1  0
 28 29  1  0
 28 30  2  0
 22 31  1  0
 25 31  2  0
 30 31  1  0
M  END
