MAK-UNK-9e4a73aa-31
     RDKit          3D

 27 30  0  0  0  0  0  0  0  0999 V2000
    6.0180   -2.9240   20.0360 C   0  0  0  0  0  0  0  0  0  0  0  0
    6.9300   -2.7230   21.0360 C   0  0  0  0  0  0  0  0  0  0  0  0
    8.0270   -1.7770   20.8340 C   0  0  0  0  0  0  0  0  0  0  0  0
    9.0650   -1.5680   21.9400 C   0  0  0  0  0  0  0  0  0  0  0  0
    8.9880   -2.2360   23.0980 N   0  0  0  0  0  0  0  0  0  0  0  0
    7.9440   -3.0990   23.2490 C   0  0  0  0  0  0  0  0  0  0  0  0
    6.9320   -3.3690   22.3070 C   0  0  0  0  0  0  0  0  0  0  0  0
    5.9220   -4.2840   22.6870 N   0  0  0  0  0  0  0  0  0  0  0  0
    5.9890   -5.5480   23.2500 C   0  0  0  0  0  0  0  0  0  0  0  0
    6.9980   -6.2550   23.2220 O   0  0  0  0  0  0  0  0  0  0  0  0
    4.5890   -5.8660   23.8810 C   0  0  0  0  0  0  0  0  0  0  0  0
    4.2760   -7.2850   24.1960 C   0  0  0  0  0  0  0  0  0  0  0  0
    2.9360   -7.6000   24.8050 C   0  0  0  0  0  0  0  0  0  0  0  0
    2.6100   -8.8600   25.1040 F   0  0  0  0  0  0  0  0  0  0  0  0
    2.0520   -6.5400   25.0410 C   0  0  0  0  0  0  0  0  0  0  0  0
    0.5070   -6.8530   25.7340 Cl  0  0  0  0  0  0  0  0  0  0  0  0
    2.3900   -5.2120   24.7230 C   0  0  0  0  0  0  0  0  0  0  0  0
    3.6350   -4.8770   24.1520 C   0  0  0  0  0  0  0  0  0  0  0  0
    3.9880   -3.6530   23.8270 N   0  0  0  0  0  0  0  0  0  0  0  0
    4.3070   -2.8130   24.8330 C   0  0  0  0  0  0  0  0  0  0  0  0
    5.7280   -2.6170   25.3080 C   0  0  0  0  0  0  0  0  0  0  0  0
    6.0460   -1.7370   26.3540 C   0  0  0  0  0  0  0  0  0  0  0  0
    5.0340   -1.0140   26.9860 C   0  0  0  0  0  0  0  0  0  0  0  0
    3.5900   -1.2080   26.5120 C   0  0  0  0  0  0  0  0  0  0  0  0
    3.3020   -2.0840   25.4750 C   0  0  0  0  0  0  0  0  0  0  0  0
    4.7250   -3.6220   22.6990 C   0  0  0  0  0  0  0  0  0  0  0  0
    4.4110   -3.0970   21.6870 O   0  0  0  0  0  0  0  0  0  0  0  0
  1  2  1  0
  2  3  2  0
  3  4  1  0
  4  5  2  0
  5  6  1  0
  2  7  1  0
  6  7  2  0
  7  8  1  0
  8  9  1  0
  9 10  2  0
  9 11  1  0
 11 12  2  0
 12 13  1  0
 13 14  1  0
 13 15  2  0
 15 16  1  0
 15 17  1  0
 11 18  1  0
 17 18  2  0
 18 19  1  0
 19 20  1  0
 20 21  2  0
 21 22  1  0
 22 23  2  0
 23 24  1  0
 20 25  1  0
 24 25  2  0
  8 26  1  0
 19 26  1  0
 26 27  2  0
M  END
