MAK-UNK-2084232d-3
     RDKit          3D

 22 24  0  0  0  0  0  0  0  0999 V2000
    5.7420   -2.4860   19.7080 C   0  0  0  0  0  0  0  0  0  0  0  0
    5.7090   -3.7560   20.4120 N   0  0  0  0  0  0  0  0  0  0  0  0
    5.9010   -3.9250   21.7590 C   0  0  1  0  0  0  0  0  0  0  0  0
    6.2670   -5.3450   21.9640 C   0  0  0  0  0  0  0  0  0  0  0  0
    7.0200   -5.5970   23.2810 C   0  0  0  0  0  0  0  0  0  0  0  0
    7.6420   -4.4540   23.7350 C   0  0  0  0  0  0  0  0  0  0  0  0
    8.0780   -3.5290   22.8020 C   0  0  2  0  0  0  0  0  0  0  0  0
    9.2180   -2.6630   23.0240 C   0  0  1  0  0  0  0  0  0  0  0  0
    9.0240   -1.6030   24.0160 C   0  0  0  0  0  0  0  0  0  0  0  0
   10.4620   -1.8180   24.0570 C   0  0  0  0  0  0  0  0  0  0  0  0
   11.4510   -1.5920   24.9720 C   0  0  0  0  0  0  0  0  0  0  0  0
   12.8140   -1.7560   25.1400 C   0  0  0  0  0  0  0  0  0  0  0  0
   13.3800   -2.3150   24.0740 C   0  0  0  0  0  0  0  0  0  0  0  0
   12.5870   -2.6280   22.9870 C   0  0  0  0  0  0  0  0  0  0  0  0
   13.1840   -3.1700   21.8840 O   0  0  0  0  0  0  0  0  0  0  0  0
   11.1640   -2.3940   22.9720 C   0  0  0  0  0  0  0  0  0  0  0  0
   10.5760   -2.8130   21.7190 O   0  0  0  0  0  0  0  0  0  0  0  0
   11.5230   -2.1930   23.6760 C   0  0  2  0  0  0  0  0  0  0  0  0
   11.6460   -1.1870   22.6610 C   0  0  0  0  0  0  0  0  0  0  0  0
   11.0390    0.1120   23.0290 N   0  0  0  0  0  0  0  0  0  0  0  0
   10.4400   -3.0160   23.4670 O   0  0  0  0  0  0  0  0  0  0  0  0
    6.9510   -2.9070   22.3120 C   0  0  0  0  0  0  0  0  0  0  0  0
  1  2  1  0
  3  2  1  6
  3  4  1  0
  4  5  1  0
  5  6  1  0
  7  6  1  1
  7  8  1  0
  8  9  1  1
  9 10  1  0
 10 11  2  0
 11 12  1  0
 12 13  2  0
 13 14  1  0
 14 15  1  0
 10 16  1  0
 14 16  2  0
 16 17  1  0
 11 18  1  0
 18 19  1  6
 19 20  1  0
  8 21  1  0
 18 21  1  0
  3 22  1  0
  7 22  1  0
M  END
