MAK-UNK-9a6be56d-21
     RDKit          3D

 38 42  0  0  0  0  0  0  0  0999 V2000
    6.4680    0.2150   32.0740 C   0  0  0  0  0  0  0  0  0  0  0  0
    6.8330   -0.0660   30.7650 N   0  0  0  0  0  0  0  0  0  0  0  0
    5.7150   -0.6050   29.9990 C   0  0  0  0  0  0  0  0  0  0  0  0
    6.3040   -1.4580   28.8580 C   0  0  0  0  0  0  0  0  0  0  0  0
    6.6490   -0.8670   27.6710 C   0  0  0  0  0  0  0  0  0  0  0  0
    7.1610   -1.6910   26.7140 C   0  0  0  0  0  0  0  0  0  0  0  0
    7.5700   -1.3120   25.4480 C   0  0  0  0  0  0  0  0  0  0  0  0
    6.6650   -1.3060   24.3980 C   0  0  0  0  0  0  0  0  0  0  0  0
    7.0600   -0.9330   23.1200 C   0  0  0  0  0  0  0  0  0  0  0  0
    8.4760   -0.5270   22.8190 C   0  0  0  0  0  0  0  0  0  0  0  0
    9.3570   -0.5490   23.9130 C   0  0  0  0  0  0  0  0  0  0  0  0
   10.6020   -0.2240   23.7620 N   0  0  0  0  0  0  0  0  0  0  0  0
   11.0910   -1.1320   22.8370 C   0  0  0  0  0  0  0  0  0  0  0  0
   12.4590   -1.1820   22.5140 C   0  0  0  0  0  0  0  0  0  0  0  0
   13.1800   -0.0270   22.8980 C   0  0  0  0  0  0  0  0  0  0  0  0
   12.4550    1.1570   23.0840 C   0  0  0  0  0  0  0  0  0  0  0  0
   13.0110    2.4490   22.8400 C   0  0  0  0  0  0  0  0  0  0  0  0
   12.2850    3.6440   23.0040 C   0  0  0  0  0  0  0  0  0  0  0  0
   10.9020    3.5570   23.4550 C   0  0  0  0  0  0  0  0  0  0  0  0
    9.8680    4.9870   23.7000 S   0  0  0  0  0  0  0  0  0  0  0  0
   11.0130    6.2210   23.5280 N   0  0  0  0  0  0  0  0  0  0  0  0
    9.3480    5.1020   25.0470 O   0  0  0  0  0  0  0  0  0  0  0  0
    8.9790    5.1010   22.5790 O   0  0  0  0  0  0  0  0  0  0  0  0
   10.6540    2.1530   23.6170 C   0  0  0  0  0  0  0  0  0  0  0  0
   11.1470    1.0800   23.5180 C   0  0  0  0  0  0  0  0  0  0  0  0
    8.8950   -0.9320   25.1910 C   0  0  0  0  0  0  0  0  0  0  0  0
    9.7640   -0.9340   26.2110 F   0  0  0  0  0  0  0  0  0  0  0  0
    7.1400   -2.9920   27.3960 N   0  0  0  0  0  0  0  0  0  0  0  0
    7.6380   -4.5350   26.8340 S   0  0  0  0  0  0  0  0  0  0  0  0
    7.7760   -4.4530   25.3920 O   0  0  0  0  0  0  0  0  0  0  0  0
    8.7220   -4.9170   27.7190 O   0  0  0  0  0  0  0  0  0  0  0  0
    6.2720   -5.5840   27.1740 C   0  0  0  0  0  0  0  0  0  0  0  0
    6.2140   -6.3360   28.3440 C   0  0  0  0  0  0  0  0  0  0  0  0
    4.9850   -7.2250   28.5550 C   0  0  0  0  0  0  0  0  0  0  0  0
    4.0190   -7.2090   27.5580 C   0  0  0  0  0  0  0  0  0  0  0  0
    4.1210   -6.4530   26.4310 N   0  0  0  0  0  0  0  0  0  0  0  0
    5.2260   -5.6670   26.2610 C   0  0  0  0  0  0  0  0  0  0  0  0
    6.6170   -2.8140   28.6790 C   0  0  0  0  0  0  0  0  0  0  0  0
  1  2  1  0
  2  3  1  0
  3  4  1  0
  4  5  1  0
  5  6  2  0
  6  7  1  0
  7  8  2  0
  8  9  1  0
  9 10  2  0
 10 11  1  0
 11 12  1  0
 12 13  1  0
 13 14  1  0
 14 15  1  0
 15 16  1  0
 16 17  2  0
 17 18  1  0
 18 19  2  0
 19 20  1  0
 20 21  1  0
 20 22  2  0
 20 23  2  0
 19 24  1  0
 12 25  1  0
 16 25  1  0
 24 25  2  0
  7 26  1  0
 11 26  2  0
 26 27  1  0
  6 28  1  0
 28 29  1  0
 29 30  2  0
 29 31  2  0
 29 32  1  0
 32 33  2  0
 33 34  1  0
 34 35  2  0
 35 36  1  0
 32 37  1  0
 36 37  2  0
  4 38  2  0
 28 38  1  0
M  END
