MAK-UNK-702fb7d3-20
     RDKit          3D

 43 48  0  0  0  0  0  0  0  0999 V2000
    9.1060    0.0980   26.7900 C   0  0  0  0  0  0  0  0  0  0  0  0
    9.4140    0.0500   25.4360 N   0  0  0  0  0  0  0  0  0  0  0  0
    8.1840   -0.1610   24.6750 C   0  0  2  0  0  0  0  0  0  0  0  0
    7.0550   -0.8940   25.8610 Cl  0  0  0  0  0  0  0  0  0  0  0  0
    8.4650   -1.0240   23.4000 C   0  0  0  0  0  0  0  0  0  0  0  0
    8.4880   -0.5030   22.2750 O   0  0  0  0  0  0  0  0  0  0  0  0
    8.6840   -2.3250   23.4800 N   0  0  0  0  0  0  0  0  0  0  0  0
    8.0830   -3.1690   22.6700 C   0  0  0  0  0  0  0  0  0  0  0  0
    7.2530   -4.1990   23.1720 C   0  0  0  0  0  0  0  0  0  0  0  0
    6.8770   -5.2490   22.3400 C   0  0  0  0  0  0  0  0  0  0  0  0
    6.0480   -6.2650   22.7240 C   0  0  0  0  0  0  0  0  0  0  0  0
    5.5480   -6.2610   24.0120 C   0  0  0  0  0  0  0  0  0  0  0  0
    5.9140   -5.1740   24.9910 C   0  0  0  0  0  0  0  0  0  0  0  0
    6.7690   -4.1870   24.4800 C   0  0  0  0  0  0  0  0  0  0  0  0
    7.1590   -3.1340   25.2110 C   0  0  2  0  0  0  0  0  0  0  0  0
    6.2590   -2.0930   24.9250 C   0  0  0  0  0  0  0  0  0  0  0  0
    5.4600   -1.6330   25.9920 C   0  0  0  0  0  0  0  0  0  0  0  0
    4.5290   -0.6040   25.8270 C   0  0  0  0  0  0  0  0  0  0  0  0
    4.3360    0.0270   24.5960 C   0  0  0  0  0  0  0  0  0  0  0  0
    5.1170   -0.4210   23.5250 C   0  0  0  0  0  0  0  0  0  0  0  0
    6.1140   -1.5120   23.6560 C   0  0  0  0  0  0  0  0  0  0  0  0
    8.6090   -2.7880   24.7340 C   0  0  0  0  0  0  0  0  0  0  0  0
    7.7080    1.2090   24.3640 C   0  0  0  0  0  0  0  0  0  0  0  0
    6.7640    2.0540   24.9550 C   0  0  0  0  0  0  0  0  0  0  0  0
    6.7070    3.2760   24.3000 C   0  0  0  0  0  0  0  0  0  0  0  0
    5.8700    4.3420   24.6490 C   0  0  0  0  0  0  0  0  0  0  0  0
    4.9800    5.0060   23.5910 C   0  0  0  0  0  0  0  0  0  0  0  0
    4.1600    6.0630   23.9660 C   0  0  0  0  0  0  0  0  0  0  0  0
    4.1510    6.5090   25.2880 C   0  0  0  0  0  0  0  0  0  0  0  0
    4.9590    5.9120   26.2670 C   0  0  0  0  0  0  0  0  0  0  0  0
    5.8060    4.8450   25.9530 C   0  0  0  0  0  0  0  0  0  0  0  0
    6.5540    4.3180   26.9350 F   0  0  0  0  0  0  0  0  0  0  0  0
    7.6430    3.1340   23.3010 N   0  0  0  0  0  0  0  0  0  0  0  0
    8.2190    4.1150   22.0900 S   0  0  0  0  0  0  0  0  0  0  0  0
    8.1650    3.1440   21.0110 O   0  0  0  0  0  0  0  0  0  0  0  0
    7.4710    5.3590   22.1180 O   0  0  0  0  0  0  0  0  0  0  0  0
    9.9580    4.3470   22.4210 C   0  0  0  0  0  0  0  0  0  0  0  0
   10.5430    5.6230   22.6000 C   0  0  0  0  0  0  0  0  0  0  0  0
   11.9210    5.7140   22.8240 C   0  0  0  0  0  0  0  0  0  0  0  0
   12.6610    4.5400   22.8620 C   0  0  0  0  0  0  0  0  0  0  0  0
   12.1160    3.3140   22.6950 N   0  0  0  0  0  0  0  0  0  0  0  0
   10.7860    3.2380   22.4770 C   0  0  0  0  0  0  0  0  0  0  0  0
    8.2110    1.9180   23.3320 C   0  0  0  0  0  0  0  0  0  0  0  0
  1  2  1  0
  3  2  1  1
  3  4  1  0
  3  5  1  0
  5  6  2  0
  5  7  1  0
  7  8  1  0
  8  9  1  0
  9 10  2  0
 10 11  1  0
 11 12  2  0
 12 13  1  0
  9 14  1  0
 13 14  2  0
 14 15  1  0
 15 16  1  6
 16 17  2  0
 17 18  1  0
 18 19  2  0
 19 20  1  0
 16 21  1  0
 20 21  2  0
  7 22  1  0
 15 22  1  0
  3 23  1  0
 23 24  1  0
 24 25  2  0
 25 26  1  0
 26 27  2  0
 27 28  1  0
 28 29  2  0
 29 30  1  0
 26 31  1  0
 30 31  2  0
 31 32  1  0
 25 33  1  0
 33 34  1  0
 34 35  2  0
 34 36  2  0
 34 37  1  0
 37 38  2  0
 38 39  1  0
 39 40  2  0
 40 41  1  0
 37 42  1  0
 41 42  2  0
 23 43  2  0
 33 43  1  0
M  END
