MAK-UNK-0d6072ac-2
     RDKit          3D

 19 21  0  0  0  0  0  0  0  0999 V2000
    7.4390    0.8390   20.5600 C   0  0  0  0  0  0  0  0  0  0  0  0
    8.0220    1.3150   21.9200 C   0  0  2  0  0  0  0  0  0  0  0  0
    7.9530    2.8490   22.0250 C   0  0  0  0  0  0  0  0  0  0  0  0
    8.9620    3.5230   22.2600 O   0  0  0  0  0  0  0  0  0  0  0  0
    6.7350    3.4540   21.8780 O   0  0  0  0  0  0  0  0  0  0  0  0
    9.0940    0.6680   22.4480 C   0  0  0  0  0  0  0  0  0  0  0  0
   10.3770    1.1720   22.7710 C   0  0  0  0  0  0  0  0  0  0  0  0
   11.3760    0.4560   23.3350 C   0  0  0  0  0  0  0  0  0  0  0  0
   11.1290   -0.8130   23.6090 C   0  0  0  0  0  0  0  0  0  0  0  0
    9.9920   -1.4820   23.3370 C   0  0  0  0  0  0  0  0  0  0  0  0
    8.8990   -0.8080   22.7480 C   0  0  0  0  0  0  0  0  0  0  0  0
   10.0610   -2.8740   23.7150 C   0  0  0  0  0  0  0  0  0  0  0  0
   11.2940   -2.7200   24.2640 C   0  0  0  0  0  0  0  0  0  0  0  0
   11.7870   -3.7010   24.8310 C   0  0  0  0  0  0  0  0  0  0  0  0
   13.0100   -3.5190   25.4030 C   0  0  0  0  0  0  0  0  0  0  0  0
   13.6290   -2.4060   25.3970 C   0  0  0  0  0  0  0  0  0  0  0  0
   14.9410   -2.5270   26.2750 Cl  0  0  0  0  0  0  0  0  0  0  0  0
   13.1670   -1.3450   24.7730 C   0  0  0  0  0  0  0  0  0  0  0  0
   12.0050   -1.5850   24.2520 C   0  0  0  0  0  0  0  0  0  0  0  0
  2  1  1  6
  2  3  1  0
  3  4  2  0
  3  5  1  0
  2  6  1  0
  6  7  2  0
  7  8  1  0
  8  9  2  0
  9 10  1  0
  6 11  1  0
 10 11  2  0
 10 12  1  0
 12 13  1  0
 13 14  1  0
 14 15  2  0
 15 16  1  0
 16 17  1  0
 16 18  2  0
  9 19  1  0
 13 19  2  0
 18 19  1  0
M  END
