MAK-UNK-902cc841-10
     RDKit          3D

 34 37  0  0  0  0  0  0  0  0999 V2000
    6.0390   -1.9530   18.4360 C   0  0  0  0  0  0  0  0  0  0  0  0
    5.7080   -2.7010   19.6610 C   0  0  0  0  0  0  0  0  0  0  0  0
    5.3400   -3.8860   19.5910 O   0  0  0  0  0  0  0  0  0  0  0  0
    5.8300   -2.0980   20.7890 N   0  0  0  0  0  0  0  0  0  0  0  0
    5.7490   -2.9910   21.8460 C   0  0  0  0  0  0  0  0  0  0  0  0
    6.9110   -2.9390   22.7920 C   0  0  0  0  0  0  0  0  0  0  0  0
    7.4550   -1.5880   22.9640 N   0  0  0  0  0  0  0  0  0  0  0  0
    8.5360   -1.5820   23.9020 C   0  0  1  0  0  0  0  0  0  0  0  0
    9.1600   -2.8970   23.7400 C   0  0  0  0  0  0  0  0  0  0  0  0
    8.3580   -4.0250   24.0850 O   0  0  0  0  0  0  0  0  0  0  0  0
   10.4220   -2.9230   23.2460 N   0  0  0  0  0  0  0  0  0  0  0  0
   10.8110   -2.2210   22.1700 C   0  0  0  0  0  0  0  0  0  0  0  0
   11.4220   -0.8630   22.4330 C   0  0  0  0  0  0  0  0  0  0  0  0
   11.7070   -0.6600   23.7670 N   0  0  0  0  0  0  0  0  0  0  0  0
   13.3290   -0.5460   24.0110 S   0  0  0  0  0  0  0  0  0  0  0  0
   13.6210    0.7830   23.5870 O   0  0  0  0  0  0  0  0  0  0  0  0
   13.7350   -1.2650   25.1980 O   0  0  0  0  0  0  0  0  0  0  0  0
   13.5860   -1.5340   22.8010 C   0  0  0  0  0  0  0  0  0  0  0  0
   13.6330   -2.9100   23.0430 C   0  0  0  0  0  0  0  0  0  0  0  0
   13.5060   -3.3880   24.2780 F   0  0  0  0  0  0  0  0  0  0  0  0
   13.8510   -3.5760   21.7510 C   0  0  0  0  0  0  0  0  0  0  0  0
   13.9650   -2.9920   20.6290 C   0  0  0  0  0  0  0  0  0  0  0  0
   13.9400   -1.6970   20.5460 C   0  0  0  0  0  0  0  0  0  0  0  0
   13.7380   -0.9940   21.6630 C   0  0  0  0  0  0  0  0  0  0  0  0
   13.6930    0.2490   21.6840 F   0  0  0  0  0  0  0  0  0  0  0  0
   11.2850   -1.7240   24.7100 C   0  0  0  0  0  0  0  0  0  0  0  0
   11.3950   -2.9210   24.1370 C   0  0  0  0  0  0  0  0  0  0  0  0
    9.3750   -0.5430   23.5530 C   0  0  0  0  0  0  0  0  0  0  0  0
   10.8220   -0.7320   23.1530 C   0  0  0  0  0  0  0  0  0  0  0  0
   11.4640    0.5760   22.8370 C   0  0  0  0  0  0  0  0  0  0  0  0
   10.3770    1.8670   23.0170 S   0  0  0  0  0  0  0  0  0  0  0  0
    9.0850    0.8210   23.4960 C   0  0  0  0  0  0  0  0  0  0  0  0
    7.8580   -1.1310   21.7250 C   0  0  0  0  0  0  0  0  0  0  0  0
    6.6360   -0.8620   20.9110 C   0  0  0  0  0  0  0  0  0  0  0  0
  1  2  1  0
  2  3  2  0
  2  4  1  0
  4  5  1  0
  5  6  1  0
  6  7  1  0
  7  8  1  0
  8  9  1  6
  9 10  2  0
  9 11  1  0
 11 12  1  0
 12 13  1  0
 13 14  1  0
 14 15  1  0
 15 16  2  0
 15 17  2  0
 15 18  1  0
 18 19  2  0
 19 20  1  0
 19 21  1  0
 21 22  2  0
 22 23  1  0
 18 24  1  0
 23 24  2  0
 24 25  1  0
 14 26  1  0
 11 27  1  0
 26 27  1  0
  8 28  1  0
 28 29  1  0
 29 30  2  0
 30 31  1  0
 28 32  2  0
 31 32  1  0
  7 33  1  0
  4 34  1  0
 33 34  1  0
M  END
