MAK-UNK-6435e6c2-7
     RDKit          3D

 15 15  0  0  0  0  0  0  0  0999 V2000
    3.6140   -3.6460   23.5080 C   0  0  0  0  0  0  0  0  0  0  0  0
    2.9000   -2.8130   24.4240 O   0  0  0  0  0  0  0  0  0  0  0  0
    2.9980   -3.1200   25.7660 C   0  0  0  0  0  0  0  0  0  0  0  0
    2.5650   -2.4000   26.6790 O   0  0  0  0  0  0  0  0  0  0  0  0
    3.6680   -4.4410   26.0590 C   0  0  0  0  0  0  0  0  0  0  0  0
    2.3130   -4.3000   25.9130 C   0  0  0  0  0  0  0  0  0  0  0  0
    1.9700   -2.9620   25.6690 C   0  0  0  0  0  0  0  0  0  0  0  0
    3.0170   -1.9610   25.6030 C   0  0  0  0  0  0  0  0  0  0  0  0
    4.4030   -2.2980   25.7710 C   0  0  0  0  0  0  0  0  0  0  0  0
    5.3500   -1.1930   25.6660 N   0  0  0  0  0  0  0  0  0  0  0  0
    6.2270   -1.0220   24.2290 S   0  0  0  0  0  0  0  0  0  0  0  0
    4.9940   -1.2330   23.0580 C   0  0  0  0  0  0  0  0  0  0  0  0
    7.1570   -2.1290   24.1390 O   0  0  0  0  0  0  0  0  0  0  0  0
    6.6870    0.3470   24.1410 O   0  0  0  0  0  0  0  0  0  0  0  0
    4.7590   -3.6330   26.0200 C   0  0  0  0  0  0  0  0  0  0  0  0
  1  2  1  0
  2  3  1  0
  3  4  2  0
  3  5  1  0
  5  6  2  0
  6  7  1  0
  7  8  2  0
  8  9  1  0
  9 10  1  0
 11 10  1  0
 11 12  1  0
 11 13  2  0
 11 14  2  0
  5 15  1  0
  9 15  2  0
M  END
