MAK-UNK-de9577cf-20
     RDKit          3D

 37 40  0  0  0  0  0  0  0  0999 V2000
   15.1070   -8.0620   27.0720 C   0  0  0  0  0  0  0  0  0  0  0  0
   14.8340   -6.8080   26.8060 N   0  0  0  0  0  0  0  0  0  0  0  0
   15.3260   -5.7830   27.4570 C   0  0  0  0  0  0  0  0  0  0  0  0
   14.5360   -4.7800   26.8570 C   0  0  0  0  0  0  0  0  0  0  0  0
   15.0390   -3.5790   26.4600 C   0  0  0  0  0  0  0  0  0  0  0  0
   14.5970   -2.6220   25.9190 C   0  0  0  0  0  0  0  0  0  0  0  0
   16.1330   -1.9990   26.0310 C   0  0  0  0  0  0  0  0  0  0  0  0
   16.0760   -1.3010   26.9560 C   0  0  0  0  0  0  0  0  0  0  0  0
   17.0830   -0.5060   27.6070 C   0  0  0  0  0  0  0  0  0  0  0  0
   18.5840   -0.4210   27.2110 C   0  0  0  0  0  0  0  0  0  0  0  0
   18.8150   -1.2600   25.9920 C   0  0  0  0  0  0  0  0  0  0  0  0
   17.6910   -1.9010   25.5280 C   0  0  0  0  0  0  0  0  0  0  0  0
   18.2680   -2.4090   24.4720 F   0  0  0  0  0  0  0  0  0  0  0  0
   13.1910   -3.1930   25.8170 N   0  0  0  0  0  0  0  0  0  0  0  0
   11.4570   -3.4040   25.4710 S   0  0  0  0  0  0  0  0  0  0  0  0
   10.5400   -3.1640   26.5240 O   0  0  0  0  0  0  0  0  0  0  0  0
   11.3210   -4.7440   25.1240 O   0  0  0  0  0  0  0  0  0  0  0  0
   11.3010   -2.4430   24.1840 C   0  0  0  0  0  0  0  0  0  0  0  0
   10.3940   -2.4220   23.1450 C   0  0  0  0  0  0  0  0  0  0  0  0
   10.5670   -1.4600   22.1950 C   0  0  0  0  0  0  0  0  0  0  0  0
   11.6280   -0.5880   22.3540 C   0  0  0  0  0  0  0  0  0  0  0  0
   12.4740   -0.7290   23.4710 C   0  0  0  0  0  0  0  0  0  0  0  0
   13.4980    0.0510   23.7090 O   0  0  0  0  0  0  0  0  0  0  0  0
   13.3790    0.7430   22.6250 C   0  0  0  0  0  0  0  0  0  0  0  0
   13.8590    0.4990   21.5750 O   0  0  0  0  0  0  0  0  0  0  0  0
   12.5170    1.7760   22.9170 C   0  0  0  0  0  0  0  0  0  0  0  0
   11.3230    1.6530   23.6380 C   0  0  0  0  0  0  0  0  0  0  0  0
   10.4850    2.7290   23.9070 C   0  0  0  0  0  0  0  0  0  0  0  0
   10.8350    4.0260   23.4460 C   0  0  0  0  0  0  0  0  0  0  0  0
    9.8450    5.4670   23.7440 S   0  0  0  0  0  0  0  0  0  0  0  0
    8.6840    5.3430   22.5340 N   0  0  0  0  0  0  0  0  0  0  0  0
   10.6870    6.6050   23.4600 O   0  0  0  0  0  0  0  0  0  0  0  0
    9.0910    5.3440   24.9780 O   0  0  0  0  0  0  0  0  0  0  0  0
   12.0060    4.2060   22.7240 C   0  0  0  0  0  0  0  0  0  0  0  0
   12.8480    3.1750   22.4370 C   0  0  0  0  0  0  0  0  0  0  0  0
   12.3150   -1.6230   24.3520 C   0  0  0  0  0  0  0  0  0  0  0  0
   13.2980   -4.5320   26.4390 C   0  0  0  0  0  0  0  0  0  0  0  0
  1  2  1  0
  2  3  1  0
  3  4  1  0
  4  5  1  0
  5  6  2  0
  6  7  1  0
  7  8  2  0
  8  9  1  0
  9 10  2  0
 10 11  1  0
  7 12  1  0
 11 12  2  0
 12 13  1  0
  6 14  1  0
 14 15  1  0
 15 16  2  0
 15 17  2  0
 15 18  1  0
 18 19  2  0
 19 20  1  0
 20 21  2  0
 21 22  1  0
 22 23  1  0
 23 24  1  0
 24 25  2  0
 24 26  1  0
 26 27  2  0
 27 28  1  0
 28 29  2  0
 29 30  1  0
 30 31  1  0
 30 32  2  0
 30 33  2  0
 29 34  1  0
 26 35  1  0
 34 35  2  0
 18 36  1  0
 22 36  2  0
  4 37  2  0
 14 37  1  0
M  END
