MAK-UNK-acefcb18-15
     RDKit          3D

 22 24  0  0  0  0  0  0  0  0999 V2000
    0.6410   -6.8990   23.3660 C   0  0  0  0  0  0  0  0  0  0  0  0
    1.8610   -6.0480   23.5970 C   0  0  0  0  0  0  0  0  0  0  0  0
    3.0210   -6.4980   23.0090 C   0  0  0  0  0  0  0  0  0  0  0  0
    4.3250   -5.7270   23.1560 C   0  0  0  0  0  0  0  0  0  0  0  0
    4.3180   -4.5420   23.9070 C   0  0  0  0  0  0  0  0  0  0  0  0
    5.3860   -3.7090   24.1480 N   0  0  0  0  0  0  0  0  0  0  0  0
    6.4270   -3.9880   23.3070 C   0  0  0  0  0  0  0  0  0  0  0  0
    7.1310   -2.9660   22.9250 N   0  0  0  0  0  0  0  0  0  0  0  0
    6.5350   -1.9010   23.5490 N   0  0  0  0  0  0  0  0  0  0  0  0
    7.2640   -0.7250   23.9780 C   0  0  0  0  0  0  0  0  0  0  0  0
    8.2990   -0.3040   23.1160 C   0  0  2  0  0  0  0  0  0  0  0  0
    7.6630    0.4500   22.0620 O   0  0  0  0  0  0  0  0  0  0  0  0
    9.2070   -1.2120   22.5350 C   0  0  0  0  0  0  0  0  0  0  0  0
   10.6690   -1.0290   22.6570 C   0  0  0  0  0  0  0  0  0  0  0  0
   11.3130    0.1170   23.1100 C   0  0  0  0  0  0  0  0  0  0  0  0
   12.6910    0.1200   23.1490 C   0  0  0  0  0  0  0  0  0  0  0  0
   13.2290   -1.3920   22.5890 S   0  0  0  0  0  0  0  0  0  0  0  0
   11.6330   -1.9550   22.3320 C   0  0  0  0  0  0  0  0  0  0  0  0
    5.3480   -2.3260   24.1700 C   0  0  0  0  0  0  0  0  0  0  0  0
    4.4980   -1.5720   24.6200 O   0  0  0  0  0  0  0  0  0  0  0  0
    3.0780   -4.1590   24.4810 C   0  0  0  0  0  0  0  0  0  0  0  0
    1.8960   -4.8780   24.3370 C   0  0  0  0  0  0  0  0  0  0  0  0
  1  2  1  0
  2  3  2  0
  3  4  1  0
  4  5  2  0
  5  6  1  0
  6  7  1  0
  7  8  2  0
  8  9  1  0
  9 10  1  0
 10 11  1  0
 11 12  1  6
 11 13  1  0
 13 14  1  0
 14 15  1  0
 15 16  2  0
 16 17  1  0
 14 18  2  0
 17 18  1  0
  6 19  1  0
  9 19  1  0
 19 20  2  0
  5 21  1  0
  2 22  1  0
 21 22  2  0
M  END
