MAK-UNK-2084232d-22
     RDKit          3D

 23 25  0  0  0  0  0  0  0  0999 V2000
   13.9280   -2.9600   24.6090 N   0  0  0  0  0  0  0  0  0  0  0  0
   12.8140   -2.5430   23.7240 C   0  0  0  0  0  0  0  0  0  0  0  0
   11.6380   -2.0980   24.2840 C   0  0  2  0  0  0  0  0  0  0  0  0
   10.4510   -3.1520   24.1850 O   0  0  0  0  0  0  0  0  0  0  0  0
    8.9750   -2.7630   24.1540 C   0  0  2  0  0  0  0  0  0  0  0  0
    7.7950   -3.7050   23.6160 C   0  0  2  0  0  0  0  0  0  0  0  0
    7.2880   -4.8380   24.2520 C   0  0  2  0  0  0  0  0  0  0  0  0
    8.2550   -5.6780   24.8460 O   0  0  0  0  0  0  0  0  0  0  0  0
    6.4570   -5.6760   23.4590 C   0  0  0  0  0  0  0  0  0  0  0  0
    5.5790   -5.1360   22.4790 C   0  0  0  0  0  0  0  0  0  0  0  0
    6.0950   -3.8420   21.8320 C   0  0  2  0  0  0  0  0  0  0  0  0
    5.8230   -3.7990   20.4280 O   0  0  0  0  0  0  0  0  0  0  0  0
    7.5550   -3.8420   22.1140 C   0  0  2  0  0  0  0  0  0  0  0  0
    7.8340   -5.1840   21.7380 O   0  0  0  0  0  0  0  0  0  0  0  0
    9.1670   -1.4930   23.4570 C   0  0  0  0  0  0  0  0  0  0  0  0
   10.4550   -1.5620   23.8060 C   0  0  0  0  0  0  0  0  0  0  0  0
   11.4090   -0.7320   23.6290 C   0  0  0  0  0  0  0  0  0  0  0  0
   12.7460   -0.5400   23.8610 C   0  0  0  0  0  0  0  0  0  0  0  0
   13.2940   -1.6070   24.5380 C   0  0  0  0  0  0  0  0  0  0  0  0
   12.3860   -2.7070   24.8890 C   0  0  0  0  0  0  0  0  0  0  0  0
   12.9410   -3.7340   25.5720 O   0  0  0  0  0  0  0  0  0  0  0  0
   11.0170   -2.6750   24.5250 C   0  0  0  0  0  0  0  0  0  0  0  0
   10.3230   -3.7700   24.9220 O   0  0  0  0  0  0  0  0  0  0  0  0
  1  2  1  0
  3  2  1  6
  3  4  1  0
  4  5  1  0
  6  5  1  6
  6  7  1  0
  7  8  1  6
  7  9  1  0
  9 10  1  0
 10 11  1  0
 11 12  1  6
  6 13  1  0
 11 13  1  0
 13 14  1  1
  5 15  1  6
 15 16  1  0
  3 17  1  0
 16 17  2  0
 17 18  1  0
 18 19  2  0
 19 20  1  0
 20 21  1  0
 16 22  1  0
 20 22  2  0
 22 23  1  0
M  END
