MAK-UNK-2c1752f0-1
     RDKit          3D

 17 18  0  0  0  0  0  0  0  0999 V2000
    6.4920    0.4880   28.5030 C   0  0  0  0  0  0  0  0  0  0  0  0
    7.2620   -0.7340   27.9280 C   0  0  0  0  0  0  0  0  0  0  0  0
    7.1200   -0.8900   26.5730 N   0  0  0  0  0  0  0  0  0  0  0  0
    7.5050    0.0830   25.5890 C   0  0  0  0  0  0  0  0  0  0  0  0
    7.2360   -0.3880   24.3610 C   0  0  0  0  0  0  0  0  0  0  0  0
    7.4200    0.1630   23.1000 C   0  0  0  0  0  0  0  0  0  0  0  0
    7.1310   -0.5330   21.9710 N   0  0  0  0  0  0  0  0  0  0  0  0
    8.1770   -1.0080   21.2290 C   0  0  0  0  0  0  0  0  0  0  0  0
    8.5320   -1.3460   22.3530 O   0  0  0  0  0  0  0  0  0  0  0  0
    7.2470   -0.3720   20.1980 C   0  0  0  0  0  0  0  0  0  0  0  0
    6.2450    0.4100   19.9330 C   0  0  0  0  0  0  0  0  0  0  0  0
    5.4000    1.1540   20.4980 C   0  0  0  0  0  0  0  0  0  0  0  0
    5.3910    1.0090   19.0330 C   0  0  0  0  0  0  0  0  0  0  0  0
    6.2760    0.1950   18.1240 N   0  0  0  0  0  0  0  0  0  0  0  0
    7.2650   -0.5490   18.7470 C   0  0  0  0  0  0  0  0  0  0  0  0
    6.6290   -1.7690   24.6030 C   0  0  0  0  0  0  0  0  0  0  0  0
    6.5880   -2.0090   25.9580 N   0  0  0  0  0  0  0  0  0  0  0  0
  1  2  1  0
  2  3  1  0
  3  4  1  0
  4  5  2  0
  5  6  1  0
  6  7  1  0
  7  8  1  0
  8  9  2  0
  8 10  1  0
 10 11  2  0
 11 12  1  0
 12 13  2  0
 13 14  1  0
 10 15  1  0
 14 15  2  0
  5 16  1  0
  3 17  1  0
 16 17  2  0
M  END
