MAK-UNK-1bb0b7ee-9
     RDKit          3D

 24 27  0  0  0  0  0  0  0  0999 V2000
    4.1200   -5.7370   23.5160 C   0  0  0  0  0  0  0  0  0  0  0  0
    3.8110   -4.2590   23.6870 C   0  0  0  0  0  0  0  0  0  0  0  0
    4.6300   -3.0040   23.2820 C   0  0  0  0  0  0  0  0  0  0  0  0
    5.7340   -3.7400   22.7150 C   0  0  0  0  0  0  0  0  0  0  0  0
    6.6820   -2.8950   22.2300 O   0  0  0  0  0  0  0  0  0  0  0  0
    6.2910   -1.8910   21.2820 C   0  0  0  0  0  0  0  0  0  0  0  0
    6.3160   -2.5260   20.0450 C   0  0  0  0  0  0  0  0  0  0  0  0
    5.9860   -1.8330   18.8930 C   0  0  0  0  0  0  0  0  0  0  0  0
    5.6170   -0.4840   18.9700 C   0  0  0  0  0  0  0  0  0  0  0  0
    5.5880    0.2080   20.3190 C   0  0  0  0  0  0  0  0  0  0  0  0
    5.9320   -0.5070   21.4710 C   0  0  0  0  0  0  0  0  0  0  0  0
    5.8820    0.2330   22.6950 C   0  0  0  0  0  0  0  0  0  0  0  0
    6.2910   -0.3680   23.9850 N   0  0  0  0  0  0  0  0  0  0  0  0
    6.9580   -1.5740   23.9250 C   0  0  0  0  0  0  0  0  0  0  0  0
    6.7340   -2.7380   24.5390 N   0  0  0  0  0  0  0  0  0  0  0  0
    7.6480   -3.6110   24.0920 C   0  0  0  0  0  0  0  0  0  0  0  0
    7.8170   -4.9670   24.4090 C   0  0  0  0  0  0  0  0  0  0  0  0
    8.8320   -5.7280   23.8250 C   0  0  0  0  0  0  0  0  0  0  0  0
    9.6660   -5.1210   22.9330 C   0  0  0  0  0  0  0  0  0  0  0  0
    9.5590   -3.7030   22.5540 C   0  0  0  0  0  0  0  0  0  0  0  0
    8.5030   -2.9680   23.1720 C   0  0  0  0  0  0  0  0  0  0  0  0
    8.0700   -1.6770   23.0750 N   0  0  0  0  0  0  0  0  0  0  0  0
    6.0610   -5.0520   22.5450 N   0  0  0  0  0  0  0  0  0  0  0  0
    5.2680   -6.0240   22.9410 C   0  0  0  0  0  0  0  0  0  0  0  0
  1  2  2  0
  2  3  1  0
  3  4  2  0
  4  5  1  0
  5  6  1  0
  6  7  2  0
  7  8  1  0
  8  9  2  0
  9 10  1  0
  6 11  1  0
 10 11  2  0
 11 12  1  0
 12 13  1  0
 13 14  1  0
 14 15  2  0
 15 16  1  0
 16 17  2  0
 17 18  1  0
 18 19  2  0
 19 20  1  0
 16 21  1  0
 20 21  2  0
 14 22  1  0
 21 22  1  0
  4 23  1  0
  1 24  1  0
 23 24  2  0
M  END
