MAK-UNK-8fdbca50-32
     RDKit          3D

 40 43  0  0  0  0  0  0  0  0999 V2000
    6.8240   -0.2850   22.3030 C   0  0  0  0  0  0  0  0  0  0  0  0
    7.8170   -0.5100   21.1980 C   0  0  0  0  0  0  0  0  0  0  0  0
    7.2620   -0.7280   19.9260 C   0  0  0  0  0  0  0  0  0  0  0  0
    8.6760   -1.5560   21.4940 N   0  0  0  0  0  0  0  0  0  0  0  0
    8.2000   -2.6340   22.3450 C   0  0  0  0  0  0  0  0  0  0  0  0
    9.9630   -1.1960   21.7430 C   0  0  0  0  0  0  0  0  0  0  0  0
   10.2540   -0.0220   21.6480 O   0  0  0  0  0  0  0  0  0  0  0  0
   10.9460   -2.0880   22.1820 C   0  0  0  0  0  0  0  0  0  0  0  0
   10.8850   -2.1990   23.5090 C   0  0  0  0  0  0  0  0  0  0  0  0
   10.7950   -0.8190   24.0390 C   0  0  0  0  0  0  0  0  0  0  0  0
   11.6920    0.1540   23.3750 N   0  0  0  0  0  0  0  0  0  0  0  0
   11.4010    1.5100   23.0000 C   0  0  0  0  0  0  0  0  0  0  0  0
   12.3150    2.3200   22.8690 O   0  0  0  0  0  0  0  0  0  0  0  0
   10.0500    1.9170   22.7890 C   0  0  0  0  0  0  0  0  0  0  0  0
    9.5900    3.0950   23.4370 C   0  0  0  0  0  0  0  0  0  0  0  0
   10.2920    4.3620   23.1370 N   0  0  0  0  0  0  0  0  0  0  0  0
   11.1260    4.8300   24.2420 C   0  0  0  0  0  0  0  0  0  0  0  0
   10.5890    5.9960   24.7920 C   0  0  0  0  0  0  0  0  0  0  0  0
   11.3380    7.1100   25.1520 C   0  0  0  0  0  0  0  0  0  0  0  0
   10.5710    8.1200   25.6770 C   0  0  0  0  0  0  0  0  0  0  0  0
   11.0600    9.3540   26.1230 C   0  0  0  0  0  0  0  0  0  0  0  0
   10.6840   10.5140   25.4540 C   0  0  0  0  0  0  0  0  0  0  0  0
   11.1440   11.7590   25.8550 C   0  0  0  0  0  0  0  0  0  0  0  0
   11.9910   11.8590   26.9460 C   0  0  0  0  0  0  0  0  0  0  0  0
   12.3880   10.7220   27.6420 C   0  0  0  0  0  0  0  0  0  0  0  0
   11.9180    9.4660   27.2240 C   0  0  0  0  0  0  0  0  0  0  0  0
   12.3100    8.3780   27.9030 F   0  0  0  0  0  0  0  0  0  0  0  0
    9.2760    7.6170   25.6450 N   0  0  0  0  0  0  0  0  0  0  0  0
    7.8420    8.3990   26.1710 S   0  0  0  0  0  0  0  0  0  0  0  0
    8.2210    9.3050   27.2330 O   0  0  0  0  0  0  0  0  0  0  0  0
    6.8690    7.3440   26.3950 O   0  0  0  0  0  0  0  0  0  0  0  0
    7.2910    9.3250   24.7850 C   0  0  0  0  0  0  0  0  0  0  0  0
    7.6840   10.6510   24.5940 C   0  0  0  0  0  0  0  0  0  0  0  0
    7.2090   11.3310   23.4800 C   0  0  0  0  0  0  0  0  0  0  0  0
    6.3670   10.6660   22.6050 C   0  0  0  0  0  0  0  0  0  0  0  0
    5.9760    9.3840   22.7710 N   0  0  0  0  0  0  0  0  0  0  0  0
    6.4480    8.7340   23.8620 C   0  0  0  0  0  0  0  0  0  0  0  0
    9.2790    6.3310   25.1100 C   0  0  0  0  0  0  0  0  0  0  0  0
   12.8420   -0.4540   22.7300 C   0  0  0  0  0  0  0  0  0  0  0  0
   12.4240   -1.7040   21.9350 C   0  0  0  0  0  0  0  0  0  0  0  0
  1  2  1  0
  2  3  1  0
  2  4  1  0
  4  5  1  0
  4  6  1  0
  6  7  2  0
  6  8  1  0
  8  9  1  0
  9 10  1  0
 10 11  1  0
 11 12  1  0
 12 13  2  0
 12 14  1  0
 14 15  1  0
 15 16  1  0
 16 17  1  0
 17 18  1  0
 18 19  1  0
 19 20  2  0
 20 21  1  0
 21 22  2  0
 22 23  1  0
 23 24  2  0
 24 25  1  0
 21 26  1  0
 25 26  2  0
 26 27  1  0
 20 28  1  0
 28 29  1  0
 29 30  2  0
 29 31  2  0
 29 32  1  0
 32 33  2  0
 33 34  1  0
 34 35  2  0
 35 36  1  0
 32 37  1  0
 36 37  2  0
 18 38  2  0
 28 38  1  0
 11 39  1  0
  8 40  1  0
 39 40  1  0
M  END
