MAK-UNK-5e88aa6a-13
     RDKit          3D

 12 13  0  0  0  0  0  0  0  0999 V2000
   13.2870   -2.4630   22.8870 C   0  0  0  0  0  0  0  0  0  0  0  0
   12.5330   -1.2540   23.1840 C   0  0  0  0  0  0  0  0  0  0  0  0
   11.4250   -1.2770   23.8660 C   0  0  0  0  0  0  0  0  0  0  0  0
   10.6750   -0.0400   24.1490 N   0  0  0  0  0  0  0  0  0  0  0  0
   10.9240    1.4060   23.7820 C   0  0  0  0  0  0  0  0  0  0  0  0
   11.4630    2.7510   23.2510 C   0  0  0  0  0  0  0  0  0  0  0  0
   10.5650    3.9670   23.1780 C   0  0  0  0  0  0  0  0  0  0  0  0
   11.2880    5.1950   22.6260 C   0  0  0  0  0  0  0  0  0  0  0  0
   12.9070    4.7440   22.2740 S   0  0  0  0  0  0  0  0  0  0  0  0
   12.7310    3.0780   22.7870 C   0  0  0  0  0  0  0  0  0  0  0  0
   12.2080    1.2200   23.0310 N   0  0  0  0  0  0  0  0  0  0  0  0
   12.9180   -0.0360   22.7800 C   0  0  0  0  0  0  0  0  0  0  0  0
  1  2  1  0
  2  3  2  0
  3  4  1  0
  4  5  2  0
  5  6  1  0
  6  7  1  0
  7  8  2  0
  8  9  1  0
  6 10  2  0
  9 10  1  0
  5 11  1  0
  2 12  1  0
 11 12  2  0
M  END
