MAK-UNK-9a6be56d-10
     RDKit          3D

 38 42  0  0  0  0  0  0  0  0999 V2000
    7.0900   -0.2390   19.2810 C   0  0  0  0  0  0  0  0  0  0  0  0
    7.1360   -0.6500   20.5760 N   0  0  0  0  0  0  0  0  0  0  0  0
    8.3180   -0.3560   21.2100 C   0  0  0  0  0  0  0  0  0  0  0  0
    8.0770   -0.5750   22.5760 C   0  0  0  0  0  0  0  0  0  0  0  0
    6.7610   -0.8340   23.0750 C   0  0  0  0  0  0  0  0  0  0  0  0
    6.7820   -1.0160   24.4280 N   0  0  0  0  0  0  0  0  0  0  0  0
    5.3080   -1.3430   25.2440 S   0  0  0  0  0  0  0  0  0  0  0  0
    5.5840   -2.3980   26.1990 O   0  0  0  0  0  0  0  0  0  0  0  0
    4.3170   -1.5140   24.1990 O   0  0  0  0  0  0  0  0  0  0  0  0
    4.9890    0.1220   26.1400 C   0  0  0  0  0  0  0  0  0  0  0  0
    5.6790    0.3990   27.3120 C   0  0  0  0  0  0  0  0  0  0  0  0
    5.3950    1.5740   27.9910 C   0  0  0  0  0  0  0  0  0  0  0  0
    4.4290    2.4370   27.4800 C   0  0  0  0  0  0  0  0  0  0  0  0
    3.7230    2.2130   26.3350 N   0  0  0  0  0  0  0  0  0  0  0  0
    4.0380    1.0430   25.7010 C   0  0  0  0  0  0  0  0  0  0  0  0
    8.0950   -0.8840   24.8640 C   0  0  0  0  0  0  0  0  0  0  0  0
    8.2640   -1.0450   26.2320 C   0  0  0  0  0  0  0  0  0  0  0  0
    7.9370   -2.2660   26.8560 C   0  0  0  0  0  0  0  0  0  0  0  0
    8.0640   -2.4430   28.2260 C   0  0  0  0  0  0  0  0  0  0  0  0
    8.5240   -1.4040   29.0090 C   0  0  0  0  0  0  0  0  0  0  0  0
    8.8560   -0.2030   28.4180 C   0  0  0  0  0  0  0  0  0  0  0  0
    8.7330   -0.0050   27.0450 C   0  0  0  0  0  0  0  0  0  0  0  0
    9.0630    1.2020   26.5250 F   0  0  0  0  0  0  0  0  0  0  0  0
    8.9950   -0.5890   23.6600 C   0  0  0  0  0  0  0  0  0  0  0  0
   10.3690   -0.3790   23.5260 N   0  0  0  0  0  0  0  0  0  0  0  0
   11.0430   -1.3500   22.6290 C   0  0  0  0  0  0  0  0  0  0  0  0
   12.4360   -1.2020   22.4230 C   0  0  0  0  0  0  0  0  0  0  0  0
   13.1190   -0.1180   22.9950 C   0  0  0  0  0  0  0  0  0  0  0  0
   12.2710    0.9870   23.0610 C   0  0  0  0  0  0  0  0  0  0  0  0
   12.8760    2.2160   22.8420 C   0  0  0  0  0  0  0  0  0  0  0  0
   12.1410    3.3930   22.8550 C   0  0  0  0  0  0  0  0  0  0  0  0
   10.7840    3.4410   23.0820 C   0  0  0  0  0  0  0  0  0  0  0  0
    9.8820    5.0020   23.0450 S   0  0  0  0  0  0  0  0  0  0  0  0
   10.9720    5.9800   22.2300 N   0  0  0  0  0  0  0  0  0  0  0  0
    9.7440    5.7710   24.2350 O   0  0  0  0  0  0  0  0  0  0  0  0
    8.6990    4.7840   22.2690 O   0  0  0  0  0  0  0  0  0  0  0  0
   10.1180    2.2140   23.3240 C   0  0  0  0  0  0  0  0  0  0  0  0
   10.9170    0.8860   23.3150 C   0  0  0  0  0  0  0  0  0  0  0  0
  1  2  1  0
  2  3  1  0
  3  4  1  0
  4  5  2  0
  5  6  1  0
  6  7  1  0
  7  8  2  0
  7  9  2  0
  7 10  1  0
 10 11  2  0
 11 12  1  0
 12 13  2  0
 13 14  1  0
 10 15  1  0
 14 15  2  0
  6 16  1  0
 16 17  1  0
 17 18  2  0
 18 19  1  0
 19 20  2  0
 20 21  1  0
 17 22  1  0
 21 22  2  0
 22 23  1  0
  4 24  1  0
 16 24  2  0
 24 25  1  0
 25 26  1  0
 26 27  1  0
 27 28  1  0
 28 29  1  0
 29 30  2  0
 30 31  1  0
 31 32  2  0
 32 33  1  0
 33 34  1  0
 33 35  2  0
 33 36  2  0
 32 37  1  0
 25 38  1  0
 29 38  1  0
 37 38  2  0
M  END
