MAK-UNK-9e4a73aa-14
     RDKit          3D

 26 29  0  0  0  0  0  0  0  0999 V2000
    7.7310   -2.5550   25.2580 O   0  0  0  0  0  0  0  0  0  0  0  0
    8.0350   -1.6940   24.4610 C   0  0  0  0  0  0  0  0  0  0  0  0
    9.4330   -1.3460   23.9270 C   0  0  0  0  0  0  0  0  0  0  0  0
   10.6320   -2.2440   24.1950 C   0  0  0  0  0  0  0  0  0  0  0  0
   11.8080   -1.7460   23.6850 C   0  0  0  0  0  0  0  0  0  0  0  0
   12.9330   -2.4440   23.8710 F   0  0  0  0  0  0  0  0  0  0  0  0
   11.8470   -0.5380   22.9930 C   0  0  0  0  0  0  0  0  0  0  0  0
   13.3720   -0.0650   22.4680 Cl  0  0  0  0  0  0  0  0  0  0  0  0
   10.7420    0.2840   22.7130 C   0  0  0  0  0  0  0  0  0  0  0  0
    9.4910   -0.0800   23.1520 C   0  0  0  0  0  0  0  0  0  0  0  0
    8.2990    0.7360   22.8790 N   0  0  0  0  0  0  0  0  0  0  0  0
    7.7360    0.6250   21.5150 C   0  0  0  0  0  0  0  0  0  0  0  0
    6.9000    1.7840   21.0320 C   0  0  0  0  0  0  0  0  0  0  0  0
    6.3410    1.6740   19.7620 C   0  0  0  0  0  0  0  0  0  0  0  0
    6.5390    0.5550   18.9580 C   0  0  0  0  0  0  0  0  0  0  0  0
    7.3170   -0.5200   19.4100 C   0  0  0  0  0  0  0  0  0  0  0  0
    7.9150   -0.4880   20.6840 C   0  0  0  0  0  0  0  0  0  0  0  0
    7.2090    0.4510   23.7730 C   0  0  0  0  0  0  0  0  0  0  0  0
    6.5040    1.3010   24.3240 O   0  0  0  0  0  0  0  0  0  0  0  0
    7.0820   -0.9490   23.9050 N   0  0  0  0  0  0  0  0  0  0  0  0
    6.7370   -1.8390   22.8550 C   0  0  0  0  0  0  0  0  0  0  0  0
    6.0220   -1.4850   21.7460 C   0  0  0  0  0  0  0  0  0  0  0  0
    5.6620   -2.3560   20.7770 N   0  0  0  0  0  0  0  0  0  0  0  0
    6.0670   -3.7290   20.9630 C   0  0  0  0  0  0  0  0  0  0  0  0
    6.8520   -4.0170   22.1630 C   0  0  0  0  0  0  0  0  0  0  0  0
    7.1660   -3.0920   23.0630 N   0  0  0  0  0  0  0  0  0  0  0  0
  1  2  2  0
  2  3  1  0
  3  4  2  0
  4  5  1  0
  5  6  1  0
  5  7  2  0
  7  8  1  0
  7  9  1  0
  3 10  1  0
  9 10  2  0
 10 11  1  0
 11 12  1  0
 12 13  2  0
 13 14  1  0
 14 15  2  0
 15 16  1  0
 12 17  1  0
 16 17  2  0
 11 18  1  0
 18 19  2  0
  2 20  1  0
 18 20  1  0
 20 21  1  0
 21 22  2  0
 22 23  1  0
 23 24  2  0
 24 25  1  0
 21 26  1  0
 25 26  2  0
M  END
