MAK-UNK-1bb0b7ee-7
     RDKit          3D

 21 21  0  0  0  0  0  0  0  0999 V2000
    9.3740   -6.2810   18.8520 C   0  0  0  0  0  0  0  0  0  0  0  0
    8.3770   -7.0290   18.2780 C   0  0  0  0  0  0  0  0  0  0  0  0
    8.9630   -7.9320   17.7090 O   0  0  0  0  0  0  0  0  0  0  0  0
    6.8980   -6.7320   18.4210 N   0  0  0  0  0  0  0  0  0  0  0  0
    5.5220   -7.5070   17.8750 C   0  0  2  0  0  0  0  0  0  0  0  0
    5.0190   -7.8310   16.2480 C   0  0  0  0  0  0  0  0  0  0  0  0
    3.9190   -7.4460   15.6810 O   0  0  0  0  0  0  0  0  0  0  0  0
    5.4010   -7.6700   14.7150 N   0  0  0  0  0  0  0  0  0  0  0  0
    4.9760   -8.2310   13.3350 C   0  0  0  0  0  0  0  0  0  0  0  0
    5.3880   -9.3950   12.3920 C   0  0  0  0  0  0  0  0  0  0  0  0
    4.3640  -10.8570   12.0820 C   0  0  0  0  0  0  0  0  0  0  0  0
    2.8420  -12.2220   11.6300 Br  0  0  0  0  0  0  0  0  0  0  0  0
    4.7680   -7.5030   19.2780 C   0  0  1  0  0  0  0  0  0  0  0  0
    3.0470   -8.6420   19.6110 C   0  0  0  0  0  0  0  0  0  0  0  0
    5.1510   -7.2050   20.7350 O   0  0  0  0  0  0  0  0  0  0  0  0
    5.4650   -6.1210   21.5830 C   0  0  0  0  0  0  0  0  0  0  0  0
    4.5130   -5.8540   22.5990 C   0  0  0  0  0  0  0  0  0  0  0  0
    4.7250   -4.8330   23.5400 C   0  0  0  0  0  0  0  0  0  0  0  0
    5.9190   -4.1450   23.3830 C   0  0  0  0  0  0  0  0  0  0  0  0
    6.8240   -4.4340   22.3760 C   0  0  0  0  0  0  0  0  0  0  0  0
    6.6340   -5.4090   21.4490 N   0  0  0  0  0  0  0  0  0  0  0  0
  1  2  1  0
  2  3  2  0
  2  4  1  0
  5  4  1  6
  5  6  1  0
  6  7  2  0
  6  8  1  0
  8  9  1  0
  9 10  1  0
 10 11  3  0
 11 12  1  0
  5 13  1  0
 13 14  1  1
 13 15  1  0
 15 16  1  0
 16 17  2  0
 17 18  1  0
 18 19  2  0
 19 20  1  0
 16 21  1  0
 20 21  2  0
M  END
