MAK-UNK-b1d4dcd7-10
     RDKit          3D

 29 32  0  0  0  0  0  0  0  0999 V2000
    5.8500   -2.1210   18.9890 C   0  0  0  0  0  0  0  0  0  0  0  0
    5.8810   -2.9830   20.2330 C   0  0  0  0  0  0  0  0  0  0  0  0
    5.5500   -4.1800   20.1340 O   0  0  0  0  0  0  0  0  0  0  0  0
    6.3370   -2.2830   21.3500 N   0  0  0  0  0  0  0  0  0  0  0  0
    7.2740   -1.3310   21.0770 C   0  0  0  0  0  0  0  0  0  0  0  0
    8.5380   -1.2810   21.8800 C   0  0  0  0  0  0  0  0  0  0  0  0
    8.6760   -2.1870   22.9460 N   0  0  0  0  0  0  0  0  0  0  0  0
   10.0460   -2.5550   23.2640 C   0  0  0  0  0  0  0  0  0  0  0  0
   10.9420   -1.3470   23.1530 C   0  0  0  0  0  0  0  0  0  0  0  0
   12.4370   -1.4990   22.9970 C   0  0  0  0  0  0  0  0  0  0  0  0
   13.0160   -0.1370   22.9060 C   0  0  0  0  0  0  0  0  0  0  0  0
   12.0850    0.8820   22.9850 C   0  0  0  0  0  0  0  0  0  0  0  0
   10.4760    0.2990   23.1670 S   0  0  0  0  0  0  0  0  0  0  0  0
    7.7800   -3.1750   22.8170 C   0  0  0  0  0  0  0  0  0  0  0  0
    6.4610   -2.7140   22.6740 C   0  0  2  0  0  0  0  0  0  0  0  0
    5.4610   -3.5930   23.4200 C   0  0  2  0  0  0  0  0  0  0  0  0
    4.3140   -3.9360   22.7740 C   0  0  1  0  0  0  0  0  0  0  0  0
    4.6540   -4.6750   21.6190 O   0  0  0  0  0  0  0  0  0  0  0  0
    3.4130   -4.7470   23.4560 C   0  0  0  0  0  0  0  0  0  0  0  0
    2.8180   -3.9850   24.6150 C   0  0  0  0  0  0  0  0  0  0  0  0
    3.9710   -3.6450   25.3150 C   0  0  0  0  0  0  0  0  0  0  0  0
    5.0550   -2.9610   24.5430 N   0  0  0  0  0  0  0  0  0  0  0  0
    6.1010   -2.8480   25.4500 C   0  0  0  0  0  0  0  0  0  0  0  0
    6.0620   -3.8450   26.4150 C   0  0  0  0  0  0  0  0  0  0  0  0
    6.3540   -3.5010   27.7260 C   0  0  0  0  0  0  0  0  0  0  0  0
    6.3450   -4.4510   28.7370 C   0  0  0  0  0  0  0  0  0  0  0  0
    6.0010   -5.8690   28.3800 C   0  0  0  0  0  0  0  0  0  0  0  0
    5.7120   -6.1650   27.0620 C   0  0  0  0  0  0  0  0  0  0  0  0
    5.7380   -5.1820   26.0790 C   0  0  0  0  0  0  0  0  0  0  0  0
  1  2  1  0
  2  3  2  0
  2  4  1  0
  4  5  1  0
  5  6  1  0
  6  7  1  0
  7  8  1  0
  8  9  1  0
  9 10  2  0
 10 11  1  0
 11 12  2  0
  9 13  1  0
 12 13  1  0
  7 14  1  0
  4 15  1  0
 15 14  1  6
 15 16  1  0
 16 17  1  0
 17 18  1  6
 17 19  1  0
 19 20  1  0
 20 21  1  0
 16 22  1  1
 21 22  1  0
 22 23  1  0
 23 24  1  0
 24 25  2  0
 25 26  1  0
 26 27  2  0
 27 28  1  0
 24 29  1  0
 28 29  2  0
M  END
