MAK-UNK-902cc841-9
     RDKit          3D

 34 37  0  0  0  0  0  0  0  0999 V2000
    6.0460   -1.9200   18.7090 C   0  0  0  0  0  0  0  0  0  0  0  0
    5.8440   -2.8940   19.8630 C   0  0  0  0  0  0  0  0  0  0  0  0
    5.3260   -4.0090   19.7020 O   0  0  0  0  0  0  0  0  0  0  0  0
    6.3660   -2.3930   21.1290 N   0  0  0  0  0  0  0  0  0  0  0  0
    6.8490   -3.3570   22.1310 C   0  0  0  0  0  0  0  0  0  0  0  0
    8.2380   -3.0030   22.6920 C   0  0  0  0  0  0  0  0  0  0  0  0
    8.4540   -1.5920   23.1040 N   0  0  0  0  0  0  0  0  0  0  0  0
    9.6900   -0.9380   22.5830 C   0  0  1  0  0  0  0  0  0  0  0  0
    9.7940    0.6070   22.6200 C   0  0  0  0  0  0  0  0  0  0  0  0
   10.9010    1.1290   22.4830 O   0  0  0  0  0  0  0  0  0  0  0  0
    8.7410    1.5110   22.8540 N   0  0  0  0  0  0  0  0  0  0  0  0
    8.9880    2.6970   23.6890 C   0  0  0  0  0  0  0  0  0  0  0  0
    8.4730    3.9930   22.9950 C   0  0  0  0  0  0  0  0  0  0  0  0
    7.0240    3.8620   22.7670 N   0  0  0  0  0  0  0  0  0  0  0  0
    6.0250    4.5330   23.9660 S   0  0  0  0  0  0  0  0  0  0  0  0
    4.8470    3.7000   24.0790 O   0  0  0  0  0  0  0  0  0  0  0  0
    5.8760    5.9430   23.6630 O   0  0  0  0  0  0  0  0  0  0  0  0
    6.9590    4.3940   25.4580 C   0  0  0  0  0  0  0  0  0  0  0  0
    6.5600    3.3340   26.5140 C   0  0  0  0  0  0  0  0  0  0  0  0
    5.5260    2.4940   26.3770 F   0  0  0  0  0  0  0  0  0  0  0  0
    7.3290    3.2760   27.6550 C   0  0  0  0  0  0  0  0  0  0  0  0
    8.5050    4.2220   27.8300 C   0  0  0  0  0  0  0  0  0  0  0  0
    8.8170    5.1560   26.8510 C   0  0  0  0  0  0  0  0  0  0  0  0
    8.0530    5.2360   25.6910 C   0  0  0  0  0  0  0  0  0  0  0  0
    8.4210    6.1680   24.8030 F   0  0  0  0  0  0  0  0  0  0  0  0
    6.6780    2.5350   22.1690 C   0  0  0  0  0  0  0  0  0  0  0  0
    7.8230    1.8500   21.7450 C   0  0  0  0  0  0  0  0  0  0  0  0
   10.9490   -1.4640   23.2100 C   0  0  0  0  0  0  0  0  0  0  0  0
   12.1590   -0.8180   23.1380 C   0  0  0  0  0  0  0  0  0  0  0  0
   13.3650   -1.3070   23.7500 C   0  0  0  0  0  0  0  0  0  0  0  0
   12.6790   -2.5780   24.3270 C   0  0  0  0  0  0  0  0  0  0  0  0
   11.0410   -2.8720   24.0660 S   0  0  0  0  0  0  0  0  0  0  0  0
    7.3120   -0.8170   22.6920 C   0  0  0  0  0  0  0  0  0  0  0  0
    6.9930   -1.0950   21.2420 C   0  0  0  0  0  0  0  0  0  0  0  0
  1  2  1  0
  2  3  2  0
  2  4  1  0
  4  5  1  0
  5  6  1  0
  6  7  1  0
  7  8  1  0
  8  9  1  1
  9 10  2  0
  9 11  1  0
 11 12  1  0
 12 13  1  0
 13 14  1  0
 14 15  1  0
 15 16  2  0
 15 17  2  0
 15 18  1  0
 18 19  2  0
 19 20  1  0
 19 21  1  0
 21 22  2  0
 22 23  1  0
 18 24  1  0
 23 24  2  0
 24 25  1  0
 14 26  1  0
 11 27  1  0
 26 27  1  0
  8 28  1  0
 28 29  2  0
 29 30  1  0
 30 31  2  0
 28 32  1  0
 31 32  1  0
  7 33  1  0
  4 34  1  0
 33 34  1  0
M  END
