MAK-UNK-9e4a73aa-4
     RDKit          3D

 26 29  0  0  0  0  0  0  0  0999 V2000
    5.5400   -3.0290   20.8120 O   0  0  0  0  0  0  0  0  0  0  0  0
    6.3820   -2.7440   21.6600 C   0  0  0  0  0  0  0  0  0  0  0  0
    6.9670   -1.3650   21.6630 C   0  0  0  0  0  0  0  0  0  0  0  0
    6.2810   -0.3330   21.0000 C   0  0  0  0  0  0  0  0  0  0  0  0
    6.7730    0.9600   20.9950 C   0  0  0  0  0  0  0  0  0  0  0  0
    6.1220    1.9450   20.3680 F   0  0  0  0  0  0  0  0  0  0  0  0
    8.0560    1.1670   21.7320 C   0  0  0  0  0  0  0  0  0  0  0  0
    8.7010    2.7560   21.7750 Cl  0  0  0  0  0  0  0  0  0  0  0  0
    8.7090    0.1280   22.3670 C   0  0  0  0  0  0  0  0  0  0  0  0
    8.1750   -1.1680   22.3440 C   0  0  0  0  0  0  0  0  0  0  0  0
    8.8160   -2.2690   22.9960 N   0  0  0  0  0  0  0  0  0  0  0  0
   10.2200   -2.3130   22.9960 C   0  0  0  0  0  0  0  0  0  0  0  0
   11.3720   -1.5000   23.0320 C   0  0  0  0  0  0  0  0  0  0  0  0
   12.6890   -1.6320   23.0190 C   0  0  0  0  0  0  0  0  0  0  0  0
   12.8500   -0.3100   23.0770 C   0  0  0  0  0  0  0  0  0  0  0  0
   11.5120    0.2150   23.1110 C   0  0  0  0  0  0  0  0  0  0  0  0
   10.3220   -0.6980   23.0760 C   0  0  0  0  0  0  0  0  0  0  0  0
    8.1360   -3.5230   23.2170 C   0  0  0  0  0  0  0  0  0  0  0  0
    8.6660   -4.4320   23.8620 O   0  0  0  0  0  0  0  0  0  0  0  0
    6.8500   -3.7070   22.7250 C   0  0  1  0  0  0  0  0  0  0  0  0
    5.8430   -3.8910   23.6740 C   0  0  0  0  0  0  0  0  0  0  0  0
    6.1110   -4.6570   24.8100 C   0  0  0  0  0  0  0  0  0  0  0  0
    5.1360   -4.8620   25.7790 C   0  0  0  0  0  0  0  0  0  0  0  0
    3.8790   -4.2970   25.6160 C   0  0  0  0  0  0  0  0  0  0  0  0
    3.5780   -3.5280   24.4960 C   0  0  0  0  0  0  0  0  0  0  0  0
    4.5690   -3.3250   23.5180 C   0  0  0  0  0  0  0  0  0  0  0  0
  1  2  2  0
  2  3  1  0
  3  4  1  0
  4  5  2  0
  5  6  1  0
  5  7  1  0
  7  8  1  0
  7  9  2  0
  3 10  2  0
  9 10  1  0
 10 11  1  0
 11 12  1  0
 12 13  2  0
 13 14  1  0
 14 15  2  0
 15 16  1  0
 12 17  1  0
 16 17  2  0
 11 18  1  0
 18 19  2  0
  2 20  1  0
 18 20  1  0
 20 21  1  1
 21 22  2  0
 22 23  1  0
 23 24  2  0
 24 25  1  0
 21 26  1  0
 25 26  2  0
M  END
