MAK-UNK-6435e6c2-9
     RDKit          3D

 15 16  0  0  0  0  0  0  0  0999 V2000
    5.6840   -5.9420   20.7180 C   0  0  0  0  0  0  0  0  0  0  0  0
    5.7030   -5.7330   22.0650 C   0  0  2  0  0  0  0  0  0  0  0  0
    4.5640   -5.4510   22.8320 C   0  0  2  0  0  0  0  0  0  0  0  0
    3.7900   -4.5530   22.5010 O   0  0  0  0  0  0  0  0  0  0  0  0
    4.8570   -5.1460   24.2690 C   0  0  0  0  0  0  0  0  0  0  0  0
    6.0340   -4.2360   24.5710 C   0  0  0  0  0  0  0  0  0  0  0  0
    7.1160   -4.4800   23.7210 C   0  0  0  0  0  0  0  0  0  0  0  0
    6.6890   -4.7040   22.3570 N   0  0  0  0  0  0  0  0  0  0  0  0
    6.2540   -3.4520   21.7390 C   0  0  0  0  0  0  0  0  0  0  0  0
    7.3080   -2.5340   21.8440 C   0  0  0  0  0  0  0  0  0  0  0  0
    7.0730   -1.2640   21.3120 C   0  0  0  0  0  0  0  0  0  0  0  0
    8.1610   -0.1660   21.3660 C   0  0  0  0  0  0  0  0  0  0  0  0
    9.3590   -0.4870   21.9520 C   0  0  0  0  0  0  0  0  0  0  0  0
    9.5650   -1.7690   22.4760 C   0  0  0  0  0  0  0  0  0  0  0  0
    8.5810   -2.7730   22.4320 C   0  0  0  0  0  0  0  0  0  0  0  0
  2  1  1  6
  2  3  1  0
  3  4  1  6
  3  5  1  0
  5  6  1  0
  6  7  1  0
  2  8  1  0
  7  8  1  0
  8  9  1  0
  9 10  1  0
 10 11  2  0
 11 12  1  0
 12 13  2  0
 13 14  1  0
 10 15  1  0
 14 15  2  0
M  END
