MAK-UNK-e4a48a85-5
     RDKit          3D

 30 33  0  0  0  0  0  0  0  0999 V2000
   13.3110   -1.5050   24.9240 C   0  0  0  0  0  0  0  0  0  0  0  0
   12.4380   -1.7510   23.8470 C   0  0  0  0  0  0  0  0  0  0  0  0
   12.8130   -1.7000   22.5830 C   0  0  0  0  0  0  0  0  0  0  0  0
   11.8790   -1.9650   21.4880 C   0  0  0  0  0  0  0  0  0  0  0  0
   10.4430   -2.2980   21.8270 C   0  0  0  0  0  0  0  0  0  0  0  0
   10.1260   -2.3260   23.3010 C   0  0  0  0  0  0  0  0  0  0  0  0
    8.9970   -2.5940   23.6910 O   0  0  0  0  0  0  0  0  0  0  0  0
    8.1170   -1.4910   23.8220 C   0  0  0  0  0  0  0  0  0  0  0  0
    8.4400   -0.3090   22.8990 C   0  0  0  0  0  0  0  0  0  0  0  0
    7.5990    0.8090   22.9890 C   0  0  0  0  0  0  0  0  0  0  0  0
    7.7060    2.1040   22.1890 C   0  0  0  0  0  0  0  0  0  0  0  0
    6.8570    3.1320   22.3330 N   0  0  0  0  0  0  0  0  0  0  0  0
    5.8300    3.0570   23.2280 C   0  0  0  0  0  0  0  0  0  0  0  0
    5.0760    4.1860   23.2290 N   0  0  0  0  0  0  0  0  0  0  0  0
    5.3640    5.1240   22.2330 C   0  0  0  0  0  0  0  0  0  0  0  0
    4.7430    4.7110   24.5770 C   0  0  0  0  0  0  0  0  0  0  0  0
    5.6220    1.9530   24.0140 N   0  0  0  0  0  0  0  0  0  0  0  0
    6.5370    0.7990   23.8850 C   0  0  0  0  0  0  0  0  0  0  0  0
    6.2830   -0.2930   24.7020 C   0  0  0  0  0  0  0  0  0  0  0  0
    7.0400   -1.4610   24.7090 C   0  0  0  0  0  0  0  0  0  0  0  0
    6.8490   -2.4640   25.4220 O   0  0  0  0  0  0  0  0  0  0  0  0
    5.4950   -2.8090   25.7600 C   0  0  0  0  0  0  0  0  0  0  0  0
    4.8530   -3.7890   24.8650 N   0  0  0  0  0  0  0  0  0  0  0  0
    4.4130   -3.2290   23.5890 C   0  0  0  0  0  0  0  0  0  0  0  0
    5.3880   -3.5370   22.4250 C   0  0  0  0  0  0  0  0  0  0  0  0
    5.9200   -4.9730   22.4220 C   0  0  0  0  0  0  0  0  0  0  0  0
    4.8240   -5.7750   22.4080 O   0  0  0  0  0  0  0  0  0  0  0  0
    6.6650   -5.1770   23.7520 C   0  0  0  0  0  0  0  0  0  0  0  0
    5.5520   -5.0800   24.7920 C   0  0  0  0  0  0  0  0  0  0  0  0
   11.1390   -2.0460   24.2270 C   0  0  0  0  0  0  0  0  0  0  0  0
  1  2  1  0
  2  3  2  0
  3  4  1  0
  4  5  2  0
  5  6  1  0
  6  7  1  0
  7  8  1  0
  8  9  2  0
  9 10  1  0
 10 11  2  0
 11 12  1  0
 12 13  2  0
 13 14  1  0
 14 15  1  0
 14 16  1  0
 13 17  1  0
 10 18  1  0
 17 18  2  0
 18 19  1  0
  8 20  1  0
 19 20  2  0
 20 21  1  0
 21 22  1  0
 22 23  1  0
 23 24  1  0
 24 25  1  0
 25 26  1  0
 26 27  1  0
 26 28  1  0
 23 29  1  0
 28 29  1  0
  2 30  1  0
  6 30  2  0
M  END
