MAK-UNK-8145c7a0-2
     RDKit          3D

 25 27  0  0  0  0  0  0  0  0999 V2000
    7.9440   -6.0600   24.2430 O   0  0  0  0  0  0  0  0  0  0  0  0
    7.1130   -5.0460   23.6860 S   0  0  0  0  0  0  0  0  0  0  0  0
    5.6900   -5.1840   23.4930 O   0  0  0  0  0  0  0  0  0  0  0  0
    7.7710   -4.5960   22.1950 N   0  0  0  0  0  0  0  0  0  0  0  0
    7.9140   -3.2070   22.0570 C   0  0  0  0  0  0  0  0  0  0  0  0
    9.2880   -2.5750   21.7120 C   0  0  0  0  0  0  0  0  0  0  0  0
   10.4340   -2.5100   22.4670 C   0  0  0  0  0  0  0  0  0  0  0  0
   10.5420   -2.4330   23.9460 C   0  0  0  0  0  0  0  0  0  0  0  0
   11.9810   -2.3770   24.5090 C   0  0  0  0  0  0  0  0  0  0  0  0
   13.1340   -2.4050   23.5130 C   0  0  0  0  0  0  0  0  0  0  0  0
   12.8800   -2.4720   22.1500 C   0  0  0  0  0  0  0  0  0  0  0  0
   11.5880   -2.5190   21.6750 C   0  0  0  0  0  0  0  0  0  0  0  0
    7.3960   -3.4460   24.2990 C   0  0  0  0  0  0  0  0  0  0  0  0
    7.0870   -2.6710   25.5040 N   0  0  0  0  0  0  0  0  0  0  0  0
    7.5910   -1.3870   25.2830 N   0  0  0  0  0  0  0  0  0  0  0  0
    8.1950   -1.2520   24.0550 C   0  0  0  0  0  0  0  0  0  0  0  0
    8.7780   -0.1220   23.4590 C   0  0  0  0  0  0  0  0  0  0  0  0
   10.1180    0.2130   23.3770 N   0  0  0  0  0  0  0  0  0  0  0  0
   10.4020    1.5100   22.9520 C   0  0  0  0  0  0  0  0  0  0  0  0
   11.6770    2.0880   22.8600 C   0  0  0  0  0  0  0  0  0  0  0  0
   12.7400    1.1240   22.7690 C   0  0  0  0  0  0  0  0  0  0  0  0
   12.3430   -0.1720   22.5850 C   0  0  0  0  0  0  0  0  0  0  0  0
   13.3280   -1.0820   22.4540 F   0  0  0  0  0  0  0  0  0  0  0  0
   10.8890   -0.6620   22.5030 C   0  0  0  0  0  0  0  0  0  0  0  0
    8.2280   -2.6360   23.1130 S   0  0  0  0  0  0  0  0  0  0  0  0
  1  2  2  0
  2  3  2  0
  2  4  1  0
  4  5  1  0
  5  6  1  0
  6  7  1  0
  7  8  2  0
  8  9  1  0
  9 10  2  0
 10 11  1  0
  7 12  1  0
 11 12  2  0
  2 13  1  0
 13 14  2  0
 14 15  1  0
 15 16  2  0
 16 17  1  0
 17 18  1  0
 18 19  1  0
 19 20  1  0
 20 21  1  0
 21 22  2  0
 22 23  1  0
 18 24  1  0
 22 24  1  0
 13 25  1  0
 16 25  1  0
M  END
