MAK-UNK-e4a48a85-9
     RDKit          3D

 17 18  0  0  0  0  0  0  0  0999 V2000
   11.1300    2.6130   23.1360 C   0  0  0  0  0  0  0  0  0  0  0  0
   11.2820    1.1070   22.8970 C   0  0  0  0  0  0  0  0  0  0  0  0
   12.3990    0.3440   23.2450 C   0  0  0  0  0  0  0  0  0  0  0  0
   12.7130   -1.1760   23.0520 C   0  0  0  0  0  0  0  0  0  0  0  0
   11.5900   -1.9650   22.3420 C   0  0  0  0  0  0  0  0  0  0  0  0
   10.5300   -0.9710   22.0700 C   0  0  0  0  0  0  0  0  0  0  0  0
   11.7480   -0.5370   22.8450 C   0  0  0  0  0  0  0  0  0  0  0  0
   11.3520   -1.5260   24.0060 C   0  0  0  0  0  0  0  0  0  0  0  0
   10.3690   -2.4930   23.7840 C   0  0  0  0  0  0  0  0  0  0  0  0
    8.9860   -2.0200   23.4630 N   0  0  0  0  0  0  0  0  0  0  0  0
    8.1360   -1.6050   24.4630 C   0  0  0  0  0  0  0  0  0  0  0  0
    6.9650   -2.2270   24.8570 C   0  0  0  0  0  0  0  0  0  0  0  0
    6.5380   -3.3510   23.9180 C   0  0  0  0  0  0  0  0  0  0  0  0
    5.9480   -4.1250   24.6440 O   0  0  0  0  0  0  0  0  0  0  0  0
    7.4870   -3.7960   22.9990 C   0  0  0  0  0  0  0  0  0  0  0  0
    8.3140   -2.8230   22.4520 C   0  0  0  0  0  0  0  0  0  0  0  0
   10.2420    0.3470   22.2490 C   0  0  0  0  0  0  0  0  0  0  0  0
  1  2  1  0
  2  3  2  0
  3  4  1  0
  4  5  2  0
  5  6  1  0
  6  7  1  0
  7  8  1  0
  8  9  1  0
  9 10  1  0
 10 11  1  0
 11 12  1  0
 12 13  1  0
 13 14  1  0
 13 15  1  0
 10 16  1  0
 15 16  1  0
  2 17  1  0
  6 17  2  0
M  END
