MAK-UNK-b2c98f02-4
     RDKit          3D

 28 30  0  0  0  0  0  0  0  0999 V2000
    9.1630    1.4810   21.3570 O   0  0  0  0  0  0  0  0  0  0  0  0
    8.7760    0.3790   21.7720 C   0  0  0  0  0  0  0  0  0  0  0  0
    9.4350   -0.3020   22.9110 C   0  0  0  0  0  0  0  0  0  0  0  0
   10.6900   -0.7370   22.8180 C   0  0  0  0  0  0  0  0  0  0  0  0
   11.1380   -1.8110   21.9130 C   0  0  0  0  0  0  0  0  0  0  0  0
   12.5410   -2.3440   22.1470 C   0  0  0  0  0  0  0  0  0  0  0  0
   13.4120   -1.4790   23.0260 C   0  0  0  0  0  0  0  0  0  0  0  0
   12.7040   -0.7240   24.1320 C   0  0  0  0  0  0  0  0  0  0  0  0
   11.2540   -1.2100   24.1260 C   0  0  0  0  0  0  0  0  0  0  0  0
    7.6690   -0.3980   21.2420 N   0  0  0  0  0  0  0  0  0  0  0  0
    6.7530    0.0510   20.2810 C   0  0  0  0  0  0  0  0  0  0  0  0
    7.0370   -0.0630   18.7930 C   0  0  0  0  0  0  0  0  0  0  0  0
    6.1950    0.3740   17.8630 N   0  0  0  0  0  0  0  0  0  0  0  0
    5.0280    0.9330   18.2900 C   0  0  0  0  0  0  0  0  0  0  0  0
    4.6850    1.0600   19.6610 C   0  0  0  0  0  0  0  0  0  0  0  0
    3.1430    1.7720   20.1860 S   0  0  0  0  0  0  0  0  0  0  0  0
    2.6010    2.6290   19.1630 O   0  0  0  0  0  0  0  0  0  0  0  0
    2.3490    0.7510   20.8130 O   0  0  0  0  0  0  0  0  0  0  0  0
    3.6200    2.7390   21.4680 N   0  0  0  0  0  0  0  0  0  0  0  0
    4.1110    3.9370   21.1500 C   0  0  0  0  0  0  0  0  0  0  0  0
    4.7940    4.6020   22.1530 C   0  0  0  0  0  0  0  0  0  0  0  0
    5.2740    5.7930   21.6460 C   0  0  0  0  0  0  0  0  0  0  0  0
    4.3540    6.7080   21.1190 C   0  0  0  0  0  0  0  0  0  0  0  0
    4.8630    8.0210   20.5460 C   0  0  0  0  0  0  0  0  0  0  0  0
    6.3460    8.3880   20.5210 C   0  0  0  0  0  0  0  0  0  0  0  0
    7.2840    7.3190   21.1280 C   0  0  0  0  0  0  0  0  0  0  0  0
    6.6600    6.0350   21.6740 C   0  0  0  0  0  0  0  0  0  0  0  0
    5.5550    0.6210   20.6530 C   0  0  0  0  0  0  0  0  0  0  0  0
  1  2  2  0
  2  3  1  0
  3  4  1  0
  4  5  1  0
  5  6  1  0
  6  7  1  0
  7  8  1  0
  4  9  1  0
  8  9  1  0
  2 10  1  0
 10 11  1  0
 11 12  2  0
 12 13  1  0
 13 14  2  0
 14 15  1  0
 15 16  1  0
 16 17  2  0
 16 18  2  0
 16 19  1  0
 19 20  1  0
 20 21  1  0
 21 22  1  0
 22 23  2  0
 23 24  1  0
 24 25  2  0
 25 26  1  0
 22 27  1  0
 26 27  2  0
 11 28  1  0
 15 28  2  0
M  END
