MAK-UNK-902cc841-1
     RDKit          3D

 29 32  0  0  0  0  0  0  0  0999 V2000
    6.0760   -1.7520   18.4860 C   0  0  0  0  0  0  0  0  0  0  0  0
    5.8420   -2.5450   19.7090 C   0  0  0  0  0  0  0  0  0  0  0  0
    5.3890   -3.7110   19.6920 O   0  0  0  0  0  0  0  0  0  0  0  0
    6.2500   -1.7910   20.8880 N   0  0  0  0  0  0  0  0  0  0  0  0
    6.0650   -2.4500   22.0840 C   0  0  0  0  0  0  0  0  0  0  0  0
    7.3430   -2.7430   22.8450 C   0  0  0  0  0  0  0  0  0  0  0  0
    8.2910   -1.6410   22.7310 N   0  0  0  0  0  0  0  0  0  0  0  0
    9.4250   -1.9710   23.5920 C   0  0  2  0  0  0  0  0  0  0  0  0
    8.8910   -2.0550   24.8730 C   0  0  0  0  0  0  0  0  0  0  0  0
    8.9760   -1.1840   25.7140 O   0  0  0  0  0  0  0  0  0  0  0  0
    8.2240   -3.2410   25.0860 N   0  0  0  0  0  0  0  0  0  0  0  0
    8.3460   -4.3890   24.1910 C   0  0  0  0  0  0  0  0  0  0  0  0
    8.6100   -5.5940   25.0170 C   0  0  0  0  0  0  0  0  0  0  0  0
    8.8610   -5.2900   26.2760 N   0  0  0  0  0  0  0  0  0  0  0  0
   10.1560   -5.1170   26.6390 C   0  0  0  0  0  0  0  0  0  0  0  0
   11.1490   -4.3600   25.9660 C   0  0  0  0  0  0  0  0  0  0  0  0
   10.8000   -3.6800   24.8080 C   0  0  0  0  0  0  0  0  0  0  0  0
   11.8640   -2.9190   24.1700 C   0  0  0  0  0  0  0  0  0  0  0  0
   13.1000   -3.0360   24.8980 C   0  0  0  0  0  0  0  0  0  0  0  0
   12.8670   -4.0600   26.2730 S   0  0  0  0  0  0  0  0  0  0  0  0
    7.8880   -4.5870   26.8730 C   0  0  0  0  0  0  0  0  0  0  0  0
    7.4320   -3.4390   26.2310 C   0  0  0  0  0  0  0  0  0  0  0  0
   10.5680   -0.9770   23.4920 C   0  0  0  0  0  0  0  0  0  0  0  0
   11.6710   -1.1420   22.6630 C   0  0  0  0  0  0  0  0  0  0  0  0
   12.6430   -0.1640   22.6750 C   0  0  0  0  0  0  0  0  0  0  0  0
   12.1690    1.0410   23.7680 S   0  0  0  0  0  0  0  0  0  0  0  0
   10.7200    0.2140   24.1790 C   0  0  0  0  0  0  0  0  0  0  0  0
    8.5990   -1.3700   21.3460 C   0  0  0  0  0  0  0  0  0  0  0  0
    7.4920   -0.9700   20.6810 C   0  0  0  0  0  0  0  0  0  0  0  0
  1  2  1  0
  2  3  2  0
  2  4  1  0
  4  5  1  0
  5  6  1  0
  6  7  1  0
  7  8  1  0
  8  9  1  1
  9 10  2  0
  9 11  1  0
 11 12  1  0
 12 13  1  0
 13 14  1  0
 14 15  1  0
 15 16  1  0
 16 17  2  0
 17 18  1  0
 18 19  2  0
 16 20  1  0
 19 20  1  0
 14 21  1  0
 11 22  1  0
 21 22  1  0
  8 23  1  0
 23 24  1  0
 24 25  2  0
 25 26  1  0
 23 27  2  0
 26 27  1  0
  7 28  1  0
  4 29  1  0
 28 29  1  0
M  END
