MAK-UNK-194150d3-12
     RDKit          3D

 19 19  0  0  0  0  0  0  0  0999 V2000
    1.1910    2.1860   20.3990 C   0  0  0  0  0  0  0  0  0  0  0  0
    2.7030    2.3010   20.6410 C   0  0  0  0  0  0  0  0  0  0  0  0
    3.2050    3.2150   21.2880 O   0  0  0  0  0  0  0  0  0  0  0  0
    3.6650    1.0100   19.9250 S   0  0  0  0  0  0  0  0  0  0  0  0
    4.9100    1.9580   19.0030 C   0  0  0  0  0  0  0  0  0  0  0  0
    5.4180    1.1450   17.9900 C   0  0  0  0  0  0  0  0  0  0  0  0
    6.6540    0.6170   18.0640 N   0  0  0  0  0  0  0  0  0  0  0  0
    6.9720   -0.0530   19.1950 C   0  0  0  0  0  0  0  0  0  0  0  0
    7.3830   -1.1940   19.1230 O   0  0  0  0  0  0  0  0  0  0  0  0
    6.8430    0.5220   20.4500 C   0  0  0  0  0  0  0  0  0  0  0  0
    7.5460   -0.1430   21.4770 N   0  0  0  0  0  0  0  0  0  0  0  0
    8.9090   -0.1280   21.7100 C   0  0  0  0  0  0  0  0  0  0  0  0
    9.2640   -0.5860   22.9780 C   0  0  0  0  0  0  0  0  0  0  0  0
   10.5680   -1.0500   23.1630 C   0  0  0  0  0  0  0  0  0  0  0  0
   11.3710   -1.3180   22.0540 C   0  0  0  0  0  0  0  0  0  0  0  0
   12.6820   -1.7770   22.1040 C   0  0  0  0  0  0  0  0  0  0  0  0
   13.3430   -2.0250   23.4190 C   0  0  0  0  0  0  0  0  0  0  0  0
   12.5100   -1.7490   24.6310 C   0  0  0  0  0  0  0  0  0  0  0  0
   11.1060   -1.2630   24.4250 C   0  0  0  0  0  0  0  0  0  0  0  0
  1  2  1  0
  2  3  2  0
  2  4  1  0
  4  5  1  0
  5  6  1  0
  6  7  1  0
  7  8  1  0
  8  9  2  0
  8 10  1  0
 10 11  1  0
 11 12  1  0
 12 13  1  0
 13 14  1  0
 14 15  2  0
 15 16  1  0
 16 17  2  0
 17 18  1  0
 14 19  1  0
 18 19  2  0
M  END
