MAK-UNK-9a6be56d-1
     RDKit          3D

 38 42  0  0  0  0  0  0  0  0999 V2000
   11.2240    6.0160   23.0330 N   0  0  0  0  0  0  0  0  0  0  0  0
   10.0470    4.8690   23.5220 S   0  0  0  0  0  0  0  0  0  0  0  0
    9.9160    5.0370   24.9560 O   0  0  0  0  0  0  0  0  0  0  0  0
    8.8820    4.9900   22.6890 O   0  0  0  0  0  0  0  0  0  0  0  0
   10.8560    3.3140   23.2460 C   0  0  0  0  0  0  0  0  0  0  0  0
   12.3400    3.2680   22.9870 C   0  0  0  0  0  0  0  0  0  0  0  0
   12.9780    2.0470   22.8250 C   0  0  0  0  0  0  0  0  0  0  0  0
   12.3100    0.8280   22.8870 C   0  0  0  0  0  0  0  0  0  0  0  0
   10.9260    0.7930   23.1140 C   0  0  0  0  0  0  0  0  0  0  0  0
   10.1490    2.0980   23.2890 C   0  0  0  0  0  0  0  0  0  0  0  0
   10.4190   -0.4890   23.1720 N   0  0  0  0  0  0  0  0  0  0  0  0
    9.1030   -0.7470   23.3020 C   0  0  0  0  0  0  0  0  0  0  0  0
    8.2340    0.0590   24.1430 N   0  0  0  0  0  0  0  0  0  0  0  0
    6.9520   -0.6190   24.3010 C   0  0  0  0  0  0  0  0  0  0  0  0
    5.9590    0.3960   24.8420 C   0  0  0  0  0  0  0  0  0  0  0  0
    6.1470    0.8210   26.2740 C   0  0  0  0  0  0  0  0  0  0  0  0
    5.1690    1.7350   26.5950 C   0  0  0  0  0  0  0  0  0  0  0  0
    5.0620    2.3280   27.8530 C   0  0  0  0  0  0  0  0  0  0  0  0
    5.1050    3.6970   27.9770 C   0  0  0  0  0  0  0  0  0  0  0  0
    5.0080    4.4500   29.1910 C   0  0  0  0  0  0  0  0  0  0  0  0
    4.8590    3.6850   30.3350 C   0  0  0  0  0  0  0  0  0  0  0  0
    4.8100    2.2750   30.2650 C   0  0  0  0  0  0  0  0  0  0  0  0
    4.9110    1.6020   29.0380 C   0  0  0  0  0  0  0  0  0  0  0  0
    4.8590    0.2600   29.0320 F   0  0  0  0  0  0  0  0  0  0  0  0
    4.3940    1.8870   25.4300 N   0  0  0  0  0  0  0  0  0  0  0  0
    3.0320    2.9060   25.2440 S   0  0  0  0  0  0  0  0  0  0  0  0
    3.5270    4.2680   25.3060 O   0  0  0  0  0  0  0  0  0  0  0  0
    2.3330    2.4180   24.0690 O   0  0  0  0  0  0  0  0  0  0  0  0
    2.0350    2.6330   26.6620 C   0  0  0  0  0  0  0  0  0  0  0  0
    1.9370    3.5840   27.6720 C   0  0  0  0  0  0  0  0  0  0  0  0
    1.1280    3.3210   28.7800 C   0  0  0  0  0  0  0  0  0  0  0  0
    0.4530    2.1090   28.8210 C   0  0  0  0  0  0  0  0  0  0  0  0
    0.5320    1.1690   27.8500 N   0  0  0  0  0  0  0  0  0  0  0  0
    1.3260    1.4490   26.7850 C   0  0  0  0  0  0  0  0  0  0  0  0
    4.8610    1.0890   24.3800 C   0  0  0  0  0  0  0  0  0  0  0  0
   11.2970   -1.5930   23.5570 C   0  0  0  0  0  0  0  0  0  0  0  0
   12.4220   -1.6790   22.5720 C   0  0  0  0  0  0  0  0  0  0  0  0
   13.1840   -0.3940   22.7020 C   0  0  0  0  0  0  0  0  0  0  0  0
  2  1  1  0
  2  3  2  0
  2  4  2  0
  2  5  1  0
  5  6  2  0
  6  7  1  0
  7  8  2  0
  8  9  1  0
  5 10  1  0
  9 10  2  0
  9 11  1  0
 11 12  1  0
 12 13  1  0
 13 14  1  0
 14 15  1  0
 15 16  1  0
 16 17  2  0
 17 18  1  0
 18 19  2  0
 19 20  1  0
 20 21  2  0
 21 22  1  0
 18 23  1  0
 22 23  2  0
 23 24  1  0
 17 25  1  0
 25 26  1  0
 26 27  2  0
 26 28  2  0
 26 29  1  0
 29 30  2  0
 30 31  1  0
 31 32  2  0
 32 33  1  0
 29 34  1  0
 33 34  2  0
 15 35  2  0
 25 35  1  0
 11 36  1  0
 36 37  1  0
  8 38  1  0
 37 38  1  0
M  END
