MAK-UNK-c7aa8293-2
     RDKit          3D

 21 22  0  0  0  0  0  0  0  0999 V2000
    6.0560   -3.1910   27.7170 C   0  0  0  0  0  0  0  0  0  0  0  0
    6.2020   -1.7720   27.1400 C   0  0  0  0  0  0  0  0  0  0  0  0
    6.8380   -0.8860   27.7050 O   0  0  0  0  0  0  0  0  0  0  0  0
    5.5050   -1.5860   25.8850 N   0  0  0  0  0  0  0  0  0  0  0  0
    5.6140   -2.4280   24.7380 C   0  0  0  0  0  0  0  0  0  0  0  0
    6.7190   -2.1060   23.9340 C   0  0  0  0  0  0  0  0  0  0  0  0
    7.9700   -2.4890   24.3810 C   0  0  0  0  0  0  0  0  0  0  0  0
    9.0830   -2.4600   23.5470 C   0  0  1  0  0  0  0  0  0  0  0  0
    9.3430   -1.3370   22.9360 C   0  0  0  0  0  0  0  0  0  0  0  0
   10.5510   -1.3830   23.4450 C   0  0  0  0  0  0  0  0  0  0  0  0
   11.4910   -0.5130   23.5310 C   0  0  0  0  0  0  0  0  0  0  0  0
   12.7730   -0.4110   24.0020 C   0  0  0  0  0  0  0  0  0  0  0  0
   13.2640   -1.5240   24.5990 C   0  0  0  0  0  0  0  0  0  0  0  0
   12.4580   -2.6900   24.7080 C   0  0  0  0  0  0  0  0  0  0  0  0
   13.0980   -3.7450   25.3760 O   0  0  0  0  0  0  0  0  0  0  0  0
   11.0190   -2.5950   24.0780 C   0  0  0  0  0  0  0  0  0  0  0  0
   10.0280   -3.5320   24.0180 O   0  0  0  0  0  0  0  0  0  0  0  0
   11.5500   -1.8480   23.9510 C   0  0  2  0  0  0  0  0  0  0  0  0
   12.0010   -2.4790   22.6540 C   0  0  0  0  0  0  0  0  0  0  0  0
   13.3920   -2.9020   22.5850 N   0  0  0  0  0  0  0  0  0  0  0  0
   10.4020   -2.4560   24.3400 O   0  0  0  0  0  0  0  0  0  0  0  0
  1  2  1  0
  2  3  2  0
  2  4  1  0
  4  5  1  0
  5  6  1  0
  6  7  1  0
  8  7  1  1
  8  9  1  0
  9 10  1  0
 10 11  2  0
 11 12  1  0
 12 13  2  0
 13 14  1  0
 14 15  1  0
 10 16  1  0
 14 16  2  0
 16 17  1  0
 11 18  1  0
 18 19  1  6
 19 20  1  0
  8 21  1  0
 18 21  1  0
M  END
