MAK-UNK-9a6be56d-15
     RDKit          3D

 38 42  0  0  0  0  0  0  0  0999 V2000
    3.1710    1.8910   19.6590 C   0  0  0  0  0  0  0  0  0  0  0  0
    4.2190    1.2080   20.2470 N   0  0  0  0  0  0  0  0  0  0  0  0
    5.0210    0.2160   19.6390 C   0  0  0  0  0  0  0  0  0  0  0  0
    5.8090   -0.6240   20.4190 C   0  0  0  0  0  0  0  0  0  0  0  0
    5.5490   -1.9400   20.7420 C   0  0  0  0  0  0  0  0  0  0  0  0
    6.4620   -2.5180   21.5190 C   0  0  0  0  0  0  0  0  0  0  0  0
    6.3640   -3.8440   21.9550 C   0  0  0  0  0  0  0  0  0  0  0  0
    5.7790   -4.7760   21.0850 C   0  0  0  0  0  0  0  0  0  0  0  0
    5.6710   -6.1100   21.4730 C   0  0  0  0  0  0  0  0  0  0  0  0
    6.1440   -6.4850   22.7150 C   0  0  0  0  0  0  0  0  0  0  0  0
    6.7140   -5.5720   23.5780 C   0  0  0  0  0  0  0  0  0  0  0  0
    6.8300   -4.2520   23.2180 C   0  0  0  0  0  0  0  0  0  0  0  0
    7.3860   -3.4110   24.0910 F   0  0  0  0  0  0  0  0  0  0  0  0
    7.3960   -1.5830   21.7280 N   0  0  0  0  0  0  0  0  0  0  0  0
    8.7870   -1.8530   22.6480 S   0  0  0  0  0  0  0  0  0  0  0  0
    9.8020   -1.0970   21.9520 O   0  0  0  0  0  0  0  0  0  0  0  0
    8.9650   -3.2550   22.8920 O   0  0  0  0  0  0  0  0  0  0  0  0
    8.4940   -1.1110   24.1540 C   0  0  0  0  0  0  0  0  0  0  0  0
    7.1170   -1.2270   24.8460 C   0  0  0  0  0  0  0  0  0  0  0  0
    6.8330   -0.6240   26.1040 N   0  0  0  0  0  0  0  0  0  0  0  0
    7.8560    0.1250   26.7680 C   0  0  0  0  0  0  0  0  0  0  0  0
    9.1640    0.1890   26.0200 C   0  0  0  0  0  0  0  0  0  0  0  0
    9.4950   -0.3830   24.7840 C   0  0  0  0  0  0  0  0  0  0  0  0
   10.7210   -0.2450   24.2100 N   0  0  0  0  0  0  0  0  0  0  0  0
   11.4230   -1.4010   24.0010 C   0  0  0  0  0  0  0  0  0  0  0  0
   12.3330   -1.4300   22.9590 C   0  0  0  0  0  0  0  0  0  0  0  0
   13.3100   -0.2850   23.0240 C   0  0  0  0  0  0  0  0  0  0  0  0
   12.5460    1.0210   23.2030 C   0  0  0  0  0  0  0  0  0  0  0  0
   13.0620    2.2270   22.8180 C   0  0  0  0  0  0  0  0  0  0  0  0
   12.3500    3.5310   22.9500 C   0  0  0  0  0  0  0  0  0  0  0  0
   11.0800    3.4700   23.5150 C   0  0  0  0  0  0  0  0  0  0  0  0
   10.1480    4.9720   23.7140 S   0  0  0  0  0  0  0  0  0  0  0  0
   11.2720    6.1520   23.2780 N   0  0  0  0  0  0  0  0  0  0  0  0
    9.8780    5.2530   25.0950 O   0  0  0  0  0  0  0  0  0  0  0  0
    9.0710    4.9870   22.7600 O   0  0  0  0  0  0  0  0  0  0  0  0
   10.5550    2.2170   23.9260 C   0  0  0  0  0  0  0  0  0  0  0  0
   11.2800    1.0010   23.7760 C   0  0  0  0  0  0  0  0  0  0  0  0
    7.0350   -0.3990   21.0720 C   0  0  0  0  0  0  0  0  0  0  0  0
  1  2  1  0
  2  3  1  0
  3  4  1  0
  4  5  1  0
  5  6  2  0
  6  7  1  0
  7  8  2  0
  8  9  1  0
  9 10  2  0
 10 11  1  0
  7 12  1  0
 11 12  2  0
 12 13  1  0
  6 14  1  0
 14 15  1  0
 15 16  2  0
 15 17  2  0
 15 18  1  0
 18 19  2  0
 19 20  1  0
 20 21  2  0
 21 22  1  0
 18 23  1  0
 22 23  2  0
 23 24  1  0
 24 25  1  0
 25 26  1  0
 26 27  1  0
 27 28  1  0
 28 29  2  0
 29 30  1  0
 30 31  2  0
 31 32  1  0
 32 33  1  0
 32 34  2  0
 32 35  2  0
 31 36  1  0
 24 37  1  0
 28 37  1  0
 36 37  2  0
  4 38  2  0
 14 38  1  0
M  END
