MAK-UNK-f2409524-27
     RDKit          3D

 23 24  0  0  0  0  0  0  0  0999 V2000
    9.6960   -0.6890   22.4820 C   0  0  0  0  0  0  0  0  0  0  0  0
    8.8030    0.0510   21.5250 C   0  0  0  0  0  0  0  0  0  0  0  0
    9.0090    1.2450   21.2260 O   0  0  0  0  0  0  0  0  0  0  0  0
    7.7510   -0.7190   21.0360 N   0  0  0  0  0  0  0  0  0  0  0  0
    6.7340   -0.1090   20.1890 C   0  0  0  0  0  0  0  0  0  0  0  0
    7.0580   -0.1620   18.8440 C   0  0  0  0  0  0  0  0  0  0  0  0
    6.1710    0.4330   17.8210 N   0  0  0  0  0  0  0  0  0  0  0  0
    4.9380    1.0710   18.2890 C   0  0  0  0  0  0  0  0  0  0  0  0
    4.6670    1.0710   19.6410 C   0  0  0  0  0  0  0  0  0  0  0  0
    5.5470    0.4830   20.6490 C   0  0  0  0  0  0  0  0  0  0  0  0
    5.2200    0.5170   21.9620 C   0  0  0  0  0  0  0  0  0  0  0  0
    5.1310    1.8570   22.5000 C   0  0  0  0  0  0  0  0  0  0  0  0
    3.9430    2.1340   23.0520 C   0  0  0  0  0  0  0  0  0  0  0  0
    2.9470    2.8150   22.2020 C   0  0  0  0  0  0  0  0  0  0  0  0
    1.5630    2.6040   22.2830 C   0  0  0  0  0  0  0  0  0  0  0  0
    1.0040    1.6030   23.3160 C   0  0  0  0  0  0  0  0  0  0  0  0
    0.6060    3.3340   21.3910 N   0  0  0  0  0  0  0  0  0  0  0  0
   -0.7620    2.7910   21.3030 C   0  0  0  0  0  0  0  0  0  0  0  0
   -1.5000    3.0940   22.5940 C   0  0  0  0  0  0  0  0  0  0  0  0
   -2.5280    2.0000   22.8700 C   0  0  0  0  0  0  0  0  0  0  0  0
   -2.8700    1.1360   21.8310 C   0  0  0  0  0  0  0  0  0  0  0  0
   -1.7910    0.6290   21.1030 C   0  0  0  0  0  0  0  0  0  0  0  0
   -0.6690    1.4420   20.9000 C   0  0  0  0  0  0  0  0  0  0  0  0
  1  2  1  0
  2  3  2  0
  2  4  1  0
  4  5  1  0
  5  6  2  0
  6  7  1  0
  7  8  2  0
  8  9  1  0
  5 10  1  0
  9 10  2  0
 10 11  1  0
 11 12  1  0
 12 13  1  0
 13 14  1  0
 14 15  2  3
 15 16  1  0
 15 17  1  0
 17 18  1  0
 18 19  1  0
 19 20  1  0
 20 21  1  0
 21 22  1  0
 18 23  1  0
 22 23  1  0
M  END
