MAK-UNK-129dcd6f-11
     RDKit          3D

 26 28  0  0  0  0  0  0  0  0999 V2000
   15.0040   -6.1690   20.5630 C   0  0  0  0  0  0  0  0  0  0  0  0
   15.0210   -5.0180   20.0670 C   0  0  0  0  0  0  0  0  0  0  0  0
   16.0570   -5.0790   19.2820 C   0  0  0  0  0  0  0  0  0  0  0  0
   16.4560   -4.0720   18.4900 C   0  0  0  0  0  0  0  0  0  0  0  0
   15.8920   -3.1700   18.5450 N   0  0  0  0  0  0  0  0  0  0  0  0
   14.9030   -3.1980   19.4140 C   0  0  0  0  0  0  0  0  0  0  0  0
   14.3230   -3.9710   20.1900 C   0  0  0  0  0  0  0  0  0  0  0  0
   13.2210   -3.3410   20.8760 N   0  0  0  0  0  0  0  0  0  0  0  0
   13.1640   -1.9350   21.0000 C   0  0  0  0  0  0  0  0  0  0  0  0
   13.8430   -1.1590   20.3490 O   0  0  0  0  0  0  0  0  0  0  0  0
   12.3380   -1.2990   21.8010 C   0  0  0  0  0  0  0  0  0  0  0  0
   12.9140   -0.1660   22.5780 C   0  0  0  0  0  0  0  0  0  0  0  0
   12.0160    0.6200   23.4260 C   0  0  0  0  0  0  0  0  0  0  0  0
   10.5620    0.2000   23.4330 C   0  0  0  0  0  0  0  0  0  0  0  0
   10.1510   -0.8790   22.6780 C   0  0  0  0  0  0  0  0  0  0  0  0
    8.8390   -1.2300   22.6750 N   0  0  0  0  0  0  0  0  0  0  0  0
    8.1740   -0.3680   21.7120 C   0  0  0  0  0  0  0  0  0  0  0  0
    8.5420    0.7780   21.4200 O   0  0  0  0  0  0  0  0  0  0  0  0
    7.0310   -0.9970   21.1210 N   0  0  0  0  0  0  0  0  0  0  0  0
    6.4130   -0.2460   20.0740 C   0  0  0  0  0  0  0  0  0  0  0  0
    5.2790    0.6380   20.4800 C   0  0  0  0  0  0  0  0  0  0  0  0
    4.5920    1.4560   19.4600 C   0  0  0  0  0  0  0  0  0  0  0  0
    5.0890    1.3600   18.0080 C   0  0  0  0  0  0  0  0  0  0  0  0
    6.1440    0.5120   17.7340 N   0  0  0  0  0  0  0  0  0  0  0  0
    6.7490   -0.2350   18.7370 C   0  0  0  0  0  0  0  0  0  0  0  0
   11.0090   -1.6220   21.8800 C   0  0  0  0  0  0  0  0  0  0  0  0
  1  2  1  0
  2  3  2  0
  3  4  1  0
  4  5  2  0
  5  6  1  0
  2  7  1  0
  6  7  2  0
  7  8  1  0
  8  9  1  0
  9 10  2  0
  9 11  1  0
 11 12  2  0
 12 13  1  0
 13 14  2  0
 14 15  1  0
 15 16  1  0
 16 17  1  0
 17 18  2  0
 17 19  1  0
 19 20  1  0
 20 21  2  0
 21 22  1  0
 22 23  2  0
 23 24  1  0
 20 25  1  0
 24 25  2  0
 11 26  1  0
 15 26  2  0
M  END
