MAK-UNK-5e88aa6a-11
     RDKit          3D

 12 12  0  0  0  0  0  0  0  0999 V2000
    8.2870   -1.2530   28.4490 C   0  0  0  0  0  0  0  0  0  0  0  0
    7.9430   -1.3640   27.0030 C   0  0  0  0  0  0  0  0  0  0  0  0
    8.7860   -0.9750   26.0300 C   0  0  0  0  0  0  0  0  0  0  0  0
    8.6060   -1.5060   24.5990 C   0  0  2  0  0  0  0  0  0  0  0  0
    7.7890   -0.6120   23.8660 O   0  0  0  0  0  0  0  0  0  0  0  0
    8.0870   -2.8530   24.3700 N   0  0  0  0  0  0  0  0  0  0  0  0
    8.9600   -4.0160   24.1390 C   0  0  0  0  0  0  0  0  0  0  0  0
    9.1170   -4.8130   25.2830 C   0  0  0  0  0  0  0  0  0  0  0  0
    8.4050   -4.3760   26.3640 C   0  0  0  0  0  0  0  0  0  0  0  0
    8.6620   -5.0920   27.5670 O   0  0  0  0  0  0  0  0  0  0  0  0
    6.9680   -4.3560   25.9750 C   0  0  0  0  0  0  0  0  0  0  0  0
    6.8120   -3.1630   25.0380 C   0  0  0  0  0  0  0  0  0  0  0  0
  1  2  1  0
  2  3  1  0
  3  4  1  0
  4  5  1  6
  4  6  1  0
  6  7  1  0
  7  8  1  0
  8  9  1  0
  9 10  1  0
  9 11  1  0
  6 12  1  0
 11 12  1  0
M  END
