MAK-UNK-10572812-1
     RDKit          3D

 34 38  0  0  0  0  0  0  0  0999 V2000
   13.1960   -0.6650   22.2990 C   0  0  0  0  0  0  0  0  0  0  0  0
   13.3860   -2.1550   22.3730 C   0  0  0  0  0  0  0  0  0  0  0  0
   13.3260   -2.7940   21.3250 O   0  0  0  0  0  0  0  0  0  0  0  0
   13.6580   -2.7040   23.6240 N   0  0  0  0  0  0  0  0  0  0  0  0
   12.6300   -3.0580   24.5980 C   0  0  0  0  0  0  0  0  0  0  0  0
   11.7560   -2.0650   24.8210 C   0  0  2  0  0  0  0  0  0  0  0  0
   10.4180   -2.3160   25.2080 C   0  0  0  0  0  0  0  0  0  0  0  0
    9.3370   -1.4010   25.1710 C   0  0  0  0  0  0  0  0  0  0  0  0
    8.0860   -1.8230   25.5590 N   0  0  0  0  0  0  0  0  0  0  0  0
    8.3920   -3.1720   25.8880 C   0  0  0  0  0  0  0  0  0  0  0  0
    7.6490   -4.1470   26.3300 C   0  0  0  0  0  0  0  0  0  0  0  0
    7.7910   -5.4090   26.6630 C   0  0  0  0  0  0  0  0  0  0  0  0
    9.1190   -5.8120   26.4910 C   0  0  0  0  0  0  0  0  0  0  0  0
    9.4890   -7.0010   26.7400 F   0  0  0  0  0  0  0  0  0  0  0  0
   10.1170   -4.9270   26.0270 C   0  0  0  0  0  0  0  0  0  0  0  0
    9.7450   -3.4860   25.6930 C   0  0  0  0  0  0  0  0  0  0  0  0
   11.2240   -1.5210   23.6600 N   0  0  0  0  0  0  0  0  0  0  0  0
   11.0340   -2.3170   22.6460 C   0  0  0  0  0  0  0  0  0  0  0  0
   10.2850   -1.6760   21.7140 C   0  0  0  0  0  0  0  0  0  0  0  0
    9.6610   -0.4350   22.1920 N   0  0  0  0  0  0  0  0  0  0  0  0
    8.7110    0.2680   21.3710 C   0  0  0  0  0  0  0  0  0  0  0  0
    8.7400    1.4790   21.0700 O   0  0  0  0  0  0  0  0  0  0  0  0
    7.7430   -0.6260   20.9750 C   0  0  0  0  0  0  0  0  0  0  0  0
    6.9400   -0.1420   20.0350 C   0  0  0  0  0  0  0  0  0  0  0  0
    7.2470   -0.4310   18.6210 C   0  0  0  0  0  0  0  0  0  0  0  0
    6.2830    0.2020   17.9130 N   0  0  0  0  0  0  0  0  0  0  0  0
    5.4030    0.8470   18.7620 C   0  0  0  0  0  0  0  0  0  0  0  0
    4.3510    1.5540   18.3320 N   0  0  0  0  0  0  0  0  0  0  0  0
    3.6160    2.0930   19.3240 C   0  0  0  0  0  0  0  0  0  0  0  0
    3.9490    1.9230   20.7850 C   0  0  0  0  0  0  0  0  0  0  0  0
    5.0520    1.1880   21.1220 C   0  0  0  0  0  0  0  0  0  0  0  0
    5.7940    0.6380   20.0980 C   0  0  0  0  0  0  0  0  0  0  0  0
    9.0420   -0.5900   23.4630 C   0  0  0  0  0  0  0  0  0  0  0  0
    9.8850   -1.3660   24.1900 C   0  0  0  0  0  0  0  0  0  0  0  0
  1  2  1  0
  2  3  2  0
  2  4  1  0
  4  5  1  0
  6  5  1  6
  6  7  1  0
  7  8  2  0
  8  9  1  0
  9 10  1  0
 10 11  1  0
 11 12  2  0
 12 13  1  0
 13 14  1  0
 13 15  2  0
  7 16  1  0
 10 16  2  0
 15 16  1  0
  6 17  1  0
 17 18  1  0
 18 19  1  0
 19 20  1  0
 20 21  1  0
 21 22  2  0
 21 23  1  0
 23 24  1  0
 24 25  2  0
 25 26  1  0
 26 27  1  0
 27 28  1  0
 28 29  2  0
 29 30  1  0
 30 31  2  0
 24 32  1  0
 27 32  2  0
 31 32  1  0
 20 33  1  0
 17 34  1  0
 33 34  1  0
M  END
