MAK-UNK-b1d4dcd7-7
     RDKit          3D

 29 32  0  0  0  0  0  0  0  0999 V2000
    9.1130    0.4670   21.7460 C   0  0  0  0  0  0  0  0  0  0  0  0
    7.8720    0.8510   21.2200 C   0  0  2  0  0  0  0  0  0  0  0  0
    7.4500    2.0770   21.7290 C   0  0  1  0  0  0  0  0  0  0  0  0
    8.2030    3.1000   21.0980 O   0  0  0  0  0  0  0  0  0  0  0  0
    6.0910    2.3800   21.7010 C   0  0  0  0  0  0  0  0  0  0  0  0
    5.3200    1.4370   22.2330 C   0  0  0  0  0  0  0  0  0  0  0  0
    5.8650    0.0680   22.2420 C   0  0  0  0  0  0  0  0  0  0  0  0
    6.9480   -0.1860   21.2580 N   0  0  0  0  0  0  0  0  0  0  0  0
    6.4980   -0.8210   19.9320 C   0  0  1  0  0  0  0  0  0  0  0  0
    6.1080   -2.1550   20.2290 C   0  0  0  0  0  0  0  0  0  0  0  0
    5.2260   -2.8740   19.7410 O   0  0  0  0  0  0  0  0  0  0  0  0
    7.0070   -2.4940   21.2040 N   0  0  0  0  0  0  0  0  0  0  0  0
    8.0540   -1.6620   21.2640 C   0  0  0  0  0  0  0  0  0  0  0  0
    9.2250   -2.0280   21.8200 C   0  0  0  0  0  0  0  0  0  0  0  0
    8.9480   -2.3820   23.1840 N   0  0  0  0  0  0  0  0  0  0  0  0
   10.2810   -2.7420   23.6560 C   0  0  0  0  0  0  0  0  0  0  0  0
   11.0650   -1.6070   23.6500 C   0  0  0  0  0  0  0  0  0  0  0  0
   12.1760   -1.4490   22.8340 C   0  0  0  0  0  0  0  0  0  0  0  0
   12.7840   -0.2160   22.9970 C   0  0  0  0  0  0  0  0  0  0  0  0
   12.1410    0.5910   23.9420 C   0  0  0  0  0  0  0  0  0  0  0  0
   10.7840   -0.2210   24.6230 S   0  0  0  0  0  0  0  0  0  0  0  0
    7.9150   -3.4530   23.1150 C   0  0  0  0  0  0  0  0  0  0  0  0
    6.7160   -3.0880   22.4450 C   0  0  0  0  0  0  0  0  0  0  0  0
    5.4700    0.1830   19.4660 C   0  0  0  0  0  0  0  0  0  0  0  0
    5.7050    0.9940   18.3630 C   0  0  0  0  0  0  0  0  0  0  0  0
    4.7580    1.9380   18.0010 C   0  0  0  0  0  0  0  0  0  0  0  0
    3.5800    2.0720   18.7410 C   0  0  0  0  0  0  0  0  0  0  0  0
    3.3420    1.2570   19.8300 C   0  0  0  0  0  0  0  0  0  0  0  0
    4.2980    0.3180   20.1780 C   0  0  0  0  0  0  0  0  0  0  0  0
  2  1  1  1
  2  3  1  0
  3  4  1  6
  3  5  1  0
  5  6  1  0
  6  7  1  0
  2  8  1  0
  7  8  1  0
  8  9  1  0
  9 10  1  1
 10 11  2  0
 10 12  1  0
 12 13  1  0
 13 14  1  0
 14 15  1  0
 15 16  1  0
 16 17  1  0
 17 18  2  0
 18 19  1  0
 19 20  2  0
 17 21  1  0
 20 21  1  0
 15 22  1  0
 12 23  1  0
 22 23  1  0
  9 24  1  0
 24 25  2  0
 25 26  1  0
 26 27  2  0
 27 28  1  0
 24 29  1  0
 28 29  2  0
M  END
