MAK-UNK-37f1d6fa-8
     RDKit          3D

 31 34  0  0  0  0  0  0  0  0999 V2000
    8.6300    1.4690   21.0080 O   0  0  0  0  0  0  0  0  0  0  0  0
    8.4070    0.4010   21.5710 C   0  0  0  0  0  0  0  0  0  0  0  0
    7.3140   -0.4490   21.1400 N   0  0  0  0  0  0  0  0  0  0  0  0
    6.5380    0.1160   20.1960 C   0  0  0  0  0  0  0  0  0  0  0  0
    5.3990    0.8020   20.4320 C   0  0  0  0  0  0  0  0  0  0  0  0
    4.6010    1.4410   19.3200 C   0  0  0  0  0  0  0  0  0  0  0  0
    5.1120    1.3000   17.8930 C   0  0  0  0  0  0  0  0  0  0  0  0
    6.3290    0.5270   17.8040 N   0  0  0  0  0  0  0  0  0  0  0  0
    6.9900   -0.0280   18.8710 C   0  0  0  0  0  0  0  0  0  0  0  0
    9.1740   -0.0630   22.6080 N   0  0  0  0  0  0  0  0  0  0  0  0
   10.5890    0.3220   22.6970 C   0  0  0  0  0  0  0  0  0  0  0  0
   11.6030   -0.9630   22.5490 C   0  0  0  0  0  0  0  0  0  0  0  0
   13.0170   -1.0540   22.5520 C   0  0  0  0  0  0  0  0  0  0  0  0
   13.3250    0.3950   22.7460 C   0  0  0  0  0  0  0  0  0  0  0  0
   12.0310    0.6090   22.7550 C   0  0  0  0  0  0  0  0  0  0  0  0
   11.1080    1.7240   22.8710 C   0  0  0  0  0  0  0  0  0  0  0  0
   12.1440    2.7000   22.9940 C   0  0  0  0  0  0  0  0  0  0  0  0
   13.2940    2.4820   22.7280 O   0  0  0  0  0  0  0  0  0  0  0  0
   11.7230    4.0440   23.4500 N   0  0  0  0  0  0  0  0  0  0  0  0
   10.9380    4.8930   22.7060 C   0  0  0  0  0  0  0  0  0  0  0  0
   10.1820    5.7910   23.4520 C   0  0  0  0  0  0  0  0  0  0  0  0
    9.6930    5.2610   24.6380 C   0  0  0  0  0  0  0  0  0  0  0  0
    8.7040    4.3030   24.6790 C   0  0  0  0  0  0  0  0  0  0  0  0
    8.4150    3.9680   25.9300 N   0  0  0  0  0  0  0  0  0  0  0  0
    9.1960    4.6830   26.7790 C   0  0  0  0  0  0  0  0  0  0  0  0
    9.2130    4.6350   28.1840 C   0  0  0  0  0  0  0  0  0  0  0  0
   10.2220    5.5790   28.8280 C   0  0  0  0  0  0  0  0  0  0  0  0
   11.0550    6.4150   28.1120 C   0  0  0  0  0  0  0  0  0  0  0  0
   11.9230    7.2280   28.7370 F   0  0  0  0  0  0  0  0  0  0  0  0
   10.9570    6.3880   26.5770 C   0  0  0  0  0  0  0  0  0  0  0  0
   10.0310    5.5230   26.0060 C   0  0  0  0  0  0  0  0  0  0  0  0
  1  2  2  0
  2  3  1  0
  3  4  1  0
  4  5  2  0
  5  6  1  0
  6  7  2  0
  7  8  1  0
  4  9  1  0
  8  9  2  0
  2 10  1  0
 10 11  1  0
 11 12  2  0
 12 13  1  0
 13 14  2  0
 14 15  1  0
 11 16  1  0
 15 16  2  0
 16 17  1  0
 17 18  2  0
 17 19  1  0
 19 20  1  0
 20 21  1  0
 21 22  1  0
 22 23  2  0
 23 24  1  0
 24 25  1  0
 25 26  1  0
 26 27  2  0
 27 28  1  0
 28 29  1  0
 28 30  2  0
 22 31  1  0
 25 31  2  0
 30 31  1  0
M  END
