MAK-MCD-586a6efd-1
     RDKit          3D

 41 45  0  0  0  0  0  0  0  0999 V2000
    7.3240    0.6490   20.9030 O   0  0  0  0  0  0  0  0  0  0  0  0
    7.7890    0.4820   22.0350 C   0  0  0  0  0  0  0  0  0  0  0  0
    7.6840    1.4100   23.0820 N   0  0  0  0  0  0  0  0  0  0  0  0
    6.6110    1.7040   23.9020 C   0  0  0  0  0  0  0  0  0  0  0  0
    6.8450    2.5510   24.9310 C   0  0  0  0  0  0  0  0  0  0  0  0
    5.7530    2.9360   25.8770 C   0  0  0  0  0  0  0  0  0  0  0  0
    4.3820    2.3320   25.6240 C   0  0  0  0  0  0  0  0  0  0  0  0
    4.2380    1.3940   24.4390 C   0  0  0  0  0  0  0  0  0  0  0  0
    5.3450    1.1160   23.6280 C   0  0  0  0  0  0  0  0  0  0  0  0
    8.5000   -0.6940   22.4020 N   0  0  0  0  0  0  0  0  0  0  0  0
    7.8940   -1.6300   23.1110 C   0  0  0  0  0  0  0  0  0  0  0  0
    6.6990   -2.0900   22.3370 N   0  0  0  0  0  0  0  0  0  0  0  0
    7.0840   -2.9810   21.2310 C   0  0  0  0  0  0  0  0  0  0  0  0
    6.4120   -4.2220   21.2410 C   0  0  0  0  0  0  0  0  0  0  0  0
    5.7250   -4.5530   20.2320 O   0  0  0  0  0  0  0  0  0  0  0  0
    6.5590   -5.0010   22.4100 N   0  0  0  0  0  0  0  0  0  0  0  0
    7.3920   -4.4970   23.5000 C   0  0  0  0  0  0  0  0  0  0  0  0
    6.5080   -3.9670   24.6290 C   0  0  0  0  0  0  0  0  0  0  0  0
    5.8360   -5.1440   25.2100 N   0  0  0  0  0  0  0  0  0  0  0  0
    5.0110   -5.0070   26.6940 S   0  0  0  0  0  0  0  0  0  0  0  0
    4.5070   -6.3360   26.9850 O   0  0  0  0  0  0  0  0  0  0  0  0
    5.8330   -4.3210   27.6480 O   0  0  0  0  0  0  0  0  0  0  0  0
    3.5700   -4.0040   26.3520 C   0  0  0  0  0  0  0  0  0  0  0  0
    2.3010   -4.6760   26.1740 C   0  0  0  0  0  0  0  0  0  0  0  0
    1.2780   -3.8100   25.9430 C   0  0  0  0  0  0  0  0  0  0  0  0
    1.5360   -2.3270   25.8930 C   0  0  0  0  0  0  0  0  0  0  0  0
    2.7640   -1.6870   26.0540 C   0  0  0  0  0  0  0  0  0  0  0  0
    2.9390   -0.3660   25.9970 F   0  0  0  0  0  0  0  0  0  0  0  0
    3.7770   -2.6010   26.2880 C   0  0  0  0  0  0  0  0  0  0  0  0
    5.0320   -5.7560   24.2770 C   0  0  0  0  0  0  0  0  0  0  0  0
    3.8000   -6.4590   24.7980 C   0  0  0  0  0  0  0  0  0  0  0  0
    2.9830   -7.0780   23.7390 C   0  0  0  0  0  0  0  0  0  0  0  0
    3.3380   -7.0140   22.4770 N   0  0  0  0  0  0  0  0  0  0  0  0
    4.4950   -6.3630   22.1080 C   0  0  0  0  0  0  0  0  0  0  0  0
    5.4010   -5.6830   22.9510 C   0  0  0  0  0  0  0  0  0  0  0  0
    9.9490   -0.6270   22.5020 C   0  0  0  0  0  0  0  0  0  0  0  0
   10.8770   -1.8600   22.3580 C   0  0  0  0  0  0  0  0  0  0  0  0
   12.3740   -1.5850   22.4940 C   0  0  0  0  0  0  0  0  0  0  0  0
   12.7870   -0.2880   22.7290 C   0  0  0  0  0  0  0  0  0  0  0  0
   11.9580    0.7650   22.8470 N   0  0  0  0  0  0  0  0  0  0  0  0
   10.6070    0.5840   22.7380 C   0  0  0  0  0  0  0  0  0  0  0  0
  1  2  2  0
  2  3  1  0
  3  4  1  0
  4  5  2  0
  5  6  1  0
  6  7  2  0
  7  8  1  0
  4  9  1  0
  8  9  2  0
  2 10  1  0
 10 11  1  0
 11 12  1  0
 12 13  1  0
 13 14  1  0
 14 15  2  0
 14 16  1  0
 16 17  1  0
 17 18  1  0
 18 19  1  0
 19 20  1  0
 20 21  2  0
 20 22  2  0
 20 23  1  0
 23 24  2  0
 24 25  1  0
 25 26  2  0
 26 27  1  0
 27 28  1  0
 23 29  1  0
 27 29  2  0
 19 30  1  0
 30 31  2  0
 31 32  1  0
 32 33  2  0
 33 34  1  0
 16 35  1  0
 30 35  1  0
 34 35  2  0
 10 36  1  0
 36 37  2  0
 37 38  1  0
 38 39  2  0
 39 40  1  0
 36 41  1  0
 40 41  2  0
M  END
