MAK-UNK-de9577cf-11
     RDKit          3D

 37 40  0  0  0  0  0  0  0  0999 V2000
   13.2610   -2.4810   23.1200 C   0  0  0  0  0  0  0  0  0  0  0  0
   12.7470   -1.2930   23.9090 C   0  0  1  0  0  0  0  0  0  0  0  0
   12.6840   -1.4030   25.1930 C   0  0  0  0  0  0  0  0  0  0  0  0
   13.3510   -2.4680   25.6300 C   0  0  0  0  0  0  0  0  0  0  0  0
   12.7770   -3.6210   25.4680 C   0  0  0  0  0  0  0  0  0  0  0  0
   13.6710   -4.3740   26.0050 C   0  0  0  0  0  0  0  0  0  0  0  0
   14.1400   -5.3420   26.3350 C   0  0  0  0  0  0  0  0  0  0  0  0
   14.1960   -6.4010   26.2240 C   0  0  0  0  0  0  0  0  0  0  0  0
   14.7760   -7.8570   26.6000 C   0  0  0  0  0  0  0  0  0  0  0  0
   15.4790   -7.7000   27.2860 C   0  0  0  0  0  0  0  0  0  0  0  0
   15.5690   -6.3930   27.6800 C   0  0  0  0  0  0  0  0  0  0  0  0
   14.7470   -5.1860   27.0450 C   0  0  0  0  0  0  0  0  0  0  0  0
   14.3960   -3.9240   26.9320 F   0  0  0  0  0  0  0  0  0  0  0  0
   14.6530   -4.2180   26.5120 N   0  0  0  0  0  0  0  0  0  0  0  0
   15.7690   -5.7630   27.3900 S   0  0  0  0  0  0  0  0  0  0  0  0
   15.5260   -7.2140   27.2770 O   0  0  0  0  0  0  0  0  0  0  0  0
   15.2360   -5.8310   28.6830 O   0  0  0  0  0  0  0  0  0  0  0  0
   18.3050   -4.4220   27.1330 C   0  0  0  0  0  0  0  0  0  0  0  0
   18.9950   -2.8930   26.7350 C   0  0  0  0  0  0  0  0  0  0  0  0
   20.5190   -2.5460   26.5090 C   0  0  0  0  0  0  0  0  0  0  0  0
   21.6330   -3.4580   26.6150 C   0  0  0  0  0  0  0  0  0  0  0  0
   21.3350   -4.8610   27.0340 N   0  0  0  0  0  0  0  0  0  0  0  0
   19.7630   -5.1740   27.2770 C   0  0  0  0  0  0  0  0  0  0  0  0
   14.6140   -2.7610   26.2920 C   0  0  0  0  0  0  0  0  0  0  0  0
   13.6060   -0.2490   23.7840 O   0  0  0  0  0  0  0  0  0  0  0  0
   13.1990    0.2160   22.6960 C   0  0  0  0  0  0  0  0  0  0  0  0
   13.4690   -0.4510   21.5590 O   0  0  0  0  0  0  0  0  0  0  0  0
   12.3780    1.4720   22.9810 C   0  0  0  0  0  0  0  0  0  0  0  0
   11.1140    1.3390   23.5310 C   0  0  0  0  0  0  0  0  0  0  0  0
   10.2910    2.5610   23.8220 C   0  0  0  0  0  0  0  0  0  0  0  0
   10.8480    3.8130   23.5220 C   0  0  0  0  0  0  0  0  0  0  0  0
    9.9680    5.3120   23.8280 S   0  0  0  0  0  0  0  0  0  0  0  0
    8.7920    5.2700   22.6340 N   0  0  0  0  0  0  0  0  0  0  0  0
   10.8280    6.4260   23.4720 O   0  0  0  0  0  0  0  0  0  0  0  0
    9.2830    5.2520   25.1130 O   0  0  0  0  0  0  0  0  0  0  0  0
   12.1260    3.9000   22.9710 C   0  0  0  0  0  0  0  0  0  0  0  0
   12.8730    2.7570   22.7100 C   0  0  0  0  0  0  0  0  0  0  0  0
  2  1  1  6
  2  3  1  0
  3  4  1  0
  4  5  1  0
  5  6  2  0
  6  7  1  0
  7  8  2  0
  8  9  1  0
  9 10  2  0
 10 11  1  0
  7 12  1  0
 11 12  2  0
 12 13  1  0
  6 14  1  0
 14 15  1  0
 15 16  2  0
 15 17  2  0
 15 18  1  0
 18 19  2  0
 19 20  1  0
 20 21  2  0
 21 22  1  0
 18 23  1  0
 22 23  2  0
  4 24  2  0
 14 24  1  0
  2 25  1  0
 25 26  1  0
 26 27  2  0
 26 28  1  0
 28 29  2  0
 29 30  1  0
 30 31  2  0
 31 32  1  0
 32 33  1  0
 32 34  2  0
 32 35  2  0
 31 36  1  0
 28 37  1  0
 36 37  2  0
M  END
