MAK-UNK-6435e6c2-10
     RDKit          3D

 17 18  0  0  0  0  0  0  0  0999 V2000
    6.3250   -2.9370   21.0300 C   0  0  0  0  0  0  0  0  0  0  0  0
    5.9710   -4.2200   20.8180 C   0  0  0  0  0  0  0  0  0  0  0  0
    5.2160   -4.4510   19.6270 O   0  0  0  0  0  0  0  0  0  0  0  0
    6.4030   -5.1830   21.7940 N   0  0  0  0  0  0  0  0  0  0  0  0
    7.2370   -4.8280   22.8120 C   0  0  0  0  0  0  0  0  0  0  0  0
    6.5050   -4.6580   24.1530 C   0  0  0  0  0  0  0  0  0  0  0  0
    5.0930   -4.7610   24.1350 N   0  0  0  0  0  0  0  0  0  0  0  0
    4.4300   -4.9780   25.6880 S   0  0  0  0  0  0  0  0  0  0  0  0
    4.0000   -6.3490   25.7950 O   0  0  0  0  0  0  0  0  0  0  0  0
    5.3470   -4.3720   26.6240 O   0  0  0  0  0  0  0  0  0  0  0  0
    2.9510   -4.0890   25.7900 C   0  0  0  0  0  0  0  0  0  0  0  0
    1.8560   -3.9960   25.5590 C   0  0  0  0  0  0  0  0  0  0  0  0
    1.6470   -2.9790   26.5060 C   0  0  0  0  0  0  0  0  0  0  0  0
    0.3740   -2.4060   26.1360 S   0  0  0  0  0  0  0  0  0  0  0  0
    2.2210   -2.7530   25.6630 C   0  0  0  0  0  0  0  0  0  0  0  0
    4.5900   -5.6400   23.1710 C   0  0  0  0  0  0  0  0  0  0  0  0
    5.5400   -6.2070   22.1330 C   0  0  0  0  0  0  0  0  0  0  0  0
  1  2  1  0
  2  3  2  0
  2  4  1  0
  4  5  1  0
  5  6  1  0
  6  7  1  0
  7  8  1  0
  8  9  2  0
  8 10  2  0
  8 11  1  0
 11 12  1  0
 12 13  2  0
 13 14  1  0
 11 15  2  0
 14 15  1  0
  7 16  1  0
  4 17  1  0
 16 17  1  0
M  END
