MAK-UNK-5e88aa6a-14
     RDKit          3D

 12 13  0  0  0  0  0  0  0  0999 V2000
   12.6990   -2.3620   22.7950 C   0  0  0  0  0  0  0  0  0  0  0  0
   11.4960   -1.4930   22.9220 C   0  0  0  0  0  0  0  0  0  0  0  0
   12.8720   -0.8050   22.7980 C   0  0  0  0  0  0  0  0  0  0  0  0
   13.2700    0.6590   22.7740 C   0  0  0  0  0  0  0  0  0  0  0  0
   12.1440    1.5560   22.8790 C   0  0  0  0  0  0  0  0  0  0  0  0
   12.0900    3.0770   22.8760 C   0  0  0  0  0  0  0  0  0  0  0  0
   13.1740    3.8970   22.5880 C   0  0  0  0  0  0  0  0  0  0  0  0
   12.9890    5.2740   22.6170 C   0  0  0  0  0  0  0  0  0  0  0  0
   11.3890    5.6930   23.0230 S   0  0  0  0  0  0  0  0  0  0  0  0
   10.9800    3.8520   23.1520 C   0  0  0  0  0  0  0  0  0  0  0  0
   10.8970    0.9720   22.9940 C   0  0  0  0  0  0  0  0  0  0  0  0
   10.6430   -0.3590   23.0160 N   0  0  0  0  0  0  0  0  0  0  0  0
  1  2  1  0
  2  3  2  0
  3  4  1  0
  4  5  2  0
  5  6  1  0
  6  7  1  0
  7  8  2  0
  8  9  1  0
  6 10  2  0
  9 10  1  0
  5 11  1  0
  2 12  1  0
 11 12  2  0
M  END
