MAK-UNK-9955b1f3-4
     RDKit          3D

 20 21  0  0  0  0  0  0  0  0999 V2000
    5.8930    0.4060   23.9020 C   0  0  0  0  0  0  0  0  0  0  0  0
    7.2390    0.7690   23.3870 C   0  0  0  0  0  0  0  0  0  0  0  0
    8.3290    0.1810   23.8210 N   0  0  0  0  0  0  0  0  0  0  0  0
    8.2320   -1.1670   24.1720 C   0  0  0  0  0  0  0  0  0  0  0  0
    7.4900   -2.0960   23.2640 C   0  0  0  0  0  0  0  0  0  0  0  0
    7.1940   -3.3900   23.8860 N   0  0  0  0  0  0  0  0  0  0  0  0
    8.2850   -4.3030   23.6000 C   0  0  0  0  0  0  0  0  0  0  0  0
    7.7040   -5.7010   23.5630 C   0  0  0  0  0  0  0  0  0  0  0  0
    6.2660   -5.6550   24.0770 C   0  0  0  0  0  0  0  0  0  0  0  0
    6.2410   -5.6240   25.2920 O   0  0  0  0  0  0  0  0  0  0  0  0
    5.9470   -4.3490   25.8620 C   0  0  0  0  0  0  0  0  0  0  0  0
    6.6160   -3.2620   25.2480 C   0  0  0  0  0  0  0  0  0  0  0  0
    9.6230    0.6170   23.2350 C   0  0  0  0  0  0  0  0  0  0  0  0
   10.7640   -0.3490   23.4620 C   0  0  1  0  0  0  0  0  0  0  0  0
   10.7690   -1.3550   22.7470 O   0  0  0  0  0  0  0  0  0  0  0  0
   12.0000   -1.7230   22.3200 C   0  0  0  0  0  0  0  0  0  0  0  0
   12.8620   -0.7490   22.6900 C   0  0  1  0  0  0  0  0  0  0  0  0
   13.7140   -0.3600   21.7470 O   0  0  0  0  0  0  0  0  0  0  0  0
   12.1850    0.2800   23.2800 C   0  0  1  0  0  0  0  0  0  0  0  0
   12.2590    1.4960   22.5650 O   0  0  0  0  0  0  0  0  0  0  0  0
  1  2  1  0
  2  3  1  0
  3  4  1  0
  4  5  1  0
  5  6  1  0
  6  7  1  0
  7  8  1  0
  8  9  1  0
  9 10  1  0
 10 11  1  0
  6 12  1  0
 11 12  1  0
  3 13  1  0
 14 13  1  6
 14 15  1  0
 15 16  1  0
 16 17  1  0
 17 18  1  6
 14 19  1  0
 17 19  1  0
 19 20  1  6
M  END
