MAK-UNK-9a6be56d-18
     RDKit          3D

 38 42  0  0  0  0  0  0  0  0999 V2000
    0.2000    0.2580   28.3940 C   0  0  0  0  0  0  0  0  0  0  0  0
    1.2240   -0.6260   28.0810 N   0  0  0  0  0  0  0  0  0  0  0  0
    1.4100   -1.3260   26.8690 C   0  0  0  0  0  0  0  0  0  0  0  0
    2.6710   -1.4620   26.2660 C   0  0  0  0  0  0  0  0  0  0  0  0
    3.2880   -0.5490   25.4270 C   0  0  0  0  0  0  0  0  0  0  0  0
    4.4970   -0.9310   24.9900 C   0  0  0  0  0  0  0  0  0  0  0  0
    5.3020   -0.1740   24.1370 C   0  0  0  0  0  0  0  0  0  0  0  0
    5.9870   -0.8300   23.0940 C   0  0  0  0  0  0  0  0  0  0  0  0
    6.8070   -0.0960   22.2240 C   0  0  0  0  0  0  0  0  0  0  0  0
    6.9220    1.2730   22.4160 C   0  0  0  0  0  0  0  0  0  0  0  0
    6.2470    1.9260   23.4410 C   0  0  0  0  0  0  0  0  0  0  0  0
    5.4320    1.2170   24.3110 C   0  0  0  0  0  0  0  0  0  0  0  0
    4.7920    1.8750   25.2920 F   0  0  0  0  0  0  0  0  0  0  0  0
    4.7260   -2.1310   25.5380 N   0  0  0  0  0  0  0  0  0  0  0  0
    6.1710   -2.9750   25.2540 S   0  0  0  0  0  0  0  0  0  0  0  0
    6.2480   -3.8430   26.4090 O   0  0  0  0  0  0  0  0  0  0  0  0
    6.2280   -3.5060   23.9100 O   0  0  0  0  0  0  0  0  0  0  0  0
    7.2800   -1.6840   25.3950 C   0  0  0  0  0  0  0  0  0  0  0  0
    6.9710   -0.6330   26.4510 C   0  0  0  0  0  0  0  0  0  0  0  0
    7.8860    0.5340   26.6320 C   0  0  0  0  0  0  0  0  0  0  0  0
    9.0590    0.5150   25.6970 C   0  0  0  0  0  0  0  0  0  0  0  0
    9.3460   -0.4600   24.7280 C   0  0  0  0  0  0  0  0  0  0  0  0
   10.4550   -0.3480   23.9550 N   0  0  0  0  0  0  0  0  0  0  0  0
   11.2570   -1.5340   23.9480 C   0  0  0  0  0  0  0  0  0  0  0  0
   12.1260   -1.4860   22.8710 C   0  0  0  0  0  0  0  0  0  0  0  0
   13.1500   -0.3840   22.9820 C   0  0  0  0  0  0  0  0  0  0  0  0
   12.4060    0.9290   23.1580 C   0  0  0  0  0  0  0  0  0  0  0  0
   12.9820    2.1280   22.8690 C   0  0  0  0  0  0  0  0  0  0  0  0
   12.3080    3.4510   22.9960 C   0  0  0  0  0  0  0  0  0  0  0  0
   10.9990    3.4180   23.4610 C   0  0  0  0  0  0  0  0  0  0  0  0
   10.1080    4.9450   23.6490 S   0  0  0  0  0  0  0  0  0  0  0  0
   11.2020    6.0760   23.0360 N   0  0  0  0  0  0  0  0  0  0  0  0
    9.9110    5.2870   25.0260 O   0  0  0  0  0  0  0  0  0  0  0  0
    8.9940    4.9530   22.7410 O   0  0  0  0  0  0  0  0  0  0  0  0
   10.4030    2.1640   23.7750 C   0  0  0  0  0  0  0  0  0  0  0  0
   11.0950    0.9270   23.6250 C   0  0  0  0  0  0  0  0  0  0  0  0
    8.4420   -1.5600   24.5840 C   0  0  0  0  0  0  0  0  0  0  0  0
    3.6260   -2.5030   26.3310 C   0  0  0  0  0  0  0  0  0  0  0  0
  1  2  1  0
  2  3  1  0
  3  4  1  0
  4  5  1  0
  5  6  2  0
  6  7  1  0
  7  8  2  0
  8  9  1  0
  9 10  2  0
 10 11  1  0
  7 12  1  0
 11 12  2  0
 12 13  1  0
  6 14  1  0
 14 15  1  0
 15 16  2  0
 15 17  2  0
 15 18  1  0
 18 19  2  0
 19 20  1  0
 20 21  2  0
 21 22  1  0
 22 23  1  0
 23 24  1  0
 24 25  1  0
 25 26  1  0
 26 27  1  0
 27 28  2  0
 28 29  1  0
 29 30  2  0
 30 31  1  0
 31 32  1  0
 31 33  2  0
 31 34  2  0
 30 35  1  0
 23 36  1  0
 27 36  1  0
 35 36  2  0
 18 37  1  0
 22 37  2  0
  4 38  2  0
 14 38  1  0
M  END
