MAK-UNK-9a6be56d-5
     RDKit          3D

 38 42  0  0  0  0  0  0  0  0999 V2000
   15.0360    1.3280   19.3230 C   0  0  0  0  0  0  0  0  0  0  0  0
   14.7540    2.0990   18.1540 N   0  0  0  0  0  0  0  0  0  0  0  0
   14.8900    3.5100   18.4490 C   0  0  0  0  0  0  0  0  0  0  0  0
   14.0010    4.1030   19.3530 C   0  0  0  0  0  0  0  0  0  0  0  0
   14.5200    4.2180   20.4150 C   0  0  0  0  0  0  0  0  0  0  0  0
   13.8820    4.6880   21.2960 C   0  0  0  0  0  0  0  0  0  0  0  0
   14.8280    4.6010   22.0590 C   0  0  0  0  0  0  0  0  0  0  0  0
   15.5570    3.6790   22.1260 C   0  0  0  0  0  0  0  0  0  0  0  0
   16.6310    3.7270   22.9150 C   0  0  0  0  0  0  0  0  0  0  0  0
   17.1240    4.5550   23.6260 C   0  0  0  0  0  0  0  0  0  0  0  0
   16.4120    5.4670   23.5880 C   0  0  0  0  0  0  0  0  0  0  0  0
   15.1390    5.5660   22.7990 C   0  0  0  0  0  0  0  0  0  0  0  0
   14.1930    6.5380   22.6420 F   0  0  0  0  0  0  0  0  0  0  0  0
   12.6720    5.0710   21.1740 N   0  0  0  0  0  0  0  0  0  0  0  0
   11.5610    5.7560   22.4620 S   0  0  1  0  0  0  0  0  0  0  0  0
   10.2040    5.7800   22.1030 O   0  0  0  0  0  0  0  0  0  0  0  0
   11.7900    5.0020   23.9060 N   0  0  0  0  0  0  0  0  0  0  0  0
   10.2770    4.2980   24.2390 S   0  0  0  0  0  0  0  0  0  0  0  0
    9.7360    4.2720   25.5820 O   0  0  0  0  0  0  0  0  0  0  0  0
    9.2450    4.4730   23.2430 O   0  0  0  0  0  0  0  0  0  0  0  0
   10.9560    2.6670   23.8950 C   0  0  0  0  0  0  0  0  0  0  0  0
   12.2810    2.5940   23.4660 C   0  0  0  0  0  0  0  0  0  0  0  0
   12.9700    1.4160   23.1640 C   0  0  0  0  0  0  0  0  0  0  0  0
   12.3150    0.2280   23.2640 C   0  0  0  0  0  0  0  0  0  0  0  0
   10.9650    0.1360   23.6670 C   0  0  0  0  0  0  0  0  0  0  0  0
   10.2320    1.4250   24.0170 C   0  0  0  0  0  0  0  0  0  0  0  0
   10.4300   -1.1570   23.7270 N   0  0  0  0  0  0  0  0  0  0  0  0
    9.1050   -1.4340   23.7140 C   0  0  0  0  0  0  0  0  0  0  0  0
   11.2900   -2.1820   23.6520 C   0  0  0  0  0  0  0  0  0  0  0  0
   12.2690   -2.0980   22.6670 C   0  0  0  0  0  0  0  0  0  0  0  0
   13.0960   -1.0350   22.9250 C   0  0  0  0  0  0  0  0  0  0  0  0
   11.4840    7.3330   23.2410 C   0  0  0  0  0  0  0  0  0  0  0  0
   12.4580    8.2830   23.3700 C   0  0  0  0  0  0  0  0  0  0  0  0
   12.0400    9.5670   24.1220 C   0  0  0  0  0  0  0  0  0  0  0  0
   10.7340    9.6250   24.6060 C   0  0  0  0  0  0  0  0  0  0  0  0
    9.8320    8.6590   24.4510 N   0  0  0  0  0  0  0  0  0  0  0  0
   10.2220    7.5580   23.7810 C   0  0  0  0  0  0  0  0  0  0  0  0
   12.7190    4.6890   19.7260 C   0  0  0  0  0  0  0  0  0  0  0  0
  1  2  1  0
  2  3  1  0
  3  4  1  0
  4  5  1  0
  5  6  2  0
  6  7  1  0
  7  8  2  0
  8  9  1  0
  9 10  2  0
 10 11  1  0
  7 12  1  0
 11 12  2  0
 12 13  1  0
  6 14  1  0
 14 15  1  0
 15 16  2  0
 15 17  2  0
 18 17  1  0
 18 19  2  0
 18 20  2  0
 18 21  1  0
 21 22  2  0
 22 23  1  0
 23 24  2  0
 24 25  1  0
 21 26  1  0
 25 26  2  0
 25 27  1  0
 27 28  1  0
 27 29  1  0
 29 30  1  0
 24 31  1  0
 30 31  1  0
 15 32  1  1
 32 33  2  0
 33 34  1  0
 34 35  2  0
 35 36  1  0
 32 37  1  0
 36 37  2  0
  4 38  2  0
 14 38  1  0
M  END
