MAK-UNK-1cb0e944-1
     RDKit          3D

 20 21  0  0  0  0  0  0  0  0999 V2000
    8.3610    5.6010   29.1760 N   0  0  0  0  0  0  0  0  0  0  0  0
    8.3600    4.0690   29.8780 S   0  0  0  0  0  0  0  0  0  0  0  0
    8.0690    4.3110   31.2720 O   0  0  0  0  0  0  0  0  0  0  0  0
    9.6080    3.4690   29.4610 O   0  0  0  0  0  0  0  0  0  0  0  0
    6.9740    3.2740   29.0440 C   0  0  0  0  0  0  0  0  0  0  0  0
    7.3850    1.9850   28.3710 C   0  0  0  0  0  0  0  0  0  0  0  0
    7.4810    1.8460   26.9350 C   0  0  0  0  0  0  0  0  0  0  0  0
    7.8790    0.5480   26.7960 N   0  0  0  0  0  0  0  0  0  0  0  0
    8.1530   -0.1650   25.5540 C   0  0  0  0  0  0  0  0  0  0  0  0
    7.5760   -1.4160   25.5040 C   0  0  0  0  0  0  0  0  0  0  0  0
    7.0760   -1.0040   26.5410 O   0  0  0  0  0  0  0  0  0  0  0  0
    8.3280   -1.5020   24.3220 N   0  0  0  0  0  0  0  0  0  0  0  0
    9.7210   -1.9390   24.1840 C   0  0  0  0  0  0  0  0  0  0  0  0
    9.7320   -3.3200   24.0070 C   0  0  0  0  0  0  0  0  0  0  0  0
    8.3050   -3.8950   24.1270 C   0  0  0  0  0  0  0  0  0  0  0  0
    7.5420   -3.3680   25.2170 O   0  0  0  0  0  0  0  0  0  0  0  0
    7.5520   -3.3620   22.9790 C   0  0  0  0  0  0  0  0  0  0  0  0
    7.5360   -1.8860   23.1860 C   0  0  0  0  0  0  0  0  0  0  0  0
    8.0130   -0.0610   28.0090 N   0  0  0  0  0  0  0  0  0  0  0  0
    7.7130    0.8080   28.9790 N   0  0  0  0  0  0  0  0  0  0  0  0
  2  1  1  0
  2  3  2  0
  2  4  2  0
  2  5  1  0
  5  6  1  0
  6  7  2  0
  7  8  1  0
  8  9  1  0
  9 10  1  0
 10 11  2  0
 10 12  1  0
 12 13  1  0
 13 14  1  0
 14 15  1  0
 15 16  1  0
 15 17  1  0
 12 18  1  0
 17 18  1  0
  8 19  1  0
  6 20  1  0
 19 20  2  0
M  END
