MAK-UNK-acefcb18-31
     RDKit          3D

 26 28  0  0  0  0  0  0  0  0999 V2000
    5.1160    0.7690   33.1850 C   0  0  0  0  0  0  0  0  0  0  0  0
    4.8410   -0.2700   32.3100 C   0  0  0  0  0  0  0  0  0  0  0  0
    3.8700   -1.2530   32.6360 C   0  0  0  0  0  0  0  0  0  0  0  0
    3.6120   -2.3520   31.6660 C   0  0  0  0  0  0  0  0  0  0  0  0
    4.3880   -2.3750   30.3870 C   0  0  0  0  0  0  0  0  0  0  0  0
    4.2120   -3.3710   29.4270 C   0  0  0  0  0  0  0  0  0  0  0  0
    5.3630   -4.0840   29.3490 O   0  0  0  0  0  0  0  0  0  0  0  0
    5.3550   -5.1760   28.4440 C   0  0  0  0  0  0  0  0  0  0  0  0
    4.3000   -5.4170   27.4820 O   0  0  0  0  0  0  0  0  0  0  0  0
    6.3730   -6.1220   28.4130 C   0  0  0  0  0  0  0  0  0  0  0  0
    7.2360   -5.9180   27.3300 C   0  0  0  0  0  0  0  0  0  0  0  0
    7.9730   -4.7300   27.5690 O   0  0  0  0  0  0  0  0  0  0  0  0
    8.1430   -3.9290   26.3930 C   0  0  0  0  0  0  0  0  0  0  0  0
    8.9210   -4.5680   25.4870 C   0  0  0  0  0  0  0  0  0  0  0  0
    9.3160   -3.5110   24.6960 C   0  0  0  0  0  0  0  0  0  0  0  0
    8.3260   -2.8410   23.9160 N   0  0  0  0  0  0  0  0  0  0  0  0
    8.8520   -1.5530   23.2500 C   0  0  0  0  0  0  0  0  0  0  0  0
   10.2540   -1.3510   22.9690 C   0  0  0  0  0  0  0  0  0  0  0  0
   10.9200   -0.1990   23.3570 C   0  0  0  0  0  0  0  0  0  0  0  0
   12.2700   -0.0790   23.0450 C   0  0  0  0  0  0  0  0  0  0  0  0
   12.7830   -1.4580   22.2040 S   0  0  0  0  0  0  0  0  0  0  0  0
   11.1880   -2.1400   22.3060 C   0  0  0  0  0  0  0  0  0  0  0  0
    7.1400   -2.5760   24.7510 C   0  0  0  0  0  0  0  0  0  0  0  0
    6.8840   -3.6740   25.6010 C   0  0  0  0  0  0  0  0  0  0  0  0
    5.3280   -1.3770   30.1240 C   0  0  0  0  0  0  0  0  0  0  0  0
    5.5360   -0.3530   31.0790 C   0  0  0  0  0  0  0  0  0  0  0  0
  1  2  1  0
  2  3  2  0
  3  4  1  0
  4  5  2  0
  5  6  1  0
  6  7  1  0
  7  8  1  0
  8  9  2  0
  8 10  1  0
 10 11  1  0
 11 12  1  0
 12 13  1  0
 13 14  1  0
 14 15  1  0
 15 16  1  0
 16 17  1  0
 17 18  1  0
 18 19  1  0
 19 20  2  0
 20 21  1  0
 18 22  2  0
 21 22  1  0
 16 23  1  0
 13 24  1  0
 23 24  1  0
  5 25  1  0
  2 26  1  0
 25 26  2  0
M  END
