MAK-UNK-01147c51-4
     RDKit          3D

 22 24  0  0  0  0  0  0  0  0999 V2000
    9.4660   -2.9150   24.1270 C   0  0  0  0  0  0  0  0  0  0  0  0
   10.6260   -2.2930   24.7470 N   0  0  0  0  0  0  0  0  0  0  0  0
   11.8510   -3.1020   24.6050 C   0  0  1  0  0  0  0  0  0  0  0  0
   13.0130   -2.4950   24.0520 C   0  0  0  0  0  0  0  0  0  0  0  0
   13.9030   -1.9970   25.1220 C   0  0  0  0  0  0  0  0  0  0  0  0
   14.9610   -2.7300   25.9400 C   0  0  2  0  0  0  0  0  0  0  0  0
   16.7700   -3.0850   25.6360 C   0  0  2  0  0  0  0  0  0  0  0  0
   18.0640   -3.6600   26.3650 C   0  0  0  0  0  0  0  0  0  0  0  0
   19.5270   -3.5410   25.8840 C   0  0  0  0  0  0  0  0  0  0  0  0
   19.8000   -2.6460   24.9930 C   0  0  0  0  0  0  0  0  0  0  0  0
   21.0740   -2.3670   24.4390 C   0  0  0  0  0  0  0  0  0  0  0  0
   22.1920   -3.0890   24.8300 C   0  0  0  0  0  0  0  0  0  0  0  0
   21.9250   -4.1330   25.8280 C   0  0  0  0  0  0  0  0  0  0  0  0
   22.8100   -5.0110   26.3970 O   0  0  0  0  0  0  0  0  0  0  0  0
   20.6400   -4.2870   26.2750 C   0  0  0  0  0  0  0  0  0  0  0  0
   20.5450   -5.3120   27.1920 O   0  0  0  0  0  0  0  0  0  0  0  0
   18.7480   -1.9790   24.6130 C   0  0  2  0  0  0  0  0  0  0  0  0
   19.3660   -0.6410   24.3540 C   0  0  0  0  0  0  0  0  0  0  0  0
   20.4800   -0.8540   23.4240 N   0  0  0  0  0  0  0  0  0  0  0  0
   17.5340   -2.0010   25.4910 O   0  0  0  0  0  0  0  0  0  0  0  0
   13.8480   -3.8880   26.1940 C   0  0  0  0  0  0  0  0  0  0  0  0
   12.3670   -3.8250   25.8350 C   0  0  0  0  0  0  0  0  0  0  0  0
  1  2  1  0
  3  2  1  1
  3  4  1  0
  4  5  1  0
  6  5  1  6
  6  7  1  0
  7  8  1  1
  8  9  1  0
  9 10  2  0
 10 11  1  0
 11 12  2  0
 12 13  1  0
 13 14  1  0
  9 15  1  0
 13 15  2  0
 15 16  1  0
 10 17  1  0
 17 18  1  1
 18 19  1  0
  7 20  1  0
 17 20  1  0
  6 21  1  0
  3 22  1  0
 21 22  1  0
M  END
