MAK-UNK-5e88aa6a-10
     RDKit          3D

 21 22  0  0  0  0  0  0  0  0999 V2000
    4.3400    5.4670   21.7050 N   0  0  0  0  0  0  0  0  0  0  0  0
    4.7250    5.7110   23.1870 S   0  0  0  0  0  0  0  0  0  0  0  0
    5.7060    6.7710   23.1200 O   0  0  0  0  0  0  0  0  0  0  0  0
    3.7670    5.7470   24.2740 O   0  0  0  0  0  0  0  0  0  0  0  0
    5.7130    4.2550   23.4870 C   0  0  0  0  0  0  0  0  0  0  0  0
    5.8150    3.0620   22.0960 S   0  0  0  0  0  0  0  0  0  0  0  0
    7.1400    1.9740   22.7300 C   0  0  0  0  0  0  0  0  0  0  0  0
    6.7030    0.7700   23.2910 C   0  0  0  0  0  0  0  0  0  0  0  0
    7.2230    0.3690   24.5260 C   0  0  0  0  0  0  0  0  0  0  0  0
    7.0430    1.1200   25.7130 C   0  0  0  0  0  0  0  0  0  0  0  0
    7.7200    0.5400   27.1790 S   0  0  0  0  0  0  0  0  0  0  0  0
    8.3290   -0.7940   26.3250 C   0  0  0  0  0  0  0  0  0  0  0  0
    7.9990   -0.8150   24.8310 C   0  0  0  0  0  0  0  0  0  0  0  0
    8.4780   -1.9580   23.9540 C   0  0  0  0  0  0  0  0  0  0  0  0
    8.1400   -3.1900   24.4410 N   0  0  0  0  0  0  0  0  0  0  0  0
    9.1320   -3.9340   24.8770 C   0  0  0  0  0  0  0  0  0  0  0  0
    8.9920   -5.1190   25.4630 C   0  0  0  0  0  0  0  0  0  0  0  0
    8.1490   -5.0600   26.5520 C   0  0  0  0  0  0  0  0  0  0  0  0
    8.4970   -4.5940   27.6240 O   0  0  0  0  0  0  0  0  0  0  0  0
    6.9890   -4.3480   26.2230 C   0  0  0  0  0  0  0  0  0  0  0  0
    7.1980   -3.1120   25.5730 C   0  0  0  0  0  0  0  0  0  0  0  0
  2  1  1  0
  2  3  2  0
  2  4  2  0
  2  5  1  0
  5  6  1  0
  6  7  1  0
  7  8  1  0
  8  9  1  0
  9 10  2  0
 10 11  1  0
 11 12  1  0
  9 13  1  0
 12 13  2  0
 13 14  1  0
 14 15  1  0
 15 16  1  0
 16 17  1  0
 17 18  1  0
 18 19  1  0
 18 20  1  0
 15 21  1  0
 20 21  1  0
M  END
