MAK-UNK-1cb0e944-8
     RDKit          3D

 23 25  0  0  0  0  0  0  0  0999 V2000
    9.0400    2.8080   24.1830 N   0  0  0  0  0  0  0  0  0  0  0  0
    9.6270    2.3600   22.6940 S   0  0  0  0  0  0  0  0  0  0  0  0
   10.6500    3.3170   22.3720 O   0  0  0  0  0  0  0  0  0  0  0  0
    9.8990    0.9510   22.7830 O   0  0  0  0  0  0  0  0  0  0  0  0
    8.2580    2.6290   21.7970 N   0  0  0  0  0  0  0  0  0  0  0  0
    7.3440    3.7170   22.2140 C   0  0  0  0  0  0  0  0  0  0  0  0
    6.2140    3.1660   23.0470 C   0  0  0  0  0  0  0  0  0  0  0  0
    5.4560    2.2050   22.3040 O   0  0  0  0  0  0  0  0  0  0  0  0
    6.2470    1.0460   21.9330 C   0  0  2  0  0  0  0  0  0  0  0  0
    6.4340    0.1780   23.1940 C   0  0  0  0  0  0  0  0  0  0  0  0
    5.8300    0.7270   24.4830 C   0  0  0  0  0  0  0  0  0  0  0  0
    6.0040   -0.1140   25.7330 C   0  0  0  0  0  0  0  0  0  0  0  0
    6.7460   -1.4190   25.6150 C   0  0  0  0  0  0  0  0  0  0  0  0
    7.2820   -1.8710   24.3780 C   0  0  0  0  0  0  0  0  0  0  0  0
    7.9380   -3.0910   24.3370 N   0  0  0  0  0  0  0  0  0  0  0  0
    9.3220   -3.2500   24.7780 C   0  0  0  0  0  0  0  0  0  0  0  0
    9.2920   -4.4400   25.5010 C   0  0  0  0  0  0  0  0  0  0  0  0
    8.3780   -4.3420   26.5240 C   0  0  0  0  0  0  0  0  0  0  0  0
    8.7650   -5.1260   27.6510 O   0  0  0  0  0  0  0  0  0  0  0  0
    7.1160   -4.6260   26.0950 C   0  0  0  0  0  0  0  0  0  0  0  0
    7.0630   -4.2350   24.6150 C   0  0  0  0  0  0  0  0  0  0  0  0
    7.1150   -1.0700   23.2130 C   0  0  0  0  0  0  0  0  0  0  0  0
    7.5370    1.4700   21.1770 C   0  0  0  0  0  0  0  0  0  0  0  0
  2  1  1  0
  2  3  2  0
  2  4  2  0
  2  5  1  0
  5  6  1  0
  6  7  1  0
  7  8  1  0
  8  9  1  0
  9 10  1  1
 10 11  2  0
 11 12  1  0
 12 13  2  0
 13 14  1  0
 14 15  1  0
 15 16  1  0
 16 17  1  0
 17 18  1  0
 18 19  1  0
 18 20  1  0
 15 21  1  0
 20 21  1  0
 10 22  1  0
 14 22  2  0
  5 23  1  0
  9 23  1  0
M  END
