MAK-UNK-0d6072ac-31
     RDKit          3D

 19 21  0  0  0  0  0  0  0  0999 V2000
    4.3940   -2.9820   22.8950 C   0  0  0  0  0  0  0  0  0  0  0  0
    5.2660   -4.1420   22.5420 C   0  0  2  0  0  0  0  0  0  0  0  0
    4.8030   -5.4710   23.0820 C   0  0  0  0  0  0  0  0  0  0  0  0
    4.9800   -5.7770   24.2550 O   0  0  0  0  0  0  0  0  0  0  0  0
    4.2270   -6.1770   22.2050 O   0  0  0  0  0  0  0  0  0  0  0  0
    6.6960   -3.8410   22.9880 C   0  0  0  0  0  0  0  0  0  0  0  0
    7.2900   -4.8020   23.7730 C   0  0  0  0  0  0  0  0  0  0  0  0
    8.6410   -4.4930   24.2070 N   0  0  0  0  0  0  0  0  0  0  0  0
    9.3040   -3.2840   23.8350 C   0  0  0  0  0  0  0  0  0  0  0  0
    8.5350   -2.3390   22.9750 C   0  0  0  0  0  0  0  0  0  0  0  0
    7.2420   -2.6030   22.5480 N   0  0  0  0  0  0  0  0  0  0  0  0
    9.4020   -1.2200   22.7500 N   0  0  0  0  0  0  0  0  0  0  0  0
   10.6370   -1.4890   23.4560 C   0  0  0  0  0  0  0  0  0  0  0  0
   11.7210   -0.6200   23.4790 C   0  0  0  0  0  0  0  0  0  0  0  0
   12.8460   -0.9750   24.2020 C   0  0  0  0  0  0  0  0  0  0  0  0
   12.8670   -2.1900   24.8780 C   0  0  0  0  0  0  0  0  0  0  0  0
   14.1630   -2.7050   25.8130 Cl  0  0  0  0  0  0  0  0  0  0  0  0
   11.7050   -3.1000   24.8070 C   0  0  0  0  0  0  0  0  0  0  0  0
   10.6020   -2.7160   24.1030 C   0  0  0  0  0  0  0  0  0  0  0  0
  2  1  1  1
  2  3  1  0
  3  4  2  0
  3  5  1  0
  2  6  1  0
  6  7  2  0
  7  8  1  0
  8  9  2  0
  9 10  1  0
  6 11  1  0
 10 11  2  0
 10 12  1  0
 12 13  1  0
 13 14  1  0
 14 15  2  0
 15 16  1  0
 16 17  1  0
 16 18  2  0
  9 19  1  0
 13 19  2  0
 18 19  1  0
M  END
