MAK-UNK-2084232d-16
     RDKit          3D

 23 25  0  0  0  0  0  0  0  0999 V2000
   13.7630   -2.2160   25.1960 N   0  0  0  0  0  0  0  0  0  0  0  0
   12.3300   -2.5320   25.0570 C   0  0  0  0  0  0  0  0  0  0  0  0
   11.7070   -2.4800   23.9280 C   0  0  1  0  0  0  0  0  0  0  0  0
   10.4930   -3.4860   23.9750 O   0  0  0  0  0  0  0  0  0  0  0  0
    9.0680   -3.0520   23.7970 C   0  0  2  0  0  0  0  0  0  0  0  0
    7.9190   -4.0010   23.2650 C   0  0  1  0  0  0  0  0  0  0  0  0
    7.6170   -3.9070   21.9480 C   0  0  0  0  0  0  0  0  0  0  0  0
    6.2780   -4.1410   21.5990 C   0  0  1  0  0  0  0  0  0  0  0  0
    5.9930   -3.8330   20.4460 O   0  0  0  0  0  0  0  0  0  0  0  0
    5.7380   -5.3410   22.1060 C   0  0  0  0  0  0  0  0  0  0  0  0
    6.1810   -5.7200   23.5280 C   0  0  2  0  0  0  0  0  0  0  0  0
    5.4390   -5.0080   24.5190 O   0  0  0  0  0  0  0  0  0  0  0  0
    7.6600   -5.4730   23.6540 C   0  0  1  0  0  0  0  0  0  0  0  0
    8.1230   -6.3240   22.6240 O   0  0  0  0  0  0  0  0  0  0  0  0
    9.3890   -1.9430   22.9110 C   0  0  0  0  0  0  0  0  0  0  0  0
   10.6350   -1.9730   23.3840 C   0  0  0  0  0  0  0  0  0  0  0  0
   11.5140   -1.0630   23.3170 C   0  0  0  0  0  0  0  0  0  0  0  0
   12.7900   -0.7370   23.6620 C   0  0  0  0  0  0  0  0  0  0  0  0
   13.3900   -1.7360   24.3630 C   0  0  0  0  0  0  0  0  0  0  0  0
   12.6030   -2.9410   24.6330 C   0  0  0  0  0  0  0  0  0  0  0  0
   13.2870   -3.8700   25.3860 O   0  0  0  0  0  0  0  0  0  0  0  0
   11.2440   -3.0700   24.1370 C   0  0  0  0  0  0  0  0  0  0  0  0
   10.6280   -4.2600   24.4520 O   0  0  0  0  0  0  0  0  0  0  0  0
  1  2  1  0
  3  2  1  1
  3  4  1  0
  4  5  1  0
  5  6  1  0
  6  7  1  6
  7  8  1  0
  8  9  1  6
  8 10  1  0
 10 11  1  0
 11 12  1  1
  6 13  1  0
 11 13  1  0
 13 14  1  6
  5 15  1  6
 15 16  1  0
  3 17  1  0
 16 17  2  0
 17 18  1  0
 18 19  2  0
 19 20  1  0
 20 21  1  0
 16 22  1  0
 20 22  2  0
 22 23  1  0
M  END
