MAK-UNK-0d6072ac-22
     RDKit          3D

 20 22  0  0  0  0  0  0  0  0999 V2000
    6.4400   -5.9520   22.3300 C   0  0  0  0  0  0  0  0  0  0  0  0
    6.5640   -5.4460   23.7530 C   0  0  0  0  0  0  0  0  0  0  0  0
    7.3560   -4.5580   23.4310 C   0  0  0  0  0  0  0  0  0  0  0  0
    7.8470   -4.2210   22.3760 C   0  0  0  0  0  0  0  0  0  0  0  0
    8.5770   -3.3360   22.3830 C   0  0  0  0  0  0  0  0  0  0  0  0
    8.2380   -3.3700   23.8750 C   0  0  0  0  0  0  0  0  0  0  0  0
    7.2250   -4.4290   24.5710 C   0  0  0  0  0  0  0  0  0  0  0  0
    6.8640   -4.4870   26.0700 C   0  0  2  0  0  0  0  0  0  0  0  0
    7.0260   -3.1510   26.7410 C   0  0  0  0  0  0  0  0  0  0  0  0
    7.8270   -5.4850   26.7540 C   0  0  0  0  0  0  0  0  0  0  0  0
    9.0990   -5.7230   26.3320 O   0  0  0  0  0  0  0  0  0  0  0  0
    7.2970   -6.1510   27.8610 O   0  0  0  0  0  0  0  0  0  0  0  0
    9.3480   -2.6190   21.5630 N   0  0  0  0  0  0  0  0  0  0  0  0
    9.4590   -2.1750   22.7240 C   0  0  0  0  0  0  0  0  0  0  0  0
   10.1680   -1.1840   23.1530 C   0  0  0  0  0  0  0  0  0  0  0  0
    9.9020   -1.0960   24.4180 C   0  0  0  0  0  0  0  0  0  0  0  0
    9.0000   -1.9600   25.2200 C   0  0  0  0  0  0  0  0  0  0  0  0
    8.4740   -1.9500   26.8920 Cl  0  0  0  0  0  0  0  0  0  0  0  0
    8.3560   -2.9860   24.6550 C   0  0  0  0  0  0  0  0  0  0  0  0
    8.5090   -3.1710   23.3390 C   0  0  0  0  0  0  0  0  0  0  0  0
  1  2  1  0
  2  3  2  0
  3  4  1  0
  4  5  2  0
  5  6  1  0
  2  7  1  0
  6  7  2  0
  7  8  1  0
  8  9  1  1
  8 10  1  0
 10 11  2  0
 10 12  1  0
  5 13  1  0
 13 14  1  0
 14 15  1  0
 15 16  2  0
 16 17  1  0
 17 18  1  0
 17 19  2  0
  4 20  1  0
 14 20  2  0
 19 20  1  0
M  END
