MAK-UNK-902cc841-7
     RDKit          3D

 33 36  0  0  0  0  0  0  0  0999 V2000
    6.0260   -1.8790   18.5070 C   0  0  0  0  0  0  0  0  0  0  0  0
    5.7650   -2.7170   19.7390 C   0  0  0  0  0  0  0  0  0  0  0  0
    5.2680   -3.8530   19.6830 O   0  0  0  0  0  0  0  0  0  0  0  0
    6.2270   -2.0540   20.9430 N   0  0  0  0  0  0  0  0  0  0  0  0
    6.3790   -2.8690   22.1350 C   0  0  0  0  0  0  0  0  0  0  0  0
    6.3630   -1.9800   23.3560 C   0  0  0  0  0  0  0  0  0  0  0  0
    7.3300   -0.8480   23.3630 N   0  0  0  0  0  0  0  0  0  0  0  0
    8.2910   -0.9500   24.4810 C   0  0  1  0  0  0  0  0  0  0  0  0
    8.6500   -2.3660   24.4860 C   0  0  0  0  0  0  0  0  0  0  0  0
    8.0520   -3.3150   25.0180 O   0  0  0  0  0  0  0  0  0  0  0  0
    9.7510   -2.4750   23.7470 N   0  0  0  0  0  0  0  0  0  0  0  0
    9.6370   -2.7390   22.3240 C   0  0  0  0  0  0  0  0  0  0  0  0
   11.0160   -2.4180   21.7420 C   0  0  0  0  0  0  0  0  0  0  0  0
   11.4550   -1.0450   21.8760 N   0  0  0  0  0  0  0  0  0  0  0  0
   13.0840   -1.1520   22.1350 S   0  0  0  0  0  0  0  0  0  0  0  0
   13.5970    0.1040   22.6180 O   0  0  0  0  0  0  0  0  0  0  0  0
   13.6050   -1.8280   20.9750 O   0  0  0  0  0  0  0  0  0  0  0  0
   12.6470   -2.2220   23.4140 C   0  0  0  0  0  0  0  0  0  0  0  0
   13.4650   -2.4910   24.6730 C   0  0  0  0  0  0  0  0  0  0  0  0
   12.9340   -3.3370   25.5580 C   0  0  0  0  0  0  0  0  0  0  0  0
   11.5850   -3.9550   25.2710 C   0  0  0  0  0  0  0  0  0  0  0  0
   10.8570   -3.7460   24.1710 C   0  0  0  0  0  0  0  0  0  0  0  0
    9.6720   -4.3680   23.9930 F   0  0  0  0  0  0  0  0  0  0  0  0
   11.4070   -2.8720   23.2500 C   0  0  0  0  0  0  0  0  0  0  0  0
   10.6930   -0.4070   22.9330 C   0  0  0  0  0  0  0  0  0  0  0  0
   10.6310   -1.3120   24.0150 C   0  0  0  0  0  0  0  0  0  0  0  0
    9.5310   -0.0360   24.2710 C   0  0  0  0  0  0  0  0  0  0  0  0
   10.9090   -0.4090   24.3470 C   0  0  0  0  0  0  0  0  0  0  0  0
   11.8200    0.6500   24.0780 C   0  0  0  0  0  0  0  0  0  0  0  0
   11.0340    1.9130   23.7900 C   0  0  0  0  0  0  0  0  0  0  0  0
    9.3510    1.6580   23.8810 S   0  0  0  0  0  0  0  0  0  0  0  0
    8.0280   -0.7100   22.0680 C   0  0  0  0  0  0  0  0  0  0  0  0
    7.1110   -0.8920   20.8700 C   0  0  0  0  0  0  0  0  0  0  0  0
  1  2  1  0
  2  3  2  0
  2  4  1  0
  4  5  1  0
  5  6  1  0
  6  7  1  0
  7  8  1  0
  8  9  1  6
  9 10  2  0
  9 11  1  0
 11 12  1  0
 12 13  1  0
 13 14  1  0
 14 15  1  0
 15 16  2  0
 15 17  2  0
 15 18  1  0
 18 19  2  0
 19 20  1  0
 20 21  2  0
 21 22  1  0
 22 23  1  0
 18 24  1  0
 22 24  2  0
 14 25  1  0
 11 26  1  0
 25 26  1  0
  8 27  1  0
 27 28  2  0
 28 29  1  0
 29 30  2  0
 27 31  1  0
 30 31  1  0
  7 32  1  0
  4 33  1  0
 32 33  1  0
M  END
