MAK-UNK-0d6072ac-30
     RDKit          3D

 19 21  0  0  0  0  0  0  0  0999 V2000
   13.6840   -2.8550   23.0910 C   0  0  0  0  0  0  0  0  0  0  0  0
   13.4730   -2.1520   24.3490 C   0  0  2  0  0  0  0  0  0  0  0  0
   13.8680   -2.7440   25.6840 C   0  0  0  0  0  0  0  0  0  0  0  0
   14.3250   -2.0220   26.5320 O   0  0  0  0  0  0  0  0  0  0  0  0
   13.7450   -3.9960   25.8030 O   0  0  0  0  0  0  0  0  0  0  0  0
   12.2360   -1.3920   23.9750 C   0  0  0  0  0  0  0  0  0  0  0  0
   12.6850   -0.1500   23.7120 C   0  0  0  0  0  0  0  0  0  0  0  0
   11.6980    0.8140   23.2330 C   0  0  0  0  0  0  0  0  0  0  0  0
   10.3250    0.1850   23.1170 C   0  0  0  0  0  0  0  0  0  0  0  0
    9.8670   -1.0280   23.3750 C   0  0  0  0  0  0  0  0  0  0  0  0
   10.9530   -1.8860   23.8670 C   0  0  0  0  0  0  0  0  0  0  0  0
    8.7710   -1.6060   23.2890 N   0  0  0  0  0  0  0  0  0  0  0  0
    9.7190   -2.3440   23.7330 C   0  0  0  0  0  0  0  0  0  0  0  0
    9.8490   -3.6650   24.1530 N   0  0  0  0  0  0  0  0  0  0  0  0
   11.1260   -3.8300   24.5740 N   0  0  0  0  0  0  0  0  0  0  0  0
   12.0670   -2.8380   24.5470 C   0  0  0  0  0  0  0  0  0  0  0  0
   13.5890   -3.1860   25.1650 Cl  0  0  0  0  0  0  0  0  0  0  0  0
   12.0100   -1.5880   24.1200 N   0  0  0  0  0  0  0  0  0  0  0  0
   10.8340   -1.2630   23.6950 C   0  0  0  0  0  0  0  0  0  0  0  0
  2  1  1  6
  2  3  1  0
  3  4  2  0
  3  5  1  0
  2  6  1  0
  6  7  2  0
  7  8  1  0
  8  9  2  0
  9 10  1  0
  6 11  1  0
 10 11  2  0
 10 12  1  0
 12 13  1  0
 13 14  1  0
 14 15  2  0
 15 16  1  0
 16 17  1  0
 16 18  2  0
  9 19  1  0
 13 19  2  0
 18 19  1  0
M  END
