MAK-UNK-9e4a73aa-30
     RDKit          3D

 27 30  0  0  0  0  0  0  0  0999 V2000
    6.1340   -0.6980   19.4060 C   0  0  0  0  0  0  0  0  0  0  0  0
    6.4290   -1.3230   20.7490 C   0  0  0  0  0  0  0  0  0  0  0  0
    6.0680   -2.6430   20.6650 N   0  0  0  0  0  0  0  0  0  0  0  0
    6.2390   -3.4340   21.6830 C   0  0  0  0  0  0  0  0  0  0  0  0
    6.7960   -2.9270   22.8940 C   0  0  0  0  0  0  0  0  0  0  0  0
    7.1170   -1.5740   22.9020 C   0  0  0  0  0  0  0  0  0  0  0  0
    6.9880   -0.4780   21.7850 C   0  0  0  0  0  0  0  0  0  0  0  0
    7.5420    0.1900   22.9400 N   0  0  0  0  0  0  0  0  0  0  0  0
    6.9840   -0.1790   24.1510 C   0  0  0  0  0  0  0  0  0  0  0  0
    6.1570    0.4320   24.8320 O   0  0  0  0  0  0  0  0  0  0  0  0
    7.5050   -1.5160   24.5970 C   0  0  0  0  0  0  0  0  0  0  0  0
    6.7730   -2.3080   25.5020 C   0  0  0  0  0  0  0  0  0  0  0  0
    7.2270   -3.5620   25.9120 C   0  0  0  0  0  0  0  0  0  0  0  0
    6.4840   -4.2640   26.7800 F   0  0  0  0  0  0  0  0  0  0  0  0
    8.4280   -4.0680   25.4170 C   0  0  0  0  0  0  0  0  0  0  0  0
    8.9970   -5.6100   25.9020 Cl  0  0  0  0  0  0  0  0  0  0  0  0
    9.2200   -3.2460   24.4510 C   0  0  0  0  0  0  0  0  0  0  0  0
    8.7490   -1.9860   24.0780 C   0  0  0  0  0  0  0  0  0  0  0  0
    9.4440   -1.0770   23.1730 N   0  0  0  0  0  0  0  0  0  0  0  0
   10.7900   -1.1280   22.6900 C   0  0  0  0  0  0  0  0  0  0  0  0
   10.9390   -2.1880   21.6700 C   0  0  0  0  0  0  0  0  0  0  0  0
   12.2550   -2.1960   21.1810 C   0  0  0  0  0  0  0  0  0  0  0  0
   13.2530   -1.3510   21.5980 C   0  0  0  0  0  0  0  0  0  0  0  0
   13.0550   -0.3950   22.5540 C   0  0  0  0  0  0  0  0  0  0  0  0
   11.8110   -0.2900   23.0930 C   0  0  0  0  0  0  0  0  0  0  0  0
    8.9130    0.1860   22.9160 C   0  0  0  0  0  0  0  0  0  0  0  0
    9.6040    1.1870   22.7040 O   0  0  0  0  0  0  0  0  0  0  0  0
  1  2  1  0
  2  3  2  0
  3  4  1  0
  4  5  2  0
  5  6  1  0
  2  7  1  0
  6  7  2  0
  7  8  1  0
  8  9  1  0
  9 10  2  0
  9 11  1  0
 11 12  2  0
 12 13  1  0
 13 14  1  0
 13 15  2  0
 15 16  1  0
 15 17  1  0
 11 18  1  0
 17 18  2  0
 18 19  1  0
 19 20  1  0
 20 21  2  0
 21 22  1  0
 22 23  2  0
 23 24  1  0
 20 25  1  0
 24 25  2  0
  8 26  1  0
 19 26  1  0
 26 27  2  0
M  END
