MAK-UNK-60abb798-6
     RDKit          3D

 22 24  0  0  0  0  0  0  0  0999 V2000
    5.8180   -2.7120   19.8280 C   0  0  0  0  0  0  0  0  0  0  0  0
    5.7000   -4.0350   20.4320 N   0  0  0  0  0  0  0  0  0  0  0  0
    6.5550   -4.3600   21.5920 C   0  0  2  0  0  0  0  0  0  0  0  0
    6.0000   -5.4280   22.4450 C   0  0  0  0  0  0  0  0  0  0  0  0
    6.9170   -5.7480   23.5770 C   0  0  0  0  0  0  0  0  0  0  0  0
    7.6990   -4.7510   24.1820 C   0  0  0  0  0  0  0  0  0  0  0  0
    7.8890   -3.3550   23.5630 C   0  0  1  0  0  0  0  0  0  0  0  0
    9.2990   -2.8810   23.1680 C   0  0  1  0  0  0  0  0  0  0  0  0
    9.3900   -1.4670   23.0060 C   0  0  0  0  0  0  0  0  0  0  0  0
   10.6240   -1.4650   23.5000 C   0  0  0  0  0  0  0  0  0  0  0  0
   11.5060   -0.5510   23.5830 C   0  0  0  0  0  0  0  0  0  0  0  0
   12.7820   -0.3630   24.0230 C   0  0  0  0  0  0  0  0  0  0  0  0
   13.3280   -1.5950   24.6400 C   0  0  0  0  0  0  0  0  0  0  0  0
   12.5330   -2.6660   24.6790 C   0  0  0  0  0  0  0  0  0  0  0  0
   13.1290   -3.7050   25.2980 O   0  0  0  0  0  0  0  0  0  0  0  0
   11.2070   -2.6540   24.1180 C   0  0  0  0  0  0  0  0  0  0  0  0
   10.6100   -3.7300   24.2210 O   0  0  0  0  0  0  0  0  0  0  0  0
   11.6730   -2.0100   23.9620 C   0  0  2  0  0  0  0  0  0  0  0  0
   12.2090   -2.3990   22.7210 C   0  0  0  0  0  0  0  0  0  0  0  0
   13.5140   -3.0180   22.6650 N   0  0  0  0  0  0  0  0  0  0  0  0
   10.4170   -2.9220   24.1590 O   0  0  0  0  0  0  0  0  0  0  0  0
    6.9460   -3.1010   22.3790 C   0  0  0  0  0  0  0  0  0  0  0  0
  1  2  1  0
  3  2  1  6
  3  4  1  0
  4  5  1  0
  5  6  1  0
  7  6  1  6
  7  8  1  0
  8  9  1  1
  9 10  1  0
 10 11  2  0
 11 12  1  0
 12 13  2  0
 13 14  1  0
 14 15  1  0
 10 16  1  0
 14 16  2  0
 16 17  1  0
 11 18  1  0
 18 19  1  6
 19 20  1  0
  8 21  1  0
 18 21  1  0
  3 22  1  0
  7 22  1  0
M  END
