MAK-UNK-9a6be56d-19
     RDKit          3D

 38 42  0  0  0  0  0  0  0  0999 V2000
    9.4890    0.6280   29.7870 C   0  0  0  0  0  0  0  0  0  0  0  0
    8.7140    1.7590   29.5820 N   0  0  0  0  0  0  0  0  0  0  0  0
    7.4430    1.8300   28.9630 C   0  0  0  0  0  0  0  0  0  0  0  0
    7.3610    1.2970   27.6070 C   0  0  0  0  0  0  0  0  0  0  0  0
    6.7410    1.9230   26.5480 C   0  0  0  0  0  0  0  0  0  0  0  0
    6.8410    1.1810   25.4440 C   0  0  0  0  0  0  0  0  0  0  0  0
    6.3590    1.4430   24.1710 C   0  0  0  0  0  0  0  0  0  0  0  0
    7.2670    1.5090   23.0430 C   0  0  0  0  0  0  0  0  0  0  0  0
    6.8680    1.8030   21.5540 C   0  0  0  0  0  0  0  0  0  0  0  0
    5.3750    2.0330   21.3390 C   0  0  0  0  0  0  0  0  0  0  0  0
    4.6990    1.9120   22.6180 C   0  0  0  0  0  0  0  0  0  0  0  0
    4.9800    1.6520   23.9850 C   0  0  0  0  0  0  0  0  0  0  0  0
    4.0510    1.6190   24.9520 F   0  0  0  0  0  0  0  0  0  0  0  0
    7.5190    0.0180   25.6510 N   0  0  0  0  0  0  0  0  0  0  0  0
    7.9560   -1.2920   24.6520 S   0  0  0  0  0  0  0  0  0  0  0  0
    9.3930   -1.3070   24.7100 O   0  0  0  0  0  0  0  0  0  0  0  0
    7.1800   -2.4180   25.1310 O   0  0  0  0  0  0  0  0  0  0  0  0
    7.4480   -1.0480   23.0410 C   0  0  0  0  0  0  0  0  0  0  0  0
    5.9650   -0.9290   22.7070 C   0  0  0  0  0  0  0  0  0  0  0  0
    5.4560   -0.7200   21.2960 C   0  0  0  0  0  0  0  0  0  0  0  0
    6.4230   -0.6190   20.1310 C   0  0  0  0  0  0  0  0  0  0  0  0
    7.8430   -0.7370   20.4710 N   0  0  0  0  0  0  0  0  0  0  0  0
    8.4020   -0.9410   21.8270 C   0  0  0  0  0  0  0  0  0  0  0  0
    9.7860   -1.0160   21.7950 N   0  0  0  0  0  0  0  0  0  0  0  0
   10.4430   -1.9990   22.6770 C   0  0  0  0  0  0  0  0  0  0  0  0
   11.6340   -2.4750   22.0500 C   0  0  0  0  0  0  0  0  0  0  0  0
   12.7890   -1.5390   21.9680 C   0  0  0  0  0  0  0  0  0  0  0  0
   12.0920   -0.2620   21.9910 C   0  0  0  0  0  0  0  0  0  0  0  0
   13.0970    1.0000   22.1870 C   0  0  0  0  0  0  0  0  0  0  0  0
   12.4170    2.5990   22.3090 C   0  0  0  0  0  0  0  0  0  0  0  0
   10.9150    2.8280   22.2580 C   0  0  0  0  0  0  0  0  0  0  0  0
   10.3640    4.5290   22.6580 S   0  0  0  0  0  0  0  0  0  0  0  0
   11.4200    5.6140   21.9550 N   0  0  0  0  0  0  0  0  0  0  0  0
   10.6530    4.8400   24.0490 O   0  0  0  0  0  0  0  0  0  0  0  0
    8.9940    4.7910   22.2780 O   0  0  0  0  0  0  0  0  0  0  0  0
    9.9340    1.5890   21.9920 C   0  0  0  0  0  0  0  0  0  0  0  0
   10.5180    0.0470   21.8760 C   0  0  0  0  0  0  0  0  0  0  0  0
    7.8520    0.0820   27.0270 C   0  0  0  0  0  0  0  0  0  0  0  0
  1  2  1  0
  2  3  1  0
  3  4  1  0
  4  5  1  0
  5  6  2  0
  6  7  1  0
  7  8  2  0
  8  9  1  0
  9 10  2  0
 10 11  1  0
  7 12  1  0
 11 12  2  0
 12 13  1  0
  6 14  1  0
 14 15  1  0
 15 16  2  0
 15 17  2  0
 15 18  1  0
 18 19  2  0
 19 20  1  0
 20 21  2  0
 21 22  1  0
 18 23  1  0
 22 23  2  0
 23 24  1  0
 24 25  1  0
 25 26  1  0
 26 27  1  0
 27 28  1  0
 28 29  2  0
 29 30  1  0
 30 31  2  0
 31 32  1  0
 32 33  1  0
 32 34  2  0
 32 35  2  0
 31 36  1  0
 24 37  1  0
 28 37  1  0
 36 37  2  0
  4 38  2  0
 14 38  1  0
M  END
