MAK-UNK-2084232d-18
     RDKit          3D

 21 23  0  0  0  0  0  0  0  0999 V2000
   13.8480   -2.1460   25.1790 N   0  0  0  0  0  0  0  0  0  0  0  0
   13.0530   -2.8970   24.2110 C   0  0  0  0  0  0  0  0  0  0  0  0
   11.7410   -2.2940   23.7610 C   0  0  1  0  0  0  0  0  0  0  0  0
   10.8090   -3.2220   23.3680 O   0  0  0  0  0  0  0  0  0  0  0  0
    9.3690   -3.3530   23.8440 C   0  0  2  0  0  0  0  0  0  0  0  0
    8.3590   -4.1540   23.0400 C   0  0  1  0  0  0  0  0  0  0  0  0
    7.8290   -5.2410   23.7500 C   0  0  0  0  0  0  0  0  0  0  0  0
    6.8490   -6.1620   23.0310 C   0  0  0  0  0  0  0  0  0  0  0  0
    6.4240   -5.4800   21.7450 C   0  0  0  0  0  0  0  0  0  0  0  0
    6.4270   -3.9750   21.8250 C   0  0  2  0  0  0  0  0  0  0  0  0
    5.9000   -3.5850   20.5520 O   0  0  0  0  0  0  0  0  0  0  0  0
    7.5750   -3.3330   22.3390 C   0  0  0  0  0  0  0  0  0  0  0  0
    9.0650   -1.9340   24.1300 C   0  0  0  0  0  0  0  0  0  0  0  0
   10.3920   -1.9540   24.1140 C   0  0  0  0  0  0  0  0  0  0  0  0
   11.3550   -1.6410   25.0410 C   0  0  0  0  0  0  0  0  0  0  0  0
   12.7160   -1.6320   25.1760 C   0  0  0  0  0  0  0  0  0  0  0  0
   13.2930   -2.0300   24.0540 C   0  0  0  0  0  0  0  0  0  0  0  0
   12.5110   -2.4090   22.8330 C   0  0  0  0  0  0  0  0  0  0  0  0
   13.2140   -2.7780   21.6450 O   0  0  0  0  0  0  0  0  0  0  0  0
   11.0600   -2.3560   22.9510 C   0  0  0  0  0  0  0  0  0  0  0  0
   10.3490   -2.7130   21.8240 O   0  0  0  0  0  0  0  0  0  0  0  0
  1  2  1  0
  3  2  1  1
  3  4  1  0
  4  5  1  0
  5  6  1  0
  6  7  1  1
  7  8  1  0
  8  9  1  0
  9 10  1  0
 10 11  1  6
  6 12  1  0
 10 12  1  0
  5 13  1  6
 13 14  1  0
  3 15  1  0
 14 15  2  0
 15 16  1  0
 16 17  2  0
 17 18  1  0
 18 19  1  0
 14 20  1  0
 18 20  2  0
 20 21  1  0
M  END
