MAK-UNK-01147c51-8
     RDKit          3D

 19 20  0  0  0  0  0  0  0  0999 V2000
    5.6610   -3.6500   20.5170 C   0  0  0  0  0  0  0  0  0  0  0  0
    6.4210   -4.0750   21.5920 N   0  0  0  0  0  0  0  0  0  0  0  0
    7.2760   -3.2800   22.3900 C   0  0  0  0  0  0  0  0  0  0  0  0
    8.2560   -3.8750   23.1620 C   0  0  2  0  0  0  0  0  0  0  0  0
    7.8660   -4.9920   23.9160 C   0  0  0  0  0  0  0  0  0  0  0  0
    9.1270   -2.8450   23.9630 C   0  0  2  0  0  0  0  0  0  0  0  0
    9.3160   -1.7300   23.3390 C   0  0  0  0  0  0  0  0  0  0  0  0
   10.5730   -1.7580   23.7760 C   0  0  0  0  0  0  0  0  0  0  0  0
   11.4560   -0.8660   23.7610 C   0  0  0  0  0  0  0  0  0  0  0  0
   12.7560   -0.6950   24.1480 C   0  0  0  0  0  0  0  0  0  0  0  0
   13.3620   -1.7650   24.7680 C   0  0  0  0  0  0  0  0  0  0  0  0
   12.6550   -2.8750   24.9420 C   0  0  0  0  0  0  0  0  0  0  0  0
   13.3220   -3.8800   25.5830 O   0  0  0  0  0  0  0  0  0  0  0  0
   11.1930   -2.9070   24.4190 C   0  0  0  0  0  0  0  0  0  0  0  0
   10.6070   -4.1740   24.6730 O   0  0  0  0  0  0  0  0  0  0  0  0
   11.6990   -2.1470   24.2670 C   0  0  2  0  0  0  0  0  0  0  0  0
   12.9290   -2.5500   23.4200 C   0  0  0  0  0  0  0  0  0  0  0  0
   12.8460   -2.5690   22.0600 N   0  0  0  0  0  0  0  0  0  0  0  0
   10.5730   -3.1690   24.1570 O   0  0  0  0  0  0  0  0  0  0  0  0
  1  2  1  0
  2  3  1  0
  3  4  1  0
  4  5  1  1
  4  6  1  0
  6  7  1  6
  7  8  1  0
  8  9  2  0
  9 10  1  0
 10 11  2  0
 11 12  1  0
 12 13  1  0
  8 14  1  0
 12 14  2  0
 14 15  1  0
  9 16  1  0
 16 17  1  6
 17 18  1  0
  6 19  1  0
 16 19  1  0
M  END
