MAK-UNK-acefcb18-10
     RDKit          3D

 12 13  0  0  0  0  0  0  0  0999 V2000
    5.3850   -3.0600   23.0200 C   0  0  0  0  0  0  0  0  0  0  0  0
    6.8930   -2.6840   22.8730 C   0  0  2  0  0  0  0  0  0  0  0  0
    7.6330   -2.8460   24.0510 C   0  0  0  0  0  0  0  0  0  0  0  0
    8.9790   -2.5010   23.9660 C   0  0  0  0  0  0  0  0  0  0  0  0
    9.2680   -1.7820   22.8410 C   0  0  2  0  0  0  0  0  0  0  0  0
   10.7410   -1.3700   22.8050 C   0  0  0  0  0  0  0  0  0  0  0  0
   11.1820   -0.0580   23.3630 C   0  0  0  0  0  0  0  0  0  0  0  0
   12.5380    0.2010   23.2600 C   0  0  0  0  0  0  0  0  0  0  0  0
   13.2870   -1.1270   22.4910 S   0  0  0  0  0  0  0  0  0  0  0  0
   11.8370   -2.0300   22.3030 C   0  0  0  0  0  0  0  0  0  0  0  0
    8.3440   -0.7970   22.4300 C   0  0  0  0  0  0  0  0  0  0  0  0
    7.0140   -1.2330   22.3680 C   0  0  0  0  0  0  0  0  0  0  0  0
  2  1  1  1
  2  3  1  0
  3  4  1  0
  4  5  1  0
  5  6  1  1
  6  7  1  0
  7  8  2  0
  8  9  1  0
  6 10  2  0
  9 10  1  0
  5 11  1  0
  2 12  1  0
 11 12  1  0
M  END
