MAK-UNK-de9577cf-1
     RDKit          3D

 37 40  0  0  0  0  0  0  0  0999 V2000
   13.2960   -2.3190   24.1640 C   0  0  0  0  0  0  0  0  0  0  0  0
   12.4410   -1.1890   23.9340 O   0  0  0  0  0  0  0  0  0  0  0  0
   12.7360   -0.3720   22.8750 C   0  0  0  0  0  0  0  0  0  0  0  0
   13.4520   -0.7100   21.9550 O   0  0  0  0  0  0  0  0  0  0  0  0
   12.1370    1.0100   22.9460 C   0  0  0  0  0  0  0  0  0  0  0  0
   10.6270    1.0960   23.0880 C   0  0  0  0  0  0  0  0  0  0  0  0
    9.9880    2.3360   23.2390 C   0  0  0  0  0  0  0  0  0  0  0  0
   10.8260    3.6030   23.2470 C   0  0  0  0  0  0  0  0  0  0  0  0
   10.1910    5.1890   23.4930 S   0  0  0  0  0  0  0  0  0  0  0  0
   11.1090    6.1630   22.9360 O   0  0  0  0  0  0  0  0  0  0  0  0
    9.7780    5.3060   24.8830 O   0  0  0  0  0  0  0  0  0  0  0  0
    8.8260    5.2190   22.5190 N   0  0  0  0  0  0  0  0  0  0  0  0
    8.0570    6.3770   22.7920 N   0  0  0  0  0  0  0  0  0  0  0  0
    7.1480    6.6670   21.7770 C   0  0  0  0  0  0  0  0  0  0  0  0
    5.7250    6.3080   22.1390 C   0  0  0  0  0  0  0  0  0  0  0  0
    5.3630    5.5170   23.2170 C   0  0  0  0  0  0  0  0  0  0  0  0
    4.0070    5.3240   23.3590 C   0  0  0  0  0  0  0  0  0  0  0  0
    3.3660    4.5730   24.3570 C   0  0  0  0  0  0  0  0  0  0  0  0
    2.8700    3.1760   24.0730 C   0  0  0  0  0  0  0  0  0  0  0  0
    2.2360    2.4740   25.0920 C   0  0  0  0  0  0  0  0  0  0  0  0
    2.0600    3.0320   26.3500 C   0  0  0  0  0  0  0  0  0  0  0  0
    2.5360    4.4220   26.7020 C   0  0  0  0  0  0  0  0  0  0  0  0
    3.1730    5.1190   25.6550 C   0  0  0  0  0  0  0  0  0  0  0  0
    3.5950    6.3750   25.9880 F   0  0  0  0  0  0  0  0  0  0  0  0
    3.4370    6.0210   22.3210 N   0  0  0  0  0  0  0  0  0  0  0  0
    1.7750    6.1870   21.9280 S   0  0  0  0  0  0  0  0  0  0  0  0
    1.0920    6.4520   23.1800 O   0  0  0  0  0  0  0  0  0  0  0  0
    1.6640    7.1140   20.8210 O   0  0  0  0  0  0  0  0  0  0  0  0
    1.2550    4.5970   21.3870 C   0  0  0  0  0  0  0  0  0  0  0  0
    2.1730    3.5880   21.0650 C   0  0  0  0  0  0  0  0  0  0  0  0
    1.7090    2.3420   20.6420 C   0  0  0  0  0  0  0  0  0  0  0  0
    0.3340    2.1400   20.5510 C   0  0  0  0  0  0  0  0  0  0  0  0
   -0.6290    3.1720   20.8790 N   0  0  0  0  0  0  0  0  0  0  0  0
   -0.1070    4.3540   21.2820 C   0  0  0  0  0  0  0  0  0  0  0  0
    4.5010    6.6420   21.5490 C   0  0  0  0  0  0  0  0  0  0  0  0
   12.1850    3.4770   23.0620 C   0  0  0  0  0  0  0  0  0  0  0  0
   12.7980    2.2320   22.9180 C   0  0  0  0  0  0  0  0  0  0  0  0
  1  2  1  0
  2  3  1  0
  3  4  2  0
  3  5  1  0
  5  6  2  0
  6  7  1  0
  7  8  2  0
  8  9  1  0
  9 10  2  0
  9 11  2  0
  9 12  1  0
 12 13  1  0
 13 14  1  0
 14 15  1  0
 15 16  1  0
 16 17  2  0
 17 18  1  0
 18 19  2  0
 19 20  1  0
 20 21  2  0
 21 22  1  0
 18 23  1  0
 22 23  2  0
 23 24  1  0
 17 25  1  0
 25 26  1  0
 26 27  2  0
 26 28  2  0
 26 29  1  0
 29 30  2  0
 30 31  1  0
 31 32  2  0
 32 33  1  0
 29 34  1  0
 33 34  2  0
 15 35  2  0
 25 35  1  0
  8 36  1  0
  5 37  1  0
 36 37  2  0
M  END
