MAK-UNK-8145c7a0-14
     RDKit          3D

 26 28  0  0  0  0  0  0  0  0999 V2000
    6.0470   -3.9780   22.4870 C   0  0  0  0  0  0  0  0  0  0  0  0
    6.0470   -5.7830   22.6080 S   0  0  0  0  0  0  0  0  0  0  0  0
    6.1730   -6.2930   21.2750 O   0  0  0  0  0  0  0  0  0  0  0  0
    4.9640   -6.1920   23.4800 O   0  0  0  0  0  0  0  0  0  0  0  0
    7.4700   -6.0940   23.4640 N   0  0  0  0  0  0  0  0  0  0  0  0
    8.0910   -4.9400   24.1660 C   0  0  0  0  0  0  0  0  0  0  0  0
    8.7570   -5.2300   25.3250 C   0  0  0  0  0  0  0  0  0  0  0  0
    7.9910   -5.0820   26.5570 C   0  0  0  0  0  0  0  0  0  0  0  0
    7.9070   -6.2260   27.4840 C   0  0  0  0  0  0  0  0  0  0  0  0
    7.0590   -6.1650   28.7300 C   0  0  0  0  0  0  0  0  0  0  0  0
    6.3380   -4.8400   28.9400 C   0  0  0  0  0  0  0  0  0  0  0  0
    6.5320   -3.7030   27.9400 C   0  0  0  0  0  0  0  0  0  0  0  0
    7.3530   -3.9060   26.8100 C   0  0  0  0  0  0  0  0  0  0  0  0
    7.5870   -2.8210   25.7850 C   0  0  0  0  0  0  0  0  0  0  0  0
    7.0940   -1.6020   25.8820 N   0  0  0  0  0  0  0  0  0  0  0  0
    7.5070   -0.8240   24.7990 N   0  0  0  0  0  0  0  0  0  0  0  0
    8.2780   -1.4850   23.9670 C   0  0  0  0  0  0  0  0  0  0  0  0
    8.8830   -1.0000   22.8190 C   0  0  0  0  0  0  0  0  0  0  0  0
   10.3380   -0.8750   23.0270 N   0  0  0  0  0  0  0  0  0  0  0  0
   10.7770    0.3620   22.8870 C   0  0  0  0  0  0  0  0  0  0  0  0
   12.1400    0.5280   23.1210 C   0  0  0  0  0  0  0  0  0  0  0  0
   12.9710   -0.2590   22.4160 C   0  0  0  0  0  0  0  0  0  0  0  0
   12.5450   -1.4540   21.8970 C   0  0  0  0  0  0  0  0  0  0  0  0
   13.3590   -2.2310   21.1880 F   0  0  0  0  0  0  0  0  0  0  0  0
   11.0900   -1.8080   22.1730 C   0  0  0  0  0  0  0  0  0  0  0  0
    8.5500   -3.0920   24.3940 S   0  0  0  0  0  0  0  0  0  0  0  0
  1  2  1  0
  2  3  2  0
  2  4  2  0
  2  5  1  0
  5  6  1  0
  6  7  1  0
  7  8  1  0
  8  9  2  0
  9 10  1  0
 10 11  2  0
 11 12  1  0
  8 13  1  0
 12 13  2  0
 13 14  1  0
 14 15  2  0
 15 16  1  0
 16 17  2  0
 17 18  1  0
 18 19  1  0
 19 20  1  0
 20 21  1  0
 21 22  1  0
 22 23  2  0
 23 24  1  0
 19 25  1  0
 23 25  1  0
 14 26  1  0
 17 26  1  0
M  END
