MAK-UNK-0d6072ac-24
     RDKit          3D

 20 22  0  0  0  0  0  0  0  0999 V2000
    5.3770   -2.7890   21.4320 C   0  0  0  0  0  0  0  0  0  0  0  0
    5.0640   -4.1590   21.6740 O   0  0  0  0  0  0  0  0  0  0  0  0
    5.0910   -4.5620   22.9900 C   0  0  0  0  0  0  0  0  0  0  0  0
    4.3020   -4.0300   23.7550 O   0  0  0  0  0  0  0  0  0  0  0  0
    5.9550   -5.5460   23.4990 C   0  0  1  0  0  0  0  0  0  0  0  0
    6.3690   -6.4750   22.5280 C   0  0  0  0  0  0  0  0  0  0  0  0
    7.2760   -4.8740   23.9210 C   0  0  0  0  0  0  0  0  0  0  0  0
    8.0620   -5.4430   25.0050 C   0  0  0  0  0  0  0  0  0  0  0  0
    9.2660   -4.8350   25.2810 C   0  0  0  0  0  0  0  0  0  0  0  0
    9.7410   -3.7330   24.5960 C   0  0  0  0  0  0  0  0  0  0  0  0
    8.9480   -3.1750   23.6010 C   0  0  0  0  0  0  0  0  0  0  0  0
    7.7190   -3.7510   23.2650 C   0  0  0  0  0  0  0  0  0  0  0  0
    9.6130   -2.0900   23.1140 N   0  0  0  0  0  0  0  0  0  0  0  0
   10.8230   -1.9490   23.7200 C   0  0  0  0  0  0  0  0  0  0  0  0
   11.8380   -1.0200   23.5370 C   0  0  0  0  0  0  0  0  0  0  0  0
   12.9690   -1.2090   24.3010 C   0  0  0  0  0  0  0  0  0  0  0  0
   13.0670   -2.2650   25.2010 C   0  0  0  0  0  0  0  0  0  0  0  0
   14.4210   -2.5720   26.1170 Cl  0  0  0  0  0  0  0  0  0  0  0  0
   12.0470   -3.1490   25.3920 C   0  0  0  0  0  0  0  0  0  0  0  0
   10.9330   -2.9880   24.6490 C   0  0  0  0  0  0  0  0  0  0  0  0
  1  2  1  0
  2  3  1  0
  3  4  2  0
  3  5  1  0
  5  6  1  6
  5  7  1  0
  7  8  2  0
  8  9  1  0
  9 10  2  0
 10 11  1  0
  7 12  1  0
 11 12  2  0
 11 13  1  0
 13 14  1  0
 14 15  1  0
 15 16  2  0
 16 17  1  0
 17 18  1  0
 17 19  2  0
 10 20  1  0
 14 20  2  0
 19 20  1  0
M  END
