MAK-UNK-129dcd6f-1
     RDKit          3D

 26 28  0  0  0  0  0  0  0  0999 V2000
    4.9940   -2.2520   19.1890 C   0  0  0  0  0  0  0  0  0  0  0  0
    5.9350   -2.0830   20.2870 C   0  0  0  0  0  0  0  0  0  0  0  0
    6.9700   -1.4690   20.0770 O   0  0  0  0  0  0  0  0  0  0  0  0
    5.6820   -2.6530   21.5760 N   0  0  0  0  0  0  0  0  0  0  0  0
    7.0600   -2.5800   21.8960 C   0  0  0  0  0  0  0  0  0  0  0  0
    7.6430   -3.5780   22.8510 C   0  0  0  0  0  0  0  0  0  0  0  0
    9.0750   -3.5060   23.1430 N   0  0  0  0  0  0  0  0  0  0  0  0
    9.8880   -2.4430   22.4650 C   0  0  0  0  0  0  0  0  0  0  0  0
    9.2480   -1.4320   21.4970 C   0  0  0  0  0  0  0  0  0  0  0  0
    7.7410   -1.5410   21.2290 C   0  0  0  0  0  0  0  0  0  0  0  0
    6.9710   -0.4920   20.2370 C   0  0  0  0  0  0  0  0  0  0  0  0
    6.6210   -0.6850   18.8370 N   0  0  0  0  0  0  0  0  0  0  0  0
    5.8940    0.2700   18.1330 C   0  0  0  0  0  0  0  0  0  0  0  0
    5.4440    1.5810   18.8100 C   0  0  0  0  0  0  0  0  0  0  0  0
    5.8210    1.7280   20.1260 C   0  0  0  0  0  0  0  0  0  0  0  0
    6.6020    0.6630   20.8530 C   0  0  0  0  0  0  0  0  0  0  0  0
    6.9490    0.8290   22.1240 N   0  0  0  0  0  0  0  0  0  0  0  0
    8.4210    0.8080   22.1350 C   0  0  0  0  0  0  0  0  0  0  0  0
    9.1070    1.4810   21.3480 O   0  0  0  0  0  0  0  0  0  0  0  0
    9.1800   -0.0210   23.0730 N   0  0  0  0  0  0  0  0  0  0  0  0
   10.4870    0.1690   22.9880 C   0  0  0  0  0  0  0  0  0  0  0  0
   10.9670    1.4460   22.9380 C   0  0  0  0  0  0  0  0  0  0  0  0
   12.3110    1.6510   22.8740 C   0  0  0  0  0  0  0  0  0  0  0  0
   13.1620    0.5750   22.8490 C   0  0  0  0  0  0  0  0  0  0  0  0
   12.7660   -0.7340   22.8860 C   0  0  0  0  0  0  0  0  0  0  0  0
   11.3650   -0.9330   22.9590 C   0  0  0  0  0  0  0  0  0  0  0  0
  1  2  1  0
  2  3  2  0
  2  4  1  0
  4  5  1  0
  5  6  2  0
  6  7  1  0
  7  8  2  0
  8  9  1  0
  5 10  1  0
  9 10  2  0
 10 11  1  0
 11 12  2  0
 12 13  1  0
 13 14  2  0
 14 15  1  0
 11 16  1  0
 15 16  2  0
 16 17  1  0
 17 18  1  0
 18 19  2  0
 18 20  1  0
 20 21  1  0
 21 22  2  0
 22 23  1  0
 23 24  2  0
 24 25  1  0
 21 26  1  0
 25 26  2  0
M  END
