MAK-UNK-9a6be56d-13
     RDKit          3D

 38 42  0  0  0  0  0  0  0  0999 V2000
    7.1200    2.5070   26.5830 C   0  0  0  0  0  0  0  0  0  0  0  0
    5.7520    2.4130   27.0800 N   0  0  0  0  0  0  0  0  0  0  0  0
    5.3520    1.1160   27.6560 C   0  0  0  0  0  0  0  0  0  0  0  0
    5.6260   -0.0810   26.7840 C   0  0  0  0  0  0  0  0  0  0  0  0
    6.0330    0.0760   25.3990 C   0  0  0  0  0  0  0  0  0  0  0  0
    6.2560   -1.0690   24.7020 C   0  0  0  0  0  0  0  0  0  0  0  0
    6.6920   -1.0820   23.2380 C   0  0  0  0  0  0  0  0  0  0  0  0
    5.5980   -1.3570   22.1950 C   0  0  0  0  0  0  0  0  0  0  0  0
    6.0300   -1.3450   20.7460 C   0  0  0  0  0  0  0  0  0  0  0  0
    7.3540   -1.1010   20.3700 C   0  0  0  0  0  0  0  0  0  0  0  0
    8.3080   -0.8670   21.3570 C   0  0  0  0  0  0  0  0  0  0  0  0
    8.0780   -0.8410   22.7320 C   0  0  0  0  0  0  0  0  0  0  0  0
    9.1170   -0.5820   23.7880 C   0  0  0  0  0  0  0  0  0  0  0  0
   10.3560   -0.4650   23.2850 N   0  0  0  0  0  0  0  0  0  0  0  0
   11.1770   -1.5290   23.5040 C   0  0  0  0  0  0  0  0  0  0  0  0
   12.2280   -1.4710   22.5890 C   0  0  0  0  0  0  0  0  0  0  0  0
   13.1860   -0.3110   22.7300 C   0  0  0  0  0  0  0  0  0  0  0  0
   12.4340    0.8670   22.8810 C   0  0  0  0  0  0  0  0  0  0  0  0
   13.0380    2.1090   22.7820 C   0  0  0  0  0  0  0  0  0  0  0  0
   12.3540    3.3000   22.9510 C   0  0  0  0  0  0  0  0  0  0  0  0
   11.0000    3.3070   23.2320 C   0  0  0  0  0  0  0  0  0  0  0  0
   10.1900    4.8530   23.5090 S   0  0  0  0  0  0  0  0  0  0  0  0
   11.2650    6.0430   23.0010 N   0  0  0  0  0  0  0  0  0  0  0  0
    9.9690    5.0610   24.9840 O   0  0  0  0  0  0  0  0  0  0  0  0
    8.9030    4.9860   22.7500 O   0  0  0  0  0  0  0  0  0  0  0  0
   10.2510    2.1210   23.3310 C   0  0  0  0  0  0  0  0  0  0  0  0
   10.9530    0.7740   23.1670 C   0  0  0  0  0  0  0  0  0  0  0  0
    5.9790   -2.0500   25.6820 N   0  0  0  0  0  0  0  0  0  0  0  0
    6.0510   -3.7550   25.5500 S   0  0  0  0  0  0  0  0  0  0  0  0
    5.8580   -4.2060   26.9150 O   0  0  0  0  0  0  0  0  0  0  0  0
    7.2500   -4.0830   24.8080 O   0  0  0  0  0  0  0  0  0  0  0  0
    4.6540   -4.3700   24.6980 C   0  0  0  0  0  0  0  0  0  0  0  0
    3.3560   -4.0940   25.1270 C   0  0  0  0  0  0  0  0  0  0  0  0
    2.2790   -4.6200   24.4310 C   0  0  0  0  0  0  0  0  0  0  0  0
    2.5260   -5.4120   23.3170 C   0  0  0  0  0  0  0  0  0  0  0  0
    3.7690   -5.6960   22.8710 N   0  0  0  0  0  0  0  0  0  0  0  0
    4.8120   -5.1740   23.5620 C   0  0  0  0  0  0  0  0  0  0  0  0
    5.6050   -1.4620   26.9220 C   0  0  0  0  0  0  0  0  0  0  0  0
  1  2  1  0
  2  3  1  0
  3  4  1  0
  4  5  1  0
  5  6  2  0
  6  7  1  0
  7  8  2  0
  8  9  1  0
  9 10  2  0
 10 11  1  0
  7 12  1  0
 11 12  2  0
 12 13  1  0
 13 14  1  0
 14 15  1  0
 15 16  1  0
 16 17  1  0
 17 18  1  0
 18 19  2  0
 19 20  1  0
 20 21  2  0
 21 22  1  0
 22 23  1  0
 22 24  2  0
 22 25  2  0
 21 26  1  0
 14 27  1  0
 18 27  1  0
 26 27  2  0
  6 28  1  0
 28 29  1  0
 29 30  2  0
 29 31  2  0
 29 32  1  0
 32 33  2  0
 33 34  1  0
 34 35  2  0
 35 36  1  0
 32 37  1  0
 36 37  2  0
  4 38  2  0
 28 38  1  0
M  END
