MAK-UNK-de8f6d00-3
     RDKit          3D

 34 38  0  0  0  0  0  0  0  0999 V2000
   18.5260   -1.3050   24.5220 O   0  0  0  0  0  0  0  0  0  0  0  0
   17.8820   -1.9370   25.6620 C   0  0  0  0  0  0  0  0  0  0  0  0
   16.1890   -2.5710   25.8590 N   0  0  0  0  0  0  0  0  0  0  0  0
   14.6000   -2.2980   25.2540 C   0  0  0  0  0  0  0  0  0  0  0  0
   14.1840   -2.8130   23.9130 C   0  0  0  0  0  0  0  0  0  0  0  0
   13.0030   -2.4790   23.2990 C   0  0  0  0  0  0  0  0  0  0  0  0
   12.2340   -1.6460   24.0110 C   0  0  0  0  0  0  0  0  0  0  0  0
   11.1670   -1.2000   23.4220 N   0  0  0  0  0  0  0  0  0  0  0  0
   10.1300   -2.0020   22.8240 C   0  0  0  0  0  0  0  0  0  0  0  0
    8.8840   -1.4050   23.1520 C   0  0  0  0  0  0  0  0  0  0  0  0
    8.9090   -0.0390   22.9310 N   0  0  0  0  0  0  0  0  0  0  0  0
    8.5360    0.2550   21.6680 C   0  0  0  0  0  0  0  0  0  0  0  0
    8.7740    1.5560   21.1060 O   0  0  0  0  0  0  0  0  0  0  0  0
    7.8470   -0.8240   20.8900 C   0  0  0  0  0  0  0  0  0  0  0  0
    7.0160   -0.3100   19.9210 C   0  0  0  0  0  0  0  0  0  0  0  0
    7.2030   -0.5680   18.5980 C   0  0  0  0  0  0  0  0  0  0  0  0
    6.2520    0.0910   17.9130 N   0  0  0  0  0  0  0  0  0  0  0  0
    5.4360    0.7680   18.7700 C   0  0  0  0  0  0  0  0  0  0  0  0
    4.4280    1.4860   18.3280 N   0  0  0  0  0  0  0  0  0  0  0  0
    3.8140    2.0090   19.3480 C   0  0  0  0  0  0  0  0  0  0  0  0
    4.1700    1.8500   20.7880 C   0  0  0  0  0  0  0  0  0  0  0  0
    5.3020    1.0650   21.4320 C   0  0  0  0  0  0  0  0  0  0  0  0
    5.8850    0.5350   20.0960 C   0  0  0  0  0  0  0  0  0  0  0  0
    9.9160    0.7320   23.6330 C   0  0  0  0  0  0  0  0  0  0  0  0
   11.1630    0.2640   23.2940 C   0  0  0  0  0  0  0  0  0  0  0  0
   12.5270   -1.2420   25.2180 C   0  0  0  0  0  0  0  0  0  0  0  0
   13.6660   -1.5810   25.7980 C   0  0  0  0  0  0  0  0  0  0  0  0
   19.1520   -2.0660   26.3900 N   0  0  0  0  0  0  0  0  0  0  0  0
   20.4650   -1.9150   25.8710 C   0  0  0  0  0  0  0  0  0  0  0  0
   21.5890   -1.8140   26.6950 C   0  0  0  0  0  0  0  0  0  0  0  0
   22.8590   -1.6660   26.1450 C   0  0  0  0  0  0  0  0  0  0  0  0
   22.9850   -1.6220   24.7690 C   0  0  0  0  0  0  0  0  0  0  0  0
   21.9370   -1.7140   23.9280 N   0  0  0  0  0  0  0  0  0  0  0  0
   20.7110   -1.8570   24.4950 C   0  0  0  0  0  0  0  0  0  0  0  0
  1  2  2  0
  2  3  1  0
  3  4  1  0
  4  5  2  0
  5  6  1  0
  6  7  2  0
  7  8  1  0
  8  9  1  0
  9 10  1  0
 10 11  1  0
 11 12  1  0
 12 13  2  0
 12 14  1  0
 14 15  1  0
 15 16  2  0
 16 17  1  0
 17 18  1  0
 18 19  1  0
 19 20  2  0
 20 21  1  0
 21 22  2  0
 15 23  1  0
 18 23  2  0
 22 23  1  0
 11 24  1  0
  8 25  1  0
 24 25  1  0
  7 26  1  0
  4 27  1  0
 26 27  2  0
  2 28  1  0
 28 29  1  0
 29 30  2  0
 30 31  1  0
 31 32  2  0
 32 33  1  0
 29 34  1  0
 33 34  2  0
M  END
