MAK-UNK-1bb0b7ee-10
     RDKit          3D

 21 21  0  0  0  0  0  0  0  0999 V2000
    3.6100   -7.6100   29.1000 C   0  0  0  0  0  0  0  0  0  0  0  0
    2.2090   -7.1880   28.7390 C   0  0  0  0  0  0  0  0  0  0  0  0
    1.4960   -6.5640   29.5270 O   0  0  0  0  0  0  0  0  0  0  0  0
    1.8220   -7.5670   27.4690 N   0  0  0  0  0  0  0  0  0  0  0  0
    0.7170   -6.9180   26.7670 C   0  0  2  0  0  0  0  0  0  0  0  0
   -0.0780   -7.8760   26.1570 C   0  0  0  0  0  0  0  0  0  0  0  0
    0.2330   -8.0700   24.7840 O   0  0  0  0  0  0  0  0  0  0  0  0
   -1.0980   -8.5770   26.8650 N   0  0  0  0  0  0  0  0  0  0  0  0
   -1.0380  -10.0130   26.9910 C   0  0  0  0  0  0  0  0  0  0  0  0
   -2.3210  -10.5470   26.8490 C   0  0  0  0  0  0  0  0  0  0  0  0
   -2.8870  -11.3090   27.8860 C   0  0  0  0  0  0  0  0  0  0  0  0
   -3.6540  -12.3650   29.2810 Br  0  0  0  0  0  0  0  0  0  0  0  0
    1.2380   -5.8720   25.7400 C   0  0  1  0  0  0  0  0  0  0  0  0
    0.2310   -5.4540   24.6840 C   0  0  0  0  0  0  0  0  0  0  0  0
    1.6480   -4.6620   26.4200 O   0  0  0  0  0  0  0  0  0  0  0  0
    2.0960   -3.5750   25.5570 C   0  0  0  0  0  0  0  0  0  0  0  0
    3.4600   -3.5990   25.2770 C   0  0  0  0  0  0  0  0  0  0  0  0
    3.8810   -2.1110   25.9120 S   0  0  0  0  0  0  0  0  0  0  0  0
    4.2280   -1.1730   24.8610 O   0  0  0  0  0  0  0  0  0  0  0  0
    4.6440   -2.2540   27.1360 O   0  0  0  0  0  0  0  0  0  0  0  0
    2.1940   -2.1280   26.2150 C   0  0  0  0  0  0  0  0  0  0  0  0
  1  2  1  0
  2  3  2  0
  2  4  1  0
  5  4  1  6
  5  6  1  0
  6  7  2  0
  6  8  1  0
  8  9  1  0
  9 10  1  0
 10 11  3  0
 11 12  1  0
  5 13  1  0
 13 14  1  6
 13 15  1  0
 15 16  1  0
 16 17  1  0
 18 17  1  0
 18 19  2  0
 18 20  2  0
 16 21  1  0
 18 21  1  0
M  END
