MAK-UNK-7264f48c-1
     RDKit          3D

 26 28  0  0  0  0  0  0  0  0999 V2000
    6.4360    0.6780   18.5680 C   0  0  0  0  0  0  0  0  0  0  0  0
    7.1890    0.3400   19.8330 C   0  0  0  0  0  0  0  0  0  0  0  0
    7.9240    1.1770   20.3820 O   0  0  0  0  0  0  0  0  0  0  0  0
    6.9420   -0.9650   20.2500 N   0  0  0  0  0  0  0  0  0  0  0  0
    6.0970   -1.3020   21.3300 C   0  0  0  0  0  0  0  0  0  0  0  0
    5.7410   -0.2750   22.2170 C   0  0  0  0  0  0  0  0  0  0  0  0
    4.9450   -0.3940   23.3000 N   0  0  0  0  0  0  0  0  0  0  0  0
    4.4560   -1.6140   23.5320 C   0  0  0  0  0  0  0  0  0  0  0  0
    4.7290   -2.7110   22.7340 C   0  0  0  0  0  0  0  0  0  0  0  0
    5.5660   -2.6120   21.5970 C   0  0  0  0  0  0  0  0  0  0  0  0
    5.7510   -3.9350   20.8380 C   0  0  0  0  0  0  0  0  0  0  0  0
    5.3800   -4.0950   19.6670 O   0  0  0  0  0  0  0  0  0  0  0  0
    6.3590   -5.0130   21.6610 N   0  0  0  0  0  0  0  0  0  0  0  0
    7.0850   -4.4660   22.7020 C   0  0  0  0  0  0  0  0  0  0  0  0
    6.3230   -4.2430   23.9760 C   0  0  0  0  0  0  0  0  0  0  0  0
    5.4630   -5.3530   24.2550 N   0  0  0  0  0  0  0  0  0  0  0  0
    4.6240   -5.2710   25.7380 S   0  0  0  0  0  0  0  0  0  0  0  0
    4.4290   -6.6380   26.1450 O   0  0  0  0  0  0  0  0  0  0  0  0
    5.2650   -4.2990   26.5980 O   0  0  0  0  0  0  0  0  0  0  0  0
    3.0340   -4.7290   25.4920 C   0  0  0  0  0  0  0  0  0  0  0  0
    2.2330   -3.8420   25.6180 C   0  0  0  0  0  0  0  0  0  0  0  0
    1.6460   -2.6800   25.9140 C   0  0  0  0  0  0  0  0  0  0  0  0
    0.4970   -3.7560   25.1750 S   0  0  0  0  0  0  0  0  0  0  0  0
    1.7740   -5.1540   24.9660 C   0  0  0  0  0  0  0  0  0  0  0  0
    4.7210   -5.8150   23.2090 C   0  0  0  0  0  0  0  0  0  0  0  0
    5.6430   -6.2200   22.0650 C   0  0  0  0  0  0  0  0  0  0  0  0
  1  2  1  0
  2  3  2  0
  2  4  1  0
  4  5  1  0
  5  6  2  0
  6  7  1  0
  7  8  2  0
  8  9  1  0
  5 10  1  0
  9 10  2  0
 10 11  1  0
 11 12  2  0
 11 13  1  0
 13 14  1  0
 14 15  1  0
 15 16  1  0
 16 17  1  0
 17 18  2  0
 17 19  2  0
 17 20  1  0
 20 21  1  0
 21 22  2  0
 22 23  1  0
 20 24  2  0
 23 24  1  0
 16 25  1  0
 13 26  1  0
 25 26  1  0
M  END
