MAK-UNK-60abb798-2
     RDKit          3D

 21 23  0  0  0  0  0  0  0  0999 V2000
   13.1000   -1.7370   22.0210 N   0  0  0  0  0  0  0  0  0  0  0  0
   12.9640   -2.4120   23.3290 C   0  0  0  0  0  0  0  0  0  0  0  0
   11.6760   -2.0220   24.0410 C   0  0  2  0  0  0  0  0  0  0  0  0
   10.5860   -2.8940   24.0580 O   0  0  0  0  0  0  0  0  0  0  0  0
    9.1010   -2.5540   23.8070 C   0  0  2  0  0  0  0  0  0  0  0  0
    8.0160   -3.5880   23.4460 C   0  0  2  0  0  0  0  0  0  0  0  0
    7.9050   -4.7510   24.1940 C   0  0  0  0  0  0  0  0  0  0  0  0
    6.8640   -5.7690   23.7240 C   0  0  0  0  0  0  0  0  0  0  0  0
    6.0260   -5.1900   22.5970 C   0  0  0  0  0  0  0  0  0  0  0  0
    6.8040   -4.3930   21.6050 C   0  0  1  0  0  0  0  0  0  0  0  0
    6.0620   -3.7640   20.6120 N   0  0  0  0  0  0  0  0  0  0  0  0
    7.8000   -3.5240   22.1160 C   0  0  0  0  0  0  0  0  0  0  0  0
    9.3530   -1.6040   22.7470 C   0  0  0  0  0  0  0  0  0  0  0  0
   10.5490   -1.6010   23.3310 C   0  0  0  0  0  0  0  0  0  0  0  0
   11.4670   -0.6180   23.4390 C   0  0  0  0  0  0  0  0  0  0  0  0
   12.6890   -0.3430   23.9500 C   0  0  0  0  0  0  0  0  0  0  0  0
   13.1920   -1.4510   24.6140 C   0  0  0  0  0  0  0  0  0  0  0  0
   12.4020   -2.7100   24.6780 C   0  0  0  0  0  0  0  0  0  0  0  0
   12.9920   -3.7060   25.3470 O   0  0  0  0  0  0  0  0  0  0  0  0
   11.0980   -2.7360   24.0260 C   0  0  0  0  0  0  0  0  0  0  0  0
   10.4730   -3.7990   24.1060 O   0  0  0  0  0  0  0  0  0  0  0  0
  1  2  1  0
  3  2  1  6
  3  4  1  0
  4  5  1  0
  5  6  1  0
  6  7  1  6
  7  8  1  0
  8  9  1  0
  9 10  1  0
 10 11  1  1
  6 12  1  0
 10 12  1  0
  5 13  1  6
 13 14  1  0
  3 15  1  0
 14 15  2  0
 15 16  1  0
 16 17  2  0
 17 18  1  0
 18 19  1  0
 14 20  1  0
 18 20  2  0
 20 21  1  0
M  END
