MAK-UNK-9e4a73aa-15
     RDKit          3D

 26 29  0  0  0  0  0  0  0  0999 V2000
    6.4170   -1.6520   20.1030 O   0  0  0  0  0  0  0  0  0  0  0  0
    6.9530   -1.9270   21.1690 C   0  0  0  0  0  0  0  0  0  0  0  0
    6.4640   -3.0440   22.0610 C   0  0  0  0  0  0  0  0  0  0  0  0
    5.3330   -3.9080   21.6060 C   0  0  0  0  0  0  0  0  0  0  0  0
    4.8610   -4.9770   22.5760 C   0  0  0  0  0  0  0  0  0  0  0  0
    3.8560   -5.7790   22.2730 F   0  0  0  0  0  0  0  0  0  0  0  0
    5.4130   -5.1840   23.8050 C   0  0  0  0  0  0  0  0  0  0  0  0
    4.7280   -6.4100   24.7860 Cl  0  0  0  0  0  0  0  0  0  0  0  0
    6.5720   -4.3510   24.2850 C   0  0  0  0  0  0  0  0  0  0  0  0
    7.0310   -3.2770   23.3090 C   0  0  0  0  0  0  0  0  0  0  0  0
    8.0640   -2.4610   23.7290 N   0  0  0  0  0  0  0  0  0  0  0  0
    7.6760   -1.9510   24.9550 C   0  0  0  0  0  0  0  0  0  0  0  0
    8.2300   -2.5950   26.0580 C   0  0  0  0  0  0  0  0  0  0  0  0
    7.9000   -2.2160   27.3680 C   0  0  0  0  0  0  0  0  0  0  0  0
    6.9920   -1.1710   27.5860 C   0  0  0  0  0  0  0  0  0  0  0  0
    6.3920   -0.4700   26.4020 C   0  0  0  0  0  0  0  0  0  0  0  0
    6.7600   -0.8890   25.1220 C   0  0  0  0  0  0  0  0  0  0  0  0
    8.8080   -1.7570   22.7470 C   0  0  0  0  0  0  0  0  0  0  0  0
   10.0350   -1.6210   22.8100 O   0  0  0  0  0  0  0  0  0  0  0  0
    8.0490   -1.2250   21.6850 N   0  0  0  0  0  0  0  0  0  0  0  0
    7.9870    0.2210   21.6520 C   0  0  0  0  0  0  0  0  0  0  0  0
    9.0270    1.0290   22.1560 C   0  0  0  0  0  0  0  0  0  0  0  0
    8.9330    2.5110   22.1200 N   0  0  0  0  0  0  0  0  0  0  0  0
    7.7390    2.9750   21.5510 C   0  0  0  0  0  0  0  0  0  0  0  0
    6.7450    2.2370   21.0650 N   0  0  0  0  0  0  0  0  0  0  0  0
    6.8960    0.8980   21.1280 C   0  0  0  0  0  0  0  0  0  0  0  0
  1  2  2  0
  2  3  1  0
  3  4  2  0
  4  5  1  0
  5  6  1  0
  5  7  2  0
  7  8  1  0
  7  9  1  0
  3 10  1  0
  9 10  2  0
 10 11  1  0
 11 12  1  0
 12 13  2  0
 13 14  1  0
 14 15  2  0
 15 16  1  0
 12 17  1  0
 16 17  2  0
 11 18  1  0
 18 19  2  0
  2 20  1  0
 18 20  1  0
 20 21  1  0
 21 22  2  0
 22 23  1  0
 23 24  2  0
 24 25  1  0
 21 26  1  0
 25 26  2  0
M  END
