MAK-UNK-129dcd6f-6
     RDKit          3D

 26 28  0  0  0  0  0  0  0  0999 V2000
    8.5280    3.0390   23.9770 C   0  0  0  0  0  0  0  0  0  0  0  0
    7.2560    3.5780   23.3800 C   0  0  0  0  0  0  0  0  0  0  0  0
    6.7470    4.6330   23.7550 O   0  0  0  0  0  0  0  0  0  0  0  0
    6.7350    2.7770   22.3880 N   0  0  0  0  0  0  0  0  0  0  0  0
    5.5840    1.9310   22.6560 C   0  0  0  0  0  0  0  0  0  0  0  0
    5.0960    2.1180   23.9580 C   0  0  0  0  0  0  0  0  0  0  0  0
    3.9150    1.3580   24.4520 N   0  0  0  0  0  0  0  0  0  0  0  0
    3.2940    0.4130   23.5140 C   0  0  0  0  0  0  0  0  0  0  0  0
    3.8420    0.2890   22.2430 C   0  0  0  0  0  0  0  0  0  0  0  0
    4.9980    1.0250   21.7510 C   0  0  0  0  0  0  0  0  0  0  0  0
    5.4380    0.8030   20.4670 C   0  0  0  0  0  0  0  0  0  0  0  0
    4.7800    1.4980   19.3670 C   0  0  0  0  0  0  0  0  0  0  0  0
    5.1790    1.3130   18.1070 C   0  0  0  0  0  0  0  0  0  0  0  0
    6.2100    0.4630   17.8640 N   0  0  0  0  0  0  0  0  0  0  0  0
    6.9020   -0.2500   18.8340 C   0  0  0  0  0  0  0  0  0  0  0  0
    6.4970   -0.0640   20.1560 C   0  0  0  0  0  0  0  0  0  0  0  0
    7.2130   -0.7730   21.0920 N   0  0  0  0  0  0  0  0  0  0  0  0
    8.4270   -0.2920   21.5800 C   0  0  0  0  0  0  0  0  0  0  0  0
    8.7430    0.8660   21.3150 O   0  0  0  0  0  0  0  0  0  0  0  0
    9.2510   -1.0750   22.3170 N   0  0  0  0  0  0  0  0  0  0  0  0
   10.5310   -0.5920   22.5160 C   0  0  0  0  0  0  0  0  0  0  0  0
   10.7260    0.8550   22.8820 C   0  0  0  0  0  0  0  0  0  0  0  0
   12.1720    1.2620   23.0430 C   0  0  0  0  0  0  0  0  0  0  0  0
   13.1720    0.3490   22.8640 C   0  0  0  0  0  0  0  0  0  0  0  0
   12.9190   -0.9750   22.5330 C   0  0  0  0  0  0  0  0  0  0  0  0
   11.6240   -1.4570   22.3550 C   0  0  0  0  0  0  0  0  0  0  0  0
  1  2  1  0
  2  3  2  0
  2  4  1  0
  4  5  1  0
  5  6  2  0
  6  7  1  0
  7  8  2  0
  8  9  1  0
  5 10  1  0
  9 10  2  0
 10 11  1  0
 11 12  2  0
 12 13  1  0
 13 14  2  0
 14 15  1  0
 11 16  1  0
 15 16  2  0
 16 17  1  0
 17 18  1  0
 18 19  2  0
 18 20  1  0
 20 21  1  0
 21 22  2  0
 22 23  1  0
 23 24  2  0
 24 25  1  0
 21 26  1  0
 25 26  2  0
M  END
