MAK-UNK-acefcb18-13
     RDKit          3D

 10 10  0  0  0  0  0  0  0  0999 V2000
    9.1860   -4.8300   26.6920 C   0  0  0  0  0  0  0  0  0  0  0  0
   10.3720   -4.6440   25.9250 O   0  0  0  0  0  0  0  0  0  0  0  0
   10.4970   -3.4990   25.1900 C   0  0  0  0  0  0  0  0  0  0  0  0
    9.2800   -2.8310   24.5320 C   0  0  0  0  0  0  0  0  0  0  0  0
    9.7020   -1.5030   24.0200 N   0  0  0  0  0  0  0  0  0  0  0  0
   10.9400   -1.1460   23.5370 C   0  0  0  0  0  0  0  0  0  0  0  0
   11.7510   -0.0690   23.8510 C   0  0  0  0  0  0  0  0  0  0  0  0
   12.9220    0.0060   23.1870 C   0  0  0  0  0  0  0  0  0  0  0  0
   13.1510   -1.2730   22.0960 S   0  0  0  0  0  0  0  0  0  0  0  0
   11.6010   -1.9030   22.5630 C   0  0  0  0  0  0  0  0  0  0  0  0
  1  2  1  0
  2  3  1  0
  3  4  1  0
  4  5  1  0
  5  6  1  0
  6  7  1  0
  7  8  2  0
  8  9  1  0
  6 10  2  0
  9 10  1  0
M  END
