MAK-UNK-0d6072ac-10
     RDKit          3D

 19 21  0  0  0  0  0  0  0  0999 V2000
    5.2010   -2.9230   20.8840 C   0  0  0  0  0  0  0  0  0  0  0  0
    5.2890   -4.0980   21.8250 C   0  0  2  0  0  0  0  0  0  0  0  0
    4.2710   -4.2300   22.9140 C   0  0  0  0  0  0  0  0  0  0  0  0
    4.4530   -3.7660   24.0310 O   0  0  0  0  0  0  0  0  0  0  0  0
    3.2630   -4.8540   22.5260 O   0  0  0  0  0  0  0  0  0  0  0  0
    6.6150   -4.0010   22.4940 C   0  0  0  0  0  0  0  0  0  0  0  0
    7.0460   -5.0090   23.2920 C   0  0  0  0  0  0  0  0  0  0  0  0
    8.3780   -4.8300   23.9360 C   0  0  0  0  0  0  0  0  0  0  0  0
    9.1730   -3.5130   23.6330 C   0  0  0  0  0  0  0  0  0  0  0  0
    8.5000   -2.5990   22.7620 C   0  0  0  0  0  0  0  0  0  0  0  0
    7.2520   -2.8300   22.2000 N   0  0  0  0  0  0  0  0  0  0  0  0
    9.3290   -1.5620   22.6500 N   0  0  0  0  0  0  0  0  0  0  0  0
   10.5220   -1.6780   23.3550 C   0  0  0  0  0  0  0  0  0  0  0  0
   11.5760   -0.7610   23.4250 C   0  0  0  0  0  0  0  0  0  0  0  0
   12.6920   -1.0640   24.1800 C   0  0  0  0  0  0  0  0  0  0  0  0
   12.7110   -2.3710   24.8860 C   0  0  0  0  0  0  0  0  0  0  0  0
   14.0470   -2.7920   25.8220 Cl  0  0  0  0  0  0  0  0  0  0  0  0
   11.6210   -3.2440   24.7710 C   0  0  0  0  0  0  0  0  0  0  0  0
   10.4850   -2.9520   24.0200 C   0  0  0  0  0  0  0  0  0  0  0  0
  2  1  1  1
  2  3  1  0
  3  4  2  0
  3  5  1  0
  2  6  1  0
  6  7  2  0
  7  8  1  0
  8  9  2  0
  9 10  1  0
  6 11  1  0
 10 11  2  0
 10 12  1  0
 12 13  1  0
 13 14  1  0
 14 15  2  0
 15 16  1  0
 16 17  1  0
 16 18  2  0
  9 19  1  0
 13 19  2  0
 18 19  1  0
M  END
