MAK-UNK-ae34c249-2
     RDKit          3D

 29 32  0  0  0  0  0  0  0  0999 V2000
    8.5500    0.0780   21.1970 O   0  0  0  0  0  0  0  0  0  0  0  0
    7.6220   -0.4230   21.8300 C   0  0  0  0  0  0  0  0  0  0  0  0
    6.4380   -0.7510   21.2490 N   0  0  0  0  0  0  0  0  0  0  0  0
    6.0430   -0.0660   20.0920 C   0  0  0  0  0  0  0  0  0  0  0  0
    4.8220    0.7140   20.1790 C   0  0  0  0  0  0  0  0  0  0  0  0
    4.4210    1.4140   19.0530 C   0  0  0  0  0  0  0  0  0  0  0  0
    5.2120    1.3250   17.9220 C   0  0  0  0  0  0  0  0  0  0  0  0
    6.3700    0.6090   17.7680 N   0  0  0  0  0  0  0  0  0  0  0  0
    6.7660   -0.0850   18.8810 C   0  0  0  0  0  0  0  0  0  0  0  0
    7.7110   -0.6440   23.2030 N   0  0  0  0  0  0  0  0  0  0  0  0
    8.9120   -0.1200   23.5400 C   0  0  0  0  0  0  0  0  0  0  0  0
    9.2140    1.1510   24.4120 C   0  0  0  0  0  0  0  0  0  0  0  0
   10.7000    1.4930   24.4500 C   0  0  0  0  0  0  0  0  0  0  0  0
   11.2890    0.5080   23.6840 C   0  0  0  0  0  0  0  0  0  0  0  0
   11.1050   -0.5970   22.9430 C   0  0  0  0  0  0  0  0  0  0  0  0
   11.9720   -1.1800   22.2750 C   0  0  0  0  0  0  0  0  0  0  0  0
   11.8140   -2.3470   21.6420 N   0  0  0  0  0  0  0  0  0  0  0  0
   12.7490   -2.3600   20.7800 N   0  0  0  0  0  0  0  0  0  0  0  0
   13.4580   -1.2650   20.8720 C   0  0  0  0  0  0  0  0  0  0  0  0
   14.3880   -0.8290   19.8850 C   0  0  0  0  0  0  0  0  0  0  0  0
   14.6150    0.5920   19.8760 N   0  0  0  0  0  0  0  0  0  0  0  0
   14.9270    0.6620   18.6040 C   0  0  0  0  0  0  0  0  0  0  0  0
   14.4910    1.6430   17.7540 C   0  0  0  0  0  0  0  0  0  0  0  0
   15.2130    2.8590   18.0590 C   0  0  0  0  0  0  0  0  0  0  0  0
   15.7670    2.7410   19.1390 C   0  0  0  0  0  0  0  0  0  0  0  0
   16.3460    3.7890   19.5240 F   0  0  0  0  0  0  0  0  0  0  0  0
   15.6340    1.3980   19.7770 C   0  0  0  0  0  0  0  0  0  0  0  0
   13.3090   -0.1680   22.1110 S   0  0  0  0  0  0  0  0  0  0  0  0
    9.8580   -0.9030   22.8920 C   0  0  0  0  0  0  0  0  0  0  0  0
  1  2  2  0
  2  3  1  0
  3  4  1  0
  4  5  2  0
  5  6  1  0
  6  7  2  0
  7  8  1  0
  4  9  1  0
  8  9  2  0
  2 10  1  0
 10 11  1  0
 11 12  2  0
 12 13  1  0
 13 14  2  0
 14 15  1  0
 15 16  1  0
 16 17  2  0
 17 18  1  0
 18 19  2  0
 19 20  1  0
 20 21  1  0
 21 22  1  0
 22 23  1  0
 23 24  1  0
 24 25  2  0
 25 26  1  0
 21 27  1  0
 25 27  1  0
 16 28  1  0
 19 28  1  0
 11 29  1  0
 15 29  2  0
M  END
