MAK-UNK-8145c7a0-6
     RDKit          3D

 26 28  0  0  0  0  0  0  0  0999 V2000
    9.2610   -5.5080   26.5530 C   0  0  0  0  0  0  0  0  0  0  0  0
    8.8770   -4.3160   25.7530 C   0  0  0  0  0  0  0  0  0  0  0  0
    7.9260   -3.4620   26.0640 N   0  0  0  0  0  0  0  0  0  0  0  0
    7.8020   -2.4430   25.1370 N   0  0  0  0  0  0  0  0  0  0  0  0
    8.6600   -2.5680   24.1440 C   0  0  0  0  0  0  0  0  0  0  0  0
    8.7630   -1.6240   22.9730 C   0  0  0  0  0  0  0  0  0  0  0  0
   10.0820   -0.9700   22.7820 N   0  0  0  0  0  0  0  0  0  0  0  0
   11.1420   -1.8890   22.2610 C   0  0  0  0  0  0  0  0  0  0  0  0
   12.4060   -1.1220   22.0020 C   0  0  0  0  0  0  0  0  0  0  0  0
   13.0990   -1.2800   20.8630 F   0  0  0  0  0  0  0  0  0  0  0  0
   12.8340   -0.2730   22.9110 C   0  0  0  0  0  0  0  0  0  0  0  0
   12.0480   -0.2230   24.1690 C   0  0  2  0  0  0  0  0  0  0  0  0
   12.4220   -1.8190   24.9380 S   0  0  0  0  0  0  0  0  0  0  0  0
   13.0290   -2.6360   23.9090 O   0  0  0  0  0  0  0  0  0  0  0  0
   11.2500   -2.2950   25.6200 O   0  0  0  0  0  0  0  0  0  0  0  0
   13.7120   -1.5440   26.0050 N   0  0  0  0  0  0  0  0  0  0  0  0
   14.9190   -2.3740   25.8180 C   0  0  0  0  0  0  0  0  0  0  0  0
   16.5020   -1.7940   26.1440 C   0  0  0  0  0  0  0  0  0  0  0  0
   18.3100   -1.7070   25.6800 C   0  0  0  0  0  0  0  0  0  0  0  0
   19.5110   -2.0560   26.5090 C   0  0  0  0  0  0  0  0  0  0  0  0
   20.8640   -1.9850   26.1960 C   0  0  0  0  0  0  0  0  0  0  0  0
   21.2970   -1.5510   25.0030 C   0  0  0  0  0  0  0  0  0  0  0  0
   20.3470   -1.1870   24.1290 C   0  0  0  0  0  0  0  0  0  0  0  0
   18.9910   -1.2560   24.4320 C   0  0  0  0  0  0  0  0  0  0  0  0
   10.5220   -0.1520   23.9510 C   0  0  0  0  0  0  0  0  0  0  0  0
    9.6850   -3.9390   24.2850 S   0  0  0  0  0  0  0  0  0  0  0  0
  1  2  1  0
  2  3  2  0
  3  4  1  0
  4  5  2  0
  5  6  1  0
  6  7  1  0
  7  8  1  0
  8  9  1  0
  9 10  1  0
  9 11  2  0
 11 12  1  0
 12 13  1  1
 13 14  2  0
 13 15  2  0
 13 16  1  0
 16 17  1  0
 17 18  1  0
 18 19  1  0
 19 20  2  0
 20 21  1  0
 21 22  2  0
 22 23  1  0
 19 24  1  0
 23 24  2  0
  7 25  1  0
 12 25  1  0
  2 26  1  0
  5 26  1  0
M  END
