MAK-UNK-01147c51-11
     RDKit          3D

 23 25  0  0  0  0  0  0  0  0999 V2000
    4.1030   -0.2600   25.0050 N   0  0  0  0  0  0  0  0  0  0  0  0
    5.1030    0.1550   24.0030 C   0  0  0  0  0  0  0  0  0  0  0  0
    4.9650   -0.5690   22.6870 C   0  0  2  0  0  0  0  0  0  0  0  0
    5.9830   -1.0620   22.1800 O   0  0  0  0  0  0  0  0  0  0  0  0
    6.7560   -0.1920   21.3280 C   0  0  1  0  0  0  0  0  0  0  0  0
    8.1470   -0.7320   21.1340 C   0  0  0  0  0  0  0  0  0  0  0  0
    8.6470   -1.7120   21.9950 C   0  0  0  0  0  0  0  0  0  0  0  0
    9.4410   -1.2400   23.2140 C   0  0  0  0  0  0  0  0  0  0  0  0
   10.8860   -1.7440   23.1550 C   0  0  0  0  0  0  0  0  0  0  0  0
   11.8910   -0.6320   23.1220 C   0  0  0  0  0  0  0  0  0  0  0  0
   13.0900   -0.7080   23.8500 C   0  0  0  0  0  0  0  0  0  0  0  0
   13.3310   -1.7590   24.7430 C   0  0  0  0  0  0  0  0  0  0  0  0
   12.5870   -2.8670   24.5440 C   0  0  0  0  0  0  0  0  0  0  0  0
   11.1610   -2.5720   24.3770 C   0  0  0  0  0  0  0  0  0  0  0  0
    6.0100    0.0090   19.9980 C   0  0  0  0  0  0  0  0  0  0  0  0
    4.7750    0.5970   20.2830 C   0  0  0  0  0  0  0  0  0  0  0  0
    4.2250    0.3060   21.6710 C   0  0  0  0  0  0  0  0  0  0  0  0
    2.9810    0.9250   21.9010 C   0  0  0  0  0  0  0  0  0  0  0  0
    2.3510    1.7180   20.9440 C   0  0  0  0  0  0  0  0  0  0  0  0
    2.8680    1.9750   19.6900 C   0  0  0  0  0  0  0  0  0  0  0  0
    2.2100    2.7660   18.7880 O   0  0  0  0  0  0  0  0  0  0  0  0
    4.0920    1.4050   19.3550 C   0  0  0  0  0  0  0  0  0  0  0  0
    4.6310    1.6360   18.1170 O   0  0  0  0  0  0  0  0  0  0  0  0
  1  2  1  0
  3  2  1  1
  3  4  1  0
  4  5  1  0
  5  6  1  6
  6  7  1  0
  7  8  1  0
  8  9  1  0
  9 10  1  0
 10 11  1  0
 11 12  1  0
 12 13  1  0
  9 14  1  0
 13 14  1  0
  5 15  1  0
 15 16  1  0
  3 17  1  0
 16 17  2  0
 17 18  1  0
 18 19  2  0
 19 20  1  0
 20 21  1  0
 16 22  1  0
 20 22  2  0
 22 23  1  0
M  END
