MAK-UNK-c7aa8293-16
     RDKit          3D

 24 26  0  0  0  0  0  0  0  0999 V2000
   13.1730   -1.6540   22.0850 N   0  0  0  0  0  0  0  0  0  0  0  0
   12.5650   -2.5680   23.0740 C   0  0  0  0  0  0  0  0  0  0  0  0
   11.7510   -2.0180   24.0060 C   0  0  2  0  0  0  0  0  0  0  0  0
   10.4490   -2.9020   24.1330 O   0  0  0  0  0  0  0  0  0  0  0  0
    9.0480   -2.5060   23.7010 C   0  0  2  0  0  0  0  0  0  0  0  0
    8.2110   -3.6900   23.1900 C   0  0  2  0  0  0  0  0  0  0  0  0
    7.2630   -3.2780   22.2980 C   0  0  0  0  0  0  0  0  0  0  0  0
    6.2810   -4.1850   21.9040 C   0  0  0  0  0  0  0  0  0  0  0  0
    5.8500   -5.1200   22.8480 C   0  0  1  0  0  0  0  0  0  0  0  0
    5.1630   -6.3230   22.2710 C   0  0  0  0  0  0  0  0  0  0  0  0
    3.8120   -6.5150   22.9620 C   0  0  0  0  0  0  0  0  0  0  0  0
    4.0570   -6.9130   24.3990 C   0  0  0  0  0  0  0  0  0  0  0  0
    3.4930   -8.1460   24.8600 O   0  0  0  0  0  0  0  0  0  0  0  0
    6.9380   -5.4600   23.6410 C   0  0  0  0  0  0  0  0  0  0  0  0
    7.8850   -4.6100   24.1700 C   0  0  0  0  0  0  0  0  0  0  0  0
    9.4780   -1.4840   22.9620 C   0  0  0  0  0  0  0  0  0  0  0  0
   10.6840   -1.5080   23.4460 C   0  0  0  0  0  0  0  0  0  0  0  0
   11.6650   -0.5630   23.5330 C   0  0  0  0  0  0  0  0  0  0  0  0
   12.9180   -0.4770   24.0220 C   0  0  0  0  0  0  0  0  0  0  0  0
   13.4100   -1.5990   24.6400 C   0  0  0  0  0  0  0  0  0  0  0  0
   12.5010   -2.7400   24.6780 C   0  0  0  0  0  0  0  0  0  0  0  0
   12.9120   -3.7200   25.2480 O   0  0  0  0  0  0  0  0  0  0  0  0
   11.1900   -2.7170   24.0890 C   0  0  0  0  0  0  0  0  0  0  0  0
   10.4840   -3.8930   24.2020 O   0  0  0  0  0  0  0  0  0  0  0  0
  1  2  1  0
  3  2  1  6
  3  4  1  0
  4  5  1  0
  5  6  1  0
  6  7  1  1
  7  8  1  0
  8  9  1  0
  9 10  1  6
 10 11  1  0
 11 12  1  0
 12 13  2  0
  9 14  1  0
  6 15  1  0
 14 15  1  0
  5 16  1  6
 16 17  1  0
  3 18  1  0
 17 18  2  0
 18 19  1  0
 19 20  2  0
 20 21  1  0
 21 22  1  0
 17 23  1  0
 21 23  2  0
 23 24  1  0
M  END
