MAK-UNK-f2409524-31
     RDKit          3D

 29 30  0  0  0  0  0  0  0  0999 V2000
    6.8570   -6.6360   22.4220 C   0  0  0  0  0  0  0  0  0  0  0  0
    5.5100   -6.1660   22.9200 C   0  0  0  0  0  0  0  0  0  0  0  0
    4.8570   -6.8300   23.7260 O   0  0  0  0  0  0  0  0  0  0  0  0
    5.0820   -4.8740   22.3740 N   0  0  0  0  0  0  0  0  0  0  0  0
    4.3960   -4.0150   23.3340 C   0  0  0  0  0  0  0  0  0  0  0  0
    3.4090   -4.7490   24.2270 C   0  0  0  0  0  0  0  0  0  0  0  0
    2.6370   -4.0220   25.2600 N   0  0  0  0  0  0  0  0  0  0  0  0
    2.8470   -2.5540   25.4090 C   0  0  0  0  0  0  0  0  0  0  0  0
    3.8410   -1.8300   24.5020 C   0  0  0  0  0  0  0  0  0  0  0  0
    4.6160   -2.6360   23.4410 C   0  0  0  0  0  0  0  0  0  0  0  0
    5.6010   -1.7500   22.5790 C   0  0  0  0  0  0  0  0  0  0  0  0
    4.9740   -0.6060   21.9320 N   0  0  0  0  0  0  0  0  0  0  0  0
    5.5730    0.6460   21.8940 C   0  0  0  0  0  0  0  0  0  0  0  0
    6.4480    0.9500   21.0770 O   0  0  0  0  0  0  0  0  0  0  0  0
    5.0790    1.6620   22.9640 C   0  0  2  0  0  0  0  0  0  0  0  0
    4.9440    0.9680   24.2240 N   0  0  0  0  0  0  0  0  0  0  0  0
    5.7100    1.3140   25.3150 C   0  0  0  0  0  0  0  0  0  0  0  0
    6.0370    0.1310   26.2150 C   0  0  0  0  0  0  0  0  0  0  0  0
    6.0920    2.4600   25.5520 O   0  0  0  0  0  0  0  0  0  0  0  0
    3.8520    2.3560   22.5720 N   0  0  0  0  0  0  0  0  0  0  0  0
    2.7220    2.5850   23.3230 C   0  0  0  0  0  0  0  0  0  0  0  0
    2.4890    1.8170   24.5070 O   0  0  0  0  0  0  0  0  0  0  0  0
    1.8890    3.5750   22.8440 N   0  0  0  0  0  0  0  0  0  0  0  0
    0.5390    3.9610   23.3190 C   0  0  0  0  0  0  0  0  0  0  0  0
    0.5860    4.6240   24.5320 C   0  0  0  0  0  0  0  0  0  0  0  0
   -0.6790    4.8650   25.0580 C   0  0  0  0  0  0  0  0  0  0  0  0
   -1.8060    4.5210   24.2820 C   0  0  0  0  0  0  0  0  0  0  0  0
   -1.7340    3.2690   23.6720 C   0  0  0  0  0  0  0  0  0  0  0  0
   -0.4100    2.9340   23.2510 C   0  0  0  0  0  0  0  0  0  0  0  0
  1  2  1  0
  2  3  2  0
  2  4  1  0
  4  5  1  0
  5  6  2  0
  6  7  1  0
  7  8  2  0
  8  9  1  0
  5 10  1  0
  9 10  2  0
 10 11  1  0
 11 12  1  0
 12 13  1  0
 13 14  2  0
 13 15  1  0
 15 16  1  1
 16 17  1  0
 17 18  1  0
 17 19  2  0
 15 20  1  0
 20 21  1  0
 21 22  2  0
 21 23  1  0
 23 24  1  0
 24 25  1  0
 25 26  1  0
 26 27  1  0
 27 28  1  0
 24 29  1  0
 28 29  1  0
M  END
