MAK-UNK-9e4a73aa-9
     RDKit          3D

 26 29  0  0  0  0  0  0  0  0999 V2000
   11.9100   -1.8380   22.5860 F   0  0  0  0  0  0  0  0  0  0  0  0
   10.7580   -1.7190   23.2600 C   0  0  0  0  0  0  0  0  0  0  0  0
    9.8330   -2.7340   23.1830 C   0  0  0  0  0  0  0  0  0  0  0  0
    8.6070   -2.6710   23.8610 C   0  0  0  0  0  0  0  0  0  0  0  0
    7.5580   -3.7490   23.7730 C   0  0  0  0  0  0  0  0  0  0  0  0
    7.7610   -5.4250   23.5610 S   0  0  0  0  0  0  0  0  0  0  0  0
    6.2940   -3.2040   23.8320 N   0  0  0  0  0  0  0  0  0  0  0  0
    5.8960   -2.8880   22.5100 C   0  0  0  0  0  0  0  0  0  0  0  0
    7.1580   -2.2210   22.7420 C   0  0  0  0  0  0  0  0  0  0  0  0
    7.9350   -1.3980   21.9240 C   0  0  0  0  0  0  0  0  0  0  0  0
    7.4960   -1.1360   20.7040 C   0  0  0  0  0  0  0  0  0  0  0  0
    6.3720   -1.6570   20.3160 N   0  0  0  0  0  0  0  0  0  0  0  0
    5.7020   -2.4430   21.1830 C   0  0  0  0  0  0  0  0  0  0  0  0
    5.9300   -2.2360   24.8140 C   0  0  0  0  0  0  0  0  0  0  0  0
    4.3170   -1.9630   25.3180 S   0  0  0  0  0  0  0  0  0  0  0  0
    7.0380   -1.5170   25.3190 N   0  0  0  0  0  0  0  0  0  0  0  0
    6.8570   -0.6770   26.4510 C   0  0  0  0  0  0  0  0  0  0  0  0
    6.5950    0.6850   26.2730 C   0  0  0  0  0  0  0  0  0  0  0  0
    6.4050    1.4990   27.3850 C   0  0  0  0  0  0  0  0  0  0  0  0
    6.4800    0.9560   28.6720 C   0  0  0  0  0  0  0  0  0  0  0  0
    6.7440   -0.4010   28.8500 C   0  0  0  0  0  0  0  0  0  0  0  0
    6.9310   -1.2210   27.7420 C   0  0  0  0  0  0  0  0  0  0  0  0
    8.3140   -1.5390   24.6490 C   0  0  0  0  0  0  0  0  0  0  0  0
    9.2880   -0.4980   24.7140 C   0  0  0  0  0  0  0  0  0  0  0  0
   10.5020   -0.6020   24.0090 C   0  0  0  0  0  0  0  0  0  0  0  0
   11.6850    0.6330   24.0410 Cl  0  0  0  0  0  0  0  0  0  0  0  0
  1  2  1  0
  2  3  2  0
  3  4  1  0
  4  5  1  0
  5  6  2  0
  5  7  1  0
  7  8  1  0
  8  9  2  0
  9 10  1  0
 10 11  2  0
 11 12  1  0
  8 13  1  0
 12 13  2  0
  7 14  1  0
 14 15  2  0
 14 16  1  0
 16 17  1  0
 17 18  2  0
 18 19  1  0
 19 20  2  0
 20 21  1  0
 17 22  1  0
 21 22  2  0
  4 23  2  0
 16 23  1  0
 23 24  1  0
  2 25  1  0
 24 25  2  0
 25 26  1  0
M  END
