MAK-UNK-acefcb18-29
     RDKit          3D

 42 46  0  0  0  0  0  0  0  0999 V2000
   -0.8390    9.0970   24.3490 C   0  0  0  0  0  0  0  0  0  0  0  0
   -0.1110    8.2770   25.4500 C   0  0  0  0  0  0  0  0  0  0  0  0
   -0.8630    7.0860   26.0450 C   0  0  0  0  0  0  0  0  0  0  0  0
   -0.2140    6.3570   27.0260 C   0  0  0  0  0  0  0  0  0  0  0  0
    1.0650    6.6720   27.4670 C   0  0  0  0  0  0  0  0  0  0  0  0
    1.6470    5.9100   28.4410 O   0  0  0  0  0  0  0  0  0  0  0  0
    1.6640    4.4990   28.2900 C   0  0  0  0  0  0  0  0  0  0  0  0
    2.7370    3.7920   28.8340 C   0  0  0  0  0  0  0  0  0  0  0  0
    3.8430    4.3060   29.0390 O   0  0  0  0  0  0  0  0  0  0  0  0
    2.4250    2.3990   29.1350 N   0  0  0  0  0  0  0  0  0  0  0  0
    1.5450    1.7420   28.1540 C   0  0  0  0  0  0  0  0  0  0  0  0
    1.5120    0.2270   28.2270 C   0  0  0  0  0  0  0  0  0  0  0  0
    2.5290   -0.4380   28.8300 N   0  0  0  0  0  0  0  0  0  0  0  0
    3.4700   -0.9850   28.0330 C   0  0  2  0  0  0  0  0  0  0  0  0
    3.9710   -0.2880   26.9310 C   0  0  0  0  0  0  0  0  0  0  0  0
    3.4360   -0.6690   25.6950 C   0  0  0  0  0  0  0  0  0  0  0  0
    3.9780   -1.8690   25.2130 C   0  0  0  0  0  0  0  0  0  0  0  0
    3.7560   -2.7830   26.2210 N   0  0  0  0  0  0  0  0  0  0  0  0
    3.9820   -4.1470   26.0680 C   0  0  0  0  0  0  0  0  0  0  0  0
    4.2680   -4.8560   27.0350 O   0  0  0  0  0  0  0  0  0  0  0  0
    3.8550   -4.6400   24.7590 C   0  0  0  0  0  0  0  0  0  0  0  0
    5.0150   -5.2410   24.2470 C   0  0  0  0  0  0  0  0  0  0  0  0
    6.2320   -5.1260   24.8280 N   0  0  0  0  0  0  0  0  0  0  0  0
    7.3260   -5.3280   24.0410 C   0  0  0  0  0  0  0  0  0  0  0  0
    7.5590   -6.3630   23.4300 O   0  0  0  0  0  0  0  0  0  0  0  0
    8.2750   -4.2310   23.8900 C   0  0  0  0  0  0  0  0  0  0  0  0
    9.2620   -3.5690   23.9590 C   0  0  0  0  0  0  0  0  0  0  0  0
    9.3580   -2.8670   22.8410 C   0  0  0  0  0  0  0  0  0  0  0  0
    8.7800   -1.6280   23.2310 N   0  0  0  0  0  0  0  0  0  0  0  0
    9.7970   -0.7870   23.8110 C   0  0  0  0  0  0  0  0  0  0  0  0
   11.0490   -0.9320   23.2440 C   0  0  0  0  0  0  0  0  0  0  0  0
   12.0130    0.2240   23.1040 C   0  0  0  0  0  0  0  0  0  0  0  0
   13.2050   -0.0650   22.5540 C   0  0  0  0  0  0  0  0  0  0  0  0
   13.2500   -1.7150   22.1450 S   0  0  0  0  0  0  0  0  0  0  0  0
   11.6670   -2.0490   22.7280 C   0  0  0  0  0  0  0  0  0  0  0  0
    7.8080   -1.8230   24.1820 C   0  0  0  0  0  0  0  0  0  0  0  0
    7.3300   -3.1240   24.3730 C   0  0  0  0  0  0  0  0  0  0  0  0
    2.9900   -2.3350   27.4000 C   0  0  0  0  0  0  0  0  0  0  0  0
    3.0390    0.2770   30.0190 C   0  0  0  0  0  0  0  0  0  0  0  0
    3.4720    1.5630   29.7020 C   0  0  0  0  0  0  0  0  0  0  0  0
    1.7600    7.7640   26.9230 C   0  0  0  0  0  0  0  0  0  0  0  0
    1.1800    8.5600   25.9240 C   0  0  0  0  0  0  0  0  0  0  0  0
  1  2  1  0
  2  3  2  0
  3  4  1  0
  4  5  2  0
  5  6  1  0
  6  7  1  0
  7  8  1  0
  8  9  2  0
  8 10  1  0
 10 11  1  0
 11 12  1  0
 12 13  1  0
 14 13  1  6
 14 15  1  0
 15 16  1  0
 16 17  1  0
 17 18  1  0
 18 19  1  0
 19 20  2  0
 19 21  1  0
 21 22  1  0
 22 23  1  0
 23 24  1  0
 24 25  2  0
 24 26  1  0
 26 27  1  0
 27 28  1  0
 28 29  1  0
 29 30  1  0
 30 31  1  0
 31 32  1  0
 32 33  2  0
 33 34  1  0
 31 35  2  0
 34 35  1  0
 29 36  1  0
 26 37  1  0
 36 37  1  0
 14 38  1  0
 18 38  1  0
 13 39  1  0
 10 40  1  0
 39 40  1  0
  5 41  1  0
  2 42  1  0
 41 42  2  0
M  END
