MAK-UNK-9e4a73aa-22
     RDKit          3D

 26 29  0  0  0  0  0  0  0  0999 V2000
    6.2310    0.4870   24.2170 O   0  0  0  0  0  0  0  0  0  0  0  0
    7.2990   -0.0090   23.8740 C   0  0  0  0  0  0  0  0  0  0  0  0
    8.4170    0.9490   23.4830 C   0  0  0  0  0  0  0  0  0  0  0  0
    8.1700    2.3340   23.4430 C   0  0  0  0  0  0  0  0  0  0  0  0
    9.1720    3.2370   23.1100 C   0  0  0  0  0  0  0  0  0  0  0  0
    8.9260    4.5550   23.0840 F   0  0  0  0  0  0  0  0  0  0  0  0
   10.5150    2.6420   22.7980 C   0  0  0  0  0  0  0  0  0  0  0  0
   11.7810    3.7350   22.3940 Cl  0  0  0  0  0  0  0  0  0  0  0  0
   10.7330    1.2650   22.8380 C   0  0  0  0  0  0  0  0  0  0  0  0
    9.6810    0.3990   23.1850 C   0  0  0  0  0  0  0  0  0  0  0  0
    9.8570   -1.0240   23.2560 N   0  0  0  0  0  0  0  0  0  0  0  0
   11.1050   -1.5690   23.3330 C   0  0  0  0  0  0  0  0  0  0  0  0
   11.7530   -1.9650   22.0580 C   0  0  0  0  0  0  0  0  0  0  0  0
   13.0200   -2.5450   22.1230 C   0  0  0  0  0  0  0  0  0  0  0  0
   13.6900   -2.7600   23.3530 C   0  0  0  0  0  0  0  0  0  0  0  0
   13.1660   -2.4150   24.5920 C   0  0  0  0  0  0  0  0  0  0  0  0
   11.9350   -1.8490   24.5770 C   0  0  0  0  0  0  0  0  0  0  0  0
    8.8620   -1.9330   23.7510 C   0  0  0  0  0  0  0  0  0  0  0  0
    9.1330   -3.0900   24.0640 O   0  0  0  0  0  0  0  0  0  0  0  0
    7.5790   -1.4470   23.8310 N   0  0  0  0  0  0  0  0  0  0  0  0
    6.6970   -2.1300   22.9370 C   0  0  0  0  0  0  0  0  0  0  0  0
    7.5960   -1.1800   22.3960 C   0  0  0  0  0  0  0  0  0  0  0  0
    7.5910   -0.9460   21.0980 C   0  0  0  0  0  0  0  0  0  0  0  0
    7.0720   -1.2140   19.9260 C   0  0  0  0  0  0  0  0  0  0  0  0
    6.1860   -2.1360   20.3570 N   0  0  0  0  0  0  0  0  0  0  0  0
    6.0280   -2.5530   21.7520 C   0  0  0  0  0  0  0  0  0  0  0  0
  1  2  2  0
  2  3  1  0
  3  4  2  0
  4  5  1  0
  5  6  1  0
  5  7  2  0
  7  8  1  0
  7  9  1  0
  3 10  1  0
  9 10  2  0
 10 11  1  0
 11 12  1  0
 12 13  2  0
 13 14  1  0
 14 15  2  0
 15 16  1  0
 12 17  1  0
 16 17  2  0
 11 18  1  0
 18 19  2  0
  2 20  1  0
 18 20  1  0
 20 21  1  0
 21 22  2  0
 22 23  1  0
 23 24  2  0
 24 25  1  0
 21 26  1  0
 25 26  2  0
M  END
