MAK-UNK-9a6be56d-28
     RDKit          3D

 38 42  0  0  0  0  0  0  0  0999 V2000
    9.5720    0.0690   23.2040 C   0  0  0  0  0  0  0  0  0  0  0  0
   10.9900    0.1210   22.9440 N   0  0  0  0  0  0  0  0  0  0  0  0
   11.7790   -0.9440   23.2760 C   0  0  0  0  0  0  0  0  0  0  0  0
   12.8970   -0.9500   22.3440 C   0  0  0  0  0  0  0  0  0  0  0  0
   13.5970    0.4350   22.1680 C   0  0  0  0  0  0  0  0  0  0  0  0
   12.9810    1.5920   22.5120 C   0  0  0  0  0  0  0  0  0  0  0  0
   13.7000    2.9020   22.4860 C   0  0  0  0  0  0  0  0  0  0  0  0
   15.2310    3.2120   22.1160 N   0  0  0  0  0  0  0  0  0  0  0  0
   16.0860    4.3450   22.8000 C   0  0  0  0  0  0  0  0  0  0  0  0
   17.6570    4.6510   22.7520 C   0  0  0  0  0  0  0  0  0  0  0  0
   18.4360    4.4200   24.0270 C   0  0  0  0  0  0  0  0  0  0  0  0
   19.8180    4.9000   23.7470 C   0  0  0  0  0  0  0  0  0  0  0  0
   20.8350    4.8940   24.7410 C   0  0  0  0  0  0  0  0  0  0  0  0
   21.6720    3.7730   24.8900 C   0  0  0  0  0  0  0  0  0  0  0  0
   22.6790    3.7150   25.8570 C   0  0  0  0  0  0  0  0  0  0  0  0
   22.8880    4.7780   26.7100 C   0  0  0  0  0  0  0  0  0  0  0  0
   22.0310    5.9790   26.5770 C   0  0  0  0  0  0  0  0  0  0  0  0
   21.0380    6.0100   25.6060 C   0  0  0  0  0  0  0  0  0  0  0  0
   20.2930    7.1150   25.5110 F   0  0  0  0  0  0  0  0  0  0  0  0
   19.8970    5.3280   22.4880 N   0  0  0  0  0  0  0  0  0  0  0  0
   21.2220    6.0360   21.6460 S   0  0  0  0  0  0  0  0  0  0  0  0
   20.6540    6.2420   20.3600 O   0  0  0  0  0  0  0  0  0  0  0  0
   21.5960    7.1680   22.4540 O   0  0  0  0  0  0  0  0  0  0  0  0
   22.6270    5.0310   21.5390 C   0  0  0  0  0  0  0  0  0  0  0  0
   23.2870    4.5270   20.2420 C   0  0  0  0  0  0  0  0  0  0  0  0
   24.4210    3.7380   20.2980 C   0  0  0  0  0  0  0  0  0  0  0  0
   24.9400    3.4210   21.5360 C   0  0  0  0  0  0  0  0  0  0  0  0
   24.3710    3.8630   22.8020 N   0  0  0  0  0  0  0  0  0  0  0  0
   23.2450    4.6440   22.7330 C   0  0  0  0  0  0  0  0  0  0  0  0
   18.6320    5.1700   21.8490 C   0  0  0  0  0  0  0  0  0  0  0  0
   12.8760    3.9820   22.8900 C   0  0  0  0  0  0  0  0  0  0  0  0
   11.4210    3.7670   23.2690 C   0  0  0  0  0  0  0  0  0  0  0  0
   10.3700    5.0980   23.7770 S   0  0  0  0  0  0  0  0  0  0  0  0
   11.3260    6.4510   23.4830 N   0  0  0  0  0  0  0  0  0  0  0  0
   10.2270    5.0320   25.2140 O   0  0  0  0  0  0  0  0  0  0  0  0
    9.2170    5.1500   22.9230 O   0  0  0  0  0  0  0  0  0  0  0  0
   10.8740    2.5190   23.2430 C   0  0  0  0  0  0  0  0  0  0  0  0
   11.6210    1.4020   22.8920 C   0  0  0  0  0  0  0  0  0  0  0  0
  1  2  1  0
  2  3  1  0
  3  4  1  0
  4  5  1  0
  5  6  1  0
  6  7  1  0
  7  8  1  0
  8  9  1  0
  9 10  1  0
 10 11  1  0
 11 12  2  0
 12 13  1  0
 13 14  2  0
 14 15  1  0
 15 16  2  0
 16 17  1  0
 13 18  1  0
 17 18  2  0
 18 19  1  0
 12 20  1  0
 20 21  1  0
 21 22  2  0
 21 23  2  0
 21 24  1  0
 24 25  2  0
 25 26  1  0
 26 27  2  0
 27 28  1  0
 24 29  1  0
 28 29  2  0
 10 30  2  0
 20 30  1  0
  7 31  2  0
 31 32  1  0
 32 33  1  0
 33 34  1  0
 33 35  2  0
 33 36  2  0
 32 37  2  0
  2 38  1  0
  6 38  2  0
 37 38  1  0
M  END
