MAK-UNK-f2409524-3
     RDKit          3D

 22 23  0  0  0  0  0  0  0  0999 V2000
    4.0330    2.2890   18.9050 C   0  0  0  0  0  0  0  0  0  0  0  0
    4.7970    1.3460   19.7090 N   0  0  0  0  0  0  0  0  0  0  0  0
    4.2230    0.3720   20.5020 C   0  0  0  0  0  0  0  0  0  0  0  0
    4.6220    0.4090   21.9410 C   0  0  0  0  0  0  0  0  0  0  0  0
    5.0190    1.6950   22.6780 C   0  0  0  0  0  0  0  0  0  0  0  0
    3.9230    2.6500   22.7060 N   0  0  0  0  0  0  0  0  0  0  0  0
    2.8010    2.3700   23.4470 C   0  0  0  0  0  0  0  0  0  0  0  0
    2.7160    1.4600   24.2600 O   0  0  0  0  0  0  0  0  0  0  0  0
    1.7890    3.2560   23.1500 N   0  0  0  0  0  0  0  0  0  0  0  0
    0.5770    3.3190   23.9540 C   0  0  0  0  0  0  0  0  0  0  0  0
    0.3760    4.6860   24.5450 C   0  0  0  0  0  0  0  0  0  0  0  0
   -0.8730    5.1010   25.0460 C   0  0  0  0  0  0  0  0  0  0  0  0
   -2.0790    4.5910   24.2830 C   0  0  0  0  0  0  0  0  0  0  0  0
   -1.9850    3.3300   23.6960 C   0  0  0  0  0  0  0  0  0  0  0  0
   -0.6400    2.8960   23.1080 C   0  0  0  0  0  0  0  0  0  0  0  0
    6.0160    0.8580   19.0670 C   0  0  0  0  0  0  0  0  0  0  0  0
    7.0490    0.2650   20.0370 C   0  0  0  0  0  0  0  0  0  0  0  0
    6.9120   -0.7640   19.0600 C   0  0  0  0  0  0  0  0  0  0  0  0
    7.6630   -0.7530   20.1300 N   0  0  0  0  0  0  0  0  0  0  0  0
    7.4540    0.5290   20.8040 C   0  0  0  0  0  0  0  0  0  0  0  0
    8.2840   -0.0520   21.4920 N   0  0  0  0  0  0  0  0  0  0  0  0
    8.0190   -0.8540   20.5320 C   0  0  0  0  0  0  0  0  0  0  0  0
  1  2  1  0
  2  3  1  0
  3  4  1  0
  4  5  1  0
  5  6  1  0
  6  7  1  0
  7  8  2  0
  7  9  1  0
  9 10  1  0
 10 11  1  0
 11 12  1  0
 12 13  1  0
 13 14  1  0
 10 15  1  0
 14 15  1  0
  2 16  1  0
 16 17  1  0
 17 18  2  0
 18 19  1  0
 19 20  2  0
 20 21  1  0
 17 22  1  0
 21 22  2  0
M  END
