MAK-UNK-b1d4dcd7-4
     RDKit          3D

 29 32  0  0  0  0  0  0  0  0999 V2000
    5.3790   -2.6790   20.1880 O   0  0  0  0  0  0  0  0  0  0  0  0
    6.2840   -1.9210   20.5340 C   0  0  0  0  0  0  0  0  0  0  0  0
    6.5060   -0.3660   20.1670 C   0  0  0  0  0  0  0  0  0  0  0  0
    5.7660    0.8930   20.9100 C   0  0  2  0  0  0  0  0  0  0  0  0
    6.5910    1.7220   21.6860 C   0  0  1  0  0  0  0  0  0  0  0  0
    6.1240    3.0680   21.3660 O   0  0  0  0  0  0  0  0  0  0  0  0
    6.4050    1.7140   23.0730 C   0  0  0  0  0  0  0  0  0  0  0  0
    5.1050    1.7700   23.5580 C   0  0  0  0  0  0  0  0  0  0  0  0
    4.0660    1.5580   22.6310 C   0  0  0  0  0  0  0  0  0  0  0  0
    4.4810    0.6040   21.6150 N   0  0  0  0  0  0  0  0  0  0  0  0
    3.4850    0.3020   20.6200 C   0  0  0  0  0  0  0  0  0  0  0  0
    4.2490   -0.5710   19.7270 C   0  0  0  0  0  0  0  0  0  0  0  0
    4.7160   -1.7930   20.1570 C   0  0  0  0  0  0  0  0  0  0  0  0
    5.4820   -2.5830   19.2950 C   0  0  0  0  0  0  0  0  0  0  0  0
    5.7870   -2.1150   18.0240 C   0  0  0  0  0  0  0  0  0  0  0  0
    5.3120   -0.8800   17.5620 C   0  0  0  0  0  0  0  0  0  0  0  0
    4.5340   -0.0520   18.3350 C   0  0  0  0  0  0  0  0  0  0  0  0
    7.3030   -2.4290   21.2780 N   0  0  0  0  0  0  0  0  0  0  0  0
    8.6280   -2.2170   20.7380 C   0  0  0  0  0  0  0  0  0  0  0  0
    9.4200   -1.8040   21.7730 C   0  0  0  0  0  0  0  0  0  0  0  0
    9.2050   -2.0230   23.1180 N   0  0  0  0  0  0  0  0  0  0  0  0
   10.1860   -1.7070   24.1600 C   0  0  0  0  0  0  0  0  0  0  0  0
   11.4410   -0.9520   23.7050 C   0  0  0  0  0  0  0  0  0  0  0  0
   12.3280   -0.4170   23.3820 C   0  0  0  0  0  0  0  0  0  0  0  0
   11.3430   -0.3760   22.6010 C   0  0  0  0  0  0  0  0  0  0  0  0
   10.5930   -1.2210   23.6480 C   0  0  0  0  0  0  0  0  0  0  0  0
   11.7320   -1.5620   25.0560 S   0  0  0  0  0  0  0  0  0  0  0  0
    8.3770   -3.2310   23.3790 C   0  0  0  0  0  0  0  0  0  0  0  0
    7.1740   -3.3510   22.4050 C   0  0  0  0  0  0  0  0  0  0  0  0
  1  2  2  0
  2  3  1  0
  4  3  1  1
  4  5  1  0
  5  6  1  6
  5  7  1  0
  7  8  1  0
  8  9  1  0
  4 10  1  0
  9 10  1  0
 10 11  1  0
 11 12  1  0
 12 13  2  0
 13 14  1  0
 14 15  2  0
 15 16  1  0
 12 17  1  0
 16 17  2  0
  2 18  1  0
 18 19  1  0
 19 20  1  0
 20 21  1  0
 21 22  1  0
 22 23  1  0
 23 24  2  0
 24 25  1  0
 25 26  2  0
 23 27  1  0
 26 27  1  0
 21 28  1  0
 18 29  1  0
 28 29  1  0
M  END
