MAN-SYN-45e45961-9
     RDKit          3D

 18 19  0  0  0  0  0  0  0  0999 V2000
   13.1490   -1.7910   21.1270 C   0  0  0  0  0  0  0  0  0  0  0  0
   13.0200   -2.7850   22.2040 C   0  0  0  0  0  0  0  0  0  0  0  0
   13.4070   -2.3300   23.5620 C   0  0  2  0  0  0  0  0  0  0  0  0
   12.7200   -2.9120   24.7780 C   0  0  0  0  0  0  0  0  0  0  0  0
   13.3110   -1.1150   23.6990 O   0  0  0  0  0  0  0  0  0  0  0  0
   12.0050   -0.7600   23.7250 C   0  0  0  0  0  0  0  0  0  0  0  0
   11.2760   -0.1360   24.6540 N   0  0  0  0  0  0  0  0  0  0  0  0
    9.8560   -0.0210   24.3590 C   0  0  0  0  0  0  0  0  0  0  0  0
    8.8680    0.6120   25.2740 C   0  0  0  0  0  0  0  0  0  0  0  0
    8.1660    1.7320   24.7980 N   0  0  0  0  0  0  0  0  0  0  0  0
    8.6970    0.0450   26.5120 O   0  0  0  0  0  0  0  0  0  0  0  0
    9.1860   -0.5390   23.1230 N   0  0  0  0  0  0  0  0  0  0  0  0
   10.2190   -1.0580   22.4910 N   0  0  0  0  0  0  0  0  0  0  0  0
   11.1720   -0.5840   23.6470 C   0  0  0  0  0  0  0  0  0  0  0  0
   12.8690   -0.7110   23.8740 Cl  0  0  0  0  0  0  0  0  0  0  0  0
   10.2140    0.0010   24.4520 C   0  0  0  0  0  0  0  0  0  0  0  0
    9.8380   -0.5890   23.2440 C   0  0  0  0  0  0  0  0  0  0  0  0
   11.2740   -1.1620   22.6560 C   0  0  0  0  0  0  0  0  0  0  0  0
  1  2  1  0
  2  3  1  0
  3  4  1  1
  3  5  1  0
  5  6  1  0
  6  7  2  0
  7  8  1  0
  8  9  1  0
  9 10  1  0
  9 11  2  0
  8 12  2  0
 12 13  1  0
 13 14  1  0
 14 15  1  0
 14 16  2  0
 16 17  1  0
  6 18  1  0
 13 18  1  0
 17 18  2  0
M  END
