MAN-SYN-45e45961-1
     RDKit          3D

 21 22  0  0  0  0  0  0  0  0999 V2000
   13.5140   -0.0140   23.3010 C   0  0  0  0  0  0  0  0  0  0  0  0
   12.9500   -0.4340   22.1080 C   0  0  1  0  0  0  0  0  0  0  0  0
   13.3560   -1.2360   21.0270 C   0  0  0  0  0  0  0  0  0  0  0  0
   14.1560   -0.4950   19.9700 C   0  0  0  0  0  0  0  0  0  0  0  0
   14.9050    0.9430   19.8630 C   0  0  0  0  0  0  0  0  0  0  0  0
   15.8650    1.5190   19.0100 N   0  0  0  0  0  0  0  0  0  0  0  0
   15.9980    2.8730   19.4790 C   0  0  0  0  0  0  0  0  0  0  0  0
   15.2500    2.0220   17.9890 C   0  0  0  0  0  0  0  0  0  0  0  0
   14.9000    3.2640   18.3200 C   0  0  0  0  0  0  0  0  0  0  0  0
   15.5040    4.1410   17.3750 O   0  0  0  0  0  0  0  0  0  0  0  0
   11.6470   -0.5720   22.2950 N   0  0  0  0  0  0  0  0  0  0  0  0
   11.3290   -1.3930   23.4200 C   0  0  0  0  0  0  0  0  0  0  0  0
   10.4480   -1.7410   24.2740 N   0  0  0  0  0  0  0  0  0  0  0  0
   11.5470   -2.6150   24.7550 C   0  0  0  0  0  0  0  0  0  0  0  0
   12.7770   -2.2240   25.1410 N   0  0  0  0  0  0  0  0  0  0  0  0
   12.1110   -1.1830   24.7950 N   0  0  0  0  0  0  0  0  0  0  0  0
   11.2290   -0.4260   23.8980 C   0  0  0  0  0  0  0  0  0  0  0  0
   10.5200    1.3230   24.1470 Br  0  0  0  0  0  0  0  0  0  0  0  0
   10.7790   -1.1150   22.5670 C   0  0  0  0  0  0  0  0  0  0  0  0
   11.4900   -2.4320   22.5640 C   0  0  0  0  0  0  0  0  0  0  0  0
   12.1310   -2.2210   23.8440 C   0  0  0  0  0  0  0  0  0  0  0  0
  2  1  1  1
  2  3  1  0
  3  4  1  0
  4  5  1  0
  5  6  1  0
  6  7  1  0
  6  8  1  0
  8  9  1  0
  9 10  1  0
  2 11  1  0
 11 12  1  0
 12 13  2  0
 13 14  1  0
 14 15  2  0
 15 16  1  0
 16 17  1  0
 17 18  1  0
 17 19  2  0
 19 20  1  0
 12 21  1  0
 16 21  1  0
 20 21  2  0
M  END
