MAR-UNI-c84db004-11
     RDKit          3D

 23 25  0  0  0  0  0  0  0  0999 V2000
    7.7650   -3.6100   23.4620 C   0  0  0  0  0  0  0  0  0  0  0  0
    7.5470   -2.3620   22.7130 C   0  0  0  0  0  0  0  0  0  0  0  0
    6.4250   -1.5860   22.5540 C   0  0  0  0  0  0  0  0  0  0  0  0
    8.7200   -1.5300   23.1390 C   0  0  0  0  0  0  0  0  0  0  0  0
    9.9320   -2.2760   23.5690 C   0  0  0  0  0  0  0  0  0  0  0  0
   11.0670   -2.4520   23.9870 O   0  0  0  0  0  0  0  0  0  0  0  0
   10.0500   -0.9360   23.7110 C   0  0  0  0  0  0  0  0  0  0  0  0
    8.8060   -0.3410   24.0960 O   0  0  0  0  0  0  0  0  0  0  0  0
   11.2420   -0.0430   23.5360 C   0  0  0  0  0  0  0  0  0  0  0  0
   10.0530    0.4300   23.2310 C   0  0  0  0  0  0  0  0  0  0  0  0
   10.0140   -0.9880   23.6730 C   0  0  0  0  0  0  0  0  0  0  0  0
   10.7620   -0.9450   22.3930 C   0  0  0  0  0  0  0  0  0  0  0  0
   11.6950   -1.8490   22.7110 C   0  0  1  0  0  0  0  0  0  0  0  0
   12.8310   -2.0760   21.9820 C   0  0  0  0  0  0  0  0  0  0  0  0
   13.5920   -2.9520   22.9090 C   0  0  0  0  0  0  0  0  0  0  0  0
   12.5060   -2.5140   20.6890 C   0  0  0  0  0  0  0  0  0  0  0  0
   13.5560   -0.8630   21.7960 C   0  0  0  0  0  0  0  0  0  0  0  0
   13.2970    0.1320   22.6390 C   0  0  0  0  0  0  0  0  0  0  0  0
   13.2340   -0.4750   23.8360 C   0  0  0  0  0  0  0  0  0  0  0  0
   12.1450   -1.1550   23.9700 C   0  0  1  0  0  0  0  0  0  0  0  0
   11.9600   -1.9020   25.0840 C   0  0  0  0  0  0  0  0  0  0  0  0
    8.7460    0.0050   23.1610 C   0  0  0  0  0  0  0  0  0  0  0  0
    7.6560    0.8370   23.1120 O   0  0  0  0  0  0  0  0  0  0  0  0
  1  2  1  0
  2  3  1  0
  2  4  1  0
  4  5  2  0
  5  6  1  0
  5  7  1  0
  7  8  2  0
  7  9  1  0
  9 10  2  0
 10 11  1  0
 11 12  1  0
 13 12  1  6
 13 14  1  0
 14 15  1  0
 14 16  1  0
 14 17  1  0
 17 18  1  0
 18 19  1  0
  9 20  1  0
 13 20  1  0
 19 20  1  0
 20 21  1  1
  4 22  1  0
 10 22  1  0
 22 23  2  0
M  END
