MAR-SOS-82e3a7c7-2
     RDKit          3D

 32 35  0  0  0  0  0  0  0  0999 V2000
    8.9510   -4.9970   26.4720 O   0  0  0  0  0  0  0  0  0  0  0  0
    7.8620   -4.5460   26.0960 C   0  0  0  0  0  0  0  0  0  0  0  0
    7.7180   -3.6800   25.0130 N   0  0  0  0  0  0  0  0  0  0  0  0
    8.6690   -3.3520   24.0870 C   0  0  2  0  0  0  0  0  0  0  0  0
    9.0680   -1.9420   23.8930 C   0  0  0  0  0  0  0  0  0  0  0  0
   10.4090   -1.8230   23.6110 C   0  0  0  0  0  0  0  0  0  0  0  0
   11.3200   -1.8050   24.6780 C   0  0  0  0  0  0  0  0  0  0  0  0
   12.7050   -1.6860   24.5550 C   0  0  0  0  0  0  0  0  0  0  0  0
   13.2350   -1.5810   23.2880 C   0  0  0  0  0  0  0  0  0  0  0  0
   12.3670   -1.5980   22.0820 C   0  0  0  0  0  0  0  0  0  0  0  0
   10.9050   -1.7250   22.3090 C   0  0  0  0  0  0  0  0  0  0  0  0
    8.2050   -3.8730   22.7380 C   0  0  0  0  0  0  0  0  0  0  0  0
    9.0430   -3.0470   22.3840 O   0  0  0  0  0  0  0  0  0  0  0  0
    7.3120   -4.7320   23.5610 C   0  0  0  0  0  0  0  0  0  0  0  0
    7.7370   -5.6510   24.2450 O   0  0  0  0  0  0  0  0  0  0  0  0
    5.8910   -4.3890   23.4290 N   0  0  0  0  0  0  0  0  0  0  0  0
    5.5510   -4.6500   22.0230 C   0  0  0  0  0  0  0  0  0  0  0  0
    5.1000   -3.4660   21.4280 C   0  0  0  0  0  0  0  0  0  0  0  0
    5.8300   -2.3990   21.7620 N   0  0  0  0  0  0  0  0  0  0  0  0
    6.0490   -1.4260   20.7890 C   0  0  0  0  0  0  0  0  0  0  0  0
    5.4070   -1.5130   19.3650 C   0  0  0  0  0  0  0  0  0  0  0  0
    5.6760   -0.4960   18.4530 C   0  0  0  0  0  0  0  0  0  0  0  0
    6.4960    0.5910   18.7610 C   0  0  0  0  0  0  0  0  0  0  0  0
    7.0690    0.6690   20.0310 C   0  0  0  0  0  0  0  0  0  0  0  0
    6.8560   -0.2970   21.0030 C   0  0  0  0  0  0  0  0  0  0  0  0
    5.6890   -2.0180   23.1720 C   0  0  0  0  0  0  0  0  0  0  0  0
    5.3130   -3.1350   23.9360 C   0  0  0  0  0  0  0  0  0  0  0  0
    6.5090   -4.8740   26.7610 C   0  0  1  0  0  0  0  0  0  0  0  0
    6.6140   -5.8880   27.7320 C   0  0  0  0  0  0  0  0  0  0  0  0
    6.0790   -5.4370   28.9260 C   0  0  0  0  0  0  0  0  0  0  0  0
    5.8130   -4.1140   28.6890 C   0  0  0  0  0  0  0  0  0  0  0  0
    6.0020   -3.7500   27.4050 N   0  0  0  0  0  0  0  0  0  0  0  0
  1  2  2  0
  2  3  1  0
  3  4  1  0
  4  5  1  6
  5  6  1  0
  6  7  2  0
  7  8  1  0
  8  9  2  0
  9 10  1  0
  6 11  1  0
 10 11  2  0
  4 12  1  0
 12 13  2  0
 12 14  1  0
 14 15  2  0
 14 16  1  0
 16 17  1  0
 17 18  1  0
 18 19  1  0
 19 20  1  0
 20 21  2  0
 21 22  1  0
 22 23  2  0
 23 24  1  0
 20 25  1  0
 24 25  2  0
 19 26  1  0
 16 27  1  0
 26 27  1  0
 28  2  1  1
 28 29  1  0
 29 30  1  0
 30 31  1  0
 28 32  1  0
 31 32  1  0
M  END
