MAR-UNI-c84db004-2
     RDKit          3D

 29 32  0  0  0  0  0  0  0  0999 V2000
    0.6700    5.7660   27.4820 C   0  0  0  0  0  0  0  0  0  0  0  0
    0.4840    4.3570   27.4600 O   0  0  0  0  0  0  0  0  0  0  0  0
    1.0080    3.7360   26.2850 C   0  0  0  0  0  0  0  0  0  0  0  0
    0.1340    3.9250   25.0760 C   0  0  0  0  0  0  0  0  0  0  0  0
    0.5190    3.3470   23.7640 C   0  0  0  0  0  0  0  0  0  0  0  0
    1.7110    2.6190   23.6570 C   0  0  0  0  0  0  0  0  0  0  0  0
    2.1640    2.0330   22.4700 C   0  0  0  0  0  0  0  0  0  0  0  0
    1.7530    2.3780   21.3640 O   0  0  0  0  0  0  0  0  0  0  0  0
    3.1080    1.0250   22.5850 C   0  0  0  0  0  0  0  0  0  0  0  0
    3.8430    0.9200   23.7600 C   0  0  0  0  0  0  0  0  0  0  0  0
    4.7920   -0.0870   23.9280 C   0  0  0  0  0  0  0  0  0  0  0  0
    6.0770    0.0320   23.4040 C   0  0  0  0  0  0  0  0  0  0  0  0
    7.0770   -1.0360   23.5840 C   0  0  0  0  0  0  0  0  0  0  0  0
    8.2120   -0.8880   23.0990 O   0  0  0  0  0  0  0  0  0  0  0  0
    9.2110   -1.8380   23.4900 C   0  0  0  0  0  0  0  0  0  0  0  0
   10.5030   -1.3500   23.2850 C   0  0  0  0  0  0  0  0  0  0  0  0
   10.6740    0.0370   23.2420 C   0  0  0  0  0  0  0  0  0  0  0  0
   11.8900    0.7110   23.0480 C   0  0  0  0  0  0  0  0  0  0  0  0
   13.0560   -0.0000   22.8810 C   0  0  0  0  0  0  0  0  0  0  0  0
   13.0320   -1.4950   22.9010 C   0  0  0  0  0  0  0  0  0  0  0  0
   11.6920   -2.2130   23.1120 C   0  0  0  0  0  0  0  0  0  0  0  0
    6.6950   -2.1740   24.3010 C   0  0  0  0  0  0  0  0  0  0  0  0
    5.4630   -2.3130   24.8170 C   0  0  0  0  0  0  0  0  0  0  0  0
    4.4610   -1.2490   24.6380 C   0  0  0  0  0  0  0  0  0  0  0  0
    3.1800   -1.2980   25.1250 O   0  0  0  0  0  0  0  0  0  0  0  0
    2.8850   -2.2380   26.1440 C   0  0  0  0  0  0  0  0  0  0  0  0
    3.7120    1.7660   24.8500 O   0  0  0  0  0  0  0  0  0  0  0  0
    2.5470    2.4800   24.9670 C   0  0  0  0  0  0  0  0  0  0  0  0
    2.1940    3.0050   26.1580 C   0  0  0  0  0  0  0  0  0  0  0  0
  1  2  1  0
  2  3  1  0
  3  4  2  0
  4  5  1  0
  5  6  2  0
  6  7  1  0
  7  8  2  0
  7  9  1  0
  9 10  2  0
 10 11  1  0
 11 12  2  0
 12 13  1  0
 13 14  1  0
 14 15  1  0
 15 16  1  0
 16 17  2  0
 17 18  1  0
 18 19  2  0
 19 20  1  0
 16 21  1  0
 20 21  2  0
 13 22  2  0
 22 23  1  0
 11 24  1  0
 23 24  2  0
 24 25  1  0
 25 26  1  0
 10 27  1  0
  6 28  1  0
 27 28  1  0
  3 29  1  0
 28 29  2  0
M  END
