MAR-UNI-9d4da90d-1
     RDKit          3D

 14 14  0  0  0  0  0  0  0  0999 V2000
   13.3960   -1.9090   21.8440 C   0  0  0  0  0  0  0  0  0  0  0  0
   12.2090   -1.2190   22.2820 C   0  0  0  0  0  0  0  0  0  0  0  0
   12.2700    0.0640   22.7940 C   0  0  0  0  0  0  0  0  0  0  0  0
   11.1960    0.7390   23.1890 N   0  0  0  0  0  0  0  0  0  0  0  0
   10.0200    0.0960   23.0810 C   0  0  0  0  0  0  0  0  0  0  0  0
    8.8630    0.8650   23.5310 N   0  0  0  0  0  0  0  0  0  0  0  0
    9.8630   -1.1840   22.5820 C   0  0  0  0  0  0  0  0  0  0  0  0
    8.6780   -1.9080   22.4220 C   0  0  0  0  0  0  0  0  0  0  0  0
    7.6070   -1.5280   23.3750 N   0  0  0  0  0  0  0  0  0  0  0  0
    6.5670   -2.8050   23.7750 S   0  0  0  0  0  0  0  0  0  0  0  0
    7.5010   -4.2770   23.3790 C   0  0  0  0  0  0  0  0  0  0  0  0
    6.3600   -2.7740   25.2070 O   0  0  0  0  0  0  0  0  0  0  0  0
    5.4550   -2.7150   22.8570 O   0  0  0  0  0  0  0  0  0  0  0  0
   11.0040   -1.8340   22.1810 C   0  0  0  0  0  0  0  0  0  0  0  0
  1  2  1  0
  2  3  2  0
  3  4  1  0
  4  5  2  0
  5  6  1  0
  5  7  1  0
  7  8  1  0
  8  9  1  0
 10  9  1  0
 10 11  1  0
 10 12  2  0
 10 13  2  0
  2 14  1  0
  7 14  2  0
M  END
