MAR-UNI-c84db004-20
     RDKit          3D

 36 40  0  0  0  0  0  0  0  0999 V2000
    1.6340    4.6730   16.4500 C   0  0  0  0  0  0  0  0  0  0  0  0
    0.7680    4.9180   17.5460 O   0  0  0  0  0  0  0  0  0  0  0  0
    0.9010    4.1130   18.6440 C   0  0  0  0  0  0  0  0  0  0  0  0
   -0.2370    4.0950   19.6000 C   0  0  0  0  0  0  0  0  0  0  0  0
   -0.1660    3.2970   20.7300 C   0  0  0  0  0  0  0  0  0  0  0  0
    0.9150    2.4850   21.0580 C   0  0  0  0  0  0  0  0  0  0  0  0
    0.9380    1.7030   22.2140 C   0  0  0  0  0  0  0  0  0  0  0  0
   -0.1630    1.6060   22.7620 O   0  0  0  0  0  0  0  0  0  0  0  0
    2.0980    1.1080   22.6670 C   0  0  0  0  0  0  0  0  0  0  0  0
    2.1030    0.5790   23.9430 O   0  0  0  0  0  0  0  0  0  0  0  0
    3.2500    1.1070   21.6890 C   0  0  0  0  0  0  0  0  0  0  0  0
    4.5620    0.4760   22.1110 C   0  0  0  0  0  0  0  0  0  0  0  0
    5.5170    0.0580   21.1780 C   0  0  0  0  0  0  0  0  0  0  0  0
    6.8180   -0.5540   21.6050 C   0  0  0  0  0  0  0  0  0  0  0  0
    7.0700   -0.7100   23.0990 C   0  0  0  0  0  0  0  0  0  0  0  0
    8.1820   -1.2320   23.7240 O   0  0  0  0  0  0  0  0  0  0  0  0
    9.0850   -2.0770   23.0200 C   0  0  0  0  0  0  0  0  0  0  0  0
   10.4530   -1.3820   22.9910 C   0  0  0  0  0  0  0  0  0  0  0  0
   10.6330    0.1500   23.1340 C   0  0  0  0  0  0  0  0  0  0  0  0
   11.9170    0.6860   23.0830 C   0  0  0  0  0  0  0  0  0  0  0  0
   13.0230   -0.1410   22.9100 C   0  0  0  0  0  0  0  0  0  0  0  0
   12.8810   -1.5210   22.7830 C   0  0  0  0  0  0  0  0  0  0  0  0
   11.6290   -2.1150   22.8230 C   0  0  0  0  0  0  0  0  0  0  0  0
    6.0500   -0.2660   23.9540 C   0  0  0  0  0  0  0  0  0  0  0  0
    6.1930   -0.3720   25.3150 O   0  0  0  0  0  0  0  0  0  0  0  0
    5.1260   -1.1000   25.9360 C   0  0  0  0  0  0  0  0  0  0  0  0
    5.4040   -1.0710   27.4130 C   0  0  0  0  0  0  0  0  0  0  0  0
    4.4500   -0.9360   28.4230 C   0  0  0  0  0  0  0  0  0  0  0  0
    4.8310   -0.9170   29.7740 C   0  0  0  0  0  0  0  0  0  0  0  0
    6.1680   -1.0310   30.1520 C   0  0  0  0  0  0  0  0  0  0  0  0
    7.1610   -1.1700   29.1990 C   0  0  0  0  0  0  0  0  0  0  0  0
    6.8780   -1.1980   27.8280 C   0  0  0  0  0  0  0  0  0  0  0  0
    4.8290    0.3120   23.4790 C   0  0  0  0  0  0  0  0  0  0  0  0
    3.1490    1.6770   20.4280 O   0  0  0  0  0  0  0  0  0  0  0  0
    2.0230    2.4590   20.1870 C   0  0  0  0  0  0  0  0  0  0  0  0
    2.0130    3.2970   18.9510 C   0  0  0  0  0  0  0  0  0  0  0  0
  1  2  1  0
  2  3  1  0
  3  4  2  0
  4  5  1  0
  5  6  2  0
  6  7  1  0
  7  8  2  0
  7  9  1  0
  9 10  1  0
  9 11  2  0
 11 12  1  0
 12 13  2  0
 13 14  1  0
 14 15  2  0
 15 16  1  0
 16 17  1  0
 17 18  1  0
 18 19  2  0
 19 20  1  0
 20 21  2  0
 21 22  1  0
 18 23  1  0
 22 23  2  0
 15 24  1  0
 24 25  1  0
 25 26  1  0
 26 27  1  0
 27 28  2  0
 28 29  1  0
 29 30  2  0
 30 31  1  0
 27 32  1  0
 31 32  2  0
 12 33  1  0
 24 33  2  0
 11 34  1  0
  6 35  1  0
 34 35  1  0
  3 36  1  0
 35 36  2  0
M  END
