MAR-KIN-5634a269-1
     RDKit          3D

 30 32  0  0  0  0  0  0  0  0999 V2000
   13.6800    4.7300   23.0170 C   0  0  0  0  0  0  0  0  0  0  0  0
   12.4500    5.3670   21.9780 S   0  0  0  0  0  0  0  0  0  0  0  0
   13.0350    6.6340   21.7250 O   0  0  0  0  0  0  0  0  0  0  0  0
   12.2380    4.4260   20.9250 O   0  0  0  0  0  0  0  0  0  0  0  0
   10.8630    5.5800   22.7750 C   0  0  0  0  0  0  0  0  0  0  0  0
   10.3240    4.3420   23.2640 C   0  0  0  0  0  0  0  0  0  0  0  0
    9.7920    3.3770   22.3880 N   0  0  0  0  0  0  0  0  0  0  0  0
    9.9540    2.1960   23.0180 C   0  0  0  0  0  0  0  0  0  0  0  0
   11.1740    1.4160   22.8680 C   0  0  0  0  0  0  0  0  0  0  0  0
   10.9350   -0.1330   22.6120 C   0  0  0  0  0  0  0  0  0  0  0  0
   12.0190   -1.1190   22.3900 C   0  0  0  0  0  0  0  0  0  0  0  0
   12.8530   -0.2220   22.4930 C   0  0  0  0  0  0  0  0  0  0  0  0
   12.3340    0.9030   22.7380 C   0  0  0  0  0  0  0  0  0  0  0  0
   10.9250    0.7960   22.8490 C   0  0  0  0  0  0  0  0  0  0  0  0
   10.0050    1.8510   23.1680 C   0  0  0  0  0  0  0  0  0  0  0  0
   10.6830    3.2330   23.3930 C   0  0  0  0  0  0  0  0  0  0  0  0
    9.7110    4.3890   23.8190 C   0  0  0  0  0  0  0  0  0  0  0  0
   10.0810    4.9600   25.1340 N   0  0  0  0  0  0  0  0  0  0  0  0
   12.0440    3.2740   23.2200 C   0  0  0  0  0  0  0  0  0  0  0  0
   12.5920    2.0790   22.9360 C   0  0  0  0  0  0  0  0  0  0  0  0
    8.3370    3.5970   22.0520 C   0  0  1  0  0  0  0  0  0  0  0  0
    7.5610    2.6790   22.8230 O   0  0  0  0  0  0  0  0  0  0  0  0
    7.8110    4.8960   22.1610 C   0  0  0  0  0  0  0  0  0  0  0  0
    6.3590    5.0730   22.6050 C   0  0  0  0  0  0  0  0  0  0  0  0
    5.7940    4.1020   23.6380 C   0  0  0  0  0  0  0  0  0  0  0  0
    4.5250    4.1550   24.1120 N   0  0  0  0  0  0  0  0  0  0  0  0
    3.7500    5.1440   23.6110 C   0  0  0  0  0  0  0  0  0  0  0  0
    4.2250    6.1670   22.5750 C   0  0  0  0  0  0  0  0  0  0  0  0
    5.5330    6.0840   22.1090 C   0  0  0  0  0  0  0  0  0  0  0  0
    6.0090    7.0080   21.1560 N   0  0  0  0  0  0  0  0  0  0  0  0
  1  2  1  0
  2  3  1  0
  2  4  1  0
  2  5  1  0
  5  6  1  0
  6  7  1  0
  7  8  1  0
  8  9  1  0
  9 10  2  0
 10 11  1  0
 11 12  2  0
 12 13  1  0
 13 14  1  0
 14 15  2  0
 15 16  1  0
 16 17  1  0
 17 18  1  0
 16 19  2  0
  9 20  1  0
 13 20  2  0
 19 20  1  0
  7 21  1  0
 21 22  1  1
 21 23  1  0
 23 24  1  0
 24 25  2  0
 25 26  1  0
 26 27  2  0
 27 28  1  0
 24 29  1  0
 28 29  2  0
 29 30  1  0
M  END
