MAR-UNI-9d4da90d-4
     RDKit          3D

 17 17  0  0  0  0  0  0  0  0999 V2000
   13.1060   -1.8400   21.3660 C   0  0  0  0  0  0  0  0  0  0  0  0
   12.2420   -1.3080   22.4290 C   0  0  0  0  0  0  0  0  0  0  0  0
   12.5660   -0.2650   23.2240 C   0  0  0  0  0  0  0  0  0  0  0  0
   11.7850    0.2490   24.2160 N   0  0  0  0  0  0  0  0  0  0  0  0
   10.5830   -0.3100   24.4410 C   0  0  0  0  0  0  0  0  0  0  0  0
    9.8530    0.2800   25.4700 N   0  0  0  0  0  0  0  0  0  0  0  0
   10.1560   -1.4850   23.5830 C   0  0  0  0  0  0  0  0  0  0  0  0
    8.7820   -2.1050   23.8540 C   0  0  0  0  0  0  0  0  0  0  0  0
    8.2880   -2.8490   22.6820 N   0  0  0  0  0  0  0  0  0  0  0  0
    7.1570   -4.0780   22.9820 S   0  0  0  0  0  0  0  0  0  0  0  0
    7.1820   -4.3010   24.3980 O   0  0  0  0  0  0  0  0  0  0  0  0
    7.4800   -5.1370   22.0460 O   0  0  0  0  0  0  0  0  0  0  0  0
    5.5130   -3.2940   22.5720 C   0  0  0  0  0  0  0  0  0  0  0  0
    5.1620   -2.3840   23.5250 F   0  0  0  0  0  0  0  0  0  0  0  0
    5.5400   -2.6200   21.3880 F   0  0  0  0  0  0  0  0  0  0  0  0
    4.5060   -4.2070   22.4990 F   0  0  0  0  0  0  0  0  0  0  0  0
   11.0230   -1.9300   22.6070 C   0  0  0  0  0  0  0  0  0  0  0  0
  1  2  1  0
  2  3  2  0
  3  4  1  0
  4  5  2  0
  5  6  1  0
  5  7  1  0
  7  8  1  0
  8  9  1  0
 10  9  1  0
 10 11  2  0
 10 12  2  0
 10 13  1  0
 13 14  1  0
 13 15  1  0
 13 16  1  0
  2 17  1  0
  7 17  2  0
M  END
