MAR-SOS-c7881798-11
     RDKit          3D

 28 30  0  0  0  0  0  0  0  0999 V2000
    4.4440   -6.0620   22.8200 N   0  0  0  0  0  0  0  0  0  0  0  0
    5.6300   -5.9920   21.9490 C   0  0  0  0  0  0  0  0  0  0  0  0
    6.8010   -6.7560   22.2160 O   0  0  0  0  0  0  0  0  0  0  0  0
    5.6000   -5.1660   20.8810 C   0  0  0  0  0  0  0  0  0  0  0  0
    5.4070   -5.6960   19.8100 O   0  0  0  0  0  0  0  0  0  0  0  0
    5.8170   -3.7180   21.0300 C   0  0  2  0  0  0  0  0  0  0  0  0
    5.4500   -2.9970   19.6700 C   0  0  0  0  0  0  0  0  0  0  0  0
    5.3920   -1.6080   19.6170 C   0  0  0  0  0  0  0  0  0  0  0  0
    4.9090   -0.8370   20.6850 C   0  0  0  0  0  0  0  0  0  0  0  0
    4.7970    0.5850   20.7060 C   0  0  0  0  0  0  0  0  0  0  0  0
    5.2480    1.3550   19.4480 C   0  0  0  0  0  0  0  0  0  0  0  0
    5.7680    0.5120   18.3150 C   0  0  0  0  0  0  0  0  0  0  0  0
    5.8170   -0.9710   18.4580 C   0  0  0  0  0  0  0  0  0  0  0  0
    7.0680   -3.4190   21.3750 N   0  0  0  0  0  0  0  0  0  0  0  0
    7.4450   -3.3320   22.6980 C   0  0  0  0  0  0  0  0  0  0  0  0
    7.7050   -4.4300   23.4680 O   0  0  0  0  0  0  0  0  0  0  0  0
    7.5270   -2.0690   23.1450 C   0  0  2  0  0  0  0  0  0  0  0  0
    6.5200   -1.3090   22.5210 C   0  0  0  0  0  0  0  0  0  0  0  0
    7.0720   -0.6410   21.4220 C   0  0  0  0  0  0  0  0  0  0  0  0
    8.4680   -0.5100   21.7620 C   0  0  0  0  0  0  0  0  0  0  0  0
    8.6950   -1.3310   22.7730 N   0  0  0  0  0  0  0  0  0  0  0  0
    9.7380   -2.1010   22.4800 C   0  0  0  0  0  0  0  0  0  0  0  0
   10.8360   -1.2960   22.6410 C   0  0  0  0  0  0  0  0  0  0  0  0
   12.2010   -1.8480   22.4020 C   0  0  0  0  0  0  0  0  0  0  0  0
   13.2760   -1.0310   22.5380 C   0  0  0  0  0  0  0  0  0  0  0  0
   13.1340    0.2980   22.8890 C   0  0  0  0  0  0  0  0  0  0  0  0
   11.8720    0.8350   23.1260 C   0  0  0  0  0  0  0  0  0  0  0  0
   10.7300    0.0540   23.0150 C   0  0  0  0  0  0  0  0  0  0  0  0
  1  2  1  0
  2  3  2  0
  2  4  1  0
  4  5  2  0
  4  6  1  0
  6  7  1  6
  7  8  1  0
  8  9  2  0
  9 10  1  0
 10 11  2  0
 11 12  1  0
  8 13  1  0
 12 13  2  0
  6 14  1  0
 14 15  1  0
 15 16  2  0
 17 15  1  6
 17 18  1  0
 18 19  1  0
 19 20  1  0
 17 21  1  0
 20 21  1  0
 21 22  1  0
 22 23  1  0
 23 24  2  0
 24 25  1  0
 25 26  2  0
 26 27  1  0
 23 28  1  0
 27 28  2  0
M  END
