MAR-UNI-c84db004-4
     RDKit          3D

 24 27  0  0  0  0  0  0  0  0999 V2000
    3.6150   -6.9560   23.8030 C   0  0  0  0  0  0  0  0  0  0  0  0
    3.2920   -5.6660   24.2250 N   0  0  0  0  0  0  0  0  0  0  0  0
    4.2550   -4.7380   24.4780 C   0  0  0  0  0  0  0  0  0  0  0  0
    5.7360   -4.8630   24.3900 C   0  0  0  0  0  0  0  0  0  0  0  0
    6.6510   -3.7760   24.4580 C   0  0  0  0  0  0  0  0  0  0  0  0
    8.0720   -4.1990   24.3890 N   0  0  0  0  0  0  0  0  0  0  0  0
    9.2330   -3.3030   24.1020 C   0  0  0  0  0  0  0  0  0  0  0  0
    9.2320   -2.1030   23.3940 C   0  0  0  0  0  0  0  0  0  0  0  0
   10.4040   -1.3690   23.2010 C   0  0  0  0  0  0  0  0  0  0  0  0
   10.5080    0.1260   23.2060 C   0  0  0  0  0  0  0  0  0  0  0  0
   11.8540    0.7340   22.9990 C   0  0  0  0  0  0  0  0  0  0  0  0
   12.9900   -0.0160   22.8100 C   0  0  0  0  0  0  0  0  0  0  0  0
   14.1910    0.5610   22.6320 O   0  0  0  0  0  0  0  0  0  0  0  0
   12.9280   -1.5100   22.7910 C   0  0  0  0  0  0  0  0  0  0  0  0
   11.5540   -2.1390   23.0010 C   0  0  0  0  0  0  0  0  0  0  0  0
    6.2680   -2.4260   24.6090 C   0  0  0  0  0  0  0  0  0  0  0  0
    7.0470   -1.5000   24.4320 O   0  0  0  0  0  0  0  0  0  0  0  0
    4.7940   -2.2850   25.0080 C   0  0  0  0  0  0  0  0  0  0  0  0
    4.0100   -1.2280   25.4870 N   0  0  0  0  0  0  0  0  0  0  0  0
    2.7030   -1.7090   25.6830 C   0  0  0  0  0  0  0  0  0  0  0  0
    2.7030   -3.0390   25.3260 C   0  0  0  0  0  0  0  0  0  0  0  0
    3.9780   -3.3540   24.9210 C   0  0  0  0  0  0  0  0  0  0  0  0
    1.6600   -4.2000   25.2810 C   0  0  0  0  0  0  0  0  0  0  0  0
    1.9050   -5.2700   24.4080 C   0  0  0  0  0  0  0  0  0  0  0  0
  1  2  1  0
  2  3  2  0
  3  4  1  0
  4  5  2  0
  5  6  1  0
  6  7  1  0
  7  8  2  3
  8  9  1  0
  9 10  2  0
 10 11  1  0
 11 12  2  0
 12 13  1  0
 12 14  1  0
  9 15  1  0
 14 15  2  0
  5 16  1  0
 16 17  2  0
 16 18  1  0
 18 19  1  0
 19 20  1  0
 20 21  2  0
  3 22  1  0
 18 22  2  0
 21 22  1  0
 21 23  1  0
  2 24  1  0
 23 24  1  0
M  CHG  1   2   1
M  END
