MAR-UNI-c84db004-18
     RDKit          3D

 34 38  0  0  0  0  0  0  0  0999 V2000
    3.2140    0.0470   30.6480 O   0  0  0  0  0  0  0  0  0  0  0  0
    3.2360   -0.5680   29.5860 C   0  0  0  0  0  0  0  0  0  0  0  0
    4.4980   -0.9760   28.9570 C   0  0  0  0  0  0  0  0  0  0  0  0
    5.4450   -1.1790   29.7280 O   0  0  0  0  0  0  0  0  0  0  0  0
    4.5320   -1.1020   27.6070 C   0  0  0  0  0  0  0  0  0  0  0  0
    5.7460   -1.5070   26.8400 C   0  0  0  0  0  0  0  0  0  0  0  0
    6.2000   -0.8920   25.6130 C   0  0  0  0  0  0  0  0  0  0  0  0
    7.4550   -1.4140   24.9500 C   0  0  0  0  0  0  0  0  0  0  0  0
    8.0000   -0.9100   23.7680 O   0  0  0  0  0  0  0  0  0  0  0  0
    8.8980   -1.7720   23.0140 C   0  0  0  0  0  0  0  0  0  0  0  0
   10.2860   -1.2530   22.8560 C   0  0  0  0  0  0  0  0  0  0  0  0
   10.6520    0.0990   23.2990 C   0  0  0  0  0  0  0  0  0  0  0  0
   11.9810    0.5490   23.1380 C   0  0  0  0  0  0  0  0  0  0  0  0
   12.9470   -0.2390   22.5800 C   0  0  0  0  0  0  0  0  0  0  0  0
   12.6180   -1.5130   22.1490 C   0  0  0  0  0  0  0  0  0  0  0  0
   11.2970   -2.0250   22.2790 C   0  0  0  0  0  0  0  0  0  0  0  0
    8.1370   -2.4690   25.5450 C   0  0  0  0  0  0  0  0  0  0  0  0
    7.6270   -3.0140   26.7430 C   0  0  0  0  0  0  0  0  0  0  0  0
    6.4690   -2.5590   27.3720 C   0  0  0  0  0  0  0  0  0  0  0  0
    6.0110   -3.1510   28.5230 O   0  0  0  0  0  0  0  0  0  0  0  0
    5.8630   -4.5300   28.1970 C   0  0  0  0  0  0  0  0  0  0  0  0
    6.9130   -4.9840   27.4370 C   0  0  0  0  0  0  0  0  0  0  0  0
    6.8990   -5.0710   26.0210 C   0  0  0  0  0  0  0  0  0  0  0  0
    8.1290   -5.5430   25.2890 C   0  0  0  0  0  0  0  0  0  0  0  0
    9.2540   -5.8860   26.0270 C   0  0  0  0  0  0  0  0  0  0  0  0
    9.1800   -5.7730   27.5050 C   0  0  0  0  0  0  0  0  0  0  0  0
    8.0520   -5.3420   28.1310 C   0  0  0  0  0  0  0  0  0  0  0  0
    3.4040   -0.8790   26.8320 O   0  0  0  0  0  0  0  0  0  0  0  0
    2.2000   -1.0970   27.4650 C   0  0  0  0  0  0  0  0  0  0  0  0
    1.0120   -1.5090   26.6280 C   0  0  0  0  0  0  0  0  0  0  0  0
   -0.2080   -1.7180   27.3040 C   0  0  0  0  0  0  0  0  0  0  0  0
   -0.2930   -1.5500   28.6980 C   0  0  0  0  0  0  0  0  0  0  0  0
    0.8220   -1.1740   29.4570 C   0  0  0  0  0  0  0  0  0  0  0  0
    2.0470   -0.9540   28.8330 C   0  0  0  0  0  0  0  0  0  0  0  0
  1  2  2  0
  2  3  1  0
  3  4  1  0
  3  5  2  0
  5  6  1  0
  6  7  2  0
  7  8  1  0
  8  9  1  0
  9 10  1  0
 10 11  1  0
 11 12  2  0
 12 13  1  0
 13 14  2  0
 14 15  1  0
 11 16  1  0
 15 16  2  0
  8 17  2  0
 17 18  1  0
  6 19  1  0
 18 19  2  0
 19 20  1  0
 20 21  1  0
 21 22  1  0
 22 23  2  0
 23 24  1  0
 24 25  2  0
 25 26  1  0
 22 27  1  0
 26 27  2  0
  5 28  1  0
 28 29  1  0
 29 30  1  0
 30 31  2  0
 31 32  1  0
 32 33  2  0
  2 34  1  0
 29 34  2  0
 33 34  1  0
M  END
