MAR-UNI-9d4da90d-3
     RDKit          3D

 15 15  0  0  0  0  0  0  0  0999 V2000
    9.0450   -0.1830   26.2960 C   0  0  0  0  0  0  0  0  0  0  0  0
    9.6630    0.5340   25.2120 N   0  0  0  0  0  0  0  0  0  0  0  0
   10.4940   -0.0370   24.3100 C   0  0  0  0  0  0  0  0  0  0  0  0
   11.7120    0.5440   24.0650 N   0  0  0  0  0  0  0  0  0  0  0  0
   12.5390   -0.0240   23.1480 C   0  0  0  0  0  0  0  0  0  0  0  0
   12.1910   -1.2810   22.3690 C   0  0  0  0  0  0  0  0  0  0  0  0
   13.1690   -1.8410   21.3590 C   0  0  0  0  0  0  0  0  0  0  0  0
   10.9880   -1.8500   22.6230 C   0  0  0  0  0  0  0  0  0  0  0  0
   10.0800   -1.2070   23.6440 C   0  0  0  0  0  0  0  0  0  0  0  0
    8.7440   -2.0170   23.7870 C   0  0  0  0  0  0  0  0  0  0  0  0
    7.5760   -1.3140   24.2770 N   0  0  0  0  0  0  0  0  0  0  0  0
    6.2950   -2.3120   24.8210 S   0  0  0  0  0  0  0  0  0  0  0  0
    6.2900   -2.0110   26.5510 C   0  0  0  0  0  0  0  0  0  0  0  0
    6.6560   -3.6910   24.5820 O   0  0  0  0  0  0  0  0  0  0  0  0
    5.0900   -1.7600   24.2440 O   0  0  0  0  0  0  0  0  0  0  0  0
  1  2  1  0
  2  3  1  0
  3  4  2  0
  4  5  1  0
  5  6  2  0
  6  7  1  0
  6  8  1  0
  3  9  1  0
  8  9  2  0
  9 10  1  0
 10 11  1  0
 12 11  1  0
 12 13  1  0
 12 14  2  0
 12 15  2  0
M  END
