MAR-SOS-c7881798-5
     RDKit          3D

 35 38  0  0  0  0  0  0  0  0999 V2000
    2.6350   -1.9980   27.2390 O   0  0  0  0  0  0  0  0  0  0  0  0
    3.7840   -2.3400   26.9760 C   0  0  0  0  0  0  0  0  0  0  0  0
    4.8470   -2.4950   27.9640 N   0  0  0  0  0  0  0  0  0  0  0  0
    4.4680   -3.0440   29.2760 C   0  0  0  0  0  0  0  0  0  0  0  0
    4.8300   -4.5010   29.3800 C   0  0  0  0  0  0  0  0  0  0  0  0
    6.1990   -4.9450   28.9780 C   0  0  0  0  0  0  0  0  0  0  0  0
    6.5440   -6.2800   29.0640 C   0  0  0  0  0  0  0  0  0  0  0  0
    5.5560   -7.3160   29.5620 C   0  0  0  0  0  0  0  0  0  0  0  0
    4.1630   -6.8210   29.9670 C   0  0  0  0  0  0  0  0  0  0  0  0
    3.8380   -5.4690   29.8710 N   0  0  0  0  0  0  0  0  0  0  0  0
    4.2090   -2.6540   25.5320 C   0  0  0  0  0  0  0  0  0  0  0  0
    4.1280   -4.0030   25.0690 O   0  0  0  0  0  0  0  0  0  0  0  0
    4.6440   -1.5730   24.7380 C   0  0  1  0  0  0  0  0  0  0  0  0
    4.3580   -0.3180   25.3040 C   0  0  0  0  0  0  0  0  0  0  0  0
    5.2380    0.7440   25.0560 C   0  0  0  0  0  0  0  0  0  0  0  0
    5.6930    1.0740   23.6540 C   0  0  0  0  0  0  0  0  0  0  0  0
    6.5650    2.1410   23.4720 C   0  0  0  0  0  0  0  0  0  0  0  0
    7.0130    2.8950   24.5470 C   0  0  0  0  0  0  0  0  0  0  0  0
    6.5900    2.6110   25.9710 C   0  0  0  0  0  0  0  0  0  0  0  0
    5.7070    1.5260   26.1440 C   0  0  0  0  0  0  0  0  0  0  0  0
    6.1060   -1.7260   24.6440 N   0  0  0  0  0  0  0  0  0  0  0  0
    6.7370   -2.9060   24.1770 C   0  0  0  0  0  0  0  0  0  0  0  0
    6.7220   -3.9600   24.8040 O   0  0  0  0  0  0  0  0  0  0  0  0
    7.3760   -2.8160   22.9360 C   0  0  1  0  0  0  0  0  0  0  0  0
    6.6130   -2.2700   21.9050 C   0  0  0  0  0  0  0  0  0  0  0  0
    7.3030   -1.3070   21.1730 C   0  0  0  0  0  0  0  0  0  0  0  0
    8.7240   -1.3170   21.6540 C   0  0  0  0  0  0  0  0  0  0  0  0
    8.4710   -1.8020   23.0040 N   0  0  0  0  0  0  0  0  0  0  0  0
    9.6660   -2.1730   23.7440 C   0  0  0  0  0  0  0  0  0  0  0  0
   10.7340   -1.3330   23.4400 C   0  0  0  0  0  0  0  0  0  0  0  0
   12.0170   -1.8220   23.4610 C   0  0  0  0  0  0  0  0  0  0  0  0
   13.0600   -0.9740   23.1650 C   0  0  0  0  0  0  0  0  0  0  0  0
   12.8170    0.3530   22.8500 C   0  0  0  0  0  0  0  0  0  0  0  0
   11.5090    0.7740   22.8420 C   0  0  0  0  0  0  0  0  0  0  0  0
   10.4630   -0.0310   23.1280 N   0  0  0  0  0  0  0  0  0  0  0  0
  1  2  2  0
  2  3  1  0
  3  4  1  0
  4  5  1  0
  5  6  2  0
  6  7  1  0
  7  8  2  0
  8  9  1  0
  5 10  1  0
  9 10  2  0
  2 11  1  0
 11 12  2  0
 11 13  1  0
 13 14  1  1
 14 15  1  0
 15 16  2  0
 16 17  1  0
 17 18  2  0
 18 19  1  0
 15 20  1  0
 19 20  2  0
 13 21  1  0
 21 22  1  0
 22 23  2  0
 24 22  1  1
 24 25  1  0
 25 26  1  0
 26 27  1  0
 24 28  1  0
 27 28  1  0
 28 29  1  0
 29 30  1  0
 30 31  2  0
 31 32  1  0
 32 33  2  0
 33 34  1  0
 30 35  1  0
 34 35  2  0
M  END
