MAR-SOS-c7881798-4
     RDKit          3D

 38 41  0  0  0  0  0  0  0  0999 V2000
    1.7620   -4.1720   24.5950 O   0  0  0  0  0  0  0  0  0  0  0  0
    2.2010   -3.1990   25.2020 C   0  0  0  0  0  0  0  0  0  0  0  0
    1.5250   -2.5910   26.3310 N   0  0  0  0  0  0  0  0  0  0  0  0
    0.3250   -3.0430   26.8350 C   0  0  0  0  0  0  0  0  0  0  0  0
   -0.4420   -3.5790   25.6840 C   0  0  0  0  0  0  0  0  0  0  0  0
   -1.5430   -2.6700   25.1140 C   0  0  0  0  0  0  0  0  0  0  0  0
   -2.2920   -3.0980   24.0420 C   0  0  0  0  0  0  0  0  0  0  0  0
   -2.0560   -4.3550   23.4690 C   0  0  0  0  0  0  0  0  0  0  0  0
   -1.0800   -5.2720   23.9070 C   0  0  0  0  0  0  0  0  0  0  0  0
   -0.2210   -4.8310   25.1080 C   0  0  0  0  0  0  0  0  0  0  0  0
    3.5290   -2.5440   24.7910 C   0  0  0  0  0  0  0  0  0  0  0  0
    3.9980   -1.3920   25.3820 O   0  0  0  0  0  0  0  0  0  0  0  0
    4.3850   -3.1670   23.6920 C   0  0  1  0  0  0  0  0  0  0  0  0
    3.9340   -4.4070   23.1990 C   0  0  0  0  0  0  0  0  0  0  0  0
    3.5480   -5.4150   24.1050 C   0  0  0  0  0  0  0  0  0  0  0  0
    3.6110   -5.2680   25.5100 C   0  0  0  0  0  0  0  0  0  0  0  0
    3.2160   -6.3190   26.3720 C   0  0  0  0  0  0  0  0  0  0  0  0
    2.7290   -7.5960   25.7540 C   0  0  0  0  0  0  0  0  0  0  0  0
    2.6860   -7.6810   24.3770 C   0  0  0  0  0  0  0  0  0  0  0  0
    3.0750   -6.6370   23.5480 C   0  0  0  0  0  0  0  0  0  0  0  0
    4.6620   -2.4150   22.5260 N   0  0  0  0  0  0  0  0  0  0  0  0
    5.3480   -2.9720   21.3240 C   0  0  0  0  0  0  0  0  0  0  0  0
    4.7890   -3.4990   20.3800 O   0  0  0  0  0  0  0  0  0  0  0  0
    6.6930   -3.0800   21.1270 C   0  0  2  0  0  0  0  0  0  0  0  0
    7.2160   -4.2640   21.6540 C   0  0  0  0  0  0  0  0  0  0  0  0
    6.6050   -4.8600   22.7550 C   0  0  0  0  0  0  0  0  0  0  0  0
    5.9030   -6.0410   22.5440 C   0  0  0  0  0  0  0  0  0  0  0  0
    5.2570   -6.6900   23.5880 C   0  0  0  0  0  0  0  0  0  0  0  0
    5.3650   -6.0360   24.9600 C   0  0  0  0  0  0  0  0  0  0  0  0
    6.0710   -4.8730   25.1270 C   0  0  0  0  0  0  0  0  0  0  0  0
    6.6930   -4.2840   24.0340 C   0  0  0  0  0  0  0  0  0  0  0  0
    7.5320   -2.0530   21.4220 N   0  0  0  0  0  0  0  0  0  0  0  0
    7.4810   -0.8800   20.6530 C   0  0  0  0  0  0  0  0  0  0  0  0
    7.2140    0.3830   21.4280 C   0  0  0  0  0  0  0  0  0  0  0  0
    7.2720   -0.7500   22.2290 C   0  0  0  0  0  0  0  0  0  0  0  0
    7.0250   -1.7670   23.1210 C   0  0  0  0  0  0  0  0  0  0  0  0
    8.2760   -2.1370   22.6400 C   0  0  0  0  0  0  0  0  0  0  0  0
    9.1930   -2.4500   21.8940 O   0  0  0  0  0  0  0  0  0  0  0  0
  1  2  2  0
  2  3  1  0
  3  4  1  0
  4  5  1  0
  5  6  2  0
  6  7  1  0
  7  8  2  0
  8  9  1  0
  5 10  1  0
  9 10  2  0
  2 11  1  0
 11 12  2  0
 11 13  1  0
 13 14  1  6
 14 15  1  0
 15 16  2  0
 16 17  1  0
 17 18  2  0
 18 19  1  0
 15 20  1  0
 19 20  2  0
 13 21  1  0
 21 22  1  0
 22 23  2  0
 22 24  1  0
 24 25  1  1
 25 26  1  0
 26 27  2  0
 27 28  1  0
 28 29  2  0
 29 30  1  0
 26 31  1  0
 30 31  2  0
 24 32  1  0
 32 33  1  0
 33 34  2  0
 34 35  1  0
 35 36  2  0
 32 37  1  0
 36 37  1  0
 37 38  2  0
M  END
