MAR-UNI-cd28c081-1
     RDKit          3D

 25 27  0  0  0  0  0  0  0  0999 V2000
    5.9100    3.5620   31.5000 O   0  0  0  0  0  0  0  0  0  0  0  0
    5.8940    4.3110   30.5330 C   0  0  0  0  0  0  0  0  0  0  0  0
    7.0260    5.2960   30.2430 C   0  0  0  0  0  0  0  0  0  0  0  0
    6.8950    6.1510   29.1450 C   0  0  0  0  0  0  0  0  0  0  0  0
    6.2230    5.5910   28.0470 C   0  0  0  0  0  0  0  0  0  0  0  0
    4.9720    5.0870   28.4130 C   0  0  1  0  0  0  0  0  0  0  0  0
    4.3660    4.3390   27.4080 C   0  0  0  0  0  0  0  0  0  0  0  0
    3.0640    4.7440   27.0910 C   0  0  0  0  0  0  0  0  0  0  0  0
    2.7830    4.5340   25.7640 O   0  0  0  0  0  0  0  0  0  0  0  0
    1.5060    4.0970   25.5220 C   0  0  0  0  0  0  0  0  0  0  0  0
    0.4110    4.7370   26.0590 C   0  0  0  0  0  0  0  0  0  0  0  0
   -0.8990    4.3670   25.8650 C   0  0  0  0  0  0  0  0  0  0  0  0
   -1.3280    3.3010   25.1170 C   0  0  0  0  0  0  0  0  0  0  0  0
   -0.2480    2.4570   24.4270 C   0  0  0  0  0  0  0  0  0  0  0  0
    1.2380    2.8640   24.6420 C   0  0  0  0  0  0  0  0  0  0  0  0
    2.2770    2.1300   24.0640 C   0  0  0  0  0  0  0  0  0  0  0  0
    2.5080    1.0180   24.5140 O   0  0  0  0  0  0  0  0  0  0  0  0
    3.0110    2.6820   23.0300 N   0  0  0  0  0  0  0  0  0  0  0  0
    4.2110    1.9780   22.4250 C   0  0  0  0  0  0  0  0  0  0  0  0
    4.0660    1.8850   21.0380 C   0  0  0  0  0  0  0  0  0  0  0  0
    4.8110    1.1410   20.1710 N   0  0  0  0  0  0  0  0  0  0  0  0
    4.1700    1.4970   18.9230 C   0  0  0  0  0  0  0  0  0  0  0  0
    3.0610    2.4480   19.1220 C   0  0  0  0  0  0  0  0  0  0  0  0
    3.0100    2.6850   20.5150 O   0  0  0  0  0  0  0  0  0  0  0  0
    4.8820    4.3470   29.6110 N   0  0  0  0  0  0  0  0  0  0  0  0
  1  2  2  0
  2  3  1  0
  3  4  1  0
  4  5  1  0
  5  6  1  0
  6  7  1  6
  7  8  1  0
  8  9  1  0
  9 10  1  0
 10 11  2  0
 11 12  1  0
 12 13  2  0
 13 14  1  0
 10 15  1  0
 14 15  2  0
 15 16  1  0
 16 17  2  0
 16 18  1  0
 18 19  1  0
 19 20  1  0
 20 21  2  0
 21 22  1  0
 22 23  2  0
 20 24  1  0
 23 24  1  0
  2 25  1  0
  6 25  1  0
M  END
