MAR-SOS-c7881798-7
     RDKit          3D

 33 35  0  0  0  0  0  0  0  0999 V2000
    9.4550   -2.1770   23.9810 C   0  0  0  0  0  0  0  0  0  0  0  0
    8.7780   -2.7140   22.9520 N   0  0  0  0  0  0  0  0  0  0  0  0
    7.4270   -2.7150   23.1650 C   0  0  0  0  0  0  0  0  0  0  0  0
    6.6920   -2.9980   21.9720 C   0  0  0  0  0  0  0  0  0  0  0  0
    6.7420   -1.9730   21.1360 N   0  0  0  0  0  0  0  0  0  0  0  0
    6.0540   -2.2740   19.9700 C   0  0  0  0  0  0  0  0  0  0  0  0
    5.4270   -3.5680   19.7560 O   0  0  0  0  0  0  0  0  0  0  0  0
    5.9130   -1.3400   18.7640 C   0  0  0  0  0  0  0  0  0  0  0  0
    5.7010   -0.3400   18.0880 O   0  0  0  0  0  0  0  0  0  0  0  0
    5.5780   -0.4390   19.8210 C   0  0  1  0  0  0  0  0  0  0  0  0
    6.5820    0.5170   20.0300 C   0  0  0  0  0  0  0  0  0  0  0  0
    6.6720    0.9650   21.3500 C   0  0  0  0  0  0  0  0  0  0  0  0
    7.4900    2.0780   21.5250 C   0  0  0  0  0  0  0  0  0  0  0  0
    7.6530    2.6460   22.9530 C   0  0  0  0  0  0  0  0  0  0  0  0
    6.9790    2.0230   23.9820 C   0  0  0  0  0  0  0  0  0  0  0  0
    6.1630    0.9010   23.7460 C   0  0  0  0  0  0  0  0  0  0  0  0
    6.0110    0.3820   22.4520 C   0  0  0  0  0  0  0  0  0  0  0  0
    4.4300    0.3600   19.3780 N   0  0  0  0  0  0  0  0  0  0  0  0
    4.0330    1.4880   20.0630 C   0  0  0  0  0  0  0  0  0  0  0  0
    4.6860    1.8190   21.0440 O   0  0  0  0  0  0  0  0  0  0  0  0
    2.9110    2.2370   19.6730 C   0  0  1  0  0  0  0  0  0  0  0  0
    1.8920    2.1600   20.6300 C   0  0  0  0  0  0  0  0  0  0  0  0
    0.6940    2.8660   20.5000 C   0  0  0  0  0  0  0  0  0  0  0  0
   -0.5280    2.1830   20.5490 C   0  0  0  0  0  0  0  0  0  0  0  0
   -1.7400    2.8350   20.4310 C   0  0  0  0  0  0  0  0  0  0  0  0
   -1.7630    4.2220   20.2540 C   0  0  0  0  0  0  0  0  0  0  0  0
   -0.5470    4.9550   20.2020 C   0  0  0  0  0  0  0  0  0  0  0  0
    0.6580    4.2550   20.3300 C   0  0  0  0  0  0  0  0  0  0  0  0
    3.3620    3.6300   19.4600 N   0  0  0  0  0  0  0  0  0  0  0  0
    3.5970    4.3470   20.7200 C   0  0  0  0  0  0  0  0  0  0  0  0
    2.4190    4.3400   18.5890 C   0  0  0  0  0  0  0  0  0  0  0  0
    8.0150   -1.2480   21.0900 C   0  0  0  0  0  0  0  0  0  0  0  0
    9.1690   -2.0090   21.7370 C   0  0  0  0  0  0  0  0  0  0  0  0
  1  2  1  0
  2  3  1  0
  3  4  1  0
  4  5  1  0
  5  6  1  0
  6  7  2  0
  6  8  1  0
  8  9  2  0
  8 10  1  0
 10 11  1  6
 11 12  1  0
 12 13  2  0
 13 14  1  0
 14 15  2  0
 15 16  1  0
 12 17  1  0
 16 17  2  0
 10 18  1  0
 18 19  1  0
 19 20  2  0
 19 21  1  0
 21 22  1  1
 22 23  1  0
 23 24  2  0
 24 25  1  0
 25 26  2  0
 26 27  1  0
 23 28  1  0
 27 28  2  0
 21 29  1  0
 29 30  1  0
 29 31  1  0
  5 32  1  0
  2 33  1  0
 32 33  1  0
M  END
