MAR-SOS-c7881798-9
     RDKit          3D

 35 38  0  0  0  0  0  0  0  0999 V2000
    6.2090   -3.5400   29.1280 O   0  0  0  0  0  0  0  0  0  0  0  0
    6.3230   -4.2900   28.1560 C   0  0  0  0  0  0  0  0  0  0  0  0
    5.9190   -5.6610   28.1160 N   0  0  0  0  0  0  0  0  0  0  0  0
    4.4860   -5.7770   28.3060 C   0  0  0  0  0  0  0  0  0  0  0  0
    3.9560   -6.5320   27.2400 C   0  0  0  0  0  0  0  0  0  0  0  0
    2.9220   -7.4550   27.3790 C   0  0  0  0  0  0  0  0  0  0  0  0
    2.4070   -8.2200   26.1920 C   0  0  0  0  0  0  0  0  0  0  0  0
    2.8900   -8.0910   24.8940 C   0  0  0  0  0  0  0  0  0  0  0  0
    3.9300   -7.1840   24.6850 C   0  0  0  0  0  0  0  0  0  0  0  0
    4.5360   -6.3490   25.8090 C   0  0  0  0  0  0  0  0  0  0  0  0
    6.9450   -3.7870   26.8520 C   0  0  0  0  0  0  0  0  0  0  0  0
    8.0540   -4.2200   26.5330 O   0  0  0  0  0  0  0  0  0  0  0  0
    6.2340   -2.8470   26.0820 C   0  0  2  0  0  0  0  0  0  0  0  0
    4.9560   -3.2470   25.6760 C   0  0  0  0  0  0  0  0  0  0  0  0
    4.0080   -2.2860   26.0460 C   0  0  0  0  0  0  0  0  0  0  0  0
    3.6630   -1.2570   25.1780 C   0  0  0  0  0  0  0  0  0  0  0  0
    2.7320   -0.2790   25.4950 C   0  0  0  0  0  0  0  0  0  0  0  0
    2.1080   -0.3130   26.7250 C   0  0  0  0  0  0  0  0  0  0  0  0
    2.4220   -1.3320   27.6340 C   0  0  0  0  0  0  0  0  0  0  0  0
    3.3660   -2.3130   27.3000 C   0  0  0  0  0  0  0  0  0  0  0  0
    6.9880   -2.7230   24.9370 N   0  0  0  0  0  0  0  0  0  0  0  0
    7.0030   -3.6830   23.8200 C   0  0  0  0  0  0  0  0  0  0  0  0
    6.6760   -5.0070   23.9260 O   0  0  0  0  0  0  0  0  0  0  0  0
    7.3940   -3.0780   22.6400 C   0  0  1  0  0  0  0  0  0  0  0  0
    6.4620   -2.4520   21.8250 C   0  0  0  0  0  0  0  0  0  0  0  0
    7.0490   -1.3540   21.1810 C   0  0  0  0  0  0  0  0  0  0  0  0
    8.3380   -1.1620   21.6500 C   0  0  0  0  0  0  0  0  0  0  0  0
    8.3690   -1.9720   22.8850 N   0  0  0  0  0  0  0  0  0  0  0  0
    9.7400   -2.3300   23.1440 C   0  0  0  0  0  0  0  0  0  0  0  0
   10.4700   -1.2040   23.4700 C   0  0  0  0  0  0  0  0  0  0  0  0
   11.4090   -1.5180   22.7150 C   0  0  0  0  0  0  0  0  0  0  0  0
   12.4080   -0.3840   22.9030 C   0  0  0  0  0  0  0  0  0  0  0  0
   13.3930   -0.8060   22.0580 C   0  0  0  0  0  0  0  0  0  0  0  0
   12.1840   -1.5870   22.2310 C   0  0  0  0  0  0  0  0  0  0  0  0
   11.6600   -0.4210   23.3010 C   0  0  0  0  0  0  0  0  0  0  0  0
  1  2  2  0
  2  3  1  0
  3  4  1  0
  4  5  1  0
  5  6  2  0
  6  7  1  0
  7  8  2  0
  8  9  1  0
  5 10  1  0
  9 10  2  0
  2 11  1  0
 11 12  2  0
 11 13  1  0
 13 14  1  6
 14 15  1  0
 15 16  2  0
 16 17  1  0
 17 18  2  0
 18 19  1  0
 15 20  1  0
 19 20  2  0
 13 21  1  0
 21 22  1  0
 22 23  2  0
 24 22  1  1
 24 25  1  0
 25 26  1  0
 26 27  1  0
 24 28  1  0
 27 28  1  0
 28 29  1  0
 29 30  1  0
 30 31  2  0
 31 32  1  0
 32 33  2  0
 33 34  1  0
 30 35  1  0
 34 35  2  0
M  END
