MAT-POS-916a2c5a-2
     RDKit          3D

 25 27  0  0  0  0  0  0  0  0999 V2000
    5.3710   -5.6990   22.1300 C   0  0  0  0  0  0  0  0  0  0  0  0
    4.3760   -4.6810   21.9830 O   0  0  0  0  0  0  0  0  0  0  0  0
    4.3230   -3.7560   22.9990 C   0  0  0  0  0  0  0  0  0  0  0  0
    3.5730   -4.0580   24.1390 C   0  0  0  0  0  0  0  0  0  0  0  0
    3.6360   -2.9910   25.0620 C   0  0  0  0  0  0  0  0  0  0  0  0
    4.3690   -1.7250   24.9040 C   0  0  0  0  0  0  0  0  0  0  0  0
    5.1150   -1.3580   23.8340 C   0  0  0  0  0  0  0  0  0  0  0  0
    5.1220   -2.4410   22.7560 C   0  0  0  0  0  0  0  0  0  0  0  0
    5.7300   -2.3340   21.6890 O   0  0  0  0  0  0  0  0  0  0  0  0
    7.1170   -2.0680   21.9420 C   0  0  0  0  0  0  0  0  0  0  0  0
    7.9390   -3.1460   22.6200 C   0  0  0  0  0  0  0  0  0  0  0  0
    9.1200   -2.5610   23.1550 N   0  0  0  0  0  0  0  0  0  0  0  0
    8.9970   -1.2560   23.7850 C   0  0  0  0  0  0  0  0  0  0  0  0
    7.9270   -1.7240   24.1830 O   0  0  0  0  0  0  0  0  0  0  0  0
   10.2450   -1.1390   23.1430 C   0  0  0  0  0  0  0  0  0  0  0  0
   10.8710   -2.2900   22.2690 C   0  0  0  0  0  0  0  0  0  0  0  0
   12.3020   -2.0600   21.6490 C   0  0  0  0  0  0  0  0  0  0  0  0
   12.7640   -2.6960   20.7060 O   0  0  0  0  0  0  0  0  0  0  0  0
   12.9880   -1.0630   22.2550 N   0  0  0  0  0  0  0  0  0  0  0  0
   12.0820   -0.2400   22.8400 C   0  0  0  0  0  0  0  0  0  0  0  0
   11.7510   -1.4640   22.5320 C   0  0  0  0  0  0  0  0  0  0  0  0
   13.0200   -1.3740   22.1770 C   0  0  0  0  0  0  0  0  0  0  0  0
   13.3090    0.0270   22.5590 C   0  0  0  0  0  0  0  0  0  0  0  0
   12.2380    0.8540   23.1670 C   0  0  0  0  0  0  0  0  0  0  0  0
   11.0060    0.1710   23.3340 C   0  0  0  0  0  0  0  0  0  0  0  0
  1  2  1  0
  2  3  1  0
  3  4  2  0
  4  5  1  0
  5  6  2  0
  6  7  1  0
  3  8  1  0
  7  8  2  0
  8  9  1  0
  9 10  1  0
 10 11  1  0
 11 12  1  0
 12 13  1  0
 13 14  2  0
 13 15  1  0
 15 16  2  0
 16 17  1  0
 17 18  2  0
 17 19  1  0
 19 20  1  0
 20 21  1  0
 21 22  2  0
 22 23  1  0
 23 24  2  0
 15 25  1  0
 20 25  2  0
 24 25  1  0
M  END
