MAT-POS-bfefc3ea-2
     RDKit          3D

 28 29  0  0  0  0  0  0  0  0999 V2000
    6.9970   -5.8140   23.2880 C   0  0  0  0  0  0  0  0  0  0  0  0
    5.8390   -5.4220   24.0400 C   0  0  0  0  0  0  0  0  0  0  0  0
    4.9620   -4.4570   23.2700 C   0  0  0  0  0  0  0  0  0  0  0  0
    6.1680   -4.8740   25.4680 C   0  0  1  0  0  0  0  0  0  0  0  0
    5.7790   -5.9060   26.4770 N   0  0  0  0  0  0  0  0  0  0  0  0
    4.5290   -6.2510   26.5330 C   0  0  0  0  0  0  0  0  0  0  0  0
    3.6720   -5.6450   27.1590 O   0  0  0  0  0  0  0  0  0  0  0  0
    4.3400   -7.2800   25.8610 O   0  0  0  0  0  0  0  0  0  0  0  0
    3.6640   -7.1020   24.6050 C   0  0  0  0  0  0  0  0  0  0  0  0
    2.5410   -7.8730   24.3260 C   0  0  0  0  0  0  0  0  0  0  0  0
    1.8410   -7.6970   23.1270 C   0  0  0  0  0  0  0  0  0  0  0  0
    0.7100   -8.4490   22.8090 C   0  0  0  0  0  0  0  0  0  0  0  0
    0.2130   -9.4130   23.6630 C   0  0  0  0  0  0  0  0  0  0  0  0
    0.9250   -9.6220   24.9310 C   0  0  0  0  0  0  0  0  0  0  0  0
    2.0640   -8.8490   25.2260 C   0  0  0  0  0  0  0  0  0  0  0  0
    7.4510   -4.2810   25.4520 C   0  0  0  0  0  0  0  0  0  0  0  0
    8.4030   -4.7250   26.1030 O   0  0  0  0  0  0  0  0  0  0  0  0
    7.5570   -3.1370   24.6220 N   0  0  0  0  0  0  0  0  0  0  0  0
    8.5610   -2.9850   23.6980 C   0  0  2  0  0  0  0  0  0  0  0  0
    9.7870   -3.2330   24.1450 C   0  0  0  0  0  0  0  0  0  0  0  0
    9.9580   -3.8350   25.1850 O   0  0  0  0  0  0  0  0  0  0  0  0
    8.7590   -1.5630   23.1390 C   0  0  0  0  0  0  0  0  0  0  0  0
   10.2370   -1.1630   22.9310 C   0  0  0  0  0  0  0  0  0  0  0  0
   10.6680    0.2440   23.3010 C   0  0  0  0  0  0  0  0  0  0  0  0
   12.1010    0.6630   23.1300 C   0  0  0  0  0  0  0  0  0  0  0  0
   12.9710   -0.2270   22.6470 C   0  0  0  0  0  0  0  0  0  0  0  0
   12.5480   -1.5870   22.2770 C   0  0  0  0  0  0  0  0  0  0  0  0
   11.2360   -1.9940   22.4250 C   0  0  0  0  0  0  0  0  0  0  0  0
  1  2  1  0
  2  3  1  0
  2  4  1  0
  4  5  1  1
  5  6  1  0
  6  7  2  0
  6  8  1  0
  8  9  1  0
  9 10  1  0
 10 11  2  0
 11 12  1  0
 12 13  2  0
 13 14  1  0
 10 15  1  0
 14 15  2  0
  4 16  1  0
 16 17  2  0
 16 18  1  0
 18 19  1  0
 19 20  1  1
 20 21  2  0
 19 22  1  0
 22 23  1  0
 23 24  2  0
 24 25  1  0
 25 26  2  0
 26 27  1  0
 23 28  1  0
 27 28  2  0
M  END
