MAT-POS-bfefc3ea-3
     RDKit          3D

 32 32  0  0  0  0  0  0  0  0999 V2000
    5.4120    3.4600   25.9180 C   0  0  0  0  0  0  0  0  0  0  0  0
    6.3750    2.4060   25.5720 C   0  0  0  0  0  0  0  0  0  0  0  0
    7.4520    2.7310   24.8420 C   0  0  0  0  0  0  0  0  0  0  0  0
    5.6450    1.2530   24.9420 C   0  0  0  0  0  0  0  0  0  0  0  0
    5.4670    0.9840   23.5540 C   0  0  2  0  0  0  0  0  0  0  0  0
    6.6020    0.3010   22.9410 N   0  0  0  0  0  0  0  0  0  0  0  0
    7.0510   -1.0030   23.4190 C   0  0  0  0  0  0  0  0  0  0  0  0
    6.2300   -2.0950   23.2310 O   0  0  0  0  0  0  0  0  0  0  0  0
    8.3280   -1.1120   24.0570 O   0  0  0  0  0  0  0  0  0  0  0  0
    9.2160   -1.8170   23.2880 C   0  0  0  0  0  0  0  0  0  0  0  0
   10.5670   -1.2790   23.1400 C   0  0  0  0  0  0  0  0  0  0  0  0
   10.7910    0.1640   23.3150 C   0  0  0  0  0  0  0  0  0  0  0  0
   12.0720    0.6890   23.1780 C   0  0  0  0  0  0  0  0  0  0  0  0
   13.1450   -0.0840   22.8840 C   0  0  0  0  0  0  0  0  0  0  0  0
   12.9650   -1.4480   22.7110 C   0  0  0  0  0  0  0  0  0  0  0  0
   11.6900   -2.0490   22.8360 C   0  0  0  0  0  0  0  0  0  0  0  0
    5.2060    2.2700   22.7390 C   0  0  0  0  0  0  0  0  0  0  0  0
    6.0360    3.1660   22.6890 O   0  0  0  0  0  0  0  0  0  0  0  0
    3.9320    2.3190   22.0500 N   0  0  0  0  0  0  0  0  0  0  0  0
    3.5710    3.2340   21.0080 C   0  0  2  0  0  0  0  0  0  0  0  0
    2.8850    4.3820   21.4210 C   0  0  0  0  0  0  0  0  0  0  0  0
    1.6090    4.3010   21.9260 O   0  0  0  0  0  0  0  0  0  0  0  0
    3.5880    5.5680   21.2800 N   0  0  0  0  0  0  0  0  0  0  0  0
    3.9130    6.4930   22.3010 C   0  0  0  0  0  0  0  0  0  0  0  0
    3.7270    7.8560   22.0280 C   0  0  0  0  0  0  0  0  0  0  0  0
    3.8960    8.7430   22.8600 O   0  0  0  0  0  0  0  0  0  0  0  0
    3.3170    8.3100   20.7400 C   0  0  0  0  0  0  0  0  0  0  0  0
    2.8150    9.5400   20.5000 N   0  0  0  0  0  0  0  0  0  0  0  0
    2.2990   10.8000   20.2340 N   0  0  0  0  0  0  0  0  0  0  0  0
    2.9080    2.6040   19.9450 C   0  0  0  0  0  0  0  0  0  0  0  0
    3.6120    1.4730   19.5360 C   0  0  0  0  0  0  0  0  0  0  0  0
    1.5070    2.1690   20.3960 C   0  0  0  0  0  0  0  0  0  0  0  0
  1  2  1  0
  2  3  1  0
  2  4  1  0
  5  4  1  1
  5  6  1  0
  6  7  1  0
  7  8  2  0
  7  9  1  0
  9 10  1  0
 10 11  1  0
 11 12  2  0
 12 13  1  0
 13 14  2  0
 14 15  1  0
 11 16  1  0
 15 16  2  0
  5 17  1  0
 17 18  2  0
 17 19  1  0
 20 19  1  1
 20 21  1  0
 21 22  2  0
 21 23  1  0
 23 24  1  0
 24 25  1  0
 25 26  2  0
 25 27  1  0
 27 28  2  0
 28 29  2  0
 20 30  1  0
 30 31  1  0
 30 32  1  0
M  CHG  2  28   1  29  -1
M  END
