MAT-CRI-b80b8c24-1
     RDKit          3D

 26 28  0  0  0  0  0  0  0  0999 V2000
    3.4190    1.4380   20.2700 C   0  0  0  0  0  0  0  0  0  0  0  0
    4.5690    0.8640   19.4530 C   0  0  0  0  0  0  0  0  0  0  0  0
    5.2180    1.6260   18.5290 C   0  0  0  0  0  0  0  0  0  0  0  0
    6.2080    0.9390   17.9320 N   0  0  0  0  0  0  0  0  0  0  0  0
    6.1550   -0.2320   18.5030 C   0  0  0  0  0  0  0  0  0  0  0  0
    5.1810   -0.5280   19.4640 C   0  0  1  0  0  0  0  0  0  0  0  0
    5.6360   -0.9830   20.6900 C   0  0  0  0  0  0  0  0  0  0  0  0
    5.1430   -2.1910   21.2100 N   0  0  0  0  0  0  0  0  0  0  0  0
    4.8280   -2.2710   22.6370 C   0  0  0  0  0  0  0  0  0  0  0  0
    5.5280   -3.4430   20.6410 C   0  0  0  0  0  0  0  0  0  0  0  0
    5.1560   -3.8370   19.5300 O   0  0  0  0  0  0  0  0  0  0  0  0
    6.3650   -4.1870   21.4260 N   0  0  0  0  0  0  0  0  0  0  0  0
    7.3320   -3.4910   22.2620 C   0  0  0  0  0  0  0  0  0  0  0  0
    7.3150   -3.9690   23.5590 C   0  0  0  0  0  0  0  0  0  0  0  0
    5.9580   -4.4430   23.9860 N   0  0  0  0  0  0  0  0  0  0  0  0
    6.0040   -4.4920   25.3930 C   0  0  0  0  0  0  0  0  0  0  0  0
    6.6500   -3.2810   26.0360 C   0  0  0  0  0  0  0  0  0  0  0  0
    6.7440   -3.3340   27.5580 C   0  0  0  0  0  0  0  0  0  0  0  0
    6.2860   -4.4050   28.2780 C   0  0  0  0  0  0  0  0  0  0  0  0
    5.6900   -5.4590   27.6360 C   0  0  0  0  0  0  0  0  0  0  0  0
    5.5260   -5.5240   26.2540 C   0  0  0  0  0  0  0  0  0  0  0  0
    4.8300   -6.7380   25.9060 N   0  0  0  0  0  0  0  0  0  0  0  0
    4.4910   -7.1440   24.6280 O   0  0  0  0  0  0  0  0  0  0  0  0
    3.9330   -7.2470   26.8380 O   0  0  0  0  0  0  0  0  0  0  0  0
    5.5660   -5.6140   23.1800 C   0  0  0  0  0  0  0  0  0  0  0  0
    6.1220   -5.4790   21.7620 C   0  0  0  0  0  0  0  0  0  0  0  0
  1  2  1  0
  2  3  2  0
  3  4  1  0
  4  5  2  0
  2  6  1  0
  5  6  1  0
  6  7  1  1
  7  8  1  0
  8  9  1  0
  8 10  1  0
 10 11  2  0
 10 12  1  0
 12 13  1  0
 13 14  1  0
 14 15  1  0
 15 16  1  0
 16 17  2  0
 17 18  1  0
 18 19  2  0
 19 20  1  0
 16 21  1  0
 20 21  2  0
 21 22  1  0
 22 23  1  0
 22 24  1  0
 15 25  1  0
 12 26  1  0
 25 26  1  0
M  END
