MAX-MCD-98db36d7-1
     RDKit          3D

 20 21  0  0  0  0  0  0  0  0999 V2000
    6.4550   -1.6200   21.7200 O   0  0  0  0  0  0  0  0  0  0  0  0
    6.6650   -2.6290   21.0490 C   0  0  0  0  0  0  0  0  0  0  0  0
    5.7960   -3.8270   21.3350 C   0  0  1  0  0  0  0  0  0  0  0  0
    5.1210   -4.2050   20.1250 O   0  0  0  0  0  0  0  0  0  0  0  0
    6.4180   -4.9000   21.9260 N   0  0  0  0  0  0  0  0  0  0  0  0
    7.2370   -4.6450   23.0800 C   0  0  0  0  0  0  0  0  0  0  0  0
    6.5420   -4.8780   24.2470 C   0  0  0  0  0  0  0  0  0  0  0  0
    5.1440   -5.1470   24.2070 N   0  0  0  0  0  0  0  0  0  0  0  0
    4.4750   -5.5870   25.7140 S   0  0  0  0  0  0  0  0  0  0  0  0
    5.5490   -5.5020   26.6820 O   0  0  0  0  0  0  0  0  0  0  0  0
    3.6560   -6.7820   25.5990 O   0  0  0  0  0  0  0  0  0  0  0  0
    3.3180   -4.2800   26.0520 C   0  0  2  0  0  0  0  0  0  0  0  0
    2.0350   -4.5210   25.5330 C   0  0  0  0  0  0  0  0  0  0  0  0
    1.0190   -3.5900   25.8080 C   0  0  0  0  0  0  0  0  0  0  0  0
    1.4710   -2.2210   26.2730 C   0  0  0  0  0  0  0  0  0  0  0  0
    2.8680   -1.9340   25.7840 C   0  0  1  0  0  0  0  0  0  0  0  0
    3.3220   -0.8210   26.4230 F   0  0  0  0  0  0  0  0  0  0  0  0
    3.8120   -2.9650   25.9200 C   0  0  0  0  0  0  0  0  0  0  0  0
    4.7170   -6.0380   23.0860 C   0  0  0  0  0  0  0  0  0  0  0  0
    5.6380   -6.1270   22.0350 C   0  0  0  0  0  0  0  0  0  0  0  0
  1  2  1  0
  2  3  1  0
  3  4  1  6
  3  5  1  0
  5  6  1  0
  6  7  1  0
  7  8  1  0
  8  9  1  0
  9 10  1  0
  9 11  1  0
 12  9  1  6
 12 13  1  0
 13 14  1  0
 14 15  1  0
 15 16  1  0
 16 17  1  1
 12 18  1  0
 16 18  1  0
  8 19  1  0
  5 20  1  0
 19 20  1  0
M  END
