MED-UNK-28939ac5-8
     RDKit          3D

 20 22  0  0  0  0  0  0  0  0999 V2000
   10.3560    3.3410   22.3840 N   0  0  0  0  0  0  0  0  0  0  0  0
    9.4290    2.2030   22.3710 C   0  0  0  0  0  0  0  0  0  0  0  0
    8.8970    1.6800   21.1590 O   0  0  0  0  0  0  0  0  0  0  0  0
    9.0580    1.6880   23.5640 C   0  0  1  0  0  0  0  0  0  0  0  0
    7.5890    1.5280   23.6510 C   0  0  0  0  0  0  0  0  0  0  0  0
    7.3010    0.0340   23.8710 C   0  0  2  0  0  0  0  0  0  0  0  0
    6.5870   -0.1100   24.8650 O   0  0  0  0  0  0  0  0  0  0  0  0
    8.5360   -0.5220   24.0500 C   0  0  0  0  0  0  0  0  0  0  0  0
    9.5720    0.4250   23.9890 C   0  0  1  0  0  0  0  0  0  0  0  0
   10.7530   -0.0380   23.3880 C   0  0  0  0  0  0  0  0  0  0  0  0
   12.0270    0.7710   23.3510 C   0  0  0  0  0  0  0  0  0  0  0  0
   13.0820   -0.0390   22.6460 C   0  0  0  0  0  0  0  0  0  0  0  0
   12.4850   -1.5680   22.1380 S   0  0  0  0  0  0  0  0  0  0  0  0
   10.8940   -1.2660   22.7820 C   0  0  0  0  0  0  0  0  0  0  0  0
    9.7930   -2.1290   22.7470 C   0  0  0  0  0  0  0  0  0  0  0  0
    8.7260   -1.9150   21.8690 C   0  0  0  0  0  0  0  0  0  0  0  0
    7.6210   -2.7610   21.8920 C   0  0  0  0  0  0  0  0  0  0  0  0
    7.5300   -3.8470   22.7680 N   0  0  0  0  0  0  0  0  0  0  0  0
    8.5650   -4.0480   23.6020 N   0  0  0  0  0  0  0  0  0  0  0  0
    9.6480   -3.2220   23.5900 C   0  0  0  0  0  0  0  0  0  0  0  0
  1  2  1  0
  2  3  2  0
  4  2  1  6
  4  5  1  0
  5  6  1  0
  6  7  1  1
  6  8  1  0
  4  9  1  0
  8  9  1  0
  9 10  1  6
 10 11  1  0
 11 12  2  0
 12 13  1  0
 10 14  2  0
 13 14  1  0
 14 15  1  0
 15 16  2  0
 16 17  1  0
 17 18  2  0
 18 19  1  0
 15 20  1  0
 19 20  2  0
M  END
