MED-UNK-28939ac5-7
     RDKit          3D

 19 20  0  0  0  0  0  0  0  0999 V2000
    3.2480   -4.5490   23.8900 C   0  0  0  0  0  0  0  0  0  0  0  0
    4.2380   -5.0120   24.8150 O   0  0  0  0  0  0  0  0  0  0  0  0
    4.9720   -4.0220   25.3790 C   0  0  0  0  0  0  0  0  0  0  0  0
    6.0380   -3.3470   24.5550 C   0  0  0  0  0  0  0  0  0  0  0  0
    5.9480   -1.8500   24.6350 C   0  0  0  0  0  0  0  0  0  0  0  0
    6.9730   -1.1750   24.7270 O   0  0  0  0  0  0  0  0  0  0  0  0
    7.2760   -0.3670   23.5850 C   0  0  1  0  0  0  0  0  0  0  0  0
    7.6030    1.0930   23.8770 C   0  0  0  0  0  0  0  0  0  0  0  0
    9.0870    1.2750   23.5760 C   0  0  2  0  0  0  0  0  0  0  0  0
    9.3180    2.0430   22.2890 C   0  0  0  0  0  0  0  0  0  0  0  0
   10.1270    3.1800   22.3300 N   0  0  0  0  0  0  0  0  0  0  0  0
    8.7260    1.6580   21.0290 O   0  0  0  0  0  0  0  0  0  0  0  0
    9.6070   -0.1830   23.6590 C   0  0  2  0  0  0  0  0  0  0  0  0
   10.9010   -0.3610   23.1730 C   0  0  0  0  0  0  0  0  0  0  0  0
   11.9170    0.5530   23.3280 C   0  0  0  0  0  0  0  0  0  0  0  0
   13.2090    0.1970   22.7540 C   0  0  0  0  0  0  0  0  0  0  0  0
   13.0950   -1.3300   22.0230 S   0  0  0  0  0  0  0  0  0  0  0  0
   11.4150   -1.4640   22.4600 C   0  0  0  0  0  0  0  0  0  0  0  0
    8.5950   -0.8740   22.9730 C   0  0  0  0  0  0  0  0  0  0  0  0
  1  2  1  0
  2  3  1  0
  3  4  1  0
  4  5  1  0
  5  6  1  0
  7  6  1  1
  7  8  1  0
  8  9  1  0
  9 10  1  6
 10 11  1  0
 10 12  2  0
  9 13  1  0
 13 14  1  6
 14 15  1  0
 15 16  2  0
 16 17  1  0
 14 18  2  0
 17 18  1  0
  7 19  1  0
 13 19  1  0
M  END
