MED-UNK-7e7dab56-3
     RDKit          3D

 23 25  0  0  0  0  0  0  0  0999 V2000
    9.6250    5.4700   23.1460 N   0  0  0  0  0  0  0  0  0  0  0  0
   10.9930    5.4330   24.1360 S   0  0  0  0  0  0  0  0  0  0  0  0
   10.4620    5.4560   25.4720 O   0  0  0  0  0  0  0  0  0  0  0  0
   11.8470    6.4770   23.6300 O   0  0  0  0  0  0  0  0  0  0  0  0
   11.6300    3.8520   23.6770 C   0  0  0  0  0  0  0  0  0  0  0  0
   10.7760    2.6280   23.9190 C   0  0  0  0  0  0  0  0  0  0  0  0
   11.2770    1.4060   23.5050 C   0  0  0  0  0  0  0  0  0  0  0  0
   10.4690    0.2900   23.7530 C   0  0  0  0  0  0  0  0  0  0  0  0
    9.2650    0.3940   23.5770 O   0  0  0  0  0  0  0  0  0  0  0  0
   11.0860   -0.8370   24.1760 N   0  0  0  0  0  0  0  0  0  0  0  0
   10.1620   -1.7440   24.3980 C   0  0  1  0  0  0  0  0  0  0  0  0
   10.2210   -2.9350   23.9190 C   0  0  0  0  0  0  0  0  0  0  0  0
   10.5700   -3.1510   25.1520 C   0  0  1  0  0  0  0  0  0  0  0  0
   11.9060   -3.3720   25.4310 F   0  0  0  0  0  0  0  0  0  0  0  0
   12.5290    1.2860   22.8450 C   0  0  0  0  0  0  0  0  0  0  0  0
   13.0240   -0.4850   22.3570 Br  0  0  0  0  0  0  0  0  0  0  0  0
   13.3630    2.4310   22.5670 C   0  0  0  0  0  0  0  0  0  0  0  0
   14.6390    2.2300   21.7890 C   0  0  0  0  0  0  0  0  0  0  0  0
   15.0650    1.3410   22.2780 O   0  0  0  0  0  0  0  0  0  0  0  0
   15.1700    2.8800   20.5200 N   0  0  0  0  0  0  0  0  0  0  0  0
   16.1510    3.4210   19.6070 C   0  0  0  0  0  0  0  0  0  0  0  0
   15.7450    2.1150   19.2530 C   0  0  0  0  0  0  0  0  0  0  0  0
   12.9020    3.7220   23.0620 C   0  0  0  0  0  0  0  0  0  0  0  0
  2  1  1  0
  2  3  2  0
  2  4  2  0
  2  5  1  0
  5  6  2  0
  6  7  1  0
  7  8  1  0
  8  9  2  0
  8 10  1  0
 11 10  1  6
 11 12  1  0
 11 13  1  0
 12 13  1  0
 13 14  1  6
  7 15  2  0
 15 16  1  0
 15 17  1  0
 17 18  1  0
 18 19  2  0
 18 20  1  0
 20 21  1  0
 20 22  1  0
 21 22  1  0
  5 23  1  0
 17 23  2  0
M  END
