MED-UNK-e6e8ef8a-8
     RDKit          3D

 25 28  0  0  0  0  0  0  0  0999 V2000
    9.0700    1.2810   21.5240 O   0  0  0  0  0  0  0  0  0  0  0  0
    8.4200    0.4640   22.1700 C   0  0  0  0  0  0  0  0  0  0  0  0
    9.0090   -0.5920   23.0860 C   0  0  0  0  0  0  0  0  0  0  0  0
   10.4910   -0.5790   23.4200 C   0  0  0  0  0  0  0  0  0  0  0  0
   11.3330   -0.6510   22.2060 C   0  0  0  0  0  0  0  0  0  0  0  0
   12.3510   -1.5770   22.3340 C   0  0  0  0  0  0  0  0  0  0  0  0
   13.2380   -1.2670   23.4850 C   0  0  0  0  0  0  0  0  0  0  0  0
   12.5050   -1.5790   24.7550 C   0  0  0  0  0  0  0  0  0  0  0  0
   11.0030   -1.5570   24.5250 C   0  0  0  0  0  0  0  0  0  0  0  0
    6.9430    0.3870   22.1460 N   0  0  0  0  0  0  0  0  0  0  0  0
    6.0820    0.4370   20.9670 C   0  0  0  0  0  0  0  0  0  0  0  0
    5.1750    1.4480   20.7070 C   0  0  0  0  0  0  0  0  0  0  0  0
    4.4000    1.4970   19.5550 C   0  0  0  0  0  0  0  0  0  0  0  0
    4.5830    0.3880   18.5830 C   0  0  0  0  0  0  0  0  0  0  0  0
    5.4410   -0.6020   18.8210 N   0  0  0  0  0  0  0  0  0  0  0  0
    6.1340   -0.5230   19.9920 C   0  0  0  0  0  0  0  0  0  0  0  0
    7.0360   -1.4920   20.1200 C   0  0  0  0  0  0  0  0  0  0  0  0
    7.2200   -2.7100   19.2410 C   0  0  0  0  0  0  0  0  0  0  0  0
    8.4470   -3.0800   19.6540 C   0  0  0  0  0  0  0  0  0  0  0  0
    9.4200   -4.0570   19.1570 C   0  0  0  0  0  0  0  0  0  0  0  0
   10.7610   -3.9930   19.7430 C   0  0  0  0  0  0  0  0  0  0  0  0
   11.1270   -3.1530   20.8430 C   0  0  0  0  0  0  0  0  0  0  0  0
   10.2080   -2.2650   21.4240 C   0  0  0  0  0  0  0  0  0  0  0  0
    8.8290   -2.1320   20.8140 C   0  0  0  0  0  0  0  0  0  0  0  0
    7.8600   -1.2740   21.0300 O   0  0  0  0  0  0  0  0  0  0  0  0
  1  2  2  0
  2  3  1  0
  3  4  1  0
  4  5  1  0
  5  6  1  0
  6  7  1  0
  7  8  1  0
  4  9  1  0
  8  9  1  0
  2 10  1  0
 10 11  1  0
 11 12  2  0
 12 13  1  0
 13 14  2  0
 14 15  1  0
 11 16  1  0
 15 16  2  0
 16 17  1  0
 17 18  2  0
 18 19  1  0
 19 20  2  0
 20 21  1  0
 21 22  2  0
 22 23  1  0
 19 24  1  0
 23 24  2  0
 17 25  1  0
 24 25  1  0
M  END
