MED-UNK-7e7dab56-2
     RDKit          3D

 23 24  0  0  0  0  0  0  0  0999 V2000
    9.7510   -3.5240   24.1670 C   0  0  0  0  0  0  0  0  0  0  0  0
    9.9800   -2.6670   23.1580 C   0  0  0  0  0  0  0  0  0  0  0  0
   10.5740   -1.4400   23.6230 N   0  0  0  0  0  0  0  0  0  0  0  0
    9.9780   -0.2330   23.3660 C   0  0  0  0  0  0  0  0  0  0  0  0
    8.7960    0.0260   23.1980 O   0  0  0  0  0  0  0  0  0  0  0  0
   10.8730    1.0270   23.2690 C   0  0  0  0  0  0  0  0  0  0  0  0
   10.2540    2.2200   23.7100 C   0  0  0  0  0  0  0  0  0  0  0  0
   10.9690    3.4140   23.6940 C   0  0  0  0  0  0  0  0  0  0  0  0
   10.3360    4.9870   24.2020 S   0  0  0  0  0  0  0  0  0  0  0  0
    9.0910    5.2200   23.0910 N   0  0  0  0  0  0  0  0  0  0  0  0
    9.7350    4.9020   25.5040 O   0  0  0  0  0  0  0  0  0  0  0  0
   11.3200    5.9960   23.8640 O   0  0  0  0  0  0  0  0  0  0  0  0
   12.2430    3.4450   23.2330 C   0  0  0  0  0  0  0  0  0  0  0  0
   12.8820    2.1540   22.6880 C   0  0  0  0  0  0  0  0  0  0  0  0
   14.2220    2.6530   22.1210 C   0  0  0  0  0  0  0  0  0  0  0  0
   14.2980    3.9830   22.7080 O   0  0  0  0  0  0  0  0  0  0  0  0
   15.0680    2.1630   21.1010 N   0  0  0  0  0  0  0  0  0  0  0  0
   15.6290    2.8000   19.7450 C   0  0  1  0  0  0  0  0  0  0  0  0
   16.2520    1.8780   19.0790 C   0  0  0  0  0  0  0  0  0  0  0  0
   15.4750    2.0790   18.2450 C   0  0  1  0  0  0  0  0  0  0  0  0
   14.8610    0.8480   18.2210 F   0  0  0  0  0  0  0  0  0  0  0  0
   12.1960    0.9400   22.7710 C   0  0  0  0  0  0  0  0  0  0  0  0
   12.8820   -0.7650   22.2510 Br  0  0  0  0  0  0  0  0  0  0  0  0
  1  2  1  0
  2  3  1  0
  3  4  1  0
  4  5  2  0
  4  6  1  0
  6  7  2  0
  7  8  1  0
  8  9  1  0
  9 10  1  0
  9 11  2  0
  9 12  2  0
  8 13  2  0
 13 14  1  0
 14 15  1  0
 15 16  2  0
 15 17  1  0
 18 17  1  1
 18 19  1  0
 18 20  1  0
 19 20  1  0
 20 21  1  1
  6 22  1  0
 14 22  2  0
 22 23  1  0
M  END
