MED-UNK-7e7dab56-4
     RDKit          3D

 22 23  0  0  0  0  0  0  0  0999 V2000
   10.3390   -2.1140   23.7450 C   0  0  0  0  0  0  0  0  0  0  0  0
    9.8850   -0.7370   23.6390 N   0  0  0  0  0  0  0  0  0  0  0  0
   10.0980    0.2360   24.5940 C   0  0  0  0  0  0  0  0  0  0  0  0
    9.6160    0.0680   25.9350 O   0  0  0  0  0  0  0  0  0  0  0  0
   10.8470    1.3550   23.9450 C   0  0  0  0  0  0  0  0  0  0  0  0
   10.1970    2.7360   24.0550 C   0  0  0  0  0  0  0  0  0  0  0  0
   10.8370    3.8160   23.4930 C   0  0  0  0  0  0  0  0  0  0  0  0
   10.1770    5.4460   23.6560 S   0  0  0  0  0  0  0  0  0  0  0  0
    8.8560    5.4170   22.6370 N   0  0  0  0  0  0  0  0  0  0  0  0
    9.6640    5.5810   25.0000 O   0  0  0  0  0  0  0  0  0  0  0  0
   11.1310    6.3790   23.1090 O   0  0  0  0  0  0  0  0  0  0  0  0
   12.0190    3.6410   22.8000 C   0  0  0  0  0  0  0  0  0  0  0  0
   12.6330    2.3960   22.6650 C   0  0  0  0  0  0  0  0  0  0  0  0
   13.8980    2.6390   21.8100 C   0  0  0  0  0  0  0  0  0  0  0  0
   14.8330    1.9070   21.9030 O   0  0  0  0  0  0  0  0  0  0  0  0
   13.7560    3.7590   20.9570 N   0  0  0  0  0  0  0  0  0  0  0  0
   14.8100    4.0510   20.0990 C   0  0  1  0  0  0  0  0  0  0  0  0
   15.7730    3.1970   19.6000 C   0  0  0  0  0  0  0  0  0  0  0  0
   15.2700    3.5680   18.5000 C   0  0  1  0  0  0  0  0  0  0  0  0
   15.4480    2.4020   17.8200 F   0  0  0  0  0  0  0  0  0  0  0  0
   12.0540    1.2030   23.2820 C   0  0  0  0  0  0  0  0  0  0  0  0
   12.6520   -0.6100   23.3760 Br  0  0  0  0  0  0  0  0  0  0  0  0
  1  2  1  0
  2  3  1  0
  3  4  2  0
  3  5  1  0
  5  6  2  0
  6  7  1  0
  7  8  1  0
  8  9  1  0
  8 10  2  0
  8 11  2  0
  7 12  2  0
 12 13  1  0
 13 14  1  0
 14 15  2  0
 14 16  1  0
 17 16  1  1
 17 18  1  0
 17 19  1  0
 18 19  1  0
 19 20  1  1
  5 21  1  0
 13 21  2  0
 21 22  1  0
M  END
