MED-UNK-7e7dab56-10
     RDKit          3D

 26 27  0  0  0  0  0  0  0  0999 V2000
   11.1880   -2.1390   21.9620 C   0  0  0  0  0  0  0  0  0  0  0  0
   10.8010   -2.0700   23.3220 N   0  0  0  0  0  0  0  0  0  0  0  0
   11.7910   -2.7400   24.1460 C   0  0  0  0  0  0  0  0  0  0  0  0
    9.3680   -2.2700   23.4510 C   0  0  0  0  0  0  0  0  0  0  0  0
    8.6560   -1.1260   23.1390 C   0  0  0  0  0  0  0  0  0  0  0  0
    9.0350    0.1080   23.7610 N   0  0  0  0  0  0  0  0  0  0  0  0
   10.3760    0.2970   24.2790 C   0  0  0  0  0  0  0  0  0  0  0  0
   10.9760   -0.4460   25.0580 O   0  0  0  0  0  0  0  0  0  0  0  0
   10.9680    1.4670   23.7800 C   0  0  0  0  0  0  0  0  0  0  0  0
   10.3480    2.6970   23.9940 C   0  0  0  0  0  0  0  0  0  0  0  0
   10.9080    4.0130   23.5010 C   0  0  0  0  0  0  0  0  0  0  0  0
   10.1650    5.5140   23.7890 S   0  0  0  0  0  0  0  0  0  0  0  0
    8.8850    5.4970   22.7120 N   0  0  0  0  0  0  0  0  0  0  0  0
    9.5940    5.5360   25.1140 O   0  0  0  0  0  0  0  0  0  0  0  0
   11.0920    6.5380   23.3540 O   0  0  0  0  0  0  0  0  0  0  0  0
   12.1650    3.8720   22.7450 C   0  0  0  0  0  0  0  0  0  0  0  0
   12.7580    2.6420   22.5370 C   0  0  0  0  0  0  0  0  0  0  0  0
   13.9190    2.6930   21.7890 C   0  0  0  0  0  0  0  0  0  0  0  0
   14.7210    1.8030   21.9070 O   0  0  0  0  0  0  0  0  0  0  0  0
   14.0040    3.7990   20.8930 N   0  0  0  0  0  0  0  0  0  0  0  0
   14.9760    4.0440   19.9110 C   0  0  1  0  0  0  0  0  0  0  0  0
   15.8430    3.2400   19.5650 C   0  0  0  0  0  0  0  0  0  0  0  0
   15.1690    3.5350   18.3540 C   0  0  1  0  0  0  0  0  0  0  0  0
   15.5720    2.3890   17.8120 F   0  0  0  0  0  0  0  0  0  0  0  0
   12.1860    1.4250   23.0620 C   0  0  0  0  0  0  0  0  0  0  0  0
   12.9450   -0.2860   22.8710 Br  0  0  0  0  0  0  0  0  0  0  0  0
  1  2  1  0
  2  3  1  0
  2  4  1  0
  4  5  1  0
  5  6  1  0
  6  7  1  0
  7  8  2  0
  7  9  1  0
  9 10  2  0
 10 11  1  0
 11 12  1  0
 12 13  1  0
 12 14  2  0
 12 15  2  0
 11 16  2  0
 16 17  1  0
 17 18  1  0
 18 19  2  0
 18 20  1  0
 21 20  1  1
 21 22  1  0
 21 23  1  0
 22 23  1  0
 23 24  1  1
  9 25  1  0
 17 25  2  0
 25 26  1  0
M  END
