MED-UNK-28939ac5-12
     RDKit          3D

 23 26  0  0  0  0  0  0  0  0999 V2000
    9.4970    3.0260   22.3250 N   0  0  0  0  0  0  0  0  0  0  0  0
    8.8270    1.7370   22.1390 C   0  0  0  0  0  0  0  0  0  0  0  0
    8.4720    1.4210   20.8120 O   0  0  0  0  0  0  0  0  0  0  0  0
    8.4980    0.7480   23.2580 C   0  0  1  0  0  0  0  0  0  0  0  0
    7.1570    0.3490   23.2130 C   0  0  0  0  0  0  0  0  0  0  0  0
    7.1280   -0.8930   22.5720 C   0  0  2  0  0  0  0  0  0  0  0  0
    6.4140   -1.8140   23.3880 O   0  0  0  0  0  0  0  0  0  0  0  0
    8.5760   -1.2790   22.5720 C   0  0  0  0  0  0  0  0  0  0  0  0
    9.2850   -0.4340   23.3810 C   0  0  1  0  0  0  0  0  0  0  0  0
   10.5710   -0.0220   23.1030 C   0  0  0  0  0  0  0  0  0  0  0  0
   11.8450   -0.7310   22.7710 C   0  0  0  0  0  0  0  0  0  0  0  0
   13.1430    0.3660   22.6020 S   0  0  0  0  0  0  0  0  0  0  0  0
   12.0940    1.7500   22.9090 C   0  0  0  0  0  0  0  0  0  0  0  0
   12.2880    3.1880   22.9750 C   0  0  0  0  0  0  0  0  0  0  0  0
   13.3930    3.8860   22.5100 C   0  0  0  0  0  0  0  0  0  0  0  0
   13.5060    5.2740   22.5900 C   0  0  0  0  0  0  0  0  0  0  0  0
   12.5320    6.0620   23.1480 C   0  0  0  0  0  0  0  0  0  0  0  0
   11.4170    5.4350   23.6400 C   0  0  0  0  0  0  0  0  0  0  0  0
   10.2800    5.9910   24.2660 N   0  0  0  0  0  0  0  0  0  0  0  0
    9.3860    4.9380   24.5990 C   0  0  0  0  0  0  0  0  0  0  0  0
    9.9950    3.7920   24.1750 C   0  0  0  0  0  0  0  0  0  0  0  0
   11.2530    4.0050   23.5730 C   0  0  0  0  0  0  0  0  0  0  0  0
   10.8470    1.3250   23.1300 C   0  0  0  0  0  0  0  0  0  0  0  0
  1  2  1  0
  2  3  2  0
  4  2  1  6
  4  5  1  0
  5  6  1  0
  6  7  1  1
  6  8  1  0
  4  9  1  0
  8  9  1  0
  9 10  1  6
 10 11  2  0
 11 12  1  0
 12 13  1  0
 13 14  1  0
 14 15  2  0
 15 16  1  0
 16 17  2  0
 17 18  1  0
 18 19  1  0
 19 20  1  0
 20 21  2  0
 14 22  1  0
 18 22  2  0
 21 22  1  0
 10 23  1  0
 13 23  2  0
M  END
