MED-UNK-e6e8ef8a-1
     RDKit          3D

 17 18  0  0  0  0  0  0  0  0999 V2000
    7.8950   -0.8930   23.8810 C   0  0  0  0  0  0  0  0  0  0  0  0
    9.0360   -0.1620   23.2250 C   0  0  2  0  0  0  0  0  0  0  0  0
    8.7340    0.3340   21.9270 C   0  0  0  0  0  0  0  0  0  0  0  0
    9.2640    1.3220   21.3980 O   0  0  0  0  0  0  0  0  0  0  0  0
    7.7300   -0.3950   21.3220 N   0  0  0  0  0  0  0  0  0  0  0  0
    6.9660    0.0820   20.1880 C   0  0  0  0  0  0  0  0  0  0  0  0
    5.8310    0.9970   20.4660 C   0  0  0  0  0  0  0  0  0  0  0  0
    5.0520    1.5040   19.4430 C   0  0  0  0  0  0  0  0  0  0  0  0
    5.3450    1.1460   18.1310 C   0  0  0  0  0  0  0  0  0  0  0  0
    6.3620    0.3150   17.8300 N   0  0  0  0  0  0  0  0  0  0  0  0
    7.1370   -0.1940   18.8400 C   0  0  0  0  0  0  0  0  0  0  0  0
   10.3740   -0.9850   23.3640 C   0  0  0  0  0  0  0  0  0  0  0  0
   11.1630   -0.9470   22.2250 C   0  0  0  0  0  0  0  0  0  0  0  0
   12.3840   -1.6040   22.4260 C   0  0  0  0  0  0  0  0  0  0  0  0
   13.1660   -1.0810   23.4530 C   0  0  0  0  0  0  0  0  0  0  0  0
   12.4460   -0.3890   24.4150 C   0  0  0  0  0  0  0  0  0  0  0  0
   11.0850   -0.6500   24.5240 C   0  0  0  0  0  0  0  0  0  0  0  0
  2  1  1  6
  2  3  1  0
  3  4  2  0
  3  5  1  0
  5  6  1  0
  6  7  2  0
  7  8  1  0
  8  9  2  0
  9 10  1  0
  6 11  1  0
 10 11  2  0
  2 12  1  0
 12 13  1  0
 13 14  1  0
 14 15  1  0
 15 16  1  0
 12 17  1  0
 16 17  1  0
M  END
