MED-UNK-28939ac5-3
     RDKit          3D

 20 22  0  0  0  0  0  0  0  0999 V2000
    9.0990    3.1460   22.7440 N   0  0  0  0  0  0  0  0  0  0  0  0
    8.7420    1.7980   22.2790 C   0  0  0  0  0  0  0  0  0  0  0  0
    8.6520    1.5500   20.8850 O   0  0  0  0  0  0  0  0  0  0  0  0
    8.4820    0.7570   23.3580 C   0  0  1  0  0  0  0  0  0  0  0  0
    7.0630    0.3090   23.2120 C   0  0  0  0  0  0  0  0  0  0  0  0
    7.1330   -0.9890   22.4420 C   0  0  2  0  0  0  0  0  0  0  0  0
    6.6250   -1.9970   22.9260 O   0  0  0  0  0  0  0  0  0  0  0  0
    8.4720   -1.3440   22.3010 C   0  0  0  0  0  0  0  0  0  0  0  0
    9.2290   -0.4540   23.2470 C   0  0  1  0  0  0  0  0  0  0  0  0
   10.6790   -0.1030   23.0030 C   0  0  0  0  0  0  0  0  0  0  0  0
   11.8490   -0.9830   22.7780 C   0  0  0  0  0  0  0  0  0  0  0  0
   13.2060    0.0850   22.6100 S   0  0  0  0  0  0  0  0  0  0  0  0
   12.1990    1.4890   22.8220 C   0  0  0  0  0  0  0  0  0  0  0  0
   12.4320    2.8980   22.8380 C   0  0  0  0  0  0  0  0  0  0  0  0
   13.5400    3.6630   22.5730 C   0  0  0  0  0  0  0  0  0  0  0  0
   13.4510    5.1550   22.6680 C   0  0  0  0  0  0  0  0  0  0  0  0
   12.2160    5.6680   23.0320 C   0  0  0  0  0  0  0  0  0  0  0  0
   11.1540    4.8880   23.2920 N   0  0  0  0  0  0  0  0  0  0  0  0
   11.2680    3.5350   23.1930 N   0  0  0  0  0  0  0  0  0  0  0  0
   10.8880    1.2080   23.0150 C   0  0  0  0  0  0  0  0  0  0  0  0
  1  2  1  0
  2  3  2  0
  4  2  1  6
  4  5  1  0
  5  6  1  0
  6  7  1  1
  6  8  1  0
  4  9  1  0
  8  9  1  0
  9 10  1  6
 10 11  2  0
 11 12  1  0
 12 13  1  0
 13 14  1  0
 14 15  2  0
 15 16  1  0
 16 17  2  0
 17 18  1  0
 14 19  1  0
 18 19  2  0
 10 20  1  0
 13 20  2  0
M  END
