MED-UNK-7e7dab56-6
     RDKit          3D

 24 26  0  0  0  0  0  0  0  0999 V2000
    8.6980    5.7740   22.7600 N   0  0  0  0  0  0  0  0  0  0  0  0
    9.8110    5.2220   23.9250 S   0  0  0  0  0  0  0  0  0  0  0  0
    9.2200    5.2440   25.3050 O   0  0  0  0  0  0  0  0  0  0  0  0
   11.0440    6.1020   23.9220 O   0  0  0  0  0  0  0  0  0  0  0  0
   10.2410    3.5550   23.5640 C   0  0  0  0  0  0  0  0  0  0  0  0
    9.2780    2.3930   23.5340 C   0  0  0  0  0  0  0  0  0  0  0  0
    9.8720    1.0410   23.2290 C   0  0  0  0  0  0  0  0  0  0  0  0
    8.9910   -0.1820   23.1860 C   0  0  0  0  0  0  0  0  0  0  0  0
    9.4880   -1.2290   23.5790 O   0  0  0  0  0  0  0  0  0  0  0  0
    7.6540   -0.1130   22.7230 N   0  0  0  0  0  0  0  0  0  0  0  0
    6.9940   -1.4220   22.6830 C   0  0  0  0  0  0  0  0  0  0  0  0
    5.8710   -1.5590   23.5790 C   0  0  0  0  0  0  0  0  0  0  0  0
    6.9620   -2.4140   24.0120 C   0  0  0  0  0  0  0  0  0  0  0  0
   11.3730    0.8690   22.9720 C   0  0  0  0  0  0  0  0  0  0  0  0
   12.2420   -0.8120   22.6320 Br  0  0  0  0  0  0  0  0  0  0  0  0
   12.0420    2.0820   23.0320 C   0  0  0  0  0  0  0  0  0  0  0  0
   13.3030    2.0480   22.8160 C   0  0  0  0  0  0  0  0  0  0  0  0
   13.8590    0.9550   22.7770 O   0  0  0  0  0  0  0  0  0  0  0  0
   13.8590    3.3130   22.6440 N   0  0  0  0  0  0  0  0  0  0  0  0
   13.1380    4.4680   22.8020 C   0  0  1  0  0  0  0  0  0  0  0  0
   13.5620    5.4780   22.0480 C   0  0  0  0  0  0  0  0  0  0  0  0
   12.2110    4.9980   21.7830 C   0  0  2  0  0  0  0  0  0  0  0  0
   11.2360    5.8990   22.1510 F   0  0  0  0  0  0  0  0  0  0  0  0
   11.5480    3.3360   23.3030 C   0  0  0  0  0  0  0  0  0  0  0  0
  2  1  1  0
  2  3  2  0
  2  4  2  0
  2  5  1  0
  5  6  2  0
  6  7  1  0
  7  8  1  0
  8  9  2  0
  8 10  1  0
 10 11  1  0
 11 12  1  0
 11 13  1  0
 12 13  1  0
  7 14  2  0
 14 15  1  0
 14 16  1  0
 16 17  1  0
 17 18  2  0
 17 19  1  0
 20 19  1  6
 20 21  1  0
 20 22  1  0
 21 22  1  0
 22 23  1  1
  5 24  1  0
 16 24  2  0
M  END
