MED-UNK-7e7dab56-1
     RDKit          3D

 21 22  0  0  0  0  0  0  0  0999 V2000
    8.5320    5.4190   22.7060 N   0  0  0  0  0  0  0  0  0  0  0  0
    9.7450    5.3220   23.8400 S   0  0  0  0  0  0  0  0  0  0  0  0
    9.1700    5.2590   25.1640 O   0  0  0  0  0  0  0  0  0  0  0  0
   10.7180    6.3520   23.5110 O   0  0  0  0  0  0  0  0  0  0  0  0
   10.4580    3.7750   23.4550 C   0  0  0  0  0  0  0  0  0  0  0  0
    9.8930    2.3600   23.5950 C   0  0  0  0  0  0  0  0  0  0  0  0
   10.7030    1.2410   23.2510 C   0  0  0  0  0  0  0  0  0  0  0  0
   10.3380   -0.1200   23.3260 C   0  0  0  0  0  0  0  0  0  0  0  0
   11.0210   -1.0240   22.8910 O   0  0  0  0  0  0  0  0  0  0  0  0
    9.1710   -0.3340   23.9330 O   0  0  0  0  0  0  0  0  0  0  0  0
   12.1590    1.4300   22.7530 C   0  0  0  0  0  0  0  0  0  0  0  0
   13.1100   -0.2080   22.4710 Br  0  0  0  0  0  0  0  0  0  0  0  0
   12.5710    2.7850   22.5770 C   0  0  0  0  0  0  0  0  0  0  0  0
   13.6980    3.3840   22.0780 C   0  0  0  0  0  0  0  0  0  0  0  0
   13.4180    4.3520   21.3790 O   0  0  0  0  0  0  0  0  0  0  0  0
   15.0170    3.0630   22.2240 N   0  0  0  0  0  0  0  0  0  0  0  0
   15.8770    4.1550   21.9260 C   0  0  1  0  0  0  0  0  0  0  0  0
   15.4190    4.9220   22.7980 C   0  0  0  0  0  0  0  0  0  0  0  0
   16.8360    4.7560   23.0550 C   0  0  1  0  0  0  0  0  0  0  0  0
   17.2180    4.1130   24.0800 F   0  0  0  0  0  0  0  0  0  0  0  0
   11.8230    3.8500   22.9000 C   0  0  0  0  0  0  0  0  0  0  0  0
  2  1  1  0
  2  3  2  0
  2  4  2  0
  2  5  1  0
  5  6  2  0
  6  7  1  0
  7  8  1  0
  8  9  2  0
  8 10  1  0
  7 11  2  0
 11 12  1  0
 11 13  1  0
 13 14  1  0
 14 15  2  0
 14 16  1  0
 17 16  1  1
 17 18  1  0
 17 19  1  0
 18 19  1  0
 19 20  1  1
  5 21  1  0
 13 21  2  0
M  END
