MED-UNK-28939ac5-13
     RDKit          3D

 23 26  0  0  0  0  0  0  0  0999 V2000
    9.7700    2.7180   22.6530 N   0  0  0  0  0  0  0  0  0  0  0  0
    8.8430    1.8410   22.4110 C   0  0  0  0  0  0  0  0  0  0  0  0
    8.6770    1.4630   21.2440 O   0  0  0  0  0  0  0  0  0  0  0  0
    7.9510    1.3820   23.6250 C   0  0  1  0  0  0  0  0  0  0  0  0
    6.6570    1.6410   23.1740 C   0  0  0  0  0  0  0  0  0  0  0  0
    5.9860    0.4210   23.0250 C   0  0  2  0  0  0  0  0  0  0  0  0
    4.8100    0.4510   23.8160 O   0  0  0  0  0  0  0  0  0  0  0  0
    6.8050   -0.5500   23.5010 C   0  0  0  0  0  0  0  0  0  0  0  0
    7.8430    0.0440   24.1340 C   0  0  1  0  0  0  0  0  0  0  0  0
    8.9380   -0.6950   24.1140 C   0  0  0  0  0  0  0  0  0  0  0  0
    9.1050   -2.0440   24.4690 C   0  0  0  0  0  0  0  0  0  0  0  0
   10.6890   -2.6140   24.2760 S   0  0  0  0  0  0  0  0  0  0  0  0
   10.9620   -1.0750   23.7540 C   0  0  0  0  0  0  0  0  0  0  0  0
   11.8820   -0.5740   23.3380 C   0  0  0  0  0  0  0  0  0  0  0  0
   12.2280    0.6040   23.8700 C   0  0  0  0  0  0  0  0  0  0  0  0
   13.1990    1.2450   23.4640 N   0  0  0  0  0  0  0  0  0  0  0  0
   13.7600    0.5870   22.4980 C   0  0  0  0  0  0  0  0  0  0  0  0
   13.4020   -0.6800   21.8340 C   0  0  0  0  0  0  0  0  0  0  0  0
   13.8630   -1.5020   20.7010 C   0  0  0  0  0  0  0  0  0  0  0  0
   12.9780   -2.6550   20.7230 C   0  0  0  0  0  0  0  0  0  0  0  0
   12.0270   -2.5110   21.7690 N   0  0  0  0  0  0  0  0  0  0  0  0
   12.4100   -1.2380   22.3590 C   0  0  0  0  0  0  0  0  0  0  0  0
   10.0480   -0.1620   23.7090 C   0  0  0  0  0  0  0  0  0  0  0  0
  1  2  1  0
  2  3  2  0
  4  2  1  6
  4  5  1  0
  5  6  1  0
  6  7  1  1
  6  8  1  0
  4  9  1  0
  8  9  1  0
  9 10  1  6
 10 11  2  0
 11 12  1  0
 12 13  1  0
 13 14  1  0
 14 15  2  0
 15 16  1  0
 16 17  2  0
 17 18  1  0
 18 19  1  0
 19 20  2  0
 20 21  1  0
 14 22  1  0
 18 22  2  0
 21 22  1  0
 10 23  1  0
 13 23  2  0
M  END
