MED-UNK-e6e8ef8a-3
     RDKit          3D

 17 18  0  0  0  0  0  0  0  0999 V2000
   13.4810   -2.5730   24.4980 C   0  0  0  0  0  0  0  0  0  0  0  0
   13.0840   -1.3710   23.6020 C   0  0  1  0  0  0  0  0  0  0  0  0
   12.2370   -1.7510   22.5670 C   0  0  0  0  0  0  0  0  0  0  0  0
   11.1650   -0.9010   22.3110 C   0  0  0  0  0  0  0  0  0  0  0  0
   10.2420   -0.7810   23.3260 C   0  0  2  0  0  0  0  0  0  0  0  0
    9.3430    0.4390   23.1980 C   0  0  0  0  0  0  0  0  0  0  0  0
    8.6940    0.6220   21.8370 C   0  0  0  0  0  0  0  0  0  0  0  0
    9.0710    1.5800   21.1640 O   0  0  0  0  0  0  0  0  0  0  0  0
    7.6730   -0.2640   21.3940 N   0  0  0  0  0  0  0  0  0  0  0  0
    6.8570    0.2130   20.3260 C   0  0  0  0  0  0  0  0  0  0  0  0
    5.7690    1.0690   20.4510 C   0  0  0  0  0  0  0  0  0  0  0  0
    5.0090    1.5170   19.3840 C   0  0  0  0  0  0  0  0  0  0  0  0
    5.3020    1.1230   18.0860 C   0  0  0  0  0  0  0  0  0  0  0  0
    6.2890    0.3140   17.7730 N   0  0  0  0  0  0  0  0  0  0  0  0
    7.1100   -0.1810   18.8790 C   0  0  0  0  0  0  0  0  0  0  0  0
   10.9700   -0.6910   24.6680 C   0  0  0  0  0  0  0  0  0  0  0  0
   12.4260   -0.3090   24.4650 C   0  0  0  0  0  0  0  0  0  0  0  0
  2  1  1  1
  2  3  1  0
  3  4  1  0
  4  5  1  0
  5  6  1  6
  6  7  1  0
  7  8  2  0
  7  9  1  0
  9 10  1  0
 10 11  2  0
 11 12  1  0
 12 13  2  0
 13 14  1  0
 10 15  1  0
 14 15  2  0
  5 16  1  0
  2 17  1  0
 16 17  1  0
M  END
