MIC-IOC-304754b1-1
     RDKit          3D

 35 39  0  0  0  0  0  0  0  0999 V2000
   -2.6930   -6.6920   27.4390 C   0  0  0  0  0  0  0  0  0  0  0  0
   -1.5070   -6.3770   28.3940 C   0  0  0  0  0  0  0  0  0  0  0  0
   -0.2730   -6.2550   27.7420 C   0  0  0  0  0  0  0  0  0  0  0  0
    0.2000   -4.8920   27.5540 N   0  0  0  0  0  0  0  0  0  0  0  0
    1.1320   -4.9860   26.6060 N   0  0  0  0  0  0  0  0  0  0  0  0
    1.9850   -3.9120   26.3200 C   0  0  0  0  0  0  0  0  0  0  0  0
    1.3380   -2.6910   26.2570 C   0  0  0  0  0  0  0  0  0  0  0  0
    2.0660   -1.3940   25.9720 C   0  0  0  0  0  0  0  0  0  0  0  0
    3.5380   -1.6090   25.7680 C   0  0  0  0  0  0  0  0  0  0  0  0
    4.1560   -2.8580   25.8350 C   0  0  0  0  0  0  0  0  0  0  0  0
    5.8550   -2.9820   25.5830 Cl  0  0  0  0  0  0  0  0  0  0  0  0
    3.3900   -4.0050   26.1090 C   0  0  0  0  0  0  0  0  0  0  0  0
    1.6970   -6.3590   26.6790 C   0  0  0  0  0  0  0  0  0  0  0  0
    2.9670   -6.8430   26.3620 O   0  0  0  0  0  0  0  0  0  0  0  0
    0.7030   -7.2280   27.1660 C   0  0  0  0  0  0  0  0  0  0  0  0
    0.7180   -8.6430   27.0720 C   0  0  0  0  0  0  0  0  0  0  0  0
    0.5550   -9.4310   25.7970 C   0  0  0  0  0  0  0  0  0  0  0  0
    0.3700   -8.8470   24.6020 N   0  0  0  0  0  0  0  0  0  0  0  0
   -0.6420   -7.9410   24.3890 C   0  0  0  0  0  0  0  0  0  0  0  0
   -0.9080   -7.4080   23.1160 C   0  0  0  0  0  0  0  0  0  0  0  0
   -0.1080   -7.8210   21.8290 C   0  0  0  0  0  0  0  0  0  0  0  0
    1.2740   -7.8830   22.5850 C   0  0  0  0  0  0  0  0  0  0  0  0
    1.4080   -8.3900   23.8710 C   0  0  0  0  0  0  0  0  0  0  0  0
    0.6350  -10.8620   26.1900 C   0  0  0  0  0  0  0  0  0  0  0  0
    0.7410  -11.7830   25.3720 O   0  0  0  0  0  0  0  0  0  0  0  0
    0.5680  -10.8910   27.6320 N   0  0  0  0  0  0  0  0  0  0  0  0
    0.8550  -12.1330   28.1780 C   0  0  0  0  0  0  0  0  0  0  0  0
    1.5000  -13.1280   27.4400 C   0  0  0  0  0  0  0  0  0  0  0  0
    1.7830  -14.3820   27.9950 C   0  0  0  0  0  0  0  0  0  0  0  0
    1.4430  -14.6660   29.2580 C   0  0  0  0  0  0  0  0  0  0  0  0
    0.7860  -13.7100   30.0740 C   0  0  0  0  0  0  0  0  0  0  0  0
    0.3960  -13.9120   31.3910 C   0  0  0  0  0  0  0  0  0  0  0  0
    0.5080  -12.4540   29.5010 C   0  0  0  0  0  0  0  0  0  0  0  0
    0.8580   -9.6370   28.1640 C   0  0  0  0  0  0  0  0  0  0  0  0
    1.1650   -9.3040   29.3020 O   0  0  0  0  0  0  0  0  0  0  0  0
  1  2  1  0
  2  3  1  0
  3  4  1  0
  4  5  1  0
  5  6  1  0
  6  7  2  0
  7  8  1  0
  8  9  2  0
  9 10  1  0
 10 11  1  0
  6 12  1  0
 10 12  2  0
  5 13  1  0
 13 14  2  0
  3 15  2  0
 13 15  1  0
 15 16  1  0
 16 17  2  0
 17 18  1  0
 18 19  1  0
 19 20  2  0
 20 21  1  0
 21 22  1  0
 18 23  1  0
 22 23  2  0
 17 24  1  0
 24 25  2  0
 24 26  1  0
 26 27  1  0
 27 28  2  0
 28 29  1  0
 29 30  2  0
 30 31  1  0
 31 32  1  0
 27 33  1  0
 31 33  2  0
 16 34  1  0
 26 34  1  0
 34 35  2  0
M  END
