MIC-SGC-657978c3-3
     RDKit          3D

 24 26  0  0  0  0  0  0  0  0999 V2000
    8.8230    1.4330   21.1140 O   0  0  0  0  0  0  0  0  0  0  0  0
    8.5240    0.2550   21.3460 C   0  0  0  0  0  0  0  0  0  0  0  0
    7.6090   -0.5700   20.4870 C   0  0  0  0  0  0  0  0  0  0  0  0
    6.2940   -0.4090   20.4490 C   0  0  0  0  0  0  0  0  0  0  0  0
    6.4800    1.0630   19.8610 C   0  0  0  0  0  0  0  0  0  0  0  0
    5.3110    2.0530   19.5120 C   0  0  0  0  0  0  0  0  0  0  0  0
    3.9190    1.7590   19.6700 C   0  0  0  0  0  0  0  0  0  0  0  0
    3.9110    0.5490   20.1280 C   0  0  0  0  0  0  0  0  0  0  0  0
    5.3340    0.5790   20.0860 C   0  0  0  0  0  0  0  0  0  0  0  0
    9.0070   -0.5550   22.4440 N   0  0  0  0  0  0  0  0  0  0  0  0
    9.5530   -1.8770   22.1590 C   0  0  0  0  0  0  0  0  0  0  0  0
   10.8510   -2.0560   22.5330 C   0  0  0  0  0  0  0  0  0  0  0  0
   10.9780   -2.2250   23.9240 C   0  0  0  0  0  0  0  0  0  0  0  0
   12.3120   -2.4390   24.5340 C   0  0  0  0  0  0  0  0  0  0  0  0
   13.4030   -2.4550   23.5890 C   0  0  0  0  0  0  0  0  0  0  0  0
   13.2910   -2.2900   22.2570 N   0  0  0  0  0  0  0  0  0  0  0  0
   11.9540   -2.0840   21.7200 C   0  0  0  0  0  0  0  0  0  0  0  0
    8.4870   -0.3500   23.8030 C   0  0  0  0  0  0  0  0  0  0  0  0
    9.1960   -0.7300   24.9720 O   0  0  0  0  0  0  0  0  0  0  0  0
    7.2400    0.2280   23.8910 N   0  0  0  0  0  0  0  0  0  0  0  0
    6.7900    0.8300   25.1280 C   0  0  0  0  0  0  0  0  0  0  0  0
    6.3630   -0.1570   26.0060 C   0  0  0  0  0  0  0  0  0  0  0  0
    7.1610   -0.5920   26.9630 C   0  0  0  0  0  0  0  0  0  0  0  0
    6.3050    0.0990   27.6060 C   0  0  0  0  0  0  0  0  0  0  0  0
  1  2  2  0
  2  3  1  0
  3  4  1  0
  4  5  2  0
  5  6  1  0
  6  7  2  0
  7  8  1  0
  4  9  1  0
  8  9  2  0
  2 10  1  0
 10 11  1  0
 11 12  1  0
 12 13  2  0
 13 14  1  0
 14 15  2  0
 15 16  1  0
 12 17  1  0
 16 17  2  0
 10 18  1  0
 18 19  2  0
 18 20  1  0
 20 21  1  0
 21 22  1  0
 22 23  1  0
 22 24  1  0
 23 24  1  0
M  END
