MIH-UNI-3396182e-12
     RDKit          3D

 25 27  0  0  0  0  0  0  0  0999 V2000
   12.0550    3.7750   21.9150 N   0  0  0  0  0  0  0  0  0  0  0  0
   11.8630    4.1770   23.1150 C   0  0  0  0  0  0  0  0  0  0  0  0
   12.9580    5.0260   22.7760 O   0  0  0  0  0  0  0  0  0  0  0  0
   10.7920    3.1450   23.0130 C   0  0  0  0  0  0  0  0  0  0  0  0
   10.8690    2.0290   23.7610 C   0  0  0  0  0  0  0  0  0  0  0  0
   11.3650    0.7090   23.1260 C   0  0  0  0  0  0  0  0  0  0  0  0
   12.7230    0.3010   22.9350 C   0  0  0  0  0  0  0  0  0  0  0  0
   13.1820   -0.8860   22.3750 C   0  0  0  0  0  0  0  0  0  0  0  0
   12.3370   -1.8680   21.9080 C   0  0  0  0  0  0  0  0  0  0  0  0
   10.8690   -1.5420   22.0600 C   0  0  0  0  0  0  0  0  0  0  0  0
   10.4420   -0.2280   22.6840 C   0  0  0  0  0  0  0  0  0  0  0  0
    9.1510    0.0940   22.8600 C   0  0  0  0  0  0  0  0  0  0  0  0
    7.9140   -0.3820   22.1030 C   0  0  0  0  0  0  0  0  0  0  0  0
    6.2740   -0.0240   22.3320 C   0  0  0  0  0  0  0  0  0  0  0  0
    5.1410    0.4920   22.8270 N   0  0  0  0  0  0  0  0  0  0  0  0
    6.4150    0.8090   23.3770 N   0  0  0  0  0  0  0  0  0  0  0  0
    7.6040    0.5310   23.1380 C   0  0  0  0  0  0  0  0  0  0  0  0
    7.7190   -0.2580   21.9910 N   0  0  0  0  0  0  0  0  0  0  0  0
    7.0070    0.1680   20.8170 C   0  0  0  0  0  0  0  0  0  0  0  0
    5.9920    1.1200   20.7960 C   0  0  0  0  0  0  0  0  0  0  0  0
    5.3550    1.4720   19.6270 C   0  0  0  0  0  0  0  0  0  0  0  0
    5.6280    0.9550   18.3870 C   0  0  0  0  0  0  0  0  0  0  0  0
    6.7060   -0.0690   18.3280 N   0  0  0  0  0  0  0  0  0  0  0  0
    7.2680   -0.3530   19.5170 C   0  0  0  0  0  0  0  0  0  0  0  0
    8.6860    0.8490   23.7360 C   0  0  0  0  0  0  0  0  0  0  0  0
  1  2  1  0
  2  3  2  0
  2  4  1  0
  4  5  1  0
  5  6  1  0
  6  7  2  0
  7  8  1  0
  8  9  2  0
  9 10  1  0
  6 11  1  0
 10 11  2  0
 11 12  1  0
 12 13  2  0
 13 14  1  0
 14 15  1  0
 14 16  2  0
 16 17  1  0
 17 18  1  0
 18 19  1  0
 19 20  2  0
 20 21  1  0
 21 22  2  0
 22 23  1  0
 19 24  1  0
 23 24  2  0
 12 25  1  0
 17 25  2  0
M  END
