MIH-UNI-3396182e-3
     RDKit          3D

 27 29  0  0  0  0  0  0  0  0999 V2000
    4.6340    1.3560   21.6020 C   0  0  0  0  0  0  0  0  0  0  0  0
    5.2230    0.9770   20.2770 C   0  0  0  0  0  0  0  0  0  0  0  0
    4.8660    1.6980   19.1040 C   0  0  0  0  0  0  0  0  0  0  0  0
    5.4350    1.3270   17.8900 C   0  0  0  0  0  0  0  0  0  0  0  0
    6.3310    0.2690   17.8890 N   0  0  0  0  0  0  0  0  0  0  0  0
    6.6930   -0.4460   19.0030 C   0  0  0  0  0  0  0  0  0  0  0  0
    6.1320   -0.0980   20.2200 C   0  0  0  0  0  0  0  0  0  0  0  0
    6.5040   -0.8340   21.3070 N   0  0  0  0  0  0  0  0  0  0  0  0
    7.2360    0.0020   22.1140 C   0  0  0  0  0  0  0  0  0  0  0  0
    8.4140    0.7680   23.1270 C   0  0  0  0  0  0  0  0  0  0  0  0
    9.2150   -0.3630   22.6960 C   0  0  0  0  0  0  0  0  0  0  0  0
   10.6910   -0.1500   22.7670 C   0  0  0  0  0  0  0  0  0  0  0  0
   11.5440   -1.1860   22.3620 C   0  0  0  0  0  0  0  0  0  0  0  0
   12.9010   -0.9990   22.3640 C   0  0  0  0  0  0  0  0  0  0  0  0
   13.3720    0.2220   22.7700 C   0  0  0  0  0  0  0  0  0  0  0  0
   12.5600    1.2390   23.1850 C   0  0  0  0  0  0  0  0  0  0  0  0
   11.2090    1.0850   23.1990 C   0  0  0  0  0  0  0  0  0  0  0  0
   10.3620    2.2770   23.6660 C   0  0  0  0  0  0  0  0  0  0  0  0
   10.6890    3.5850   22.9140 C   0  0  0  0  0  0  0  0  0  0  0  0
   10.1070    5.1440   23.6310 S   0  0  0  0  0  0  0  0  0  0  0  0
    8.8470    5.4970   22.5930 N   0  0  0  0  0  0  0  0  0  0  0  0
   11.0730    6.1920   23.3820 O   0  0  0  0  0  0  0  0  0  0  0  0
    9.4960    5.0160   24.9320 O   0  0  0  0  0  0  0  0  0  0  0  0
    8.4210   -1.0280   22.2170 C   0  0  0  0  0  0  0  0  0  0  0  0
    7.3320   -0.9450   23.2720 C   0  0  0  0  0  0  0  0  0  0  0  0
    7.9760    0.0510   24.0050 N   0  0  0  0  0  0  0  0  0  0  0  0
    7.0740   -1.5030   22.3060 N   0  0  0  0  0  0  0  0  0  0  0  0
  1  2  1  0
  2  3  2  0
  3  4  1  0
  4  5  2  0
  5  6  1  0
  2  7  1  0
  6  7  2  0
  7  8  1  0
  8  9  1  0
  9 10  2  0
 10 11  1  0
 11 12  1  0
 12 13  2  0
 13 14  1  0
 14 15  2  0
 15 16  1  0
 12 17  1  0
 16 17  2  0
 17 18  1  0
 18 19  1  0
 19 20  1  0
 20 21  1  0
 20 22  2  0
 20 23  2  0
 11 24  2  0
 24 25  1  0
 25 26  1  0
  9 27  1  0
 25 27  2  0
M  END
