MIH-UNI-3396182e-4
     RDKit          3D

 21 22  0  0  0  0  0  0  0  0999 V2000
    4.6910    1.5990   21.8470 C   0  0  0  0  0  0  0  0  0  0  0  0
    5.4650    1.0080   20.6770 C   0  0  0  0  0  0  0  0  0  0  0  0
    4.9150    1.2210   19.4090 C   0  0  0  0  0  0  0  0  0  0  0  0
    5.5480    0.7120   18.2910 C   0  0  0  0  0  0  0  0  0  0  0  0
    6.6830   -0.0000   18.3220 N   0  0  0  0  0  0  0  0  0  0  0  0
    7.1930   -0.1920   19.5830 C   0  0  0  0  0  0  0  0  0  0  0  0
    6.6790    0.2680   20.8170 C   0  0  0  0  0  0  0  0  0  0  0  0
    7.2720    0.0430   22.1530 N   0  0  0  0  0  0  0  0  0  0  0  0
    8.7270    0.2850   22.4030 C   0  0  0  0  0  0  0  0  0  0  0  0
    9.1780   -0.7730   22.1770 C   0  0  0  0  0  0  0  0  0  0  0  0
    8.5280   -1.7930   21.9140 C   0  0  0  0  0  0  0  0  0  0  0  0
    7.4390   -0.6760   22.2000 C   0  0  0  0  0  0  0  0  0  0  0  0
    6.1150   -1.1760   22.0990 C   0  0  0  0  0  0  0  0  0  0  0  0
    6.2780   -2.6980   21.9850 C   0  0  0  0  0  0  0  0  0  0  0  0
    5.2010   -3.5480   23.1300 S   0  0  0  0  0  0  0  0  0  0  0  0
    6.1460   -4.8480   23.6240 N   0  0  0  0  0  0  0  0  0  0  0  0
    5.0370   -2.7550   24.3270 O   0  0  0  0  0  0  0  0  0  0  0  0
    4.0770   -4.1400   22.4360 O   0  0  0  0  0  0  0  0  0  0  0  0
    7.6440    0.8820   22.5830 C   0  0  0  0  0  0  0  0  0  0  0  0
    6.6630    1.7810   22.8280 N   0  0  0  0  0  0  0  0  0  0  0  0
    8.9040    1.4120   22.7030 N   0  0  0  0  0  0  0  0  0  0  0  0
  1  2  1  0
  2  3  2  0
  3  4  1  0
  4  5  2  0
  5  6  1  0
  2  7  1  0
  6  7  2  0
  7  8  1  0
  8  9  1  0
  9 10  2  0
 10 11  1  0
 11 12  2  0
 12 13  1  0
 13 14  1  0
 14 15  1  0
 15 16  1  0
 15 17  2  0
 15 18  2  0
 12 19  1  0
 19 20  1  0
  9 21  1  0
 19 21  2  0
M  END
