MIH-UNI-3396182e-11
     RDKit          3D

 27 29  0  0  0  0  0  0  0  0999 V2000
    5.7220    0.9610   17.7060 C   0  0  0  0  0  0  0  0  0  0  0  0
    4.9720    1.4410   18.9190 C   0  0  0  0  0  0  0  0  0  0  0  0
    4.0670    2.4090   18.8440 C   0  0  0  0  0  0  0  0  0  0  0  0
    3.2850    2.9300   20.0100 C   0  0  0  0  0  0  0  0  0  0  0  0
    3.4400    2.4540   21.2500 N   0  0  0  0  0  0  0  0  0  0  0  0
    4.3940    1.4240   21.3930 C   0  0  0  0  0  0  0  0  0  0  0  0
    5.1850    0.8990   20.1910 C   0  0  0  0  0  0  0  0  0  0  0  0
    6.1810   -0.2240   20.5230 C   0  0  0  0  0  0  0  0  0  0  0  0
    6.7460   -0.2220   21.7480 N   0  0  0  0  0  0  0  0  0  0  0  0
    8.0680   -0.4440   21.7420 C   0  0  0  0  0  0  0  0  0  0  0  0
    8.8010   -0.1340   22.8540 C   0  0  1  0  0  0  0  0  0  0  0  0
   10.2480   -0.4530   22.6220 C   0  0  0  0  0  0  0  0  0  0  0  0
   10.7250   -1.5740   21.9980 C   0  0  0  0  0  0  0  0  0  0  0  0
   12.2660   -1.6970   21.8320 C   0  0  0  0  0  0  0  0  0  0  0  0
   13.1110   -0.6450   22.3420 C   0  0  0  0  0  0  0  0  0  0  0  0
   12.5400    0.4590   22.9710 C   0  0  0  0  0  0  0  0  0  0  0  0
   11.2080    0.3760   23.0070 C   0  0  0  0  0  0  0  0  0  0  0  0
   11.7020   -0.7470   22.4180 C   0  0  0  0  0  0  0  0  0  0  0  0
   11.6510   -1.8520   23.4070 N   0  0  0  0  0  0  0  0  0  0  0  0
   13.2300   -2.1710   23.8800 S   0  0  0  0  0  0  0  0  0  0  0  0
   13.1250   -3.1120   25.3090 C   0  0  0  0  0  0  0  0  0  0  0  0
   13.6940   -0.8820   24.2260 O   0  0  0  0  0  0  0  0  0  0  0  0
   13.7880   -2.9670   22.8370 O   0  0  0  0  0  0  0  0  0  0  0  0
    8.5790    1.3200   23.2440 C   0  0  0  0  0  0  0  0  0  0  0  0
    7.2130    1.5110   23.4580 C   0  0  1  0  0  0  0  0  0  0  0  0
    6.7290    2.6640   23.9670 N   0  0  0  0  0  0  0  0  0  0  0  0
    6.5340    1.1720   22.2330 O   0  0  0  0  0  0  0  0  0  0  0  0
  1  2  1  0
  2  3  2  0
  3  4  1  0
  4  5  2  0
  5  6  1  0
  2  7  1  0
  6  7  2  0
  7  8  1  0
  8  9  1  0
  9 10  1  0
 10 11  1  0
 11 12  1  6
 12 13  2  0
 13 14  1  0
 14 15  2  0
 15 16  1  0
 12 17  1  0
 16 17  2  0
 17 18  1  0
 18 19  1  0
 20 19  1  0
 20 21  1  0
 20 22  2  0
 20 23  2  0
 11 24  1  0
 24 25  1  0
 25 26  1  6
  9 27  1  0
 25 27  1  0
M  END
