MIH-UNI-3396182e-13
     RDKit          3D

 21 23  0  0  0  0  0  0  0  0999 V2000
    9.7870    0.4050   23.0500 N   0  0  0  0  0  0  0  0  0  0  0  0
    9.0420    0.5370   21.8940 C   0  0  0  0  0  0  0  0  0  0  0  0
    8.9400    1.8010   21.2370 O   0  0  0  0  0  0  0  0  0  0  0  0
    8.4130   -0.7220   21.4040 C   0  0  0  0  0  0  0  0  0  0  0  0
    7.0410   -0.6660   21.2250 C   0  0  2  0  0  0  0  0  0  0  0  0
    6.4250   -0.3860   19.9000 C   0  0  0  0  0  0  0  0  0  0  0  0
    5.4550    0.6380   19.7660 C   0  0  0  0  0  0  0  0  0  0  0  0
    5.5690    1.1570   18.2800 C   0  0  0  0  0  0  0  0  0  0  0  0
    4.8490    2.1260   17.6810 C   0  0  0  0  0  0  0  0  0  0  0  0
    3.8900    2.6930   18.5790 C   0  0  0  0  0  0  0  0  0  0  0  0
    4.3550    1.7950   19.6130 C   0  0  0  0  0  0  0  0  0  0  0  0
    4.5120    1.1120   20.8590 C   0  0  0  0  0  0  0  0  0  0  0  0
    5.0650    0.1540   21.8380 C   0  0  0  0  0  0  0  0  0  0  0  0
    6.3980    0.3150   22.1320 C   0  0  1  0  0  0  0  0  0  0  0  0
    6.8620    0.1810   23.3880 N   0  0  0  0  0  0  0  0  0  0  0  0
    6.5320    1.2770   24.3410 C   0  0  0  0  0  0  0  0  0  0  0  0
    7.0500    2.5630   24.1990 C   0  0  0  0  0  0  0  0  0  0  0  0
    6.7150    3.5640   25.1220 C   0  0  0  0  0  0  0  0  0  0  0  0
    5.8540    3.3270   26.2160 C   0  0  0  0  0  0  0  0  0  0  0  0
    5.3250    2.0900   26.3900 N   0  0  0  0  0  0  0  0  0  0  0  0
    5.6940    1.0580   25.4110 C   0  0  0  0  0  0  0  0  0  0  0  0
  1  2  1  0
  2  3  2  0
  2  4  1  0
  5  4  1  6
  5  6  1  0
  6  7  1  0
  7  8  1  0
  8  9  2  0
  9 10  1  0
 10 11  2  0
  7 12  2  0
 11 12  1  0
 12 13  1  0
  5 14  1  0
 13 14  1  0
 14 15  1  1
 15 16  1  0
 16 17  2  0
 17 18  1  0
 18 19  2  0
 19 20  1  0
 16 21  1  0
 20 21  2  0
M  END
