MUS-SCH-c2f96c06-5
     RDKit          3D

 21 23  0  0  0  0  0  0  0  0999 V2000
    4.2630   -0.7520   22.3560 O   0  0  0  0  0  0  0  0  0  0  0  0
    4.9720    0.2290   22.1170 C   0  0  0  0  0  0  0  0  0  0  0  0
    5.3350    0.3460   20.6770 C   0  0  0  0  0  0  0  0  0  0  0  0
    6.3890   -0.3170   20.1840 C   0  0  0  0  0  0  0  0  0  0  0  0
    6.7650   -0.2090   18.7500 C   0  0  0  0  0  0  0  0  0  0  0  0
    6.1040    0.5400   17.8560 N   0  0  0  0  0  0  0  0  0  0  0  0
    5.0280    1.2230   18.3440 C   0  0  0  0  0  0  0  0  0  0  0  0
    4.5720    1.1600   19.8130 C   0  0  0  0  0  0  0  0  0  0  0  0
    3.4480    1.8720   20.2870 C   0  0  0  0  0  0  0  0  0  0  0  0
    2.2590    1.2120   20.6050 N   0  0  0  0  0  0  0  0  0  0  0  0
    1.3670    2.0910   21.0190 C   0  0  0  0  0  0  0  0  0  0  0  0
    1.9560    3.4300   21.0000 N   0  0  0  0  0  0  0  0  0  0  0  0
    3.3160    3.2430   20.5180 C   0  0  0  0  0  0  0  0  0  0  0  0
    4.0590    4.4120   20.4250 C   0  0  0  0  0  0  0  0  0  0  0  0
    4.4820    4.9610   21.6390 C   0  0  0  0  0  0  0  0  0  0  0  0
    5.8080    5.7250   21.5430 C   0  0  0  0  0  0  0  0  0  0  0  0
    6.3650    6.3350   22.6680 C   0  0  0  0  0  0  0  0  0  0  0  0
    7.9090    7.1930   22.4260 Cl  0  0  0  0  0  0  0  0  0  0  0  0
    5.7150    6.2640   23.9340 C   0  0  0  0  0  0  0  0  0  0  0  0
    4.5440    5.5650   23.9250 C   0  0  0  0  0  0  0  0  0  0  0  0
    3.9340    4.9490   22.9030 N   0  0  0  0  0  0  0  0  0  0  0  0
  1  2  1  0
  2  3  1  0
  3  4  2  0
  4  5  1  0
  5  6  2  0
  6  7  1  0
  3  8  1  0
  7  8  2  0
  8  9  1  0
  9 10  1  0
 10 11  2  0
 11 12  1  0
  9 13  2  0
 12 13  1  0
 13 14  1  0
 14 15  1  0
 15 16  2  0
 16 17  1  0
 17 18  1  0
 17 19  2  0
 19 20  1  0
 15 21  1  0
 20 21  2  0
M  END
