MUS-SCH-c2f96c06-10
     RDKit          3D

 21 23  0  0  0  0  0  0  0  0999 V2000
    3.7540   -0.1140   22.3630 O   0  0  0  0  0  0  0  0  0  0  0  0
    4.9500    0.1190   22.1130 C   0  0  0  0  0  0  0  0  0  0  0  0
    5.2590    0.2470   20.6510 C   0  0  0  0  0  0  0  0  0  0  0  0
    5.8710   -0.7480   19.9960 C   0  0  0  0  0  0  0  0  0  0  0  0
    6.1930   -0.6420   18.5460 C   0  0  0  0  0  0  0  0  0  0  0  0
    5.9030    0.4230   17.7840 N   0  0  0  0  0  0  0  0  0  0  0  0
    5.2780    1.4410   18.4270 C   0  0  0  0  0  0  0  0  0  0  0  0
    4.9160    1.4150   19.9230 C   0  0  0  0  0  0  0  0  0  0  0  0
    4.2890    2.5060   20.5510 C   0  0  0  0  0  0  0  0  0  0  0  0
    4.8120    3.0090   21.7460 N   0  0  0  0  0  0  0  0  0  0  0  0
    4.0700    4.0210   22.1460 C   0  0  0  0  0  0  0  0  0  0  0  0
    2.9770    4.2400   21.1960 N   0  0  0  0  0  0  0  0  0  0  0  0
    3.1540    3.2280   20.1680 C   0  0  0  0  0  0  0  0  0  0  0  0
    2.2080    3.2620   19.1510 C   0  0  0  0  0  0  0  0  0  0  0  0
    0.8740    3.3280   19.5740 C   0  0  0  0  0  0  0  0  0  0  0  0
    0.3470    2.5230   20.5600 N   0  0  0  0  0  0  0  0  0  0  0  0
   -1.0010    2.6990   20.8670 C   0  0  0  0  0  0  0  0  0  0  0  0
   -1.8840    3.5920   20.3010 C   0  0  0  0  0  0  0  0  0  0  0  0
   -1.3000    4.4040   19.2930 C   0  0  0  0  0  0  0  0  0  0  0  0
    0.0340    4.2670   18.9490 C   0  0  0  0  0  0  0  0  0  0  0  0
    0.5920    5.3180   17.7020 Cl  0  0  0  0  0  0  0  0  0  0  0  0
  1  2  1  0
  2  3  1  0
  3  4  2  0
  4  5  1  0
  5  6  2  0
  6  7  1  0
  3  8  1  0
  7  8  2  0
  8  9  1  0
  9 10  1  0
 10 11  2  0
 11 12  1  0
  9 13  2  0
 12 13  1  0
 13 14  1  0
 14 15  1  0
 15 16  2  0
 16 17  1  0
 17 18  2  0
 18 19  1  0
 15 20  1  0
 19 20  2  0
 20 21  1  0
M  END
