MUS-SCH-c2f96c06-8
     RDKit          3D

 21 23  0  0  0  0  0  0  0  0999 V2000
    5.6200   -0.6340   22.6000 O   0  0  0  0  0  0  0  0  0  0  0  0
    5.4340    0.4370   22.0110 C   0  0  0  0  0  0  0  0  0  0  0  0
    5.5220    0.4940   20.6220 C   0  0  0  0  0  0  0  0  0  0  0  0
    6.2020   -0.5270   19.9560 C   0  0  0  0  0  0  0  0  0  0  0  0
    6.3420   -0.5340   18.5700 C   0  0  0  0  0  0  0  0  0  0  0  0
    5.8630    0.4030   17.7330 N   0  0  0  0  0  0  0  0  0  0  0  0
    5.1190    1.5230   18.3400 C   0  0  0  0  0  0  0  0  0  0  0  0
    4.9660    1.5350   19.8730 C   0  0  0  0  0  0  0  0  0  0  0  0
    4.1910    2.7510   20.4490 C   0  0  0  0  0  0  0  0  0  0  0  0
    4.8780    3.8860   20.7990 N   0  0  0  0  0  0  0  0  0  0  0  0
    3.8300    4.7950   21.2890 C   0  0  0  0  0  0  0  0  0  0  0  0
    2.6240    4.1750   21.2140 N   0  0  0  0  0  0  0  0  0  0  0  0
    2.8090    2.8960   20.6940 C   0  0  0  0  0  0  0  0  0  0  0  0
    1.7300    2.0430   20.5170 C   0  0  0  0  0  0  0  0  0  0  0  0
    0.5350    2.7410   20.2900 C   0  0  0  0  0  0  0  0  0  0  0  0
    0.5320    4.0650   19.8020 N   0  0  0  0  0  0  0  0  0  0  0  0
   -0.7710    4.5040   19.6790 C   0  0  0  0  0  0  0  0  0  0  0  0
   -1.5190    3.4780   20.0800 N   0  0  0  0  0  0  0  0  0  0  0  0
   -0.8170    2.3690   20.4640 C   0  0  0  0  0  0  0  0  0  0  0  0
   -1.4090    1.1930   20.9040 C   0  0  0  0  0  0  0  0  0  0  0  0
   -2.3660    1.5880   22.3480 Cl  0  0  0  0  0  0  0  0  0  0  0  0
  1  2  1  0
  2  3  1  0
  3  4  2  0
  4  5  1  0
  5  6  2  0
  6  7  1  0
  3  8  1  0
  7  8  2  0
  8  9  1  0
  9 10  1  0
 10 11  2  0
 11 12  1  0
  9 13  2  0
 12 13  1  0
 13 14  1  0
 14 15  1  0
 15 16  1  0
 16 17  1  0
 17 18  2  0
 15 19  2  0
 18 19  1  0
 19 20  1  0
 20 21  1  0
M  END
