MUS-SCH-c2f96c06-9
     RDKit          3D

 22 24  0  0  0  0  0  0  0  0999 V2000
    0.9250    5.5860   20.4600 N   0  0  0  0  0  0  0  0  0  0  0  0
    0.2720    5.5210   19.3480 C   0  0  0  0  0  0  0  0  0  0  0  0
   -1.0850    6.0780   19.2320 C   0  0  0  0  0  0  0  0  0  0  0  0
   -1.7590    6.8260   20.6910 Cl  0  0  0  0  0  0  0  0  0  0  0  0
   -1.7820    6.0130   18.0400 C   0  0  0  0  0  0  0  0  0  0  0  0
   -1.2800    5.4400   16.8850 C   0  0  0  0  0  0  0  0  0  0  0  0
    0.0790    4.8500   16.8950 N   0  0  0  0  0  0  0  0  0  0  0  0
    0.8070    4.9200   18.1780 C   0  0  0  0  0  0  0  0  0  0  0  0
    2.2020    4.3080   18.1630 C   0  0  0  0  0  0  0  0  0  0  0  0
    2.3550    3.2410   19.2810 C   0  0  0  0  0  0  0  0  0  0  0  0
    1.2790    3.3210   20.1410 N   0  0  0  0  0  0  0  0  0  0  0  0
    1.5440    2.3790   21.0280 C   0  0  0  0  0  0  0  0  0  0  0  0
    2.6380    1.6780   20.8970 N   0  0  0  0  0  0  0  0  0  0  0  0
    3.2120    2.1780   19.7750 C   0  0  0  0  0  0  0  0  0  0  0  0
    4.4040    1.5450   19.4280 C   0  0  0  0  0  0  0  0  0  0  0  0
    4.9350    1.4630   18.1150 C   0  0  0  0  0  0  0  0  0  0  0  0
    6.1620    0.7560   17.7260 N   0  0  0  0  0  0  0  0  0  0  0  0
    6.8460    0.1370   18.7450 C   0  0  0  0  0  0  0  0  0  0  0  0
    6.3810    0.2110   20.0210 C   0  0  0  0  0  0  0  0  0  0  0  0
    5.2180    0.8760   20.4040 C   0  0  0  0  0  0  0  0  0  0  0  0
    4.9570    0.8120   21.7540 C   0  0  0  0  0  0  0  0  0  0  0  0
    6.1150    1.3580   22.3820 O   0  0  0  0  0  0  0  0  0  0  0  0
  1  2  1  0
  2  3  2  0
  3  4  1  0
  3  5  1  0
  5  6  2  0
  6  7  1  0
  2  8  1  0
  7  8  2  0
  8  9  1  0
  9 10  1  0
 10 11  1  0
 11 12  1  0
 12 13  2  0
 10 14  2  0
 13 14  1  0
 14 15  1  0
 15 16  2  0
 16 17  1  0
 17 18  2  0
 18 19  1  0
 15 20  1  0
 19 20  2  0
 20 21  1  0
 21 22  1  0
M  END
