MUS-SCH-c2f96c06-2
     RDKit          3D

 25 27  0  0  0  0  0  0  0  0999 V2000
    1.7630   -0.1800   24.8150 O   0  0  0  0  0  0  0  0  0  0  0  0
    2.7270   -0.3590   25.5610 C   0  0  0  0  0  0  0  0  0  0  0  0
    2.5740   -0.8630   26.8140 O   0  0  0  0  0  0  0  0  0  0  0  0
    4.1210   -0.0340   25.1610 C   0  0  0  0  0  0  0  0  0  0  0  0
    5.2840   -0.0940   26.0800 C   0  0  0  0  0  0  0  0  0  0  0  0
    6.4650    0.2570   25.4720 N   0  0  0  0  0  0  0  0  0  0  0  0
    6.2050    0.5620   24.1680 C   0  0  0  0  0  0  0  0  0  0  0  0
    7.4970    1.0350   23.1700 Cl  0  0  0  0  0  0  0  0  0  0  0  0
    4.6880    0.3900   23.9060 C   0  0  0  0  0  0  0  0  0  0  0  0
    4.1000    0.6260   22.6800 C   0  0  0  0  0  0  0  0  0  0  0  0
    4.8080    0.3380   21.5120 C   0  0  0  0  0  0  0  0  0  0  0  0
    5.2350    0.5450   20.4150 C   0  0  0  0  0  0  0  0  0  0  0  0
    6.1040    0.4550   19.3310 C   0  0  0  0  0  0  0  0  0  0  0  0
    5.8950    1.1470   18.1400 C   0  0  0  0  0  0  0  0  0  0  0  0
    4.8680    1.9600   17.8730 N   0  0  0  0  0  0  0  0  0  0  0  0
    3.9660    2.1000   18.8670 C   0  0  0  0  0  0  0  0  0  0  0  0
    2.7730    2.9330   18.7890 C   0  0  0  0  0  0  0  0  0  0  0  0
    1.8270    2.7400   20.0020 C   0  0  0  0  0  0  0  0  0  0  0  0
    0.6330    3.3580   20.2440 N   0  0  0  0  0  0  0  0  0  0  0  0
    0.2080    4.2470   19.3340 C   0  0  0  0  0  0  0  0  0  0  0  0
    0.9400    4.6140   18.0680 C   0  0  0  0  0  0  0  0  0  0  0  0
    2.2700    3.9130   17.8100 C   0  0  0  0  0  0  0  0  0  0  0  0
    2.8380    4.4400   16.4490 C   0  0  0  0  0  0  0  0  0  0  0  0
    2.0160    4.1880   15.2830 O   0  0  0  0  0  0  0  0  0  0  0  0
    4.1680    1.4150   20.0650 C   0  0  0  0  0  0  0  0  0  0  0  0
  1  2  2  0
  2  3  1  0
  2  4  1  0
  4  5  2  0
  5  6  1  0
  6  7  1  0
  7  8  1  0
  4  9  1  0
  7  9  2  0
  9 10  1  0
 10 11  1  0
 11 12  1  0
 12 13  2  0
 13 14  1  0
 14 15  2  0
 15 16  1  0
 16 17  1  0
 17 18  2  0
 18 19  1  0
 19 20  2  0
 20 21  1  0
 17 22  1  0
 21 22  2  0
 22 23  1  0
 23 24  1  0
 12 25  1  0
 16 25  2  0
M  END
