MUS-SCH-c2f96c06-13
     RDKit          3D

 19 21  0  0  0  0  0  0  0  0999 V2000
    4.1980   -0.6560   22.4510 O   0  0  0  0  0  0  0  0  0  0  0  0
    4.9100    0.2690   22.0600 C   0  0  0  0  0  0  0  0  0  0  0  0
    5.2390    0.4070   20.5930 C   0  0  0  0  0  0  0  0  0  0  0  0
    6.2570   -0.4080   20.0950 C   0  0  0  0  0  0  0  0  0  0  0  0
    6.6220   -0.3360   18.7570 C   0  0  0  0  0  0  0  0  0  0  0  0
    6.0410    0.4920   17.8760 N   0  0  0  0  0  0  0  0  0  0  0  0
    5.0500    1.2820   18.3710 C   0  0  0  0  0  0  0  0  0  0  0  0
    4.6010    1.2910   19.7090 C   0  0  0  0  0  0  0  0  0  0  0  0
    3.4680    2.2120   20.2170 C   0  0  0  0  0  0  0  0  0  0  0  0
    2.1370    1.8000   20.1400 N   0  0  0  0  0  0  0  0  0  0  0  0
    1.3340    2.8650   20.6880 C   0  0  0  0  0  0  0  0  0  0  0  0
    2.1970    3.8270   21.0550 N   0  0  0  0  0  0  0  0  0  0  0  0
    3.5160    3.4940   20.7970 C   0  0  0  0  0  0  0  0  0  0  0  0
    4.6460    4.4510   21.1390 C   0  0  0  0  0  0  0  0  0  0  0  0
    5.1590    4.2980   22.5770 C   0  0  0  0  0  0  0  0  0  0  0  0
    4.4590    4.6850   23.7320 C   0  0  0  0  0  0  0  0  0  0  0  0
    5.2310    4.3930   24.7860 N   0  0  0  0  0  0  0  0  0  0  0  0
    6.3870    3.8410   24.3820 C   0  0  0  0  0  0  0  0  0  0  0  0
    6.3710    3.7720   23.0120 N   0  0  0  0  0  0  0  0  0  0  0  0
  1  2  1  0
  2  3  1  0
  3  4  2  0
  4  5  1  0
  5  6  2  0
  6  7  1  0
  3  8  1  0
  7  8  2  0
  8  9  1  0
  9 10  1  0
 10 11  2  0
 11 12  1  0
  9 13  2  0
 12 13  1  0
 13 14  1  0
 14 15  1  0
 15 16  2  0
 16 17  1  0
 17 18  2  0
 15 19  1  0
 18 19  1  0
M  END
