NAT-WAB-78d8bb1c-1
     RDKit          3D

 27 29  0  0  0  0  0  0  0  0999 V2000
    5.9200   -2.8780   20.2210 C   0  0  0  0  0  0  0  0  0  0  0  0
    6.1530   -4.3140   20.5300 C   0  0  0  0  0  0  0  0  0  0  0  0
    5.4350   -5.1240   19.9710 O   0  0  0  0  0  0  0  0  0  0  0  0
    7.1230   -4.7240   21.3340 N   0  0  0  0  0  0  0  0  0  0  0  0
    6.8620   -5.4860   22.5240 C   0  0  0  0  0  0  0  0  0  0  0  0
    5.8210   -4.7750   23.2950 C   0  0  0  0  0  0  0  0  0  0  0  0
    4.5290   -5.2690   23.4120 C   0  0  0  0  0  0  0  0  0  0  0  0
    3.4660   -4.5520   24.1730 C   0  0  0  0  0  0  0  0  0  0  0  0
    3.6510   -3.4090   24.7860 C   0  0  0  0  0  0  0  0  0  0  0  0
    5.0230   -2.8190   24.7050 C   0  0  0  0  0  0  0  0  0  0  0  0
    6.1190   -3.5430   23.9370 C   0  0  0  0  0  0  0  0  0  0  0  0
    7.4600   -2.8070   23.9700 C   0  0  0  0  0  0  0  0  0  0  0  0
    7.9680   -2.3420   22.6380 C   0  0  0  0  0  0  0  0  0  0  0  0
    9.3530   -2.4830   22.5290 C   0  0  0  0  0  0  0  0  0  0  0  0
   10.1050   -1.4340   23.0410 C   0  0  0  0  0  0  0  0  0  0  0  0
   11.0780   -1.5980   23.7790 O   0  0  0  0  0  0  0  0  0  0  0  0
    9.4870   -0.2480   22.5290 N   0  0  0  0  0  0  0  0  0  0  0  0
   10.3000    0.8560   22.5920 C   0  0  0  0  0  0  0  0  0  0  0  0
   11.6740    0.7550   22.8310 C   0  0  0  0  0  0  0  0  0  0  0  0
   12.6450    1.7040   22.9300 N   0  0  0  0  0  0  0  0  0  0  0  0
   12.2270    3.0970   22.7660 C   0  0  0  0  0  0  0  0  0  0  0  0
   10.7500    3.3390   22.4980 C   0  0  0  0  0  0  0  0  0  0  0  0
    9.7870    2.1500   22.4120 C   0  0  0  0  0  0  0  0  0  0  0  0
    8.3390    2.5410   22.1280 C   0  0  0  0  0  0  0  0  0  0  0  0
    2.5310   -2.9640   25.4010 O   0  0  0  0  0  0  0  0  0  0  0  0
    1.6650   -4.1250   25.2370 C   0  0  0  0  0  0  0  0  0  0  0  0
    2.1630   -5.0930   24.2740 O   0  0  0  0  0  0  0  0  0  0  0  0
  1  2  1  0
  2  3  2  0
  2  4  1  0
  4  5  1  0
  5  6  1  0
  6  7  2  0
  7  8  1  0
  8  9  2  0
  9 10  1  0
  6 11  1  0
 10 11  2  0
 11 12  1  0
 12 13  1  0
 13 14  1  0
 14 15  1  0
 15 16  2  0
 15 17  1  0
 17 18  1  0
 18 19  2  0
 19 20  1  0
 20 21  2  0
 21 22  1  0
 18 23  1  0
 22 23  2  0
 23 24  1  0
  9 25  1  0
 25 26  1  0
  8 27  1  0
 26 27  1  0
M  END
