NAU-LAT-81109c57-4
     RDKit          3D

 21 23  0  0  0  0  0  0  0  0999 V2000
    7.3880    6.3390   25.3640 C   0  0  0  0  0  0  0  0  0  0  0  0
    7.9080    7.0650   24.2170 N   0  0  0  0  0  0  0  0  0  0  0  0
    6.9150    7.8350   23.4290 C   0  0  0  0  0  0  0  0  0  0  0  0
    6.9640    7.4310   22.0090 C   0  0  0  0  0  0  0  0  0  0  0  0
    8.1480    6.5540   21.9800 C   0  0  0  0  0  0  0  0  0  0  0  0
    8.6000    6.1740   23.2530 C   0  0  1  0  0  0  0  0  0  0  0  0
   10.0990    6.1500   23.6060 C   0  0  0  0  0  0  0  0  0  0  0  0
   10.4690    6.5300   24.7110 O   0  0  0  0  0  0  0  0  0  0  0  0
   11.0600    5.6660   22.6480 N   0  0  0  0  0  0  0  0  0  0  0  0
   12.2300    5.0690   23.1440 C   0  0  0  0  0  0  0  0  0  0  0  0
   12.5090    3.6380   22.7420 C   0  0  0  0  0  0  0  0  0  0  0  0
   11.7140    2.5840   23.2430 C   0  0  0  0  0  0  0  0  0  0  0  0
   10.5200    2.8200   23.9390 C   0  0  0  0  0  0  0  0  0  0  0  0
    9.9690    1.6090   24.2760 N   0  0  0  0  0  0  0  0  0  0  0  0
   10.7770    0.6230   23.8140 C   0  0  0  0  0  0  0  0  0  0  0  0
   10.5730   -0.8480   23.9340 C   0  0  0  0  0  0  0  0  0  0  0  0
   11.5130   -1.6950   23.3840 C   0  0  0  0  0  0  0  0  0  0  0  0
   12.6370   -1.1960   22.7410 C   0  0  0  0  0  0  0  0  0  0  0  0
   13.5140   -2.0370   22.2180 F   0  0  0  0  0  0  0  0  0  0  0  0
   12.8740    0.3020   22.6230 C   0  0  0  0  0  0  0  0  0  0  0  0
   11.8920    1.1550   23.1700 C   0  0  0  0  0  0  0  0  0  0  0  0
  1  2  1  0
  2  3  1  0
  3  4  1  0
  4  5  1  0
  2  6  1  0
  5  6  1  0
  6  7  1  6
  7  8  2  0
  7  9  1  0
  9 10  1  0
 10 11  1  0
 11 12  1  0
 12 13  2  0
 13 14  1  0
 14 15  1  0
 15 16  1  0
 16 17  2  0
 17 18  1  0
 18 19  1  0
 18 20  2  0
 12 21  1  0
 15 21  2  0
 20 21  1  0
M  END
