NAU-LAT-ec9c7557-7
     RDKit          3D

 31 36  0  0  0  0  0  0  0  0999 V2000
    7.8130   -1.0430   18.4810 O   0  0  0  0  0  0  0  0  0  0  0  0
    7.2590   -0.3890   19.3200 C   0  0  0  0  0  0  0  0  0  0  0  0
    7.2610    1.0440   19.5200 N   0  0  0  0  0  0  0  0  0  0  0  0
    7.8860    1.3270   20.8600 C   0  0  0  0  0  0  0  0  0  0  0  0
    7.0110    2.0500   21.8680 C   0  0  0  0  0  0  0  0  0  0  0  0
    5.9110    2.9580   21.4970 C   0  0  0  0  0  0  0  0  0  0  0  0
    5.3950    3.3800   22.6970 N   0  0  0  0  0  0  0  0  0  0  0  0
    4.2660    4.3050   22.8800 C   0  0  0  0  0  0  0  0  0  0  0  0
    3.1310    3.8760   21.9330 C   0  0  0  0  0  0  0  0  0  0  0  0
    2.9150    4.7410   20.6960 C   0  0  0  0  0  0  0  0  0  0  0  0
    1.7930    4.3010   19.7750 C   0  0  0  0  0  0  0  0  0  0  0  0
    0.9990    3.1680   20.0450 C   0  0  0  0  0  0  0  0  0  0  0  0
    1.2060    2.3850   21.1850 C   0  0  0  0  0  0  0  0  0  0  0  0
    2.2230    2.7140   22.0920 C   0  0  0  0  0  0  0  0  0  0  0  0
    6.0340    2.8590   23.7730 N   0  0  0  0  0  0  0  0  0  0  0  0
    7.0370    2.0330   23.2700 N   0  0  0  0  0  0  0  0  0  0  0  0
    5.8600    1.2840   19.5980 C   0  0  0  0  0  0  0  0  0  0  0  0
    4.9570    2.2900   19.2550 C   0  0  0  0  0  0  0  0  0  0  0  0
    3.5660    2.4830   19.3890 C   0  0  0  0  0  0  0  0  0  0  0  0
    3.2600    1.1500   20.0990 C   0  0  0  0  0  0  0  0  0  0  0  0
    4.2010    0.1620   20.4120 C   0  0  0  0  0  0  0  0  0  0  0  0
    5.4350    0.2000   20.1780 C   0  0  0  0  0  0  0  0  0  0  0  0
    6.3270   -0.8200   20.4830 C   0  0  0  0  0  0  0  0  0  0  0  0
    7.0210   -0.8680   21.6740 O   0  0  0  0  0  0  0  0  0  0  0  0
    6.9300   -2.1890   22.0150 C   0  0  0  0  0  0  0  0  0  0  0  0
    7.5810   -2.8270   23.0800 C   0  0  0  0  0  0  0  0  0  0  0  0
    7.2950   -4.3070   23.2240 C   0  0  0  0  0  0  0  0  0  0  0  0
    6.4350   -4.9540   22.3380 C   0  0  0  0  0  0  0  0  0  0  0  0
    5.8290   -4.2370   21.3060 C   0  0  0  0  0  0  0  0  0  0  0  0
    6.0950   -2.8690   21.1690 C   0  0  0  0  0  0  0  0  0  0  0  0
    5.5940   -2.0470   20.2130 O   0  0  0  0  0  0  0  0  0  0  0  0
  1  2  2  0
  2  3  1  0
  3  4  1  0
  4  5  1  0
  5  6  2  0
  6  7  1  0
  7  8  1  0
  8  9  1  0
  9 10  2  0
 10 11  1  0
 11 12  2  0
 12 13  1  0
  9 14  1  0
 13 14  2  0
  7 15  1  0
  5 16  1  0
 15 16  2  0
  3 17  1  0
 17 18  2  0
 18 19  1  0
 19 20  2  0
 20 21  1  0
 17 22  1  0
 21 22  2  0
  2 23  1  0
 22 23  1  0
 23 24  1  0
 24 25  1  0
 25 26  1  0
 26 27  2  0
 27 28  1  0
 28 29  2  0
 25 30  2  0
 29 30  1  0
 23 31  1  0
 30 31  1  0
M  END
