NAU-LAT-c9bfe74c-3
     RDKit          3D

 30 33  0  0  0  0  0  0  0  0999 V2000
    6.5340   -0.9500   26.4090 N   0  0  0  0  0  0  0  0  0  0  0  0
    6.1600   -1.7460   25.3140 C   0  0  0  0  0  0  0  0  0  0  0  0
    4.6660   -1.9080   24.9860 C   0  0  0  0  0  0  0  0  0  0  0  0
    4.3920   -2.7980   23.7790 C   0  0  0  0  0  0  0  0  0  0  0  0
    5.4920   -3.4690   22.9630 C   0  0  0  0  0  0  0  0  0  0  0  0
    5.1200   -4.2560   21.8920 O   0  0  0  0  0  0  0  0  0  0  0  0
    6.9160   -3.2010   23.4250 C   0  0  0  0  0  0  0  0  0  0  0  0
    8.0230   -3.7470   22.7900 C   0  0  0  0  0  0  0  0  0  0  0  0
    7.9190   -4.8720   22.2860 O   0  0  0  0  0  0  0  0  0  0  0  0
    9.1510   -2.9240   22.8090 N   0  0  0  0  0  0  0  0  0  0  0  0
    9.9150   -3.0200   23.9200 C   0  0  0  0  0  0  0  0  0  0  0  0
   11.3380   -2.8150   24.0960 C   0  0  0  0  0  0  0  0  0  0  0  0
   12.0660   -2.5900   22.7940 N   0  0  0  0  0  0  0  0  0  0  0  0
   13.1170   -1.3130   22.8970 S   0  0  0  0  0  0  0  0  0  0  0  0
   13.7280   -1.4040   24.1880 O   0  0  0  0  0  0  0  0  0  0  0  0
   13.7510   -1.1800   21.6140 O   0  0  0  0  0  0  0  0  0  0  0  0
   11.7220   -0.3090   22.9640 C   0  0  0  0  0  0  0  0  0  0  0  0
   10.5970   -1.2700   23.0310 C   0  0  0  0  0  0  0  0  0  0  0  0
    9.2180   -0.7150   23.1060 C   0  0  0  0  0  0  0  0  0  0  0  0
    9.1110    0.6660   23.1100 C   0  0  0  0  0  0  0  0  0  0  0  0
    7.8470    1.2090   23.1860 O   0  0  0  0  0  0  0  0  0  0  0  0
   10.1820    1.5380   23.0480 C   0  0  0  0  0  0  0  0  0  0  0  0
    9.7920    2.8180   23.0820 N   0  0  0  0  0  0  0  0  0  0  0  0
   10.7090    3.7850   23.0310 C   0  0  0  0  0  0  0  0  0  0  0  0
   12.1860    3.4700   22.9400 C   0  0  0  0  0  0  0  0  0  0  0  0
   12.5660    2.1540   22.9100 C   0  0  0  0  0  0  0  0  0  0  0  0
   11.5350    1.0810   22.9670 C   0  0  0  0  0  0  0  0  0  0  0  0
   11.1960   -2.1650   21.6430 C   0  0  0  0  0  0  0  0  0  0  0  0
    9.8070   -2.4410   21.6030 C   0  0  0  0  0  0  0  0  0  0  0  0
    7.1540   -2.3740   24.5470 C   0  0  0  0  0  0  0  0  0  0  0  0
  1  2  1  0
  2  3  2  0
  3  4  1  0
  4  5  2  0
  5  6  1  0
  5  7  1  0
  7  8  1  0
  8  9  2  0
  8 10  1  0
 10 11  1  0
 11 12  1  0
 12 13  1  0
 13 14  1  0
 14 15  2  0
 14 16  2  0
 14 17  1  0
 17 18  2  0
 18 19  1  0
 19 20  2  0
 20 21  1  0
 20 22  1  0
 22 23  1  0
 23 24  2  0
 24 25  1  0
 25 26  2  0
 17 27  1  0
 22 27  2  0
 26 27  1  0
 13 28  1  0
 10 29  1  0
 28 29  1  0
  2 30  1  0
  7 30  2  0
M  END
