NAU-LAT-81109c57-8
     RDKit          3D

 18 19  0  0  0  0  0  0  0  0999 V2000
    6.7400    7.1020   23.5020 N   0  0  0  0  0  0  0  0  0  0  0  0
    7.9960    7.3400   23.5770 C   0  0  0  0  0  0  0  0  0  0  0  0
    8.9380    6.5000   22.6700 C   0  0  0  0  0  0  0  0  0  0  0  0
   10.2720    6.1280   23.3300 C   0  0  0  0  0  0  0  0  0  0  0  0
   10.4100    6.2570   24.5610 O   0  0  0  0  0  0  0  0  0  0  0  0
   11.3200    5.6600   22.6100 N   0  0  0  0  0  0  0  0  0  0  0  0
   12.2490    4.9220   23.2600 C   0  0  0  0  0  0  0  0  0  0  0  0
   12.5270    3.6480   22.7430 C   0  0  0  0  0  0  0  0  0  0  0  0
   11.7440    2.5900   23.2210 C   0  0  0  0  0  0  0  0  0  0  0  0
   10.5680    2.7670   23.9120 C   0  0  0  0  0  0  0  0  0  0  0  0
    9.9840    1.6230   24.2600 N   0  0  0  0  0  0  0  0  0  0  0  0
   10.7600    0.6110   23.8050 C   0  0  0  0  0  0  0  0  0  0  0  0
   10.5540   -0.8820   23.9170 C   0  0  0  0  0  0  0  0  0  0  0  0
   11.5320   -1.6840   23.3310 C   0  0  0  0  0  0  0  0  0  0  0  0
   12.6350   -1.1220   22.6940 C   0  0  0  0  0  0  0  0  0  0  0  0
   13.5360   -1.9230   22.1480 F   0  0  0  0  0  0  0  0  0  0  0  0
   12.8060    0.2610   22.6210 C   0  0  0  0  0  0  0  0  0  0  0  0
   11.8830    1.1540   23.1520 C   0  0  0  0  0  0  0  0  0  0  0  0
  1  2  1  0
  2  3  1  0
  3  4  1  0
  4  5  2  0
  4  6  1  0
  6  7  1  0
  7  8  1  0
  8  9  1  0
  9 10  2  0
 10 11  1  0
 11 12  1  0
 12 13  1  0
 13 14  2  0
 14 15  1  0
 15 16  1  0
 15 17  2  0
  9 18  1  0
 12 18  2  0
 17 18  1  0
M  END
