NAU-LAT-ec9c7557-5
     RDKit          3D

 23 26  0  0  0  0  0  0  0  0999 V2000
    7.8140   -1.4530   18.3890 O   0  0  0  0  0  0  0  0  0  0  0  0
    7.2450   -0.5210   18.8700 C   0  0  0  0  0  0  0  0  0  0  0  0
    6.7530    0.6100   18.1100 N   0  0  0  0  0  0  0  0  0  0  0  0
    5.6720    1.1040   18.9220 C   0  0  0  0  0  0  0  0  0  0  0  0
    4.5990    2.0590   18.5410 C   0  0  0  0  0  0  0  0  0  0  0  0
    3.4520    2.5600   19.4650 C   0  0  0  0  0  0  0  0  0  0  0  0
    3.7390    1.8680   20.7030 C   0  0  0  0  0  0  0  0  0  0  0  0
    4.8260    0.8910   21.1220 C   0  0  0  0  0  0  0  0  0  0  0  0
    5.8150    0.5320   20.1190 C   0  0  0  0  0  0  0  0  0  0  0  0
    6.9310   -0.4150   20.3890 C   0  0  1  0  0  0  0  0  0  0  0  0
    6.6350   -1.6230   21.0420 C   0  0  0  0  0  0  0  0  0  0  0  0
    7.1790   -1.8590   22.3190 C   0  0  0  0  0  0  0  0  0  0  0  0
    6.9270   -3.0470   23.0090 C   0  0  0  0  0  0  0  0  0  0  0  0
    6.0660   -4.0780   22.3650 C   0  0  0  0  0  0  0  0  0  0  0  0
    5.5430   -3.8110   21.1020 C   0  0  0  0  0  0  0  0  0  0  0  0
    5.8150   -2.6010   20.4530 C   0  0  0  0  0  0  0  0  0  0  0  0
    8.0050    0.3980   21.1720 C   0  0  0  0  0  0  0  0  0  0  0  0
    7.8140    1.7690   21.3920 C   0  0  0  0  0  0  0  0  0  0  0  0
    8.7540    2.5250   22.0950 C   0  0  0  0  0  0  0  0  0  0  0  0
    9.9050    1.9240   22.5940 C   0  0  0  0  0  0  0  0  0  0  0  0
   10.1220    0.5620   22.3880 C   0  0  0  0  0  0  0  0  0  0  0  0
    9.1820   -0.1940   21.6830 C   0  0  0  0  0  0  0  0  0  0  0  0
    9.4090   -1.3960   21.5170 O   0  0  0  0  0  0  0  0  0  0  0  0
  1  2  2  0
  2  3  1  0
  3  4  1  0
  4  5  2  0
  5  6  1  0
  6  7  2  0
  7  8  1  0
  4  9  1  0
  8  9  2  0
  2 10  1  0
  9 10  1  0
 10 11  1  1
 11 12  2  0
 12 13  1  0
 13 14  2  0
 14 15  1  0
 11 16  1  0
 15 16  2  0
 10 17  1  0
 17 18  2  0
 18 19  1  0
 19 20  2  0
 20 21  1  0
 17 22  1  0
 21 22  2  0
 22 23  1  0
M  END
