NAU-LAT-f723e322-3
     RDKit          3D

 23 24  0  0  0  0  0  0  0  0999 V2000
    8.6200    4.7780   25.3000 C   0  0  0  0  0  0  0  0  0  0  0  0
    9.9670    4.8760   24.6890 C   0  0  0  0  0  0  0  0  0  0  0  0
   10.7260    5.9980   24.7030 C   0  0  0  0  0  0  0  0  0  0  0  0
   12.0920    5.8960   24.0240 C   0  0  0  0  0  0  0  0  0  0  0  0
   12.5340    4.6630   23.4090 C   0  0  0  0  0  0  0  0  0  0  0  0
   11.6930    3.5490   23.4330 C   0  0  0  0  0  0  0  0  0  0  0  0
   12.1790    2.2890   22.8040 N   0  0  0  0  0  0  0  0  0  0  0  0
   11.4090    1.1420   22.9320 C   0  0  0  0  0  0  0  0  0  0  0  0
    9.7860    1.4060   22.9690 C   0  0  0  0  0  0  0  0  0  0  0  0
    9.8890    2.7940   22.7950 C   0  0  0  0  0  0  0  0  0  0  0  0
   11.0570    2.2540   22.7770 C   0  0  0  0  0  0  0  0  0  0  0  0
   12.2360    3.0740   22.5630 C   0  0  0  0  0  0  0  0  0  0  0  0
   13.3210    2.5890   22.8610 O   0  0  0  0  0  0  0  0  0  0  0  0
   12.0450    4.4250   21.9200 C   0  0  0  0  0  0  0  0  0  0  0  0
   13.4880    5.4440   22.0080 Cl  0  0  0  0  0  0  0  0  0  0  0  0
   10.6630    0.7440   23.0010 C   0  0  0  0  0  0  0  0  0  0  0  0
   11.6490   -0.1720   23.0520 C   0  0  0  0  0  0  0  0  0  0  0  0
   13.0010   -0.4060   23.0070 N   0  0  0  0  0  0  0  0  0  0  0  0
   12.9450   -2.1040   22.8830 S   0  0  0  0  0  0  0  0  0  0  0  0
   13.0790   -2.2490   21.1220 C   0  0  0  0  0  0  0  0  0  0  0  0
   11.5970   -2.4810   23.2380 O   0  0  0  0  0  0  0  0  0  0  0  0
   14.0580   -2.7200   23.5300 O   0  0  0  0  0  0  0  0  0  0  0  0
   10.4300    3.6940   24.0740 C   0  0  0  0  0  0  0  0  0  0  0  0
  1  2  1  0
  2  3  2  0
  3  4  1  0
  4  5  2  0
  5  6  1  0
  6  7  1  0
  7  8  1  0
  8  9  2  0
  9 10  1  0
 10 11  2  0
 11 12  1  0
 12 13  2  0
 12 14  1  0
 14 15  1  0
 11 16  1  0
  8 17  1  0
 16 17  2  0
 17 18  1  0
 19 18  1  0
 19 20  1  0
 19 21  2  0
 19 22  2  0
  2 23  1  0
  6 23  2  0
M  END
