NAU-LAT-ec9c7557-4
     RDKit          3D

 28 31  0  0  0  0  0  0  0  0999 V2000
    8.2880   -0.0460   20.6320 O   0  0  0  0  0  0  0  0  0  0  0  0
    7.6130    0.5150   19.7790 C   0  0  0  0  0  0  0  0  0  0  0  0
    7.7670    0.4860   18.2050 C   0  0  0  0  0  0  0  0  0  0  0  0
    8.4170   -0.5860   17.6800 O   0  0  0  0  0  0  0  0  0  0  0  0
    7.1920    1.5180   17.6110 N   0  0  0  0  0  0  0  0  0  0  0  0
    7.4410    1.8440   16.1280 C   0  0  0  0  0  0  0  0  0  0  0  0
    7.6040    0.7320   15.3710 C   0  0  0  0  0  0  0  0  0  0  0  0
    8.4830    0.4780   14.3740 N   0  0  0  0  0  0  0  0  0  0  0  0
    9.7190    0.2920   14.6630 N   0  0  0  0  0  0  0  0  0  0  0  0
   10.1570    0.0930   13.4750 N   0  0  0  0  0  0  0  0  0  0  0  0
    9.2460    0.1340   12.4370 N   0  0  0  0  0  0  0  0  0  0  0  0
    8.0650    0.3800   12.9000 C   0  0  0  0  0  0  0  0  0  0  0  0
    6.6080    0.5270   11.7720 S   0  0  0  0  0  0  0  0  0  0  0  0
    5.7780    1.5330   12.2760 O   0  0  0  0  0  0  0  0  0  0  0  0
    7.2360    0.8200   10.5270 O   0  0  0  0  0  0  0  0  0  0  0  0
    5.3150   -0.6460   11.1810 C   0  0  0  0  0  0  0  0  0  0  0  0
    4.5350   -1.9530   11.7970 C   0  0  0  0  0  0  0  0  0  0  0  0
    3.5910   -1.6620   11.6500 C   0  0  0  0  0  0  0  0  0  0  0  0
    2.4950   -2.2390   12.0010 C   0  0  0  0  0  0  0  0  0  0  0  0
    2.5570   -3.3700   12.5310 C   0  0  0  0  0  0  0  0  0  0  0  0
    3.5930   -3.8690   12.7130 C   0  0  0  0  0  0  0  0  0  0  0  0
    4.6790   -3.1920   12.4070 C   0  0  0  0  0  0  0  0  0  0  0  0
    6.2120    1.9390   18.6370 C   0  0  0  0  0  0  0  0  0  0  0  0
    4.9770    2.8470   18.5940 C   0  0  0  0  0  0  0  0  0  0  0  0
    4.4090    2.8450   19.8380 C   0  0  0  0  0  0  0  0  0  0  0  0
    4.4020    2.3810   21.2840 C   0  0  0  0  0  0  0  0  0  0  0  0
    5.7000    1.5000   21.1590 C   0  0  0  0  0  0  0  0  0  0  0  0
    6.4590    1.3400   19.9580 C   0  0  0  0  0  0  0  0  0  0  0  0
  1  2  2  0
  2  3  1  0
  3  4  2  0
  3  5  1  0
  5  6  1  0
  6  7  1  0
  7  8  1  0
  8  9  1  0
  9 10  2  0
 10 11  1  0
  8 12  1  0
 11 12  2  0
 12 13  1  0
 13 14  2  0
 13 15  2  0
 13 16  1  0
 16 17  1  0
 17 18  2  0
 18 19  1  0
 19 20  2  0
 20 21  1  0
 17 22  1  0
 21 22  2  0
  5 23  1  0
 23 24  2  0
 24 25  1  0
 25 26  2  0
 26 27  1  0
  2 28  1  0
 23 28  1  0
 27 28  2  0
M  END
