NAU-LAT-81109c57-2
     RDKit          3D

 20 22  0  0  0  0  0  0  0  0999 V2000
   10.7350    6.3680   24.8320 O   0  0  0  0  0  0  0  0  0  0  0  0
   10.2520    6.0490   23.7540 C   0  0  0  0  0  0  0  0  0  0  0  0
   10.9790    5.3610   22.7980 N   0  0  0  0  0  0  0  0  0  0  0  0
   12.3380    4.9240   23.0970 C   0  0  0  0  0  0  0  0  0  0  0  0
   12.5770    3.5950   22.7100 C   0  0  0  0  0  0  0  0  0  0  0  0
   11.7230    2.6010   23.2410 C   0  0  0  0  0  0  0  0  0  0  0  0
   10.5590    2.8980   23.9420 C   0  0  0  0  0  0  0  0  0  0  0  0
    9.9840    1.7170   24.2840 N   0  0  0  0  0  0  0  0  0  0  0  0
   10.7100    0.6450   23.8440 C   0  0  0  0  0  0  0  0  0  0  0  0
   10.3990   -0.8200   24.0110 C   0  0  0  0  0  0  0  0  0  0  0  0
   11.4180   -1.7400   23.3850 C   0  0  0  0  0  0  0  0  0  0  0  0
   12.6370   -1.2090   22.6730 C   0  0  0  0  0  0  0  0  0  0  0  0
   13.5200   -2.0240   22.1250 F   0  0  0  0  0  0  0  0  0  0  0  0
   12.8100    0.3190   22.6100 C   0  0  0  0  0  0  0  0  0  0  0  0
   11.8370    1.1550   23.1820 C   0  0  0  0  0  0  0  0  0  0  0  0
    8.7830    6.4110   23.4270 C   0  0  2  0  0  0  0  0  0  0  0  0
    8.0240    5.3600   23.0070 C   0  0  0  0  0  0  0  0  0  0  0  0
    7.0750    5.7820   22.0360 C   0  0  0  0  0  0  0  0  0  0  0  0
    7.4540    7.0210   21.5370 C   0  0  0  0  0  0  0  0  0  0  0  0
    8.6660    7.3790   22.3180 N   0  0  0  0  0  0  0  0  0  0  0  0
  1  2  2  0
  2  3  1  0
  3  4  1  0
  4  5  1  0
  5  6  1  0
  6  7  2  0
  7  8  1  0
  8  9  1  0
  9 10  1  0
 10 11  2  0
 11 12  1  0
 12 13  1  0
 12 14  2  0
  6 15  1  0
  9 15  2  0
 14 15  1  0
 16  2  1  6
 16 17  1  0
 17 18  1  0
 18 19  1  0
 16 20  1  0
 19 20  1  0
M  END
