NEL-UNI-1464a899-2
     RDKit          3D

 17 17  0  0  0  0  0  0  0  0999 V2000
    9.3130    1.7640   23.3080 C   0  0  0  0  0  0  0  0  0  0  0  0
   10.2990    0.8210   23.0130 C   0  0  0  0  0  0  0  0  0  0  0  0
   11.6780    1.1690   22.8790 C   0  0  0  0  0  0  0  0  0  0  0  0
   12.6260    0.0910   22.5300 C   0  0  0  0  0  0  0  0  0  0  0  0
   12.0700   -1.2870   22.3380 C   0  0  0  0  0  0  0  0  0  0  0  0
   13.0110   -2.2310   21.9620 C   0  0  0  0  0  0  0  0  0  0  0  0
   12.4730   -3.0530   20.9610 C   0  0  0  0  0  0  0  0  0  0  0  0
   13.2200   -3.9720   20.1930 C   0  0  0  0  0  0  0  0  0  0  0  0
   13.7140   -5.1620   20.6500 N   0  0  0  0  0  0  0  0  0  0  0  0
   15.0740   -5.6310   20.6380 C   0  0  0  0  0  0  0  0  0  0  0  0
   15.5260   -6.6630   19.8420 O   0  0  0  0  0  0  0  0  0  0  0  0
   16.1550   -4.9830   21.5410 C   0  0  0  0  0  0  0  0  0  0  0  0
   17.5110   -5.1060   21.8250 C   0  0  0  0  0  0  0  0  0  0  0  0
   18.1230   -5.3370   20.8560 O   0  0  0  0  0  0  0  0  0  0  0  0
   18.3330   -4.1240   22.2700 O   0  0  0  0  0  0  0  0  0  0  0  0
   10.7100   -1.5790   22.5030 C   0  0  0  0  0  0  0  0  0  0  0  0
    9.8930   -0.5060   22.8350 C   0  0  0  0  0  0  0  0  0  0  0  0
  1  2  1  0
  2  3  2  0
  3  4  1  0
  4  5  2  0
  5  6  1  0
  6  7  1  0
  7  8  1  0
  8  9  1  0
  9 10  1  0
 10 11  2  0
 10 12  1  0
 12 13  1  0
 13 14  1  0
 13 15  1  0
  5 16  1  0
  2 17  1  0
 16 17  2  0
M  END
