NEL-UNI-1464a899-1
     RDKit          3D

 18 18  0  0  0  0  0  0  0  0999 V2000
    5.6760    1.4030   26.2970 O   0  0  0  0  0  0  0  0  0  0  0  0
    5.3170    1.1670   25.1490 C   0  0  0  0  0  0  0  0  0  0  0  0
    3.8860    0.6790   24.8110 C   0  0  0  0  0  0  0  0  0  0  0  0
    2.8320    0.9940   25.8910 C   0  0  0  0  0  0  0  0  0  0  0  0
    2.4340   -0.0340   26.6990 O   0  0  0  0  0  0  0  0  0  0  0  0
    1.6480    1.4580   25.2500 O   0  0  0  0  0  0  0  0  0  0  0  0
    6.0860    1.2960   24.0000 N   0  0  0  0  0  0  0  0  0  0  0  0
    7.4510    1.3070   24.0890 C   0  0  0  0  0  0  0  0  0  0  0  0
    8.1640    0.5980   25.0440 C   0  0  0  0  0  0  0  0  0  0  0  0
    9.5030    0.8950   25.1470 C   0  0  0  0  0  0  0  0  0  0  0  0
   10.3700    0.2470   24.2960 C   0  0  0  0  0  0  0  0  0  0  0  0
   11.5650    0.8570   23.8520 C   0  0  0  0  0  0  0  0  0  0  0  0
   12.5960    0.2590   22.9280 C   0  0  0  0  0  0  0  0  0  0  0  0
   12.3140   -1.0300   22.4770 C   0  0  0  0  0  0  0  0  0  0  0  0
   13.1590   -1.6950   21.6340 C   0  0  0  0  0  0  0  0  0  0  0  0
   12.3690   -2.2890   20.6300 O   0  0  0  0  0  0  0  0  0  0  0  0
   11.1600   -1.6900   22.8680 C   0  0  0  0  0  0  0  0  0  0  0  0
   10.2930   -1.0400   23.7200 C   0  0  0  0  0  0  0  0  0  0  0  0
  1  2  2  0
  2  3  1  0
  3  4  1  0
  4  5  1  0
  4  6  1  0
  2  7  1  0
  7  8  1  0
  8  9  1  0
  9 10  1  0
 10 11  1  0
 11 12  2  0
 12 13  1  0
 13 14  2  0
 14 15  1  0
 15 16  1  0
 14 17  1  0
 11 18  1  0
 17 18  2  0
M  END
