NEL-UNI-1464a899-7
     RDKit          3D

 17 17  0  0  0  0  0  0  0  0999 V2000
    8.0680   -1.3110   24.4100 C   0  0  0  0  0  0  0  0  0  0  0  0
    9.4810   -1.5310   23.8360 C   0  0  0  0  0  0  0  0  0  0  0  0
   10.6620   -1.3400   24.7390 C   0  0  0  0  0  0  0  0  0  0  0  0
   11.8990   -1.4960   24.2770 C   0  0  0  0  0  0  0  0  0  0  0  0
   12.1420   -1.8400   23.0170 C   0  0  0  0  0  0  0  0  0  0  0  0
   13.3900   -1.9230   22.7230 C   0  0  0  0  0  0  0  0  0  0  0  0
   13.5120   -0.9050   21.8730 C   0  0  0  0  0  0  0  0  0  0  0  0
   13.6380   -1.2950   20.5770 C   0  0  0  0  0  0  0  0  0  0  0  0
   14.2230   -0.3170   19.6440 N   0  0  0  0  0  0  0  0  0  0  0  0
   14.5660    1.0210   19.9760 C   0  0  0  0  0  0  0  0  0  0  0  0
   14.3700    1.4650   21.1060 O   0  0  0  0  0  0  0  0  0  0  0  0
   15.0750    1.8720   19.0520 C   0  0  0  0  0  0  0  0  0  0  0  0
   14.5900    3.0940   19.3900 C   0  0  1  0  0  0  0  0  0  0  0  0
   15.5390    3.9780   19.2590 C   0  0  0  0  0  0  0  0  0  0  0  0
   13.5860    3.4780   18.4650 O   0  0  0  0  0  0  0  0  0  0  0  0
   11.0390   -2.0550   22.1260 C   0  0  0  0  0  0  0  0  0  0  0  0
    9.7340   -1.8940   22.5470 C   0  0  0  0  0  0  0  0  0  0  0  0
  1  2  1  0
  2  3  2  0
  3  4  1  0
  4  5  2  0
  5  6  1  0
  6  7  1  0
  7  8  1  0
  8  9  1  0
  9 10  1  0
 10 11  2  0
 10 12  1  0
 12 13  1  0
 13 14  1  6
 13 15  1  0
  5 16  1  0
  2 17  1  0
 16 17  2  0
M  END
