NIC-BIO-25446079-4
     RDKit          3D

 20 22  0  0  0  0  0  0  0  0999 V2000
   13.3650   -2.5190   25.0580 C   0  0  0  0  0  0  0  0  0  0  0  0
   13.4760   -1.5470   23.9960 N   0  0  0  0  0  0  0  0  0  0  0  0
   12.5030   -1.2970   23.0940 C   0  0  0  0  0  0  0  0  0  0  0  0
   11.2700   -1.9700   23.5390 C   0  0  0  0  0  0  0  0  0  0  0  0
   10.0200   -1.6540   22.6970 C   0  0  0  0  0  0  0  0  0  0  0  0
    9.8610   -0.2880   22.3610 N   0  0  0  0  0  0  0  0  0  0  0  0
    8.8450    0.2080   21.5350 C   0  0  0  0  0  0  0  0  0  0  0  0
    8.7650    1.4010   21.1790 O   0  0  0  0  0  0  0  0  0  0  0  0
    7.9040   -0.6980   21.0750 C   0  0  0  0  0  0  0  0  0  0  0  0
    7.0580   -0.2120   20.1210 C   0  0  0  0  0  0  0  0  0  0  0  0
    7.2720   -0.4630   18.6870 C   0  0  0  0  0  0  0  0  0  0  0  0
    6.3410    0.1270   17.9420 N   0  0  0  0  0  0  0  0  0  0  0  0
    5.5070    0.7500   18.8000 C   0  0  0  0  0  0  0  0  0  0  0  0
    4.3640    1.5050   18.3650 N   0  0  0  0  0  0  0  0  0  0  0  0
    3.5820    2.0940   19.4570 C   0  0  0  0  0  0  0  0  0  0  0  0
    3.9880    1.8950   20.7830 C   0  0  0  0  0  0  0  0  0  0  0  0
    5.1160    1.1530   21.1150 C   0  0  0  0  0  0  0  0  0  0  0  0
    5.8950    0.5680   20.1350 C   0  0  0  0  0  0  0  0  0  0  0  0
   10.7010    0.5220   23.0290 C   0  0  0  0  0  0  0  0  0  0  0  0
   12.1610    0.1970   23.0540 C   0  0  0  0  0  0  0  0  0  0  0  0
  1  2  1  0
  2  3  1  0
  3  4  1  0
  4  5  1  0
  5  6  1  0
  6  7  1  0
  7  8  2  0
  7  9  1  0
  9 10  1  0
 10 11  2  0
 11 12  1  0
 12 13  1  0
 13 14  1  0
 14 15  2  0
 15 16  1  0
 16 17  2  0
 10 18  1  0
 13 18  2  0
 17 18  1  0
  6 19  1  0
  3 20  1  0
 19 20  1  0
M  END
