NIC-BIO-7d400292-4
     RDKit          3D

 25 26  0  0  0  0  0  0  0  0999 V2000
    7.5820    4.9990   22.3320 C   0  0  0  0  0  0  0  0  0  0  0  0
    7.0700    3.6900   22.9490 C   0  0  0  0  0  0  0  0  0  0  0  0
    6.0990    3.6280   23.6940 O   0  0  0  0  0  0  0  0  0  0  0  0
    7.8570    2.5470   22.5630 N   0  0  0  0  0  0  0  0  0  0  0  0
    7.5860    1.2130   22.9640 C   0  0  1  0  0  0  0  0  0  0  0  0
    6.2950    0.8620   22.5600 C   0  0  0  0  0  0  0  0  0  0  0  0
    6.1100    0.8110   21.1940 C   0  0  0  0  0  0  0  0  0  0  0  0
    5.3840    1.7960   20.5320 C   0  0  0  0  0  0  0  0  0  0  0  0
    5.2100    1.7410   19.1660 C   0  0  0  0  0  0  0  0  0  0  0  0
    5.7520    0.7090   18.4450 C   0  0  0  0  0  0  0  0  0  0  0  0
    5.5580    0.6850   17.0680 O   0  0  0  0  0  0  0  0  0  0  0  0
    6.4790   -0.3020   19.0420 C   0  0  0  0  0  0  0  0  0  0  0  0
    6.9970   -1.3050   18.3500 F   0  0  0  0  0  0  0  0  0  0  0  0
    6.6570   -0.2440   20.4220 C   0  0  0  0  0  0  0  0  0  0  0  0
    8.7300    0.5140   22.4680 C   0  0  0  0  0  0  0  0  0  0  0  0
    9.9560    1.1970   22.1760 O   0  0  0  0  0  0  0  0  0  0  0  0
    8.5610   -0.7760   22.3020 N   0  0  0  0  0  0  0  0  0  0  0  0
    9.7760   -1.2620   21.9060 C   0  0  0  0  0  0  0  0  0  0  0  0
   10.9200   -1.4260   22.8860 C   0  0  0  0  0  0  0  0  0  0  0  0
   12.2380   -1.5200   22.1400 C   0  0  0  0  0  0  0  0  0  0  0  0
   13.1700   -2.4410   22.8690 C   0  0  0  0  0  0  0  0  0  0  0  0
   12.8160   -2.5800   24.2790 N   0  0  0  0  0  0  0  0  0  0  0  0
   13.1190   -1.2770   24.7210 C   0  0  0  0  0  0  0  0  0  0  0  0
   11.5010   -2.9100   24.6150 C   0  0  0  0  0  0  0  0  0  0  0  0
   10.6470   -2.5650   23.6110 C   0  0  0  0  0  0  0  0  0  0  0  0
  1  2  1  0
  2  3  2  0
  2  4  1  0
  4  5  1  0
  5  6  1  6
  6  7  1  0
  7  8  2  0
  8  9  1  0
  9 10  2  0
 10 11  1  0
 10 12  1  0
 12 13  1  0
  7 14  1  0
 12 14  2  0
  5 15  1  0
 15 16  2  0
 15 17  1  0
 17 18  1  0
 18 19  1  0
 19 20  1  0
 20 21  1  0
 21 22  1  0
 22 23  1  0
 22 24  1  0
 19 25  1  0
 24 25  1  0
M  END
