NIC-BIO-2722da07-2
     RDKit          3D

 29 32  0  0  0  0  0  0  0  0999 V2000
   13.2720   -1.5770   24.2020 C   0  0  0  0  0  0  0  0  0  0  0  0
   12.0480   -1.2480   23.6900 N   0  0  0  0  0  0  0  0  0  0  0  0
   11.2370   -2.1120   22.9540 C   0  0  0  0  0  0  0  0  0  0  0  0
    9.9560   -1.6460   22.6720 C   0  0  0  0  0  0  0  0  0  0  0  0
    9.9750   -0.2620   22.1650 N   0  0  0  0  0  0  0  0  0  0  0  0
    8.8920    0.3910   21.6140 C   0  0  0  0  0  0  0  0  0  0  0  0
    9.0090    1.5520   21.1750 O   0  0  0  0  0  0  0  0  0  0  0  0
    7.6660   -0.2070   21.5610 C   0  0  2  0  0  0  0  0  0  0  0  0
    7.5560   -1.6620   21.9040 C   0  0  0  0  0  0  0  0  0  0  0  0
    6.1480   -1.9460   21.8270 O   0  0  0  0  0  0  0  0  0  0  0  0
    5.6890   -2.6700   22.8530 C   0  0  0  0  0  0  0  0  0  0  0  0
    4.8880   -2.3460   23.9940 O   0  0  0  0  0  0  0  0  0  0  0  0
    6.0890   -3.9860   22.7780 C   0  0  0  0  0  0  0  0  0  0  0  0
    5.5700   -4.8140   21.7880 C   0  0  0  0  0  0  0  0  0  0  0  0
    5.9430   -6.1340   21.6830 C   0  0  0  0  0  0  0  0  0  0  0  0
    6.8590   -6.7080   22.5520 C   0  0  0  0  0  0  0  0  0  0  0  0
    7.4220   -5.9250   23.5630 C   0  0  0  0  0  0  0  0  0  0  0  0
    7.0130   -4.4860   23.6840 C   0  0  0  0  0  0  0  0  0  0  0  0
    6.9830   -0.0030   20.2190 C   0  0  0  0  0  0  0  0  0  0  0  0
    7.2980   -0.4200   18.9190 C   0  0  0  0  0  0  0  0  0  0  0  0
    6.3620    0.0670   18.0690 N   0  0  0  0  0  0  0  0  0  0  0  0
    5.4370    0.7750   18.7820 C   0  0  0  0  0  0  0  0  0  0  0  0
    4.3790    1.3900   18.2740 N   0  0  0  0  0  0  0  0  0  0  0  0
    3.5700    2.0570   19.3250 C   0  0  0  0  0  0  0  0  0  0  0  0
    3.8770    2.0470   20.6670 C   0  0  0  0  0  0  0  0  0  0  0  0
    5.0140    1.3760   21.0640 C   0  0  0  0  0  0  0  0  0  0  0  0
    5.8010    0.7360   20.1190 C   0  0  0  0  0  0  0  0  0  0  0  0
   10.8270    0.6260   22.9130 C   0  0  0  0  0  0  0  0  0  0  0  0
   12.1020    0.0780   23.0570 C   0  0  0  0  0  0  0  0  0  0  0  0
  1  2  1  0
  2  3  1  0
  3  4  1  0
  4  5  1  0
  5  6  1  0
  6  7  2  0
  6  8  1  0
  8  9  1  6
  9 10  1  0
 10 11  1  0
 11 12  2  0
 11 13  1  0
 13 14  2  0
 14 15  1  0
 15 16  2  0
 16 17  1  0
 13 18  1  0
 17 18  2  0
  8 19  1  0
 19 20  2  0
 20 21  1  0
 21 22  1  0
 22 23  1  0
 23 24  2  0
 24 25  1  0
 25 26  2  0
 19 27  1  0
 22 27  2  0
 26 27  1  0
  5 28  1  0
  2 29  1  0
 28 29  1  0
M  END
