NIC-BIO-96ee2ca4-1
     RDKit          3D

 24 26  0  0  0  0  0  0  0  0999 V2000
    7.1890   -5.1960   23.1480 C   0  0  0  0  0  0  0  0  0  0  0  0
    7.5900   -3.9560   23.6730 C   0  0  0  0  0  0  0  0  0  0  0  0
    6.8960   -3.2910   24.4330 O   0  0  0  0  0  0  0  0  0  0  0  0
    8.7090   -3.6470   23.2680 O   0  0  0  0  0  0  0  0  0  0  0  0
    9.2500   -2.3460   23.6240 C   0  0  0  0  0  0  0  0  0  0  0  0
    9.8300   -1.7360   22.4990 C   0  0  2  0  0  0  0  0  0  0  0  0
   11.1050   -2.0660   22.2870 C   0  0  0  0  0  0  0  0  0  0  0  0
   12.0870   -1.5750   23.2430 N   0  0  0  0  0  0  0  0  0  0  0  0
   13.4370   -1.5220   22.8010 C   0  0  0  0  0  0  0  0  0  0  0  0
   11.6310   -0.2930   23.7560 C   0  0  0  0  0  0  0  0  0  0  0  0
   10.8300    0.4200   22.8980 C   0  0  0  0  0  0  0  0  0  0  0  0
    9.7470   -0.2990   22.4360 N   0  0  0  0  0  0  0  0  0  0  0  0
    8.8380    0.1800   21.5590 C   0  0  0  0  0  0  0  0  0  0  0  0
    8.8820    1.3850   21.2400 O   0  0  0  0  0  0  0  0  0  0  0  0
    7.8800   -0.6890   21.0210 C   0  0  0  0  0  0  0  0  0  0  0  0
    7.0610   -0.2120   20.0260 C   0  0  0  0  0  0  0  0  0  0  0  0
    7.2710   -0.4580   18.6990 C   0  0  0  0  0  0  0  0  0  0  0  0
    6.3150    0.1520   17.9150 N   0  0  0  0  0  0  0  0  0  0  0  0
    5.4240    0.8290   18.8160 C   0  0  0  0  0  0  0  0  0  0  0  0
    4.3460    1.5500   18.4590 N   0  0  0  0  0  0  0  0  0  0  0  0
    3.6520    2.0850   19.4880 C   0  0  0  0  0  0  0  0  0  0  0  0
    4.0390    1.8990   20.8160 C   0  0  0  0  0  0  0  0  0  0  0  0
    5.1530    1.1590   21.1240 C   0  0  0  0  0  0  0  0  0  0  0  0
    5.8940    0.5890   20.1210 C   0  0  0  0  0  0  0  0  0  0  0  0
  1  2  1  0
  2  3  2  0
  2  4  1  0
  4  5  1  0
  6  5  1  1
  6  7  1  0
  7  8  1  0
  8  9  1  0
  8 10  1  0
 10 11  1  0
  6 12  1  0
 11 12  1  0
 12 13  1  0
 13 14  2  0
 13 15  1  0
 15 16  1  0
 16 17  2  0
 17 18  1  0
 18 19  1  0
 19 20  1  0
 20 21  2  0
 21 22  1  0
 22 23  2  0
 16 24  1  0
 19 24  2  0
 23 24  1  0
M  END
