NIC-BIO-ec630548-2
     RDKit          3D

 22 24  0  0  0  0  0  0  0  0999 V2000
   13.4480   -1.6580   23.5440 C   0  0  0  0  0  0  0  0  0  0  0  0
   12.1020   -1.2360   23.7540 N   0  0  0  0  0  0  0  0  0  0  0  0
   11.1360   -2.1050   23.0860 C   0  0  0  0  0  0  0  0  0  0  0  0
    9.7370   -1.5910   23.0470 C   0  0  0  0  0  0  0  0  0  0  0  0
    9.7140   -0.1670   22.7060 N   0  0  0  0  0  0  0  0  0  0  0  0
    8.9060    0.2180   21.6670 C   0  0  0  0  0  0  0  0  0  0  0  0
    8.9080    1.3830   21.2030 O   0  0  0  0  0  0  0  0  0  0  0  0
    8.0640   -0.7640   21.1510 C   0  0  0  0  0  0  0  0  0  0  0  0
    7.1240   -0.2530   20.0990 C   0  0  0  0  0  0  0  0  0  0  0  0
    7.3690   -0.5860   18.6520 C   0  0  0  0  0  0  0  0  0  0  0  0
    6.3150    0.0780   17.9540 N   0  0  0  0  0  0  0  0  0  0  0  0
    5.4450    0.7750   18.8910 C   0  0  0  0  0  0  0  0  0  0  0  0
    4.3180    1.5170   18.4770 N   0  0  0  0  0  0  0  0  0  0  0  0
    3.5380    2.1400   19.4020 C   0  0  0  0  0  0  0  0  0  0  0  0
    3.9090    2.0130   20.7500 C   0  0  0  0  0  0  0  0  0  0  0  0
    5.0260    1.2890   21.1770 C   0  0  0  0  0  0  0  0  0  0  0  0
    5.8900    0.5980   20.1850 C   0  0  0  0  0  0  0  0  0  0  0  0
   10.4360    0.5890   23.5600 C   0  0  1  0  0  0  0  0  0  0  0  0
   10.0960    0.1960   24.8540 C   0  0  0  0  0  0  0  0  0  0  0  0
   10.7610   -0.6990   25.3690 O   0  0  0  0  0  0  0  0  0  0  0  0
    9.0710    0.7950   25.5250 O   0  0  0  0  0  0  0  0  0  0  0  0
   11.9250    0.1920   23.4310 C   0  0  0  0  0  0  0  0  0  0  0  0
  1  2  1  0
  2  3  1  0
  3  4  1  0
  4  5  1  0
  5  6  1  0
  6  7  2  0
  6  8  1  0
  8  9  1  0
  9 10  2  0
 10 11  1  0
 11 12  1  0
 12 13  1  0
 13 14  2  0
 14 15  1  0
 15 16  2  0
  9 17  1  0
 12 17  2  0
 16 17  1  0
  5 18  1  0
 18 19  1  1
 19 20  2  0
 19 21  1  0
  2 22  1  0
 18 22  1  0
M  END
