NIC-BIO-b40446ce-2
     RDKit          3D

 29 31  0  0  0  0  0  0  0  0999 V2000
    7.5380    5.1320   22.3090 C   0  0  0  0  0  0  0  0  0  0  0  0
    7.1470    3.8550   23.0030 C   0  0  0  0  0  0  0  0  0  0  0  0
    6.2150    3.8030   23.7990 O   0  0  0  0  0  0  0  0  0  0  0  0
    7.9270    2.7760   22.6700 N   0  0  0  0  0  0  0  0  0  0  0  0
    7.7680    1.5140   23.3700 C   0  0  1  0  0  0  0  0  0  0  0  0
    6.4420    1.0640   23.3820 C   0  0  0  0  0  0  0  0  0  0  0  0
    6.1420    0.3800   22.1160 C   0  0  0  0  0  0  0  0  0  0  0  0
    6.2670   -1.0550   22.1200 C   0  0  0  0  0  0  0  0  0  0  0  0
    5.9330   -1.0820   20.8280 N   0  0  0  0  0  0  0  0  0  0  0  0
    5.6970    0.0530   20.2860 C   0  0  0  0  0  0  0  0  0  0  0  0
    5.3650    0.3490   18.9950 C   0  0  0  0  0  0  0  0  0  0  0  0
    5.0670    0.2870   17.6820 C   0  0  0  0  0  0  0  0  0  0  0  0
    5.0550    1.5500   18.2990 C   0  0  0  0  0  0  0  0  0  0  0  0
    5.3400    1.9470   19.6950 C   0  0  0  0  0  0  0  0  0  0  0  0
    5.2140    3.1540   19.8680 O   0  0  0  0  0  0  0  0  0  0  0  0
    3.8840    3.5400   20.0550 C   0  0  0  0  0  0  0  0  0  0  0  0
    3.0730    2.8440   19.1630 C   0  0  0  0  0  0  0  0  0  0  0  0
    3.3860    4.4720   20.9820 O   0  0  0  0  0  0  0  0  0  0  0  0
    5.7450    1.2270   20.9460 C   0  0  0  0  0  0  0  0  0  0  0  0
    8.7690    0.5550   22.6550 C   0  0  0  0  0  0  0  0  0  0  0  0
    9.6570    1.0230   21.7430 O   0  0  0  0  0  0  0  0  0  0  0  0
    8.7210   -0.8700   23.0570 N   0  0  0  0  0  0  0  0  0  0  0  0
    9.2020   -1.7710   21.9920 C   0  0  0  0  0  0  0  0  0  0  0  0
    8.0790   -2.3370   21.3870 C   0  0  0  0  0  0  0  0  0  0  0  0
    7.5020   -3.5060   21.9140 C   0  0  0  0  0  0  0  0  0  0  0  0
    6.3670   -4.0430   21.2760 C   0  0  0  0  0  0  0  0  0  0  0  0
    5.8070   -3.4460   20.1440 C   0  0  0  0  0  0  0  0  0  0  0  0
    6.3960   -2.2830   19.6330 C   0  0  0  0  0  0  0  0  0  0  0  0
    7.5230   -1.7280   20.2440 C   0  0  0  0  0  0  0  0  0  0  0  0
  1  2  1  0
  2  3  2  0
  2  4  1  0
  4  5  1  0
  5  6  1  6
  6  7  1  0
  7  8  2  0
  8  9  1  0
  9 10  1  0
 10 11  1  0
 11 12  2  0
 12 13  1  0
 13 14  2  0
 14 15  1  0
 15 16  1  0
 16 17  1  0
 16 18  2  0
  7 19  1  0
 10 19  2  0
 14 19  1  0
  5 20  1  0
 20 21  2  0
 20 22  1  0
 22 23  1  0
 23 24  1  0
 24 25  2  0
 25 26  1  0
 26 27  2  0
 27 28  1  0
 24 29  1  0
 28 29  2  0
M  END
