NIC-UNI-f08e2453-1
     RDKit          3D

 29 32  0  0  0  0  0  0  0  0999 V2000
   13.2620   -1.5310   23.9630 C   0  0  0  0  0  0  0  0  0  0  0  0
   12.0060   -1.1290   23.6140 N   0  0  0  0  0  0  0  0  0  0  0  0
   11.0570   -1.9430   22.9740 C   0  0  0  0  0  0  0  0  0  0  0  0
    9.6870   -1.4700   23.1110 C   0  0  0  0  0  0  0  0  0  0  0  0
    9.6990   -0.2090   22.5830 N   0  0  0  0  0  0  0  0  0  0  0  0
    8.8250    0.3650   21.5920 C   0  0  0  0  0  0  0  0  0  0  0  0
    8.8910    1.5390   21.1830 O   0  0  0  0  0  0  0  0  0  0  0  0
    7.8740   -0.5630   21.1240 C   0  0  0  0  0  0  0  0  0  0  0  0
    7.0820   -0.1920   20.0560 C   0  0  0  0  0  0  0  0  0  0  0  0
    7.3230   -0.5580   18.7490 C   0  0  0  0  0  0  0  0  0  0  0  0
    6.3760   -0.0000   17.9900 N   0  0  0  0  0  0  0  0  0  0  0  0
    5.4620    0.7580   18.8610 C   0  0  0  0  0  0  0  0  0  0  0  0
    4.4250    1.4270   18.4630 N   0  0  0  0  0  0  0  0  0  0  0  0
    3.7210    2.0470   19.4420 C   0  0  0  0  0  0  0  0  0  0  0  0
    3.9370    2.1000   20.9510 C   0  0  0  0  0  0  0  0  0  0  0  0
    3.6260    2.5000   22.3240 C   0  0  0  0  0  0  0  0  0  0  0  0
    3.6710    3.8460   22.6030 N   0  0  0  0  0  0  0  0  0  0  0  0
    2.4840    4.6820   22.4570 C   0  0  0  0  0  0  0  0  0  0  0  0
    1.3100    4.3410   22.3930 O   0  0  0  0  0  0  0  0  0  0  0  0
    2.7510    6.1880   22.3740 C   0  0  0  0  0  0  0  0  0  0  0  0
    2.4030    6.8360   21.0410 C   0  0  0  0  0  0  0  0  0  0  0  0
    2.6440    8.3380   20.8960 C   0  0  0  0  0  0  0  0  0  0  0  0
    3.2200    9.1060   22.0880 C   0  0  0  0  0  0  0  0  0  0  0  0
    3.5200    8.3190   23.3640 C   0  0  0  0  0  0  0  0  0  0  0  0
    3.2740    6.9190   23.4420 C   0  0  0  0  0  0  0  0  0  0  0  0
    5.1020    1.3300   21.2050 C   0  0  0  0  0  0  0  0  0  0  0  0
    5.9260    0.6170   20.1590 C   0  0  0  0  0  0  0  0  0  0  0  0
   10.5210    0.7850   23.2890 C   0  0  0  0  0  0  0  0  0  0  0  0
   11.9890    0.3100   23.3410 C   0  0  0  0  0  0  0  0  0  0  0  0
  1  2  1  0
  2  3  1  0
  3  4  1  0
  4  5  1  0
  5  6  1  0
  6  7  2  0
  6  8  1  0
  8  9  1  0
  9 10  2  0
 10 11  1  0
 11 12  1  0
 12 13  1  0
 13 14  2  0
 14 15  1  0
 15 16  1  0
 16 17  1  0
 17 18  1  0
 18 19  2  0
 18 20  1  0
 20 21  2  0
 21 22  1  0
 22 23  2  0
 23 24  1  0
 20 25  1  0
 24 25  2  0
 15 26  2  0
  9 27  1  0
 12 27  2  0
 26 27  1  0
  5 28  1  0
  2 29  1  0
 28 29  1  0
M  END
