NIC-BIO-5044b423-1
     RDKit          3D

 21 23  0  0  0  0  0  0  0  0999 V2000
   13.3800   -1.6940   23.8540 C   0  0  0  0  0  0  0  0  0  0  0  0
   12.0520   -1.1720   23.8580 N   0  0  0  0  0  0  0  0  0  0  0  0
   11.1540   -2.1800   23.3120 C   0  0  0  0  0  0  0  0  0  0  0  0
    9.8700   -1.7210   23.0610 C   0  0  0  0  0  0  0  0  0  0  0  0
    9.8670   -0.4620   22.3130 N   0  0  0  0  0  0  0  0  0  0  0  0
    8.7750   -0.0900   21.5890 C   0  0  0  0  0  0  0  0  0  0  0  0
    8.5650    1.0840   21.2460 O   0  0  0  0  0  0  0  0  0  0  0  0
    7.8630   -0.9630   21.1840 C   0  0  1  0  0  0  0  0  0  0  0  0
    6.9540   -1.5750   22.1670 C   0  0  0  0  0  0  0  0  0  0  0  0
    6.1350   -2.6330   21.8250 O   0  0  0  0  0  0  0  0  0  0  0  0
    7.0720   -0.3740   20.0650 C   0  0  0  0  0  0  0  0  0  0  0  0
    7.2260   -0.4740   18.7100 C   0  0  0  0  0  0  0  0  0  0  0  0
    6.3440    0.1910   17.9570 N   0  0  0  0  0  0  0  0  0  0  0  0
    5.4340    0.8490   18.7510 C   0  0  0  0  0  0  0  0  0  0  0  0
    4.4100    1.6080   18.3740 N   0  0  0  0  0  0  0  0  0  0  0  0
    3.7080    2.1020   19.4090 C   0  0  0  0  0  0  0  0  0  0  0  0
    3.9920    1.8700   20.7490 C   0  0  0  0  0  0  0  0  0  0  0  0
    5.0750    1.0740   21.0880 C   0  0  0  0  0  0  0  0  0  0  0  0
    5.9130    0.4750   20.1490 C   0  0  0  0  0  0  0  0  0  0  0  0
   10.6760    0.5770   22.8940 C   0  0  0  0  0  0  0  0  0  0  0  0
   11.9900    0.1110   23.1220 C   0  0  0  0  0  0  0  0  0  0  0  0
  1  2  1  0
  2  3  1  0
  3  4  1  0
  4  5  1  0
  5  6  1  0
  6  7  2  0
  6  8  1  0
  8  9  1  1
  9 10  1  0
  8 11  1  0
 11 12  2  0
 12 13  1  0
 13 14  1  0
 14 15  1  0
 15 16  2  0
 16 17  1  0
 17 18  2  0
 11 19  1  0
 14 19  2  0
 18 19  1  0
  5 20  1  0
  2 21  1  0
 20 21  1  0
M  END
