NIC-BIO-a68395b7-3
     RDKit          3D

 24 25  0  0  0  0  0  0  0  0999 V2000
    7.3070    4.9100   22.3080 C   0  0  0  0  0  0  0  0  0  0  0  0
    7.0320    3.7270   22.8940 C   0  0  0  0  0  0  0  0  0  0  0  0
    5.9080    3.7030   23.7870 O   0  0  0  0  0  0  0  0  0  0  0  0
    7.9100    2.6450   22.5430 N   0  0  0  0  0  0  0  0  0  0  0  0
    7.7160    1.3670   23.0170 C   0  0  1  0  0  0  0  0  0  0  0  0
    6.3840    0.6990   22.5870 C   0  0  0  0  0  0  0  0  0  0  0  0
    6.2150    0.6750   21.2310 C   0  0  0  0  0  0  0  0  0  0  0  0
    5.3270    1.6210   20.6790 C   0  0  0  0  0  0  0  0  0  0  0  0
    5.0660    1.7230   19.3110 C   0  0  0  0  0  0  0  0  0  0  0  0
    5.8040    0.7420   18.4270 C   0  0  0  0  0  0  0  0  0  0  0  0
    5.6020    0.7920   17.0520 O   0  0  0  0  0  0  0  0  0  0  0  0
    6.7510   -0.2840   18.9750 C   0  0  0  0  0  0  0  0  0  0  0  0
    6.9180   -0.2610   20.4520 C   0  0  0  0  0  0  0  0  0  0  0  0
    8.9810    0.5870   22.5920 C   0  0  0  0  0  0  0  0  0  0  0  0
   10.1320    1.2360   22.2850 O   0  0  0  0  0  0  0  0  0  0  0  0
    8.9020   -0.7490   22.5300 N   0  0  0  0  0  0  0  0  0  0  0  0
    9.8130   -1.4420   21.6200 C   0  0  0  0  0  0  0  0  0  0  0  0
   10.9330   -1.7950   22.3220 C   0  0  0  0  0  0  0  0  0  0  0  0
   10.9700   -1.6400   23.6090 C   0  0  0  0  0  0  0  0  0  0  0  0
   11.8020   -1.8410   24.7210 C   0  0  0  0  0  0  0  0  0  0  0  0
   12.9780   -2.3830   24.4220 C   0  0  0  0  0  0  0  0  0  0  0  0
   14.0400   -2.6900   25.7060 Cl  0  0  0  0  0  0  0  0  0  0  0  0
   13.2160   -2.6530   23.0530 C   0  0  0  0  0  0  0  0  0  0  0  0
   12.1500   -2.3450   21.9070 C   0  0  0  0  0  0  0  0  0  0  0  0
  1  2  1  0
  2  3  2  0
  2  4  1  0
  4  5  1  0
  5  6  1  6
  6  7  1  0
  7  8  2  0
  8  9  1  0
  9 10  2  0
 10 11  1  0
 10 12  1  0
  7 13  1  0
 12 13  2  0
  5 14  1  0
 14 15  2  0
 14 16  1  0
 16 17  1  0
 17 18  1  0
 18 19  2  0
 19 20  1  0
 20 21  2  0
 21 22  1  0
 21 23  1  0
 18 24  1  0
 23 24  2  0
M  END
