NIC-BIO-3276ca7f-6
     RDKit          3D

 26 28  0  0  0  0  0  0  0  0999 V2000
    7.4500    4.9330   22.3110 C   0  0  0  0  0  0  0  0  0  0  0  0
    7.1540    3.7300   22.8410 C   0  0  0  0  0  0  0  0  0  0  0  0
    6.0330    3.7030   23.7430 O   0  0  0  0  0  0  0  0  0  0  0  0
    7.9960    2.6270   22.4440 N   0  0  0  0  0  0  0  0  0  0  0  0
    7.6480    1.3440   22.8030 C   0  0  1  0  0  0  0  0  0  0  0  0
    6.2570    0.9090   22.2730 C   0  0  0  0  0  0  0  0  0  0  0  0
    6.1650    0.7170   20.9060 C   0  0  0  0  0  0  0  0  0  0  0  0
    5.3640    1.3970   19.6960 C   0  0  0  0  0  0  0  0  0  0  0  0
    5.8110    0.6390   18.6500 N   0  0  0  0  0  0  0  0  0  0  0  0
    6.1390    0.5020   19.7930 C   0  0  0  0  0  0  0  0  0  0  0  0
    6.9390   -0.4050   19.9740 N   0  0  0  0  0  0  0  0  0  0  0  0
    6.8700   -0.6240   18.6150 C   0  0  0  0  0  0  0  0  0  0  0  0
    5.7830    0.5710   18.2210 C   0  0  0  0  0  0  0  0  0  0  0  0
    5.0430    1.6530   19.1520 C   0  0  0  0  0  0  0  0  0  0  0  0
    5.3980    1.5240   20.4520 C   0  0  0  0  0  0  0  0  0  0  0  0
    8.7040    0.4550   22.5670 C   0  0  0  0  0  0  0  0  0  0  0  0
    9.8160    0.7920   22.1640 O   0  0  0  0  0  0  0  0  0  0  0  0
    8.3430   -0.8540   22.8490 N   0  0  0  0  0  0  0  0  0  0  0  0
    8.9620   -2.0200   22.3850 C   0  0  0  0  0  0  0  0  0  0  0  0
   10.2660   -2.2110   22.7390 C   0  0  0  0  0  0  0  0  0  0  0  0
   10.6460   -2.8060   24.0270 C   0  0  0  0  0  0  0  0  0  0  0  0
   11.9860   -2.9830   24.3910 C   0  0  0  0  0  0  0  0  0  0  0  0
   12.9690   -2.5960   23.5040 C   0  0  0  0  0  0  0  0  0  0  0  0
   12.5240   -1.9980   22.1780 C   0  0  0  0  0  0  0  0  0  0  0  0
   13.5780   -1.5020   20.9930 Cl  0  0  0  0  0  0  0  0  0  0  0  0
   11.2200   -1.8340   21.8750 C   0  0  0  0  0  0  0  0  0  0  0  0
  1  2  1  0
  2  3  2  0
  2  4  1  0
  4  5  1  0
  5  6  1  6
  6  7  1  0
  7  8  2  0
  8  9  1  0
  9 10  1  0
 10 11  1  0
 11 12  2  0
 12 13  1  0
 13 14  2  0
  7 15  1  0
 10 15  2  0
 14 15  1  0
  5 16  1  0
 16 17  2  0
 16 18  1  0
 18 19  1  0
 19 20  1  0
 20 21  2  0
 21 22  1  0
 22 23  2  0
 23 24  1  0
 24 25  1  0
 20 26  1  0
 24 26  2  0
M  END
