NIC-BIO-25446079-1
     RDKit          3D

 19 21  0  0  0  0  0  0  0  0999 V2000
    8.9230    1.2210   21.3540 O   0  0  0  0  0  0  0  0  0  0  0  0
    8.6130    0.0930   21.8050 C   0  0  0  0  0  0  0  0  0  0  0  0
    7.8820   -0.9800   21.0130 C   0  0  0  0  0  0  0  0  0  0  0  0
    7.1590   -0.4450   19.9640 C   0  0  0  0  0  0  0  0  0  0  0  0
    7.3030   -0.5450   18.6330 C   0  0  0  0  0  0  0  0  0  0  0  0
    6.3890    0.1390   17.9620 N   0  0  0  0  0  0  0  0  0  0  0  0
    5.5310    0.7590   18.8430 C   0  0  0  0  0  0  0  0  0  0  0  0
    4.5010    1.5220   18.4680 N   0  0  0  0  0  0  0  0  0  0  0  0
    3.7450    2.0580   19.4640 C   0  0  0  0  0  0  0  0  0  0  0  0
    4.0650    1.8040   20.8140 C   0  0  0  0  0  0  0  0  0  0  0  0
    5.1560    0.9990   21.1600 C   0  0  0  0  0  0  0  0  0  0  0  0
    5.9250    0.4530   20.1490 C   0  0  0  0  0  0  0  0  0  0  0  0
    8.8560   -0.3910   23.0640 N   0  0  0  0  0  0  0  0  0  0  0  0
   10.1790   -0.5260   23.6570 C   0  0  0  0  0  0  0  0  0  0  0  0
   10.9610   -1.4070   22.8990 C   0  0  0  0  0  0  0  0  0  0  0  0
   12.4580   -1.1630   22.9910 C   0  0  0  0  0  0  0  0  0  0  0  0
   12.7990    0.2310   22.7680 N   0  0  0  0  0  0  0  0  0  0  0  0
   12.0610    1.1500   23.5930 C   0  0  0  0  0  0  0  0  0  0  0  0
   10.6130    0.7830   23.6040 C   0  0  0  0  0  0  0  0  0  0  0  0
  1  2  2  0
  2  3  1  0
  3  4  1  0
  4  5  2  0
  5  6  1  0
  6  7  1  0
  7  8  1  0
  8  9  2  0
  9 10  1  0
 10 11  2  0
  4 12  1  0
  7 12  2  0
 11 12  1  0
  2 13  1  0
 13 14  1  0
 14 15  1  0
 15 16  1  0
 16 17  1  0
 17 18  1  0
 14 19  1  0
 18 19  1  0
M  END
