NIC-BIO-25446079-2
     RDKit          3D

 19 21  0  0  0  0  0  0  0  0999 V2000
   13.3920   -1.3380   23.7270 N   0  0  0  0  0  0  0  0  0  0  0  0
   12.3110   -1.0590   23.1280 C   0  0  0  0  0  0  0  0  0  0  0  0
   11.1200   -1.9910   23.4370 C   0  0  0  0  0  0  0  0  0  0  0  0
    9.8210   -1.4280   22.8930 C   0  0  0  0  0  0  0  0  0  0  0  0
    9.7260   -0.1070   22.6700 N   0  0  0  0  0  0  0  0  0  0  0  0
    8.8990    0.2560   21.6770 C   0  0  0  0  0  0  0  0  0  0  0  0
    8.8670    1.5340   21.1570 O   0  0  0  0  0  0  0  0  0  0  0  0
    8.0230   -0.7020   21.1360 C   0  0  0  0  0  0  0  0  0  0  0  0
    7.2150   -0.2840   20.0880 C   0  0  0  0  0  0  0  0  0  0  0  0
    7.3530   -0.5350   18.7360 C   0  0  0  0  0  0  0  0  0  0  0  0
    6.3690    0.0700   18.0350 N   0  0  0  0  0  0  0  0  0  0  0  0
    5.5330    0.7320   18.8890 C   0  0  0  0  0  0  0  0  0  0  0  0
    4.3840    1.4730   18.4320 N   0  0  0  0  0  0  0  0  0  0  0  0
    3.7310    2.0190   19.5100 C   0  0  0  0  0  0  0  0  0  0  0  0
    4.1270    1.8830   20.8580 C   0  0  0  0  0  0  0  0  0  0  0  0
    5.2610    1.1510   21.1980 C   0  0  0  0  0  0  0  0  0  0  0  0
    5.9670    0.5680   20.1740 C   0  0  0  0  0  0  0  0  0  0  0  0
   10.5870    0.6540   23.3960 C   0  0  0  0  0  0  0  0  0  0  0  0
   11.9770    0.4190   23.3840 C   0  0  0  0  0  0  0  0  0  0  0  0
  1  2  1  0
  2  3  1  0
  3  4  1  0
  4  5  1  0
  5  6  1  0
  6  7  2  0
  6  8  1  0
  8  9  1  0
  9 10  2  0
 10 11  1  0
 11 12  1  0
 12 13  1  0
 13 14  2  0
 14 15  1  0
 15 16  2  0
  9 17  1  0
 12 17  2  0
 16 17  1  0
  5 18  1  0
  2 19  1  0
 18 19  1  0
M  END
