NIC-BIO-3276ca7f-3
     RDKit          3D

 24 25  0  0  0  0  0  0  0  0999 V2000
    5.4190   -2.4700   19.3270 C   0  0  0  0  0  0  0  0  0  0  0  0
    6.3400   -1.6610   18.6230 O   0  0  0  0  0  0  0  0  0  0  0  0
    5.9340   -0.3620   18.9040 C   0  0  0  0  0  0  0  0  0  0  0  0
    5.3720    0.6130   17.9920 C   0  0  0  0  0  0  0  0  0  0  0  0
    4.9390    1.9790   18.4430 C   0  0  0  0  0  0  0  0  0  0  0  0
    5.1070    2.2520   19.7420 C   0  0  0  0  0  0  0  0  0  0  0  0
    5.6540    1.3420   20.6580 C   0  0  0  0  0  0  0  0  0  0  0  0
    5.7240    1.9560   22.1190 N   0  0  0  0  0  0  0  0  0  0  0  0
    5.3340    2.3240   20.9670 C   0  0  0  0  0  0  0  0  0  0  0  0
    5.9930    0.8700   21.3710 C   0  0  0  0  0  0  0  0  0  0  0  0
    6.4180    0.5920   22.8040 C   0  0  0  0  0  0  0  0  0  0  0  0
    7.7320    1.2740   23.1400 C   0  0  2  0  0  0  0  0  0  0  0  0
    8.0050    2.5530   22.6640 N   0  0  0  0  0  0  0  0  0  0  0  0
    7.2400    3.7150   22.9180 C   0  0  0  0  0  0  0  0  0  0  0  0
    7.5790    4.9480   22.3610 C   0  0  0  0  0  0  0  0  0  0  0  0
    6.2440    3.6460   23.6500 O   0  0  0  0  0  0  0  0  0  0  0  0
    8.9190    0.4190   22.6310 C   0  0  0  0  0  0  0  0  0  0  0  0
    9.9410    0.9900   21.9440 O   0  0  0  0  0  0  0  0  0  0  0  0
    8.8900   -0.9090   22.9130 N   0  0  0  0  0  0  0  0  0  0  0  0
    9.6530   -1.7460   22.1600 C   0  0  0  0  0  0  0  0  0  0  0  0
   11.1150   -1.4180   22.0260 C   0  0  0  0  0  0  0  0  0  0  0  0
   12.0410   -1.7700   23.0010 C   0  0  0  0  0  0  0  0  0  0  0  0
   13.2600   -2.2730   24.3630 Br  0  0  0  0  0  0  0  0  0  0  0  0
    6.0990    0.0410   20.3840 C   0  0  0  0  0  0  0  0  0  0  0  0
  1  2  1  0
  2  3  1  0
  3  4  2  0
  4  5  1  0
  5  6  2  0
  6  7  1  0
  7  8  1  0
  8  9  1  0
  9 10  2  0
 10 11  1  0
 12 11  1  6
 12 13  1  0
 13 14  1  0
 14 15  1  0
 14 16  2  0
 12 17  1  0
 17 18  2  0
 17 19  1  0
 19 20  1  0
 20 21  1  0
 21 22  3  0
 22 23  1  0
  3 24  1  0
  7 24  2  0
 10 24  1  0
M  END
