NIC-BIO-174c9b04-3
     RDKit          3D

 24 27  0  0  0  0  0  0  0  0999 V2000
   13.3010   -1.5880   23.9090 C   0  0  0  0  0  0  0  0  0  0  0  0
   12.0480   -1.1160   23.8660 N   0  0  0  0  0  0  0  0  0  0  0  0
   11.3250   -1.8800   23.0080 C   0  0  0  0  0  0  0  0  0  0  0  0
   10.0250   -1.3560   22.8530 C   0  0  0  0  0  0  0  0  0  0  0  0
   10.1260   -0.1510   22.3470 N   0  0  0  0  0  0  0  0  0  0  0  0
    8.9450    0.2140   21.7500 C   0  0  0  0  0  0  0  0  0  0  0  0
    8.8380    1.5060   21.1250 O   0  0  0  0  0  0  0  0  0  0  0  0
    7.6540   -0.5770   21.6720 C   0  0  0  0  0  0  0  0  0  0  0  0
    7.0120   -0.2250   20.4720 C   0  0  0  0  0  0  0  0  0  0  0  0
    7.3410   -0.5800   19.1870 C   0  0  0  0  0  0  0  0  0  0  0  0
    6.5130   -0.0410   18.2300 N   0  0  0  0  0  0  0  0  0  0  0  0
    5.4800    0.7660   18.8660 C   0  0  0  0  0  0  0  0  0  0  0  0
    4.4760    1.4630   18.3090 N   0  0  0  0  0  0  0  0  0  0  0  0
    3.6140    2.1550   19.2010 C   0  0  0  0  0  0  0  0  0  0  0  0
    3.8890    2.0630   20.7110 C   0  0  0  0  0  0  0  0  0  0  0  0
    4.9610    1.3180   21.1630 C   0  0  0  0  0  0  0  0  0  0  0  0
    5.7880    0.6460   20.2420 C   0  0  0  0  0  0  0  0  0  0  0  0
    6.7210   -0.2910   22.6800 C   0  0  0  0  0  0  0  0  0  0  0  0
    5.5510   -1.0470   22.7180 C   0  0  0  0  0  0  0  0  0  0  0  0
    5.8570   -2.3970   22.8460 C   0  0  0  0  0  0  0  0  0  0  0  0
    6.6850   -2.7850   21.7980 C   0  0  0  0  0  0  0  0  0  0  0  0
    7.9090   -2.1010   21.8570 C   0  0  0  0  0  0  0  0  0  0  0  0
   10.8100    0.8090   23.2100 C   0  0  0  0  0  0  0  0  0  0  0  0
   12.0720    0.3220   23.5070 C   0  0  0  0  0  0  0  0  0  0  0  0
  1  2  1  0
  2  3  1  0
  3  4  1  0
  4  5  1  0
  5  6  1  0
  6  7  2  0
  8  6  1  0
  8  9  1  0
  9 10  2  0
 10 11  1  0
 11 12  1  0
 12 13  1  0
 13 14  2  0
 14 15  1  0
 15 16  2  0
  9 17  1  0
 12 17  2  0
 16 17  1  0
  8 18  1  0
 18 19  1  0
 19 20  1  0
 20 21  1  0
  8 22  1  0
 21 22  1  0
  5 23  1  0
  2 24  1  0
 23 24  1  0
M  END
