NIC-BIO-a68395b7-5
     RDKit          3D

 24 25  0  0  0  0  0  0  0  0999 V2000
    7.2990    5.1290   22.2900 C   0  0  0  0  0  0  0  0  0  0  0  0
    6.9410    3.8100   23.0290 C   0  0  0  0  0  0  0  0  0  0  0  0
    5.9160    3.6640   23.6880 O   0  0  0  0  0  0  0  0  0  0  0  0
    7.8850    2.8390   22.8780 N   0  0  0  0  0  0  0  0  0  0  0  0
    7.6040    1.4230   23.0670 C   0  0  1  0  0  0  0  0  0  0  0  0
    6.3710    0.9680   22.5950 C   0  0  0  0  0  0  0  0  0  0  0  0
    6.2170    0.8520   21.2180 C   0  0  0  0  0  0  0  0  0  0  0  0
    5.3580    1.7200   20.5570 C   0  0  0  0  0  0  0  0  0  0  0  0
    5.1220    1.7180   19.1960 C   0  0  0  0  0  0  0  0  0  0  0  0
    5.7910    0.7790   18.4110 C   0  0  0  0  0  0  0  0  0  0  0  0
    5.5890    0.7580   17.0930 O   0  0  0  0  0  0  0  0  0  0  0  0
    6.7290   -0.1880   19.0850 C   0  0  0  0  0  0  0  0  0  0  0  0
    6.9080   -0.1180   20.4540 C   0  0  0  0  0  0  0  0  0  0  0  0
    8.6750    0.7530   22.2220 C   0  0  0  0  0  0  0  0  0  0  0  0
    9.3200    1.3860   21.3860 O   0  0  0  0  0  0  0  0  0  0  0  0
    8.8220   -0.6590   22.5030 N   0  0  0  0  0  0  0  0  0  0  0  0
    9.8470   -1.3210   21.7460 C   0  0  0  0  0  0  0  0  0  0  0  0
   10.6360   -1.9470   22.6660 C   0  0  0  0  0  0  0  0  0  0  0  0
   11.6210   -2.1300   23.5410 C   0  0  0  0  0  0  0  0  0  0  0  0
   11.9200   -3.1950   24.2920 C   0  0  0  0  0  0  0  0  0  0  0  0
   12.7380   -2.1610   24.4740 C   0  0  0  0  0  0  0  0  0  0  0  0
   14.0150   -2.5770   25.7320 Br  0  0  0  0  0  0  0  0  0  0  0  0
   12.5780   -0.8600   23.7240 C   0  0  0  0  0  0  0  0  0  0  0  0
   11.4380   -0.7820   22.7640 C   0  0  0  0  0  0  0  0  0  0  0  0
  1  2  1  0
  2  3  2  0
  2  4  1  0
  4  5  1  0
  5  6  1  6
  6  7  1  0
  7  8  2  0
  8  9  1  0
  9 10  2  0
 10 11  1  0
 10 12  1  0
  7 13  1  0
 12 13  2  0
  5 14  1  0
 14 15  2  0
 14 16  1  0
 16 17  1  0
 17 18  1  0
 18 19  2  0
 19 20  1  0
 20 21  2  0
 21 22  1  0
 21 23  1  0
 18 24  1  0
 23 24  2  0
M  END
