NIC-BIO-25446079-3
     RDKit          3D

 20 22  0  0  0  0  0  0  0  0999 V2000
   11.5970    1.5490   23.4900 C   0  0  0  0  0  0  0  0  0  0  0  0
   11.9990    0.3440   24.0530 N   0  0  0  0  0  0  0  0  0  0  0  0
   12.6360   -0.6980   23.3370 C   0  0  0  0  0  0  0  0  0  0  0  0
   11.7860   -1.5490   22.6520 C   0  0  0  0  0  0  0  0  0  0  0  0
   10.4980   -1.0540   22.6860 C   0  0  0  0  0  0  0  0  0  0  0  0
    9.6690   -1.5040   21.7760 N   0  0  0  0  0  0  0  0  0  0  0  0
    8.7670   -0.6060   21.4970 C   0  0  0  0  0  0  0  0  0  0  0  0
    9.0140    0.7490   21.4520 O   0  0  0  0  0  0  0  0  0  0  0  0
    7.4940   -0.9930   21.2170 C   0  0  0  0  0  0  0  0  0  0  0  0
    6.8400   -0.3670   20.1790 C   0  0  0  0  0  0  0  0  0  0  0  0
    7.2340   -0.5610   18.8520 C   0  0  0  0  0  0  0  0  0  0  0  0
    6.3960    0.2060   17.9210 N   0  0  0  0  0  0  0  0  0  0  0  0
    5.4610    0.8740   18.7950 C   0  0  0  0  0  0  0  0  0  0  0  0
    4.4920    1.6930   18.3550 N   0  0  0  0  0  0  0  0  0  0  0  0
    3.7310    2.1980   19.3890 C   0  0  0  0  0  0  0  0  0  0  0  0
    3.8110    2.0050   20.7290 C   0  0  0  0  0  0  0  0  0  0  0  0
    4.8560    1.1240   21.2320 C   0  0  0  0  0  0  0  0  0  0  0  0
    5.7320    0.5260   20.1580 C   0  0  0  0  0  0  0  0  0  0  0  0
    9.9010   -0.9630   23.9010 C   0  0  0  0  0  0  0  0  0  0  0  0
   10.8260   -0.2060   24.8110 C   0  0  0  0  0  0  0  0  0  0  0  0
  1  2  1  0
  2  3  1  0
  3  4  1  0
  4  5  1  0
  5  6  1  0
  6  7  1  0
  7  8  2  0
  7  9  1  0
  9 10  1  0
 10 11  2  0
 11 12  1  0
 12 13  1  0
 13 14  1  0
 14 15  2  0
 15 16  1  0
 16 17  2  0
 10 18  1  0
 13 18  2  0
 17 18  1  0
  5 19  1  0
  2 20  1  0
 19 20  1  0
M  END
