NIC-BIO-3276ca7f-5
     RDKit          3D

 26 28  0  0  0  0  0  0  0  0999 V2000
    7.4990    4.9190   22.2830 C   0  0  0  0  0  0  0  0  0  0  0  0
    7.2660    3.7700   22.9460 C   0  0  0  0  0  0  0  0  0  0  0  0
    6.0730    3.7410   23.7490 O   0  0  0  0  0  0  0  0  0  0  0  0
    8.2510    2.7260   22.7660 N   0  0  0  0  0  0  0  0  0  0  0  0
    8.0270    1.4520   23.2320 C   0  0  1  0  0  0  0  0  0  0  0  0
    6.5650    1.0140   23.0140 C   0  0  0  0  0  0  0  0  0  0  0  0
    6.3450    0.6540   21.7280 C   0  0  0  0  0  0  0  0  0  0  0  0
    6.7080   -0.5210   21.3590 C   0  0  0  0  0  0  0  0  0  0  0  0
    6.3940   -0.5970   20.1200 N   0  0  0  0  0  0  0  0  0  0  0  0
    5.8060    0.4760   19.5160 C   0  0  0  0  0  0  0  0  0  0  0  0
    5.9250   -0.4490   18.6400 N   0  0  0  0  0  0  0  0  0  0  0  0
    5.4340    0.0320   17.5360 C   0  0  0  0  0  0  0  0  0  0  0  0
    5.0530    1.4270   18.1070 C   0  0  0  0  0  0  0  0  0  0  0  0
    5.2030    2.0250   19.5170 C   0  0  0  0  0  0  0  0  0  0  0  0
    5.7510    1.4080   20.6380 C   0  0  0  0  0  0  0  0  0  0  0  0
    9.0430    0.5930   22.7510 C   0  0  0  0  0  0  0  0  0  0  0  0
    9.9590    0.9820   22.0370 O   0  0  0  0  0  0  0  0  0  0  0  0
    8.9260   -0.7320   23.1690 N   0  0  0  0  0  0  0  0  0  0  0  0
    8.9760   -1.9130   22.3940 C   0  0  0  0  0  0  0  0  0  0  0  0
    8.0100   -2.9160   22.6390 C   0  0  0  0  0  0  0  0  0  0  0  0
    6.6280   -2.8570   22.0120 C   0  0  0  0  0  0  0  0  0  0  0  0
    5.6640   -3.8440   22.2410 C   0  0  0  0  0  0  0  0  0  0  0  0
    5.9670   -4.9170   23.0630 C   0  0  0  0  0  0  0  0  0  0  0  0
    4.8110   -6.1510   23.3640 Cl  0  0  0  0  0  0  0  0  0  0  0  0
    7.3570   -4.9780   23.6970 C   0  0  0  0  0  0  0  0  0  0  0  0
    8.3120   -3.9910   23.4700 C   0  0  0  0  0  0  0  0  0  0  0  0
  1  2  1  0
  2  3  2  0
  2  4  1  0
  4  5  1  0
  5  6  1  6
  6  7  1  0
  7  8  2  0
  8  9  1  0
  9 10  1  0
 10 11  1  0
 11 12  2  0
 12 13  1  0
 13 14  2  0
  7 15  1  0
 10 15  2  0
 14 15  1  0
  5 16  1  0
 16 17  2  0
 16 18  1  0
 18 19  1  0
 19 20  1  0
 20 21  2  0
 21 22  1  0
 22 23  2  0
 23 24  1  0
 23 25  1  0
 20 26  1  0
 25 26  2  0
M  END
