NIC-BIO-ec630548-1
     RDKit          3D

 21 23  0  0  0  0  0  0  0  0999 V2000
   13.3420   -1.5210   23.6560 C   0  0  0  0  0  0  0  0  0  0  0  0
   11.9800   -1.1990   23.7750 N   0  0  0  0  0  0  0  0  0  0  0  0
   11.2600   -2.0470   22.8430 C   0  0  0  0  0  0  0  0  0  0  0  0
    9.9500   -1.5650   22.7050 C   0  0  0  0  0  0  0  0  0  0  0  0
    9.7960   -0.1320   22.6680 N   0  0  0  0  0  0  0  0  0  0  0  0
    8.9320    0.3660   21.6210 C   0  0  0  0  0  0  0  0  0  0  0  0
    8.9700    1.6690   21.1940 O   0  0  0  0  0  0  0  0  0  0  0  0
    8.0020   -0.6640   21.0580 C   0  0  0  0  0  0  0  0  0  0  0  0
    7.1460   -0.2490   20.0560 C   0  0  0  0  0  0  0  0  0  0  0  0
    7.3140   -0.5280   18.7180 C   0  0  0  0  0  0  0  0  0  0  0  0
    6.3440    0.0360   17.9990 N   0  0  0  0  0  0  0  0  0  0  0  0
    5.4730    0.7090   18.8240 C   0  0  0  0  0  0  0  0  0  0  0  0
    4.3840    1.3890   18.4260 N   0  0  0  0  0  0  0  0  0  0  0  0
    3.6590    1.9750   19.4370 C   0  0  0  0  0  0  0  0  0  0  0  0
    4.0890    1.8350   20.7570 C   0  0  0  0  0  0  0  0  0  0  0  0
    5.2190    1.1360   21.1390 C   0  0  0  0  0  0  0  0  0  0  0  0
    5.9580    0.5360   20.1380 C   0  0  0  0  0  0  0  0  0  0  0  0
   10.3420    0.5370   23.7320 C   0  0  1  0  0  0  0  0  0  0  0  0
    9.6170    0.4380   24.9160 C   0  0  0  0  0  0  0  0  0  0  0  0
    9.0190    1.4830   25.1620 O   0  0  0  0  0  0  0  0  0  0  0  0
   11.7510    0.1510   23.6160 C   0  0  0  0  0  0  0  0  0  0  0  0
  1  2  1  0
  2  3  1  0
  3  4  1  0
  4  5  1  0
  5  6  1  0
  6  7  2  0
  6  8  1  0
  8  9  1  0
  9 10  2  0
 10 11  1  0
 11 12  1  0
 12 13  1  0
 13 14  2  0
 14 15  1  0
 15 16  2  0
  9 17  1  0
 12 17  2  0
 16 17  1  0
  5 18  1  0
 18 19  1  1
 19 20  1  0
  2 21  1  0
 18 21  1  0
M  END
