NIM-UNI-7f77122c-3
     RDKit          3D

 41 46  0  0  0  0  0  0  0  0999 V2000
    3.8070   -7.9980   24.7650 O   0  0  0  0  0  0  0  0  0  0  0  0
    3.3630   -6.9500   24.3110 C   0  0  0  0  0  0  0  0  0  0  0  0
    4.3070   -5.8000   24.2760 C   0  0  0  0  0  0  0  0  0  0  0  0
    5.2560   -5.7170   23.2510 C   0  0  0  0  0  0  0  0  0  0  0  0
    6.1590   -4.6450   23.2360 C   0  0  0  0  0  0  0  0  0  0  0  0
    6.1170   -3.6550   24.2430 C   0  0  0  0  0  0  0  0  0  0  0  0
    7.0970   -2.5120   24.2400 C   0  0  0  0  0  0  0  0  0  0  0  0
    6.6050   -1.4020   25.0330 O   0  0  0  0  0  0  0  0  0  0  0  0
    6.7080   -0.1870   24.4370 C   0  0  0  0  0  0  0  0  0  0  0  0
    7.5590   -0.0590   23.4700 N   0  0  0  0  0  0  0  0  0  0  0  0
    7.5760    1.1610   22.8510 C   0  0  0  0  0  0  0  0  0  0  0  0
    8.6010    1.6890   22.4270 O   0  0  0  0  0  0  0  0  0  0  0  0
    6.2220    1.7550   22.7400 C   0  0  0  0  0  0  0  0  0  0  0  0
    5.4150    1.5640   23.7860 C   0  0  0  0  0  0  0  0  0  0  0  0
    4.2250    2.1630   23.5020 N   0  0  0  0  0  0  0  0  0  0  0  0
    4.4270    2.9890   22.3810 C   0  0  0  0  0  0  0  0  0  0  0  0
    3.7220    3.9440   22.1060 O   0  0  0  0  0  0  0  0  0  0  0  0
    5.5780    2.4340   21.7310 N   0  0  0  0  0  0  0  0  0  0  0  0
    5.4900    1.8910   20.4320 C   0  0  0  0  0  0  0  0  0  0  0  0
    4.9230    2.5430   19.3470 C   0  0  0  0  0  0  0  0  0  0  0  0
    4.8960    1.9160   18.1050 C   0  0  0  0  0  0  0  0  0  0  0  0
    5.4280    0.6550   17.9820 C   0  0  0  0  0  0  0  0  0  0  0  0
    5.9820   -0.0230   18.9930 N   0  0  0  0  0  0  0  0  0  0  0  0
    5.9990    0.6120   20.1850 C   0  0  0  0  0  0  0  0  0  0  0  0
    5.8590    0.8510   24.8660 N   0  0  0  0  0  0  0  0  0  0  0  0
    5.8650    1.4150   26.2330 C   0  0  0  0  0  0  0  0  0  0  0  0
    6.8260    2.5850   26.4690 C   0  0  0  0  0  0  0  0  0  0  0  0
    6.8990    3.1770   27.7470 C   0  0  0  0  0  0  0  0  0  0  0  0
    7.7680    4.2370   28.0120 C   0  0  0  0  0  0  0  0  0  0  0  0
    8.5890    4.7370   27.0090 C   0  0  0  0  0  0  0  0  0  0  0  0
    8.5350    4.1770   25.7390 C   0  0  0  0  0  0  0  0  0  0  0  0
    9.5580    4.8070   24.5070 Cl  0  0  0  0  0  0  0  0  0  0  0  0
    7.6670    3.1140   25.4610 C   0  0  0  0  0  0  0  0  0  0  0  0
    5.1490   -3.7540   25.2530 C   0  0  0  0  0  0  0  0  0  0  0  0
    4.2460   -4.8200   25.2740 C   0  0  0  0  0  0  0  0  0  0  0  0
    2.0530   -6.8240   23.8680 N   0  0  0  0  0  0  0  0  0  0  0  0
    1.5310   -5.5270   23.4940 C   0  0  0  0  0  0  0  0  0  0  0  0
    0.3880   -5.0860   24.4210 C   0  0  0  0  0  0  0  0  0  0  0  0
   -0.6180   -6.0890   24.6150 O   0  0  0  0  0  0  0  0  0  0  0  0
   -0.1000   -7.3830   24.9520 C   0  0  0  0  0  0  0  0  0  0  0  0
    1.0300   -7.8630   24.0270 C   0  0  0  0  0  0  0  0  0  0  0  0
  1  2  2  0
  2  3  1  0
  3  4  2  0
  4  5  1  0
  5  6  2  0
  6  7  1  0
  7  8  1  0
  8  9  1  0
  9 10  2  0
 10 11  1  0
 11 12  2  0
 11 13  1  0
 13 14  2  0
 14 15  1  0
 15 16  1  0
 16 17  2  0
 13 18  1  0
 16 18  1  0
 18 19  1  0
 19 20  2  0
 20 21  1  0
 21 22  2  0
 22 23  1  0
 19 24  1  0
 23 24  2  0
  9 25  1  0
 14 25  1  0
 25 26  1  0
 26 27  1  0
 27 28  2  0
 28 29  1  0
 29 30  2  0
 30 31  1  0
 31 32  1  0
 27 33  1  0
 31 33  2  0
  6 34  1  0
  3 35  1  0
 34 35  2  0
  2 36  1  0
 36 37  1  0
 37 38  1  0
 38 39  1  0
 39 40  1  0
 36 41  1  0
 40 41  1  0
M  END
