NIM-UNI-0ea3b7bf-1
     RDKit          3D

 21 23  0  0  0  0  0  0  0  0999 V2000
    6.3640   -3.0370   20.0540 O   0  0  0  0  0  0  0  0  0  0  0  0
    6.5640   -3.7730   21.0160 C   0  0  0  0  0  0  0  0  0  0  0  0
    6.8250   -5.2010   21.0150 C   0  0  0  0  0  0  0  0  0  0  0  0
    5.6480   -6.0160   20.1000 Cl  0  0  0  0  0  0  0  0  0  0  0  0
    6.5360   -3.5000   22.4020 C   0  0  0  0  0  0  0  0  0  0  0  0
    5.9280   -4.4310   23.0270 C   0  0  0  0  0  0  0  0  0  0  0  0
    6.4900   -3.3210   23.6040 C   0  0  0  0  0  0  0  0  0  0  0  0
    7.2480   -2.1740   22.7560 C   0  0  0  0  0  0  0  0  0  0  0  0
    7.6400   -1.8780   20.9140 Br  0  0  0  0  0  0  0  0  0  0  0  0
    7.5060   -1.4340   23.9990 C   0  0  0  0  0  0  0  0  0  0  0  0
    8.1010   -0.4960   23.4920 N   0  0  0  0  0  0  0  0  0  0  0  0
    8.9410   -0.9220   22.5710 C   0  0  0  0  0  0  0  0  0  0  0  0
    9.4340   -1.4770   21.6210 O   0  0  0  0  0  0  0  0  0  0  0  0
    7.6260   -1.4690   22.4500 N   0  0  0  0  0  0  0  0  0  0  0  0
    6.7860   -0.5360   21.8760 C   0  0  0  0  0  0  0  0  0  0  0  0
    5.5960   -0.8740   21.3150 C   0  0  0  0  0  0  0  0  0  0  0  0
    4.7950    0.1220   20.7420 C   0  0  0  0  0  0  0  0  0  0  0  0
    5.0710    1.4900   20.6690 C   0  0  0  0  0  0  0  0  0  0  0  0
    6.3570    1.8520   21.2810 N   0  0  0  0  0  0  0  0  0  0  0  0
    7.1090    0.8430   21.8250 C   0  0  0  0  0  0  0  0  0  0  0  0
    6.9410   -2.5550   23.4630 C   0  0  0  0  0  0  0  0  0  0  0  0
  1  2  2  0
  2  3  1  0
  3  4  1  0
  2  5  1  0
  5  6  2  0
  6  7  1  0
  7  8  2  0
  8  9  1  0
  8 10  1  0
 10 11  1  0
 11 12  1  0
 12 13  2  0
 12 14  1  0
 14 15  1  0
 15 16  2  0
 16 17  1  0
 17 18  2  0
 18 19  1  0
 15 20  1  0
 19 20  2  0
  5 21  1  0
 10 21  2  0
 14 21  1  0
M  END
