NIM-UNI-0ea3b7bf-5
     RDKit          3D

 17 18  0  0  0  0  0  0  0  0999 V2000
    4.2560   -6.3190   25.2020 O   0  0  0  0  0  0  0  0  0  0  0  0
    5.1540   -5.6330   25.6690 C   0  0  0  0  0  0  0  0  0  0  0  0
    5.6950   -5.9110   27.0330 C   0  0  0  0  0  0  0  0  0  0  0  0
    5.7600   -4.4020   27.9630 Cl  0  0  0  0  0  0  0  0  0  0  0  0
    5.7430   -4.4640   24.8920 C   0  0  0  0  0  0  0  0  0  0  0  0
    6.5850   -4.9380   23.6780 C   0  0  1  0  0  0  0  0  0  0  0  0
    6.1470   -6.0950   22.8830 C   0  0  0  0  0  0  0  0  0  0  0  0
    5.0500   -5.5950   22.1260 N   0  0  0  0  0  0  0  0  0  0  0  0
    5.2700   -4.2560   21.9020 C   0  0  0  0  0  0  0  0  0  0  0  0
    4.5900   -3.5820   21.1950 O   0  0  0  0  0  0  0  0  0  0  0  0
    6.3600   -3.9070   22.6380 N   0  0  0  0  0  0  0  0  0  0  0  0
    7.0790   -2.7030   22.4560 C   0  0  0  0  0  0  0  0  0  0  0  0
    7.9610   -3.6990   23.2370 C   0  0  0  0  0  0  0  0  0  0  0  0
    9.2380   -3.1580   23.5640 C   0  0  0  0  0  0  0  0  0  0  0  0
   10.0240   -2.1680   23.4990 C   0  0  0  0  0  0  0  0  0  0  0  0
    9.4380   -1.2080   22.8610 N   0  0  0  0  0  0  0  0  0  0  0  0
    8.1400   -1.4910   22.4170 C   0  0  0  0  0  0  0  0  0  0  0  0
  1  2  2  0
  2  3  1  0
  3  4  1  0
  2  5  1  0
  6  5  1  1
  6  7  1  0
  7  8  1  0
  8  9  1  0
  9 10  2  0
  6 11  1  0
  9 11  1  0
 11 12  1  0
 12 13  2  0
 13 14  1  0
 14 15  2  0
 15 16  1  0
 12 17  1  0
 16 17  2  0
M  END
