NIM-UNI-534877e5-2
     RDKit          3D

 36 40  0  0  0  0  0  0  0  0999 V2000
    3.8280   -7.9810   24.7370 O   0  0  0  0  0  0  0  0  0  0  0  0
    3.4070   -6.9210   24.2980 C   0  0  0  0  0  0  0  0  0  0  0  0
    4.3180   -5.6880   24.1730 C   0  0  0  0  0  0  0  0  0  0  0  0
    5.2000   -5.5490   23.0930 C   0  0  0  0  0  0  0  0  0  0  0  0
    6.0340   -4.4170   22.9850 C   0  0  0  0  0  0  0  0  0  0  0  0
    5.9890   -3.4100   23.9630 C   0  0  0  0  0  0  0  0  0  0  0  0
    6.8100   -2.2760   23.8650 C   0  0  0  0  0  0  0  0  0  0  0  0
    6.3790   -1.0150   23.9110 N   0  0  0  0  0  0  0  0  0  0  0  0
    5.7080   -0.8660   25.0860 C   0  0  0  0  0  0  0  0  0  0  0  0
    5.0640    0.2720   25.5570 C   0  0  0  0  0  0  0  0  0  0  0  0
    4.3210    0.9750   26.5000 C   0  0  0  0  0  0  0  0  0  0  0  0
    4.8170    2.1630   27.0720 C   0  0  0  0  0  0  0  0  0  0  0  0
    4.1460    2.9330   28.0200 C   0  0  0  0  0  0  0  0  0  0  0  0
    2.7760    2.4370   28.4630 C   0  0  0  0  0  0  0  0  0  0  0  0
    2.2130    1.1590   27.8700 C   0  0  0  0  0  0  0  0  0  0  0  0
    0.5080    0.5490   28.4230 Br  0  0  0  0  0  0  0  0  0  0  0  0
    2.9240    0.4320   26.9270 C   0  0  0  0  0  0  0  0  0  0  0  0
    5.2980    1.2720   24.4500 C   0  0  0  0  0  0  0  0  0  0  0  0
    4.3600    2.0270   24.1660 O   0  0  0  0  0  0  0  0  0  0  0  0
    6.5120    1.2830   23.8320 N   0  0  0  0  0  0  0  0  0  0  0  0
    7.3410    2.4980   23.9490 C   0  0  0  0  0  0  0  0  0  0  0  0
    7.6680    3.1370   22.7590 C   0  0  0  0  0  0  0  0  0  0  0  0
    8.5260    4.3980   22.8530 C   0  0  0  0  0  0  0  0  0  0  0  0
    8.9200    4.7950   24.2650 C   0  0  0  0  0  0  0  0  0  0  0  0
    8.5580    4.1150   25.3650 N   0  0  0  0  0  0  0  0  0  0  0  0
    7.7940    3.0160   25.1700 C   0  0  0  0  0  0  0  0  0  0  0  0
    7.0930    0.0680   23.4190 C   0  0  0  0  0  0  0  0  0  0  0  0
    8.0980   -0.0680   22.7120 O   0  0  0  0  0  0  0  0  0  0  0  0
    5.0920   -3.5780   25.0390 C   0  0  0  0  0  0  0  0  0  0  0  0
    4.2750   -4.6880   25.1450 C   0  0  0  0  0  0  0  0  0  0  0  0
    2.0750   -6.7870   23.9070 N   0  0  0  0  0  0  0  0  0  0  0  0
    1.4720   -5.5750   23.3790 C   0  0  0  0  0  0  0  0  0  0  0  0
    0.4700   -5.0700   24.2230 C   0  0  0  0  0  0  0  0  0  0  0  0
    0.0670   -5.9940   25.2410 O   0  0  0  0  0  0  0  0  0  0  0  0
   -0.0320   -7.3560   24.7950 C   0  0  0  0  0  0  0  0  0  0  0  0
    1.1270   -7.8600   24.2060 C   0  0  0  0  0  0  0  0  0  0  0  0
  1  2  2  0
  2  3  1  0
  3  4  2  0
  4  5  1  0
  5  6  2  0
  6  7  1  0
  7  8  1  0
  8  9  1  0
  9 10  2  0
 10 11  1  0
 11 12  2  0
 12 13  1  0
 13 14  2  0
 14 15  1  0
 15 16  1  0
 11 17  1  0
 15 17  2  0
 10 18  1  0
 18 19  2  0
 18 20  1  0
 20 21  1  0
 21 22  2  0
 22 23  1  0
 23 24  2  0
 24 25  1  0
 21 26  1  0
 25 26  2  0
  8 27  1  0
 20 27  1  0
 27 28  2  0
  6 29  1  0
  3 30  1  0
 29 30  2  0
  2 31  1  0
 31 32  1  0
 32 33  1  0
 33 34  1  0
 34 35  1  0
 31 36  1  0
 35 36  1  0
M  END
