NIM-UNI-36e12f95-4
     RDKit          3D

 27 30  0  0  0  0  0  0  0  0999 V2000
    6.0100   -2.1520   19.2610 C   0  0  0  0  0  0  0  0  0  0  0  0
    5.3620   -2.9270   20.3740 C   0  0  0  0  0  0  0  0  0  0  0  0
    4.4860   -2.9880   19.5510 O   0  0  0  0  0  0  0  0  0  0  0  0
    6.5360   -2.6870   21.0810 C   0  0  0  0  0  0  0  0  0  0  0  0
    6.9860   -3.7770   21.8090 C   0  0  0  0  0  0  0  0  0  0  0  0
    8.1390   -3.7390   22.5340 C   0  0  0  0  0  0  0  0  0  0  0  0
    8.9520   -2.6350   22.6070 C   0  0  0  0  0  0  0  0  0  0  0  0
   10.1960   -2.6610   23.3780 C   0  0  0  0  0  0  0  0  0  0  0  0
   10.9000   -1.5410   23.1850 C   0  0  0  0  0  0  0  0  0  0  0  0
   10.1380   -0.3400   23.3720 C   0  0  0  0  0  0  0  0  0  0  0  0
   10.6540    0.8550   23.2070 C   0  0  0  0  0  0  0  0  0  0  0  0
   12.0410    1.0590   22.8380 C   0  0  0  0  0  0  0  0  0  0  0  0
   12.5210    2.8900   22.7010 Br  0  0  0  0  0  0  0  0  0  0  0  0
   12.8480   -0.0790   22.6360 C   0  0  0  0  0  0  0  0  0  0  0  0
   12.2500   -1.4790   22.8190 C   0  0  0  0  0  0  0  0  0  0  0  0
    8.4870   -1.5230   21.8870 C   0  0  0  0  0  0  0  0  0  0  0  0
    9.0760   -0.2740   21.7710 N   0  0  0  0  0  0  0  0  0  0  0  0
    8.2240    0.6060   21.1160 C   0  0  0  0  0  0  0  0  0  0  0  0
    8.4040    1.8220   21.0510 O   0  0  0  0  0  0  0  0  0  0  0  0
    7.1880   -0.1860   20.5630 N   0  0  0  0  0  0  0  0  0  0  0  0
    6.0550    0.4470   20.0000 C   0  0  0  0  0  0  0  0  0  0  0  0
    6.0520    0.9360   18.6900 C   0  0  0  0  0  0  0  0  0  0  0  0
    4.9120    1.5600   18.2020 C   0  0  0  0  0  0  0  0  0  0  0  0
    3.7970    1.6840   19.0290 C   0  0  0  0  0  0  0  0  0  0  0  0
    3.7540    1.2240   20.2990 N   0  0  0  0  0  0  0  0  0  0  0  0
    4.8780    0.6260   20.7340 C   0  0  0  0  0  0  0  0  0  0  0  0
    7.2910   -1.5040   21.1240 C   0  0  0  0  0  0  0  0  0  0  0  0
  1  2  1  0
  2  3  2  0
  2  4  1  0
  4  5  2  0
  5  6  1  0
  6  7  2  0
  7  8  1  0
  8  9  1  0
  9 10  2  0
 10 11  1  0
 11 12  2  0
 12 13  1  0
 12 14  1  0
  9 15  1  0
 14 15  2  0
  7 16  1  0
 16 17  1  0
 17 18  1  0
 18 19  2  0
 18 20  1  0
 20 21  1  0
 21 22  2  0
 22 23  1  0
 23 24  2  0
 24 25  1  0
 21 26  1  0
 25 26  2  0
  4 27  1  0
 16 27  2  0
 20 27  1  0
M  END
