NIM-UNI-36e12f95-2
     RDKit          3D

 26 29  0  0  0  0  0  0  0  0999 V2000
    5.9150   -1.9250   18.6530 C   0  0  0  0  0  0  0  0  0  0  0  0
    5.8220   -2.8020   19.8420 C   0  0  0  0  0  0  0  0  0  0  0  0
    5.3090   -3.9250   19.7320 O   0  0  0  0  0  0  0  0  0  0  0  0
    6.3480   -2.3850   20.9650 N   0  0  0  0  0  0  0  0  0  0  0  0
    6.1980   -3.1590   22.1940 C   0  0  0  0  0  0  0  0  0  0  0  0
    7.5280   -3.5060   22.7990 C   0  0  0  0  0  0  0  0  0  0  0  0
    8.2650   -2.2670   23.0240 N   0  0  0  0  0  0  0  0  0  0  0  0
    9.3750   -2.3420   24.0120 C   0  0  0  0  0  0  0  0  0  0  0  0
   10.6030   -1.5730   23.6260 C   0  0  0  0  0  0  0  0  0  0  0  0
   10.6440   -0.2380   23.4030 C   0  0  0  0  0  0  0  0  0  0  0  0
   11.8200    0.6230   23.0120 C   0  0  0  0  0  0  0  0  0  0  0  0
   13.1770    0.0130   22.8240 C   0  0  0  0  0  0  0  0  0  0  0  0
   13.2070   -1.4760   23.0570 C   0  0  0  0  0  0  0  0  0  0  0  0
   11.9140   -2.1030   23.4320 C   0  0  0  0  0  0  0  0  0  0  0  0
    8.4880   -1.2870   21.9570 C   0  0  2  0  0  0  0  0  0  0  0  0
    8.5690    0.0200   22.3090 N   0  0  0  0  0  0  0  0  0  0  0  0
    7.9730    0.8360   21.4340 C   0  0  0  0  0  0  0  0  0  0  0  0
    8.4260    1.9380   21.0960 O   0  0  0  0  0  0  0  0  0  0  0  0
    6.8750    0.1610   21.0860 N   0  0  0  0  0  0  0  0  0  0  0  0
    5.8310    0.9280   20.4100 C   0  0  0  0  0  0  0  0  0  0  0  0
    6.0000    0.9860   19.0120 C   0  0  0  0  0  0  0  0  0  0  0  0
    5.0750    1.6840   18.2030 C   0  0  0  0  0  0  0  0  0  0  0  0
    3.8970    2.3660   18.9160 C   0  0  0  0  0  0  0  0  0  0  0  0
    3.7900    2.2610   20.3600 N   0  0  0  0  0  0  0  0  0  0  0  0
    4.7530    1.5520   21.0400 C   0  0  0  0  0  0  0  0  0  0  0  0
    7.2810   -1.2260   20.9570 C   0  0  2  0  0  0  0  0  0  0  0  0
  1  2  1  0
  2  3  2  0
  2  4  1  0
  4  5  1  0
  5  6  1  0
  6  7  1  0
  7  8  1  0
  8  9  1  0
  9 10  2  0
 10 11  1  0
 11 12  2  0
 12 13  1  0
  9 14  1  0
 13 14  2  0
  7 15  1  0
 15 16  1  1
 16 17  1  0
 17 18  2  0
 17 19  1  0
 19 20  1  0
 20 21  2  0
 21 22  1  0
 22 23  2  0
 23 24  1  0
 20 25  1  0
 24 25  2  0
 26  4  1  1
 15 26  1  0
 19 26  1  0
M  END
