NIM-UNI-0ea3b7bf-4
     RDKit          3D

 26 29  0  0  0  0  0  0  0  0999 V2000
    4.4780   -0.8370   20.7280 O   0  0  0  0  0  0  0  0  0  0  0  0
    5.2670   -2.0020   20.8910 C   0  0  0  0  0  0  0  0  0  0  0  0
    5.2340   -3.0520   19.8630 C   0  0  0  0  0  0  0  0  0  0  0  0
    5.5910   -4.6160   20.6470 Cl  0  0  0  0  0  0  0  0  0  0  0  0
    6.1730   -2.1910   21.9830 C   0  0  0  0  0  0  0  0  0  0  0  0
    5.9890   -3.0870   23.0410 C   0  0  0  0  0  0  0  0  0  0  0  0
    6.9000   -3.2380   24.0630 C   0  0  0  0  0  0  0  0  0  0  0  0
    8.0430   -2.4800   24.0500 C   0  0  0  0  0  0  0  0  0  0  0  0
    8.2390   -1.5550   22.9650 C   0  0  0  0  0  0  0  0  0  0  0  0
    7.4170   -1.3530   21.9550 C   0  0  0  0  0  0  0  0  0  0  0  0
    7.8800   -0.3690   21.0270 N   0  0  0  0  0  0  0  0  0  0  0  0
    6.9670    0.2140   20.1060 C   0  0  0  0  0  0  0  0  0  0  0  0
    6.0020    1.0080   20.5390 C   0  0  0  0  0  0  0  0  0  0  0  0
    5.0890    1.5860   19.5520 C   0  0  0  0  0  0  0  0  0  0  0  0
    5.2710    1.2830   18.2060 C   0  0  0  0  0  0  0  0  0  0  0  0
    6.2810    0.4540   17.7740 N   0  0  0  0  0  0  0  0  0  0  0  0
    7.0440   -0.0160   18.7460 C   0  0  0  0  0  0  0  0  0  0  0  0
    8.9580    0.3220   21.7330 C   0  0  0  0  0  0  0  0  0  0  0  0
    9.3680    1.4640   21.4800 O   0  0  0  0  0  0  0  0  0  0  0  0
    9.3820   -0.6690   22.7710 N   0  0  0  0  0  0  0  0  0  0  0  0
   10.6740   -1.1180   22.9890 C   0  0  0  0  0  0  0  0  0  0  0  0
   11.1590   -1.2680   24.3930 C   0  0  0  0  0  0  0  0  0  0  0  0
   12.4420   -1.6990   24.6240 C   0  0  0  0  0  0  0  0  0  0  0  0
   13.2700   -1.9980   23.5630 C   0  0  0  0  0  0  0  0  0  0  0  0
   12.8290   -1.8750   22.2500 C   0  0  0  0  0  0  0  0  0  0  0  0
   11.5330   -1.4420   21.9700 C   0  0  0  0  0  0  0  0  0  0  0  0
  1  2  2  0
  2  3  1  0
  3  4  1  0
  2  5  1  0
  5  6  2  0
  6  7  1  0
  7  8  2  0
  8  9  1  0
  5 10  1  0
  9 10  2  0
 10 11  1  0
 11 12  1  0
 12 13  2  0
 13 14  1  0
 14 15  2  0
 15 16  1  0
 12 17  1  0
 16 17  2  0
 11 18  1  0
 18 19  2  0
  9 20  1  0
 18 20  1  0
 20 21  1  0
 21 22  2  0
 22 23  1  0
 23 24  2  0
 24 25  1  0
 21 26  1  0
 25 26  2  0
M  END
