NIM-UNI-6eebfcd4-2
     RDKit          3D

 24 25  0  0  0  0  0  0  0  0999 V2000
    4.6680   -3.8910   21.9200 O   0  0  0  0  0  0  0  0  0  0  0  0
    5.4300   -3.0410   22.3710 C   0  0  0  0  0  0  0  0  0  0  0  0
    5.5470   -2.7690   23.8740 C   0  0  0  0  0  0  0  0  0  0  0  0
    5.8030   -4.2770   24.7680 Cl  0  0  0  0  0  0  0  0  0  0  0  0
    6.3290   -2.1930   21.4650 C   0  0  0  0  0  0  0  0  0  0  0  0
    5.9250   -2.3010   20.1570 N   0  0  0  0  0  0  0  0  0  0  0  0
    5.7570   -1.0850   19.7600 C   0  0  0  0  0  0  0  0  0  0  0  0
    6.2140   -0.6700   18.5120 C   0  0  0  0  0  0  0  0  0  0  0  0
    6.0700    0.6030   17.9740 N   0  0  0  0  0  0  0  0  0  0  0  0
    5.3860    1.4810   18.8480 C   0  0  0  0  0  0  0  0  0  0  0  0
    4.8710    1.2520   20.1330 C   0  0  0  0  0  0  0  0  0  0  0  0
    4.2300    2.1700   20.9390 C   0  0  0  0  0  0  0  0  0  0  0  0
    4.0070    2.7540   22.1900 C   0  0  0  0  0  0  0  0  0  0  0  0
    2.6790    2.7620   22.6100 N   0  0  0  0  0  0  0  0  0  0  0  0
    2.1330    2.2830   23.8280 C   0  0  0  0  0  0  0  0  0  0  0  0
    2.6200    1.2920   24.3600 O   0  0  0  0  0  0  0  0  0  0  0  0
    1.0610    2.8700   24.4850 C   0  0  0  0  0  0  0  0  0  0  0  0
    1.5030    4.0330   25.3500 C   0  0  0  0  0  0  0  0  0  0  0  0
    0.3420    4.6820   26.0810 C   0  0  0  0  0  0  0  0  0  0  0  0
   -0.9720    4.2460   25.9610 C   0  0  0  0  0  0  0  0  0  0  0  0
   -1.3030    3.1650   25.1420 C   0  0  0  0  0  0  0  0  0  0  0  0
   -2.9400    2.6480   25.0120 Cl  0  0  0  0  0  0  0  0  0  0  0  0
   -0.2990    2.5010   24.4240 C   0  0  0  0  0  0  0  0  0  0  0  0
    5.0620   -0.1740   20.6790 C   0  0  0  0  0  0  0  0  0  0  0  0
  1  2  2  0
  2  3  1  0
  3  4  1  0
  2  5  1  0
  5  6  1  0
  6  7  1  0
  7  8  2  0
  8  9  1  0
  9 10  2  0
 10 11  1  0
 11 12  1  0
 12 13  1  0
 13 14  1  0
 14 15  1  0
 15 16  2  0
 15 17  1  0
 17 18  2  0
 18 19  1  0
 19 20  2  0
 20 21  1  0
 21 22  1  0
 17 23  1  0
 21 23  2  0
  7 24  1  0
 11 24  2  0
M  END
