OLE-CAR-5b17bec5-7
     RDKit          3D

 28 29  0  0  0  0  0  0  0  0999 V2000
    9.7820   -2.5950   23.2440 C   0  0  0  0  0  0  0  0  0  0  0  0
   10.3500   -1.2430   23.1770 C   0  0  0  0  0  0  0  0  0  0  0  0
    9.5900   -0.2900   23.7760 C   0  0  0  0  0  0  0  0  0  0  0  0
    9.9860    1.1290   23.7310 C   0  0  0  0  0  0  0  0  0  0  0  0
    8.8710    2.1760   24.5300 Cl  0  0  0  0  0  0  0  0  0  0  0  0
   11.1110    1.5910   23.0950 C   0  0  0  0  0  0  0  0  0  0  0  0
   11.4200    3.4400   22.9680 S   0  0  0  0  0  0  0  0  0  0  0  0
   12.2730    3.6000   21.8170 O   0  0  0  0  0  0  0  0  0  0  0  0
   11.7030    4.1150   24.1740 O   0  0  0  0  0  0  0  0  0  0  0  0
    9.9310    4.4040   22.6640 C   0  0  0  0  0  0  0  0  0  0  0  0
   10.0820    5.7510   22.8180 C   0  0  0  0  0  0  0  0  0  0  0  0
   11.2610    6.4290   23.1740 N   0  0  0  0  0  0  0  0  0  0  0  0
   11.1010    7.3970   23.9300 O   0  0  0  0  0  0  0  0  0  0  0  0
   12.2820    6.1510   22.5370 O   0  0  0  0  0  0  0  0  0  0  0  0
    8.9610    6.7190   22.6210 C   0  0  0  0  0  0  0  0  0  0  0  0
    7.6240    6.1540   22.2430 C   0  0  0  0  0  0  0  0  0  0  0  0
    6.4950    7.1820   22.0650 C   0  0  0  0  0  0  0  0  0  0  0  0
    6.4220    7.9240   20.9590 F   0  0  0  0  0  0  0  0  0  0  0  0
    6.5410    8.0920   23.0770 F   0  0  0  0  0  0  0  0  0  0  0  0
    5.2700    6.6060   22.1920 F   0  0  0  0  0  0  0  0  0  0  0  0
    7.5040    4.7710   22.0890 C   0  0  0  0  0  0  0  0  0  0  0  0
    8.6200    3.9000   22.2900 C   0  0  0  0  0  0  0  0  0  0  0  0
    8.3770    2.5720   22.1160 N   0  0  0  0  0  0  0  0  0  0  0  0
    8.6190    2.1080   21.0010 O   0  0  0  0  0  0  0  0  0  0  0  0
    7.4480    2.1420   22.8170 O   0  0  0  0  0  0  0  0  0  0  0  0
   11.9380    0.4300   22.5200 C   0  0  0  0  0  0  0  0  0  0  0  0
   11.5700   -0.9180   22.5510 C   0  0  0  0  0  0  0  0  0  0  0  0
   12.3940   -1.8790   21.9480 C   0  0  0  0  0  0  0  0  0  0  0  0
  1  2  1  0
  2  3  2  0
  3  4  1  0
  4  5  1  0
  4  6  2  0
  7  6  1  0
  7  8  2  0
  7  9  2  0
  7 10  1  0
 10 11  2  0
 11 12  1  0
 12 13  2  0
 12 14  1  0
 11 15  1  0
 15 16  2  0
 16 17  1  0
 17 18  1  0
 17 19  1  0
 17 20  1  0
 16 21  1  0
 10 22  1  0
 21 22  2  0
 22 23  1  0
 23 24  2  0
 23 25  1  0
  6 26  1  0
  2 27  1  0
 26 27  2  0
 27 28  1  0
M  CHG  4  12   1  14  -1  23   1  25  -1
M  END
