OLE-CAR-5b17bec5-5
     RDKit          3D

 22 24  0  0  0  0  0  0  0  0999 V2000
    5.0240   -1.8900   23.5930 O   0  0  0  0  0  0  0  0  0  0  0  0
    5.7080   -2.5660   22.8410 C   0  0  0  0  0  0  0  0  0  0  0  0
    5.6470   -2.5280   21.4610 O   0  0  0  0  0  0  0  0  0  0  0  0
    6.0280   -1.2940   20.9470 C   0  0  0  0  0  0  0  0  0  0  0  0
    7.0580   -0.4220   21.6400 C   0  0  0  0  0  0  0  0  0  0  0  0
    7.4500    0.7800   21.1850 N   0  0  0  0  0  0  0  0  0  0  0  0
    6.8850    1.2220   20.0460 C   0  0  0  0  0  0  0  0  0  0  0  0
    5.8410    0.4940   19.2100 C   0  0  0  0  0  0  0  0  0  0  0  0
    5.2010    1.1660   17.7860 Cl  0  0  0  0  0  0  0  0  0  0  0  0
    5.4240   -0.8680   19.7600 C   0  0  0  0  0  0  0  0  0  0  0  0
    6.6960   -3.4950   23.3030 C   0  0  0  0  0  0  0  0  0  0  0  0
    7.8960   -4.2940   23.7640 C   0  0  0  0  0  0  0  0  0  0  0  0
    9.2010   -3.6180   23.8020 C   0  0  0  0  0  0  0  0  0  0  0  0
    8.9410   -2.4560   23.3730 C   0  0  0  0  0  0  0  0  0  0  0  0
    9.9620   -1.5070   23.2430 C   0  0  0  0  0  0  0  0  0  0  0  0
    9.6690   -0.1740   23.2900 C   0  0  0  0  0  0  0  0  0  0  0  0
   10.6550    0.7490   23.1730 C   0  0  0  0  0  0  0  0  0  0  0  0
   11.9730    0.4240   23.0120 C   0  0  0  0  0  0  0  0  0  0  0  0
   12.9260    1.8020   22.9180 Cl  0  0  0  0  0  0  0  0  0  0  0  0
   12.4500   -0.8910   22.9400 C   0  0  0  0  0  0  0  0  0  0  0  0
   11.3130   -1.9140   23.0680 C   0  0  0  0  0  0  0  0  0  0  0  0
    7.5760   -2.3580   23.0980 O   0  0  0  0  0  0  0  0  0  0  0  0
  1  2  2  0
  2  3  1  0
  3  4  1  0
  4  5  2  0
  5  6  1  0
  6  7  2  0
  7  8  1  0
  8  9  1  0
  4 10  1  0
  8 10  2  0
  2 11  1  0
 11 12  2  0
 12 13  1  0
 13 14  2  0
 14 15  1  0
 15 16  2  0
 16 17  1  0
 17 18  2  0
 18 19  1  0
 18 20  1  0
 15 21  1  0
 20 21  2  0
 11 22  1  0
 14 22  1  0
M  END
