OLE-CAR-5b17bec5-12
     RDKit          3D

 45 46  0  0  0  0  0  0  0  0999 V2000
    5.8300   -7.4010   29.6890 C   0  0  0  0  0  0  0  0  0  0  0  0
    4.4130   -7.6260   30.1410 C   0  0  0  0  0  0  0  0  0  0  0  0
    3.5660   -6.7410   30.0710 O   0  0  0  0  0  0  0  0  0  0  0  0
    2.3740   -7.0110   30.6620 C   0  0  0  0  0  0  0  0  0  0  0  0
    2.0770   -8.2130   31.2240 O   0  0  0  0  0  0  0  0  0  0  0  0
    1.4930   -5.9380   30.6310 C   0  0  0  0  0  0  0  0  0  0  0  0
    2.0970   -4.6960   30.7970 C   0  0  0  0  0  0  0  0  0  0  0  0
    1.4890   -3.4290   30.8080 C   0  0  2  0  0  0  0  0  0  0  0  0
    0.1300   -3.5350   31.2610 C   0  0  0  0  0  0  0  0  0  0  0  0
   -0.2450   -2.2290   31.9570 C   0  0  2  0  0  0  0  0  0  0  0  0
    0.1690   -2.3040   33.4020 C   0  0  0  0  0  0  0  0  0  0  0  0
   -0.8560   -2.1540   34.3340 C   0  0  0  0  0  0  0  0  0  0  0  0
   -2.0170   -2.0160   33.5050 N   0  0  0  0  0  0  0  0  0  0  0  0
   -1.7440   -2.1410   32.1590 C   0  0  0  0  0  0  0  0  0  0  0  0
   -2.5900   -2.1760   31.2810 O   0  0  0  0  0  0  0  0  0  0  0  0
    1.5160   -2.5970   29.6540 N   0  0  0  0  0  0  0  0  0  0  0  0
    2.7720   -2.2510   28.9700 C   0  0  0  0  0  0  0  0  0  0  0  0
    3.9120   -1.8590   29.6460 O   0  0  0  0  0  0  0  0  0  0  0  0
    2.7100   -2.3510   27.5580 C   0  0  2  0  0  0  0  0  0  0  0  0
    1.9110   -3.4660   26.8870 C   0  0  0  0  0  0  0  0  0  0  0  0
    0.8000   -3.1420   25.9110 C   0  0  0  0  0  0  0  0  0  0  0  0
    0.3440   -3.2100   27.3500 C   0  0  0  0  0  0  0  0  0  0  0  0
    0.2710   -4.2110   24.9550 C   0  0  0  0  0  0  0  0  0  0  0  0
    4.0050   -2.4330   27.0590 N   0  0  0  0  0  0  0  0  0  0  0  0
    4.3800   -1.9960   25.7620 C   0  0  0  0  0  0  0  0  0  0  0  0
    3.8160   -2.3920   24.7440 O   0  0  0  0  0  0  0  0  0  0  0  0
    5.5370   -1.0180   25.7510 C   0  0  1  0  0  0  0  0  0  0  0  0
    6.2950   -1.1610   24.5190 N   0  0  0  0  0  0  0  0  0  0  0  0
    7.3680   -1.9820   24.3890 C   0  0  0  0  0  0  0  0  0  0  0  0
    7.3340   -3.1970   24.5220 O   0  0  0  0  0  0  0  0  0  0  0  0
    8.4750   -1.2510   24.0780 O   0  0  0  0  0  0  0  0  0  0  0  0
    9.3550   -1.9300   23.1770 C   0  0  0  0  0  0  0  0  0  0  0  0
   10.5840   -1.2790   23.1000 C   0  0  0  0  0  0  0  0  0  0  0  0
   10.7010    0.0910   23.3030 C   0  0  0  0  0  0  0  0  0  0  0  0
   11.9410    0.7030   23.2120 C   0  0  0  0  0  0  0  0  0  0  0  0
   13.0710   -0.0320   22.9230 C   0  0  0  0  0  0  0  0  0  0  0  0
   12.9680   -1.3960   22.7200 C   0  0  0  0  0  0  0  0  0  0  0  0
   11.7330   -2.0150   22.8070 C   0  0  0  0  0  0  0  0  0  0  0  0
    5.0140    0.4310   25.9180 C   0  0  2  0  0  0  0  0  0  0  0  0
    3.5720    0.4060   26.4320 C   0  0  0  0  0  0  0  0  0  0  0  0
    5.0260    1.0870   24.6330 O   0  0  0  0  0  0  0  0  0  0  0  0
    5.4030    2.4700   24.5340 C   0  0  0  0  0  0  0  0  0  0  0  0
    4.8880    3.2880   25.7260 C   0  0  0  0  0  0  0  0  0  0  0  0
    4.9410    3.0950   23.2130 C   0  0  0  0  0  0  0  0  0  0  0  0
    6.9400    2.4700   24.5720 C   0  0  0  0  0  0  0  0  0  0  0  0
  1  2  1  0
  2  3  1  0
  3  4  1  0
  4  5  2  0
  4  6  1  0
  6  7  2  3
  8  7  1  6
  8  9  1  0
 10  9  1  6
 10 11  1  0
 11 12  1  0
 12 13  1  0
 10 14  1  0
 13 14  1  0
 14 15  2  0
  8 16  1  0
 16 17  1  0
 17 18  2  0
 17 19  1  0
 19 20  1  1
 20 21  1  0
 21 22  1  0
 21 23  1  0
 19 24  1  0
 24 25  1  0
 25 26  2  0
 25 27  1  0
 27 28  1  6
 28 29  1  0
 29 30  2  0
 29 31  1  0
 31 32  1  0
 32 33  1  0
 33 34  2  0
 34 35  1  0
 35 36  2  0
 36 37  1  0
 33 38  1  0
 37 38  2  0
 27 39  1  0
 39 40  1  6
 39 41  1  0
 42 41  1  0
 42 43  1  0
 42 44  1  0
 42 45  1  0
M  END
