OLE-CAR-5b17bec5-8
     RDKit          3D

 41 42  0  0  0  0  0  0  0  0999 V2000
   -3.3760    6.5510   16.1110 C   0  0  0  0  0  0  0  0  0  0  0  0
   -2.5040    5.3940   16.4090 C   0  0  0  0  0  0  0  0  0  0  0  0
   -1.4760    5.5820   17.0600 O   0  0  0  0  0  0  0  0  0  0  0  0
   -1.5470    5.1550   18.3490 C   0  0  0  0  0  0  0  0  0  0  0  0
   -2.5480    4.7230   18.9040 O   0  0  0  0  0  0  0  0  0  0  0  0
   -0.2200    5.2690   19.0470 C   0  0  0  0  0  0  0  0  0  0  0  0
   -0.0400    5.6410   20.3760 C   0  0  0  0  0  0  0  0  0  0  0  0
    1.1780    5.8210   21.2920 C   0  0  2  0  0  0  0  0  0  0  0  0
    1.4900    7.3150   21.5370 C   0  0  0  0  0  0  0  0  0  0  0  0
    0.2200    8.1730   21.6560 C   0  0  2  0  0  0  0  0  0  0  0  0
    0.2470    9.2890   20.6560 C   0  0  0  0  0  0  0  0  0  0  0  0
    0.3310   10.5650   21.2120 C   0  0  0  0  0  0  0  0  0  0  0  0
    0.1500   10.3160   22.6150 N   0  0  0  0  0  0  0  0  0  0  0  0
    0.1600    8.9730   22.9420 C   0  0  0  0  0  0  0  0  0  0  0  0
    0.1240    8.5250   24.0760 O   0  0  0  0  0  0  0  0  0  0  0  0
    2.2800    5.1690   20.7950 N   0  0  0  0  0  0  0  0  0  0  0  0
    3.0450    4.3170   21.5780 C   0  0  0  0  0  0  0  0  0  0  0  0
    3.4470    4.6150   22.7050 O   0  0  0  0  0  0  0  0  0  0  0  0
    3.3190    3.0870   20.9770 C   0  0  2  0  0  0  0  0  0  0  0  0
    2.2350    2.3830   20.4490 C   0  0  0  0  0  0  0  0  0  0  0  0
    1.5380    1.5570   21.3340 C   0  0  0  0  0  0  0  0  0  0  0  0
    1.5660    1.8430   22.8340 C   0  0  0  0  0  0  0  0  0  0  0  0
    0.0770    1.4830   20.8800 C   0  0  0  0  0  0  0  0  0  0  0  0
    4.0270    2.2560   21.9630 N   0  0  0  0  0  0  0  0  0  0  0  0
    4.5950    1.0570   21.6300 C   0  0  0  0  0  0  0  0  0  0  0  0
    4.0990    0.2920   20.8000 O   0  0  0  0  0  0  0  0  0  0  0  0
    5.7700    0.7470   22.2990 C   0  0  1  0  0  0  0  0  0  0  0  0
    6.1520   -0.5990   21.8800 N   0  0  0  0  0  0  0  0  0  0  0  0
    6.8950   -1.4540   22.6390 C   0  0  0  0  0  0  0  0  0  0  0  0
    6.4830   -2.5060   23.1100 O   0  0  0  0  0  0  0  0  0  0  0  0
    8.1480   -0.9560   22.7780 O   0  0  0  0  0  0  0  0  0  0  0  0
    9.1240   -1.8430   23.3450 C   0  0  0  0  0  0  0  0  0  0  0  0
   10.5050   -1.2630   23.1670 C   0  0  0  0  0  0  0  0  0  0  0  0
   10.7140    0.1100   23.2440 C   0  0  0  0  0  0  0  0  0  0  0  0
   11.9920    0.6470   23.0780 C   0  0  0  0  0  0  0  0  0  0  0  0
   13.0670   -0.1800   22.8350 C   0  0  0  0  0  0  0  0  0  0  0  0
   12.8780   -1.5500   22.7530 C   0  0  0  0  0  0  0  0  0  0  0  0
   11.6030   -2.0880   22.9190 C   0  0  0  0  0  0  0  0  0  0  0  0
    6.9420    1.7300   22.0630 C   0  0  0  0  0  0  0  0  0  0  0  0
    6.4740    3.1380   21.6990 C   0  0  0  0  0  0  0  0  0  0  0  0
    7.9510    1.2450   21.0210 C   0  0  0  0  0  0  0  0  0  0  0  0
  1  2  1  0
  2  3  1  0
  3  4  1  0
  4  5  2  0
  4  6  1  0
  6  7  2  3
  8  7  1  6
  8  9  1  0
 10  9  1  1
 10 11  1  0
 11 12  1  0
 12 13  1  0
 10 14  1  0
 13 14  1  0
 14 15  2  0
  8 16  1  0
 16 17  1  0
 17 18  2  0
 17 19  1  0
 19 20  1  1
 20 21  1  0
 21 22  1  0
 21 23  1  0
 19 24  1  0
 24 25  1  0
 25 26  2  0
 25 27  1  0
 27 28  1  6
 28 29  1  0
 29 30  2  0
 29 31  1  0
 31 32  1  0
 32 33  1  0
 33 34  2  0
 34 35  1  0
 35 36  2  0
 36 37  1  0
 33 38  1  0
 37 38  2  0
 27 39  1  0
 39 40  1  0
 39 41  1  0
M  END
