OLE-CAR-5b17bec5-1
     RDKit          3D

 15 16  0  0  0  0  0  0  0  0999 V2000
    8.9790   -3.4970   25.0050 O   0  0  0  0  0  0  0  0  0  0  0  0
    8.2960   -3.2420   24.0240 C   0  0  0  0  0  0  0  0  0  0  0  0
    8.5200   -2.1070   23.1750 O   0  0  0  0  0  0  0  0  0  0  0  0
    9.8140   -1.4920   23.0460 C   0  0  0  0  0  0  0  0  0  0  0  0
   10.2480   -0.2490   23.6580 C   0  0  0  0  0  0  0  0  0  0  0  0
   11.4780    0.3120   23.5210 N   0  0  0  0  0  0  0  0  0  0  0  0
   12.3790   -0.3220   22.7710 C   0  0  0  0  0  0  0  0  0  0  0  0
   12.0250   -1.5230   22.1420 C   0  0  0  0  0  0  0  0  0  0  0  0
   13.1470   -2.3360   21.1710 Cl  0  0  0  0  0  0  0  0  0  0  0  0
   10.7800   -2.1150   22.2570 C   0  0  0  0  0  0  0  0  0  0  0  0
    7.1480   -4.0980   23.5850 C   0  0  0  0  0  0  0  0  0  0  0  0
    6.9150   -5.0070   22.3680 C   0  0  0  0  0  0  0  0  0  0  0  0
    5.5380   -5.5890   22.5470 C   0  0  0  0  0  0  0  0  0  0  0  0
    5.0200   -5.0280   23.8100 C   0  0  0  0  0  0  0  0  0  0  0  0
    5.9730   -4.1860   24.3670 O   0  0  0  0  0  0  0  0  0  0  0  0
  1  2  2  0
  2  3  1  0
  3  4  1  0
  4  5  2  0
  5  6  1  0
  6  7  2  0
  7  8  1  0
  8  9  1  0
  4 10  1  0
  8 10  2  0
  2 11  1  0
 11 12  2  0
 12 13  1  0
 13 14  2  0
 11 15  1  0
 14 15  1  0
M  END
