PAF-PIO-d312ccf6-2
     RDKit          3D

 43 47  0  0  0  0  0  0  0  0999 V2000
    5.6550   -5.4090   25.6470 C   0  0  0  0  0  0  0  0  0  0  0  0
    4.6840   -4.7850   24.8110 O   0  0  0  0  0  0  0  0  0  0  0  0
    3.7970   -4.0270   25.4960 C   0  0  0  0  0  0  0  0  0  0  0  0
    4.1520   -2.7010   26.0840 C   0  0  0  0  0  0  0  0  0  0  0  0
    3.1310   -1.9100   26.8330 C   0  0  0  0  0  0  0  0  0  0  0  0
    1.8380   -2.4150   26.9850 C   0  0  0  0  0  0  0  0  0  0  0  0
    0.6670   -1.7650   27.7380 C   0  0  2  0  0  0  0  0  0  0  0  0
    0.0510   -0.5960   26.9440 C   0  0  0  0  0  0  0  0  0  0  0  0
    1.0980    0.4870   26.8070 C   0  0  0  0  0  0  0  0  0  0  0  0
    0.9830    1.1920   25.5620 O   0  0  0  0  0  0  0  0  0  0  0  0
    2.0280    0.7290   27.8080 C   0  0  0  0  0  0  0  0  0  0  0  0
    2.9140    1.8080   27.7780 C   0  0  0  0  0  0  0  0  0  0  0  0
    3.0010    2.7540   26.7960 O   0  0  0  0  0  0  0  0  0  0  0  0
    3.8350    2.0310   28.7990 C   0  0  0  0  0  0  0  0  0  0  0  0
    3.8550    1.0710   29.9510 C   0  0  0  0  0  0  0  0  0  0  0  0
    4.7060    1.1670   31.0260 O   0  0  0  0  0  0  0  0  0  0  0  0
    4.1160    1.0430   32.3410 C   0  0  2  0  0  0  0  0  0  0  0  0
    3.2220    2.1470   32.5710 O   0  0  0  0  0  0  0  0  0  0  0  0
    3.8050    3.3970   32.9820 C   0  0  2  0  0  0  0  0  0  0  0  0
    3.1880    4.5150   32.1570 C   0  0  0  0  0  0  0  0  0  0  0  0
    2.7570    5.5560   33.0470 O   0  0  0  0  0  0  0  0  0  0  0  0
    1.4510    6.0480   32.7300 C   0  0  2  0  0  0  0  0  0  0  0  0
    1.4240    6.8530   31.5420 O   0  0  0  0  0  0  0  0  0  0  0  0
    2.0610    8.1330   31.6930 C   0  0  1  0  0  0  0  0  0  0  0  0
    1.9980    8.7810   30.4640 C   0  0  0  0  0  0  0  0  0  0  0  0
    1.3830    8.9470   32.8030 C   0  0  2  0  0  0  0  0  0  0  0  0
    2.0040   10.2250   32.9730 O   0  0  0  0  0  0  0  0  0  0  0  0
    1.4480    8.2320   33.9990 C   0  0  1  0  0  0  0  0  0  0  0  0
    0.7530    8.9930   35.0060 O   0  0  0  0  0  0  0  0  0  0  0  0
    0.8630    6.8350   33.9260 C   0  0  1  0  0  0  0  0  0  0  0  0
   -0.5720    6.9690   33.8340 O   0  0  0  0  0  0  0  0  0  0  0  0
    5.3430    3.3790   32.9340 C   0  0  1  0  0  0  0  0  0  0  0  0
    5.8380    4.5290   33.6520 O   0  0  0  0  0  0  0  0  0  0  0  0
    5.8690    2.2530   33.5600 C   0  0  2  0  0  0  0  0  0  0  0  0
    7.2530    2.1380   33.2080 O   0  0  0  0  0  0  0  0  0  0  0  0
    5.2790    0.9990   33.3570 C   0  0  1  0  0  0  0  0  0  0  0  0
    4.8710    0.4730   34.6310 O   0  0  0  0  0  0  0  0  0  0  0  0
    2.9540   -0.0000   29.9450 C   0  0  0  0  0  0  0  0  0  0  0  0
    2.0480   -0.1670   28.8820 C   0  0  0  0  0  0  0  0  0  0  0  0
    1.2020   -1.2510   28.9840 O   0  0  0  0  0  0  0  0  0  0  0  0
    1.5310   -3.7870   26.3480 C   0  0  0  0  0  0  0  0  0  0  0  0
    2.5020   -4.5120   25.6510 C   0  0  0  0  0  0  0  0  0  0  0  0
    2.1690   -5.7270   25.1120 O   0  0  0  0  0  0  0  0  0  0  0  0
  1  2  1  0
  2  3  1  0
  3  4  2  0
  4  5  1  0
  5  6  2  0
  7  6  1  6
  7  8  1  0
  8  9  1  0
  9 10  2  0
  9 11  1  0
 11 12  2  0
 12 13  1  0
 12 14  1  0
 14 15  2  0
 15 16  1  0
 17 16  1  6
 17 18  1  0
 18 19  1  0
 19 20  1  6
 20 21  1  0
 22 21  1  1
 22 23  1  0
 23 24  1  0
 24 25  1  6
 24 26  1  0
 26 27  1  1
 26 28  1  0
 28 29  1  1
 22 30  1  0
 28 30  1  0
 30 31  1  6
 19 32  1  0
 32 33  1  1
 32 34  1  0
 34 35  1  6
 17 36  1  0
 34 36  1  0
 36 37  1  1
 15 38  1  0
 11 39  1  0
 38 39  2  0
  7 40  1  0
 39 40  1  0
  6 41  1  0
  3 42  1  0
 41 42  2  0
 42 43  1  0
M  END
