PAF-PIO-d312ccf6-4
     RDKit          3D

 22 24  0  0  0  0  0  0  0  0999 V2000
    5.7130   -5.8140   27.3840 C   0  0  0  0  0  0  0  0  0  0  0  0
    5.0300   -5.3930   26.2040 O   0  0  0  0  0  0  0  0  0  0  0  0
    4.1290   -4.3600   26.3070 C   0  0  0  0  0  0  0  0  0  0  0  0
    4.4930   -2.8710   26.2530 C   0  0  0  0  0  0  0  0  0  0  0  0
    3.4730   -1.9390   26.3700 C   0  0  0  0  0  0  0  0  0  0  0  0
    2.1400   -2.2810   26.5370 C   0  0  0  0  0  0  0  0  0  0  0  0
    1.1440   -1.3130   26.6530 C   0  0  2  0  0  0  0  0  0  0  0  0
    0.8860   -0.6710   25.4080 C   0  0  0  0  0  0  0  0  0  0  0  0
    0.8580    0.7300   25.3860 C   0  0  0  0  0  0  0  0  0  0  0  0
   -0.1200    1.4140   24.7040 O   0  0  0  0  0  0  0  0  0  0  0  0
    1.9490    1.3930   26.1430 C   0  0  0  0  0  0  0  0  0  0  0  0
    2.6570    2.5440   25.8500 C   0  0  0  0  0  0  0  0  0  0  0  0
    2.4380    3.3000   24.7320 O   0  0  0  0  0  0  0  0  0  0  0  0
    3.6410    2.9420   26.7550 C   0  0  0  0  0  0  0  0  0  0  0  0
    3.9560    2.2470   27.9400 C   0  0  0  0  0  0  0  0  0  0  0  0
    4.9290    2.6770   28.7980 O   0  0  0  0  0  0  0  0  0  0  0  0
    3.2460    1.0660   28.2560 C   0  0  0  0  0  0  0  0  0  0  0  0
    2.2410    0.6030   27.3950 C   0  0  0  0  0  0  0  0  0  0  0  0
    1.6380   -0.4290   27.7030 O   0  0  0  0  0  0  0  0  0  0  0  0
    1.8040   -3.6470   26.5890 C   0  0  0  0  0  0  0  0  0  0  0  0
    2.7680   -4.6700   26.4750 C   0  0  0  0  0  0  0  0  0  0  0  0
    2.3770   -5.9840   26.5300 O   0  0  0  0  0  0  0  0  0  0  0  0
  1  2  1  0
  2  3  1  0
  3  4  2  0
  4  5  1  0
  5  6  2  0
  7  6  1  6
  7  8  1  0
  8  9  1  0
  9 10  2  0
  9 11  1  0
 11 12  2  0
 12 13  1  0
 12 14  1  0
 14 15  2  0
 15 16  1  0
 15 17  1  0
 11 18  1  0
 17 18  2  0
  7 19  1  0
 18 19  1  0
  6 20  1  0
  3 21  1  0
 20 21  2  0
 21 22  1  0
M  END
