PAT-GYR-359dbb24-5
     RDKit          3D

 21 22  0  0  0  0  0  0  0  0999 V2000
    7.4850    3.5060   24.4460 O   0  0  0  0  0  0  0  0  0  0  0  0
    7.3820    2.2950   24.3860 C   0  0  0  0  0  0  0  0  0  0  0  0
    8.3880    1.4200   24.7530 N   0  0  0  0  0  0  0  0  0  0  0  0
    9.4680    2.0320   24.0430 C   0  0  0  0  0  0  0  0  0  0  0  0
   10.3070    1.0170   23.7400 C   0  0  0  0  0  0  0  0  0  0  0  0
   11.6280    1.2540   23.8620 C   0  0  0  0  0  0  0  0  0  0  0  0
   12.5120    0.1580   23.5890 C   0  0  0  0  0  0  0  0  0  0  0  0
   12.0250   -1.0470   23.2190 C   0  0  0  0  0  0  0  0  0  0  0  0
   12.9110   -2.0050   23.0160 C   0  0  0  0  0  0  0  0  0  0  0  0
   13.8230   -1.4110   22.0990 C   0  0  0  0  0  0  0  0  0  0  0  0
   13.3420   -1.7860   20.8360 C   0  0  0  0  0  0  0  0  0  0  0  0
   12.0810   -2.2750   21.0730 C   0  0  0  0  0  0  0  0  0  0  0  0
   11.0200   -1.4080   21.2900 O   0  0  0  0  0  0  0  0  0  0  0  0
   10.6790   -1.2690   23.0530 C   0  0  0  0  0  0  0  0  0  0  0  0
    9.8120   -0.2280   23.3230 C   0  0  0  0  0  0  0  0  0  0  0  0
    6.2900    1.5330   23.8960 N   0  0  0  0  0  0  0  0  0  0  0  0
    5.5310    0.8440   24.8450 C   0  0  0  0  0  0  0  0  0  0  0  0
    4.1550    0.6650   24.6990 C   0  0  0  0  0  0  0  0  0  0  0  0
    3.5750    1.3280   23.7200 O   0  0  0  0  0  0  0  0  0  0  0  0
    4.4250    1.3270   22.5610 C   0  0  0  0  0  0  0  0  0  0  0  0
    5.6060    1.9900   22.6970 C   0  0  0  0  0  0  0  0  0  0  0  0
  1  2  2  0
  2  3  1  0
  3  4  1  0
  4  5  1  0
  5  6  2  0
  6  7  1  0
  7  8  2  0
  8  9  1  0
  9 10  3  0
 10 11  1  0
 11 12  1  0
 12 13  1  0
  8 14  1  0
  5 15  1  0
 14 15  2  0
  2 16  1  0
 16 17  1  0
 17 18  1  0
 18 19  1  0
 19 20  1  0
 16 21  1  0
 20 21  1  0
M  END
