PAT-UNK-b2d83456-4
     RDKit          3D

 25 27  0  0  0  0  0  0  0  0999 V2000
    8.9980    6.6530   22.5490 C   0  0  0  0  0  0  0  0  0  0  0  0
   10.1670    6.1870   23.3190 C   0  0  0  0  0  0  0  0  0  0  0  0
   10.2000    6.3190   24.5430 O   0  0  0  0  0  0  0  0  0  0  0  0
   11.1890    5.6060   22.5800 N   0  0  0  0  0  0  0  0  0  0  0  0
   12.2380    4.8570   23.2870 C   0  0  0  0  0  0  0  0  0  0  0  0
   12.5560    3.6560   22.6420 C   0  0  0  0  0  0  0  0  0  0  0  0
   11.8040    2.4770   22.8690 C   0  0  0  0  0  0  0  0  0  0  0  0
   10.4260    2.4090   23.1430 C   0  0  0  0  0  0  0  0  0  0  0  0
    9.9200    1.0300   23.3180 N   0  0  0  0  0  0  0  0  0  0  0  0
   11.1210    0.1870   23.1350 C   0  0  0  0  0  0  0  0  0  0  0  0
   10.0290   -0.7050   23.3980 C   0  0  0  0  0  0  0  0  0  0  0  0
    9.4360   -2.0550   23.5820 C   0  0  0  0  0  0  0  0  0  0  0  0
    8.3590   -2.4010   22.7820 N   0  0  0  0  0  0  0  0  0  0  0  0
    7.3310   -3.2770   22.9590 C   0  0  0  0  0  0  0  0  0  0  0  0
    6.1170   -3.0810   22.2690 C   0  0  0  0  0  0  0  0  0  0  0  0
    6.2230   -2.4250   21.0990 N   0  0  0  0  0  0  0  0  0  0  0  0
    5.7970   -2.9200   19.8750 C   0  0  0  0  0  0  0  0  0  0  0  0
    5.9450   -2.0630   18.7780 C   0  0  0  0  0  0  0  0  0  0  0  0
    5.3280   -4.0610   19.7230 O   0  0  0  0  0  0  0  0  0  0  0  0
    7.2710   -1.4020   21.0400 C   0  0  0  0  0  0  0  0  0  0  0  0
    7.9040   -1.2560   22.2470 C   0  0  0  0  0  0  0  0  0  0  0  0
   11.3280   -1.5180   23.1850 C   0  0  0  0  0  0  0  0  0  0  0  0
   12.6630   -0.9990   22.8960 C   0  0  0  0  0  0  0  0  0  0  0  0
   13.2990    0.4400   22.6960 C   0  0  0  0  0  0  0  0  0  0  0  0
   12.1070    1.1100   22.8910 C   0  0  0  0  0  0  0  0  0  0  0  0
  1  2  1  0
  2  3  2  0
  2  4  1  0
  4  5  1  0
  5  6  1  0
  6  7  1  0
  7  8  2  0
  8  9  1  0
  9 10  1  0
 10 11  1  0
 11 12  1  0
 12 13  1  0
 13 14  1  0
 14 15  1  0
 15 16  1  0
 16 17  1  0
 17 18  1  0
 17 19  2  0
 16 20  1  0
 13 21  1  0
 20 21  1  0
 11 22  2  0
 22 23  1  0
 23 24  2  0
  7 25  1  0
 10 25  2  0
 24 25  1  0
M  END
