PAU-UNI-6d15a9f5-3
     RDKit          3D

 25 28  0  0  0  0  0  0  0  0999 V2000
    6.2800    4.0720   -3.2860 C   0  0  0  0  0  0  0  0  0  0  0  0
    5.9840    4.0830   -4.5840 N   0  0  0  0  0  0  0  0  0  0  0  0
    6.5880    3.1860   -5.3450 C   0  0  0  0  0  0  0  0  0  0  0  0
    6.0770    3.5190   -6.5280 C   0  0  0  0  0  0  0  0  0  0  0  0
    5.1790    4.5710   -6.5630 C   0  0  0  0  0  0  0  0  0  0  0  0
    5.1090    4.9430   -5.2520 N   0  0  0  0  0  0  0  0  0  0  0  0
    4.5850    5.0000   -7.8450 C   0  0  0  0  0  0  0  0  0  0  0  0
    3.4670    5.4480   -8.0760 O   0  0  0  0  0  0  0  0  0  0  0  0
    5.5180    4.8460   -8.8180 N   0  0  0  0  0  0  0  0  0  0  0  0
    5.8360    6.0800   -9.3890 C   0  0  0  0  0  0  0  0  0  0  0  0
    6.1180    6.8950   -8.3150 C   0  0  2  0  0  0  0  0  0  0  0  0
    6.6170    8.1210   -8.7040 C   0  0  0  0  0  0  0  0  0  0  0  0
    7.9520    8.0050   -8.6520 C   0  0  0  0  0  0  0  0  0  0  0  0
    8.0390    6.4720   -8.6540 C   0  0  0  0  0  0  0  0  0  0  0  0
    7.1590    6.2430   -7.6380 O   0  0  0  0  0  0  0  0  0  0  0  0
    6.6510    4.0110   -8.5820 C   0  0  0  0  0  0  0  0  0  0  0  0
    6.4140    2.8990   -7.6250 N   0  0  0  0  0  0  0  0  0  0  0  0
    7.0490    1.6070   -7.4970 C   0  0  0  0  0  0  0  0  0  0  0  0
    6.0640    0.7480   -6.9950 C   0  0  0  0  0  0  0  0  0  0  0  0
    6.4030   -0.5660   -7.1390 C   0  0  0  0  0  0  0  0  0  0  0  0
    5.4960   -1.6090   -7.3390 C   0  0  0  0  0  0  0  0  0  0  0  0
    5.9070   -2.9100   -7.5320 C   0  0  0  0  0  0  0  0  0  0  0  0
    7.2590   -3.1660   -7.5130 C   0  0  0  0  0  0  0  0  0  0  0  0
    8.1910   -2.1200   -7.2630 C   0  0  0  0  0  0  0  0  0  0  0  0
    7.7550   -0.8310   -7.0890 C   0  0  0  0  0  0  0  0  0  0  0  0
  1  2  1  0
  2  3  1  0
  3  4  2  0
  4  5  1  0
  2  6  1  0
  5  6  2  0
  5  7  1  0
  7  8  2  0
  7  9  1  0
  9 10  1  0
 11 10  1  6
 11 12  1  0
 12 13  1  0
 13 14  1  0
 11 15  1  0
 14 15  1  0
  9 16  1  0
  4 17  1  0
 16 17  1  0
 17 18  1  0
 18 19  1  0
 19 20  1  0
 20 21  2  0
 21 22  1  0
 22 23  2  0
 23 24  1  0
 20 25  1  0
 24 25  2  0
M  END
