PAU-UNI-d269d79c-2
     RDKit          3D

 28 31  0  0  0  0  0  0  0  0999 V2000
   -0.4550   -0.3280   30.4110 C   0  0  0  0  0  0  0  0  0  0  0  0
    0.4920   -0.9470   29.6810 C   0  0  0  0  0  0  0  0  0  0  0  0
    0.1450   -1.7940   28.5280 C   0  0  0  0  0  0  0  0  0  0  0  0
    1.2700   -2.4870   27.7230 C   0  0  0  0  0  0  0  0  0  0  0  0
    0.9310   -3.1990   26.7500 O   0  0  0  0  0  0  0  0  0  0  0  0
    1.8860   -4.2010   26.3330 C   0  0  0  0  0  0  0  0  0  0  0  0
    3.2190   -4.0750   26.6180 C   0  0  0  0  0  0  0  0  0  0  0  0
    3.7000   -2.9800   27.3170 C   0  0  0  0  0  0  0  0  0  0  0  0
    5.0820   -2.6640   27.1920 O   0  0  0  0  0  0  0  0  0  0  0  0
    2.6030   -2.2900   28.1110 C   0  0  0  0  0  0  0  0  0  0  0  0
    3.0400   -1.4240   29.2950 C   0  0  0  0  0  0  0  0  0  0  0  0
    1.9260   -0.7490   30.0780 C   0  0  0  0  0  0  0  0  0  0  0  0
    2.3680    0.2390   31.4250 Cl  0  0  0  0  0  0  0  0  0  0  0  0
    3.9500   -5.1450   26.1530 C   0  0  1  0  0  0  0  0  0  0  0  0
    4.4770   -5.8050   27.2660 C   0  0  0  0  0  0  0  0  0  0  0  0
    3.7980   -6.8870   27.8390 C   0  0  0  0  0  0  0  0  0  0  0  0
    4.3190   -7.5320   28.9550 C   0  0  0  0  0  0  0  0  0  0  0  0
    5.6120   -7.0430   29.5220 C   0  0  0  0  0  0  0  0  0  0  0  0
    6.1280   -7.6400   30.6000 F   0  0  0  0  0  0  0  0  0  0  0  0
    6.2680   -5.9670   28.9230 C   0  0  0  0  0  0  0  0  0  0  0  0
    5.7130   -5.3440   27.8040 C   0  0  0  0  0  0  0  0  0  0  0  0
    2.9320   -5.9960   25.4890 N   0  0  0  0  0  0  0  0  0  0  0  0
    3.2160   -6.8410   24.4560 C   0  0  0  0  0  0  0  0  0  0  0  0
    3.3060   -6.2060   23.2050 C   0  0  0  0  0  0  0  0  0  0  0  0
    4.3250   -5.2670   22.9530 C   0  0  0  0  0  0  0  0  0  0  0  0
    5.3720   -5.8800   22.3350 O   0  0  0  0  0  0  0  0  0  0  0  0
    1.6520   -5.3940   25.6270 C   0  0  0  0  0  0  0  0  0  0  0  0
    0.5700   -5.7910   25.2320 O   0  0  0  0  0  0  0  0  0  0  0  0
  1  2  1  0
  2  3  2  0
  3  4  1  0
  4  5  1  0
  5  6  1  0
  6  7  2  0
  7  8  1  0
  8  9  2  0
  4 10  2  0
  8 10  1  0
 10 11  1  0
  2 12  1  0
 11 12  2  0
 12 13  1  0
  7 14  1  0
 14 15  1  1
 15 16  2  0
 16 17  1  0
 17 18  2  0
 18 19  1  0
 18 20  1  0
 15 21  1  0
 20 21  2  0
 14 22  1  0
 22 23  1  0
 23 24  1  0
 24 25  1  0
 25 26  1  0
  6 27  1  0
 22 27  1  0
 27 28  2  0
M  END
