PAU-UNI-589039f7-1
     RDKit          3D

 28 31  0  0  0  0  0  0  0  0999 V2000
   11.6830   -3.1680   24.4260 C   0  0  0  0  0  0  0  0  0  0  0  0
   10.8090   -2.3620   23.5960 C   0  0  0  0  0  0  0  0  0  0  0  0
    9.5420   -2.0500   24.0670 C   0  0  0  0  0  0  0  0  0  0  0  0
    8.7090   -1.2780   23.3640 C   0  0  0  0  0  0  0  0  0  0  0  0
    7.4780   -0.9870   23.9070 O   0  0  0  0  0  0  0  0  0  0  0  0
    7.0910    0.2750   23.5660 C   0  0  0  0  0  0  0  0  0  0  0  0
    7.3380    0.8530   22.4040 C   0  0  0  0  0  0  0  0  0  0  0  0
    8.0870    0.0410   21.4590 C   0  0  0  0  0  0  0  0  0  0  0  0
    7.8630    0.0550   20.2650 O   0  0  0  0  0  0  0  0  0  0  0  0
    9.1020   -0.8080   22.1520 C   0  0  0  0  0  0  0  0  0  0  0  0
   10.3370   -1.1200   21.6640 C   0  0  0  0  0  0  0  0  0  0  0  0
   11.2170   -1.8850   22.3660 C   0  0  0  0  0  0  0  0  0  0  0  0
   12.7680   -2.1860   21.6790 Cl  0  0  0  0  0  0  0  0  0  0  0  0
    6.8160    2.2420   22.2960 C   0  0  1  0  0  0  0  0  0  0  0  0
    5.5330    2.4160   21.4980 C   0  0  0  0  0  0  0  0  0  0  0  0
    4.7700    1.3330   21.0180 C   0  0  0  0  0  0  0  0  0  0  0  0
    3.5920    1.5530   20.2980 C   0  0  0  0  0  0  0  0  0  0  0  0
    3.1660    2.8490   20.0510 C   0  0  0  0  0  0  0  0  0  0  0  0
    2.0340    3.0580   19.3640 F   0  0  0  0  0  0  0  0  0  0  0  0
    3.9010    3.9340   20.5100 C   0  0  0  0  0  0  0  0  0  0  0  0
    5.0770    3.7200   21.2290 C   0  0  0  0  0  0  0  0  0  0  0  0
    6.5770    2.4760   23.7170 N   0  0  0  0  0  0  0  0  0  0  0  0
    7.0470    3.6820   24.3860 C   0  0  0  0  0  0  0  0  0  0  0  0
    6.3900    3.8940   25.7450 C   0  0  0  0  0  0  0  0  0  0  0  0
    5.7110    5.2560   25.8390 C   0  0  0  0  0  0  0  0  0  0  0  0
    5.8710    5.8210   27.1300 O   0  0  0  0  0  0  0  0  0  0  0  0
    6.3610    1.2650   24.3710 C   0  0  0  0  0  0  0  0  0  0  0  0
    5.7190    1.0410   25.3830 O   0  0  0  0  0  0  0  0  0  0  0  0
  1  2  1  0
  2  3  2  0
  3  4  1  0
  4  5  1  0
  5  6  1  0
  6  7  2  0
  7  8  1  0
  8  9  2  0
  4 10  2  0
  8 10  1  0
 10 11  1  0
  2 12  1  0
 11 12  2  0
 12 13  1  0
  7 14  1  0
 14 15  1  6
 15 16  2  0
 16 17  1  0
 17 18  2  0
 18 19  1  0
 18 20  1  0
 15 21  1  0
 20 21  2  0
 14 22  1  0
 22 23  1  0
 23 24  1  0
 24 25  1  0
 25 26  1  0
  6 27  1  0
 22 27  1  0
 27 28  2  0
M  END
