PAU-UNI-589039f7-2
     RDKit          3D

 28 31  0  0  0  0  0  0  0  0999 V2000
    9.9700   -2.7320   23.4440 C   0  0  0  0  0  0  0  0  0  0  0  0
   10.6440   -1.4220   23.2650 C   0  0  0  0  0  0  0  0  0  0  0  0
    9.7840   -0.2500   23.2730 C   0  0  0  0  0  0  0  0  0  0  0  0
   10.3190    1.1230   23.1110 C   0  0  0  0  0  0  0  0  0  0  0  0
    9.3870    1.9190   23.1610 O   0  0  0  0  0  0  0  0  0  0  0  0
    9.6680    3.0770   23.7730 C   0  0  0  0  0  0  0  0  0  0  0  0
   10.8090    3.6850   23.6520 C   0  0  0  0  0  0  0  0  0  0  0  0
   11.8570    3.0010   22.8370 C   0  0  0  0  0  0  0  0  0  0  0  0
   12.7920    3.6910   22.1270 O   0  0  0  0  0  0  0  0  0  0  0  0
   11.6700    1.4620   22.9400 C   0  0  0  0  0  0  0  0  0  0  0  0
   12.6960    0.3330   22.9030 C   0  0  0  0  0  0  0  0  0  0  0  0
   12.1260   -1.0840   23.0710 C   0  0  0  0  0  0  0  0  0  0  0  0
   13.3340   -2.3560   23.0380 Cl  0  0  0  0  0  0  0  0  0  0  0  0
   10.9200    4.9200   24.4010 C   0  0  1  0  0  0  0  0  0  0  0  0
   10.1980    6.0310   24.1360 C   0  0  0  0  0  0  0  0  0  0  0  0
   10.4910    7.1180   25.0150 C   0  0  0  0  0  0  0  0  0  0  0  0
    9.7600    8.2250   24.8580 C   0  0  0  0  0  0  0  0  0  0  0  0
    8.6960    8.3150   23.8110 C   0  0  0  0  0  0  0  0  0  0  0  0
    7.7680    9.7600   23.7010 Cl  0  0  0  0  0  0  0  0  0  0  0  0
    8.4740    7.2240   22.9560 C   0  0  0  0  0  0  0  0  0  0  0  0
    9.2190    6.0810   23.1140 C   0  0  0  0  0  0  0  0  0  0  0  0
    9.9690    4.4570   25.4600 N   0  0  0  0  0  0  0  0  0  0  0  0
    9.6170    5.2580   26.5690 C   0  0  0  0  0  0  0  0  0  0  0  0
   10.7100    5.8270   27.4020 C   0  0  0  0  0  0  0  0  0  0  0  0
   10.1010    7.2520   27.7500 C   0  0  0  0  0  0  0  0  0  0  0  0
    9.5390    7.3200   28.8440 O   0  0  0  0  0  0  0  0  0  0  0  0
    8.9250    3.8760   24.7250 C   0  0  0  0  0  0  0  0  0  0  0  0
    7.7160    3.9830   24.8300 O   0  0  0  0  0  0  0  0  0  0  0  0
  1  2  1  0
  2  3  2  0
  3  4  1  0
  4  5  1  0
  5  6  1  0
  6  7  2  0
  7  8  1  0
  8  9  2  0
  4 10  2  0
  8 10  1  0
 10 11  1  0
  2 12  1  0
 11 12  2  0
 12 13  1  0
  7 14  1  0
 14 15  1  6
 15 16  2  0
 16 17  1  0
 17 18  2  0
 18 19  1  0
 18 20  1  0
 15 21  1  0
 20 21  2  0
 14 22  1  0
 22 23  1  0
 23 24  1  0
 24 25  1  0
 25 26  1  0
  6 27  1  0
 22 27  1  0
 27 28  2  0
M  END
