PAU-UNI-6d15a9f5-6
     RDKit          3D

 53 55  0  0  0  0  0  0  0  0999 V2000
    7.1200   -0.2570   -4.9980 C   0  0  0  0  0  0  0  0  0  0  0  0
    8.1440   -1.0260   -4.7020 C   0  0  0  0  0  0  0  0  0  0  0  0
    9.5270   -0.6350   -4.1740 C   0  0  0  0  0  0  0  0  0  0  0  0
    8.8190   -1.3620   -5.9470 C   0  0  0  0  0  0  0  0  0  0  0  0
    9.9960   -1.0280   -5.2600 C   0  0  2  0  0  0  0  0  0  0  0  0
   11.2840   -1.5420   -4.7520 C   0  0  0  0  0  0  0  0  0  0  0  0
   12.3440   -0.9820   -5.1020 O   0  0  0  0  0  0  0  0  0  0  0  0
   13.4050   -0.8650   -4.1500 C   0  0  0  0  0  0  0  0  0  0  0  0
   14.8130   -1.4030   -4.4860 C   0  0  1  0  0  0  0  0  0  0  0  0
   14.9140   -1.9820   -5.9030 C   0  0  0  0  0  0  0  0  0  0  0  0
   15.8970   -1.1240   -6.6210 C   0  0  0  0  0  0  0  0  0  0  0  0
   16.3520   -0.2000   -5.7080 C   0  0  1  0  0  0  0  0  0  0  0  0
   16.2570    1.1630   -6.0350 C   0  0  0  0  0  0  0  0  0  0  0  0
   17.0940    1.5460   -7.1650 N   0  0  0  0  0  0  0  0  0  0  0  0
   16.6960    2.4970   -8.0880 C   0  0  0  0  0  0  0  0  0  0  0  0
   15.7950    3.2990   -7.8810 O   0  0  0  0  0  0  0  0  0  0  0  0
   17.4260    2.4490   -9.2850 C   0  0  0  0  0  0  0  0  0  0  0  0
   16.7750    2.4480  -10.6440 C   0  0  0  0  0  0  0  0  0  0  0  0
   17.8060    2.3920  -11.5130 C   0  0  0  0  0  0  0  0  0  0  0  0
   19.0420    2.3590  -10.7710 N   0  0  0  0  0  0  0  0  0  0  0  0
   20.3400    2.2990  -11.4440 C   0  0  0  0  0  0  0  0  0  0  0  0
   18.8100    2.3950   -9.4120 N   0  0  0  0  0  0  0  0  0  0  0  0
   15.8150   -0.3330   -4.4450 O   0  0  0  0  0  0  0  0  0  0  0  0
    9.2160   -0.3280   -4.2350 C   0  0  0  0  0  0  0  0  0  0  0  0
   10.0280   -0.0250   -3.1640 O   0  0  0  0  0  0  0  0  0  0  0  0
    7.7110    0.1080   -4.5080 N   0  0  0  0  0  0  0  0  0  0  0  0
    7.0980    1.5030   -4.6110 C   0  0  1  0  0  0  0  0  0  0  0  0
    6.5510    2.0450   -5.8480 C   0  0  0  0  0  0  0  0  0  0  0  0
    5.9740    3.1320   -5.7180 O   0  0  0  0  0  0  0  0  0  0  0  0
    6.6080    1.5180   -7.1420 N   0  0  0  0  0  0  0  0  0  0  0  0
    5.6770    0.5120   -7.3390 C   0  0  2  0  0  0  0  0  0  0  0  0
    6.1860    0.2810   -6.2660 C   0  0  0  0  0  0  0  0  0  0  0  0
    6.4110   -0.8360   -6.1920 C   0  0  0  0  0  0  0  0  0  0  0  0
    5.3250   -1.7500   -6.0000 C   0  0  0  0  0  0  0  0  0  0  0  0
    5.4820   -2.9910   -5.9840 C   0  0  0  0  0  0  0  0  0  0  0  0
    6.6930   -3.2880   -6.1910 C   0  0  0  0  0  0  0  0  0  0  0  0
    7.8420   -2.3210   -6.3810 C   0  0  0  0  0  0  0  0  0  0  0  0
    7.6170   -1.0210   -6.3460 C   0  0  0  0  0  0  0  0  0  0  0  0
    5.8170    0.1460   -8.9350 C   0  0  0  0  0  0  0  0  0  0  0  0
    6.6270    1.0280   -8.8110 O   0  0  0  0  0  0  0  0  0  0  0  0
    4.8380   -0.4250  -10.6640 N   0  0  0  0  0  0  0  0  0  0  0  0
    3.9090   -1.5220  -11.7700 C   0  0  1  0  0  0  0  0  0  0  0  0
    4.2110   -2.9280  -11.8390 C   0  0  0  0  0  0  0  0  0  0  0  0
    4.8460   -3.4630  -12.9580 C   0  0  0  0  0  0  0  0  0  0  0  0
    4.8000   -4.8490  -13.1490 C   0  0  0  0  0  0  0  0  0  0  0  0
    5.2230   -5.2770  -14.3680 N   0  0  0  0  0  0  0  0  0  0  0  0
    4.4060   -5.6430  -12.2950 O   0  0  0  0  0  0  0  0  0  0  0  0
    2.3440   -1.4050  -11.6490 C   0  0  0  0  0  0  0  0  0  0  0  0
    1.7230   -0.3500  -11.6490 O   0  0  0  0  0  0  0  0  0  0  0  0
    1.6870   -2.5860  -11.5610 O   0  0  0  0  0  0  0  0  0  0  0  0
    5.8650    2.1840   -3.9950 C   0  0  1  0  0  0  0  0  0  0  0  0
    6.1920    3.6350   -3.5950 C   0  0  0  0  0  0  0  0  0  0  0  0
    4.8710    2.2190   -5.0110 O   0  0  0  0  0  0  0  0  0  0  0  0
  1  2  1  0
  2  3  1  0
  2  4  1  0
  5  4  1  1
  5  6  1  0
  6  7  1  0
  7  8  1  0
  9  8  1  6
  9 10  1  0
 10 11  1  0
 11 12  1  0
 12 13  1  6
 13 14  1  0
 14 15  1  0
 15 16  2  0
 15 17  1  0
 17 18  1  0
 18 19  2  0
 19 20  1  0
 20 21  1  0
 17 22  2  0
 20 22  1  0
  9 23  1  0
 12 23  1  0
  5 24  1  0
 24 25  2  0
 24 26  1  0
 27 26  1  6
 27 28  1  0
 28 29  2  0
 28 30  1  0
 30 31  1  0
 31 32  1  1
 32 33  1  0
 33 34  2  0
 34 35  1  0
 35 36  2  0
 36 37  1  0
 33 38  1  0
 37 38  2  0
 31 39  1  0
 39 40  2  0
 39 41  1  0
 41 42  1  0
 42 43  1  1
 43 44  1  0
 44 45  1  0
 45 46  1  0
 45 47  2  0
 42 48  1  0
 48 49  2  0
 48 50  1  0
 27 51  1  0
 51 52  1  6
 51 53  1  0
M  END
