PAU-UNI-d269d79c-3
     RDKit          3D

 28 31  0  0  0  0  0  0  0  0999 V2000
   -1.8340    0.4220   26.0250 C   0  0  0  0  0  0  0  0  0  0  0  0
   -0.5730   -0.4630   26.2080 C   0  0  0  0  0  0  0  0  0  0  0  0
   -0.7930   -1.9700   26.1490 C   0  0  0  0  0  0  0  0  0  0  0  0
    0.2760   -2.8460   26.2990 C   0  0  0  0  0  0  0  0  0  0  0  0
    0.0820   -4.1990   26.2510 O   0  0  0  0  0  0  0  0  0  0  0  0
    1.2210   -5.0780   26.2190 C   0  0  0  0  0  0  0  0  0  0  0  0
    2.4650   -4.5330   26.4180 C   0  0  0  0  0  0  0  0  0  0  0  0
    2.6520   -3.1670   26.6530 C   0  0  0  0  0  0  0  0  0  0  0  0
    3.7650   -2.7460   26.9890 O   0  0  0  0  0  0  0  0  0  0  0  0
    1.5550   -2.2980   26.5020 C   0  0  0  0  0  0  0  0  0  0  0  0
    1.8040   -0.7970   26.5670 C   0  0  0  0  0  0  0  0  0  0  0  0
    0.7030    0.0490   26.4140 C   0  0  0  0  0  0  0  0  0  0  0  0
    0.9790    1.7540   26.4870 Cl  0  0  0  0  0  0  0  0  0  0  0  0
    3.5380   -5.4530   26.3700 C   0  0  1  0  0  0  0  0  0  0  0  0
    4.0440   -5.8750   27.6090 C   0  0  0  0  0  0  0  0  0  0  0  0
    3.3790   -6.8960   28.3100 C   0  0  0  0  0  0  0  0  0  0  0  0
    3.8260   -7.3530   29.5600 C   0  0  0  0  0  0  0  0  0  0  0  0
    4.9660   -6.8130   30.1750 C   0  0  0  0  0  0  0  0  0  0  0  0
    5.5340   -7.4260   31.8660 Br  0  0  0  0  0  0  0  0  0  0  0  0
    5.6400   -5.8060   29.4870 C   0  0  0  0  0  0  0  0  0  0  0  0
    5.1940   -5.3060   28.1670 C   0  0  0  0  0  0  0  0  0  0  0  0
    2.8140   -6.5780   25.6970 N   0  0  0  0  0  0  0  0  0  0  0  0
    3.2220   -6.9800   24.3570 C   0  0  0  0  0  0  0  0  0  0  0  0
    3.2660   -6.0160   23.6160 C   0  0  0  0  0  0  0  0  0  0  0  0
    4.5240   -5.4320   23.3480 C   0  0  0  0  0  0  0  0  0  0  0  0
    5.0110   -5.6880   22.0380 O   0  0  0  0  0  0  0  0  0  0  0  0
    1.4500   -6.5480   26.0030 C   0  0  0  0  0  0  0  0  0  0  0  0
    0.6280   -7.4440   26.0790 O   0  0  0  0  0  0  0  0  0  0  0  0
  1  2  1  0
  2  3  2  0
  3  4  1  0
  4  5  1  0
  5  6  1  0
  6  7  2  0
  7  8  1  0
  8  9  2  0
  4 10  2  0
  8 10  1  0
 10 11  1  0
  2 12  1  0
 11 12  2  0
 12 13  1  0
  7 14  1  0
 14 15  1  1
 15 16  2  0
 16 17  1  0
 17 18  2  0
 18 19  1  0
 18 20  1  0
 15 21  1  0
 20 21  2  0
 14 22  1  0
 22 23  1  0
 23 24  1  0
 24 25  1  0
 25 26  1  0
  6 27  1  0
 22 27  1  0
 27 28  2  0
M  END
