PAU-UNI-6d15a9f5-7
     RDKit          3D

 44 46  0  0  0  0  0  0  0  0999 V2000
    1.0760    3.6820  -14.4400 C   0  0  0  0  0  0  0  0  0  0  0  0
    0.2350    2.6160  -14.1330 C   0  0  0  0  0  0  0  0  0  0  0  0
   -0.2000    1.8050  -15.2040 C   0  0  0  0  0  0  0  0  0  0  0  0
    0.7630    1.7510  -12.9950 C   0  0  0  0  0  0  0  0  0  0  0  0
    0.4190    1.9860  -11.5360 C   0  0  2  0  0  0  0  0  0  0  0  0
   -0.8380    1.4290  -11.2840 C   0  0  0  0  0  0  0  0  0  0  0  0
   -0.9230    0.1600  -11.7700 O   0  0  0  0  0  0  0  0  0  0  0  0
   -1.0540   -0.8870  -10.8200 C   0  0  0  0  0  0  0  0  0  0  0  0
   -2.0860   -1.8200  -10.9310 C   0  0  1  0  0  0  0  0  0  0  0  0
   -3.2630   -1.4140  -10.3120 C   0  0  0  0  0  0  0  0  0  0  0  0
   -4.3890   -1.5010  -11.3400 C   0  0  0  0  0  0  0  0  0  0  0  0
   -3.8100   -1.9290  -12.5050 C   0  0  1  0  0  0  0  0  0  0  0  0
   -4.0100   -1.1560  -13.6620 C   0  0  0  0  0  0  0  0  0  0  0  0
   -5.0730   -1.6650  -14.5440 N   0  0  0  0  0  0  0  0  0  0  0  0
   -5.8510   -0.5950  -15.2570 C   0  0  0  0  0  0  0  0  0  0  0  0
   -6.3530    0.4220  -14.7760 O   0  0  0  0  0  0  0  0  0  0  0  0
   -6.0750   -0.7010  -16.6350 C   0  0  0  0  0  0  0  0  0  0  0  0
   -7.0190   -0.0120  -17.4020 C   0  0  0  0  0  0  0  0  0  0  0  0
   -6.8540   -0.4510  -18.6910 C   0  0  0  0  0  0  0  0  0  0  0  0
   -5.7840   -1.4270  -18.6960 N   0  0  0  0  0  0  0  0  0  0  0  0
   -5.3790   -2.0750  -19.9510 C   0  0  0  0  0  0  0  0  0  0  0  0
   -5.2640   -1.6210  -17.4450 N   0  0  0  0  0  0  0  0  0  0  0  0
   -2.4340   -2.0870  -12.3380 O   0  0  0  0  0  0  0  0  0  0  0  0
    0.4930    3.3930  -10.8970 C   0  0  0  0  0  0  0  0  0  0  0  0
   -0.5790    3.7520  -10.4150 O   0  0  0  0  0  0  0  0  0  0  0  0
    1.8930    4.3340  -10.7160 N   0  0  0  0  0  0  0  0  0  0  0  0
    3.1620    5.1170   -8.3320 C   0  0  1  0  0  0  0  0  0  0  0  0
    4.7340    4.8930   -7.2340 C   0  0  0  0  0  0  0  0  0  0  0  0
    4.6940    4.4440   -6.1030 O   0  0  0  0  0  0  0  0  0  0  0  0
    5.9900    3.9790   -7.0960 N   0  0  0  0  0  0  0  0  0  0  0  0
    6.0940    2.4680   -6.1830 C   0  0  2  0  0  0  0  0  0  0  0  0
    5.6040    1.1040   -6.4270 C   0  0  0  0  0  0  0  0  0  0  0  0
    6.2550   -0.1510   -6.3330 C   0  0  0  0  0  0  0  0  0  0  0  0
    5.4520   -1.2750   -6.1920 C   0  0  0  0  0  0  0  0  0  0  0  0
    5.7610   -2.4870   -6.1060 C   0  0  0  0  0  0  0  0  0  0  0  0
    7.0980   -2.6250   -6.1700 C   0  0  0  0  0  0  0  0  0  0  0  0
    7.9290   -1.5680   -6.2800 C   0  0  0  0  0  0  0  0  0  0  0  0
    7.6010   -0.0920   -6.4060 C   0  0  0  0  0  0  0  0  0  0  0  0
    6.1090    2.7190   -4.7010 C   0  0  0  0  0  0  0  0  0  0  0  0
    5.8690    3.7830   -4.1590 O   0  0  0  0  0  0  0  0  0  0  0  0
    6.4510    1.6340   -4.0110 O   0  0  0  0  0  0  0  0  0  0  0  0
    3.2190    6.1080   -7.1650 C   0  0  1  0  0  0  0  0  0  0  0  0
    2.5020    7.4670   -6.4550 C   0  0  0  0  0  0  0  0  0  0  0  0
    4.0810    5.0350   -6.7600 O   0  0  0  0  0  0  0  0  0  0  0  0
  1  2  1  0
  2  3  1  0
  2  4  1  0
  5  4  1  6
  5  6  1  0
  6  7  1  0
  7  8  1  0
  9  8  1  6
  9 10  1  0
 10 11  1  0
 11 12  1  0
 12 13  1  6
 13 14  1  0
 14 15  1  0
 15 16  2  0
 15 17  1  0
 17 18  1  0
 18 19  2  0
 19 20  1  0
 20 21  1  0
 17 22  2  0
 20 22  1  0
  9 23  1  0
 12 23  1  0
  5 24  1  0
 24 25  2  0
 24 26  1  0
 27 26  1  6
 27 28  1  0
 28 29  2  0
 28 30  1  0
 30 31  1  0
 31 32  1  1
 32 33  1  0
 33 34  2  0
 34 35  1  0
 35 36  2  0
 36 37  1  0
 33 38  1  0
 37 38  2  0
 31 39  1  0
 39 40  2  0
 39 41  1  0
 27 42  1  0
 42 43  1  1
 42 44  1  0
M  END
