PED-UNI-8d53fd73-1
     RDKit          3D

 23 24  0  0  0  0  0  0  0  0999 V2000
    7.1490    2.7240   21.5990 C   0  0  0  0  0  0  0  0  0  0  0  0
    6.7050    1.6890   20.6020 C   0  0  0  0  0  0  0  0  0  0  0  0
    5.7140    2.0530   19.6830 C   0  0  0  0  0  0  0  0  0  0  0  0
    5.2670    1.1360   18.7250 C   0  0  0  0  0  0  0  0  0  0  0  0
    5.7440   -0.1110   18.6340 N   0  0  0  0  0  0  0  0  0  0  0  0
    6.6930   -0.4430   19.5300 C   0  0  0  0  0  0  0  0  0  0  0  0
    7.2080    0.3930   20.5250 C   0  0  0  0  0  0  0  0  0  0  0  0
    8.1930   -0.1670   21.3660 N   0  0  0  0  0  0  0  0  0  0  0  0
    8.0110   -1.3600   22.0490 C   0  0  0  0  0  0  0  0  0  0  0  0
    7.2080   -2.2340   21.7340 O   0  0  0  0  0  0  0  0  0  0  0  0
    8.7570   -1.5240   23.1570 C   0  0  1  0  0  0  0  0  0  0  0  0
    8.4390   -2.8870   23.7050 C   0  0  0  0  0  0  0  0  0  0  0  0
    6.9630   -2.9620   24.0270 N   0  0  0  0  0  0  0  0  0  0  0  0
    6.3820   -3.9220   25.2990 S   0  0  0  0  0  0  0  0  0  0  0  0
    4.6270   -3.8520   25.2850 C   0  0  0  0  0  0  0  0  0  0  0  0
    6.7390   -5.2830   24.9140 O   0  0  0  0  0  0  0  0  0  0  0  0
    6.8180   -3.3150   26.5480 O   0  0  0  0  0  0  0  0  0  0  0  0
   10.2410   -1.1350   23.0180 C   0  0  0  0  0  0  0  0  0  0  0  0
   10.6150    0.2100   23.1710 C   0  0  0  0  0  0  0  0  0  0  0  0
   11.9350    0.6700   23.0690 C   0  0  0  0  0  0  0  0  0  0  0  0
   13.0790   -0.2660   22.7820 C   0  0  0  0  0  0  0  0  0  0  0  0
   12.6950   -1.7230   22.6110 C   0  0  0  0  0  0  0  0  0  0  0  0
   11.2390   -2.0890   22.7420 C   0  0  0  0  0  0  0  0  0  0  0  0
  1  2  1  0
  2  3  2  0
  3  4  1  0
  4  5  2  0
  5  6  1  0
  2  7  1  0
  6  7  2  0
  7  8  1  0
  8  9  1  0
  9 10  2  0
  9 11  1  0
 11 12  1  6
 12 13  1  0
 14 13  1  0
 14 15  1  0
 14 16  2  0
 14 17  2  0
 11 18  1  0
 18 19  2  0
 19 20  1  0
 20 21  2  0
 21 22  1  0
 18 23  1  0
 22 23  2  0
M  END
