PET-SGC-616b7348-1
     RDKit          3D

 25 27  0  0  0  0  0  0  0  0999 V2000
   11.5050    6.1320   23.4660 N   0  0  0  0  0  0  0  0  0  0  0  0
   10.2240    5.0710   23.7490 S   0  0  0  0  0  0  0  0  0  0  0  0
    9.7810    5.2930   25.1070 O   0  0  0  0  0  0  0  0  0  0  0  0
    9.2650    5.2050   22.6840 O   0  0  0  0  0  0  0  0  0  0  0  0
   10.9260    3.4120   23.5420 C   0  0  0  0  0  0  0  0  0  0  0  0
   10.3360    2.0580   23.9440 C   0  0  0  0  0  0  0  0  0  0  0  0
   11.0070    0.7800   23.6800 C   0  0  0  0  0  0  0  0  0  0  0  0
   12.2560    0.6810   23.0370 C   0  0  0  0  0  0  0  0  0  0  0  0
   12.5160    1.9110   22.8400 C   0  0  0  0  0  0  0  0  0  0  0  0
   12.1630    3.2450   22.9370 C   0  0  0  0  0  0  0  0  0  0  0  0
   11.2850    1.4100   23.4440 N   0  0  0  0  0  0  0  0  0  0  0  0
   10.0500    1.7640   22.8460 C   0  0  0  0  0  0  0  0  0  0  0  0
    9.1640    0.6010   22.3780 C   0  0  0  0  0  0  0  0  0  0  0  0
    7.8330    0.9040   22.3890 N   0  0  0  0  0  0  0  0  0  0  0  0
    7.4070    1.0660   21.0910 C   0  0  0  0  0  0  0  0  0  0  0  0
    7.2350    2.1630   20.5800 O   0  0  0  0  0  0  0  0  0  0  0  0
    7.1920   -0.1110   20.4110 N   0  0  0  0  0  0  0  0  0  0  0  0
    6.7000   -0.1660   19.0250 C   0  0  0  0  0  0  0  0  0  0  0  0
    5.3800   -0.6170   19.0150 C   0  0  0  0  0  0  0  0  0  0  0  0
    5.3310   -1.9330   19.4820 C   0  0  0  0  0  0  0  0  0  0  0  0
    5.8220   -2.1020   20.7810 C   0  0  0  0  0  0  0  0  0  0  0  0
    7.0340   -1.3120   21.2300 C   0  0  0  0  0  0  0  0  0  0  0  0
   11.2050    0.0220   24.1740 C   0  0  0  0  0  0  0  0  0  0  0  0
   11.8630   -1.1650   23.4460 C   0  0  0  0  0  0  0  0  0  0  0  0
   12.8990   -0.6240   22.7800 C   0  0  0  0  0  0  0  0  0  0  0  0
  2  1  1  0
  2  3  2  0
  2  4  2  0
  2  5  1  0
  5  6  2  0
  6  7  1  0
  7  8  2  0
  8  9  1  0
  5 10  1  0
  9 10  2  0
  9 11  1  0
 11 12  1  0
 12 13  1  0
 13 14  1  0
 14 15  1  0
 15 16  2  0
 15 17  1  0
 17 18  1  0
 18 19  1  0
 19 20  1  0
 20 21  1  0
 17 22  1  0
 21 22  1  0
 11 23  1  0
 23 24  1  0
  8 25  1  0
 24 25  1  0
M  END
