PET-SGC-a8a902d9-1
     RDKit          3D

 24 26  0  0  0  0  0  0  0  0999 V2000
   12.4440    2.1660   22.9920 C   0  0  0  0  0  0  0  0  0  0  0  0
   11.5120    3.3240   23.1200 C   0  0  0  0  0  0  0  0  0  0  0  0
   12.0330    4.6110   22.9490 C   0  0  0  0  0  0  0  0  0  0  0  0
   11.1890    5.7030   23.0670 C   0  0  0  0  0  0  0  0  0  0  0  0
    9.8740    5.5890   23.3430 N   0  0  0  0  0  0  0  0  0  0  0  0
    9.3850    4.3290   23.5040 C   0  0  0  0  0  0  0  0  0  0  0  0
   10.1460    3.1600   23.4070 C   0  0  0  0  0  0  0  0  0  0  0  0
    9.6350    1.8480   23.5780 N   0  0  0  0  0  0  0  0  0  0  0  0
    8.6450    1.4190   24.4480 C   0  0  0  0  0  0  0  0  0  0  0  0
    7.6780    2.0770   24.8340 O   0  0  0  0  0  0  0  0  0  0  0  0
    8.8510   -0.0210   24.9160 C   0  0  0  0  0  0  0  0  0  0  0  0
    9.1270   -0.9700   23.7740 C   0  0  1  0  0  0  0  0  0  0  0  0
   10.4660   -0.9850   23.2670 C   0  0  0  0  0  0  0  0  0  0  0  0
   11.4330   -0.0800   23.7140 C   0  0  0  0  0  0  0  0  0  0  0  0
   12.7000   -0.2140   23.1400 C   0  0  0  0  0  0  0  0  0  0  0  0
   12.7320   -1.4850   22.0150 S   0  0  0  0  0  0  0  0  0  0  0  0
   11.0560   -1.8280   22.3100 C   0  0  0  0  0  0  0  0  0  0  0  0
    8.6360   -2.3590   24.0590 N   0  0  0  0  0  0  0  0  0  0  0  0
    8.9380   -2.8880   25.3630 C   0  0  0  0  0  0  0  0  0  0  0  0
    9.3090   -4.3680   25.2730 C   0  0  0  0  0  0  0  0  0  0  0  0
    7.9890   -4.2360   25.9720 C   0  0  0  0  0  0  0  0  0  0  0  0
    8.1970   -3.8710   27.3420 O   0  0  0  0  0  0  0  0  0  0  0  0
    6.9810   -3.4470   25.3630 C   0  0  0  0  0  0  0  0  0  0  0  0
    7.2890   -2.6500   24.2170 C   0  0  0  0  0  0  0  0  0  0  0  0
  1  2  1  0
  2  3  2  0
  3  4  1  0
  4  5  2  0
  5  6  1  0
  2  7  1  0
  6  7  2  0
  7  8  1  0
  8  9  1  0
  9 10  2  0
  9 11  1  0
 12 11  1  1
 12 13  1  0
 13 14  1  0
 14 15  2  0
 15 16  1  0
 13 17  2  0
 16 17  1  0
 12 18  1  0
 18 19  1  0
 19 20  1  0
 20 21  1  0
 21 22  1  0
 21 23  1  0
 18 24  1  0
 23 24  1  0
M  END
