PET-SGC-abcbce68-1
     RDKit          3D

 22 23  0  0  0  0  0  0  0  0999 V2000
    6.4840   -5.3470   26.5560 C   0  0  0  0  0  0  0  0  0  0  0  0
    8.0320   -4.5190   26.2590 S   0  0  0  0  0  0  0  0  0  0  0  0
    9.0680   -5.5150   26.1580 O   0  0  0  0  0  0  0  0  0  0  0  0
    8.1400   -3.4300   27.2040 O   0  0  0  0  0  0  0  0  0  0  0  0
    7.8210   -3.7920   24.7290 N   0  0  0  0  0  0  0  0  0  0  0  0
    8.8120   -3.0730   24.1530 C   0  0  0  0  0  0  0  0  0  0  0  0
    8.6590   -1.7890   23.8000 C   0  0  0  0  0  0  0  0  0  0  0  0
    9.4650   -0.6970   24.4810 C   0  0  0  0  0  0  0  0  0  0  0  0
   10.6970   -0.3780   23.7550 N   0  0  0  0  0  0  0  0  0  0  0  0
   11.0190   -1.3430   22.6650 C   0  0  0  0  0  0  0  0  0  0  0  0
   12.4900   -1.3940   22.3080 C   0  0  0  0  0  0  0  0  0  0  0  0
   13.2660   -0.2040   22.9160 C   0  0  0  0  0  0  0  0  0  0  0  0
   12.4500    1.1180   23.0910 C   0  0  0  0  0  0  0  0  0  0  0  0
   12.9440    2.3860   22.8450 C   0  0  0  0  0  0  0  0  0  0  0  0
   12.1370    3.6740   23.0190 C   0  0  0  0  0  0  0  0  0  0  0  0
   10.8590    3.5180   23.4530 C   0  0  0  0  0  0  0  0  0  0  0  0
    9.8560    4.9700   23.6880 S   0  0  0  0  0  0  0  0  0  0  0  0
   11.0150    6.1930   23.5470 N   0  0  0  0  0  0  0  0  0  0  0  0
    9.3200    5.0630   25.0330 O   0  0  0  0  0  0  0  0  0  0  0  0
    8.9650    5.0850   22.5750 O   0  0  0  0  0  0  0  0  0  0  0  0
   10.3430    2.1090   23.7190 C   0  0  0  0  0  0  0  0  0  0  0  0
   11.1530    0.9870   23.5250 C   0  0  0  0  0  0  0  0  0  0  0  0
  1  2  1  0
  2  3  2  0
  2  4  2  0
  2  5  1  0
  5  6  1  0
  6  7  1  0
  7  8  1  0
  8  9  1  0
  9 10  1  0
 10 11  1  0
 11 12  1  0
 12 13  1  0
 13 14  1  0
 14 15  2  0
 15 16  1  0
 16 17  1  0
 17 18  1  0
 17 19  2  0
 17 20  2  0
 16 21  2  0
  9 22  1  0
 13 22  2  0
 21 22  1  0
M  END
