PET-SGC-f818f65b-1
     RDKit          3D

 23 24  0  0  0  0  0  0  0  0999 V2000
    8.9130    6.6560   22.5510 C   0  0  0  0  0  0  0  0  0  0  0  0
   10.1490    6.1830   23.3350 C   0  0  0  0  0  0  0  0  0  0  0  0
    9.9680    6.3670   24.7640 O   0  0  0  0  0  0  0  0  0  0  0  0
   11.2130    5.6710   22.6520 N   0  0  0  0  0  0  0  0  0  0  0  0
   12.2800    4.9870   23.3710 C   0  0  0  0  0  0  0  0  0  0  0  0
   12.5750    3.5810   22.8400 C   0  0  0  0  0  0  0  0  0  0  0  0
   11.5820    2.5050   23.2220 C   0  0  0  0  0  0  0  0  0  0  0  0
   10.3660    2.6960   23.8350 C   0  0  0  0  0  0  0  0  0  0  0  0
    9.7400    1.4790   23.9590 N   0  0  0  0  0  0  0  0  0  0  0  0
   10.5160    0.4660   23.4330 C   0  0  0  0  0  0  0  0  0  0  0  0
   10.2590   -0.9600   23.3040 C   0  0  0  0  0  0  0  0  0  0  0  0
    9.0980   -1.5090   23.7350 C   0  0  0  0  0  0  0  0  0  0  0  0
    9.0640   -3.0510   23.8620 C   0  0  0  0  0  0  0  0  0  0  0  0
    7.8920   -3.5070   24.6430 N   0  0  0  0  0  0  0  0  0  0  0  0
    8.0800   -4.3470   26.0910 S   0  0  0  0  0  0  0  0  0  0  0  0
    6.5130   -5.1690   26.2950 C   0  0  0  0  0  0  0  0  0  0  0  0
    9.1010   -5.3550   25.9360 O   0  0  0  0  0  0  0  0  0  0  0  0
    8.1400   -3.3390   27.1210 O   0  0  0  0  0  0  0  0  0  0  0  0
   11.2580   -1.7680   22.7020 C   0  0  0  0  0  0  0  0  0  0  0  0
   12.4800   -1.2610   22.2660 C   0  0  0  0  0  0  0  0  0  0  0  0
   13.3900   -2.0610   21.7230 F   0  0  0  0  0  0  0  0  0  0  0  0
   12.7480    0.1750   22.4070 C   0  0  0  0  0  0  0  0  0  0  0  0
   11.6880    1.0850   22.9990 C   0  0  0  0  0  0  0  0  0  0  0  0
  1  2  1  0
  2  3  2  0
  2  4  1  0
  4  5  1  0
  5  6  1  0
  6  7  1  0
  7  8  2  0
  8  9  1  0
  9 10  1  0
 10 11  1  0
 11 12  1  0
 12 13  1  0
 13 14  1  0
 15 14  1  0
 15 16  1  0
 15 17  2  0
 15 18  2  0
 11 19  2  0
 19 20  1  0
 20 21  1  0
 20 22  2  0
  7 23  1  0
 10 23  2  0
 22 23  1  0
M  END
