PET-SGC-210d4c30-1
     RDKit          3D

 32 35  0  0  0  0  0  0  0  0999 V2000
   10.4300    0.7880   30.4620 C   0  0  0  0  0  0  0  0  0  0  0  0
    9.0340    0.2900   30.1490 C   0  0  0  0  0  0  0  0  0  0  0  0
    8.6150   -0.3490   28.9480 C   0  0  0  0  0  0  0  0  0  0  0  0
    7.2810   -0.6600   29.0390 C   0  0  0  0  0  0  0  0  0  0  0  0
    6.5040   -1.3030   28.0570 C   0  0  0  0  0  0  0  0  0  0  0  0
    6.3650   -0.5770   26.8180 N   0  0  0  0  0  0  0  0  0  0  0  0
    7.5180   -0.4220   25.9870 C   0  0  0  0  0  0  0  0  0  0  0  0
    7.5460   -1.1420   24.7660 C   0  0  0  0  0  0  0  0  0  0  0  0
    8.7610   -0.7240   23.9360 C   0  0  0  0  0  0  0  0  0  0  0  0
    8.6460   -1.2030   22.4820 C   0  0  0  0  0  0  0  0  0  0  0  0
    9.9790   -1.1470   21.8300 N   0  0  0  0  0  0  0  0  0  0  0  0
   10.7550   -2.1420   22.4250 C   0  0  0  0  0  0  0  0  0  0  0  0
   12.1300   -2.3530   21.9780 C   0  0  0  0  0  0  0  0  0  0  0  0
   12.9700   -1.2950   22.0750 C   0  0  0  0  0  0  0  0  0  0  0  0
   12.1900   -0.0420   22.0550 C   0  0  0  0  0  0  0  0  0  0  0  0
   13.0820    1.2910   22.2630 C   0  0  0  0  0  0  0  0  0  0  0  0
   12.3660    2.8310   22.3170 C   0  0  0  0  0  0  0  0  0  0  0  0
   10.7140    3.0280   22.2130 C   0  0  0  0  0  0  0  0  0  0  0  0
   10.1060    4.6610   22.6170 S   0  0  0  0  0  0  0  0  0  0  0  0
   11.2150    5.7670   22.0200 N   0  0  0  0  0  0  0  0  0  0  0  0
   10.3020    4.8790   24.0390 O   0  0  0  0  0  0  0  0  0  0  0  0
    8.7510    4.8620   22.1670 O   0  0  0  0  0  0  0  0  0  0  0  0
    9.7740    1.5590   21.8970 C   0  0  0  0  0  0  0  0  0  0  0  0
   10.5860    0.0740   21.8800 C   0  0  0  0  0  0  0  0  0  0  0  0
    5.1110    0.0430   26.3640 C   0  0  0  0  0  0  0  0  0  0  0  0
    4.9630    0.5770   25.0490 O   0  0  0  0  0  0  0  0  0  0  0  0
    4.0260    0.0810   27.3400 N   0  0  0  0  0  0  0  0  0  0  0  0
    2.9220    0.8510   27.1670 C   0  0  0  0  0  0  0  0  0  0  0  0
    1.7100    0.6110   27.9020 C   0  0  0  0  0  0  0  0  0  0  0  0
    2.3200    1.8270   28.3920 C   0  0  0  0  0  0  0  0  0  0  0  0
    6.8300   -0.2220   30.2950 N   0  0  0  0  0  0  0  0  0  0  0  0
    7.9400    0.3650   30.9630 O   0  0  0  0  0  0  0  0  0  0  0  0
  1  2  1  0
  2  3  2  0
  3  4  1  0
  4  5  1  0
  5  6  1  0
  6  7  1  0
  7  8  1  0
  8  9  1  0
  9 10  1  0
 10 11  1  0
 11 12  1  0
 12 13  1  0
 13 14  1  0
 14 15  1  0
 15 16  2  0
 16 17  1  0
 17 18  2  0
 18 19  1  0
 19 20  1  0
 19 21  2  0
 19 22  2  0
 18 23  1  0
 11 24  1  0
 15 24  1  0
 23 24  2  0
  6 25  1  0
 25 26  2  0
 25 27  1  0
 27 28  1  0
 28 29  1  0
 28 30  1  0
 29 30  1  0
  4 31  2  0
  2 32  1  0
 31 32  1  0
M  END
