PET-SGC-c4a91520-1
     RDKit          3D

 22 24  0  0  0  0  0  0  0  0999 V2000
    4.9220   -3.6610   27.6750 C   0  0  0  0  0  0  0  0  0  0  0  0
    5.8050   -2.6530   27.0460 C   0  0  0  0  0  0  0  0  0  0  0  0
    6.1850   -1.5370   27.6250 N   0  0  0  0  0  0  0  0  0  0  0  0
    7.0120   -0.7820   26.8250 N   0  0  0  0  0  0  0  0  0  0  0  0
    7.2330   -1.3780   25.6360 C   0  0  0  0  0  0  0  0  0  0  0  0
    8.1050   -0.8300   24.5300 C   0  0  0  0  0  0  0  0  0  0  0  0
    9.4510   -0.2290   24.9600 C   0  0  0  0  0  0  0  0  0  0  0  0
   10.4730   -0.2540   24.0170 N   0  0  0  0  0  0  0  0  0  0  0  0
   11.1930   -1.5210   23.8180 C   0  0  0  0  0  0  0  0  0  0  0  0
   12.2470   -1.4190   22.6920 C   0  0  0  0  0  0  0  0  0  0  0  0
   13.1630   -0.2370   23.0360 C   0  0  0  0  0  0  0  0  0  0  0  0
   12.4570    0.9770   23.1680 C   0  0  0  0  0  0  0  0  0  0  0  0
   13.0510    2.3440   22.8220 C   0  0  0  0  0  0  0  0  0  0  0  0
   12.2600    3.5830   22.9720 C   0  0  0  0  0  0  0  0  0  0  0  0
   10.9660    3.5370   23.4370 C   0  0  0  0  0  0  0  0  0  0  0  0
   10.0070    5.0200   23.6250 S   0  0  0  0  0  0  0  0  0  0  0  0
   11.1080    6.2040   23.1510 N   0  0  0  0  0  0  0  0  0  0  0  0
    9.7320    5.3180   25.0070 O   0  0  0  0  0  0  0  0  0  0  0  0
    8.9280    5.0140   22.6770 O   0  0  0  0  0  0  0  0  0  0  0  0
   10.4710    2.2490   23.7500 C   0  0  0  0  0  0  0  0  0  0  0  0
   11.1390    1.0050   23.6400 C   0  0  0  0  0  0  0  0  0  0  0  0
    6.4190   -2.8830   25.4580 S   0  0  0  0  0  0  0  0  0  0  0  0
  1  2  1  0
  2  3  2  0
  3  4  1  0
  4  5  2  0
  5  6  1  0
  6  7  1  0
  7  8  1  0
  8  9  1  0
  9 10  1  0
 10 11  1  0
 11 12  1  0
 12 13  2  0
 13 14  1  0
 14 15  2  0
 15 16  1  0
 16 17  1  0
 16 18  2  0
 16 19  2  0
 15 20  1  0
  8 21  1  0
 12 21  1  0
 20 21  2  0
  2 22  1  0
  5 22  1  0
M  END
