PET-SGC-6016d8e6-1
     RDKit          3D

 24 26  0  0  0  0  0  0  0  0999 V2000
    5.6070   -2.0380   21.6010 C   0  0  0  0  0  0  0  0  0  0  0  0
    5.7890   -1.0510   20.4850 C   0  0  0  0  0  0  0  0  0  0  0  0
    5.2120   -1.3610   19.2660 C   0  0  0  0  0  0  0  0  0  0  0  0
    5.3420   -0.4850   18.1900 C   0  0  0  0  0  0  0  0  0  0  0  0
    6.0000    0.6610   18.2130 N   0  0  0  0  0  0  0  0  0  0  0  0
    6.5530    0.9500   19.4020 C   0  0  0  0  0  0  0  0  0  0  0  0
    6.4840    0.1570   20.5490 C   0  0  0  0  0  0  0  0  0  0  0  0
    7.1440    0.6840   21.6600 N   0  0  0  0  0  0  0  0  0  0  0  0
    8.4420    1.1150   21.5800 C   0  0  0  0  0  0  0  0  0  0  0  0
    8.8370    2.2660   21.4040 O   0  0  0  0  0  0  0  0  0  0  0  0
    9.3010    0.1030   21.6720 C   0  0  0  0  0  0  0  0  0  0  0  0
    9.1010   -0.8190   22.7920 C   0  0  0  0  0  0  0  0  0  0  0  0
    8.4390   -0.4560   24.0780 C   0  0  0  0  0  0  0  0  0  0  0  0
    8.3310   -1.5620   25.0900 C   0  0  0  0  0  0  0  0  0  0  0  0
    8.8250   -2.8300   24.8060 C   0  0  0  0  0  0  0  0  0  0  0  0
    8.7570   -3.9050   25.6920 N   0  0  0  0  0  0  0  0  0  0  0  0
    9.0160   -5.2290   25.1690 C   0  0  0  0  0  0  0  0  0  0  0  0
    8.0840   -5.5100   23.9780 C   0  0  0  0  0  0  0  0  0  0  0  0
    6.6340   -5.2960   24.3270 C   0  0  0  0  0  0  0  0  0  0  0  0
    6.4230   -5.5760   25.7010 O   0  0  0  0  0  0  0  0  0  0  0  0
    6.4840   -4.4350   26.5640 C   0  0  0  0  0  0  0  0  0  0  0  0
    7.8700   -3.8450   26.8560 C   0  0  0  0  0  0  0  0  0  0  0  0
    9.4160   -2.9700   23.5410 C   0  0  0  0  0  0  0  0  0  0  0  0
    9.5720   -2.0490   22.5640 N   0  0  0  0  0  0  0  0  0  0  0  0
  1  2  1  0
  2  3  2  0
  3  4  1  0
  4  5  2  0
  5  6  1  0
  2  7  1  0
  6  7  2  0
  7  8  1  0
  8  9  1  0
  9 10  2  0
  9 11  1  0
 11 12  1  0
 12 13  2  0
 13 14  1  0
 14 15  2  0
 15 16  1  0
 16 17  1  0
 17 18  1  0
 18 19  1  0
 19 20  1  0
 20 21  1  0
 16 22  1  0
 21 22  1  0
 15 23  1  0
 12 24  1  0
 23 24  2  0
M  END
