PET-SGC-fedd1f79-1
     RDKit          3D

 31 33  0  0  0  0  0  0  0  0999 V2000
   12.3450  -13.9580   24.2300 C   0  0  0  0  0  0  0  0  0  0  0  0
   12.7710  -13.4030   22.9600 C   0  0  0  0  0  0  0  0  0  0  0  0
   13.3940  -12.2110   22.8600 C   0  0  0  0  0  0  0  0  0  0  0  0
   13.3130  -11.6460   21.8860 C   0  0  0  0  0  0  0  0  0  0  0  0
   12.5020  -12.2010   21.0270 C   0  0  0  0  0  0  0  0  0  0  0  0
   11.6450  -11.3240   19.8020 O   0  0  0  0  0  0  0  0  0  0  0  0
   11.0650   -9.6680   19.6120 C   0  0  0  0  0  0  0  0  0  0  0  0
   10.6500   -8.1160   20.7820 C   0  0  0  0  0  0  0  0  0  0  0  0
   11.6030   -7.6670   21.3760 O   0  0  0  0  0  0  0  0  0  0  0  0
    9.4200   -7.4280   21.1780 N   0  0  0  0  0  0  0  0  0  0  0  0
    9.4660   -6.0250   21.6020 C   0  0  0  0  0  0  0  0  0  0  0  0
    9.4350   -5.7840   22.9780 C   0  0  0  0  0  0  0  0  0  0  0  0
    8.0440   -5.7240   23.3590 N   0  0  0  0  0  0  0  0  0  0  0  0
    7.4240   -4.3780   23.2810 C   0  0  0  0  0  0  0  0  0  0  0  0
    7.8770   -3.4290   22.3490 C   0  0  0  0  0  0  0  0  0  0  0  0
    9.2820   -2.8270   22.4040 C   0  0  0  0  0  0  0  0  0  0  0  0
    9.4190   -1.3120   22.7300 C   0  0  0  0  0  0  0  0  0  0  0  0
    8.8060   -0.3180   21.7290 C   0  0  0  0  0  0  0  0  0  0  0  0
    9.2950    0.7890   21.5120 O   0  0  0  0  0  0  0  0  0  0  0  0
    7.6670   -0.8270   21.1360 N   0  0  0  0  0  0  0  0  0  0  0  0
    6.8570   -0.1740   20.1740 C   0  0  0  0  0  0  0  0  0  0  0  0
    7.0880   -0.2320   18.8040 C   0  0  0  0  0  0  0  0  0  0  0  0
    6.3350    0.3840   17.8480 N   0  0  0  0  0  0  0  0  0  0  0  0
    5.2710    1.1160   18.2180 C   0  0  0  0  0  0  0  0  0  0  0  0
    4.8980    1.2740   19.5320 C   0  0  0  0  0  0  0  0  0  0  0  0
    5.7520    0.5800   20.5850 C   0  0  0  0  0  0  0  0  0  0  0  0
    5.3060    0.7800   22.0380 C   0  0  0  0  0  0  0  0  0  0  0  0
    7.4900   -6.8120   22.5550 C   0  0  0  0  0  0  0  0  0  0  0  0
    8.6090   -7.8340   22.3010 C   0  0  0  0  0  0  0  0  0  0  0  0
   12.0690  -13.5950   21.2770 C   0  0  0  0  0  0  0  0  0  0  0  0
   12.2150  -14.1160   22.0730 C   0  0  0  0  0  0  0  0  0  0  0  0
  1  2  1  0
  2  3  2  0
  3  4  1  0
  4  5  2  0
  5  6  1  0
  6  7  1  0
  7  8  1  0
  8  9  2  0
  8 10  1  0
 10 11  1  0
 11 12  1  0
 12 13  1  0
 13 14  1  0
 14 15  1  0
 15 16  1  0
 16 17  1  0
 17 18  1  0
 18 19  2  0
 18 20  1  0
 20 21  1  0
 21 22  2  0
 22 23  1  0
 23 24  2  0
 24 25  1  0
 21 26  1  0
 25 26  2  0
 26 27  1  0
 13 28  1  0
 10 29  1  0
 28 29  1  0
  5 30  1  0
  2 31  1  0
 30 31  2  0
M  END
