PET-SGC-2aaf6909-1
     RDKit          3D

 31 34  0  0  0  0  0  0  0  0999 V2000
    4.0520   -7.4100   28.4250 C   0  0  0  0  0  0  0  0  0  0  0  0
    3.7210   -6.3720   27.4360 C   0  0  0  0  0  0  0  0  0  0  0  0
    4.1720   -6.0720   26.1760 C   0  0  0  0  0  0  0  0  0  0  0  0
    3.4230   -4.9310   25.7960 C   0  0  0  0  0  0  0  0  0  0  0  0
    3.4610   -4.1210   24.5330 C   0  0  0  0  0  0  0  0  0  0  0  0
    4.1690   -2.8390   24.6810 N   0  0  0  0  0  0  0  0  0  0  0  0
    3.6040   -1.9140   25.6520 C   0  0  0  0  0  0  0  0  0  0  0  0
    4.8530   -2.2870   23.5960 C   0  0  0  0  0  0  0  0  0  0  0  0
    4.7890   -2.8210   22.4840 O   0  0  0  0  0  0  0  0  0  0  0  0
    5.6000   -1.1170   23.8480 N   0  0  0  0  0  0  0  0  0  0  0  0
    4.8710    0.1240   24.1490 C   0  0  0  0  0  0  0  0  0  0  0  0
    5.0190    1.4110   23.3670 C   0  0  0  0  0  0  0  0  0  0  0  0
    5.4960    1.3430   24.7840 C   0  0  0  0  0  0  0  0  0  0  0  0
    7.0930   -1.0140   23.9170 C   0  0  2  0  0  0  0  0  0  0  0  0
    7.8140   -1.1860   22.5660 C   0  0  0  0  0  0  0  0  0  0  0  0
    9.0680   -2.0940   22.6520 C   0  0  1  0  0  0  0  0  0  0  0  0
   10.4170   -1.3450   22.7300 C   0  0  0  0  0  0  0  0  0  0  0  0
   10.6420   -0.0970   23.3450 C   0  0  0  0  0  0  0  0  0  0  0  0
   11.9320    0.4810   23.3260 C   0  0  0  0  0  0  0  0  0  0  0  0
   12.9900   -0.1550   22.7240 C   0  0  0  0  0  0  0  0  0  0  0  0
   12.7900   -1.3780   22.1190 C   0  0  0  0  0  0  0  0  0  0  0  0
   11.5210   -1.9550   22.1240 C   0  0  0  0  0  0  0  0  0  0  0  0
    8.8990   -3.3630   23.5530 C   0  0  0  0  0  0  0  0  0  0  0  0
    8.0210   -3.1860   24.7180 N   0  0  0  0  0  0  0  0  0  0  0  0
    8.0890   -4.2670   26.0200 S   0  0  0  0  0  0  0  0  0  0  0  0
    6.4960   -5.0560   26.0180 C   0  0  0  0  0  0  0  0  0  0  0  0
    9.0840   -5.2870   25.7640 O   0  0  0  0  0  0  0  0  0  0  0  0
    8.1210   -3.4870   27.2350 O   0  0  0  0  0  0  0  0  0  0  0  0
    7.8650   -1.7670   25.0080 C   0  0  0  0  0  0  0  0  0  0  0  0
    2.5680   -4.5750   26.7700 N   0  0  0  0  0  0  0  0  0  0  0  0
    2.7600   -5.4800   27.7930 O   0  0  0  0  0  0  0  0  0  0  0  0
  1  2  1  0
  2  3  2  0
  3  4  1  0
  4  5  1  0
  5  6  1  0
  6  7  1  0
  6  8  1  0
  8  9  2  0
  8 10  1  0
 10 11  1  0
 11 12  1  0
 11 13  1  0
 12 13  1  0
 14 10  1  6
 14 15  1  0
 15 16  1  0
 16 17  1  1
 17 18  2  0
 18 19  1  0
 19 20  2  0
 20 21  1  0
 17 22  1  0
 21 22  2  0
 16 23  1  0
 23 24  1  0
 24 25  1  0
 25 26  1  0
 25 27  2  0
 25 28  2  0
 14 29  1  0
 24 29  1  0
  4 30  2  0
  2 31  1  0
 30 31  1  0
M  END
