PET-SGC-85e821e4-2
     RDKit          3D

 21 22  0  0  0  0  0  0  0  0999 V2000
    6.3280   -5.0550   26.0730 C   0  0  0  0  0  0  0  0  0  0  0  0
    7.9500   -4.3270   25.9790 S   0  0  0  0  0  0  0  0  0  0  0  0
    8.9090   -5.4010   25.8560 O   0  0  0  0  0  0  0  0  0  0  0  0
    8.0590   -3.3720   27.0600 O   0  0  0  0  0  0  0  0  0  0  0  0
    7.9420   -3.4070   24.5430 N   0  0  0  0  0  0  0  0  0  0  0  0
    9.1670   -2.7600   24.2860 C   0  0  0  0  0  0  0  0  0  0  0  0
    9.4730   -1.9900   23.0550 C   0  0  0  0  0  0  0  0  0  0  0  0
   10.4330   -0.9010   23.0380 C   0  0  0  0  0  0  0  0  0  0  0  0
   11.7960   -0.9390   22.7330 C   0  0  0  0  0  0  0  0  0  0  0  0
   12.5790    0.2400   22.7570 C   0  0  0  0  0  0  0  0  0  0  0  0
   11.9600    1.5330   23.0900 C   0  0  0  0  0  0  0  0  0  0  0  0
   10.4340    1.5880   23.4230 C   0  0  0  0  0  0  0  0  0  0  0  0
    9.7340    2.8780   23.7610 C   0  0  0  0  0  0  0  0  0  0  0  0
   10.9430    3.3040   23.5120 C   0  0  0  0  0  0  0  0  0  0  0  0
   11.0760    5.0960   23.6520 S   0  0  0  0  0  0  0  0  0  0  0  0
    9.7420    5.5230   22.7250 N   0  0  0  0  0  0  0  0  0  0  0  0
   10.6950    5.6110   24.9420 O   0  0  0  0  0  0  0  0  0  0  0  0
   12.2450    5.6030   22.9860 O   0  0  0  0  0  0  0  0  0  0  0  0
   11.9830    2.3610   23.1500 C   0  0  0  0  0  0  0  0  0  0  0  0
   11.7890    0.7930   22.9930 C   0  0  0  0  0  0  0  0  0  0  0  0
   10.1370    0.4450   23.3140 C   0  0  0  0  0  0  0  0  0  0  0  0
  1  2  1  0
  2  3  2  0
  2  4  2  0
  2  5  1  0
  5  6  1  0
  6  7  1  0
  7  8  1  0
  8  9  2  0
  9 10  1  0
 10 11  2  0
 11 12  1  0
 12 13  1  0
 13 14  2  0
 14 15  1  0
 15 16  1  0
 15 17  2  0
 15 18  2  0
 14 19  1  0
 19 20  2  0
  8 21  1  0
 12 21  2  0
 20 21  1  0
M  END
