PET-SGC-d0156db4-2
     RDKit          3D

 23 24  0  0  0  0  0  0  0  0999 V2000
    9.3450   -5.7270   26.3540 C   0  0  0  0  0  0  0  0  0  0  0  0
    8.0450   -4.9120   25.4400 S   0  0  0  0  0  0  0  0  0  0  0  0
    8.1180   -5.3430   24.0670 O   0  0  0  0  0  0  0  0  0  0  0  0
    6.8160   -5.0570   26.1910 O   0  0  0  0  0  0  0  0  0  0  0  0
    8.4370   -3.2600   25.5250 N   0  0  0  0  0  0  0  0  0  0  0  0
    8.7860   -2.5060   24.3740 C   0  0  0  0  0  0  0  0  0  0  0  0
    9.3820   -1.1690   24.6100 C   0  0  0  0  0  0  0  0  0  0  0  0
    9.8250   -0.3990   23.5150 C   0  0  0  0  0  0  0  0  0  0  0  0
    8.7140    0.2770   23.0190 C   0  0  0  0  0  0  0  0  0  0  0  0
    8.5370    0.5650   21.6880 C   0  0  0  0  0  0  0  0  0  0  0  0
    9.0330    1.5710   21.1730 O   0  0  0  0  0  0  0  0  0  0  0  0
    7.7460   -0.3920   21.1250 N   0  0  0  0  0  0  0  0  0  0  0  0
    6.8940    0.1650   20.2130 C   0  0  0  0  0  0  0  0  0  0  0  0
    5.7300    1.0800   20.5240 C   0  0  0  0  0  0  0  0  0  0  0  0
    4.9240    1.5930   19.3580 C   0  0  0  0  0  0  0  0  0  0  0  0
    5.3000    1.1870   17.9860 C   0  0  0  0  0  0  0  0  0  0  0  0
    6.3250    0.3820   17.7880 N   0  0  0  0  0  0  0  0  0  0  0  0
    7.0690   -0.0960   18.8600 C   0  0  0  0  0  0  0  0  0  0  0  0
   10.4210   -1.3240   22.3850 C   0  0  0  0  0  0  0  0  0  0  0  0
   11.9500   -1.5340   22.2550 C   0  0  0  0  0  0  0  0  0  0  0  0
   12.8580   -0.5050   22.9280 C   0  0  0  0  0  0  0  0  0  0  0  0
   12.1900    0.4170   23.9360 C   0  0  0  0  0  0  0  0  0  0  0  0
   10.7020    0.6700   23.7480 C   0  0  0  0  0  0  0  0  0  0  0  0
  1  2  1  0
  2  3  2  0
  2  4  2  0
  2  5  1  0
  5  6  1  0
  6  7  1  0
  8  7  1  0
  8  9  1  0
  9 10  1  0
 10 11  2  0
 10 12  1  0
 12 13  1  0
 13 14  2  0
 14 15  1  0
 15 16  2  0
 16 17  1  0
 13 18  1  0
 17 18  2  0
  8 19  1  0
 19 20  1  0
 20 21  1  0
 21 22  1  0
  8 23  1  0
 22 23  1  0
M  END
