PET-SGC-1fc12be1-1
     RDKit          3D

 19 20  0  0  0  0  0  0  0  0999 V2000
    7.1330   -0.8090   26.5800 C   0  0  0  0  0  0  0  0  0  0  0  0
    8.0340    0.2700   26.1100 C   0  0  0  0  0  0  0  0  0  0  0  0
    8.3860    0.4100   24.8500 N   0  0  0  0  0  0  0  0  0  0  0  0
    9.1040   -0.6470   24.1700 C   0  0  0  0  0  0  0  0  0  0  0  0
    9.7460   -0.2660   22.8660 C   0  0  0  0  0  0  0  0  0  0  0  0
    8.9130    0.3580   21.8800 C   0  0  0  0  0  0  0  0  0  0  0  0
    9.2060    1.4810   21.4310 O   0  0  0  0  0  0  0  0  0  0  0  0
    7.7620   -0.3360   21.4310 N   0  0  0  0  0  0  0  0  0  0  0  0
    6.9590    0.1990   20.4550 C   0  0  0  0  0  0  0  0  0  0  0  0
    5.9580    1.0960   20.5720 C   0  0  0  0  0  0  0  0  0  0  0  0
    5.1290    1.6300   19.4410 C   0  0  0  0  0  0  0  0  0  0  0  0
    5.4090    1.1500   18.0430 C   0  0  0  0  0  0  0  0  0  0  0  0
    6.4920    0.1860   17.9920 N   0  0  0  0  0  0  0  0  0  0  0  0
    7.1810   -0.2290   19.1350 C   0  0  0  0  0  0  0  0  0  0  0  0
   10.2860   -1.3190   22.0480 C   0  0  0  0  0  0  0  0  0  0  0  0
   11.5460   -1.8300   22.4030 C   0  0  0  0  0  0  0  0  0  0  0  0
   12.2680   -1.1540   23.3820 C   0  0  0  0  0  0  0  0  0  0  0  0
   12.1810    0.2270   23.3050 C   0  0  0  0  0  0  0  0  0  0  0  0
   10.8840    0.7490   23.2820 C   0  0  0  0  0  0  0  0  0  0  0  0
  1  2  1  0
  2  3  1  0
  3  4  1  0
  4  5  1  0
  5  6  1  0
  6  7  2  0
  6  8  1  0
  8  9  1  0
  9 10  2  0
 10 11  1  0
 11 12  2  0
 12 13  1  0
  9 14  1  0
 13 14  2  0
  5 15  1  0
 15 16  1  0
 16 17  1  0
 17 18  1  0
  5 19  1  0
 18 19  1  0
M  END
