PET-SGC-fc67af9f-1
     RDKit          3D

 29 32  0  0  0  0  0  0  0  0999 V2000
   10.8160    5.7570   22.6910 N   0  0  0  0  0  0  0  0  0  0  0  0
    9.6890    4.6130   23.1910 S   0  0  0  0  0  0  0  0  0  0  0  0
    9.5630    4.8120   24.6230 O   0  0  0  0  0  0  0  0  0  0  0  0
    8.5280    4.7210   22.3630 O   0  0  0  0  0  0  0  0  0  0  0  0
   10.5030    3.0780   23.0120 C   0  0  0  0  0  0  0  0  0  0  0  0
   11.9880    3.1460   22.7540 C   0  0  0  0  0  0  0  0  0  0  0  0
   12.7010    2.0490   22.6690 C   0  0  0  0  0  0  0  0  0  0  0  0
   12.1980    0.6740   22.8230 C   0  0  0  0  0  0  0  0  0  0  0  0
   10.8020    0.5640   23.1020 C   0  0  0  0  0  0  0  0  0  0  0  0
    9.8740    1.7900   23.1480 C   0  0  0  0  0  0  0  0  0  0  0  0
   10.7820   -0.8710   23.3070 N   0  0  0  0  0  0  0  0  0  0  0  0
   12.1250   -0.9410   23.8770 C   0  0  0  0  0  0  0  0  0  0  0  0
   13.0120   -2.2270   24.2610 C   0  0  0  0  0  0  0  0  0  0  0  0
   13.8290   -1.9120   25.4670 N   0  0  0  0  0  0  0  0  0  0  0  0
   14.9570   -2.5930   25.9840 C   0  0  0  0  0  0  0  0  0  0  0  0
   14.6360   -3.7640   26.1940 O   0  0  0  0  0  0  0  0  0  0  0  0
   16.4740   -1.8540   26.2950 C   0  0  0  0  0  0  0  0  0  0  0  0
   18.0740   -1.5580   25.7500 C   0  0  0  0  0  0  0  0  0  0  0  0
   19.2810   -1.0100   26.6560 C   0  0  0  0  0  0  0  0  0  0  0  0
   20.4530   -0.7650   26.1360 N   0  0  0  0  0  0  0  0  0  0  0  0
   20.3520   -1.0660   24.7660 C   0  0  0  0  0  0  0  0  0  0  0  0
   21.4990   -0.8890   23.8730 N   0  0  0  0  0  0  0  0  0  0  0  0
   21.2480   -1.2150   22.6250 C   0  0  0  0  0  0  0  0  0  0  0  0
   20.0380   -1.6820   22.2160 C   0  0  0  0  0  0  0  0  0  0  0  0
   18.9920   -1.8280   23.1220 C   0  0  0  0  0  0  0  0  0  0  0  0
   19.0220   -1.5280   24.4900 C   0  0  0  0  0  0  0  0  0  0  0  0
   10.7430   -1.6230   22.2690 C   0  0  0  0  0  0  0  0  0  0  0  0
   12.0740   -1.6410   21.8550 C   0  0  0  0  0  0  0  0  0  0  0  0
   12.9050   -0.6300   22.7310 C   0  0  0  0  0  0  0  0  0  0  0  0
  2  1  1  0
  2  3  2  0
  2  4  2  0
  2  5  1  0
  5  6  2  0
  6  7  1  0
  7  8  2  0
  8  9  1  0
  5 10  1  0
  9 10  2  0
  9 11  1  0
 11 12  1  0
 12 13  1  0
 13 14  1  0
 14 15  1  0
 15 16  2  0
 15 17  1  0
 17 18  1  0
 18 19  2  0
 19 20  1  0
 20 21  1  0
 21 22  1  0
 22 23  2  0
 23 24  1  0
 24 25  2  0
 18 26  1  0
 21 26  2  0
 25 26  1  0
 11 27  1  0
 27 28  1  0
  8 29  1  0
 28 29  1  0
M  END
