PET-SGC-6a1b02a9-1
     RDKit          3D

 21 22  0  0  0  0  0  0  0  0999 V2000
    4.3370    0.7090   25.6830 N   0  0  0  0  0  0  0  0  0  0  0  0
    5.2510    1.5080   25.2360 C   0  0  0  0  0  0  0  0  0  0  0  0
    4.9950    2.8430   25.2210 N   0  0  0  0  0  0  0  0  0  0  0  0
    6.5870    1.0010   24.7280 C   0  0  0  0  0  0  0  0  0  0  0  0
    6.9250   -0.3740   25.3050 C   0  0  0  0  0  0  0  0  0  0  0  0
    8.1920   -0.9660   24.6760 C   0  0  0  0  0  0  0  0  0  0  0  0
    9.4940   -0.2410   25.0470 C   0  0  0  0  0  0  0  0  0  0  0  0
   10.5080   -0.2180   23.9970 N   0  0  0  0  0  0  0  0  0  0  0  0
   11.2590   -1.4780   23.8170 C   0  0  0  0  0  0  0  0  0  0  0  0
   12.2870   -1.3910   22.7060 C   0  0  0  0  0  0  0  0  0  0  0  0
   13.1840   -0.2120   23.0140 C   0  0  0  0  0  0  0  0  0  0  0  0
   12.3910    1.0530   23.1770 C   0  0  0  0  0  0  0  0  0  0  0  0
   12.9680    2.2840   22.8510 C   0  0  0  0  0  0  0  0  0  0  0  0
   12.2920    3.4870   22.9640 C   0  0  0  0  0  0  0  0  0  0  0  0
   10.9910    3.4580   23.4300 C   0  0  0  0  0  0  0  0  0  0  0  0
   10.0820    4.9920   23.5880 S   0  0  0  0  0  0  0  0  0  0  0  0
   11.2260    6.1300   23.1000 N   0  0  0  0  0  0  0  0  0  0  0  0
    9.8090    5.3240   24.9610 O   0  0  0  0  0  0  0  0  0  0  0  0
    9.0150    4.9860   22.6330 O   0  0  0  0  0  0  0  0  0  0  0  0
   10.3980    2.2280   23.7740 C   0  0  0  0  0  0  0  0  0  0  0  0
   11.0850    1.0000   23.6550 C   0  0  0  0  0  0  0  0  0  0  0  0
  1  2  2  3
  2  3  1  0
  2  4  1  0
  4  5  1  0
  5  6  1  0
  6  7  1  0
  7  8  1  0
  8  9  1  0
  9 10  1  0
 10 11  1  0
 11 12  1  0
 12 13  1  0
 13 14  2  0
 14 15  1  0
 15 16  1  0
 16 17  1  0
 16 18  2  0
 16 19  2  0
 15 20  2  0
  8 21  1  0
 12 21  2  0
 20 21  1  0
M  END
