RAF-POL-950dada1-2
     RDKit          3D

 17 18  0  0  0  0  0  0  0  0999 V2000
   -0.7070    2.7720   21.0920 C   0  0  0  0  0  0  0  0  0  0  0  0
    0.7670    3.0900   21.1150 C   0  0  0  0  0  0  0  0  0  0  0  0
    1.1860    4.2290   21.8050 C   0  0  0  0  0  0  0  0  0  0  0  0
    2.5510    4.4750   21.7940 N   0  0  0  0  0  0  0  0  0  0  0  0
    3.4240    3.8680   20.8740 C   0  0  0  0  0  0  0  0  0  0  0  0
    3.0410    2.7220   20.1660 C   0  0  0  0  0  0  0  0  0  0  0  0
    3.9440    2.1690   19.2340 C   0  0  0  0  0  0  0  0  0  0  0  0
    3.9020    2.5750   18.1130 O   0  0  0  0  0  0  0  0  0  0  0  0
    4.7950    1.2720   19.5870 N   0  0  0  0  0  0  0  0  0  0  0  0
    5.4260    0.3760   18.6020 C   0  0  0  0  0  0  0  0  0  0  0  0
    6.7230    0.0020   19.0120 C   0  0  0  0  0  0  0  0  0  0  0  0
    6.7570   -0.5250   20.2890 N   0  0  0  0  0  0  0  0  0  0  0  0
    6.1100    0.1700   21.3560 C   0  0  1  0  0  0  0  0  0  0  0  0
    7.0140    0.4430   22.4830 C   0  0  0  0  0  0  0  0  0  0  0  0
    5.4600    1.4640   20.8650 C   0  0  0  0  0  0  0  0  0  0  0  0
    1.7600    2.2080   20.4220 C   0  0  0  0  0  0  0  0  0  0  0  0
    1.4090    1.0880   20.1280 O   0  0  0  0  0  0  0  0  0  0  0  0
  1  2  1  0
  2  3  2  0
  3  4  1  0
  4  5  1  0
  5  6  2  0
  6  7  1  0
  7  8  2  0
  7  9  1  0
  9 10  1  0
 10 11  1  0
 11 12  1  0
 12 13  1  0
 13 14  1  1
  9 15  1  0
 13 15  1  0
  2 16  1  0
  6 16  1  0
 16 17  2  0
M  END
