RAF-POL-8f876833-1
     RDKit          3D

 17 18  0  0  0  0  0  0  0  0999 V2000
   -0.4790    1.7850   20.8140 C   0  0  0  0  0  0  0  0  0  0  0  0
    0.6810    2.4160   21.0740 C   0  0  0  0  0  0  0  0  0  0  0  0
    1.1950    3.0940   19.9080 N   0  0  0  0  0  0  0  0  0  0  0  0
    0.3330    4.1270   19.5160 N   0  0  0  0  0  0  0  0  0  0  0  0
    0.9840    4.5400   18.5220 C   0  0  0  0  0  0  0  0  0  0  0  0
    2.1880    3.7190   18.3960 C   0  0  0  0  0  0  0  0  0  0  0  0
    2.4540    2.6960   19.2760 C   0  0  0  0  0  0  0  0  0  0  0  0
    3.5450    2.6290   18.4270 N   0  0  0  0  0  0  0  0  0  0  0  0
    4.5540    1.6780   18.4080 C   0  0  0  0  0  0  0  0  0  0  0  0
    4.4690    0.6820   17.6940 O   0  0  0  0  0  0  0  0  0  0  0  0
    5.6300    1.8510   19.1990 N   0  0  0  0  0  0  0  0  0  0  0  0
    5.4090    2.1780   20.5170 C   0  0  0  0  0  0  0  0  0  0  0  0
    6.2620    1.4710   21.5470 C   0  0  0  0  0  0  0  0  0  0  0  0
    5.9790   -0.0160   21.4420 C   0  0  0  0  0  0  0  0  0  0  0  0
    6.8410   -0.5980   20.3520 C   0  0  0  0  0  0  0  0  0  0  0  0
    6.7410   -0.0640   19.0700 C   0  0  0  0  0  0  0  0  0  0  0  0
    6.8310    1.1570   18.8970 O   0  0  0  0  0  0  0  0  0  0  0  0
  1  2  1  0
  2  3  1  0
  3  4  1  0
  4  5  2  0
  5  6  1  0
  3  7  1  0
  6  7  2  0
  7  8  1  0
  8  9  1  0
  9 10  2  0
  9 11  1  0
 11 12  1  0
 12 13  1  0
 13 14  1  0
 14 15  1  0
 15 16  1  0
 11 17  1  0
 16 17  1  0
M  END
