RAF-POL-950dada1-11
     RDKit          3D

 18 20  0  0  0  0  0  0  0  0999 V2000
    7.2940    1.7510   23.7440 C   0  0  0  0  0  0  0  0  0  0  0  0
    6.0120    2.2570   23.0700 C   0  0  0  0  0  0  0  0  0  0  0  0
    5.9750    1.8760   21.7470 C   0  0  0  0  0  0  0  0  0  0  0  0
    4.9080    1.8590   20.9250 C   0  0  0  0  0  0  0  0  0  0  0  0
    4.9890    1.4210   19.6530 C   0  0  0  0  0  0  0  0  0  0  0  0
    5.5710    0.9080   18.5350 C   0  0  0  0  0  0  0  0  0  0  0  0
    5.4070    1.4180   17.4310 O   0  0  0  0  0  0  0  0  0  0  0  0
    6.3810   -0.1990   18.6640 N   0  0  0  0  0  0  0  0  0  0  0  0
    7.1190    0.0760   19.8090 C   0  0  0  0  0  0  0  0  0  0  0  0
    7.6710   -0.8200   20.7310 C   0  0  0  0  0  0  0  0  0  0  0  0
    6.8860   -1.8890   20.7940 N   0  0  0  0  0  0  0  0  0  0  0  0
    6.7840   -2.8120   21.7660 N   0  0  0  0  0  0  0  0  0  0  0  0
    5.8430   -3.7200   21.3530 N   0  0  0  0  0  0  0  0  0  0  0  0
    5.4140   -3.3050   20.1380 C   0  0  0  0  0  0  0  0  0  0  0  0
    6.0030   -2.1660   19.7210 C   0  0  0  0  0  0  0  0  0  0  0  0
    5.8370   -1.4360   18.5530 C   0  0  0  0  0  0  0  0  0  0  0  0
    6.3360    1.2470   19.9760 N   0  0  0  0  0  0  0  0  0  0  0  0
    7.0640    1.4660   21.1350 N   0  0  0  0  0  0  0  0  0  0  0  0
  1  2  1  0
  2  3  1  0
  3  4  2  0
  4  5  1  0
  5  6  1  0
  6  7  2  0
  6  8  1  0
  8  9  1  0
  9 10  1  0
 10 11  1  0
 11 12  1  0
 12 13  2  0
 13 14  1  0
 11 15  1  0
 14 15  2  0
  8 16  1  0
 15 16  1  0
  5 17  2  0
  3 18  1  0
 17 18  1  0
M  END
