RAF-POL-950dada1-16
     RDKit          3D

 17 19  0  0  0  0  0  0  0  0999 V2000
    5.1480   -2.5920   19.3340 C   0  0  0  0  0  0  0  0  0  0  0  0
    5.2160   -1.2250   19.2110 C   0  0  1  0  0  0  0  0  0  0  0  0
    5.2010   -0.6060   17.9860 C   0  0  0  0  0  0  0  0  0  0  0  0
    5.3260    0.7420   18.2180 C   0  0  2  0  0  0  0  0  0  0  0  0
    6.7260    0.9910   18.5860 C   0  0  0  0  0  0  0  0  0  0  0  0
    7.5130    1.2580   17.7330 O   0  0  0  0  0  0  0  0  0  0  0  0
    7.1140    0.9060   19.8500 N   0  0  0  0  0  0  0  0  0  0  0  0
    6.0300    1.3030   20.6340 C   0  0  0  0  0  0  0  0  0  0  0  0
    5.6570    0.6230   21.8340 C   0  0  0  0  0  0  0  0  0  0  0  0
    4.7450    1.6540   21.9250 C   0  0  0  0  0  0  0  0  0  0  0  0
    4.8280    2.4430   20.8490 C   0  0  0  0  0  0  0  0  0  0  0  0
    5.9020    1.9010   19.9400 C   0  0  0  0  0  0  0  0  0  0  0  0
    6.6710    0.7890   20.1900 N   0  0  0  0  0  0  0  0  0  0  0  0
    6.6510   -0.1100   21.2830 C   0  0  0  0  0  0  0  0  0  0  0  0
    7.5110   -0.3040   20.3100 C   0  0  0  0  0  0  0  0  0  0  0  0
    4.3320    0.6450   19.4110 C   0  0  0  0  0  0  0  0  0  0  0  0
    4.4030   -0.5490   19.8730 O   0  0  0  0  0  0  0  0  0  0  0  0
  2  1  1  6
  2  3  1  0
  3  4  1  0
  4  5  1  1
  5  6  2  0
  5  7  1  0
  7  8  1  0
  8  9  1  0
  9 10  1  0
 10 11  2  0
 11 12  1  0
 12 13  2  0
  9 14  2  0
 13 14  1  0
  7 15  1  0
 14 15  1  0
  4 16  1  0
  2 17  1  0
 16 17  1  0
M  END
