RAF-POL-950dada1-23
     RDKit          3D

 18 20  0  0  0  0  0  0  0  0999 V2000
    6.2350   -0.2400   23.4520 O   0  0  0  0  0  0  0  0  0  0  0  0
    6.3100    0.7550   22.7440 C   0  0  0  0  0  0  0  0  0  0  0  0
    6.2340    0.6580   21.2360 C   0  0  0  0  0  0  0  0  0  0  0  0
    5.2860    1.4720   20.1820 C   0  0  0  0  0  0  0  0  0  0  0  0
    5.0880    1.4690   18.4490 C   0  0  0  0  0  0  0  0  0  0  0  0
    6.0330    0.4670   17.8450 N   0  0  0  0  0  0  0  0  0  0  0  0
    6.6360   -0.0150   18.8680 C   0  0  0  0  0  0  0  0  0  0  0  0
    5.6190    0.9650   18.5720 N   0  0  0  0  0  0  0  0  0  0  0  0
    5.1380    1.5530   19.4960 C   0  0  0  0  0  0  0  0  0  0  0  0
    5.8050    0.9960   20.4380 N   0  0  0  0  0  0  0  0  0  0  0  0
    6.8030   -0.0100   20.3480 C   0  0  0  0  0  0  0  0  0  0  0  0
    6.4620    2.0200   23.3410 N   0  0  0  0  0  0  0  0  0  0  0  0
    5.9390    3.1380   22.6740 C   0  0  0  0  0  0  0  0  0  0  0  0
    4.7650    3.6940   23.1960 C   0  0  0  0  0  0  0  0  0  0  0  0
    4.7580    3.5570   24.5840 C   0  0  0  0  0  0  0  0  0  0  0  0
    6.0150    3.3750   25.1690 C   0  0  1  0  0  0  0  0  0  0  0  0
    5.7370    3.0640   26.4660 F   0  0  0  0  0  0  0  0  0  0  0  0
    6.8200    2.2080   24.6390 C   0  0  0  0  0  0  0  0  0  0  0  0
  1  2  2  0
  2  3  1  0
  3  4  2  0
  4  5  1  0
  5  6  2  0
  6  7  1  0
  7  8  1  0
  8  9  1  0
  9 10  2  0
  3 11  1  0
  7 11  2  0
 10 11  1  0
  2 12  1  0
 12 13  1  0
 13 14  1  0
 14 15  1  0
 15 16  1  0
 16 17  1  1
 12 18  1  0
 16 18  1  0
M  END
