RAF-POL-950dada1-20
     RDKit          3D

 17 19  0  0  0  0  0  0  0  0999 V2000
    2.0950    1.2100   20.1180 O   0  0  0  0  0  0  0  0  0  0  0  0
    3.1570    1.5830   20.5680 C   0  0  0  0  0  0  0  0  0  0  0  0
    3.1360    2.6440   21.4660 C   0  0  0  0  0  0  0  0  0  0  0  0
    2.1920    3.3610   21.1600 O   0  0  0  0  0  0  0  0  0  0  0  0
    0.9100    3.0270   21.7400 C   0  0  0  0  0  0  0  0  0  0  0  0
    0.0130    2.5950   20.6510 C   0  0  0  0  0  0  0  0  0  0  0  0
   -0.7840    3.7340   21.0140 N   0  0  0  0  0  0  0  0  0  0  0  0
    0.1190    4.1430   22.0900 C   0  0  0  0  0  0  0  0  0  0  0  0
    4.4150    1.0420   20.2580 N   0  0  0  0  0  0  0  0  0  0  0  0
    4.8360   -0.2540   20.4020 C   0  0  0  0  0  0  0  0  0  0  0  0
    6.1180   -0.3370   20.9180 C   0  0  0  0  0  0  0  0  0  0  0  0
    6.7530    0.8590   20.9900 C   0  0  0  0  0  0  0  0  0  0  0  0
    6.6010    1.3490   19.7190 C   0  0  1  0  0  0  0  0  0  0  0  0
    7.0080    0.3810   18.5830 C   0  0  0  0  0  0  0  0  0  0  0  0
    5.9040    0.3520   17.7500 N   0  0  0  0  0  0  0  0  0  0  0  0
    5.0130    1.3270   18.1780 C   0  0  0  0  0  0  0  0  0  0  0  0
    5.3040    1.7740   19.4720 C   0  0  1  0  0  0  0  0  0  0  0  0
  1  2  2  0
  2  3  1  0
  3  4  1  0
  4  5  1  0
  5  6  1  0
  6  7  1  0
  5  8  1  0
  7  8  1  0
  2  9  1  0
  9 10  1  0
 10 11  1  0
 11 12  1  0
 13 12  1  1
 13 14  1  0
 14 15  1  0
 15 16  1  0
  9 17  1  0
 13 17  1  0
 17 16  1  6
M  END
