RAF-POL-b61b4b25-5
     RDKit          3D

 18 20  0  0  0  0  0  0  0  0999 V2000
    5.2780   -3.6480   20.0490 C   0  0  0  0  0  0  0  0  0  0  0  0
    6.1960   -2.6900   19.9550 C   0  0  0  0  0  0  0  0  0  0  0  0
    6.9420   -2.3050   21.1100 N   0  0  0  0  0  0  0  0  0  0  0  0
    7.7610   -1.2970   20.5130 C   0  0  0  0  0  0  0  0  0  0  0  0
    8.6850   -0.6150   21.4220 C   0  0  0  0  0  0  0  0  0  0  0  0
    7.9990    0.5520   21.7740 N   0  0  0  0  0  0  0  0  0  0  0  0
    7.1210    0.4330   22.7600 C   0  0  0  0  0  0  0  0  0  0  0  0
    7.1560    0.6300   23.9820 O   0  0  0  0  0  0  0  0  0  0  0  0
    6.1070   -0.0000   22.0020 N   0  0  0  0  0  0  0  0  0  0  0  0
    6.2120    0.8050   20.8040 C   0  0  0  0  0  0  0  0  0  0  0  0
    5.2410    1.7660   20.9840 C   0  0  0  0  0  0  0  0  0  0  0  0
    4.5720    2.1700   19.8540 C   0  0  0  0  0  0  0  0  0  0  0  0
    4.8960    1.2710   18.8630 C   0  0  0  0  0  0  0  0  0  0  0  0
    5.8010    0.1650   19.4540 C   0  0  0  0  0  0  0  0  0  0  0  0
    7.5430    1.4160   20.7510 C   0  0  0  0  0  0  0  0  0  0  0  0
    8.6930    1.8070   20.8400 O   0  0  0  0  0  0  0  0  0  0  0  0
    7.4710   -1.1670   19.1540 C   0  0  0  0  0  0  0  0  0  0  0  0
    6.4800   -2.0430   18.7910 O   0  0  0  0  0  0  0  0  0  0  0  0
  1  2  1  0
  2  3  2  0
  3  4  1  0
  4  5  1  0
  5  6  1  0
  6  7  1  0
  7  8  2  0
  7  9  1  0
  9 10  1  0
 10 11  1  0
 11 12  1  0
 12 13  1  0
 10 14  1  0
 13 14  1  0
  6 15  1  0
 10 15  1  0
 15 16  2  0
  4 17  2  0
  2 18  1  0
 17 18  1  0
M  END
