RAF-POL-9fce0577-4
     RDKit          3D

 18 20  0  0  0  0  0  0  0  0999 V2000
    7.0760    0.7180   21.5190 C   0  0  0  0  0  0  0  0  0  0  0  0
    5.8720    0.3700   20.5990 C   0  0  2  0  0  0  0  0  0  0  0  0
    6.0410    0.5380   19.2170 C   0  0  0  0  0  0  0  0  0  0  0  0
    5.0290    1.3800   19.0500 C   0  0  0  0  0  0  0  0  0  0  0  0
    4.6930    1.4630   20.3840 C   0  0  2  0  0  0  0  0  0  0  0  0
    4.9000    2.7950   20.9830 N   0  0  0  0  0  0  0  0  0  0  0  0
    5.0110    3.0020   22.3310 C   0  0  0  0  0  0  0  0  0  0  0  0
    4.5120    2.2450   23.1590 O   0  0  0  0  0  0  0  0  0  0  0  0
    5.7270    4.1160   22.7060 N   0  0  0  0  0  0  0  0  0  0  0  0
    5.9140    4.4190   24.1030 C   0  0  0  0  0  0  0  0  0  0  0  0
    6.5740    5.6540   24.0560 C   0  0  0  0  0  0  0  0  0  0  0  0
    6.7860    6.2440   22.7990 C   0  0  2  0  0  0  0  0  0  0  0  0
    6.1280    7.4250   22.4970 C   0  0  0  0  0  0  0  0  0  0  0  0
    6.4810    8.2310   21.4470 N   0  0  0  0  0  0  0  0  0  0  0  0
    5.6270    9.2230   21.5080 C   0  0  0  0  0  0  0  0  0  0  0  0
    4.7890    9.0210   22.5590 N   0  0  0  0  0  0  0  0  0  0  0  0
    5.0870    7.8820   23.2060 N   0  0  0  0  0  0  0  0  0  0  0  0
    6.4220    5.0920   21.8510 C   0  0  0  0  0  0  0  0  0  0  0  0
  2  1  1  1
  2  3  1  0
  3  4  1  0
  2  5  1  0
  4  5  1  0
  5  6  1  1
  6  7  1  0
  7  8  2  0
  7  9  1  0
  9 10  1  0
 10 11  1  0
 11 12  1  0
 12 13  1  6
 13 14  1  0
 14 15  2  0
 15 16  1  0
 13 17  2  0
 16 17  1  0
  9 18  1  0
 12 18  1  0
M  END
