RAF-POL-950dada1-9
     RDKit          3D

 15 16  0  0  0  0  0  0  0  0999 V2000
    6.7460    0.4740   22.5360 C   0  0  0  0  0  0  0  0  0  0  0  0
    6.6870    0.7220   21.0050 C   0  0  2  0  0  0  0  0  0  0  0  0
    5.7660    1.7460   20.7750 C   0  0  0  0  0  0  0  0  0  0  0  0
    4.9160    1.4270   19.6570 N   0  0  0  0  0  0  0  0  0  0  0  0
    3.6010    1.9220   19.6480 C   0  0  0  0  0  0  0  0  0  0  0  0
    3.1580    2.9130   18.7890 C   0  0  0  0  0  0  0  0  0  0  0  0
    1.7680    3.5150   18.7330 C   0  0  0  0  0  0  0  0  0  0  0  0
    0.8390    2.9210   19.7440 C   0  0  0  0  0  0  0  0  0  0  0  0
    1.3670    1.8900   20.6090 N   0  0  0  0  0  0  0  0  0  0  0  0
    2.6450    1.4420   20.5490 N   0  0  0  0  0  0  0  0  0  0  0  0
    5.5210    0.8060   18.4980 C   0  0  0  0  0  0  0  0  0  0  0  0
    6.3680   -0.2450   18.8290 C   0  0  0  0  0  0  0  0  0  0  0  0
    6.5970   -0.4230   20.1890 C   0  0  0  0  0  0  0  0  0  0  0  0
    7.6680   -1.1460   20.5180 F   0  0  0  0  0  0  0  0  0  0  0  0
    5.5650   -1.1770   20.6560 F   0  0  0  0  0  0  0  0  0  0  0  0
  2  1  1  1
  2  3  1  0
  3  4  1  0
  4  5  1  0
  5  6  2  0
  6  7  1  0
  7  8  2  0
  8  9  1  0
  5 10  1  0
  9 10  2  0
  4 11  1  0
 11 12  1  0
  2 13  1  0
 12 13  1  0
 13 14  1  0
 13 15  1  0
M  END
