RAF-POL-b61b4b25-1
     RDKit          3D

 17 19  0  0  0  0  0  0  0  0999 V2000
    5.3300   -2.7840   19.3460 O   0  0  0  0  0  0  0  0  0  0  0  0
    5.8480   -1.9900   20.1400 C   0  0  0  0  0  0  0  0  0  0  0  0
    6.0510   -2.3140   21.5690 N   0  0  0  0  0  0  0  0  0  0  0  0
    5.2340   -1.8450   22.5460 C   0  0  0  0  0  0  0  0  0  0  0  0
    4.7490   -3.0390   23.2750 C   0  0  0  0  0  0  0  0  0  0  0  0
    5.5530   -3.9360   23.5940 O   0  0  0  0  0  0  0  0  0  0  0  0
    6.7870   -3.5010   23.2080 C   0  0  0  0  0  0  0  0  0  0  0  0
    6.8710   -3.3570   21.8360 C   0  0  0  0  0  0  0  0  0  0  0  0
    6.2960   -0.6930   19.7970 N   0  0  0  0  0  0  0  0  0  0  0  0
    5.9040    0.1040   18.7310 C   0  0  0  0  0  0  0  0  0  0  0  0
    5.5740    1.3700   19.2000 C   0  0  1  0  0  0  0  0  0  0  0  0
    4.8240    1.5890   20.3240 C   0  0  0  0  0  0  0  0  0  0  0  0
    6.3870    1.5190   20.5890 C   0  0  2  0  0  0  0  0  0  0  0  0
    6.4140    0.8910   21.9740 C   0  0  0  0  0  0  0  0  0  0  0  0
    5.4540    0.3770   22.5060 O   0  0  0  0  0  0  0  0  0  0  0  0
    7.6140    1.0140   22.5950 O   0  0  0  0  0  0  0  0  0  0  0  0
    6.9700    0.1180   20.7540 C   0  0  0  0  0  0  0  0  0  0  0  0
  1  2  2  0
  2  3  1  0
  3  4  1  0
  4  5  1  0
  5  6  1  0
  6  7  1  0
  3  8  1  0
  7  8  1  0
  2  9  1  0
  9 10  1  0
 11 10  1  1
 11 12  1  0
 11 13  1  0
 12 13  1  0
 13 14  1  1
 14 15  2  0
 14 16  1  0
  9 17  1  0
 13 17  1  0
M  END
