RAF-POL-f691468c-1
     RDKit          3D

 18 20  0  0  0  0  0  0  0  0999 V2000
    9.1540   -1.0650   22.2260 C   0  0  0  0  0  0  0  0  0  0  0  0
    8.2340    0.2100   22.4760 C   0  0  0  0  0  0  0  0  0  0  0  0
    7.9980    1.7580   22.6380 N   0  0  0  0  0  0  0  0  0  0  0  0
    7.0390    3.0510   22.8930 C   0  0  0  0  0  0  0  0  0  0  0  0
    8.2760    2.9680   22.6940 C   0  0  0  0  0  0  0  0  0  0  0  0
    9.5600    3.4620   22.5390 C   0  0  0  0  0  0  0  0  0  0  0  0
    8.5390    1.6870   22.5410 C   0  0  0  0  0  0  0  0  0  0  0  0
    7.2900    1.0230   22.6530 N   0  0  0  0  0  0  0  0  0  0  0  0
    6.4150    0.6830   21.5100 C   0  0  1  0  0  0  0  0  0  0  0  0
    5.9860    1.9120   20.9220 C   0  0  0  0  0  0  0  0  0  0  0  0
    5.1510    1.7810   19.7860 C   0  0  0  0  0  0  0  0  0  0  0  0
    5.4400    0.7760   18.8970 C   0  0  0  0  0  0  0  0  0  0  0  0
    5.0000    0.5050   17.6470 N   0  0  0  0  0  0  0  0  0  0  0  0
    5.6850   -0.6420   17.3760 N   0  0  0  0  0  0  0  0  0  0  0  0
    6.5090   -1.0870   18.3490 C   0  0  0  0  0  0  0  0  0  0  0  0
    6.4100   -0.2230   19.3760 C   0  0  0  0  0  0  0  0  0  0  0  0
    7.0770   -0.2220   20.6900 C   0  0  0  0  0  0  0  0  0  0  0  0
    9.4210    0.8670   22.3410 N   0  0  0  0  0  0  0  0  0  0  0  0
  1  2  1  0
  2  3  2  0
  3  4  1  0
  4  5  2  0
  5  6  1  0
  5  7  1  0
  7  8  1  0
  9  8  1  1
  9 10  1  0
 10 11  1  0
 11 12  1  0
 12 13  2  0
 13 14  1  0
 14 15  1  0
 12 16  1  0
 15 16  2  0
  9 17  1  0
 16 17  1  0
  2 18  1  0
  7 18  2  0
M  END
