RAF-POL-9fce0577-3
     RDKit          3D

 18 21  0  0  0  0  0  0  0  0999 V2000
    8.8080    0.1740   22.6320 O   0  0  0  0  0  0  0  0  0  0  0  0
    7.9180    0.9970   22.7310 C   0  0  0  0  0  0  0  0  0  0  0  0
    6.6420    0.7740   22.2890 N   0  0  0  0  0  0  0  0  0  0  0  0
    6.5530    0.8900   20.9240 C   0  0  2  0  0  0  0  0  0  0  0  0
    5.3180    1.0990   20.5300 C   0  0  1  0  0  0  0  0  0  0  0  0
    5.0240    1.4860   19.1240 C   0  0  0  0  0  0  0  0  0  0  0  0
    5.9270    0.7270   18.1960 C   0  0  0  0  0  0  0  0  0  0  0  0
    6.4940   -0.3410   18.9150 C   0  0  0  0  0  0  0  0  0  0  0  0
    6.2990   -0.2230   20.3090 C   0  0  1  0  0  0  0  0  0  0  0  0
    8.1040    2.2580   23.3240 N   0  0  0  0  0  0  0  0  0  0  0  0
    7.1850    2.8460   24.3430 C   0  0  0  0  0  0  0  0  0  0  0  0
    7.8200    3.5860   25.3490 C   0  0  0  0  0  0  0  0  0  0  0  0
    9.0790    4.1250   24.8520 N   0  0  0  0  0  0  0  0  0  0  0  0
    9.9100    5.0410   25.6210 C   0  0  0  0  0  0  0  0  0  0  0  0
   10.9710    5.3370   24.8820 N   0  0  0  0  0  0  0  0  0  0  0  0
   10.8060    4.6260   23.6930 C   0  0  0  0  0  0  0  0  0  0  0  0
    9.6220    3.8760   23.6890 C   0  0  0  0  0  0  0  0  0  0  0  0
    9.1030    3.0490   22.7000 C   0  0  0  0  0  0  0  0  0  0  0  0
  1  2  2  0
  2  3  1  0
  4  3  1  1
  4  5  1  0
  5  6  1  6
  6  7  1  0
  7  8  1  0
  4  9  1  0
  5  9  1  0
  9  8  1  6
  2 10  1  0
 10 11  1  0
 11 12  1  0
 12 13  1  0
 13 14  1  0
 14 15  2  0
 15 16  1  0
 13 17  1  0
 16 17  2  0
 10 18  1  0
 17 18  1  0
M  END
