RAF-POL-950dada1-24
     RDKit          3D

 18 21  0  0  0  0  0  0  0  0999 V2000
    7.8870    2.6960   21.8020 O   0  0  0  0  0  0  0  0  0  0  0  0
    7.7440    1.5540   22.2250 C   0  0  0  0  0  0  0  0  0  0  0  0
    6.4660    0.8720   22.4590 N   0  0  0  0  0  0  0  0  0  0  0  0
    5.9290    0.4420   21.1530 C   0  0  1  0  0  0  0  0  0  0  0  0
    5.9450    1.2910   20.3130 C   0  0  2  0  0  0  0  0  0  0  0  0
    5.0110    1.5000   19.1440 C   0  0  0  0  0  0  0  0  0  0  0  0
    5.3260    0.4450   18.0790 C   0  0  0  0  0  0  0  0  0  0  0  0
    6.2750   -0.5450   18.7760 C   0  0  0  0  0  0  0  0  0  0  0  0
    6.8210    0.1410   20.0450 C   0  0  2  0  0  0  0  0  0  0  0  0
    8.9640    0.6700   22.5670 C   0  0  0  0  0  0  0  0  0  0  0  0
   10.2180    1.3040   22.5370 C   0  0  0  0  0  0  0  0  0  0  0  0
   11.5130    0.5830   22.8610 C   0  0  0  0  0  0  0  0  0  0  0  0
   11.2430   -0.8240   23.2150 C   0  0  0  0  0  0  0  0  0  0  0  0
   12.1440   -1.7330   23.5810 N   0  0  0  0  0  0  0  0  0  0  0  0
   11.4120   -2.8710   23.8230 C   0  0  0  0  0  0  0  0  0  0  0  0
   10.0960   -2.6190   23.5810 N   0  0  0  0  0  0  0  0  0  0  0  0
    9.9470   -1.3290   23.2000 C   0  0  0  0  0  0  0  0  0  0  0  0
    8.7840   -0.6520   22.8820 N   0  0  0  0  0  0  0  0  0  0  0  0
  1  2  2  0
  2  3  1  0
  4  3  1  1
  4  5  1  0
  5  6  1  6
  6  7  1  0
  7  8  1  0
  4  9  1  0
  5  9  1  0
  9  8  1  6
  2 10  1  0
 10 11  2  0
 11 12  1  0
 12 13  2  0
 13 14  1  0
 14 15  2  0
 15 16  1  0
 13 17  1  0
 16 17  1  0
 10 18  1  0
 17 18  2  0
M  END
