RAF-POL-f691468c-2
     RDKit          3D

 17 18  0  0  0  0  0  0  0  0999 V2000
    5.0620   -0.3570   17.9250 C   0  0  0  0  0  0  0  0  0  0  0  0
    5.7090    0.8830   17.8310 O   0  0  0  0  0  0  0  0  0  0  0  0
    6.3670    1.0710   18.9690 C   0  0  2  0  0  0  0  0  0  0  0  0
    6.6490   -0.1270   19.8050 C   0  0  0  0  0  0  0  0  0  0  0  0
    5.8030   -0.2940   20.7290 O   0  0  0  0  0  0  0  0  0  0  0  0
    4.8620    0.8050   20.6380 C   0  0  0  0  0  0  0  0  0  0  0  0
    5.4930    1.8430   19.9500 C   0  0  1  0  0  0  0  0  0  0  0  0
    6.2840    2.5590   20.9820 N   0  0  0  0  0  0  0  0  0  0  0  0
    5.6040    3.6190   21.7230 C   0  0  0  0  0  0  0  0  0  0  0  0
    4.5410    3.4100   22.3000 O   0  0  0  0  0  0  0  0  0  0  0  0
    6.2410    4.9230   21.7420 N   0  0  0  0  0  0  0  0  0  0  0  0
    7.5220    5.0200   22.2720 C   0  0  0  0  0  0  0  0  0  0  0  0
    7.9100    6.4410   22.1640 C   0  0  0  0  0  0  0  0  0  0  0  0
    6.8010    7.0500   21.6080 C   0  0  0  0  0  0  0  0  0  0  0  0
    5.6690    6.1770   21.6780 C   0  0  2  0  0  0  0  0  0  0  0  0
    4.7610    6.4610   22.7130 C   0  0  0  0  0  0  0  0  0  0  0  0
    4.5770    7.8250   22.7980 N   0  0  0  0  0  0  0  0  0  0  0  0
  1  2  1  0
  3  2  1  6
  3  4  1  0
  4  5  1  0
  5  6  1  0
  3  7  1  0
  6  7  1  0
  7  8  1  1
  8  9  1  0
  9 10  2  0
  9 11  1  0
 11 12  1  0
 12 13  1  0
 13 14  1  0
 11 15  1  0
 14 15  1  0
 15 16  1  1
 16 17  1  0
M  END
