RAF-POL-950dada1-8
     RDKit          3D

 18 20  0  0  0  0  0  0  0  0999 V2000
    5.1520   -1.5990   20.0450 C   0  0  0  0  0  0  0  0  0  0  0  0
    5.2510   -1.2610   21.4160 C   0  0  0  0  0  0  0  0  0  0  0  0
    5.5540   -2.1650   22.3980 N   0  0  0  0  0  0  0  0  0  0  0  0
    5.5790   -1.5060   23.6930 C   0  0  0  0  0  0  0  0  0  0  0  0
    5.8510   -2.0750   24.9760 O   0  0  0  0  0  0  0  0  0  0  0  0
    5.2570   -0.0880   23.4140 N   0  0  0  0  0  0  0  0  0  0  0  0
    5.0360    0.1640   22.0490 C   0  0  0  0  0  0  0  0  0  0  0  0
    4.7110    1.3300   21.4180 C   0  0  0  0  0  0  0  0  0  0  0  0
    3.4490    1.9470   21.7490 O   0  0  0  0  0  0  0  0  0  0  0  0
    5.6690    1.7760   20.5520 N   0  0  0  0  0  0  0  0  0  0  0  0
    6.9260    1.8060   21.0750 C   0  0  0  0  0  0  0  0  0  0  0  0
    7.6190    0.6170   21.2840 C   0  0  0  0  0  0  0  0  0  0  0  0
    7.3160   -0.4030   20.4340 C   0  0  0  0  0  0  0  0  0  0  0  0
    6.6490   -0.0070   19.2860 C   0  0  0  0  0  0  0  0  0  0  0  0
    6.7980   -0.6150   18.2210 N   0  0  0  0  0  0  0  0  0  0  0  0
    5.9520    0.2000   17.4940 N   0  0  0  0  0  0  0  0  0  0  0  0
    5.2050    1.3390   17.9680 C   0  0  0  0  0  0  0  0  0  0  0  0
    5.7580    1.1360   19.2620 C   0  0  0  0  0  0  0  0  0  0  0  0
  1  2  1  0
  2  3  1  0
  3  4  2  0
  4  5  1  0
  4  6  1  0
  2  7  2  0
  6  7  1  0
  7  8  1  0
  8  9  2  0
  8 10  1  0
 10 11  1  0
 11 12  1  0
 12 13  1  0
 13 14  1  0
 14 15  2  0
 15 16  1  0
 16 17  1  0
 10 18  1  0
 14 18  1  0
 17 18  2  0
M  END
