RAF-POL-950dada1-7
     RDKit          3D

 18 21  0  0  0  0  0  0  0  0999 V2000
    7.8080   -0.2630   20.4690 O   0  0  0  0  0  0  0  0  0  0  0  0
    7.0350    0.5510   19.9810 C   0  0  0  0  0  0  0  0  0  0  0  0
    6.7180    1.8130   20.6670 C   0  0  0  0  0  0  0  0  0  0  0  0
    5.3600    1.9840   20.6150 C   0  0  2  0  0  0  0  0  0  0  0  0
    4.7830    0.8470   21.1060 C   0  0  0  0  0  0  0  0  0  0  0  0
    4.3700    0.1100   19.9120 C   0  0  0  0  0  0  0  0  0  0  0  0
    4.9530    0.6690   18.8310 C   0  0  2  0  0  0  0  0  0  0  0  0
    6.3270    0.3670   18.6680 C   0  0  0  0  0  0  0  0  0  0  0  0
    4.7500    2.0770   19.3530 N   0  0  0  0  0  0  0  0  0  0  0  0
    3.3820    2.4990   19.6350 C   0  0  0  0  0  0  0  0  0  0  0  0
    2.8170    2.0410   20.8990 N   0  0  0  0  0  0  0  0  0  0  0  0
    1.5410    2.3630   21.3190 C   0  0  0  0  0  0  0  0  0  0  0  0
    0.5990    3.1750   20.6110 N   0  0  0  0  0  0  0  0  0  0  0  0
    1.0530    3.6610   19.3990 C   0  0  0  0  0  0  0  0  0  0  0  0
    0.2760    4.4740   18.5780 N   0  0  0  0  0  0  0  0  0  0  0  0
    1.0220    4.7620   17.4830 C   0  0  0  0  0  0  0  0  0  0  0  0
    2.2260    4.1390   17.6350 C   0  0  0  0  0  0  0  0  0  0  0  0
    2.3410    3.4190   18.8180 C   0  0  0  0  0  0  0  0  0  0  0  0
  1  2  2  0
  2  3  1  0
  4  3  1  6
  4  5  1  0
  5  6  1  0
  7  6  1  1
  2  8  1  0
  7  8  1  0
  4  9  1  0
  7  9  1  0
  9 10  1  0
 10 11  2  0
 11 12  1  0
 12 13  2  0
 13 14  1  0
 14 15  1  0
 15 16  1  0
 16 17  2  0
 10 18  1  0
 14 18  2  0
 17 18  1  0
M  END
