RAF-POL-9fce0577-1
     RDKit          3D

 18 21  0  0  0  0  0  0  0  0999 V2000
    4.1970    3.0340   22.6440 O   0  0  0  0  0  0  0  0  0  0  0  0
    4.5780    3.2380   21.4970 C   0  0  0  0  0  0  0  0  0  0  0  0
    4.6280    4.5100   20.9300 N   0  0  0  0  0  0  0  0  0  0  0  0
    4.2430    5.6960   21.6040 C   0  0  2  0  0  0  0  0  0  0  0  0
    3.9580    6.7670   20.9030 C   0  0  0  0  0  0  0  0  0  0  0  0
    5.1440    7.0160   21.6500 C   0  0  0  0  0  0  0  0  0  0  0  0
    6.2320    6.9140   20.9180 C   0  0  0  0  0  0  0  0  0  0  0  0
    6.5220    7.8280   21.9330 C   0  0  0  0  0  0  0  0  0  0  0  0
    5.0130    2.0770   20.6740 C   0  0  0  0  0  0  0  0  0  0  0  0
    4.7630    2.0310   19.3400 C   0  0  0  0  0  0  0  0  0  0  0  0
    5.2060    0.9400   18.7110 C   0  0  0  0  0  0  0  0  0  0  0  0
    5.0670    0.7510   17.5070 O   0  0  0  0  0  0  0  0  0  0  0  0
    5.8530   -0.0480   19.4100 N   0  0  0  0  0  0  0  0  0  0  0  0
    6.2120   -0.1730   20.8850 C   0  0  0  0  0  0  0  0  0  0  0  0
    6.5960   -1.2360   20.1220 C   0  0  0  0  0  0  0  0  0  0  0  0
    5.9490   -1.5520   18.9970 C   0  0  0  0  0  0  0  0  0  0  0  0
    7.1660   -0.9620   18.5960 C   0  0  0  0  0  0  0  0  0  0  0  0
    5.6790    1.0600   21.3540 C   0  0  0  0  0  0  0  0  0  0  0  0
  1  2  2  0
  2  3  1  0
  4  3  1  6
  4  5  1  0
  4  6  1  0
  6  5  1  0
  6  7  1  0
  6  8  1  0
  7  8  1  0
  2  9  1  0
  9 10  2  0
 10 11  1  0
 11 12  1  0
 11 13  2  0
 13 14  1  0
 14 15  1  0
 15 16  1  0
 15 17  1  0
 16 17  1  0
  9 18  1  0
 14 18  2  0
M  END
