RAF-POL-950dada1-17
     RDKit          3D

 17 19  0  0  0  0  0  0  0  0999 V2000
    9.0280    0.3190   14.8880 C   0  0  0  0  0  0  0  0  0  0  0  0
    8.4540   -0.3360   15.8890 C   0  0  1  0  0  0  0  0  0  0  0  0
    7.0840   -0.6030   15.9080 C   0  0  0  0  0  0  0  0  0  0  0  0
    7.0090   -1.7700   16.7890 C   0  0  2  0  0  0  0  0  0  0  0  0
    6.3450   -1.6330   18.0060 C   0  0  0  0  0  0  0  0  0  0  0  0
    5.4710   -2.4330   18.3460 O   0  0  0  0  0  0  0  0  0  0  0  0
    6.6420   -0.6220   18.9100 N   0  0  0  0  0  0  0  0  0  0  0  0
    5.8600    0.6470   19.2740 C   0  0  0  0  0  0  0  0  0  0  0  0
    6.0450    1.1830   20.6370 C   0  0  0  0  0  0  0  0  0  0  0  0
    5.1040    2.2500   20.1070 C   0  0  0  0  0  0  0  0  0  0  0  0
    4.7540    1.9270   18.7040 C   0  0  0  0  0  0  0  0  0  0  0  0
    5.4250    0.6740   18.2580 C   0  0  0  0  0  0  0  0  0  0  0  0
    6.2740   -0.0520   19.1330 N   0  0  0  0  0  0  0  0  0  0  0  0
    6.7540    0.0560   20.4950 C   0  0  0  0  0  0  0  0  0  0  0  0
    7.3300   -1.0480   20.0670 C   0  0  0  0  0  0  0  0  0  0  0  0
    8.2370   -2.2630   16.7050 C   0  0  0  0  0  0  0  0  0  0  0  0
    8.9800   -1.4230   16.1430 O   0  0  0  0  0  0  0  0  0  0  0  0
  2  1  1  6
  2  3  1  0
  3  4  1  0
  4  5  1  1
  5  6  2  0
  5  7  1  0
  7  8  1  0
  8  9  1  0
  9 10  1  0
 10 11  2  0
 11 12  1  0
 12 13  2  0
  9 14  2  0
 13 14  1  0
  7 15  1  0
 14 15  1  0
  4 16  1  0
  2 17  1  0
 16 17  1  0
M  END
