RAI-NOV-a7d52b4a-3
     RDKit          3D

 26 28  0  0  0  0  0  0  0  0999 V2000
    7.2210    1.5130   20.3920 C   0  0  0  0  0  0  0  0  0  0  0  0
    5.9490    0.8690   20.5940 N   0  0  0  0  0  0  0  0  0  0  0  0
    5.4250    1.0920   21.9420 C   0  0  0  0  0  0  0  0  0  0  0  0
    5.0900    0.4950   19.4760 C   0  0  0  0  0  0  0  0  0  0  0  0
    3.7450    0.9030   19.2290 O   0  0  0  0  0  0  0  0  0  0  0  0
    5.6340   -0.3660   18.5130 C   0  0  0  0  0  0  0  0  0  0  0  0
    6.0290   -1.6370   18.6890 C   0  0  0  0  0  0  0  0  0  0  0  0
    5.9680   -2.4130   19.9160 C   0  0  0  0  0  0  0  0  0  0  0  0
    5.5740   -3.7590   19.8760 O   0  0  0  0  0  0  0  0  0  0  0  0
    6.3330   -1.7190   21.1240 N   0  0  0  0  0  0  0  0  0  0  0  0
    5.8260   -1.9440   22.3130 C   0  0  0  0  0  0  0  0  0  0  0  0
    6.5810   -2.9150   22.8580 C   0  0  0  0  0  0  0  0  0  0  0  0
    5.9370   -3.9610   23.5060 C   0  0  0  0  0  0  0  0  0  0  0  0
    6.6110   -5.0150   24.0580 C   0  0  0  0  0  0  0  0  0  0  0  0
    7.9660   -5.0660   24.0130 C   0  0  0  0  0  0  0  0  0  0  0  0
    8.7040   -4.0550   23.4410 C   0  0  0  0  0  0  0  0  0  0  0  0
    8.1110   -3.0680   22.8620 C   0  0  0  0  0  0  0  0  0  0  0  0
    8.6040   -1.9620   22.0870 C   0  0  2  0  0  0  0  0  0  0  0  0
    9.7360   -1.1580   22.4480 C   0  0  0  0  0  0  0  0  0  0  0  0
   11.0230   -1.7380   22.6250 C   0  0  0  0  0  0  0  0  0  0  0  0
   12.0740   -0.8890   22.9270 C   0  0  0  0  0  0  0  0  0  0  0  0
   11.9060    0.5260   23.0610 C   0  0  0  0  0  0  0  0  0  0  0  0
   10.6420    1.0950   22.8900 C   0  0  0  0  0  0  0  0  0  0  0  0
   10.3650    2.7930   23.0170 Cl  0  0  0  0  0  0  0  0  0  0  0  0
    9.5750    0.2380   22.5920 C   0  0  0  0  0  0  0  0  0  0  0  0
    7.5890   -1.0530   21.3880 C   0  0  0  0  0  0  0  0  0  0  0  0
  1  2  1  0
  2  3  1  0
  2  4  1  0
  4  5  2  0
  4  6  1  0
  6  7  2  3
  7  8  1  0
  8  9  2  0
  8 10  1  0
 10 11  1  0
 11 12  1  0
 12 13  1  0
 13 14  2  0
 14 15  1  0
 15 16  2  0
 12 17  2  0
 16 17  1  0
 17 18  1  0
 18 19  1  1
 19 20  2  0
 20 21  1  0
 21 22  2  0
 22 23  1  0
 23 24  1  0
 19 25  1  0
 23 25  2  0
 10 26  1  0
 18 26  1  0
M  END
