RAI-NOV-c18e0037-3
     RDKit          3D

 27 30  0  0  0  0  0  0  0  0999 V2000
    5.2080   -2.2370   20.5510 O   0  0  0  0  0  0  0  0  0  0  0  0
    6.1200   -1.8040   21.2290 C   0  0  0  0  0  0  0  0  0  0  0  0
    6.6390   -2.6260   22.1880 C   0  0  0  0  0  0  0  0  0  0  0  0
    5.9170   -3.7960   22.4200 C   0  0  0  0  0  0  0  0  0  0  0  0
    6.3920   -4.7400   23.4310 C   0  0  0  0  0  0  0  0  0  0  0  0
    5.7010   -5.8640   23.6670 F   0  0  0  0  0  0  0  0  0  0  0  0
    7.6390   -4.4180   24.1770 C   0  0  0  0  0  0  0  0  0  0  0  0
    8.1830   -5.5240   25.3630 Cl  0  0  0  0  0  0  0  0  0  0  0  0
    8.3010   -3.1960   23.8520 C   0  0  0  0  0  0  0  0  0  0  0  0
    7.8240   -2.2980   22.8820 C   0  0  0  0  0  0  0  0  0  0  0  0
    8.4700   -1.0390   22.5440 N   0  0  0  0  0  0  0  0  0  0  0  0
    9.8310   -0.6860   22.8260 C   0  0  0  0  0  0  0  0  0  0  0  0
   10.1550    0.3330   23.7280 C   0  0  0  0  0  0  0  0  0  0  0  0
   11.6440    0.6860   23.9500 C   0  0  0  0  0  0  0  0  0  0  0  0
   12.5950   -0.0180   23.2610 C   0  0  0  0  0  0  0  0  0  0  0  0
   12.1820   -1.0240   22.3840 C   0  0  0  0  0  0  0  0  0  0  0  0
   13.2580   -1.9510   21.4740 Cl  0  0  0  0  0  0  0  0  0  0  0  0
   10.8550   -1.3440   22.1760 C   0  0  0  0  0  0  0  0  0  0  0  0
    7.9240   -0.1950   21.5810 C   0  0  0  0  0  0  0  0  0  0  0  0
    8.5920    0.9190   21.1510 O   0  0  0  0  0  0  0  0  0  0  0  0
    6.6640   -0.5480   21.0970 N   0  0  0  0  0  0  0  0  0  0  0  0
    6.1490    0.1800   19.9860 C   0  0  0  0  0  0  0  0  0  0  0  0
    5.0000    0.9510   20.0870 C   0  0  0  0  0  0  0  0  0  0  0  0
    4.5300    1.6410   18.9790 C   0  0  0  0  0  0  0  0  0  0  0  0
    5.2420    1.5350   17.7710 C   0  0  0  0  0  0  0  0  0  0  0  0
    6.3530    0.7920   17.6520 N   0  0  0  0  0  0  0  0  0  0  0  0
    6.7740    0.1390   18.7480 C   0  0  0  0  0  0  0  0  0  0  0  0
  1  2  2  0
  2  3  1  0
  3  4  2  0
  4  5  1  0
  5  6  1  0
  5  7  2  0
  7  8  1  0
  7  9  1  0
  3 10  1  0
  9 10  2  0
 10 11  1  0
 11 12  1  0
 12 13  2  0
 13 14  1  0
 14 15  2  0
 15 16  1  0
 16 17  1  0
 12 18  1  0
 16 18  2  0
 11 19  1  0
 19 20  2  0
  2 21  1  0
 19 21  1  0
 21 22  1  0
 22 23  2  0
 23 24  1  0
 24 25  2  0
 25 26  1  0
 22 27  1  0
 26 27  2  0
M  END
