RAI-NOV-c18e0037-1
     RDKit          3D

 25 28  0  0  0  0  0  0  0  0999 V2000
    5.3920   -2.5030   20.8180 O   0  0  0  0  0  0  0  0  0  0  0  0
    6.4000   -2.0610   21.3520 C   0  0  0  0  0  0  0  0  0  0  0  0
    7.1110   -2.8360   22.4840 C   0  0  0  0  0  0  0  0  0  0  0  0
    6.4490   -3.9630   22.9610 C   0  0  0  0  0  0  0  0  0  0  0  0
    6.9850   -4.7390   23.9930 C   0  0  0  0  0  0  0  0  0  0  0  0
    8.1940   -4.4190   24.5870 C   0  0  0  0  0  0  0  0  0  0  0  0
    8.8880   -5.4780   25.9890 Br  0  0  0  0  0  0  0  0  0  0  0  0
    8.9570   -3.1940   24.0890 C   0  0  0  0  0  0  0  0  0  0  0  0
    8.3260   -2.3950   22.9640 C   0  0  0  0  0  0  0  0  0  0  0  0
    8.9030   -1.2200   22.3760 N   0  0  0  0  0  0  0  0  0  0  0  0
   10.2670   -0.8400   22.6370 C   0  0  0  0  0  0  0  0  0  0  0  0
   10.5120    0.2440   23.4840 C   0  0  0  0  0  0  0  0  0  0  0  0
   11.7980    0.6900   23.7670 C   0  0  0  0  0  0  0  0  0  0  0  0
   12.8870    0.0590   23.2090 C   0  0  0  0  0  0  0  0  0  0  0  0
   12.7560   -1.0340   22.3620 C   0  0  0  0  0  0  0  0  0  0  0  0
   11.3570   -1.5150   22.0560 C   0  0  0  0  0  0  0  0  0  0  0  0
    8.2250   -0.4170   21.5290 C   0  0  0  0  0  0  0  0  0  0  0  0
    8.6900    0.6860   21.2170 O   0  0  0  0  0  0  0  0  0  0  0  0
    6.9810   -0.8680   21.0260 N   0  0  0  0  0  0  0  0  0  0  0  0
    6.2950   -0.0580   20.0350 C   0  0  0  0  0  0  0  0  0  0  0  0
    4.9990    0.6990   20.4530 C   0  0  0  0  0  0  0  0  0  0  0  0
    4.5780    1.4390   19.1380 C   0  0  0  0  0  0  0  0  0  0  0  0
    5.2640    1.3730   17.9360 C   0  0  0  0  0  0  0  0  0  0  0  0
    6.3760    0.6710   17.7250 N   0  0  0  0  0  0  0  0  0  0  0  0
    6.8620   -0.0200   18.7570 C   0  0  0  0  0  0  0  0  0  0  0  0
  1  2  2  0
  2  3  1  0
  3  4  2  0
  4  5  1  0
  5  6  2  0
  6  7  1  0
  6  8  1  0
  3  9  1  0
  8  9  2  0
  9 10  1  0
 10 11  1  0
 11 12  2  0
 12 13  1  0
 13 14  2  0
 14 15  1  0
 11 16  1  0
 15 16  2  0
 10 17  1  0
 17 18  2  0
  2 19  1  0
 17 19  1  0
 19 20  1  0
 20 21  2  0
 21 22  1  0
 22 23  2  0
 23 24  1  0
 20 25  1  0
 24 25  2  0
M  END
