RAI-NOV-2f6a9876-3
     RDKit          3D

 24 27  0  0  0  0  0  0  0  0999 V2000
    3.6590   -5.0930   27.2890 N   0  0  0  0  0  0  0  0  0  0  0  0
    3.4230   -4.0060   26.3220 C   0  0  0  0  0  0  0  0  0  0  0  0
    4.0370   -4.2760   24.9710 C   0  0  0  0  0  0  0  0  0  0  0  0
    3.1190   -4.6400   23.8300 C   0  0  0  0  0  0  0  0  0  0  0  0
    3.7170   -4.9040   22.5050 N   0  0  0  0  0  0  0  0  0  0  0  0
    5.0780   -4.8140   22.3510 C   0  0  0  0  0  0  0  0  0  0  0  0
    5.8630   -4.4790   23.4240 C   0  0  0  0  0  0  0  0  0  0  0  0
    7.3630   -4.3610   23.3350 C   0  0  0  0  0  0  0  0  0  0  0  0
    8.0470   -5.2800   23.7420 O   0  0  0  0  0  0  0  0  0  0  0  0
    7.9420   -3.1900   22.7680 N   0  0  0  0  0  0  0  0  0  0  0  0
    9.1550   -2.7270   23.2580 C   0  0  0  0  0  0  0  0  0  0  0  0
    9.2190   -1.2610   23.1560 C   0  0  1  0  0  0  0  0  0  0  0  0
   10.4840   -0.6900   23.0080 C   0  0  0  0  0  0  0  0  0  0  0  0
   10.6320    0.6760   23.0400 C   0  0  0  0  0  0  0  0  0  0  0  0
   11.8290    1.3650   22.9320 C   0  0  0  0  0  0  0  0  0  0  0  0
   13.0500    0.5390   22.7700 C   0  0  0  0  0  0  0  0  0  0  0  0
   12.9120   -0.8450   22.7240 C   0  0  0  0  0  0  0  0  0  0  0  0
   11.6510   -1.4560   22.8390 C   0  0  0  0  0  0  0  0  0  0  0  0
    8.2200   -0.9690   22.0030 C   0  0  2  0  0  0  0  0  0  0  0  0
    7.4850    0.2090   22.1050 C   0  0  0  0  0  0  0  0  0  0  0  0
    6.2740   -0.0760   22.7050 C   0  0  0  0  0  0  0  0  0  0  0  0
    6.2330   -1.4610   22.8720 C   0  0  0  0  0  0  0  0  0  0  0  0
    7.2710   -2.0390   22.1140 C   0  0  2  0  0  0  0  0  0  0  0  0
    5.4120   -4.2000   24.7480 C   0  0  0  0  0  0  0  0  0  0  0  0
  1  2  1  0
  2  3  1  0
  3  4  2  0
  4  5  1  0
  5  6  2  0
  6  7  1  0
  7  8  1  0
  8  9  2  0
  8 10  1  0
 10 11  1  0
 11 12  1  0
 12 13  1  6
 13 14  2  0
 14 15  1  0
 15 16  2  0
 16 17  1  0
 13 18  1  0
 17 18  2  0
 12 19  1  0
 19 20  1  1
 20 21  1  0
 21 22  1  0
 10 23  1  0
 19 23  1  0
 23 22  1  1
  3 24  1  0
  7 24  2  0
M  END
