RAI-NOV-2f6a9876-4
     RDKit          3D

 23 26  0  0  0  0  0  0  0  0999 V2000
    6.1590   -6.9240   22.5790 C   0  0  0  0  0  0  0  0  0  0  0  0
    6.5260   -5.5560   22.7860 N   0  0  0  0  0  0  0  0  0  0  0  0
    6.0240   -4.5710   21.8910 C   0  0  0  0  0  0  0  0  0  0  0  0
    6.5050   -3.3760   22.2790 C   0  0  0  0  0  0  0  0  0  0  0  0
    6.2460   -2.1520   21.6500 C   0  0  0  0  0  0  0  0  0  0  0  0
    5.1220   -2.0940   21.1600 O   0  0  0  0  0  0  0  0  0  0  0  0
    7.2110   -1.1180   21.5890 N   0  0  0  0  0  0  0  0  0  0  0  0
    8.6070   -1.4670   21.7720 C   0  0  0  0  0  0  0  0  0  0  0  0
    8.9870   -0.4760   22.7460 C   0  0  1  0  0  0  0  0  0  0  0  0
   10.3560   -0.1840   22.7780 C   0  0  0  0  0  0  0  0  0  0  0  0
   10.7600    1.1340   23.0310 C   0  0  0  0  0  0  0  0  0  0  0  0
   12.1260    1.3940   23.0670 C   0  0  0  0  0  0  0  0  0  0  0  0
   13.0510    0.4080   22.8600 C   0  0  0  0  0  0  0  0  0  0  0  0
   12.6570   -0.8740   22.6090 C   0  0  0  0  0  0  0  0  0  0  0  0
   11.3110   -1.2210   22.5570 C   0  0  0  0  0  0  0  0  0  0  0  0
    8.1800    0.6500   22.5520 C   0  0  2  0  0  0  0  0  0  0  0  0
    8.2550    1.7080   23.4740 C   0  0  0  0  0  0  0  0  0  0  0  0
    6.9750    2.2350   23.7930 C   0  0  0  0  0  0  0  0  0  0  0  0
    6.0740    2.2020   22.7080 C   0  0  0  0  0  0  0  0  0  0  0  0
    5.9050    0.9190   22.2150 C   0  0  0  0  0  0  0  0  0  0  0  0
    6.9590   -0.0130   22.5370 C   0  0  1  0  0  0  0  0  0  0  0  0
    7.3060   -3.5950   23.4120 C   0  0  0  0  0  0  0  0  0  0  0  0
    7.3220   -4.9940   23.7420 N   0  0  0  0  0  0  0  0  0  0  0  0
  1  2  1  0
  2  3  1  0
  3  4  2  0
  4  5  1  0
  5  6  2  0
  5  7  1  0
  7  8  1  0
  8  9  1  0
  9 10  1  6
 10 11  2  0
 11 12  1  0
 12 13  2  0
 13 14  1  0
 10 15  1  0
 14 15  2  0
  9 16  1  0
 16 17  1  1
 17 18  1  0
 18 19  1  0
 19 20  1  0
  7 21  1  0
 16 21  1  0
 21 20  1  6
  4 22  1  0
  2 23  1  0
 22 23  2  0
M  END
