RAI-NOV-c18e0037-7
     RDKit          3D

 22 24  0  0  0  0  0  0  0  0999 V2000
    7.1020   -4.1850   22.8470 C   0  0  0  0  0  0  0  0  0  0  0  0
    7.5130   -2.7620   22.4590 C   0  0  0  0  0  0  0  0  0  0  0  0
    8.7430   -2.2520   22.8830 C   0  0  0  0  0  0  0  0  0  0  0  0
    9.6480   -2.9580   23.6590 C   0  0  0  0  0  0  0  0  0  0  0  0
    9.0710   -0.9300   22.4830 N   0  0  0  0  0  0  0  0  0  0  0  0
   10.3280   -0.4750   22.5870 C   0  0  0  0  0  0  0  0  0  0  0  0
   10.6310    0.9600   22.8780 C   0  0  0  0  0  0  0  0  0  0  0  0
   12.0380    1.5120   22.9960 C   0  0  0  0  0  0  0  0  0  0  0  0
   13.1650    0.5250   22.8090 C   0  0  0  0  0  0  0  0  0  0  0  0
   12.9530   -0.9340   22.5160 C   0  0  0  0  0  0  0  0  0  0  0  0
   11.5200   -1.4320   22.4020 C   0  0  0  0  0  0  0  0  0  0  0  0
    8.2770   -0.1980   21.5990 C   0  0  0  0  0  0  0  0  0  0  0  0
    8.6470    0.8960   21.1590 O   0  0  0  0  0  0  0  0  0  0  0  0
    7.0480   -0.7510   21.2320 N   0  0  0  0  0  0  0  0  0  0  0  0
    6.4100   -0.0770   20.1250 C   0  0  0  0  0  0  0  0  0  0  0  0
    5.2470    0.6460   20.2390 C   0  0  0  0  0  0  0  0  0  0  0  0
    4.5560    1.3670   19.2080 C   0  0  0  0  0  0  0  0  0  0  0  0
    5.1110    1.3470   17.9400 C   0  0  0  0  0  0  0  0  0  0  0  0
    6.3510    0.5690   17.7970 N   0  0  0  0  0  0  0  0  0  0  0  0
    6.9120   -0.0760   18.8450 C   0  0  0  0  0  0  0  0  0  0  0  0
    6.6190   -2.0100   21.6710 C   0  0  0  0  0  0  0  0  0  0  0  0
    5.5190   -2.5150   21.4240 O   0  0  0  0  0  0  0  0  0  0  0  0
  1  2  1  0
  2  3  2  0
  3  4  1  0
  3  5  1  0
  5  6  1  0
  6  7  2  0
  7  8  1  0
  8  9  2  0
  9 10  1  0
  6 11  1  0
 10 11  2  0
  5 12  1  0
 12 13  2  0
 12 14  1  0
 14 15  1  0
 15 16  2  0
 16 17  1  0
 17 18  2  0
 18 19  1  0
 15 20  1  0
 19 20  2  0
  2 21  1  0
 14 21  1  0
 21 22  2  0
M  END
