RAI-NOV-2f6a9876-2
     RDKit          3D

 26 30  0  0  0  0  0  0  0  0999 V2000
    9.7760   -1.4120   21.5250 N   0  0  0  0  0  0  0  0  0  0  0  0
   10.7760   -1.8670   22.5030 C   0  0  1  0  0  0  0  0  0  0  0  0
   12.2670   -1.4990   22.2450 C   0  0  0  0  0  0  0  0  0  0  0  0
   12.6300   -0.2460   22.7800 C   0  0  0  0  0  0  0  0  0  0  0  0
   11.4050    0.5210   23.0350 N   0  0  0  0  0  0  0  0  0  0  0  0
   11.0970    1.9400   22.8160 N   0  0  0  0  0  0  0  0  0  0  0  0
    9.7850    1.8270   23.2720 C   0  0  0  0  0  0  0  0  0  0  0  0
   10.8270    1.1760   23.0860 C   0  0  0  0  0  0  0  0  0  0  0  0
   10.7170    2.6930   22.7970 C   0  0  0  0  0  0  0  0  0  0  0  0
   11.5070    3.2250   22.0220 O   0  0  0  0  0  0  0  0  0  0  0  0
    9.6990    3.3760   23.5200 N   0  0  0  0  0  0  0  0  0  0  0  0
    9.9300    4.2530   24.5760 C   0  0  0  0  0  0  0  0  0  0  0  0
    9.8590    5.5110   24.0700 C   0  0  1  0  0  0  0  0  0  0  0  0
   11.0230    5.6700   23.3580 C   0  0  0  0  0  0  0  0  0  0  0  0
   11.9510    6.6690   23.5480 C   0  0  0  0  0  0  0  0  0  0  0  0
   13.1110    6.7200   22.7800 C   0  0  0  0  0  0  0  0  0  0  0  0
   13.3800    5.7560   21.7900 C   0  0  0  0  0  0  0  0  0  0  0  0
   12.4220    4.6700   21.5320 C   0  0  0  0  0  0  0  0  0  0  0  0
   11.1860    4.6740   22.3920 C   0  0  0  0  0  0  0  0  0  0  0  0
    8.7000    5.3830   23.0910 C   0  0  2  0  0  0  0  0  0  0  0  0
    8.3310    6.1840   24.3650 C   0  0  0  0  0  0  0  0  0  0  0  0
    7.1650    5.1440   24.4280 C   0  0  0  0  0  0  0  0  0  0  0  0
    7.3140    3.9890   23.6590 C   0  0  0  0  0  0  0  0  0  0  0  0
    8.5330    3.9450   22.9930 C   0  0  2  0  0  0  0  0  0  0  0  0
   10.2400    0.0970   23.5410 C   0  0  0  0  0  0  0  0  0  0  0  0
   10.4070   -1.2260   23.8010 C   0  0  0  0  0  0  0  0  0  0  0  0
  2  1  1  6
  2  3  1  0
  3  4  1  0
  4  5  1  0
  5  6  1  0
  6  7  2  0
  7  8  1  0
  8  9  1  0
  9 10  2  0
  9 11  1  0
 11 12  1  0
 12 13  1  0
 13 14  1  6
 14 15  2  0
 15 16  1  0
 16 17  2  0
 17 18  1  0
 14 19  1  0
 18 19  2  0
 13 20  1  0
 20 21  1  1
 21 22  1  0
 22 23  1  0
 11 24  1  0
 20 24  1  0
 24 23  1  1
  5 25  1  0
  8 25  2  0
  2 26  1  0
 25 26  1  0
M  END
