RAI-NOV-2f6a9876-5
     RDKit          3D

 23 26  0  0  0  0  0  0  0  0999 V2000
   12.1040   -3.3210   25.0200 N   0  0  0  0  0  0  0  0  0  0  0  0
   13.5140   -3.4810   25.4590 C   0  0  0  0  0  0  0  0  0  0  0  0
   14.1500   -2.3800   25.7770 C   0  0  0  0  0  0  0  0  0  0  0  0
   13.5900   -1.7850   24.6650 N   0  0  0  0  0  0  0  0  0  0  0  0
   13.2690   -2.5160   23.6860 C   0  0  0  0  0  0  0  0  0  0  0  0
   12.6710   -1.7920   22.6920 C   0  0  0  0  0  0  0  0  0  0  0  0
   12.0990   -2.1980   21.4530 C   0  0  0  0  0  0  0  0  0  0  0  0
   12.5180   -2.8970   20.5490 O   0  0  0  0  0  0  0  0  0  0  0  0
   10.9600   -1.4830   21.6370 N   0  0  0  0  0  0  0  0  0  0  0  0
    9.6030   -1.9210   21.9380 C   0  0  0  0  0  0  0  0  0  0  0  0
    8.8580   -0.7340   22.1560 C   0  0  0  0  0  0  0  0  0  0  0  0
    7.7620   -0.8470   23.0400 C   0  0  0  0  0  0  0  0  0  0  0  0
    6.8170   -0.5890   22.1360 C   0  0  0  0  0  0  0  0  0  0  0  0
    7.7900   -0.3820   20.9910 C   0  0  0  0  0  0  0  0  0  0  0  0
    9.8330    0.2330   22.4440 C   0  0  0  0  0  0  0  0  0  0  0  0
    9.5680    1.5030   22.9230 C   0  0  0  0  0  0  0  0  0  0  0  0
   10.6440    2.3730   23.1660 C   0  0  0  0  0  0  0  0  0  0  0  0
   10.3360    4.1440   23.7830 Br  0  0  0  0  0  0  0  0  0  0  0  0
   11.9500    1.8980   22.9520 C   0  0  0  0  0  0  0  0  0  0  0  0
   12.2090    0.6290   22.4790 C   0  0  0  0  0  0  0  0  0  0  0  0
   11.0910   -0.1780   22.2060 C   0  0  0  0  0  0  0  0  0  0  0  0
   12.7030   -0.5090   23.1870 C   0  0  0  0  0  0  0  0  0  0  0  0
   13.2700   -0.4950   24.4240 N   0  0  0  0  0  0  0  0  0  0  0  0
  1  2  1  0
  2  3  1  0
  3  4  1  0
  4  5  1  0
  5  6  2  0
  6  7  1  0
  7  8  2  0
  7  9  1  0
  9 10  1  0
 11 10  1  0
 11 12  1  0
 12 13  1  0
 11 14  1  0
 13 14  1  0
 11 15  1  0
 15 16  1  0
 16 17  2  0
 17 18  1  0
 17 19  1  0
 19 20  2  0
  9 21  1  0
 15 21  2  0
 20 21  1  0
  6 22  1  0
  4 23  1  0
 22 23  2  0
M  END
