RAI-NOV-c18e0037-4
     RDKit          3D

 24 27  0  0  0  0  0  0  0  0999 V2000
    5.0850   -2.0380   21.3380 O   0  0  0  0  0  0  0  0  0  0  0  0
    6.2700   -1.8660   21.5600 C   0  0  0  0  0  0  0  0  0  0  0  0
    7.1140   -2.9120   22.3050 C   0  0  0  0  0  0  0  0  0  0  0  0
    6.5100   -4.2710   22.6150 C   0  0  0  0  0  0  0  0  0  0  0  0
    7.3930   -5.1090   23.2880 C   0  0  0  0  0  0  0  0  0  0  0  0
    8.6960   -4.7020   23.6270 C   0  0  0  0  0  0  0  0  0  0  0  0
    9.2470   -3.4430   23.3360 C   0  0  0  0  0  0  0  0  0  0  0  0
    8.4780   -2.5090   22.6660 C   0  0  0  0  0  0  0  0  0  0  0  0
    8.9750   -1.1970   22.3290 N   0  0  0  0  0  0  0  0  0  0  0  0
   10.3620   -0.8310   22.5990 C   0  0  0  0  0  0  0  0  0  0  0  0
   10.5370    0.3520   23.4840 C   0  0  0  0  0  0  0  0  0  0  0  0
   11.8370    0.7490   23.7410 C   0  0  0  0  0  0  0  0  0  0  0  0
   12.9200    0.0730   23.2030 C   0  0  0  0  0  0  0  0  0  0  0  0
   12.7510   -1.0430   22.3760 C   0  0  0  0  0  0  0  0  0  0  0  0
   11.4650   -1.4920   22.0770 C   0  0  0  0  0  0  0  0  0  0  0  0
    8.2040   -0.2620   21.5280 C   0  0  0  0  0  0  0  0  0  0  0  0
    8.6560    0.8400   21.2110 O   0  0  0  0  0  0  0  0  0  0  0  0
    6.9110   -0.7050   21.1380 N   0  0  0  0  0  0  0  0  0  0  0  0
    6.3320    0.0030   20.0160 C   0  0  0  0  0  0  0  0  0  0  0  0
    5.1620    0.6950   20.3040 C   0  0  0  0  0  0  0  0  0  0  0  0
    4.5100    1.4540   19.2200 C   0  0  0  0  0  0  0  0  0  0  0  0
    5.1990    1.3820   17.9440 C   0  0  0  0  0  0  0  0  0  0  0  0
    6.3560    0.6780   17.7060 N   0  0  0  0  0  0  0  0  0  0  0  0
    6.8860    0.0040   18.7640 C   0  0  0  0  0  0  0  0  0  0  0  0
  1  2  2  0
  2  3  1  0
  3  4  2  0
  4  5  1  0
  5  6  2  0
  6  7  1  0
  3  8  1  0
  7  8  2  0
  8  9  1  0
  9 10  1  0
 10 11  2  0
 11 12  1  0
 12 13  2  0
 13 14  1  0
 10 15  1  0
 14 15  2  0
  9 16  1  0
 16 17  2  0
  2 18  1  0
 16 18  1  0
 18 19  1  0
 19 20  2  0
 20 21  1  0
 21 22  2  0
 22 23  1  0
 19 24  1  0
 23 24  2  0
M  END
