RAL-MED-9a5eb9cb-4
     RDKit          3D

 34 36  0  0  0  0  0  0  0  0999 V2000
    7.2900    1.8150   20.9550 C   0  0  0  0  0  0  0  0  0  0  0  0
    6.6410    0.7860   21.6140 C   0  0  0  0  0  0  0  0  0  0  0  0
    6.4920   -0.5700   21.2470 C   0  0  0  0  0  0  0  0  0  0  0  0
    5.7770   -1.6500   22.0000 C   0  0  0  0  0  0  0  0  0  0  0  0
    5.0930   -2.5670   21.1410 O   0  0  0  0  0  0  0  0  0  0  0  0
    5.8400   -1.6790   23.4300 N   0  0  0  0  0  0  0  0  0  0  0  0
    4.6280   -1.9740   24.1620 C   0  0  0  0  0  0  0  0  0  0  0  0
    3.9270   -3.1870   23.9700 C   0  0  0  0  0  0  0  0  0  0  0  0
    2.7690   -3.5190   24.6680 C   0  0  0  0  0  0  0  0  0  0  0  0
    2.2800   -2.6260   25.5860 C   0  0  0  0  0  0  0  0  0  0  0  0
    1.1190   -3.0220   26.2480 C   0  0  0  0  0  0  0  0  0  0  0  0
    0.1380   -3.5860   25.5300 F   0  0  0  0  0  0  0  0  0  0  0  0
    1.3890   -3.9260   27.2320 F   0  0  0  0  0  0  0  0  0  0  0  0
    0.5210   -1.9830   26.8980 F   0  0  0  0  0  0  0  0  0  0  0  0
    2.9510   -1.4040   25.8020 C   0  0  0  0  0  0  0  0  0  0  0  0
    4.1050   -1.0680   25.1140 C   0  0  0  0  0  0  0  0  0  0  0  0
    6.8580   -2.2990   24.0850 C   0  0  2  0  0  0  0  0  0  0  0  0
    8.1720   -1.9770   23.7760 C   0  0  0  0  0  0  0  0  0  0  0  0
    8.9730   -2.8630   23.9910 O   0  0  0  0  0  0  0  0  0  0  0  0
    8.5720   -0.7760   23.3090 N   0  0  0  0  0  0  0  0  0  0  0  0
    9.7750   -0.9890   22.7620 C   0  0  0  0  0  0  0  0  0  0  0  0
    9.8590   -2.0300   21.8840 C   0  0  0  0  0  0  0  0  0  0  0  0
   11.0520   -2.3340   21.2910 C   0  0  0  0  0  0  0  0  0  0  0  0
   12.2290   -1.6840   21.4830 C   0  0  0  0  0  0  0  0  0  0  0  0
   13.3470   -2.0640   20.8470 O   0  0  0  0  0  0  0  0  0  0  0  0
   13.3920   -3.4720   20.6120 C   0  0  0  0  0  0  0  0  0  0  0  0
   12.2660   -0.6020   22.3560 C   0  0  0  0  0  0  0  0  0  0  0  0
   11.0950   -0.2140   23.0090 C   0  0  0  0  0  0  0  0  0  0  0  0
    6.5430   -3.6260   24.4380 C   0  0  0  0  0  0  0  0  0  0  0  0
    6.4300   -3.7600   22.9870 C   0  0  0  0  0  0  0  0  0  0  0  0
    6.1150   -4.7430   21.9420 C   0  0  0  0  0  0  0  0  0  0  0  0
    5.8740   -5.8210   22.7390 C   0  0  0  0  0  0  0  0  0  0  0  0
    5.9250   -5.9230   24.0080 N   0  0  0  0  0  0  0  0  0  0  0  0
    6.2350   -4.9060   24.7260 C   0  0  0  0  0  0  0  0  0  0  0  0
  1  2  1  0
  2  3  2  3
  3  4  1  0
  4  5  2  0
  4  6  1  0
  6  7  1  0
  7  8  2  0
  8  9  1  0
  9 10  2  0
 10 11  1  0
 11 12  1  0
 11 13  1  0
 11 14  1  0
 10 15  1  0
  7 16  1  0
 15 16  2  0
  6 17  1  0
 17 18  1  6
 18 19  2  0
 18 20  1  0
 20 21  1  0
 21 22  2  0
 22 23  1  0
 23 24  2  0
 24 25  1  0
 25 26  1  0
 24 27  1  0
 21 28  1  0
 27 28  2  0
 17 29  1  0
 29 30  2  0
 30 31  1  0
 31 32  2  0
 32 33  1  0
 29 34  1  0
 33 34  2  0
M  END
