REN-UFA-aaaed2d6-6
     RDKit          3D

 27 29  0  0  0  0  0  0  0  0999 V2000
    7.0230    0.2760   18.6310 C   0  0  0  0  0  0  0  0  0  0  0  0
    5.8120   -0.3820   19.0290 N   0  0  0  0  0  0  0  0  0  0  0  0
    4.8520    0.2980   19.7370 C   0  0  0  0  0  0  0  0  0  0  0  0
    4.5150    1.5400   19.0180 C   0  0  0  0  0  0  0  0  0  0  0  0
    4.0220    2.6920   19.9320 C   0  0  0  0  0  0  0  0  0  0  0  0
    2.8370    3.3900   19.5700 N   0  0  0  0  0  0  0  0  0  0  0  0
    4.6850    2.9550   20.9440 O   0  0  0  0  0  0  0  0  0  0  0  0
    5.9300   -1.7300   19.0150 C   0  0  0  0  0  0  0  0  0  0  0  0
    5.8870   -2.5920   17.9020 O   0  0  0  0  0  0  0  0  0  0  0  0
    6.0660   -2.5000   20.1420 C   0  0  0  0  0  0  0  0  0  0  0  0
    5.7440   -3.7140   20.0690 O   0  0  0  0  0  0  0  0  0  0  0  0
    6.5440   -1.8150   21.2030 N   0  0  0  0  0  0  0  0  0  0  0  0
    5.9040   -2.0010   22.3580 C   0  0  0  0  0  0  0  0  0  0  0  0
    6.6260   -3.1430   22.9590 C   0  0  0  0  0  0  0  0  0  0  0  0
    5.7980   -4.3400   23.2900 C   0  0  0  0  0  0  0  0  0  0  0  0
    6.5950   -5.4430   23.8310 C   0  0  0  0  0  0  0  0  0  0  0  0
    7.9470   -5.2660   23.9730 C   0  0  0  0  0  0  0  0  0  0  0  0
    8.6240   -4.0600   23.6440 C   0  0  0  0  0  0  0  0  0  0  0  0
    7.9670   -2.9920   23.1290 C   0  0  0  0  0  0  0  0  0  0  0  0
    8.5020   -1.7560   22.7470 C   0  0  1  0  0  0  0  0  0  0  0  0
    9.9730   -1.4920   22.9310 C   0  0  0  0  0  0  0  0  0  0  0  0
   10.8850   -1.1660   21.9370 C   0  0  0  0  0  0  0  0  0  0  0  0
   12.2350   -0.9380   22.2510 C   0  0  0  0  0  0  0  0  0  0  0  0
   12.6730   -1.0540   23.6770 C   0  0  0  0  0  0  0  0  0  0  0  0
   11.7120   -1.3880   24.5820 C   0  0  0  0  0  0  0  0  0  0  0  0
   10.4020   -1.5900   24.2210 C   0  0  0  0  0  0  0  0  0  0  0  0
    7.9940   -1.4910   21.3160 C   0  0  0  0  0  0  0  0  0  0  0  0
  1  2  1  0
  2  3  1  0
  3  4  1  0
  4  5  1  0
  5  6  1  0
  5  7  2  0
  2  8  1  0
  8  9  2  0
  8 10  1  0
 10 11  2  0
 10 12  1  0
 12 13  1  0
 13 14  1  0
 14 15  1  0
 15 16  2  0
 16 17  1  0
 17 18  2  0
 14 19  2  0
 18 19  1  0
 19 20  1  0
 20 21  1  6
 21 22  2  0
 22 23  1  0
 23 24  2  0
 24 25  1  0
 21 26  1  0
 25 26  2  0
 12 27  1  0
 20 27  1  0
M  END
