REN-UFA-aaaed2d6-2
     RDKit          3D

 25 27  0  0  0  0  0  0  0  0999 V2000
    5.8040   -1.6170   18.2400 C   0  0  0  0  0  0  0  0  0  0  0  0
    6.3060   -1.1060   19.3570 C   0  0  0  0  0  0  0  0  0  0  0  0
    6.9060    0.1400   19.4740 C   0  0  0  0  0  0  0  0  0  0  0  0
    6.0370    1.2240   19.6590 C   0  0  0  0  0  0  0  0  0  0  0  0
    6.4120    2.1960   20.5090 N   0  0  0  0  0  0  0  0  0  0  0  0
    7.4800    1.9960   21.3170 C   0  0  0  0  0  0  0  0  0  0  0  0
    5.3170    3.0210   20.9910 C   0  0  0  0  0  0  0  0  0  0  0  0
    6.0970   -2.0630   20.4820 C   0  0  0  0  0  0  0  0  0  0  0  0
    5.5420   -3.1690   20.3180 O   0  0  0  0  0  0  0  0  0  0  0  0
    6.5620   -1.5830   21.6070 N   0  0  0  0  0  0  0  0  0  0  0  0
    6.0920   -2.0350   22.7690 C   0  0  0  0  0  0  0  0  0  0  0  0
    6.6990   -3.1230   23.2250 C   0  0  0  0  0  0  0  0  0  0  0  0
    6.0370   -4.2840   23.5080 C   0  0  0  0  0  0  0  0  0  0  0  0
    6.6960   -5.3610   23.9220 C   0  0  0  0  0  0  0  0  0  0  0  0
    8.0290   -5.3050   24.0660 C   0  0  0  0  0  0  0  0  0  0  0  0
    8.7260   -4.0840   23.7970 C   0  0  0  0  0  0  0  0  0  0  0  0
    8.0780   -2.9790   23.3640 C   0  0  0  0  0  0  0  0  0  0  0  0
    8.6090   -1.7060   23.0330 C   0  0  1  0  0  0  0  0  0  0  0  0
    9.9280   -1.2240   22.9970 C   0  0  0  0  0  0  0  0  0  0  0  0
   11.1030   -1.9490   22.9110 C   0  0  0  0  0  0  0  0  0  0  0  0
   12.4420   -1.3470   22.8770 C   0  0  0  0  0  0  0  0  0  0  0  0
   12.5210    0.0440   22.9330 C   0  0  0  0  0  0  0  0  0  0  0  0
   11.3260    0.7400   23.0110 C   0  0  0  0  0  0  0  0  0  0  0  0
   10.0610    0.1660   23.0480 C   0  0  0  0  0  0  0  0  0  0  0  0
    7.9950   -1.2770   21.6900 C   0  0  0  0  0  0  0  0  0  0  0  0
  1  2  2  3
  2  3  1  0
  3  4  1  0
  4  5  1  0
  5  6  1  0
  5  7  1  0
  2  8  1  0
  8  9  2  0
  8 10  1  0
 10 11  1  0
 11 12  1  0
 12 13  1  0
 13 14  2  0
 14 15  1  0
 15 16  2  0
 12 17  2  0
 16 17  1  0
 17 18  1  0
 18 19  1  6
 19 20  2  0
 20 21  1  0
 21 22  2  0
 22 23  1  0
 19 24  1  0
 23 24  2  0
 10 25  1  0
 18 25  1  0
M  END
