REN-UFA-aaaed2d6-1
     RDKit          3D

 24 26  0  0  0  0  0  0  0  0999 V2000
    6.4940    0.7610   18.3050 C   0  0  0  0  0  0  0  0  0  0  0  0
    5.8850    1.5780   19.1910 N   0  0  0  0  0  0  0  0  0  0  0  0
    4.6930    1.9770   18.6710 C   0  0  0  0  0  0  0  0  0  0  0  0
    5.7910    0.9010   20.4840 C   0  0  0  0  0  0  0  0  0  0  0  0
    5.5390   -0.5580   20.3250 C   0  0  0  0  0  0  0  0  0  0  0  0
    6.4630   -1.5950   19.7330 C   0  0  0  0  0  0  0  0  0  0  0  0
    6.0390   -2.9000   19.6380 C   0  0  0  0  0  0  0  0  0  0  0  0
    5.8470   -4.2150   19.9160 O   0  0  0  0  0  0  0  0  0  0  0  0
    6.8210   -3.0070   20.8550 N   0  0  0  0  0  0  0  0  0  0  0  0
    6.8710   -4.1140   21.7060 C   0  0  0  0  0  0  0  0  0  0  0  0
    7.0330   -3.6960   22.9740 C   0  0  0  0  0  0  0  0  0  0  0  0
    6.1530   -4.1820   23.8950 C   0  0  0  0  0  0  0  0  0  0  0  0
    6.2180   -3.7200   25.3300 C   0  0  0  0  0  0  0  0  0  0  0  0
    7.2050   -2.8020   25.5900 C   0  0  0  0  0  0  0  0  0  0  0  0
    8.1110   -2.3590   24.5940 C   0  0  0  0  0  0  0  0  0  0  0  0
    8.0280   -2.8010   23.3010 C   0  0  0  0  0  0  0  0  0  0  0  0
    8.8660   -2.3950   22.2760 C   0  0  2  0  0  0  0  0  0  0  0  0
    9.8820   -1.4380   22.5060 C   0  0  0  0  0  0  0  0  0  0  0  0
   11.2460   -1.7700   22.4160 C   0  0  0  0  0  0  0  0  0  0  0  0
   12.2590   -0.8490   22.6360 C   0  0  0  0  0  0  0  0  0  0  0  0
   11.9380    0.4700   22.9600 C   0  0  0  0  0  0  0  0  0  0  0  0
   10.5960    0.8440   23.0560 C   0  0  0  0  0  0  0  0  0  0  0  0
    9.5830   -0.1030   22.8360 C   0  0  0  0  0  0  0  0  0  0  0  0
    7.8640   -1.9540   21.1690 C   0  0  0  0  0  0  0  0  0  0  0  0
  1  2  1  0
  2  3  1  0
  2  4  1  0
  4  5  1  0
  5  6  2  3
  6  7  1  0
  7  8  2  0
  7  9  1  0
  9 10  1  0
 10 11  1  0
 11 12  1  0
 12 13  2  0
 13 14  1  0
 14 15  2  0
 11 16  2  0
 15 16  1  0
 16 17  1  0
 17 18  1  1
 18 19  2  0
 19 20  1  0
 20 21  2  0
 21 22  1  0
 18 23  1  0
 22 23  2  0
  9 24  1  0
 17 24  1  0
M  END
