REN-UFA-aaaed2d6-3
     RDKit          3D

 24 26  0  0  0  0  0  0  0  0999 V2000
    5.7560   -1.7960   18.1420 C   0  0  0  0  0  0  0  0  0  0  0  0
    6.1390   -1.2580   19.4610 C   0  0  0  0  0  0  0  0  0  0  0  0
    6.5460    0.2240   19.5170 C   0  0  0  0  0  0  0  0  0  0  0  0
    5.3460    1.0340   19.1950 N   0  0  0  0  0  0  0  0  0  0  0  0
    4.1340    0.9240   19.8350 C   0  0  0  0  0  0  0  0  0  0  0  0
    5.2790    1.2970   17.8620 C   0  0  0  0  0  0  0  0  0  0  0  0
    6.0970   -2.1100   20.6350 C   0  0  0  0  0  0  0  0  0  0  0  0
    5.6610   -3.2790   20.5830 O   0  0  0  0  0  0  0  0  0  0  0  0
    6.6070   -1.4080   21.7670 N   0  0  0  0  0  0  0  0  0  0  0  0
    6.0280   -1.6770   23.0480 C   0  0  0  0  0  0  0  0  0  0  0  0
    6.6890   -2.8180   23.3660 C   0  0  0  0  0  0  0  0  0  0  0  0
    5.9310   -3.9280   24.0270 C   0  0  0  0  0  0  0  0  0  0  0  0
    6.5730   -5.0860   24.3130 C   0  0  0  0  0  0  0  0  0  0  0  0
    7.9040   -5.1760   23.9960 C   0  0  0  0  0  0  0  0  0  0  0  0
    8.5840   -4.1000   23.4110 C   0  0  0  0  0  0  0  0  0  0  0  0
    8.0360   -2.9610   23.0700 C   0  0  0  0  0  0  0  0  0  0  0  0
    8.8610   -2.0280   22.4080 C   0  0  2  0  0  0  0  0  0  0  0  0
    9.9690   -1.3100   22.8490 C   0  0  0  0  0  0  0  0  0  0  0  0
   11.2620   -1.6890   22.3530 C   0  0  0  0  0  0  0  0  0  0  0  0
   12.4480   -0.9190   22.7800 C   0  0  0  0  0  0  0  0  0  0  0  0
   11.9410    0.0740   23.6380 C   0  0  0  0  0  0  0  0  0  0  0  0
   10.9800    0.5000   24.1210 C   0  0  0  0  0  0  0  0  0  0  0  0
    9.8280   -0.1990   23.7520 C   0  0  0  0  0  0  0  0  0  0  0  0
    7.9610   -1.0330   21.7060 C   0  0  0  0  0  0  0  0  0  0  0  0
  1  2  2  3
  2  3  1  0
  3  4  1  0
  4  5  1  0
  4  6  1  0
  2  7  1  0
  7  8  2  0
  7  9  1  0
  9 10  1  0
 10 11  1  0
 11 12  1  0
 12 13  2  0
 13 14  1  0
 14 15  2  0
 11 16  2  0
 15 16  1  0
 16 17  1  0
 17 18  1  1
 18 19  2  0
 19 20  1  0
 20 21  2  0
 21 22  1  0
 18 23  1  0
 22 23  2  0
  9 24  1  0
 17 24  1  0
M  END
