RHY-UNK-4b26e9be-2
     RDKit          3D

 21 22  0  0  0  0  0  0  0  0999 V2000
    7.2770   -6.1490   21.1020 N   0  0  0  0  0  0  0  0  0  0  0  0
    6.0900   -5.5990   20.9560 C   0  0  0  0  0  0  0  0  0  0  0  0
    5.8730   -4.8340   22.1360 C   0  0  0  0  0  0  0  0  0  0  0  0
    4.8510   -5.4620   22.8110 C   0  0  0  0  0  0  0  0  0  0  0  0
    4.7820   -4.5930   23.9690 C   0  0  0  0  0  0  0  0  0  0  0  0
    5.5710   -3.4270   24.2830 C   0  0  0  0  0  0  0  0  0  0  0  0
    5.3390   -2.6530   25.5570 C   0  0  1  0  0  0  0  0  0  0  0  0
    4.6110   -3.1830   26.3940 O   0  0  0  0  0  0  0  0  0  0  0  0
    6.5760   -2.5070   26.2760 N   0  0  0  0  0  0  0  0  0  0  0  0
    6.7230   -1.2970   27.0380 C   0  0  1  0  0  0  0  0  0  0  0  0
    5.9230   -0.1560   26.3890 C   0  0  0  0  0  0  0  0  0  0  0  0
    5.3760    0.6370   27.3830 C   0  0  0  0  0  0  0  0  0  0  0  0
    6.2990    0.9460   28.5640 C   0  0  1  0  0  0  0  0  0  0  0  0
    5.5160    1.8160   29.5030 C   0  0  0  0  0  0  0  0  0  0  0  0
    5.6850    1.7630   30.7170 O   0  0  0  0  0  0  0  0  0  0  0  0
    4.6210    2.6460   28.9240 O   0  0  0  0  0  0  0  0  0  0  0  0
    6.6870   -0.3530   29.2960 C   0  0  0  0  0  0  0  0  0  0  0  0
    6.4240   -1.4970   28.5320 C   0  0  0  0  0  0  0  0  0  0  0  0
    6.6230   -3.0180   23.2900 C   0  0  0  0  0  0  0  0  0  0  0  0
    7.4170   -1.8700   23.5690 O   0  0  0  0  0  0  0  0  0  0  0  0
    6.8580   -3.7080   22.1160 C   0  0  0  0  0  0  0  0  0  0  0  0
  1  2  1  0
  2  3  1  0
  3  4  2  0
  4  5  1  0
  5  6  2  0
  6  7  1  0
  7  8  1  1
  7  9  1  0
 10  9  1  6
 10 11  1  0
 11 12  1  0
 12 13  1  0
 13 14  1  1
 14 15  2  0
 14 16  1  0
 13 17  1  0
 10 18  1  0
 17 18  1  0
  6 19  1  0
 19 20  1  0
  3 21  1  0
 19 21  2  0
M  END
