RIC-ARG-a8e88843-6
     RDKit          3D

 26 29  0  0  0  0  0  0  0  0999 V2000
    6.1040   -2.5460   24.8230 C   0  0  0  0  0  0  0  0  0  0  0  0
    5.2820   -1.3020   24.4370 C   0  0  0  0  0  0  0  0  0  0  0  0
    5.9320   -0.2100   23.9500 N   0  0  0  0  0  0  0  0  0  0  0  0
    7.3880   -0.2740   23.8170 C   0  0  0  0  0  0  0  0  0  0  0  0
    8.1700   -1.3990   24.1610 C   0  0  0  0  0  0  0  0  0  0  0  0
    9.5710   -1.2860   23.9620 C   0  0  0  0  0  0  0  0  0  0  0  0
   10.5800   -1.1450   24.8730 C   0  0  0  0  0  0  0  0  0  0  0  0
   12.0220   -0.9550   24.5600 N   0  0  0  0  0  0  0  0  0  0  0  0
   12.4720   -0.9350   23.2570 C   0  0  0  0  0  0  0  0  0  0  0  0
   11.3760   -1.1700   22.5030 C   0  0  0  0  0  0  0  0  0  0  0  0
   11.4040   -1.3860   21.2300 C   0  0  0  0  0  0  0  0  0  0  0  0
   11.1180   -2.6220   21.5800 N   0  0  0  0  0  0  0  0  0  0  0  0
   12.0400   -2.3540   22.6830 C   0  0  0  0  0  0  0  0  0  0  0  0
   11.5850   -1.9190   23.9540 C   0  0  0  0  0  0  0  0  0  0  0  0
   12.4970   -2.4140   24.8590 C   0  0  0  0  0  0  0  0  0  0  0  0
   13.5820   -2.6310   24.1060 C   0  0  0  0  0  0  0  0  0  0  0  0
   13.3650   -2.6020   22.7260 C   0  0  0  0  0  0  0  0  0  0  0  0
   13.6010   -3.6160   21.7880 C   0  0  0  0  0  0  0  0  0  0  0  0
   14.8530   -4.4150   21.8070 C   0  0  0  0  0  0  0  0  0  0  0  0
   15.2040   -5.3710   20.9080 C   0  0  0  0  0  0  0  0  0  0  0  0
   14.1450   -5.3330   20.2420 C   0  0  0  0  0  0  0  0  0  0  0  0
   13.0720   -4.8810   20.0290 C   0  0  0  0  0  0  0  0  0  0  0  0
   12.7420   -3.9500   20.8180 C   0  0  0  0  0  0  0  0  0  0  0  0
   11.6160   -3.4400   20.5840 C   0  0  0  0  0  0  0  0  0  0  0  0
   10.0570   -1.3150   22.7700 C   0  0  0  0  0  0  0  0  0  0  0  0
    7.4910   -2.5210   24.6610 C   0  0  0  0  0  0  0  0  0  0  0  0
  1  2  2  0
  2  3  1  0
  3  4  2  0
  4  5  1  0
  5  6  1  0
  6  7  2  0
  7  8  1  0
  8  9  2  0
  9 10  1  0
 10 11  1  0
 11 12  1  0
 12 13  1  0
 13 14  1  0
 14 15  1  0
 15 16  1  0
 16 17  1  0
 17 18  1  0
 18 19  1  0
 19 20  2  0
 20 21  1  0
 21 22  2  0
 18 23  2  0
 22 23  1  0
 12 24  1  0
 23 24  1  0
  6 25  1  0
 10 25  2  0
  1 26  1  0
  5 26  2  0
M  END
