RIC-ARG-a8e88843-5
     RDKit          3D

 27 29  0  0  0  0  0  0  0  0999 V2000
   11.8760    7.5940   25.6810 C   0  0  0  0  0  0  0  0  0  0  0  0
   10.5750    8.0360   25.4270 C   0  0  0  0  0  0  0  0  0  0  0  0
    9.8380    7.1670   24.4800 N   0  0  0  0  0  0  0  0  0  0  0  0
    9.1050    7.7290   23.5040 N   0  0  0  0  0  0  0  0  0  0  0  0
    8.5770    6.6950   22.8320 C   0  0  0  0  0  0  0  0  0  0  0  0
    7.6880    6.9710   21.6550 C   0  0  0  0  0  0  0  0  0  0  0  0
    8.9780    5.4380   23.3950 C   0  0  0  0  0  0  0  0  0  0  0  0
    8.6140    4.1460   22.9550 C   0  0  0  0  0  0  0  0  0  0  0  0
    9.6970    3.1670   22.9910 N   0  0  0  0  0  0  0  0  0  0  0  0
   10.3630    4.3130   22.5970 N   0  0  0  0  0  0  0  0  0  0  0  0
   11.6430    4.2250   22.3850 N   0  0  0  0  0  0  0  0  0  0  0  0
   11.9900    2.9850   22.6200 N   0  0  0  0  0  0  0  0  0  0  0  0
   10.8870    2.3740   22.9640 C   0  0  0  0  0  0  0  0  0  0  0  0
   10.8680    1.0170   23.2880 N   0  0  0  0  0  0  0  0  0  0  0  0
    9.5880    0.3250   23.1260 C   0  0  0  0  0  0  0  0  0  0  0  0
    9.6930   -1.0260   23.4660 C   0  0  0  0  0  0  0  0  0  0  0  0
   11.0630   -1.5340   23.9690 C   0  0  0  0  0  0  0  0  0  0  0  0
   11.5380   -2.7040   23.4520 C   0  0  0  0  0  0  0  0  0  0  0  0
   12.7710   -2.5830   22.7240 N   0  0  0  0  0  0  0  0  0  0  0  0
   13.2090   -1.4360   22.1930 C   0  0  0  0  0  0  0  0  0  0  0  0
   13.7150   -1.4700   21.0680 O   0  0  0  0  0  0  0  0  0  0  0  0
   13.0220   -0.2760   22.9040 C   0  0  0  0  0  0  0  0  0  0  0  0
   13.0210   -0.5320   24.2430 F   0  0  0  0  0  0  0  0  0  0  0  0
   13.9850    0.6120   22.7070 F   0  0  0  0  0  0  0  0  0  0  0  0
   11.9080    0.3630   22.5250 C   0  0  0  0  0  0  0  0  0  0  0  0
    9.7980    5.7960   24.4630 C   0  0  0  0  0  0  0  0  0  0  0  0
   10.4870    5.0170   25.3870 C   0  0  0  0  0  0  0  0  0  0  0  0
  1  2  1  0
  2  3  1  0
  3  4  1  0
  4  5  2  0
  5  6  1  0
  5  7  1  0
  7  8  1  0
  8  9  1  0
  9 10  1  0
 10 11  2  0
 11 12  1  0
  9 13  1  0
 12 13  2  0
 13 14  1  0
 14 15  1  0
 15 16  1  0
 16 17  1  0
 17 18  1  0
 18 19  1  0
 19 20  1  0
 20 21  2  0
 20 22  1  0
 22 23  1  0
 22 24  1  0
 14 25  1  0
 22 25  1  0
  3 26  1  0
  7 26  2  0
 26 27  1  0
M  END
