RIC-ARG-a8e88843-3
     RDKit          3D

 25 26  0  0  0  0  0  0  0  0999 V2000
    6.8770   -1.4960   29.5020 O   0  0  0  0  0  0  0  0  0  0  0  0
    7.7330   -0.6170   29.4660 C   0  0  0  0  0  0  0  0  0  0  0  0
    8.6110   -0.5840   28.3920 N   0  0  0  0  0  0  0  0  0  0  0  0
    7.9660   -0.0980   27.1700 C   0  0  0  0  0  0  0  0  0  0  0  0
    8.5050   -1.0070   26.0450 C   0  0  0  0  0  0  0  0  0  0  0  0
    8.2360   -0.8390   24.7190 N   0  0  0  0  0  0  0  0  0  0  0  0
    7.4920    0.2090   24.3200 C   0  0  0  0  0  0  0  0  0  0  0  0
    6.9370    0.1890   23.0340 C   0  0  0  0  0  0  0  0  0  0  0  0
    5.8240    0.9390   22.9660 F   0  0  0  0  0  0  0  0  0  0  0  0
    6.5610   -1.0790   22.7060 F   0  0  0  0  0  0  0  0  0  0  0  0
    9.3240   -1.1330   23.9210 C   0  0  0  0  0  0  0  0  0  0  0  0
    9.3570   -2.1290   23.1980 C   0  0  0  0  0  0  0  0  0  0  0  0
    9.4230   -0.8790   22.4540 C   0  0  0  0  0  0  0  0  0  0  0  0
    7.7590    0.2830   30.4900 N   0  0  0  0  0  0  0  0  0  0  0  0
    6.6670    0.3790   31.4730 C   0  0  0  0  0  0  0  0  0  0  0  0
    5.8000    1.4650   31.2840 C   0  0  0  0  0  0  0  0  0  0  0  0
    6.3050    2.7380   31.0130 C   0  0  0  0  0  0  0  0  0  0  0  0
    7.1360    3.3510   31.9670 C   0  0  0  0  0  0  0  0  0  0  0  0
    7.5690    2.4000   32.9910 N   0  0  0  0  0  0  0  0  0  0  0  0
    8.8100    1.6540   32.8770 C   0  0  0  0  0  0  0  0  0  0  0  0
    9.2420    1.0650   33.8710 O   0  0  0  0  0  0  0  0  0  0  0  0
    9.4280    1.6870   31.6170 C   0  0  0  0  0  0  0  0  0  0  0  0
    9.8860    2.9750   31.4460 F   0  0  0  0  0  0  0  0  0  0  0  0
   10.5970    0.9870   31.6890 F   0  0  0  0  0  0  0  0  0  0  0  0
    8.7500    1.3790   30.4080 C   0  0  0  0  0  0  0  0  0  0  0  0
  1  2  2  0
  2  3  1  0
  3  4  1  0
  4  5  1  0
  5  6  1  0
  6  7  1  0
  7  8  1  0
  8  9  1  0
  8 10  1  0
  6 11  1  0
 11 12  1  0
 11 13  1  0
 12 13  1  0
  2 14  1  0
 14 15  1  0
 15 16  1  0
 16 17  1  0
 17 18  1  0
 18 19  1  0
 19 20  1  0
 20 21  2  0
 20 22  1  0
 22 23  1  0
 22 24  1  0
 14 25  1  0
 22 25  1  0
M  END
