RIC-ARG-a8e88843-2
     RDKit          3D

 26 28  0  0  0  0  0  0  0  0999 V2000
   10.3700    0.2500   23.1930 C   0  0  0  0  0  0  0  0  0  0  0  0
   11.4840   -0.3520   23.7400 N   0  0  0  0  0  0  0  0  0  0  0  0
   12.5670    0.0390   22.9700 C   0  0  0  0  0  0  0  0  0  0  0  0
   13.1070    1.1300   22.7580 O   0  0  0  0  0  0  0  0  0  0  0  0
   12.8620   -1.3940   22.4350 C   0  0  0  0  0  0  0  0  0  0  0  0
   11.6600   -2.0810   23.0240 C   0  0  0  0  0  0  0  0  0  0  0  0
   10.6080   -1.5810   24.0010 C   0  0  0  0  0  0  0  0  0  0  0  0
   10.6480   -0.2390   24.5300 C   0  0  0  0  0  0  0  0  0  0  0  0
    9.6840    0.2370   25.4660 N   0  0  0  0  0  0  0  0  0  0  0  0
    8.3170    0.0020   25.4910 C   0  0  0  0  0  0  0  0  0  0  0  0
    7.6760   -1.2440   25.8490 O   0  0  0  0  0  0  0  0  0  0  0  0
    7.5390    1.1110   25.1220 N   0  0  0  0  0  0  0  0  0  0  0  0
    8.0260    2.2150   24.2890 C   0  0  0  0  0  0  0  0  0  0  0  0
    7.0360    3.1220   23.9090 C   0  0  0  0  0  0  0  0  0  0  0  0
    6.2550    2.5700   22.6810 C   0  0  0  0  0  0  0  0  0  0  0  0
    4.9060    2.3550   22.9190 C   0  0  0  0  0  0  0  0  0  0  0  0
    4.5120    2.7500   24.2780 N   0  0  0  0  0  0  0  0  0  0  0  0
    4.2180    1.6660   25.2210 C   0  0  0  0  0  0  0  0  0  0  0  0
    2.9890    1.4280   25.7670 O   0  0  0  0  0  0  0  0  0  0  0  0
    5.2470    0.8030   25.6120 C   0  0  0  0  0  0  0  0  0  0  0  0
    5.4750   -0.0800   24.5880 F   0  0  0  0  0  0  0  0  0  0  0  0
    4.8190   -0.0080   26.6190 F   0  0  0  0  0  0  0  0  0  0  0  0
    6.4960    1.3570   25.9530 C   0  0  0  0  0  0  0  0  0  0  0  0
   11.7030    0.6920   24.1160 C   0  0  0  0  0  0  0  0  0  0  0  0
   12.6870    0.2490   23.2200 C   0  0  0  0  0  0  0  0  0  0  0  0
   12.3520   -1.0210   22.9560 C   0  0  0  0  0  0  0  0  0  0  0  0
  1  2  1  0
  2  3  1  0
  3  4  2  0
  3  5  1  0
  5  6  1  0
  6  7  2  0
  7  8  1  0
  8  9  1  0
  9 10  1  0
 10 11  2  0
 10 12  1  0
 12 13  1  0
 13 14  1  0
 14 15  1  0
 15 16  1  0
 16 17  1  0
 17 18  1  0
 18 19  2  0
 18 20  1  0
 20 21  1  0
 20 22  1  0
 12 23  1  0
 20 23  1  0
  8 24  2  0
 24 25  1  0
  2 26  1  0
  6 26  1  0
 25 26  2  0
M  END
