RIC-ARG-a8e88843-4
     RDKit          3D

 26 27  0  0  0  0  0  0  0  0999 V2000
    9.5330    3.8800   24.6700 C   0  0  0  0  0  0  0  0  0  0  0  0
    9.5140    4.0260   23.3330 C   0  0  2  0  0  0  0  0  0  0  0  0
    8.2230    4.2550   22.6320 C   0  0  0  0  0  0  0  0  0  0  0  0
    7.7110    5.7260   22.5110 C   0  0  0  0  0  0  0  0  0  0  0  0
    8.1650    6.7600   23.3150 C   0  0  0  0  0  0  0  0  0  0  0  0
    7.6950    8.0830   23.2050 C   0  0  0  0  0  0  0  0  0  0  0  0
    6.7270    8.5280   22.2870 C   0  0  0  0  0  0  0  0  0  0  0  0
    6.1650    7.4650   21.3480 C   0  0  0  0  0  0  0  0  0  0  0  0
    6.6460    6.0420   21.4440 C   0  0  0  0  0  0  0  0  0  0  0  0
   10.0060    2.7910   22.7180 N   0  0  0  0  0  0  0  0  0  0  0  0
   11.2990    2.3050   22.9200 C   0  0  0  0  0  0  0  0  0  0  0  0
   12.3050    2.9890   22.9500 O   0  0  0  0  0  0  0  0  0  0  0  0
   11.3240    0.9120   23.0870 N   0  0  0  0  0  0  0  0  0  0  0  0
   10.2000    0.0900   23.4360 C   0  0  0  0  0  0  0  0  0  0  0  0
   10.2820   -1.1470   24.0980 C   0  0  0  0  0  0  0  0  0  0  0  0
   10.5060   -2.2210   23.2730 C   0  0  0  0  0  0  0  0  0  0  0  0
   10.5530   -1.8870   21.9440 C   0  0  0  0  0  0  0  0  0  0  0  0
   11.5930   -2.3320   21.3010 N   0  0  0  0  0  0  0  0  0  0  0  0
   13.0970   -1.9200   21.9540 S   0  0  0  0  0  0  0  0  0  0  0  0
   13.7700   -1.2230   20.8920 O   0  0  0  0  0  0  0  0  0  0  0  0
   13.5720   -3.1200   22.5670 O   0  0  0  0  0  0  0  0  0  0  0  0
   12.7390   -0.8970   23.3170 C   0  0  0  0  0  0  0  0  0  0  0  0
   12.6030    0.4570   23.1340 C   0  0  0  0  0  0  0  0  0  0  0  0
   10.4750    5.1960   22.9890 C   0  0  0  0  0  0  0  0  0  0  0  0
   10.8250    5.8660   24.1260 F   0  0  0  0  0  0  0  0  0  0  0  0
   11.6380    4.7780   22.4290 F   0  0  0  0  0  0  0  0  0  0  0  0
  2  1  1  1
  2  3  1  0
  3  4  1  0
  4  5  2  0
  5  6  1  0
  6  7  2  0
  7  8  1  0
  4  9  1  0
  8  9  2  0
  2 10  1  0
 10 11  1  0
 11 12  2  0
 11 13  1  0
 13 14  1  0
 14 15  1  0
 15 16  1  0
 16 17  1  0
 17 18  1  0
 19 18  1  0
 19 20  2  0
 19 21  2  0
 19 22  1  0
 13 23  1  0
 22 23  1  0
  2 24  1  0
 24 25  1  0
 24 26  1  0
M  END
