ROB-UNI-b2e39629-2
     RDKit          3D

 24 25  0  0  0  0  0  0  0  0999 V2000
    7.5260    4.1720   24.8760 C   0  0  0  0  0  0  0  0  0  0  0  0
    7.9410    2.8280   23.7860 S   0  0  0  0  0  0  0  0  0  0  0  0
    9.3790    2.7190   23.7770 O   0  0  0  0  0  0  0  0  0  0  0  0
    7.1920    2.9950   22.5600 O   0  0  0  0  0  0  0  0  0  0  0  0
    7.2390    1.5150   24.5930 N   0  0  0  0  0  0  0  0  0  0  0  0
    8.0110    0.5010   25.2210 C   0  0  0  0  0  0  0  0  0  0  0  0
    9.4510    0.6210   25.1340 C   0  0  0  0  0  0  0  0  0  0  0  0
   10.1520   -0.0740   24.1790 C   0  0  0  0  0  0  0  0  0  0  0  0
    9.7780   -1.1960   23.4270 C   0  0  0  0  0  0  0  0  0  0  0  0
   10.6670   -1.7070   22.5500 N   0  0  0  0  0  0  0  0  0  0  0  0
   11.5190   -0.7550   22.9140 C   0  0  0  0  0  0  0  0  0  0  0  0
   10.2360   -1.0320   23.3350 C   0  0  0  0  0  0  0  0  0  0  0  0
    9.0380   -2.0290   23.1280 C   0  0  0  0  0  0  0  0  0  0  0  0
    8.5160   -2.4720   24.5210 C   0  0  0  0  0  0  0  0  0  0  0  0
    8.1490   -3.7670   24.6050 N   0  0  0  0  0  0  0  0  0  0  0  0
    8.1070   -4.5060   26.1130 S   0  0  0  0  0  0  0  0  0  0  0  0
    6.4850   -5.2340   26.1940 C   0  0  0  0  0  0  0  0  0  0  0  0
    9.0960   -5.5520   26.1340 O   0  0  0  0  0  0  0  0  0  0  0  0
    8.1350   -3.4450   27.0920 O   0  0  0  0  0  0  0  0  0  0  0  0
   11.0020   -1.7250   22.3910 C   0  0  0  0  0  0  0  0  0  0  0  0
   12.3370   -1.2150   22.1450 C   0  0  0  0  0  0  0  0  0  0  0  0
   13.3060   -2.0070   21.0320 Cl  0  0  0  0  0  0  0  0  0  0  0  0
   12.7880    0.0530   22.9480 C   0  0  0  0  0  0  0  0  0  0  0  0
   11.6080    0.3390   23.7830 C   0  0  0  0  0  0  0  0  0  0  0  0
  1  2  1  0
  2  3  2  0
  2  4  2  0
  2  5  1  0
  5  6  1  0
  6  7  1  0
  7  8  1  0
  8  9  2  0
  9 10  1  0
 10 11  1  0
 11 12  1  0
 12 13  1  0
 13 14  1  0
 14 15  1  0
 16 15  1  0
 16 17  1  0
 16 18  2  0
 16 19  2  0
 12 20  2  0
 20 21  1  0
 21 22  1  0
 21 23  2  0
  8 24  1  0
 11 24  2  0
 23 24  1  0
M  END
