ROM-UNK-ef52a3c9-2
     RDKit          3D

 21 22  0  0  0  0  0  0  0  0999 V2000
    9.3150    6.7120   22.5550 C   0  0  0  0  0  0  0  0  0  0  0  0
   10.6870    6.5820   23.2050 C   0  0  0  0  0  0  0  0  0  0  0  0
   11.5460    5.6070   22.5500 N   0  0  0  0  0  0  0  0  0  0  0  0
   12.9240    5.9440   22.2650 C   0  0  0  0  0  0  0  0  0  0  0  0
   13.5000    4.8070   21.4920 C   0  0  0  0  0  0  0  0  0  0  0  0
   11.4040    4.3700   23.0760 C   0  0  0  0  0  0  0  0  0  0  0  0
   11.4510    4.2700   24.2360 O   0  0  0  0  0  0  0  0  0  0  0  0
   11.2270    3.1900   22.1640 C   0  0  0  0  0  0  0  0  0  0  0  0
   11.0360    1.7700   22.8080 C   0  0  1  0  0  0  0  0  0  0  0  0
   10.4770    1.9430   24.1900 C   0  0  0  0  0  0  0  0  0  0  0  0
    9.9740    0.6920   24.7750 N   0  0  0  0  0  0  0  0  0  0  0  0
   10.6730   -0.4520   24.1690 C   0  0  0  0  0  0  0  0  0  0  0  0
   10.4890   -0.5640   22.6460 C   0  0  0  0  0  0  0  0  0  0  0  0
   10.1480    0.7540   22.0880 N   0  0  0  0  0  0  0  0  0  0  0  0
    8.6740    0.9470   22.2700 C   0  0  0  0  0  0  0  0  0  0  0  0
    7.7310    0.7290   21.0780 C   0  0  0  0  0  0  0  0  0  0  0  0
    7.6600   -0.4960   20.4050 C   0  0  0  0  0  0  0  0  0  0  0  0
    6.7810   -0.6310   19.3220 C   0  0  0  0  0  0  0  0  0  0  0  0
    5.9920    0.4400   18.9370 C   0  0  0  0  0  0  0  0  0  0  0  0
    6.1110    1.6140   19.6500 C   0  0  0  0  0  0  0  0  0  0  0  0
    6.9540    1.7840   20.6970 N   0  0  0  0  0  0  0  0  0  0  0  0
  1  2  1  0
  2  3  1  0
  3  4  1  0
  4  5  1  0
  3  6  1  0
  6  7  2  0
  6  8  1  0
  9  8  1  6
  9 10  1  0
 10 11  1  0
 11 12  1  0
 12 13  1  0
  9 14  1  0
 13 14  1  0
 14 15  1  0
 15 16  1  0
 16 17  2  0
 17 18  1  0
 18 19  2  0
 19 20  1  0
 16 21  1  0
 20 21  2  0
M  END
