RUT-UNI-630c5802-20
     RDKit          3D

 26 28  0  0  0  0  0  0  0  0999 V2000
    5.4410   -0.7630   22.0910 C   0  0  0  0  0  0  0  0  0  0  0  0
    5.6000   -1.2300   20.6470 C   0  0  0  0  0  0  0  0  0  0  0  0
    5.5130   -0.2950   19.6110 C   0  0  0  0  0  0  0  0  0  0  0  0
    4.3150    0.3450   19.2960 C   0  0  0  0  0  0  0  0  0  0  0  0
    5.9820   -1.0110   18.3460 C   0  0  0  0  0  0  0  0  0  0  0  0
    6.5090    0.8290   19.9880 C   0  0  0  0  0  0  0  0  0  0  0  0
    5.9070    1.9550   20.5760 C   0  0  0  0  0  0  0  0  0  0  0  0
    6.7950    2.6090   21.5400 N   0  0  0  0  0  0  0  0  0  0  0  0
    6.1610    3.3890   22.6120 C   0  0  0  0  0  0  0  0  0  0  0  0
    5.7170    2.5440   23.6310 C   0  0  0  0  0  0  0  0  0  0  0  0
    6.4590    2.0550   24.7040 C   0  0  0  0  0  0  0  0  0  0  0  0
    5.7800    1.2260   25.5890 C   0  0  0  0  0  0  0  0  0  0  0  0
    4.1420    0.9960   25.1410 S   0  0  0  0  0  0  0  0  0  0  0  0
    4.3090    1.9910   23.7610 C   0  0  0  0  0  0  0  0  0  0  0  0
    8.1020    2.1700   21.5110 C   0  0  0  0  0  0  0  0  0  0  0  0
    8.5400    1.6000   20.5360 O   0  0  0  0  0  0  0  0  0  0  0  0
    8.9770    2.3140   22.5610 C   0  0  0  0  0  0  0  0  0  0  0  0
    9.4210    1.1300   22.9410 N   0  0  0  0  0  0  0  0  0  0  0  0
    8.5140    0.1570   23.3410 N   0  0  0  0  0  0  0  0  0  0  0  0
    9.1170   -0.9850   23.7250 N   0  0  0  0  0  0  0  0  0  0  0  0
   10.5480   -0.6920   23.5470 C   0  0  0  0  0  0  0  0  0  0  0  0
   11.5970   -1.5220   23.8220 C   0  0  0  0  0  0  0  0  0  0  0  0
   12.8840   -1.1250   23.6100 C   0  0  0  0  0  0  0  0  0  0  0  0
   13.2020    0.2420   23.0560 C   0  0  0  0  0  0  0  0  0  0  0  0
   12.0580    1.1770   22.7550 C   0  0  0  0  0  0  0  0  0  0  0  0
   10.7630    0.6890   23.0130 C   0  0  0  0  0  0  0  0  0  0  0  0
  1  2  1  0
  3  2  1  0
  3  4  1  0
  3  5  1  0
  3  6  1  0
  6  7  1  0
  7  8  1  0
  8  9  1  0
  9 10  1  0
 10 11  1  0
 11 12  2  0
 12 13  1  0
 10 14  2  0
 13 14  1  0
  8 15  1  0
 15 16  2  0
 15 17  1  0
 17 18  1  0
 18 19  1  0
 19 20  2  0
 20 21  1  0
 21 22  1  0
 22 23  2  0
 23 24  1  0
 24 25  2  0
 18 26  1  0
 21 26  2  0
 25 26  1  0
M  END
