RUT-UNI-630c5802-14
     RDKit          3D

 32 35  0  0  0  0  0  0  0  0999 V2000
    8.3610    1.9760   20.6400 O   0  0  0  0  0  0  0  0  0  0  0  0
    7.5340    1.0920   20.5250 C   0  0  0  0  0  0  0  0  0  0  0  0
    7.7670   -0.1530   20.9130 N   0  0  0  0  0  0  0  0  0  0  0  0
    8.4100   -0.0930   22.0680 C   0  0  0  0  0  0  0  0  0  0  0  0
    7.8250    0.6280   23.1220 C   0  0  0  0  0  0  0  0  0  0  0  0
    8.4110    0.7600   24.3500 C   0  0  0  0  0  0  0  0  0  0  0  0
    9.5680    0.1590   24.4850 C   0  0  0  0  0  0  0  0  0  0  0  0
   10.2930    0.0850   25.4750 N   0  0  0  0  0  0  0  0  0  0  0  0
   10.4880   -0.4760   24.2490 C   0  0  0  0  0  0  0  0  0  0  0  0
   11.5860   -0.4350   23.4860 C   0  0  0  0  0  0  0  0  0  0  0  0
   12.4380    0.4560   23.4170 C   0  0  0  0  0  0  0  0  0  0  0  0
   13.4300    0.4390   22.6980 C   0  0  0  0  0  0  0  0  0  0  0  0
   14.3220    1.3210   22.5960 F   0  0  0  0  0  0  0  0  0  0  0  0
   13.1860   -0.8170   22.1100 C   0  0  0  0  0  0  0  0  0  0  0  0
   12.0990   -1.3630   22.5530 O   0  0  0  0  0  0  0  0  0  0  0  0
    9.4600   -0.4700   26.4470 C   0  0  0  0  0  0  0  0  0  0  0  0
    9.5800   -0.1160   27.8280 O   0  0  0  0  0  0  0  0  0  0  0  0
    8.3720   -1.4720   26.0690 C   0  0  0  0  0  0  0  0  0  0  0  0
    7.4610   -1.5020   27.2880 C   0  0  0  0  0  0  0  0  0  0  0  0
    7.0580   -2.7150   27.8360 C   0  0  0  0  0  0  0  0  0  0  0  0
    6.2240   -2.7100   28.9420 C   0  0  0  0  0  0  0  0  0  0  0  0
    5.8200   -1.4860   29.4720 C   0  0  0  0  0  0  0  0  0  0  0  0
    6.1910   -0.2890   28.9700 N   0  0  0  0  0  0  0  0  0  0  0  0
    7.0040   -0.3270   27.8880 C   0  0  0  0  0  0  0  0  0  0  0  0
   10.2050   -0.5630   23.4600 C   0  0  0  0  0  0  0  0  0  0  0  0
    9.5990   -0.7130   22.1470 C   0  0  0  0  0  0  0  0  0  0  0  0
    6.2000    1.3730   20.0290 C   0  0  0  0  0  0  0  0  0  0  0  0
    5.0770    1.7990   20.9520 C   0  0  0  0  0  0  0  0  0  0  0  0
    3.8600    2.0450   20.3710 C   0  0  0  0  0  0  0  0  0  0  0  0
    3.6880    1.9060   19.0050 C   0  0  0  0  0  0  0  0  0  0  0  0
    4.7420    1.5020   18.1370 C   0  0  0  0  0  0  0  0  0  0  0  0
    5.9830    1.2420   18.6830 C   0  0  0  0  0  0  0  0  0  0  0  0
  1  2  2  0
  2  3  1  0
  3  4  1  0
  4  5  2  0
  5  6  1  0
  6  7  2  0
  7  8  1  0
  8  9  1  0
  9 10  1  0
 10 11  2  0
 11 12  1  0
 12 13  1  0
 12 14  2  0
 10 15  1  0
 14 15  1  0
  8 16  1  0
 16 17  2  0
 16 18  1  0
 18 19  1  0
 19 20  2  0
 20 21  1  0
 21 22  2  0
 22 23  1  0
 19 24  1  0
 23 24  2  0
  7 25  1  0
  4 26  1  0
 25 26  2  0
  2 27  1  0
 27 28  2  0
 28 29  1  0
 29 30  2  0
 30 31  1  0
 27 32  1  0
 31 32  2  0
M  END
