RUT-UNI-630c5802-5
     RDKit          3D

 35 39  0  0  0  0  0  0  0  0999 V2000
    6.1890   -4.9440   24.2070 C   0  0  0  0  0  0  0  0  0  0  0  0
    6.9270   -3.7820   24.0870 N   0  0  0  0  0  0  0  0  0  0  0  0
    6.6680   -2.5150   24.5980 C   0  0  0  0  0  0  0  0  0  0  0  0
    7.6990   -1.5430   24.2490 C   0  0  0  0  0  0  0  0  0  0  0  0
    8.7060   -2.3180   23.4280 C   0  0  0  0  0  0  0  0  0  0  0  0
    9.9490   -1.6640   22.8670 C   0  0  0  0  0  0  0  0  0  0  0  0
    9.7640   -0.3290   22.7170 N   0  0  0  0  0  0  0  0  0  0  0  0
    8.8200   -0.0390   21.7790 C   0  0  0  0  0  0  0  0  0  0  0  0
    8.7830    1.0830   21.2750 O   0  0  0  0  0  0  0  0  0  0  0  0
    7.8590   -0.9480   21.3340 C   0  0  0  0  0  0  0  0  0  0  0  0
    7.1130   -0.3920   20.3020 N   0  0  0  0  0  0  0  0  0  0  0  0
    7.1390   -0.9560   19.0530 N   0  0  0  0  0  0  0  0  0  0  0  0
    6.3540   -0.2820   18.1980 N   0  0  0  0  0  0  0  0  0  0  0  0
    5.8150    0.7250   18.8880 C   0  0  0  0  0  0  0  0  0  0  0  0
    4.9310    1.7470   18.5300 C   0  0  0  0  0  0  0  0  0  0  0  0
    4.4900    2.7470   19.5100 C   0  0  0  0  0  0  0  0  0  0  0  0
    4.9130    2.7500   20.8330 C   0  0  0  0  0  0  0  0  0  0  0  0
    5.7970    1.7600   21.2580 C   0  0  0  0  0  0  0  0  0  0  0  0
    6.2920    0.7040   20.3190 C   0  0  0  0  0  0  0  0  0  0  0  0
   10.9460    0.5770   22.8070 C   0  0  0  0  0  0  0  0  0  0  0  0
   10.7120    1.9270   23.0220 C   0  0  0  0  0  0  0  0  0  0  0  0
   11.6980    2.9560   23.1200 C   0  0  0  0  0  0  0  0  0  0  0  0
   13.0820    2.6800   22.9960 C   0  0  0  0  0  0  0  0  0  0  0  0
   14.1730    3.8660   23.1130 N   0  0  0  0  0  0  0  0  0  0  0  0
   15.6690    3.9120   22.5490 C   0  0  0  0  0  0  0  0  0  0  0  0
   15.7110    3.2810   21.6960 O   0  0  0  0  0  0  0  0  0  0  0  0
   17.0070    4.7690   22.6270 C   0  0  0  0  0  0  0  0  0  0  0  0
   17.2720    5.4490   23.8710 C   0  0  0  0  0  0  0  0  0  0  0  0
   18.5100    6.3890   24.0760 C   0  0  0  0  0  0  0  0  0  0  0  0
   19.4570    6.6110   22.9230 C   0  0  0  0  0  0  0  0  0  0  0  0
   19.2070    5.9180   21.6080 C   0  0  0  0  0  0  0  0  0  0  0  0
   17.9450    4.9620   21.5350 C   0  0  0  0  0  0  0  0  0  0  0  0
   13.3020    1.2540   22.7850 C   0  0  0  0  0  0  0  0  0  0  0  0
   12.2880    0.2420   22.6930 C   0  0  0  0  0  0  0  0  0  0  0  0
    8.1590   -3.6540   23.3790 C   0  0  0  0  0  0  0  0  0  0  0  0
  1  2  1  0
  2  3  1  0
  3  4  2  0
  4  5  1  0
  5  6  1  0
  6  7  1  0
  7  8  1  0
  8  9  2  0
  8 10  1  0
 10 11  1  0
 11 12  1  0
 12 13  2  0
 13 14  1  0
 14 15  1  0
 15 16  2  0
 16 17  1  0
 17 18  2  0
 11 19  1  0
 14 19  2  0
 18 19  1  0
  7 20  1  0
 20 21  2  0
 21 22  1  0
 22 23  2  0
 23 24  1  0
 24 25  1  0
 25 26  2  0
 25 27  1  0
 27 28  2  0
 28 29  1  0
 29 30  2  0
 30 31  1  0
 27 32  1  0
 31 32  2  0
 23 33  1  0
 20 34  1  0
 33 34  2  0
  2 35  1  0
  5 35  2  0
M  END
