RUT-UNI-630c5802-21
     RDKit          3D

 25 27  0  0  0  0  0  0  0  0999 V2000
   10.4960   -5.6020   20.0390 C   0  0  0  0  0  0  0  0  0  0  0  0
   10.1300   -4.2590   20.5000 C   0  0  0  0  0  0  0  0  0  0  0  0
   10.2380   -3.8660   19.3520 N   0  0  0  0  0  0  0  0  0  0  0  0
    9.2710   -4.1910   18.4240 C   0  0  0  0  0  0  0  0  0  0  0  0
   11.3250   -4.7210   19.2070 C   0  0  0  0  0  0  0  0  0  0  0  0
   11.3390   -4.9430   20.4240 C   0  0  0  0  0  0  0  0  0  0  0  0
   11.5010   -3.6230   21.0480 N   0  0  0  0  0  0  0  0  0  0  0  0
   12.7970   -3.1820   20.8300 C   0  0  0  0  0  0  0  0  0  0  0  0
   13.8240   -4.1000   20.2740 C   0  0  0  0  0  0  0  0  0  0  0  0
   13.9190   -5.5460   20.3990 C   0  0  0  0  0  0  0  0  0  0  0  0
   15.1920   -5.9600   19.8100 C   0  0  0  0  0  0  0  0  0  0  0  0
   16.0420   -4.7420   19.1840 S   0  0  0  0  0  0  0  0  0  0  0  0
   14.8400   -3.6830   19.5860 C   0  0  0  0  0  0  0  0  0  0  0  0
   10.5630   -2.4270   21.1840 C   0  0  0  0  0  0  0  0  0  0  0  0
   11.1240   -1.3410   21.3690 O   0  0  0  0  0  0  0  0  0  0  0  0
    9.0190   -2.3100   21.1300 C   0  0  0  0  0  0  0  0  0  0  0  0
    9.0450   -1.8940   22.4430 N   0  0  0  0  0  0  0  0  0  0  0  0
    8.0280   -1.7930   23.3090 N   0  0  0  0  0  0  0  0  0  0  0  0
    8.6450   -1.4730   24.4340 N   0  0  0  0  0  0  0  0  0  0  0  0
   10.0010   -1.3950   24.1590 C   0  0  0  0  0  0  0  0  0  0  0  0
   11.0710   -1.1650   24.9150 C   0  0  0  0  0  0  0  0  0  0  0  0
   12.3780   -1.0830   24.4640 C   0  0  0  0  0  0  0  0  0  0  0  0
   12.7310   -1.2510   23.1740 C   0  0  0  0  0  0  0  0  0  0  0  0
   11.6890   -1.5400   22.3100 C   0  0  0  0  0  0  0  0  0  0  0  0
   10.2800   -1.6100   22.8940 C   0  0  0  0  0  0  0  0  0  0  0  0
  1  2  1  0
  2  3  1  0
  3  4  1  0
  3  5  1  0
  5  6  1  0
  6  7  1  0
  7  8  1  0
  8  9  1  0
  9 10  1  0
 10 11  2  0
 11 12  1  0
  9 13  2  0
 12 13  1  0
  7 14  1  0
 14 15  2  0
 14 16  1  0
 16 17  1  0
 17 18  1  0
 18 19  2  0
 19 20  1  0
 20 21  1  0
 21 22  2  0
 22 23  1  0
 23 24  2  0
 17 25  1  0
 20 25  2  0
 24 25  1  0
M  END
