RUT-UNI-630c5802-7
     RDKit          3D

 33 36  0  0  0  0  0  0  0  0999 V2000
    5.8060   -1.2930   18.6190 C   0  0  0  0  0  0  0  0  0  0  0  0
    5.3670   -0.2900   19.6760 C   0  0  0  0  0  0  0  0  0  0  0  0
    4.4030    0.8340   19.2330 C   0  0  0  0  0  0  0  0  0  0  0  0
    3.9540    1.8660   20.2960 C   0  0  0  0  0  0  0  0  0  0  0  0
    4.4350    1.7590   21.6410 N   0  0  0  0  0  0  0  0  0  0  0  0
    5.2770    0.7120   21.8850 C   0  0  0  0  0  0  0  0  0  0  0  0
    5.7800   -0.3080   21.0320 C   0  0  0  0  0  0  0  0  0  0  0  0
    6.6580   -1.2700   21.5570 C   0  0  0  0  0  0  0  0  0  0  0  0
    7.9960   -0.8860   21.5860 C   0  0  0  0  0  0  0  0  0  0  0  0
    8.3160    0.1260   20.9480 O   0  0  0  0  0  0  0  0  0  0  0  0
    9.0010   -1.6250   22.3800 N   0  0  0  0  0  0  0  0  0  0  0  0
    8.4960   -2.5400   23.3990 C   0  0  0  0  0  0  0  0  0  0  0  0
    7.9220   -1.9100   24.5060 C   0  0  0  0  0  0  0  0  0  0  0  0
    8.5560   -0.6810   25.1240 C   0  0  0  0  0  0  0  0  0  0  0  0
    7.6330   -0.3880   26.2290 C   0  0  0  0  0  0  0  0  0  0  0  0
    6.5840   -1.2510   26.3340 N   0  0  0  0  0  0  0  0  0  0  0  0
    5.5110   -1.2300   27.3190 C   0  0  0  0  0  0  0  0  0  0  0  0
    6.7500   -2.1870   25.2810 C   0  0  0  0  0  0  0  0  0  0  0  0
    9.9950   -0.7700   22.5830 C   0  0  0  0  0  0  0  0  0  0  0  0
    9.5070    0.5670   23.0210 C   0  0  0  0  0  0  0  0  0  0  0  0
   10.4180    1.5370   23.1760 C   0  0  0  0  0  0  0  0  0  0  0  0
   11.7300    1.3180   22.9470 C   0  0  0  0  0  0  0  0  0  0  0  0
   12.5170    2.3950   23.0690 N   0  0  0  0  0  0  0  0  0  0  0  0
   12.8790    3.3020   22.0870 C   0  0  0  0  0  0  0  0  0  0  0  0
   12.3850    3.8670   21.1250 O   0  0  0  0  0  0  0  0  0  0  0  0
   14.0700    3.4430   22.5700 C   0  0  0  0  0  0  0  0  0  0  0  0
   14.4150    4.6330   23.5310 C   0  0  0  0  0  0  0  0  0  0  0  0
   16.1930    4.8360   24.4130 C   0  0  0  0  0  0  0  0  0  0  0  0
   17.3230    3.8870   24.2970 C   0  0  0  0  0  0  0  0  0  0  0  0
   16.9470    2.7220   23.4270 C   0  0  0  0  0  0  0  0  0  0  0  0
   15.1650    2.3430   22.3180 C   0  0  0  0  0  0  0  0  0  0  0  0
   12.2480    0.0700   22.5840 C   0  0  0  0  0  0  0  0  0  0  0  0
   11.3700   -0.9880   22.3980 C   0  0  0  0  0  0  0  0  0  0  0  0
  1  2  1  0
  2  3  2  0
  3  4  1  0
  4  5  2  0
  5  6  1  0
  2  7  1  0
  6  7  2  0
  7  8  1  0
  8  9  1  0
  9 10  2  0
  9 11  1  0
 11 12  1  0
 12 13  1  0
 13 14  1  0
 14 15  2  0
 15 16  1  0
 16 17  1  0
 13 18  2  0
 16 18  1  0
 11 19  1  0
 19 20  2  0
 20 21  1  0
 21 22  2  0
 22 23  1  0
 23 24  1  0
 24 25  2  0
 24 26  1  0
 26 27  2  0
 27 28  1  0
 28 29  2  0
 29 30  1  0
 26 31  1  0
 30 31  2  0
 22 32  1  0
 19 33  1  0
 32 33  2  0
M  END
