RUT-UNI-630c5802-11
     RDKit          3D

 33 36  0  0  0  0  0  0  0  0999 V2000
    7.1700    2.4370   21.6560 C   0  0  0  0  0  0  0  0  0  0  0  0
    5.8540    2.2200   21.0310 C   0  0  0  0  0  0  0  0  0  0  0  0
    5.1020    3.3090   20.6030 C   0  0  0  0  0  0  0  0  0  0  0  0
    3.8510    3.2630   19.9910 C   0  0  0  0  0  0  0  0  0  0  0  0
    3.2160    2.1030   19.7450 N   0  0  0  0  0  0  0  0  0  0  0  0
    3.9040    1.0010   20.1450 C   0  0  0  0  0  0  0  0  0  0  0  0
    5.2520    0.9670   20.8110 C   0  0  0  0  0  0  0  0  0  0  0  0
    5.8080   -0.4360   21.1690 C   0  0  0  0  0  0  0  0  0  0  0  0
    7.2820   -0.4530   21.4930 C   0  0  0  0  0  0  0  0  0  0  0  0
    7.9840    0.3480   20.8550 O   0  0  0  0  0  0  0  0  0  0  0  0
    7.8710   -1.2580   22.4050 N   0  0  0  0  0  0  0  0  0  0  0  0
    7.2360   -1.5330   23.5600 C   0  0  0  0  0  0  0  0  0  0  0  0
    6.5750   -0.5440   24.1980 C   0  0  0  0  0  0  0  0  0  0  0  0
    5.1890   -0.4680   24.2150 C   0  0  0  0  0  0  0  0  0  0  0  0
    4.4960    0.8380   25.0620 S   0  0  0  0  0  0  0  0  0  0  0  0
    6.0550    1.3830   25.4610 C   0  0  0  0  0  0  0  0  0  0  0  0
    6.2820    2.4840   26.1950 F   0  0  0  0  0  0  0  0  0  0  0  0
    7.0920    0.5730   24.9510 C   0  0  0  0  0  0  0  0  0  0  0  0
    9.2770   -0.8050   22.4370 C   0  0  0  0  0  0  0  0  0  0  0  0
    9.4660    0.4740   22.8550 C   0  0  0  0  0  0  0  0  0  0  0  0
   10.6990    1.0200   22.8820 C   0  0  0  0  0  0  0  0  0  0  0  0
   11.7860    0.2820   22.4850 C   0  0  0  0  0  0  0  0  0  0  0  0
   12.9080    0.8550   22.5410 N   0  0  0  0  0  0  0  0  0  0  0  0
   12.6720    0.6920   23.7340 C   0  0  0  0  0  0  0  0  0  0  0  0
   12.1350    1.4450   24.4460 O   0  0  0  0  0  0  0  0  0  0  0  0
   12.9900   -0.5560   24.0810 C   0  0  0  0  0  0  0  0  0  0  0  0
   13.0950   -0.9550   25.3550 C   0  0  0  0  0  0  0  0  0  0  0  0
   13.4570   -2.2320   25.6120 C   0  0  0  0  0  0  0  0  0  0  0  0
   13.6760   -3.0900   24.6300 C   0  0  0  0  0  0  0  0  0  0  0  0
   13.5610   -2.7290   23.3180 C   0  0  0  0  0  0  0  0  0  0  0  0
   13.2160   -1.4210   23.0110 C   0  0  0  0  0  0  0  0  0  0  0  0
   11.7150   -1.0390   22.0650 C   0  0  0  0  0  0  0  0  0  0  0  0
   10.5060   -1.6650   22.0040 C   0  0  0  0  0  0  0  0  0  0  0  0
  1  2  1  0
  2  3  2  0
  3  4  1  0
  4  5  2  0
  5  6  1  0
  2  7  1  0
  6  7  2  0
  7  8  1  0
  8  9  1  0
  9 10  2  0
  9 11  1  0
 11 12  1  0
 12 13  1  0
 13 14  2  0
 14 15  1  0
 15 16  1  0
 16 17  1  0
 13 18  1  0
 16 18  2  0
 11 19  1  0
 19 20  2  0
 20 21  1  0
 21 22  2  0
 22 23  1  0
 23 24  1  0
 24 25  2  0
 24 26  1  0
 26 27  2  0
 27 28  1  0
 28 29  2  0
 29 30  1  0
 26 31  1  0
 30 31  2  0
 22 32  1  0
 19 33  1  0
 32 33  2  0
M  END
