RUT-UNI-630c5802-1
     RDKit          3D

 34 38  0  0  0  0  0  0  0  0999 V2000
    8.1000    1.7600   20.7580 O   0  0  0  0  0  0  0  0  0  0  0  0
    8.2250    0.5500   20.8310 C   0  0  0  0  0  0  0  0  0  0  0  0
    9.3250   -0.1230   21.2600 N   0  0  0  0  0  0  0  0  0  0  0  0
    9.2640   -0.4280   22.5130 C   0  0  0  0  0  0  0  0  0  0  0  0
    8.2590    0.3420   23.1380 C   0  0  0  0  0  0  0  0  0  0  0  0
    7.9870    0.1860   24.4330 C   0  0  0  0  0  0  0  0  0  0  0  0
    8.6350   -0.7000   25.2230 C   0  0  0  0  0  0  0  0  0  0  0  0
    8.1320   -0.7350   26.5470 N   0  0  0  0  0  0  0  0  0  0  0  0
    7.8220    0.5280   26.9910 C   0  0  0  0  0  0  0  0  0  0  0  0
    8.3900    0.7910   28.2570 C   0  0  0  0  0  0  0  0  0  0  0  0
    8.6590   -0.2840   29.2930 C   0  0  0  0  0  0  0  0  0  0  0  0
    9.2780    0.4170   30.4850 C   0  0  0  0  0  0  0  0  0  0  0  0
    9.4810    2.1050   30.3340 S   0  0  0  0  0  0  0  0  0  0  0  0
    8.8000    2.0960   28.7460 C   0  0  0  0  0  0  0  0  0  0  0  0
    6.7860   -1.3190   26.3060 C   0  0  0  0  0  0  0  0  0  0  0  0
    5.9070   -0.8220   25.6160 O   0  0  0  0  0  0  0  0  0  0  0  0
    6.3300   -2.5270   26.8680 C   0  0  0  0  0  0  0  0  0  0  0  0
    6.0060   -3.5930   26.0520 N   0  0  0  0  0  0  0  0  0  0  0  0
    5.0820   -4.4020   26.5260 N   0  0  0  0  0  0  0  0  0  0  0  0
    4.8570   -5.3800   25.6610 N   0  0  0  0  0  0  0  0  0  0  0  0
    5.6530   -5.2040   24.6030 C   0  0  0  0  0  0  0  0  0  0  0  0
    5.7290   -6.0980   23.3680 C   0  0  0  0  0  0  0  0  0  0  0  0
    6.7280   -5.6800   22.2940 C   0  0  0  0  0  0  0  0  0  0  0  0
    7.5500   -4.4140   22.5520 C   0  0  0  0  0  0  0  0  0  0  0  0
    7.3900   -3.5960   23.8210 C   0  0  0  0  0  0  0  0  0  0  0  0
    6.4450   -4.0530   24.7680 C   0  0  0  0  0  0  0  0  0  0  0  0
    9.7120   -1.4820   24.5820 C   0  0  0  0  0  0  0  0  0  0  0  0
   10.0290   -1.3350   23.1330 C   0  0  0  0  0  0  0  0  0  0  0  0
    7.1690   -0.3780   20.3980 C   0  0  0  0  0  0  0  0  0  0  0  0
    6.5810   -1.4560   21.3300 C   0  0  0  0  0  0  0  0  0  0  0  0
    5.6110   -2.2900   20.8220 C   0  0  0  0  0  0  0  0  0  0  0  0
    5.1820   -2.1560   19.5100 C   0  0  0  0  0  0  0  0  0  0  0  0
    5.7210   -1.1590   18.6630 C   0  0  0  0  0  0  0  0  0  0  0  0
    6.6990   -0.2840   19.0990 C   0  0  0  0  0  0  0  0  0  0  0  0
  1  2  2  0
  2  3  1  0
  3  4  1  0
  4  5  2  0
  5  6  1  0
  6  7  2  0
  7  8  1  0
  8  9  1  0
  9 10  1  0
 10 11  1  0
 11 12  2  0
 12 13  1  0
 10 14  2  0
 13 14  1  0
  8 15  1  0
 15 16  2  0
 15 17  1  0
 17 18  1  0
 18 19  1  0
 19 20  2  0
 20 21  1  0
 21 22  1  0
 22 23  2  0
 23 24  1  0
 24 25  2  0
 18 26  1  0
 21 26  2  0
 25 26  1  0
  7 27  1  0
  4 28  1  0
 27 28  2  0
  2 29  1  0
 29 30  2  0
 30 31  1  0
 31 32  2  0
 32 33  1  0
 29 34  1  0
 33 34  2  0
M  END
