RUT-UNI-630c5802-23
     RDKit          3D

 30 33  0  0  0  0  0  0  0  0999 V2000
    9.3370    0.9890   25.2080 N   0  0  0  0  0  0  0  0  0  0  0  0
   10.3470    0.5650   24.3910 C   0  0  0  0  0  0  0  0  0  0  0  0
   10.2790   -0.7020   23.7280 C   0  0  0  0  0  0  0  0  0  0  0  0
   11.2920   -1.1490   22.8900 C   0  0  0  0  0  0  0  0  0  0  0  0
   12.5520   -0.5510   22.5020 C   0  0  0  0  0  0  0  0  0  0  0  0
   12.2150   -1.7670   21.9940 C   0  0  0  0  0  0  0  0  0  0  0  0
   10.8310   -1.9130   22.0020 C   0  0  0  0  0  0  0  0  0  0  0  0
    9.9400   -0.6300   21.9880 C   0  0  0  0  0  0  0  0  0  0  0  0
    8.7790   -0.7330   21.5880 O   0  0  0  0  0  0  0  0  0  0  0  0
   10.4290    0.6530   22.4200 N   0  0  0  0  0  0  0  0  0  0  0  0
   11.8470    0.7560   22.9130 C   0  0  0  0  0  0  0  0  0  0  0  0
   12.4680   -0.5170   23.4790 C   0  0  0  0  0  0  0  0  0  0  0  0
   12.3980   -0.9130   24.9450 C   0  0  0  0  0  0  0  0  0  0  0  0
   13.1190   -2.2160   25.0970 C   0  0  0  0  0  0  0  0  0  0  0  0
   13.7430   -2.8090   23.6680 S   0  0  0  0  0  0  0  0  0  0  0  0
   13.1780   -1.4770   22.7470 C   0  0  0  0  0  0  0  0  0  0  0  0
    9.7830    1.8670   22.0960 C   0  0  0  0  0  0  0  0  0  0  0  0
    8.7490    1.9340   21.4070 O   0  0  0  0  0  0  0  0  0  0  0  0
   10.4540    3.1810   22.5360 C   0  0  0  0  0  0  0  0  0  0  0  0
    9.6770    4.0660   23.3710 N   0  0  0  0  0  0  0  0  0  0  0  0
    8.3660    3.9030   23.4870 N   0  0  0  0  0  0  0  0  0  0  0  0
    7.9190    4.8430   24.3040 N   0  0  0  0  0  0  0  0  0  0  0  0
    8.9810    5.6060   24.7040 C   0  0  0  0  0  0  0  0  0  0  0  0
    9.0030    6.7920   25.6290 C   0  0  0  0  0  0  0  0  0  0  0  0
   10.3940    7.3720   25.8270 C   0  0  0  0  0  0  0  0  0  0  0  0
   11.5820    6.7350   25.1080 C   0  0  0  0  0  0  0  0  0  0  0  0
   11.4560    5.6100   24.2490 C   0  0  0  0  0  0  0  0  0  0  0  0
   10.1560    5.1190   24.1050 C   0  0  0  0  0  0  0  0  0  0  0  0
   12.5050    0.7010   23.2380 C   0  0  0  0  0  0  0  0  0  0  0  0
   11.4970    1.2290   24.0970 C   0  0  0  0  0  0  0  0  0  0  0  0
  1  2  1  0
  2  3  2  0
  3  4  1  0
  4  5  2  0
  5  6  1  0
  6  7  1  0
  7  8  1  0
  8  9  2  0
  8 10  1  0
 10 11  1  0
 11 12  1  0
 12 13  1  0
 13 14  2  0
 14 15  1  0
 12 16  2  0
 15 16  1  0
 10 17  1  0
 17 18  2  0
 17 19  1  0
 19 20  1  0
 20 21  1  0
 21 22  2  0
 22 23  1  0
 23 24  1  0
 24 25  2  0
 25 26  1  0
 26 27  2  0
 20 28  1  0
 23 28  2  0
 27 28  1  0
  5 29  1  0
  2 30  1  0
 29 30  2  0
M  END
