RUT-UNI-630c5802-27
     RDKit          3D

 30 34  0  0  0  0  0  0  0  0999 V2000
   13.1910   -2.0680   21.4450 C   0  0  0  0  0  0  0  0  0  0  0  0
   13.2690   -2.5430   22.7040 C   0  0  0  0  0  0  0  0  0  0  0  0
   13.0000   -1.7490   23.8660 C   0  0  0  0  0  0  0  0  0  0  0  0
   11.9580   -0.9770   23.6820 C   0  0  0  0  0  0  0  0  0  0  0  0
   11.7660    0.2570   24.2430 C   0  0  0  0  0  0  0  0  0  0  0  0
   10.4840    0.9440   23.9590 C   0  0  0  0  0  0  0  0  0  0  0  0
    9.4900    0.3050   23.1010 C   0  0  0  0  0  0  0  0  0  0  0  0
    8.3610    0.9470   22.9050 N   0  0  0  0  0  0  0  0  0  0  0  0
    7.2520    0.2520   23.2030 C   0  0  0  0  0  0  0  0  0  0  0  0
    7.1370   -0.2740   24.6470 C   0  0  0  0  0  0  0  0  0  0  0  0
    6.4530   -1.4350   25.0090 C   0  0  0  0  0  0  0  0  0  0  0  0
    6.4850   -1.7300   26.5000 C   0  0  0  0  0  0  0  0  0  0  0  0
    7.3780   -0.5000   27.2680 S   0  0  0  0  0  0  0  0  0  0  0  0
    7.6860    0.3210   25.7810 C   0  0  0  0  0  0  0  0  0  0  0  0
    8.2680    1.8620   21.8930 C   0  0  0  0  0  0  0  0  0  0  0  0
    8.9360    1.7140   20.8890 O   0  0  0  0  0  0  0  0  0  0  0  0
    7.4110    2.9610   22.0620 C   0  0  0  0  0  0  0  0  0  0  0  0
    6.2290    2.7760   21.2650 N   0  0  0  0  0  0  0  0  0  0  0  0
    5.1640    3.5910   21.4150 N   0  0  0  0  0  0  0  0  0  0  0  0
    4.2380    3.1860   20.5520 N   0  0  0  0  0  0  0  0  0  0  0  0
    4.7270    2.1290   19.8710 C   0  0  0  0  0  0  0  0  0  0  0  0
    4.1700    1.3430   18.8590 C   0  0  0  0  0  0  0  0  0  0  0  0
    4.8630    0.2740   18.2780 C   0  0  0  0  0  0  0  0  0  0  0  0
    6.1530   -0.0650   18.6850 C   0  0  0  0  0  0  0  0  0  0  0  0
    6.7790    0.6810   19.7000 C   0  0  0  0  0  0  0  0  0  0  0  0
    6.0010    1.8370   20.3050 C   0  0  0  0  0  0  0  0  0  0  0  0
    9.7350   -0.9160   22.5350 C   0  0  0  0  0  0  0  0  0  0  0  0
   11.0260   -1.5710   22.8540 C   0  0  0  0  0  0  0  0  0  0  0  0
   13.5940   -2.0170   25.2360 C   0  0  0  0  0  0  0  0  0  0  0  0
   12.4230   -2.6460   24.9120 C   0  0  0  0  0  0  0  0  0  0  0  0
  1  2  1  0
  3  2  1  0
  3  4  1  0
  4  5  2  0
  5  6  1  0
  6  7  2  0
  7  8  1  0
  8  9  1  0
  9 10  1  0
 10 11  1  0
 11 12  2  0
 12 13  1  0
 10 14  2  0
 13 14  1  0
  8 15  1  0
 15 16  2  0
 15 17  1  0
 17 18  1  0
 18 19  1  0
 19 20  2  0
 20 21  1  0
 21 22  1  0
 22 23  2  0
 23 24  1  0
 24 25  2  0
 18 26  1  0
 21 26  2  0
 25 26  1  0
  7 27  1  0
  4 28  1  0
 27 28  2  0
  3 29  1  0
  3 30  1  0
 29 30  1  0
M  END
