RUT-UNI-630c5802-15
     RDKit          3D

 33 36  0  0  0  0  0  0  0  0999 V2000
    6.8990    1.8500   21.9890 C   0  0  0  0  0  0  0  0  0  0  0  0
    6.6950    1.1620   20.6730 C   0  0  0  0  0  0  0  0  0  0  0  0
    5.8140    1.7670   19.7610 C   0  0  0  0  0  0  0  0  0  0  0  0
    5.5850    1.1840   18.5270 C   0  0  0  0  0  0  0  0  0  0  0  0
    6.1750    0.0420   18.1370 N   0  0  0  0  0  0  0  0  0  0  0  0
    7.0230   -0.5380   19.0260 C   0  0  0  0  0  0  0  0  0  0  0  0
    7.3310   -0.0430   20.3060 C   0  0  0  0  0  0  0  0  0  0  0  0
    8.2830   -0.7780   21.1910 C   0  0  0  0  0  0  0  0  0  0  0  0
    9.2170   -0.0190   21.8410 C   0  0  0  0  0  0  0  0  0  0  0  0
    9.5090    1.0930   21.4440 O   0  0  0  0  0  0  0  0  0  0  0  0
    9.7090   -0.5630   22.9260 N   0  0  0  0  0  0  0  0  0  0  0  0
    8.8780   -0.0960   23.9180 C   0  0  0  0  0  0  0  0  0  0  0  0
    9.0750    1.2230   23.9960 C   0  0  0  0  0  0  0  0  0  0  0  0
    8.3470    2.1460   24.8880 C   0  0  0  0  0  0  0  0  0  0  0  0
    8.8470    3.3810   24.6600 C   0  0  0  0  0  0  0  0  0  0  0  0
    8.5170    4.5500   25.2190 F   0  0  0  0  0  0  0  0  0  0  0  0
    9.8880    3.0850   23.5930 C   0  0  0  0  0  0  0  0  0  0  0  0
    9.9310    1.8580   23.2990 O   0  0  0  0  0  0  0  0  0  0  0  0
   11.1310   -0.9990   23.2870 C   0  0  0  0  0  0  0  0  0  0  0  0
   11.2940   -1.4650   24.6950 C   0  0  0  0  0  0  0  0  0  0  0  0
   12.6910   -1.9580   25.1960 C   0  0  0  0  0  0  0  0  0  0  0  0
   13.8280   -2.0200   24.5030 C   0  0  0  0  0  0  0  0  0  0  0  0
   15.0490   -2.6140   25.3310 N   0  0  0  0  0  0  0  0  0  0  0  0
   16.4580   -1.9920   26.0660 C   0  0  0  0  0  0  0  0  0  0  0  0
   15.9850   -1.2950   26.8950 O   0  0  0  0  0  0  0  0  0  0  0  0
   18.2550   -1.9050   25.7580 C   0  0  0  0  0  0  0  0  0  0  0  0
   19.4930   -2.1550   26.5810 C   0  0  0  0  0  0  0  0  0  0  0  0
   20.9750   -2.0300   26.2650 C   0  0  0  0  0  0  0  0  0  0  0  0
   21.4090   -1.6270   25.0770 C   0  0  0  0  0  0  0  0  0  0  0  0
   20.4150   -1.3470   24.2140 C   0  0  0  0  0  0  0  0  0  0  0  0
   19.0460   -1.4630   24.5020 C   0  0  0  0  0  0  0  0  0  0  0  0
   13.6050   -1.5590   23.1570 C   0  0  0  0  0  0  0  0  0  0  0  0
   12.2940   -1.0550   22.5520 C   0  0  0  0  0  0  0  0  0  0  0  0
  1  2  1  0
  2  3  2  0
  3  4  1  0
  4  5  2  0
  5  6  1  0
  2  7  1  0
  6  7  2  0
  7  8  1  0
  8  9  1  0
  9 10  2  0
  9 11  1  0
 11 12  1  0
 12 13  1  0
 13 14  2  0
 14 15  1  0
 15 16  1  0
 15 17  2  0
 13 18  1  0
 17 18  1  0
 11 19  1  0
 19 20  2  0
 20 21  1  0
 21 22  2  0
 22 23  1  0
 23 24  1  0
 24 25  2  0
 24 26  1  0
 26 27  2  0
 27 28  1  0
 28 29  2  0
 29 30  1  0
 26 31  1  0
 30 31  2  0
 22 32  1  0
 19 33  1  0
 32 33  2  0
M  END
