RUT-UNI-630c5802-2
     RDKit          3D

 31 34  0  0  0  0  0  0  0  0999 V2000
   13.8150    1.4810   22.5020 O   0  0  0  0  0  0  0  0  0  0  0  0
   13.5130    2.6520   22.5970 C   0  0  0  0  0  0  0  0  0  0  0  0
   12.2710    2.9910   22.6660 N   0  0  0  0  0  0  0  0  0  0  0  0
   11.4570    1.8840   22.7630 C   0  0  0  0  0  0  0  0  0  0  0  0
   10.1490    2.0480   22.9660 C   0  0  0  0  0  0  0  0  0  0  0  0
    9.2780    0.8430   22.9510 C   0  0  0  0  0  0  0  0  0  0  0  0
    9.7910   -0.4140   22.7340 C   0  0  0  0  0  0  0  0  0  0  0  0
    8.7730   -1.3910   22.6230 N   0  0  0  0  0  0  0  0  0  0  0  0
    8.0960   -2.0050   23.7710 C   0  0  0  0  0  0  0  0  0  0  0  0
    7.4760   -2.9790   23.4170 C   0  0  0  0  0  0  0  0  0  0  0  0
    8.0460   -4.2940   23.4260 C   0  0  0  0  0  0  0  0  0  0  0  0
    7.1820   -5.2720   22.9800 C   0  0  0  0  0  0  0  0  0  0  0  0
    5.6620   -4.6260   22.5390 S   0  0  0  0  0  0  0  0  0  0  0  0
    6.1680   -3.0420   22.9510 C   0  0  0  0  0  0  0  0  0  0  0  0
    8.0430   -0.7390   21.5990 C   0  0  0  0  0  0  0  0  0  0  0  0
    8.5400    0.2350   21.0250 O   0  0  0  0  0  0  0  0  0  0  0  0
    6.8250   -0.9980   21.1700 C   0  0  0  0  0  0  0  0  0  0  0  0
    6.2060   -0.2040   20.0910 C   0  0  0  0  0  0  0  0  0  0  0  0
    5.0170    0.5110   20.2470 C   0  0  0  0  0  0  0  0  0  0  0  0
    4.5050    1.2510   19.1820 C   0  0  0  0  0  0  0  0  0  0  0  0
    5.2020    1.2540   17.9910 C   0  0  0  0  0  0  0  0  0  0  0  0
    6.3480    0.5750   17.8060 N   0  0  0  0  0  0  0  0  0  0  0  0
    6.8220   -0.1330   18.8490 C   0  0  0  0  0  0  0  0  0  0  0  0
   11.1790   -0.5640   22.5940 C   0  0  0  0  0  0  0  0  0  0  0  0
   12.0020    0.5690   22.6100 C   0  0  0  0  0  0  0  0  0  0  0  0
   14.5770    3.4560   23.1300 C   0  0  0  0  0  0  0  0  0  0  0  0
   16.7690    2.9420   23.5420 C   0  0  0  0  0  0  0  0  0  0  0  0
   17.6620    3.7250   24.1450 C   0  0  0  0  0  0  0  0  0  0  0  0
   17.4360    4.3190   24.3530 C   0  0  0  0  0  0  0  0  0  0  0  0
   16.2170    4.8850   24.3580 C   0  0  0  0  0  0  0  0  0  0  0  0
   14.4990    4.6930   23.7820 C   0  0  0  0  0  0  0  0  0  0  0  0
  1  2  2  0
  2  3  1  0
  3  4  1  0
  4  5  2  0
  5  6  1  0
  6  7  2  0
  7  8  1  0
  8  9  1  0
  9 10  1  0
 10 11  1  0
 11 12  2  0
 12 13  1  0
 10 14  2  0
 13 14  1  0
  8 15  1  0
 15 16  2  0
 15 17  1  0
 17 18  1  0
 18 19  2  0
 19 20  1  0
 20 21  2  0
 21 22  1  0
 18 23  1  0
 22 23  2  0
  7 24  1  0
  4 25  1  0
 24 25  2  0
  2 26  1  0
 26 27  2  0
 27 28  1  0
 28 29  2  0
 29 30  1  0
 26 31  1  0
 30 31  2  0
M  END
