RUT-UNI-630c5802-22
     RDKit          3D

 25 27  0  0  0  0  0  0  0  0999 V2000
   15.3550    6.0690   18.7280 C   0  0  0  0  0  0  0  0  0  0  0  0
   14.7820    4.9550   19.5030 C   0  0  0  0  0  0  0  0  0  0  0  0
   13.4430    4.4570   19.1700 C   0  0  0  0  0  0  0  0  0  0  0  0
   15.5690    3.9030   19.3730 N   0  0  0  0  0  0  0  0  0  0  0  0
   14.6880    2.8050   19.1730 C   0  0  0  0  0  0  0  0  0  0  0  0
   15.2510    1.7880   18.2910 C   0  0  0  0  0  0  0  0  0  0  0  0
   14.4830    0.4840   18.2070 N   0  0  0  0  0  0  0  0  0  0  0  0
   14.1280   -0.0370   16.6760 C   0  0  0  0  0  0  0  0  0  0  0  0
   14.8790   -1.9620   15.8120 C   0  0  0  0  0  0  0  0  0  0  0  0
   15.6600   -2.6170   15.7470 C   0  0  0  0  0  0  0  0  0  0  0  0
   15.1170   -4.3260   15.0380 C   0  0  0  0  0  0  0  0  0  0  0  0
   14.1350   -4.9760   14.4920 S   0  0  0  0  0  0  0  0  0  0  0  0
   14.0230   -3.3660   14.9310 C   0  0  0  0  0  0  0  0  0  0  0  0
   14.2970   -0.0080   19.5420 C   0  0  0  0  0  0  0  0  0  0  0  0
   14.4730    0.9250   20.2980 O   0  0  0  0  0  0  0  0  0  0  0  0
   13.9070   -1.3770   20.3110 C   0  0  0  0  0  0  0  0  0  0  0  0
   12.7060   -1.7360   20.9720 N   0  0  0  0  0  0  0  0  0  0  0  0
   11.7440   -2.3840   20.4780 N   0  0  0  0  0  0  0  0  0  0  0  0
   10.7460   -2.5300   21.3300 N   0  0  0  0  0  0  0  0  0  0  0  0
   11.1760   -1.9810   22.4330 C   0  0  0  0  0  0  0  0  0  0  0  0
   10.5750   -1.8480   23.7610 C   0  0  0  0  0  0  0  0  0  0  0  0
   11.3660   -1.2500   24.6550 C   0  0  0  0  0  0  0  0  0  0  0  0
   12.6460   -0.7620   24.3310 C   0  0  0  0  0  0  0  0  0  0  0  0
   13.1550   -0.8600   23.1210 C   0  0  0  0  0  0  0  0  0  0  0  0
   12.4300   -1.4750   22.2030 C   0  0  0  0  0  0  0  0  0  0  0  0
  1  2  1  0
  2  3  1  0
  2  4  1  0
  4  5  1  0
  5  6  1  0
  6  7  1  0
  7  8  1  0
  8  9  1  0
  9 10  1  0
 10 11  2  0
 11 12  1  0
  9 13  2  0
 12 13  1  0
  7 14  1  0
 14 15  2  0
 14 16  1  0
 16 17  1  0
 17 18  1  0
 18 19  2  0
 19 20  1  0
 20 21  1  0
 21 22  2  0
 22 23  1  0
 23 24  2  0
 17 25  1  0
 20 25  2  0
 24 25  1  0
M  END
