RUT-UNI-630c5802-8
     RDKit          3D

 33 36  0  0  0  0  0  0  0  0999 V2000
    6.1500   -4.5920   24.4630 C   0  0  0  0  0  0  0  0  0  0  0  0
    6.2990   -3.6330   23.4730 N   0  0  0  0  0  0  0  0  0  0  0  0
    5.3480   -2.8770   22.8100 C   0  0  0  0  0  0  0  0  0  0  0  0
    5.8680   -2.0400   21.8970 C   0  0  0  0  0  0  0  0  0  0  0  0
    7.2480   -2.1950   21.9010 C   0  0  0  0  0  0  0  0  0  0  0  0
    8.1440   -1.5030   21.0820 C   0  0  0  0  0  0  0  0  0  0  0  0
    8.7130   -0.3660   21.5600 N   0  0  0  0  0  0  0  0  0  0  0  0
    7.9770    0.7430   21.2500 C   0  0  0  0  0  0  0  0  0  0  0  0
    8.6000    1.9310   21.0190 O   0  0  0  0  0  0  0  0  0  0  0  0
    6.5820    0.7270   21.1560 C   0  0  0  0  0  0  0  0  0  0  0  0
    5.9850    1.9690   21.1320 C   0  0  0  0  0  0  0  0  0  0  0  0
    5.9690    3.3220   21.4130 C   0  0  0  0  0  0  0  0  0  0  0  0
    4.9900    4.2320   21.1260 C   0  0  0  0  0  0  0  0  0  0  0  0
    3.8330    3.9070   20.4910 C   0  0  0  0  0  0  0  0  0  0  0  0
    2.9020    4.8350   20.2170 N   0  0  0  0  0  0  0  0  0  0  0  0
    3.7090    2.5790   20.1580 N   0  0  0  0  0  0  0  0  0  0  0  0
    4.7380    1.7190   20.4770 C   0  0  0  0  0  0  0  0  0  0  0  0
    9.6970   -0.3990   22.5740 C   0  0  0  0  0  0  0  0  0  0  0  0
   10.1720    0.7620   23.1570 C   0  0  0  0  0  0  0  0  0  0  0  0
   11.1080    0.7220   24.1440 C   0  0  0  0  0  0  0  0  0  0  0  0
   11.6060   -0.4890   24.5990 C   0  0  0  0  0  0  0  0  0  0  0  0
   12.5580   -0.5900   25.6180 N   0  0  0  0  0  0  0  0  0  0  0  0
   13.3540   -1.6430   25.4610 C   0  0  0  0  0  0  0  0  0  0  0  0
   13.9490   -2.4650   26.1420 O   0  0  0  0  0  0  0  0  0  0  0  0
   13.3400   -1.5620   24.0470 C   0  0  0  0  0  0  0  0  0  0  0  0
   13.4530   -2.7500   23.2610 C   0  0  0  0  0  0  0  0  0  0  0  0
   13.4270   -2.5970   21.9120 C   0  0  0  0  0  0  0  0  0  0  0  0
   13.2970   -1.2620   21.3420 C   0  0  0  0  0  0  0  0  0  0  0  0
   13.1770   -0.1970   22.2140 C   0  0  0  0  0  0  0  0  0  0  0  0
   13.1990   -0.3370   23.5080 C   0  0  0  0  0  0  0  0  0  0  0  0
   11.1490   -1.6510   24.0160 C   0  0  0  0  0  0  0  0  0  0  0  0
   10.2130   -1.6080   23.0160 C   0  0  0  0  0  0  0  0  0  0  0  0
    7.5100   -3.1980   22.8960 C   0  0  0  0  0  0  0  0  0  0  0  0
  1  2  1  0
  2  3  1  0
  3  4  2  0
  4  5  1  0
  5  6  1  0
  6  7  1  0
  7  8  1  0
  8  9  2  0
  8 10  1  0
 10 11  1  0
 11 12  2  0
 12 13  1  0
 13 14  2  0
 14 15  1  0
 14 16  1  0
 11 17  1  0
 16 17  2  0
  7 18  1  0
 18 19  2  0
 19 20  1  0
 20 21  2  0
 21 22  1  0
 22 23  1  0
 23 24  2  0
 23 25  1  0
 25 26  2  0
 26 27  1  0
 27 28  2  0
 28 29  1  0
 25 30  1  0
 29 30  2  0
 21 31  1  0
 18 32  1  0
 31 32  2  0
  2 33  1  0
  5 33  2  0
M  END
