RUT-UNI-630c5802-12
     RDKit          3D

 33 36  0  0  0  0  0  0  0  0999 V2000
    5.1940   -0.5500   17.6200 N   0  0  0  0  0  0  0  0  0  0  0  0
    5.5870   -0.1730   18.9490 C   0  0  0  0  0  0  0  0  0  0  0  0
    6.4380    1.0230   18.8740 C   0  0  0  0  0  0  0  0  0  0  0  0
    6.9060    1.5080   20.1280 C   0  0  0  0  0  0  0  0  0  0  0  0
    6.5350    0.8350   21.2710 C   0  0  0  0  0  0  0  0  0  0  0  0
    7.0380    1.3380   22.4230 C   0  0  0  0  0  0  0  0  0  0  0  0
    8.3960    1.2060   22.3270 C   0  0  0  0  0  0  0  0  0  0  0  0
    9.1730    1.8590   21.3860 O   0  0  0  0  0  0  0  0  0  0  0  0
    8.8030    0.3140   23.2450 N   0  0  0  0  0  0  0  0  0  0  0  0
    8.2280    0.4820   24.5020 C   0  0  0  0  0  0  0  0  0  0  0  0
    7.1390   -0.3510   25.1730 C   0  0  0  0  0  0  0  0  0  0  0  0
    6.1800    0.1900   26.2090 C   0  0  0  0  0  0  0  0  0  0  0  0
    5.0260   -0.8910   26.8590 S   0  0  0  0  0  0  0  0  0  0  0  0
    5.6420   -2.1770   25.8710 C   0  0  0  0  0  0  0  0  0  0  0  0
    5.1660   -3.4310   25.8600 F   0  0  0  0  0  0  0  0  0  0  0  0
    6.7650   -1.7980   25.0070 C   0  0  0  0  0  0  0  0  0  0  0  0
   10.0350   -0.2450   23.2790 C   0  0  0  0  0  0  0  0  0  0  0  0
   10.6890   -0.0680   24.6290 C   0  0  0  0  0  0  0  0  0  0  0  0
   12.0320   -0.6740   24.8090 C   0  0  0  0  0  0  0  0  0  0  0  0
   12.5920   -1.4140   23.6270 C   0  0  0  0  0  0  0  0  0  0  0  0
   13.8150   -2.0100   24.0100 N   0  0  0  0  0  0  0  0  0  0  0  0
   13.2840   -2.9480   24.9990 C   0  0  0  0  0  0  0  0  0  0  0  0
   13.9000   -3.5150   25.8950 O   0  0  0  0  0  0  0  0  0  0  0  0
   11.7990   -3.3710   25.0930 C   0  0  0  0  0  0  0  0  0  0  0  0
   11.5170   -4.2680   26.1390 C   0  0  0  0  0  0  0  0  0  0  0  0
   10.0870   -4.7840   26.3640 C   0  0  0  0  0  0  0  0  0  0  0  0
    8.9710   -4.3160   25.4450 C   0  0  0  0  0  0  0  0  0  0  0  0
    9.3620   -3.3440   24.3350 C   0  0  0  0  0  0  0  0  0  0  0  0
   10.8270   -2.8930   24.2000 C   0  0  0  0  0  0  0  0  0  0  0  0
   11.9820   -1.5350   22.3850 C   0  0  0  0  0  0  0  0  0  0  0  0
   10.7410   -0.9920   22.1370 C   0  0  0  0  0  0  0  0  0  0  0  0
    5.7180   -0.2910   21.2170 C   0  0  0  0  0  0  0  0  0  0  0  0
    5.2330   -0.8220   20.0780 N   0  0  0  0  0  0  0  0  0  0  0  0
  1  2  1  0
  2  3  2  0
  3  4  1  0
  4  5  2  0
  5  6  1  0
  6  7  1  0
  7  8  2  0
  7  9  1  0
  9 10  1  0
 10 11  1  0
 11 12  2  0
 12 13  1  0
 13 14  1  0
 14 15  1  0
 11 16  1  0
 14 16  2  0
  9 17  1  0
 17 18  2  0
 18 19  1  0
 19 20  2  0
 20 21  1  0
 21 22  1  0
 22 23  2  0
 22 24  1  0
 24 25  2  0
 25 26  1  0
 26 27  2  0
 27 28  1  0
 24 29  1  0
 28 29  2  0
 20 30  1  0
 17 31  1  0
 30 31  2  0
  5 32  1  0
  2 33  1  0
 32 33  2  0
M  END
