SAL-INS-cba98abe-9
     RDKit          3D

 25 28  0  0  0  0  0  0  0  0999 V2000
    8.9710    0.7680   21.6540 O   0  0  0  0  0  0  0  0  0  0  0  0
    7.7790    0.5460   21.8050 C   0  0  0  0  0  0  0  0  0  0  0  0
    6.9020    1.2390   22.8530 C   0  0  0  0  0  0  0  0  0  0  0  0
    7.2060    1.1510   24.1650 C   0  0  0  0  0  0  0  0  0  0  0  0
    6.7270    2.5310   25.1300 S   0  0  0  0  0  0  0  0  0  0  0  0
    7.3390    1.8490   26.5880 C   0  0  0  0  0  0  0  0  0  0  0  0
    7.5090    2.1080   28.1040 C   0  0  0  0  0  0  0  0  0  0  0  0
    8.2110    0.8730   28.6370 C   0  0  0  0  0  0  0  0  0  0  0  0
    8.3860    0.0340   27.4660 N   0  0  0  0  0  0  0  0  0  0  0  0
    7.8750    0.6400   26.3400 C   0  0  0  0  0  0  0  0  0  0  0  0
    7.8410    0.1150   24.8750 C   0  0  0  0  0  0  0  0  0  0  0  0
    8.3140   -1.0910   24.3630 C   0  0  0  0  0  0  0  0  0  0  0  0
    9.7810   -0.9900   23.8750 C   0  0  1  0  0  0  0  0  0  0  0  0
   10.5560   -0.3340   24.7890 C   0  0  0  0  0  0  0  0  0  0  0  0
   12.0030   -0.3820   24.3240 C   0  0  0  0  0  0  0  0  0  0  0  0
   12.3380   -1.2370   23.2740 C   0  0  1  0  0  0  0  0  0  0  0  0
   13.4770   -1.6550   23.1800 O   0  0  0  0  0  0  0  0  0  0  0  0
   11.5480   -2.3690   23.1710 C   0  0  0  0  0  0  0  0  0  0  0  0
   10.1890   -2.2330   23.4050 C   0  0  0  0  0  0  0  0  0  0  0  0
    7.1000   -0.3050   21.0020 N   0  0  0  0  0  0  0  0  0  0  0  0
    6.5520    0.1270   19.8410 C   0  0  0  0  0  0  0  0  0  0  0  0
    7.0120   -0.2750   18.6200 C   0  0  0  0  0  0  0  0  0  0  0  0
    6.1980    0.3990   17.6610 N   0  0  0  0  0  0  0  0  0  0  0  0
    5.2580    1.1940   18.4120 C   0  0  0  0  0  0  0  0  0  0  0  0
    5.4980    1.0080   19.7120 N   0  0  0  0  0  0  0  0  0  0  0  0
  1  2  2  0
  2  3  1  0
  3  4  1  0
  4  5  1  0
  5  6  1  0
  6  7  1  0
  7  8  2  0
  8  9  1  0
  6 10  2  0
  9 10  1  0
  4 11  2  0
 10 11  1  0
 11 12  1  0
 13 12  1  1
 13 14  1  0
 14 15  1  0
 15 16  1  0
 16 17  1  1
 16 18  1  0
 13 19  1  0
 18 19  1  0
  2 20  1  0
 20 21  1  0
 21 22  2  0
 22 23  1  0
 23 24  1  0
 21 25  1  0
 24 25  2  0
M  END
