SAL-INS-cba98abe-5
     RDKit          3D

 32 36  0  0  0  0  0  0  0  0999 V2000
    8.9310    1.3560   21.1540 O   0  0  0  0  0  0  0  0  0  0  0  0
    8.2380    0.5040   21.7330 C   0  0  0  0  0  0  0  0  0  0  0  0
    8.4980    0.1410   23.1740 C   0  0  0  0  0  0  0  0  0  0  0  0
    7.8060   -0.9400   23.7590 C   0  0  0  0  0  0  0  0  0  0  0  0
    8.0860   -2.6250   23.5110 S   0  0  0  0  0  0  0  0  0  0  0  0
    6.8210   -3.0080   24.6100 C   0  0  0  0  0  0  0  0  0  0  0  0
    6.2250   -4.0810   25.1290 C   0  0  0  0  0  0  0  0  0  0  0  0
    5.2490   -3.7200   25.9850 C   0  0  0  0  0  0  0  0  0  0  0  0
    4.4050   -4.5380   26.7300 C   0  0  0  0  0  0  0  0  0  0  0  0
    5.0100   -5.8880   26.3990 C   0  0  0  0  0  0  0  0  0  0  0  0
    4.6160   -6.2030   24.9520 C   0  0  0  0  0  0  0  0  0  0  0  0
    3.3180   -6.6890   24.5260 N   0  0  0  0  0  0  0  0  0  0  0  0
    3.3000   -6.8600   23.1880 C   0  0  0  0  0  0  0  0  0  0  0  0
    4.6890   -6.4600   22.6780 C   0  0  0  0  0  0  0  0  0  0  0  0
    5.5020   -6.0530   23.7880 N   0  0  0  0  0  0  0  0  0  0  0  0
    5.1420   -2.3640   26.0770 N   0  0  0  0  0  0  0  0  0  0  0  0
    6.1450   -1.9070   25.1990 C   0  0  0  0  0  0  0  0  0  0  0  0
    6.6590   -0.6950   24.7500 C   0  0  0  0  0  0  0  0  0  0  0  0
    6.2550    0.6010   25.1030 C   0  0  0  0  0  0  0  0  0  0  0  0
    4.9110    0.8660   24.8230 C   0  0  2  0  0  0  0  0  0  0  0  0
    4.6910    2.1950   24.4790 C   0  0  0  0  0  0  0  0  0  0  0  0
    4.0870    2.9360   25.4870 C   0  0  0  0  0  0  0  0  0  0  0  0
    3.3300    2.4460   26.5460 C   0  0  2  0  0  0  0  0  0  0  0  0
    4.0860    2.5640   27.7530 O   0  0  0  0  0  0  0  0  0  0  0  0
    2.9990    1.0890   26.2840 C   0  0  0  0  0  0  0  0  0  0  0  0
    4.2050    0.5020   25.9700 C   0  0  0  0  0  0  0  0  0  0  0  0
    7.1640   -0.1760   21.1790 N   0  0  0  0  0  0  0  0  0  0  0  0
    6.6210    0.2270   19.9910 C   0  0  0  0  0  0  0  0  0  0  0  0
    6.9210   -0.2360   18.6120 C   0  0  0  0  0  0  0  0  0  0  0  0
    6.1380    0.4510   17.7320 N   0  0  0  0  0  0  0  0  0  0  0  0
    5.3960    1.2760   18.4450 C   0  0  0  0  0  0  0  0  0  0  0  0
    5.6500    1.1800   19.8000 N   0  0  0  0  0  0  0  0  0  0  0  0
  1  2  2  0
  2  3  1  0
  3  4  1  0
  4  5  1  0
  5  6  1  0
  6  7  1  0
  7  8  2  0
  8  9  1  0
  9 10  1  0
 10 11  1  0
 11 12  2  0
 12 13  1  0
 13 14  2  0
 11 15  1  0
 14 15  1  0
  8 16  1  0
  6 17  2  0
 16 17  1  0
  4 18  2  0
 17 18  1  0
 18 19  1  0
 20 19  1  1
 20 21  1  0
 21 22  1  0
 22 23  1  0
 23 24  1  1
 23 25  1  0
 20 26  1  0
 25 26  1  0
  2 27  1  0
 27 28  1  0
 28 29  2  0
 29 30  1  0
 30 31  2  0
 28 32  1  0
 31 32  1  0
M  END
