SAL-INS-68b48d12-1
     RDKit          3D

 33 33  0  0  0  0  0  0  0  0999 V2000
    3.1990    9.4880   22.1700 N   0  0  0  0  0  0  0  0  0  0  0  0
    3.2110    8.0180   22.1970 C   0  0  0  0  0  0  0  0  0  0  0  0
    1.8640    7.5300   21.9850 N   0  0  0  0  0  0  0  0  0  0  0  0
    4.2820    7.1620   22.3940 N   0  0  0  0  0  0  0  0  0  0  0  0
    5.2340    6.7540   21.3610 C   0  0  0  0  0  0  0  0  0  0  0  0
    6.4820    6.4350   21.9220 C   0  0  0  0  0  0  0  0  0  0  0  0
    7.4960    7.3710   21.8200 C   0  0  0  0  0  0  0  0  0  0  0  0
    8.7330    7.0350   22.6100 C   0  0  2  0  0  0  0  0  0  0  0  0
    8.6670    5.6720   23.1410 N   0  0  0  0  0  0  0  0  0  0  0  0
    9.5710    5.1760   24.0500 C   0  0  0  0  0  0  0  0  0  0  0  0
   10.0560    5.9550   25.1470 O   0  0  0  0  0  0  0  0  0  0  0  0
    9.9780    3.8490   23.8310 C   0  0  0  0  0  0  0  0  0  0  0  0
    9.7990    3.3370   22.4710 N   0  0  0  0  0  0  0  0  0  0  0  0
    9.1310    2.1530   22.2370 C   0  0  0  0  0  0  0  0  0  0  0  0
    8.6660    1.7120   20.9590 O   0  0  0  0  0  0  0  0  0  0  0  0
    8.8420    1.1590   23.3470 C   0  0  2  0  0  0  0  0  0  0  0  0
    9.2540   -0.1370   23.0630 C   0  0  0  0  0  0  0  0  0  0  0  0
   10.5880   -0.3890   22.8320 C   0  0  0  0  0  0  0  0  0  0  0  0
   11.5910    0.5530   23.0550 C   0  0  0  0  0  0  0  0  0  0  0  0
   12.7580    0.0280   22.7480 C   0  0  0  0  0  0  0  0  0  0  0  0
   13.3120   -1.0870   22.2950 C   0  0  0  0  0  0  0  0  0  0  0  0
   12.3450   -2.0030   22.0680 C   0  0  0  0  0  0  0  0  0  0  0  0
   10.9870   -1.6730   22.3320 C   0  0  0  0  0  0  0  0  0  0  0  0
    7.3790    1.1090   23.4230 N   0  0  0  0  0  0  0  0  0  0  0  0
    6.7550   -0.1290   23.4810 C   0  0  0  0  0  0  0  0  0  0  0  0
    6.3980   -0.7460   22.4760 O   0  0  0  0  0  0  0  0  0  0  0  0
    6.5470   -0.6220   24.7680 C   0  0  1  0  0  0  0  0  0  0  0  0
    5.1210   -0.3520   25.0930 N   0  0  0  0  0  0  0  0  0  0  0  0
    6.6820   -2.0050   24.8740 C   0  0  0  0  0  0  0  0  0  0  0  0
    5.4890   -2.5970   24.3450 O   0  0  0  0  0  0  0  0  0  0  0  0
    8.9210    7.9870   23.7960 C   0  0  0  0  0  0  0  0  0  0  0  0
    9.8580    7.9830   24.5830 O   0  0  0  0  0  0  0  0  0  0  0  0
    7.9360    8.8970   23.9300 O   0  0  0  0  0  0  0  0  0  0  0  0
  1  2  2  3
  2  3  1  0
  2  4  1  0
  4  5  1  0
  5  6  1  0
  6  7  1  0
  8  7  1  1
  8  9  1  0
  9 10  1  0
 10 11  2  0
 10 12  1  0
 12 13  1  0
 13 14  1  0
 14 15  2  0
 14 16  1  0
 16 17  1  6
 17 18  1  0
 18 19  2  0
 19 20  1  0
 20 21  2  0
 21 22  1  0
 18 23  1  0
 22 23  2  0
 16 24  1  0
 24 25  1  0
 25 26  2  0
 25 27  1  0
 27 28  1  6
 27 29  1  0
 29 30  1  0
  8 31  1  0
 31 32  2  0
 31 33  1  0
M  END
