SAL-INS-cba98abe-7
     RDKit          3D

 24 27  0  0  0  0  0  0  0  0999 V2000
    8.2580    1.3100   20.6120 O   0  0  0  0  0  0  0  0  0  0  0  0
    7.7030    0.4630   21.3050 C   0  0  0  0  0  0  0  0  0  0  0  0
    6.7350   -0.5110   20.6550 C   0  0  0  0  0  0  0  0  0  0  0  0
    6.0550   -1.4900   21.5170 C   0  0  0  0  0  0  0  0  0  0  0  0
    5.4750   -2.7310   21.2330 C   0  0  0  0  0  0  0  0  0  0  0  0
    4.9910   -3.1960   22.4190 N   0  0  0  0  0  0  0  0  0  0  0  0
    5.2680   -2.2640   23.3880 C   0  0  0  0  0  0  0  0  0  0  0  0
    5.9470   -1.1560   22.8680 N   0  0  0  0  0  0  0  0  0  0  0  0
    7.8640    0.2970   22.6560 N   0  0  0  0  0  0  0  0  0  0  0  0
    9.1770    0.4510   23.2360 C   0  0  0  0  0  0  0  0  0  0  0  0
    9.6520    1.4310   23.9440 C   0  0  0  0  0  0  0  0  0  0  0  0
   11.0030    0.9920   24.2210 C   0  0  0  0  0  0  0  0  0  0  0  0
   10.2910    0.0490   23.4170 N   0  0  0  0  0  0  0  0  0  0  0  0
   10.6630   -1.2700   22.8300 C   0  0  0  0  0  0  0  0  0  0  0  0
   12.0670   -1.3380   23.3610 C   0  0  0  0  0  0  0  0  0  0  0  0
   13.3690   -1.5950   23.7460 C   0  0  0  0  0  0  0  0  0  0  0  0
   13.5150   -2.9500   23.7140 C   0  0  0  0  0  0  0  0  0  0  0  0
   13.8350   -3.4420   22.2960 C   0  0  0  0  0  0  0  0  0  0  0  0
   13.2470   -2.8250   21.2260 N   0  0  0  0  0  0  0  0  0  0  0  0
   13.8950   -3.6460   20.2450 C   0  0  0  0  0  0  0  0  0  0  0  0
   14.8890   -4.7350   20.4280 C   0  0  0  0  0  0  0  0  0  0  0  0
   14.9250   -4.6910   21.5960 N   0  0  0  0  0  0  0  0  0  0  0  0
   11.8880   -0.0990   23.9670 C   0  0  0  0  0  0  0  0  0  0  0  0
   10.4160   -0.6910   23.0810 S   0  0  0  0  0  0  0  0  0  0  0  0
  1  2  2  0
  2  3  1  0
  3  4  1  0
  4  5  2  0
  5  6  1  0
  6  7  1  0
  4  8  1  0
  7  8  2  0
  2  9  1  0
  9 10  1  0
 10 11  2  0
 11 12  1  0
 12 13  1  0
 13 14  1  0
 14 15  2  0
 15 16  1  0
 16 17  1  0
 17 18  1  0
 18 19  2  0
 19 20  1  0
 20 21  2  0
 18 22  1  0
 21 22  1  0
 12 23  2  0
 15 23  1  0
 10 24  1  0
 23 24  1  0
M  END
