SAL-INS-68b48d12-2
     RDKit          3D

 36 36  0  0  0  0  0  0  0  0999 V2000
   12.7790    4.5170   22.1060 C   0  0  0  0  0  0  0  0  0  0  0  0
   11.7700    5.1010   23.0700 C   0  0  0  0  0  0  0  0  0  0  0  0
   12.1220    5.5790   24.1460 O   0  0  0  0  0  0  0  0  0  0  0  0
   10.4470    5.0830   22.6700 N   0  0  0  0  0  0  0  0  0  0  0  0
    9.5320    4.0980   23.2600 C   0  0  1  0  0  0  0  0  0  0  0  0
    8.0880    4.4600   22.8890 C   0  0  0  0  0  0  0  0  0  0  0  0
    7.8480    5.8650   23.0170 O   0  0  0  0  0  0  0  0  0  0  0  0
    9.9290    2.7400   22.7060 C   0  0  0  0  0  0  0  0  0  0  0  0
   11.0660    2.3100   22.8610 O   0  0  0  0  0  0  0  0  0  0  0  0
    8.9280    2.0060   21.9700 N   0  0  0  0  0  0  0  0  0  0  0  0
    8.5670    0.7160   22.3700 C   0  0  1  0  0  0  0  0  0  0  0  0
    9.4100   -0.0020   23.2000 C   0  0  0  0  0  0  0  0  0  0  0  0
   10.7090   -0.3380   22.8220 C   0  0  0  0  0  0  0  0  0  0  0  0
   11.8200    0.4850   23.0750 C   0  0  0  0  0  0  0  0  0  0  0  0
   13.1430    0.0950   22.6700 C   0  0  0  0  0  0  0  0  0  0  0  0
   13.2410   -1.1210   22.0250 C   0  0  0  0  0  0  0  0  0  0  0  0
   12.1840   -1.9370   21.7650 C   0  0  0  0  0  0  0  0  0  0  0  0
   10.9130   -1.5600   22.1590 C   0  0  0  0  0  0  0  0  0  0  0  0
    7.1800    0.7780   23.0450 C   0  0  0  0  0  0  0  0  0  0  0  0
    6.8900    0.0500   23.9870 O   0  0  0  0  0  0  0  0  0  0  0  0
    6.3130    1.6750   22.4990 N   0  0  0  0  0  0  0  0  0  0  0  0
    5.0420    1.2400   22.2900 C   0  0  0  0  0  0  0  0  0  0  0  0
    4.2150    1.8260   21.3360 C   0  0  0  0  0  0  0  0  0  0  0  0
    4.2730    1.4500   20.1660 O   0  0  0  0  0  0  0  0  0  0  0  0
    3.3380    2.8080   21.6970 N   0  0  0  0  0  0  0  0  0  0  0  0
    2.1720    3.2020   20.8840 C   0  0  1  0  0  0  0  0  0  0  0  0
    1.0290    2.2130   21.1530 C   0  0  0  0  0  0  0  0  0  0  0  0
   -0.2650    2.5320   20.7000 C   0  0  0  0  0  0  0  0  0  0  0  0
   -1.3650    1.5880   21.2090 C   0  0  0  0  0  0  0  0  0  0  0  0
   -2.5330    1.5250   20.3450 N   0  0  0  0  0  0  0  0  0  0  0  0
   -3.4020    2.5630   20.2080 C   0  0  0  0  0  0  0  0  0  0  0  0
   -4.2170    2.4090   19.1320 N   0  0  0  0  0  0  0  0  0  0  0  0
   -3.4800    3.5390   20.9360 O   0  0  0  0  0  0  0  0  0  0  0  0
    1.8190    4.6480   21.3080 C   0  0  0  0  0  0  0  0  0  0  0  0
    1.6830    5.5290   20.2740 N   0  0  0  0  0  0  0  0  0  0  0  0
    1.6610    5.0080   22.4720 O   0  0  0  0  0  0  0  0  0  0  0  0
  1  2  1  0
  2  3  2  0
  2  4  1  0
  4  5  1  0
  5  6  1  6
  6  7  1  0
  5  8  1  0
  8  9  2  0
  8 10  1  0
 10 11  1  0
 11 12  1  1
 12 13  1  0
 13 14  2  0
 14 15  1  0
 15 16  2  0
 16 17  1  0
 13 18  1  0
 17 18  2  0
 11 19  1  0
 19 20  2  0
 19 21  1  0
 21 22  1  0
 22 23  1  0
 23 24  2  0
 23 25  1  0
 25 26  1  0
 26 27  1  1
 27 28  1  0
 28 29  1  0
 29 30  1  0
 30 31  1  0
 31 32  1  0
 31 33  2  0
 26 34  1  0
 34 35  1  0
 34 36  2  0
M  END
