SAL-INS-68b48d12-11
     RDKit          3D

 35 35  0  0  0  0  0  0  0  0999 V2000
   10.9030   12.9450   25.4080 N   0  0  0  0  0  0  0  0  0  0  0  0
   11.7830   12.2440   26.0170 C   0  0  0  0  0  0  0  0  0  0  0  0
   13.0440   12.7680   26.2260 N   0  0  0  0  0  0  0  0  0  0  0  0
   11.6670   10.9950   26.5190 N   0  0  0  0  0  0  0  0  0  0  0  0
   11.4290    9.8290   25.6860 C   0  0  0  0  0  0  0  0  0  0  0  0
   11.5100    8.5280   26.5060 C   0  0  0  0  0  0  0  0  0  0  0  0
   10.5890    7.5820   26.0310 C   0  0  0  0  0  0  0  0  0  0  0  0
   10.8610    6.2320   26.2820 C   0  0  2  0  0  0  0  0  0  0  0  0
    9.9560    5.3870   25.4800 N   0  0  0  0  0  0  0  0  0  0  0  0
   10.3150    4.8510   24.2480 C   0  0  0  0  0  0  0  0  0  0  0  0
   11.4670    4.8930   23.8160 O   0  0  0  0  0  0  0  0  0  0  0  0
    9.2650    4.2620   23.5170 C   0  0  1  0  0  0  0  0  0  0  0  0
    8.4630    5.1020   22.7170 C   0  0  0  0  0  0  0  0  0  0  0  0
    7.3540    5.7110   23.2530 O   0  0  0  0  0  0  0  0  0  0  0  0
    9.8610    3.2000   22.6890 N   0  0  0  0  0  0  0  0  0  0  0  0
    9.1680    2.0490   22.3400 C   0  0  0  0  0  0  0  0  0  0  0  0
    8.8360    1.8060   21.1740 O   0  0  0  0  0  0  0  0  0  0  0  0
    8.8540    1.1820   23.3980 C   0  0  2  0  0  0  0  0  0  0  0  0
    9.3740   -0.1180   23.4070 C   0  0  0  0  0  0  0  0  0  0  0  0
   10.6620   -0.3780   22.9520 C   0  0  0  0  0  0  0  0  0  0  0  0
   11.7500    0.5100   23.1110 C   0  0  0  0  0  0  0  0  0  0  0  0
   12.8400   -0.0460   22.5640 C   0  0  0  0  0  0  0  0  0  0  0  0
   13.3010   -1.1280   21.9150 C   0  0  0  0  0  0  0  0  0  0  0  0
   12.2550   -1.9730   21.7610 C   0  0  0  0  0  0  0  0  0  0  0  0
   10.8940   -1.6190   22.2820 C   0  0  0  0  0  0  0  0  0  0  0  0
    7.3970    1.0440   23.4190 N   0  0  0  0  0  0  0  0  0  0  0  0
    6.7740   -0.1850   23.4650 C   0  0  0  0  0  0  0  0  0  0  0  0
    6.4800   -0.8090   22.4420 O   0  0  0  0  0  0  0  0  0  0  0  0
    6.5220   -0.6140   24.5650 C   0  0  1  0  0  0  0  0  0  0  0  0
    5.0560   -0.5110   24.7650 N   0  0  0  0  0  0  0  0  0  0  0  0
    6.9170   -1.9180   24.8850 C   0  0  0  0  0  0  0  0  0  0  0  0
    5.8510   -2.8460   24.6440 O   0  0  0  0  0  0  0  0  0  0  0  0
   10.6280    5.8990   27.7650 C   0  0  0  0  0  0  0  0  0  0  0  0
    9.6630    5.3110   28.2340 O   0  0  0  0  0  0  0  0  0  0  0  0
   11.6230    6.3210   28.5770 O   0  0  0  0  0  0  0  0  0  0  0  0
  1  2  2  3
  2  3  1  0
  2  4  1  0
  4  5  1  0
  5  6  1  0
  6  7  1  0
  8  7  1  1
  8  9  1  0
  9 10  1  0
 10 11  2  0
 10 12  1  0
 12 13  1  6
 13 14  1  0
 12 15  1  0
 15 16  1  0
 16 17  2  0
 16 18  1  0
 18 19  1  6
 19 20  1  0
 20 21  2  0
 21 22  1  0
 22 23  2  0
 23 24  1  0
 20 25  1  0
 24 25  2  0
 18 26  1  0
 26 27  1  0
 27 28  2  0
 27 29  1  0
 29 30  1  6
 29 31  1  0
 31 32  1  0
  8 33  1  0
 33 34  2  0
 33 35  1  0
M  END
