SAL-INS-cba98abe-2
     RDKit          3D

 24 27  0  0  0  0  0  0  0  0999 V2000
   13.3310    0.0710   24.5600 O   0  0  0  0  0  0  0  0  0  0  0  0
   12.8900   -0.2910   23.3560 C   0  0  0  0  0  0  0  0  0  0  0  0
   13.6930   -0.0890   22.2850 N   0  0  0  0  0  0  0  0  0  0  0  0
   12.9110   -1.1200   21.7660 C   0  0  0  0  0  0  0  0  0  0  0  0
   13.3930   -1.8200   20.7790 C   0  0  0  0  0  0  0  0  0  0  0  0
   12.3340   -2.6900   20.5430 N   0  0  0  0  0  0  0  0  0  0  0  0
   11.2930   -2.4590   21.4060 C   0  0  0  0  0  0  0  0  0  0  0  0
   11.6350   -1.4900   22.1710 N   0  0  0  0  0  0  0  0  0  0  0  0
   11.7350   -0.9350   23.0310 N   0  0  0  0  0  0  0  0  0  0  0  0
   10.5640   -0.3690   23.2020 C   0  0  0  0  0  0  0  0  0  0  0  0
    9.5010    0.5220   23.3430 C   0  0  0  0  0  0  0  0  0  0  0  0
    9.7770    1.9020   23.2510 C   0  0  0  0  0  0  0  0  0  0  0  0
    9.0710    3.0570   23.3470 N   0  0  0  0  0  0  0  0  0  0  0  0
    9.9430    4.0630   23.1550 C   0  0  0  0  0  0  0  0  0  0  0  0
   11.2910    3.5510   22.9210 C   0  0  0  0  0  0  0  0  0  0  0  0
   12.4610    4.2740   22.6770 C   0  0  0  0  0  0  0  0  0  0  0  0
   12.5810    5.5160   23.2750 C   0  0  0  0  0  0  0  0  0  0  0  0
   11.3980    6.2710   23.4190 C   0  0  0  0  0  0  0  0  0  0  0  0
   11.0030    7.0280   24.5090 N   0  0  0  0  0  0  0  0  0  0  0  0
    9.7300    7.6650   24.2820 C   0  0  0  0  0  0  0  0  0  0  0  0
    9.4050    7.1970   22.8710 C   0  0  0  0  0  0  0  0  0  0  0  0
   10.4100    6.3740   22.4310 N   0  0  0  0  0  0  0  0  0  0  0  0
   11.0680    2.1740   23.0100 C   0  0  0  0  0  0  0  0  0  0  0  0
   11.8630    0.7380   22.9250 S   0  0  0  0  0  0  0  0  0  0  0  0
  1  2  2  0
  2  3  1  0
  3  4  1  0
  4  5  2  0
  5  6  1  0
  6  7  1  0
  4  8  1  0
  7  8  2  0
  2  9  1  0
  9 10  1  0
 10 11  2  0
 11 12  1  0
 12 13  1  0
 13 14  1  0
 14 15  2  0
 15 16  1  0
 16 17  1  0
 17 18  1  0
 18 19  2  0
 19 20  1  0
 20 21  2  0
 18 22  1  0
 21 22  1  0
 12 23  2  0
 15 23  1  0
 10 24  1  0
 23 24  1  0
M  END
