SAL-INS-cba98abe-3
     RDKit          3D

 25 28  0  0  0  0  0  0  0  0999 V2000
    8.3710    1.6760   20.8510 O   0  0  0  0  0  0  0  0  0  0  0  0
    8.2740    0.5640   21.3440 C   0  0  0  0  0  0  0  0  0  0  0  0
    7.2030   -0.2340   21.0320 N   0  0  0  0  0  0  0  0  0  0  0  0
    6.4780    0.1410   19.8980 C   0  0  0  0  0  0  0  0  0  0  0  0
    6.9850   -0.2450   18.5760 C   0  0  0  0  0  0  0  0  0  0  0  0
    6.0930    0.2880   17.7330 N   0  0  0  0  0  0  0  0  0  0  0  0
    5.0780    0.9620   18.4180 C   0  0  0  0  0  0  0  0  0  0  0  0
    5.2920    0.8840   19.7790 N   0  0  0  0  0  0  0  0  0  0  0  0
    9.2360    0.1710   22.1710 N   0  0  0  0  0  0  0  0  0  0  0  0
   10.2770   -0.0670   22.9380 C   0  0  0  0  0  0  0  0  0  0  0  0
   11.6870   -1.1670   22.9070 S   0  0  0  0  0  0  0  0  0  0  0  0
   12.7600   -0.9280   24.3090 C   0  0  0  0  0  0  0  0  0  0  0  0
   13.2840   -1.8570   23.6070 C   0  0  0  0  0  0  0  0  0  0  0  0
   12.3760   -2.0170   22.4640 C   0  0  0  0  0  0  0  0  0  0  0  0
   11.5770   -0.9360   23.0910 N   0  0  0  0  0  0  0  0  0  0  0  0
   11.7580   -0.1260   24.3550 C   0  0  0  0  0  0  0  0  0  0  0  0
   10.5170    0.6210   24.0870 C   0  0  0  0  0  0  0  0  0  0  0  0
    9.4240    1.5900   24.2570 C   0  0  0  0  0  0  0  0  0  0  0  0
    8.4270    1.1210   25.1440 C   0  0  2  0  0  0  0  0  0  0  0  0
    8.5010   -0.2980   25.6820 C   0  0  0  0  0  0  0  0  0  0  0  0
    7.1160   -0.7680   26.1290 C   0  0  0  0  0  0  0  0  0  0  0  0
    6.4160    0.2810   26.9850 C   0  0  2  0  0  0  0  0  0  0  0  0
    5.4390   -0.1240   27.6260 O   0  0  0  0  0  0  0  0  0  0  0  0
    6.1860    1.5050   26.0940 C   0  0  0  0  0  0  0  0  0  0  0  0
    6.9620    1.3810   24.7750 C   0  0  0  0  0  0  0  0  0  0  0  0
  1  2  2  0
  2  3  1  0
  3  4  1  0
  4  5  2  0
  5  6  1  0
  6  7  1  0
  4  8  1  0
  7  8  2  0
  2  9  1  0
  9 10  1  0
 10 11  1  0
 11 12  1  0
 12 13  1  0
 13 14  2  0
 14 15  1  0
 12 16  2  0
 15 16  1  0
 10 17  2  0
 16 17  1  0
 17 18  1  0
 19 18  1  6
 19 20  1  0
 20 21  1  0
 21 22  1  0
 22 23  1  6
 22 24  1  0
 19 25  1  0
 24 25  1  0
M  END
