SAL-INS-cba98abe-8
     RDKit          3D

 25 28  0  0  0  0  0  0  0  0999 V2000
    8.2490    0.4530   20.9970 O   0  0  0  0  0  0  0  0  0  0  0  0
    7.8590   -0.5900   21.5280 C   0  0  0  0  0  0  0  0  0  0  0  0
    6.6070   -1.2250   21.0260 C   0  0  0  0  0  0  0  0  0  0  0  0
    5.9010   -2.1760   21.7920 C   0  0  0  0  0  0  0  0  0  0  0  0
    5.0320   -1.9820   22.8430 C   0  0  0  0  0  0  0  0  0  0  0  0
    4.5350   -3.1220   23.3310 N   0  0  0  0  0  0  0  0  0  0  0  0
    5.0760   -4.1380   22.6040 C   0  0  0  0  0  0  0  0  0  0  0  0
    5.9930   -3.6280   21.5560 N   0  0  0  0  0  0  0  0  0  0  0  0
    8.5240   -1.2350   22.6060 N   0  0  0  0  0  0  0  0  0  0  0  0
    9.6820   -0.7680   23.2130 C   0  0  0  0  0  0  0  0  0  0  0  0
   11.2660   -1.0680   22.6650 S   0  0  0  0  0  0  0  0  0  0  0  0
   12.3850   -0.2110   23.7830 C   0  0  0  0  0  0  0  0  0  0  0  0
   13.0650   -0.8500   22.8180 C   0  0  0  0  0  0  0  0  0  0  0  0
   12.0210   -1.4800   22.0400 C   0  0  0  0  0  0  0  0  0  0  0  0
   11.0250   -0.8650   22.9900 N   0  0  0  0  0  0  0  0  0  0  0  0
   11.2650    0.0560   24.2610 C   0  0  0  0  0  0  0  0  0  0  0  0
    9.8910   -0.0260   24.2680 C   0  0  0  0  0  0  0  0  0  0  0  0
    9.0500    0.5970   25.2310 C   0  0  0  0  0  0  0  0  0  0  0  0
    7.8380   -0.0130   25.6370 C   0  0  2  0  0  0  0  0  0  0  0  0
    7.7010    0.0230   27.0400 C   0  0  0  0  0  0  0  0  0  0  0  0
    6.8390   -0.8890   27.6450 C   0  0  0  0  0  0  0  0  0  0  0  0
    5.8640   -1.3650   26.7680 C   0  0  2  0  0  0  0  0  0  0  0  0
    5.1700   -2.0630   27.5060 O   0  0  0  0  0  0  0  0  0  0  0  0
    6.4250   -2.0210   25.6750 C   0  0  0  0  0  0  0  0  0  0  0  0
    7.5540   -1.2470   25.0320 C   0  0  0  0  0  0  0  0  0  0  0  0
  1  2  2  0
  2  3  1  0
  3  4  1  0
  4  5  2  0
  5  6  1  0
  6  7  1  0
  4  8  1  0
  7  8  2  0
  2  9  1  0
  9 10  1  0
 10 11  1  0
 11 12  1  0
 12 13  1  0
 13 14  2  0
 14 15  1  0
 12 16  2  0
 15 16  1  0
 10 17  2  0
 16 17  1  0
 17 18  1  0
 19 18  1  1
 19 20  1  0
 20 21  1  0
 21 22  1  0
 22 23  1  1
 22 24  1  0
 19 25  1  0
 24 25  1  0
M  END
