SAL-INS-68b48d12-3
     RDKit          3D

 40 41  0  0  0  0  0  0  0  0999 V2000
    8.7440   10.2440   24.9460 N   0  0  0  0  0  0  0  0  0  0  0  0
    7.7670    9.5080   24.1210 C   0  0  0  0  0  0  0  0  0  0  0  0
    6.7650   10.0460   23.3680 N   0  0  0  0  0  0  0  0  0  0  0  0
    7.9410    8.1300   24.1630 N   0  0  0  0  0  0  0  0  0  0  0  0
    8.0960    7.2970   22.9780 C   0  0  0  0  0  0  0  0  0  0  0  0
    7.7050    5.9820   23.2710 C   0  0  0  0  0  0  0  0  0  0  0  0
    8.0800    4.9760   22.3830 C   0  0  0  0  0  0  0  0  0  0  0  0
    7.6240    3.6840   22.6070 C   0  0  2  0  0  0  0  0  0  0  0  0
    8.7380    2.7350   22.7220 N   0  0  0  0  0  0  0  0  0  0  0  0
    8.6320    1.3810   22.1610 C   0  0  0  0  0  0  0  0  0  0  0  0
    8.7040    1.1890   20.9620 O   0  0  0  0  0  0  0  0  0  0  0  0
    8.4210    0.1670   23.1440 C   0  0  2  0  0  0  0  0  0  0  0  0
    8.8820   -1.1400   22.7860 C   0  0  0  0  0  0  0  0  0  0  0  0
   10.2240   -1.5500   22.8890 C   0  0  0  0  0  0  0  0  0  0  0  0
   11.1910   -0.9370   22.0720 C   0  0  0  0  0  0  0  0  0  0  0  0
   12.6470   -1.2130   22.0660 C   0  0  0  0  0  0  0  0  0  0  0  0
   13.1660   -2.1760   22.9340 C   0  0  0  0  0  0  0  0  0  0  0  0
   12.0630   -2.7000   23.6690 C   0  0  0  0  0  0  0  0  0  0  0  0
   10.6080   -2.5320   23.7810 C   0  0  0  0  0  0  0  0  0  0  0  0
    7.0750    0.2070   23.6530 N   0  0  0  0  0  0  0  0  0  0  0  0
    6.0500   -0.2150   22.8640 C   0  0  0  0  0  0  0  0  0  0  0  0
    5.1500   -0.8830   22.3530 O   0  0  0  0  0  0  0  0  0  0  0  0
    6.2000   -1.4960   23.7580 C   0  0  2  0  0  0  0  0  0  0  0  0
    6.1650   -2.2860   22.4080 C   0  0  0  0  0  0  0  0  0  0  0  0
    6.3700   -3.6600   22.4810 C   0  0  0  0  0  0  0  0  0  0  0  0
    7.2160   -4.2320   23.4290 C   0  0  0  0  0  0  0  0  0  0  0  0
    7.3840   -5.6140   23.4500 C   0  0  0  0  0  0  0  0  0  0  0  0
    6.7130   -6.4150   22.5310 C   0  0  0  0  0  0  0  0  0  0  0  0
    5.8710   -5.8260   21.5900 C   0  0  0  0  0  0  0  0  0  0  0  0
    5.7090   -4.4960   21.5700 C   0  0  0  0  0  0  0  0  0  0  0  0
    4.9290   -1.6150   24.4970 N   0  0  0  0  0  0  0  0  0  0  0  0
    4.8080   -2.3200   25.6830 C   0  0  0  0  0  0  0  0  0  0  0  0
    5.6380   -2.2420   26.5880 O   0  0  0  0  0  0  0  0  0  0  0  0
    3.6730   -3.1210   25.7940 C   0  0  1  0  0  0  0  0  0  0  0  0
    3.7210   -3.9790   27.0040 N   0  0  0  0  0  0  0  0  0  0  0  0
    2.5280   -2.2910   25.8210 C   0  0  0  0  0  0  0  0  0  0  0  0
    1.9850   -2.1730   27.1380 O   0  0  0  0  0  0  0  0  0  0  0  0
    6.6710    3.2370   21.4780 C   0  0  0  0  0  0  0  0  0  0  0  0
    6.8140    2.2440   20.7800 O   0  0  0  0  0  0  0  0  0  0  0  0
    5.6000    4.0540   21.2880 O   0  0  0  0  0  0  0  0  0  0  0  0
  1  2  2  3
  2  3  1  0
  2  4  1  0
  4  5  1  0
  5  6  1  0
  6  7  1  0
  8  7  1  6
  8  9  1  0
  9 10  1  0
 10 11  2  0
 10 12  1  0
 12 13  1  6
 13 14  1  0
 14 15  2  0
 15 16  1  0
 16 17  2  0
 17 18  1  0
 14 19  1  0
 18 19  2  0
 12 20  1  0
 20 21  1  0
 21 22  2  0
 21 23  1  0
 23 24  1  6
 24 25  1  0
 25 26  2  0
 26 27  1  0
 27 28  2  0
 28 29  1  0
 25 30  1  0
 29 30  2  0
 23 31  1  0
 31 32  1  0
 32 33  2  0
 32 34  1  0
 34 35  1  1
 34 36  1  0
 36 37  1  0
  8 38  1  0
 38 39  2  0
 38 40  1  0
M  END
