SAL-INS-68b48d12-4
     RDKit          3D

 43 44  0  0  0  0  0  0  0  0999 V2000
   12.6220    6.3490   22.9490 C   0  0  0  0  0  0  0  0  0  0  0  0
   11.7850    6.2480   24.0750 C   0  0  0  0  0  0  0  0  0  0  0  0
   11.7220    7.1210   24.9360 O   0  0  0  0  0  0  0  0  0  0  0  0
   11.0360    5.0920   24.1260 N   0  0  0  0  0  0  0  0  0  0  0  0
   10.7830    4.2560   22.9460 C   0  0  1  0  0  0  0  0  0  0  0  0
   11.9630    3.7480   22.3850 C   0  0  0  0  0  0  0  0  0  0  0  0
   12.2780    4.4820   21.1940 O   0  0  0  0  0  0  0  0  0  0  0  0
    9.7690    3.1380   23.3270 C   0  0  0  0  0  0  0  0  0  0  0  0
    9.2120    3.1650   24.4200 O   0  0  0  0  0  0  0  0  0  0  0  0
    9.5190    2.1310   22.3940 N   0  0  0  0  0  0  0  0  0  0  0  0
    8.5350    1.0390   22.5720 C   0  0  1  0  0  0  0  0  0  0  0  0
    9.1340   -0.2130   22.7950 C   0  0  0  0  0  0  0  0  0  0  0  0
   10.4970   -0.4550   22.6690 C   0  0  0  0  0  0  0  0  0  0  0  0
   11.5480    0.4970   22.9220 C   0  0  0  0  0  0  0  0  0  0  0  0
   12.9430    0.1920   22.7810 C   0  0  0  0  0  0  0  0  0  0  0  0
   13.3030   -1.0910   22.3730 C   0  0  0  0  0  0  0  0  0  0  0  0
   12.2490   -1.8510   22.1730 C   0  0  0  0  0  0  0  0  0  0  0  0
   10.9240   -1.8310   22.2260 C   0  0  0  0  0  0  0  0  0  0  0  0
    7.4000    1.2650   23.5870 C   0  0  0  0  0  0  0  0  0  0  0  0
    6.7960    0.2940   24.0440 O   0  0  0  0  0  0  0  0  0  0  0  0
    7.0840    2.5700   23.9380 N   0  0  0  0  0  0  0  0  0  0  0  0
    5.7380    3.1220   23.7480 C   0  0  1  0  0  0  0  0  0  0  0  0
    4.7030    2.2010   23.9210 C   0  0  0  0  0  0  0  0  0  0  0  0
    3.4340    2.5240   23.4690 C   0  0  0  0  0  0  0  0  0  0  0  0
    3.0350    2.6540   22.0650 C   0  0  0  0  0  0  0  0  0  0  0  0
    1.7180    2.9810   21.7250 C   0  0  0  0  0  0  0  0  0  0  0  0
    0.7640    3.1910   22.7230 C   0  0  0  0  0  0  0  0  0  0  0  0
    1.1290    3.0730   24.0670 C   0  0  0  0  0  0  0  0  0  0  0  0
    2.4330    2.7470   24.4310 C   0  0  0  0  0  0  0  0  0  0  0  0
    5.5810    4.3660   24.6550 C   0  0  0  0  0  0  0  0  0  0  0  0
    5.2950    4.2620   25.8540 O   0  0  0  0  0  0  0  0  0  0  0  0
    5.7610    5.6260   24.1270 N   0  0  0  0  0  0  0  0  0  0  0  0
    5.3060    6.8920   24.7250 C   0  0  1  0  0  0  0  0  0  0  0  0
    5.8420    7.1940   25.9880 C   0  0  0  0  0  0  0  0  0  0  0  0
    5.1320    8.3750   26.6760 C   0  0  0  0  0  0  0  0  0  0  0  0
    5.6430    8.6330   28.0950 C   0  0  0  0  0  0  0  0  0  0  0  0
    4.6660    9.3360   28.9070 N   0  0  0  0  0  0  0  0  0  0  0  0
    5.0360   10.3880   29.6940 C   0  0  0  0  0  0  0  0  0  0  0  0
    4.1020   11.3770   29.6840 N   0  0  0  0  0  0  0  0  0  0  0  0
    6.0640   10.4750   30.3450 O   0  0  0  0  0  0  0  0  0  0  0  0
    5.7270    7.9950   23.7280 C   0  0  0  0  0  0  0  0  0  0  0  0
    5.0790    7.9890   22.5270 N   0  0  0  0  0  0  0  0  0  0  0  0
    6.5880    8.8370   23.9670 O   0  0  0  0  0  0  0  0  0  0  0  0
  1  2  1  0
  2  3  2  0
  2  4  1  0
  4  5  1  0
  5  6  1  1
  6  7  1  0
  5  8  1  0
  8  9  2  0
  8 10  1  0
 10 11  1  0
 11 12  1  1
 12 13  1  0
 13 14  2  0
 14 15  1  0
 15 16  2  0
 16 17  1  0
 13 18  1  0
 17 18  2  0
 11 19  1  0
 19 20  2  0
 19 21  1  0
 21 22  1  0
 22 23  1  1
 23 24  1  0
 24 25  2  0
 25 26  1  0
 26 27  2  0
 27 28  1  0
 24 29  1  0
 28 29  2  0
 22 30  1  0
 30 31  2  0
 30 32  1  0
 32 33  1  0
 33 34  1  1
 34 35  1  0
 35 36  1  0
 36 37  1  0
 37 38  1  0
 38 39  1  0
 38 40  2  0
 33 41  1  0
 41 42  1  0
 41 43  2  0
M  END
