SAM-UNI-7fd13e32-1
     RDKit          3D

 23 24  0  0  0  0  0  0  0  0999 V2000
    9.0310    6.6270   22.5650 C   0  0  0  0  0  0  0  0  0  0  0  0
   10.2070    6.1630   23.3810 C   0  0  0  0  0  0  0  0  0  0  0  0
   10.2410    6.2610   24.6060 O   0  0  0  0  0  0  0  0  0  0  0  0
   11.2120    5.6320   22.6120 N   0  0  0  0  0  0  0  0  0  0  0  0
   12.3340    4.9240   23.2070 C   0  0  0  0  0  0  0  0  0  0  0  0
   12.5090    3.5040   22.7040 C   0  0  0  0  0  0  0  0  0  0  0  0
   11.7020    2.4520   23.1870 C   0  0  0  0  0  0  0  0  0  0  0  0
   10.4470    2.6750   23.7480 C   0  0  0  0  0  0  0  0  0  0  0  0
    9.9040    1.4680   24.1080 N   0  0  0  0  0  0  0  0  0  0  0  0
   10.7820    0.4650   23.7900 C   0  0  0  0  0  0  0  0  0  0  0  0
   11.8980    1.0280   23.2370 C   0  0  0  0  0  0  0  0  0  0  0  0
   12.9240    0.1960   22.8500 C   0  0  0  0  0  0  0  0  0  0  0  0
   12.8240   -1.3020   22.7810 C   0  0  2  0  0  0  0  0  0  0  0  0
   13.2980   -1.7310   21.5780 F   0  0  0  0  0  0  0  0  0  0  0  0
   11.4060   -1.8220   22.9930 C   0  0  0  0  0  0  0  0  0  0  0  0
   10.5740   -1.0040   23.9980 C   0  0  2  0  0  0  0  0  0  0  0  0
    9.0860   -1.3960   23.8840 C   0  0  0  0  0  0  0  0  0  0  0  0
    8.7640   -2.7450   23.2390 C   0  0  0  0  0  0  0  0  0  0  0  0
    7.3510   -3.0840   23.3950 N   0  0  0  0  0  0  0  0  0  0  0  0
    7.0220   -4.0120   24.7100 S   0  0  0  0  0  0  0  0  0  0  0  0
    5.3720   -4.6450   24.6950 C   0  0  0  0  0  0  0  0  0  0  0  0
    7.9010   -5.1520   24.4880 O   0  0  0  0  0  0  0  0  0  0  0  0
    7.1000   -3.1330   25.8650 O   0  0  0  0  0  0  0  0  0  0  0  0
  1  2  1  0
  2  3  2  0
  2  4  1  0
  4  5  1  0
  5  6  1  0
  6  7  1  0
  7  8  2  0
  8  9  1  0
  9 10  1  0
  7 11  1  0
 10 11  2  0
 11 12  1  0
 12 13  1  0
 13 14  1  6
 13 15  1  0
 10 16  1  0
 15 16  1  0
 16 17  1  6
 17 18  1  0
 18 19  1  0
 20 19  1  0
 20 21  1  0
 20 22  2  0
 20 23  2  0
M  END
