SAM-UNK-903735bd-2
     RDKit          3D

 23 24  0  0  0  0  0  0  0  0999 V2000
    9.0170    6.6350   22.5840 C   0  0  0  0  0  0  0  0  0  0  0  0
   10.1750    6.1650   23.3650 C   0  0  0  0  0  0  0  0  0  0  0  0
   10.1930    6.2860   24.5910 O   0  0  0  0  0  0  0  0  0  0  0  0
   11.2090    5.5930   22.6330 N   0  0  0  0  0  0  0  0  0  0  0  0
   12.3330    4.9440   23.3310 C   0  0  0  0  0  0  0  0  0  0  0  0
   12.5580    3.6400   22.8670 C   0  0  0  0  0  0  0  0  0  0  0  0
   11.6840    2.5670   23.1820 C   0  0  0  0  0  0  0  0  0  0  0  0
   10.3520    2.7540   23.8340 C   0  0  0  0  0  0  0  0  0  0  0  0
    9.7690    1.4320   23.9310 N   0  0  0  0  0  0  0  0  0  0  0  0
   10.5980    0.4870   23.4100 C   0  0  0  0  0  0  0  0  0  0  0  0
   10.2770   -0.9800   23.3180 C   0  0  0  0  0  0  0  0  0  0  0  0
    8.9950   -1.5750   23.8060 C   0  0  0  0  0  0  0  0  0  0  0  0
    9.0390   -2.9180   24.0250 C   0  0  0  0  0  0  0  0  0  0  0  0
    7.8470   -3.3100   24.8260 N   0  0  0  0  0  0  0  0  0  0  0  0
    8.0610   -4.3060   26.1820 S   0  0  0  0  0  0  0  0  0  0  0  0
    6.5270   -5.1880   26.2700 C   0  0  0  0  0  0  0  0  0  0  0  0
    9.1380   -5.2150   25.8630 O   0  0  0  0  0  0  0  0  0  0  0  0
    8.1340   -3.4170   27.3170 O   0  0  0  0  0  0  0  0  0  0  0  0
   11.3020   -1.7270   22.7190 C   0  0  0  0  0  0  0  0  0  0  0  0
   12.4940   -1.1160   22.3110 C   0  0  0  0  0  0  0  0  0  0  0  0
   13.4360   -1.8760   21.7690 F   0  0  0  0  0  0  0  0  0  0  0  0
   12.7400    0.2630   22.4420 C   0  0  0  0  0  0  0  0  0  0  0  0
   11.7850    1.1110   22.9690 C   0  0  0  0  0  0  0  0  0  0  0  0
  1  2  1  0
  2  3  2  0
  2  4  1  0
  4  5  1  0
  5  6  1  0
  6  7  1  0
  7  8  2  0
  8  9  1  0
  9 10  1  0
 10 11  1  0
 11 12  1  0
 12 13  1  0
 13 14  1  0
 15 14  1  0
 15 16  1  0
 15 17  2  0
 15 18  2  0
 11 19  2  0
 19 20  1  0
 20 21  1  0
 20 22  2  0
  7 23  1  0
 10 23  2  0
 22 23  1  0
M  END
