SAM-UNK-83e03154-3
     RDKit          3D

 23 24  0  0  0  0  0  0  0  0999 V2000
   12.2270    7.0140   23.5350 C   0  0  0  0  0  0  0  0  0  0  0  0
   13.0570    6.2680   22.5060 C   0  0  0  0  0  0  0  0  0  0  0  0
   13.0320    6.4960   21.3510 O   0  0  0  0  0  0  0  0  0  0  0  0
   13.8940    5.2510   23.0010 N   0  0  0  0  0  0  0  0  0  0  0  0
   13.3250    3.9390   22.9310 C   0  0  0  0  0  0  0  0  0  0  0  0
   11.9340    3.7500   23.3990 C   0  0  0  0  0  0  0  0  0  0  0  0
   11.2570    2.3950   23.4660 C   0  0  0  0  0  0  0  0  0  0  0  0
    9.8550    2.4290   23.9770 C   0  0  0  0  0  0  0  0  0  0  0  0
    9.3790    1.1690   23.9910 N   0  0  0  0  0  0  0  0  0  0  0  0
   10.3090    0.2940   23.5400 C   0  0  0  0  0  0  0  0  0  0  0  0
   10.2410   -1.2530   23.3530 C   0  0  0  0  0  0  0  0  0  0  0  0
    9.2050   -2.1420   23.5910 C   0  0  0  0  0  0  0  0  0  0  0  0
    7.9060   -2.6740   24.2500 C   0  0  0  0  0  0  0  0  0  0  0  0
    7.2400   -1.8490   25.2780 N   0  0  0  0  0  0  0  0  0  0  0  0
    5.9520   -2.5630   26.1500 S   0  0  0  0  0  0  0  0  0  0  0  0
    6.4020   -2.3790   27.7920 C   0  0  0  0  0  0  0  0  0  0  0  0
    6.0040   -3.9720   25.8260 O   0  0  0  0  0  0  0  0  0  0  0  0
    4.7680   -1.7760   25.8900 O   0  0  0  0  0  0  0  0  0  0  0  0
   11.4330   -1.8040   22.8490 C   0  0  0  0  0  0  0  0  0  0  0  0
   12.5970   -1.0980   22.5320 C   0  0  0  0  0  0  0  0  0  0  0  0
   13.6500   -1.7320   22.0580 F   0  0  0  0  0  0  0  0  0  0  0  0
   12.6390    0.2840   22.7120 C   0  0  0  0  0  0  0  0  0  0  0  0
   11.5470    0.9690   23.1870 C   0  0  0  0  0  0  0  0  0  0  0  0
  1  2  1  0
  2  3  2  0
  2  4  1  0
  4  5  1  0
  5  6  2  3
  6  7  1  0
  7  8  2  0
  8  9  1  0
  9 10  1  0
 10 11  1  0
 11 12  1  0
 12 13  2  3
 13 14  1  0
 15 14  1  0
 15 16  1  0
 15 17  2  0
 15 18  2  0
 11 19  2  0
 19 20  1  0
 20 21  1  0
 20 22  2  0
  7 23  1  0
 10 23  2  0
 22 23  1  0
M  END
