SAN-PRS-3c4a6997-9
     RDKit          3D

 16 17  0  0  0  0  0  0  0  0999 V2000
    8.7390    1.0670   24.6850 C   0  0  0  0  0  0  0  0  0  0  0  0
    9.9570    1.3290   24.0950 N   0  0  0  0  0  0  0  0  0  0  0  0
   10.5670    2.5340   23.7730 C   0  0  0  0  0  0  0  0  0  0  0  0
    9.9100    3.5290   24.0480 O   0  0  0  0  0  0  0  0  0  0  0  0
   11.8090    2.4410   23.1920 C   0  0  0  0  0  0  0  0  0  0  0  0
   12.5120    3.6170   22.8350 N   0  0  0  0  0  0  0  0  0  0  0  0
   12.3340    4.8670   23.5400 C   0  0  0  0  0  0  0  0  0  0  0  0
   11.6740    5.7600   22.7370 C   0  0  0  0  0  0  0  0  0  0  0  0
   10.4540    6.2470   23.2080 N   0  0  0  0  0  0  0  0  0  0  0  0
   12.1260    6.1230   21.6680 O   0  0  0  0  0  0  0  0  0  0  0  0
   12.0400    1.0310   23.1100 C   0  0  0  0  0  0  0  0  0  0  0  0
   13.0490    0.1860   22.6480 C   0  0  0  0  0  0  0  0  0  0  0  0
   12.8960   -1.2080   22.7210 C   0  0  0  0  0  0  0  0  0  0  0  0
   11.7310   -1.7430   23.2800 C   0  0  0  0  0  0  0  0  0  0  0  0
   10.7150   -0.9220   23.7630 C   0  0  0  0  0  0  0  0  0  0  0  0
   10.8890    0.4390   23.6650 C   0  0  0  0  0  0  0  0  0  0  0  0
  1  2  1  0
  2  3  1  0
  3  4  1  0
  3  5  2  0
  5  6  1  0
  6  7  1  0
  7  8  1  0
  8  9  1  0
  8 10  2  0
  5 11  1  0
 11 12  1  0
 12 13  2  0
 13 14  1  0
 14 15  2  0
  2 16  1  0
 11 16  2  0
 15 16  1  0
M  END
