SAN-PRS-3c4a6997-11
     RDKit          3D

 16 17  0  0  0  0  0  0  0  0999 V2000
    8.7330    1.1050   24.7350 C   0  0  0  0  0  0  0  0  0  0  0  0
    9.9570    1.3520   24.1390 N   0  0  0  0  0  0  0  0  0  0  0  0
   10.5960    2.5410   23.8440 C   0  0  0  0  0  0  0  0  0  0  0  0
    9.9510    3.5260   24.1660 O   0  0  0  0  0  0  0  0  0  0  0  0
   11.8490    2.4710   23.2380 C   0  0  0  0  0  0  0  0  0  0  0  0
   12.6700    3.5650   22.8600 C   0  0  0  0  0  0  0  0  0  0  0  0
   12.1560    4.8480   22.6720 C   0  0  0  0  0  0  0  0  0  0  0  0
   10.8000    5.0870   22.8340 C   0  0  0  0  0  0  0  0  0  0  0  0
   10.2860    6.3080   23.3080 N   0  0  0  0  0  0  0  0  0  0  0  0
    9.9870    4.2240   22.5580 O   0  0  0  0  0  0  0  0  0  0  0  0
   12.0650    1.0370   23.1130 C   0  0  0  0  0  0  0  0  0  0  0  0
   13.0590    0.1890   22.6250 C   0  0  0  0  0  0  0  0  0  0  0  0
   12.8840   -1.1990   22.6560 C   0  0  0  0  0  0  0  0  0  0  0  0
   11.7530   -1.8270   23.1770 C   0  0  0  0  0  0  0  0  0  0  0  0
   10.7150   -1.0890   23.7060 C   0  0  0  0  0  0  0  0  0  0  0  0
   10.9310    0.3950   23.6440 C   0  0  0  0  0  0  0  0  0  0  0  0
  1  2  1  0
  2  3  1  0
  3  4  1  0
  3  5  2  0
  5  6  1  0
  6  7  2  3
  7  8  1  0
  8  9  1  0
  8 10  2  0
  5 11  1  0
 11 12  1  0
 12 13  2  0
 13 14  1  0
 14 15  2  0
  2 16  1  0
 11 16  2  0
 15 16  1  0
M  END
