SAN-PRS-3c4a6997-6
     RDKit          3D

 16 17  0  0  0  0  0  0  0  0999 V2000
    8.6110    1.2790   24.5740 C   0  0  0  0  0  0  0  0  0  0  0  0
    9.9170    1.3560   24.0220 N   0  0  0  0  0  0  0  0  0  0  0  0
   10.4550    2.6620   23.8300 C   0  0  0  0  0  0  0  0  0  0  0  0
    9.9120    3.7310   24.0820 O   0  0  0  0  0  0  0  0  0  0  0  0
   11.7290    2.4240   23.2930 C   0  0  0  0  0  0  0  0  0  0  0  0
   12.4570    3.3640   23.0180 O   0  0  0  0  0  0  0  0  0  0  0  0
   11.9680    4.4890   23.6910 N   0  0  0  0  0  0  0  0  0  0  0  0
   11.7580    5.6610   22.9230 C   0  0  0  0  0  0  0  0  0  0  0  0
   10.5630    6.2870   23.0790 N   0  0  0  0  0  0  0  0  0  0  0  0
   12.9970    6.1400   21.9550 S   0  0  0  0  0  0  0  0  0  0  0  0
   11.9350    1.0100   23.1620 C   0  0  0  0  0  0  0  0  0  0  0  0
   12.9860    0.2140   22.6960 C   0  0  0  0  0  0  0  0  0  0  0  0
   12.9400   -1.1750   22.6430 C   0  0  0  0  0  0  0  0  0  0  0  0
   11.7340   -1.9320   23.1170 C   0  0  0  0  0  0  0  0  0  0  0  0
   10.6520   -1.0260   23.6180 C   0  0  0  0  0  0  0  0  0  0  0  0
   10.7600    0.3740   23.6300 C   0  0  0  0  0  0  0  0  0  0  0  0
  1  2  1  0
  2  3  1  0
  3  4  1  0
  3  5  2  0
  5  6  1  0
  6  7  1  0
  7  8  1  0
  8  9  1  0
  8 10  2  0
  5 11  1  0
 11 12  1  0
 12 13  2  0
 13 14  1  0
 14 15  2  0
  2 16  1  0
 11 16  2  0
 15 16  1  0
M  END
