SAN-PRS-3c4a6997-1
     RDKit          3D

 16 17  0  0  0  0  0  0  0  0999 V2000
    9.0250    6.5830   22.6330 C   0  0  0  0  0  0  0  0  0  0  0  0
   10.1670    6.2790   23.3700 C   0  0  0  0  0  0  0  0  0  0  0  0
   10.2220    6.3520   24.5970 O   0  0  0  0  0  0  0  0  0  0  0  0
   11.2880    5.8600   22.5070 N   0  0  0  0  0  0  0  0  0  0  0  0
   12.3690    5.1350   23.1960 C   0  0  0  0  0  0  0  0  0  0  0  0
   12.5710    3.7390   22.6990 C   0  0  0  0  0  0  0  0  0  0  0  0
   11.7010    2.6220   23.2280 C   0  0  0  0  0  0  0  0  0  0  0  0
   10.5990    2.9980   23.9240 C   0  0  0  0  0  0  0  0  0  0  0  0
    9.9340    1.8430   24.3040 N   0  0  0  0  0  0  0  0  0  0  0  0
   10.6410    0.7430   23.8310 C   0  0  0  0  0  0  0  0  0  0  0  0
   10.2600   -0.5730   24.0170 C   0  0  0  0  0  0  0  0  0  0  0  0
   11.0750   -1.5270   23.4590 C   0  0  0  0  0  0  0  0  0  0  0  0
   12.3220   -1.0610   22.7040 C   0  0  0  0  0  0  0  0  0  0  0  0
   13.2140   -2.3930   22.0460 Cl  0  0  0  0  0  0  0  0  0  0  0  0
   12.6510    0.2610   22.5780 C   0  0  0  0  0  0  0  0  0  0  0  0
   11.8010    1.2140   23.1320 C   0  0  0  0  0  0  0  0  0  0  0  0
  1  2  1  0
  2  3  2  0
  2  4  1  0
  4  5  1  0
  5  6  1  0
  6  7  1  0
  7  8  2  0
  8  9  1  0
  9 10  1  0
 10 11  1  0
 11 12  2  0
 12 13  1  0
 13 14  1  0
 13 15  2  0
  7 16  1  0
 10 16  2  0
 15 16  1  0
M  END
