SAN-PRS-3c4a6997-4
     RDKit          3D

 16 17  0  0  0  0  0  0  0  0999 V2000
    9.1180    6.5910   22.5290 C   0  0  0  0  0  0  0  0  0  0  0  0
   10.3590    6.1140   23.3350 C   0  0  0  0  0  0  0  0  0  0  0  0
   10.1520    6.1940   24.7630 O   0  0  0  0  0  0  0  0  0  0  0  0
   11.4280    5.7020   22.5970 O   0  0  0  0  0  0  0  0  0  0  0  0
   12.3960    4.9150   23.3090 C   0  0  0  0  0  0  0  0  0  0  0  0
   12.5490    3.6510   22.7230 C   0  0  0  0  0  0  0  0  0  0  0  0
   11.7760    2.5840   23.1800 C   0  0  0  0  0  0  0  0  0  0  0  0
   10.4860    2.8770   23.9020 C   0  0  0  0  0  0  0  0  0  0  0  0
    9.9420    1.6620   24.2190 N   0  0  0  0  0  0  0  0  0  0  0  0
   10.7510    0.6240   23.7710 C   0  0  0  0  0  0  0  0  0  0  0  0
   10.5780   -0.7650   23.8690 C   0  0  0  0  0  0  0  0  0  0  0  0
   11.5310   -1.6260   23.3270 C   0  0  0  0  0  0  0  0  0  0  0  0
   12.6440   -1.1080   22.7070 C   0  0  0  0  0  0  0  0  0  0  0  0
   13.5390   -1.9400   22.1880 F   0  0  0  0  0  0  0  0  0  0  0  0
   12.8460    0.2570   22.6110 C   0  0  0  0  0  0  0  0  0  0  0  0
   11.9040    1.1620   23.1270 C   0  0  0  0  0  0  0  0  0  0  0  0
  1  2  1  0
  2  3  2  0
  2  4  1  0
  4  5  1  0
  5  6  1  0
  6  7  1  0
  7  8  2  0
  8  9  1  0
  9 10  1  0
 10 11  1  0
 11 12  2  0
 12 13  1  0
 13 14  1  0
 13 15  2  0
  7 16  1  0
 10 16  2  0
 15 16  1  0
M  END
