SAN-PRI-c9355cc8-1
     RDKit          3D

 15 17  0  0  0  0  0  0  0  0999 V2000
    2.2230  -24.9400    1.1710 C   0  0  0  0  0  0  0  0  0  0  0  0
    3.6060  -25.4750    1.0100 C   0  0  0  0  0  0  0  0  0  0  0  0
    4.6210  -24.6380    0.3230 C   0  0  0  0  0  0  0  0  0  0  0  0
    4.2020  -23.2840   -0.1690 C   0  0  0  0  0  0  0  0  0  0  0  0
    5.1210  -22.4770   -0.8070 N   0  0  0  0  0  0  0  0  0  0  0  0
    6.4220  -23.0050   -1.1670 C   0  0  0  0  0  0  0  0  0  0  0  0
    7.2800  -21.7700   -1.3880 C   0  0  0  0  0  0  0  0  0  0  0  0
    6.2510  -20.6660   -1.6260 C   0  0  1  0  0  0  0  0  0  0  0  0
    6.8290  -19.3270   -1.3600 C   0  0  0  0  0  0  0  0  0  0  0  0
    7.4800  -18.9710   -2.5380 C   0  0  0  0  0  0  0  0  0  0  0  0
    6.7150  -19.5840   -3.5910 O   0  0  0  0  0  0  0  0  0  0  0  0
    5.9490  -20.6790   -3.0230 C   0  0  0  0  0  0  0  0  0  0  0  0
    5.0550  -21.1220   -0.7830 C   0  0  0  0  0  0  0  0  0  0  0  0
    2.8910  -22.7450   -0.0330 N   0  0  0  0  0  0  0  0  0  0  0  0
    1.9050  -23.5940    0.6490 C   0  0  0  0  0  0  0  0  0  0  0  0
  1  2  2  0
  2  3  1  0
  3  4  2  0
  4  5  1  0
  5  6  1  0
  6  7  1  0
  8  7  1  6
  8  9  1  0
  9 10  1  0
 10 11  1  0
  8 12  1  0
 11 12  1  0
  5 13  1  0
  8 13  1  0
  4 14  1  0
  1 15  1  0
 14 15  2  0
M  END
