SAN-PRS-c955de36-1
     RDKit          3D

 13 13  0  0  0  0  0  0  0  0999 V2000
    7.6370   -0.7970   20.7590 C   0  0  0  0  0  0  0  0  0  0  0  0
    7.5790   -0.9460   21.9720 O   0  0  0  0  0  0  0  0  0  0  0  0
    8.6530   -1.6320   22.5180 C   0  0  0  0  0  0  0  0  0  0  0  0
    8.5810   -2.9320   22.9180 O   0  0  0  0  0  0  0  0  0  0  0  0
    9.7890   -0.8660   22.6160 C   0  0  0  0  0  0  0  0  0  0  0  0
    9.6800    0.4720   22.9370 C   0  0  0  0  0  0  0  0  0  0  0  0
   10.7080    1.3260   23.0350 C   0  0  0  0  0  0  0  0  0  0  0  0
   12.0290    0.7040   22.7760 C   0  0  0  0  0  0  0  0  0  0  0  0
   13.1160    1.6560   22.8580 C   0  0  0  0  0  0  0  0  0  0  0  0
   13.0220    3.0710   22.9710 N   0  0  0  0  0  0  0  0  0  0  0  0
   14.2800    0.8890   22.6980 O   0  0  0  0  0  0  0  0  0  0  0  0
   12.2410   -0.6280   22.4650 C   0  0  0  0  0  0  0  0  0  0  0  0
   11.1810   -1.5120   22.3530 C   0  0  0  0  0  0  0  0  0  0  0  0
  1  2  1  0
  2  3  1  0
  3  4  2  0
  3  5  1  0
  5  6  2  0
  6  7  1  0
  7  8  2  0
  8  9  1  0
  9 10  1  0
  9 11  2  0
  8 12  1  0
  5 13  1  0
 12 13  2  0
M  END
