SAN-PRS-3c4a6997-12
     RDKit          3D

 16 17  0  0  0  0  0  0  0  0999 V2000
    8.7250    1.0340   24.8250 C   0  0  0  0  0  0  0  0  0  0  0  0
    9.9230    1.3180   24.1860 N   0  0  0  0  0  0  0  0  0  0  0  0
   10.4790    2.5600   23.8680 C   0  0  0  0  0  0  0  0  0  0  0  0
    9.8620    3.8280   24.1660 O   0  0  0  0  0  0  0  0  0  0  0  0
   11.7160    2.4520   23.2140 C   0  0  0  0  0  0  0  0  0  0  0  0
   12.4510    3.5640   22.7870 C   0  0  0  0  0  0  0  0  0  0  0  0
   12.2240    4.7000   23.5400 C   0  0  0  0  0  0  0  0  0  0  0  0
   11.6230    5.8100   22.7340 C   0  0  0  0  0  0  0  0  0  0  0  0
   10.4100    6.2860   23.1980 N   0  0  0  0  0  0  0  0  0  0  0  0
   12.4150    6.2050   21.6100 O   0  0  0  0  0  0  0  0  0  0  0  0
   11.9920    1.0380   23.0980 C   0  0  0  0  0  0  0  0  0  0  0  0
   13.0010    0.2160   22.5820 C   0  0  0  0  0  0  0  0  0  0  0  0
   12.8680   -1.1690   22.6530 C   0  0  0  0  0  0  0  0  0  0  0  0
   11.7720   -1.7870   23.2340 C   0  0  0  0  0  0  0  0  0  0  0  0
   10.7490   -1.0160   23.7750 C   0  0  0  0  0  0  0  0  0  0  0  0
   10.8930    0.3760   23.6850 C   0  0  0  0  0  0  0  0  0  0  0  0
  1  2  1  0
  2  3  1  0
  3  4  1  0
  3  5  2  0
  5  6  1  0
  6  7  1  0
  7  8  1  0
  8  9  1  0
  8 10  2  0
  5 11  1  0
 11 12  1  0
 12 13  2  0
 13 14  1  0
 14 15  2  0
  2 16  1  0
 11 16  2  0
 15 16  1  0
M  END
