SAN-PRS-52b81272-3
     RDKit          3D

 16 17  0  0  0  0  0  0  0  0999 V2000
    9.2340    0.9010   21.6100 O   0  0  0  0  0  0  0  0  0  0  0  0
    8.5990   -0.1360   21.7870 C   0  0  0  0  0  0  0  0  0  0  0  0
    7.1810   -0.2630   21.7130 N   0  0  0  0  0  0  0  0  0  0  0  0
    6.6670    0.1670   20.4230 C   0  0  0  0  0  0  0  0  0  0  0  0
    5.5880    1.0420   20.5650 C   0  0  0  0  0  0  0  0  0  0  0  0
    4.9610    1.5570   19.4440 C   0  0  0  0  0  0  0  0  0  0  0  0
    5.4260    1.1910   18.0710 C   0  0  0  0  0  0  0  0  0  0  0  0
    6.5670    0.2660   17.9310 N   0  0  0  0  0  0  0  0  0  0  0  0
    7.1600   -0.2310   19.1830 C   0  0  0  0  0  0  0  0  0  0  0  0
    9.1080   -1.3530   22.0980 O   0  0  0  0  0  0  0  0  0  0  0  0
   10.3690   -1.3940   22.7020 C   0  0  0  0  0  0  0  0  0  0  0  0
   10.5800   -0.7660   24.0760 C   0  0  0  0  0  0  0  0  0  0  0  0
   11.9920   -0.8950   24.6080 C   0  0  0  0  0  0  0  0  0  0  0  0
   12.9630   -1.5510   23.8420 C   0  0  0  0  0  0  0  0  0  0  0  0
   12.6700   -2.0920   22.5880 C   0  0  0  0  0  0  0  0  0  0  0  0
   11.4020   -2.0210   22.0180 C   0  0  0  0  0  0  0  0  0  0  0  0
  1  2  2  0
  2  3  1  0
  3  4  1  0
  4  5  2  0
  5  6  1  0
  6  7  2  0
  7  8  1  0
  4  9  1  0
  8  9  2  0
  2 10  1  0
 10 11  1  0
 11 12  2  0
 12 13  1  0
 13 14  2  0
 14 15  1  0
 11 16  1  0
 15 16  2  0
M  END
