SAN-PRS-3c4a6997-5
     RDKit          3D

 17 18  0  0  0  0  0  0  0  0999 V2000
    9.0730    6.6290   22.6260 C   0  0  0  0  0  0  0  0  0  0  0  0
   10.2230    6.3450   23.3550 C   0  0  0  0  0  0  0  0  0  0  0  0
   10.3060    6.5070   24.5700 O   0  0  0  0  0  0  0  0  0  0  0  0
   11.3160    5.8340   22.5050 N   0  0  0  0  0  0  0  0  0  0  0  0
   12.3050    5.0260   23.2360 C   0  0  0  0  0  0  0  0  0  0  0  0
   12.5150    3.6560   22.6740 C   0  0  0  0  0  0  0  0  0  0  0  0
   11.6930    2.4890   23.1920 C   0  0  0  0  0  0  0  0  0  0  0  0
   10.5300    2.8220   23.8380 C   0  0  0  0  0  0  0  0  0  0  0  0
    9.9130    3.9500   24.1440 O   0  0  0  0  0  0  0  0  0  0  0  0
    9.9740    1.5950   24.1920 N   0  0  0  0  0  0  0  0  0  0  0  0
   10.7800    0.5480   23.7640 C   0  0  0  0  0  0  0  0  0  0  0  0
   10.5010   -0.7900   23.9460 C   0  0  0  0  0  0  0  0  0  0  0  0
   11.4100   -1.6880   23.4390 C   0  0  0  0  0  0  0  0  0  0  0  0
   12.6740   -1.1760   22.7170 C   0  0  0  0  0  0  0  0  0  0  0  0
   13.5510   -2.0280   22.2170 F   0  0  0  0  0  0  0  0  0  0  0  0
   12.8670    0.1900   22.6030 C   0  0  0  0  0  0  0  0  0  0  0  0
   11.9180    1.0880   23.1110 C   0  0  0  0  0  0  0  0  0  0  0  0
  1  2  1  0
  2  3  2  0
  2  4  1  0
  4  5  1  0
  5  6  1  0
  6  7  1  0
  7  8  2  0
  8  9  1  0
  8 10  1  0
 10 11  1  0
 11 12  1  0
 12 13  2  0
 13 14  1  0
 14 15  1  0
 14 16  2  0
  7 17  1  0
 11 17  2  0
 16 17  1  0
M  END
