SAN-PRS-3c4a6997-8
     RDKit          3D

 16 17  0  0  0  0  0  0  0  0999 V2000
    8.3580    1.4020   23.3960 C   0  0  0  0  0  0  0  0  0  0  0  0
    9.7260    1.4810   23.2190 N   0  0  0  0  0  0  0  0  0  0  0  0
   10.3200    2.8050   23.2980 C   0  0  0  0  0  0  0  0  0  0  0  0
    9.8350    3.9110   23.5010 O   0  0  0  0  0  0  0  0  0  0  0  0
   11.7970    2.5260   23.0600 C   0  0  0  0  0  0  0  0  0  0  0  0
   12.7210    3.4910   23.0470 N   0  0  0  0  0  0  0  0  0  0  0  0
   12.2980    4.6330   23.7710 O   0  0  0  0  0  0  0  0  0  0  0  0
   11.8790    5.6370   22.9900 C   0  0  0  0  0  0  0  0  0  0  0  0
   10.6340    6.1530   23.1700 N   0  0  0  0  0  0  0  0  0  0  0  0
   13.0050    6.1070   21.9050 S   0  0  0  0  0  0  0  0  0  0  0  0
   11.8950    1.1620   22.8820 C   0  0  0  0  0  0  0  0  0  0  0  0
   13.0120    0.3620   22.6350 C   0  0  0  0  0  0  0  0  0  0  0  0
   12.9880   -1.0230   22.4510 C   0  0  0  0  0  0  0  0  0  0  0  0
   11.7540   -1.6440   22.5290 C   0  0  0  0  0  0  0  0  0  0  0  0
   10.5180   -0.8510   22.8020 C   0  0  0  0  0  0  0  0  0  0  0  0
   10.6330    0.5170   22.9690 C   0  0  0  0  0  0  0  0  0  0  0  0
  1  2  1  0
  2  3  1  0
  3  4  1  0
  3  5  2  0
  5  6  1  0
  6  7  1  0
  7  8  1  0
  8  9  1  0
  8 10  2  0
  5 11  1  0
 11 12  1  0
 12 13  2  0
 13 14  1  0
 14 15  2  0
  2 16  1  0
 11 16  2  0
 15 16  1  0
M  END
