SCO-VAN-260d9628-8
     RDKit          3D

 22 24  0  0  0  0  0  0  0  0999 V2000
    5.2700   -2.6060   21.9150 C   0  0  0  0  0  0  0  0  0  0  0  0
    5.8160   -2.7460   20.4960 C   0  0  0  0  0  0  0  0  0  0  0  0
    5.4520   -3.7150   19.7920 O   0  0  0  0  0  0  0  0  0  0  0  0
    6.7190   -1.7440   20.0980 N   0  0  0  0  0  0  0  0  0  0  0  0
    6.7480   -1.1150   18.7800 C   0  0  0  0  0  0  0  0  0  0  0  0
    5.8810   -0.0140   18.6620 C   0  0  0  0  0  0  0  0  0  0  0  0
    5.5100    0.7080   17.5800 C   0  0  0  0  0  0  0  0  0  0  0  0
    4.6640    1.6720   17.8230 N   0  0  0  0  0  0  0  0  0  0  0  0
    4.5660    1.4630   19.1600 C   0  0  0  0  0  0  0  0  0  0  0  0
    4.0250    1.8220   20.3470 C   0  0  0  0  0  0  0  0  0  0  0  0
    3.1010    2.8800   20.2960 C   0  0  0  0  0  0  0  0  0  0  0  0
    1.8010    3.4000   20.2370 C   0  0  0  0  0  0  0  0  0  0  0  0
    1.5310    4.6430   20.8170 N   0  0  0  0  0  0  0  0  0  0  0  0
    0.2440    4.8100   20.5780 N   0  0  0  0  0  0  0  0  0  0  0  0
   -0.0660    3.5650   19.8520 C   0  0  0  0  0  0  0  0  0  0  0  0
   -1.3740    3.3960   19.4320 C   0  0  0  0  0  0  0  0  0  0  0  0
    0.8690    2.7830   19.6840 O   0  0  0  0  0  0  0  0  0  0  0  0
    4.4730    1.0230   21.6470 C   0  0  0  0  0  0  0  0  0  0  0  0
    3.6490    2.0040   21.5300 C   0  0  0  0  0  0  0  0  0  0  0  0
    2.8410    2.7930   22.2650 F   0  0  0  0  0  0  0  0  0  0  0  0
    4.1110    1.7440   20.2490 C   0  0  0  0  0  0  0  0  0  0  0  0
    5.1210    0.6210   19.8580 C   0  0  0  0  0  0  0  0  0  0  0  0
  1  2  1  0
  2  3  2  0
  2  4  1  0
  4  5  1  0
  5  6  1  0
  6  7  2  0
  7  8  1  0
  8  9  1  0
  9 10  1  0
 10 11  1  0
 11 12  1  0
 12 13  2  0
 13 14  1  0
 14 15  2  0
 15 16  1  0
 12 17  1  0
 15 17  1  0
 10 18  2  0
 18 19  1  0
 19 20  1  0
 19 21  2  0
  6 22  1  0
  9 22  2  0
 21 22  1  0
M  END
