SCO-VAN-260d9628-2
     RDKit          3D

 20 21  0  0  0  0  0  0  0  0999 V2000
    7.6040   -0.6490   20.4180 C   0  0  0  0  0  0  0  0  0  0  0  0
    6.1010   -1.1710   21.2200 S   0  0  0  0  0  0  0  0  0  0  0  0
    5.1370   -1.4960   20.2020 O   0  0  0  0  0  0  0  0  0  0  0  0
    5.8130   -0.2760   22.3150 O   0  0  0  0  0  0  0  0  0  0  0  0
    6.5840   -2.6580   21.8510 N   0  0  0  0  0  0  0  0  0  0  0  0
    6.3510   -2.9520   23.2750 C   0  0  0  0  0  0  0  0  0  0  0  0
    7.5780   -3.1230   23.9460 C   0  0  2  0  0  0  0  0  0  0  0  0
    7.4250   -3.6510   25.2680 C   0  0  0  0  0  0  0  0  0  0  0  0
    7.9790   -2.7870   26.0270 C   0  0  0  0  0  0  0  0  0  0  0  0
    9.0370   -2.4880   25.2740 C   0  0  1  0  0  0  0  0  0  0  0  0
    9.7120   -3.5170   24.7210 C   0  0  0  0  0  0  0  0  0  0  0  0
   10.1560   -3.2620   23.3870 N   0  0  0  0  0  0  0  0  0  0  0  0
    9.9100   -4.5980   25.2730 O   0  0  0  0  0  0  0  0  0  0  0  0
    8.4710   -1.9280   23.9860 C   0  0  1  0  0  0  0  0  0  0  0  0
    9.8900   -1.5030   23.3340 C   0  0  0  0  0  0  0  0  0  0  0  0
   10.3010   -0.0300   23.5170 C   0  0  0  0  0  0  0  0  0  0  0  0
   11.6630    0.4800   23.0300 C   0  0  0  0  0  0  0  0  0  0  0  0
   12.5690   -0.5230   22.3570 C   0  0  0  0  0  0  0  0  0  0  0  0
   12.0750   -1.8300   22.2100 C   0  0  0  0  0  0  0  0  0  0  0  0
   10.8240   -2.2970   22.6610 C   0  0  0  0  0  0  0  0  0  0  0  0
  1  2  1  0
  2  3  2  0
  2  4  2  0
  2  5  1  0
  5  6  1  0
  7  6  1  1
  7  8  1  0
  8  9  1  0
  9 10  1  0
 10 11  1  6
 11 12  1  0
 11 13  2  0
  7 14  1  0
 10 14  1  0
 14 15  1  6
 15 16  2  0
 16 17  1  0
 17 18  2  0
 18 19  1  0
 15 20  1  0
 19 20  2  0
M  END
