SCO-VAN-260d9628-1
     RDKit          3D

 17 18  0  0  0  0  0  0  0  0999 V2000
    5.7570   -5.9770   20.9740 C   0  0  0  0  0  0  0  0  0  0  0  0
    5.6640   -5.5330   22.2740 C   0  0  0  0  0  0  0  0  0  0  0  0
    5.1130   -6.3640   23.2570 C   0  0  0  0  0  0  0  0  0  0  0  0
    5.0040   -5.9760   24.5960 C   0  0  0  0  0  0  0  0  0  0  0  0
    5.4030   -4.8030   25.0840 N   0  0  0  0  0  0  0  0  0  0  0  0
    5.9900   -3.8780   24.1110 C   0  0  0  0  0  0  0  0  0  0  0  0
    6.1110   -4.2780   22.6470 C   0  0  0  0  0  0  0  0  0  0  0  0
    6.7200   -3.2160   21.8070 N   0  0  0  0  0  0  0  0  0  0  0  0
    6.1570   -2.9720   20.5360 C   0  0  0  0  0  0  0  0  0  0  0  0
    5.4070   -3.7370   19.9050 O   0  0  0  0  0  0  0  0  0  0  0  0
    6.5870   -1.6890   19.9510 N   0  0  0  0  0  0  0  0  0  0  0  0
    7.3340   -0.8290   20.8470 C   0  0  0  0  0  0  0  0  0  0  0  0
    6.8720    0.4990   20.6100 C   0  0  0  0  0  0  0  0  0  0  0  0
    5.7760    0.5710   19.6000 N   0  0  0  0  0  0  0  0  0  0  0  0
    5.2170    1.8970   19.3980 C   0  0  0  0  0  0  0  0  0  0  0  0
    6.0740   -0.1360   18.3730 C   0  0  0  0  0  0  0  0  0  0  0  0
    6.6650   -1.3540   18.6190 C   0  0  0  0  0  0  0  0  0  0  0  0
  1  2  1  0
  2  3  2  0
  3  4  1  0
  4  5  2  0
  5  6  1  0
  2  7  1  0
  6  7  2  0
  7  8  1  0
  8  9  1  0
  9 10  2  0
  9 11  1  0
 11 12  1  0
 12 13  1  0
 13 14  1  0
 14 15  1  0
 14 16  1  0
 11 17  1  0
 16 17  1  0
M  END
