SCO-VAN-260d9628-7
     RDKit          3D

 22 24  0  0  0  0  0  0  0  0999 V2000
    5.2290   -2.2860   21.7390 C   0  0  0  0  0  0  0  0  0  0  0  0
    5.7770   -2.6280   20.3820 C   0  0  0  0  0  0  0  0  0  0  0  0
    5.4130   -3.6480   19.7690 O   0  0  0  0  0  0  0  0  0  0  0  0
    6.7020   -1.6990   19.9460 N   0  0  0  0  0  0  0  0  0  0  0  0
    6.6440   -1.1250   18.6170 C   0  0  0  0  0  0  0  0  0  0  0  0
    5.8030    0.1650   18.6330 C   0  0  0  0  0  0  0  0  0  0  0  0
    5.8110    1.1120   17.4250 C   0  0  0  0  0  0  0  0  0  0  0  0
    4.9470    2.1070   17.8410 N   0  0  0  0  0  0  0  0  0  0  0  0
    4.5800    1.7240   19.0560 C   0  0  0  0  0  0  0  0  0  0  0  0
    3.7930    2.0650   20.1800 C   0  0  0  0  0  0  0  0  0  0  0  0
    3.0230    3.2610   20.1540 C   0  0  0  0  0  0  0  0  0  0  0  0
    1.6420    3.0980   19.9650 C   0  0  0  0  0  0  0  0  0  0  0  0
    0.8910    2.0910   20.4610 N   0  0  0  0  0  0  0  0  0  0  0  0
   -0.4420    2.2150   20.1190 N   0  0  0  0  0  0  0  0  0  0  0  0
   -0.6730    3.2830   19.3900 C   0  0  0  0  0  0  0  0  0  0  0  0
   -1.9140    3.6570   18.9130 C   0  0  0  0  0  0  0  0  0  0  0  0
    0.7200    4.2260   19.0490 S   0  0  0  0  0  0  0  0  0  0  0  0
    3.8520    1.0550   21.4190 C   0  0  0  0  0  0  0  0  0  0  0  0
    3.2240    2.1450   21.2590 C   0  0  0  0  0  0  0  0  0  0  0  0
    2.3800    2.9410   21.9490 F   0  0  0  0  0  0  0  0  0  0  0  0
    3.8890    2.0320   20.0400 C   0  0  0  0  0  0  0  0  0  0  0  0
    4.9180    0.7370   19.6560 C   0  0  0  0  0  0  0  0  0  0  0  0
  1  2  1  0
  2  3  2  0
  2  4  1  0
  4  5  1  0
  5  6  1  0
  6  7  2  0
  7  8  1  0
  8  9  1  0
  9 10  1  0
 10 11  1  0
 11 12  1  0
 12 13  2  0
 13 14  1  0
 14 15  2  0
 15 16  1  0
 12 17  1  0
 15 17  1  0
 10 18  2  0
 18 19  1  0
 19 20  1  0
 19 21  2  0
  6 22  1  0
  9 22  2  0
 21 22  1  0
M  END
