SEA-TRI-f62e8c25-1
     RDKit          3D

 23 25  0  0  0  0  0  0  0  0999 V2000
    8.8000   -5.2540   25.8810 C   0  0  0  0  0  0  0  0  0  0  0  0
    8.6310   -3.8680   25.2850 C   0  0  0  0  0  0  0  0  0  0  0  0
    8.1080   -2.8880   26.1130 N   0  0  0  0  0  0  0  0  0  0  0  0
    8.0950   -1.7500   25.3690 N   0  0  0  0  0  0  0  0  0  0  0  0
    8.5680   -1.8480   24.0850 C   0  0  0  0  0  0  0  0  0  0  0  0
    8.7240   -0.7180   23.1370 N   0  0  0  0  0  0  0  0  0  0  0  0
    8.1150   -0.2190   21.8570 C   0  0  0  0  0  0  0  0  0  0  0  0
    8.5960    0.7740   21.3040 O   0  0  0  0  0  0  0  0  0  0  0  0
    6.9960   -0.8230   21.2360 N   0  0  0  0  0  0  0  0  0  0  0  0
    6.3490   -0.2050   20.2120 C   0  0  0  0  0  0  0  0  0  0  0  0
    5.1580    0.4140   20.5330 C   0  0  0  0  0  0  0  0  0  0  0  0
    4.7620    0.9630   19.3040 N   0  0  0  0  0  0  0  0  0  0  0  0
    5.0930    1.1130   17.9590 C   0  0  0  0  0  0  0  0  0  0  0  0
    6.2410    0.4380   17.9230 N   0  0  0  0  0  0  0  0  0  0  0  0
    6.8230   -0.1640   18.9310 C   0  0  0  0  0  0  0  0  0  0  0  0
   10.0350   -0.5460   22.9640 C   0  0  0  0  0  0  0  0  0  0  0  0
   10.8270    0.5320   23.4490 C   0  0  0  0  0  0  0  0  0  0  0  0
   12.0760    1.1270   23.5410 C   0  0  0  0  0  0  0  0  0  0  0  0
   12.9180    0.2690   22.8390 C   0  0  0  0  0  0  0  0  0  0  0  0
   12.3270   -1.0310   22.1730 C   0  0  0  0  0  0  0  0  0  0  0  0
   13.2590   -2.1150   21.2860 Cl  0  0  0  0  0  0  0  0  0  0  0  0
   10.8410   -1.4130   22.2620 C   0  0  0  0  0  0  0  0  0  0  0  0
    9.0490   -3.4340   23.6780 S   0  0  0  0  0  0  0  0  0  0  0  0
  1  2  1  0
  2  3  2  0
  3  4  1  0
  4  5  2  0
  5  6  1  0
  6  7  1  0
  7  8  2  0
  7  9  1  0
  9 10  1  0
 10 11  2  0
 11 12  1  0
 12 13  2  0
 13 14  1  0
 10 15  1  0
 14 15  2  0
  6 16  1  0
 16 17  2  0
 17 18  1  0
 18 19  2  0
 19 20  1  0
 20 21  1  0
 16 22  1  0
 20 22  2  0
  2 23  1  0
  5 23  1  0
M  END
