SEA-TRI-5a552082-1
     RDKit          3D

 23 24  0  0  0  0  0  0  0  0999 V2000
    4.5710   -3.8640   23.0490 C   0  0  0  0  0  0  0  0  0  0  0  0
    5.2850   -2.7920   22.6530 C   0  0  0  0  0  0  0  0  0  0  0  0
    7.0120   -2.8720   22.4630 S   0  0  0  0  0  0  0  0  0  0  0  0
    7.6340   -2.2520   23.6100 O   0  0  0  0  0  0  0  0  0  0  0  0
    7.3200   -4.2410   22.0700 O   0  0  0  0  0  0  0  0  0  0  0  0
    7.2880   -1.7860   21.0360 C   0  0  0  0  0  0  0  0  0  0  0  0
    7.0990   -0.4460   21.1320 N   0  0  0  0  0  0  0  0  0  0  0  0
    8.1900    0.2240   21.5220 C   0  0  0  0  0  0  0  0  0  0  0  0
    8.5850    1.3070   21.0580 O   0  0  0  0  0  0  0  0  0  0  0  0
    8.8660   -0.4760   22.5340 N   0  0  0  0  0  0  0  0  0  0  0  0
   10.2280   -0.2290   22.7590 C   0  0  0  0  0  0  0  0  0  0  0  0
   10.7120    1.0700   22.8520 C   0  0  0  0  0  0  0  0  0  0  0  0
   12.0480    1.4060   23.0580 C   0  0  0  0  0  0  0  0  0  0  0  0
   12.9860    0.2300   23.1870 C   0  0  0  0  0  0  0  0  0  0  0  0
   12.5040   -1.1870   23.1040 C   0  0  0  0  0  0  0  0  0  0  0  0
   13.4810   -2.5660   23.2590 Cl  0  0  0  0  0  0  0  0  0  0  0  0
   11.0530   -1.3250   22.8730 C   0  0  0  0  0  0  0  0  0  0  0  0
    6.3280    0.1670   20.1650 C   0  0  0  0  0  0  0  0  0  0  0  0
    5.1190    0.8220   20.5910 C   0  0  0  0  0  0  0  0  0  0  0  0
    4.6070    1.3510   19.3560 N   0  0  0  0  0  0  0  0  0  0  0  0
    5.1570    1.2530   18.0400 C   0  0  0  0  0  0  0  0  0  0  0  0
    6.2660    0.6200   17.7610 N   0  0  0  0  0  0  0  0  0  0  0  0
    6.7920    0.1090   18.8520 C   0  0  0  0  0  0  0  0  0  0  0  0
  1  2  2  3
  3  2  1  0
  3  4  2  0
  3  5  2  0
  3  6  1  0
  6  7  1  0
  7  8  1  0
  8  9  2  0
  8 10  1  0
 10 11  1  0
 11 12  2  0
 12 13  1  0
 13 14  2  0
 14 15  1  0
 15 16  1  0
 11 17  1  0
 15 17  2  0
  7 18  1  0
 18 19  2  0
 19 20  1  0
 20 21  2  0
 21 22  1  0
 18 23  1  0
 22 23  2  0
M  END
