SEA-TRI-6388eba6-1
     RDKit          3D

 22 23  0  0  0  0  0  0  0  0999 V2000
    5.5550   -3.5900   21.9160 O   0  0  0  0  0  0  0  0  0  0  0  0
    6.4000   -2.7980   22.3640 C   0  0  0  0  0  0  0  0  0  0  0  0
    7.4400   -3.3060   23.0640 C   0  0  0  0  0  0  0  0  0  0  0  0
    7.0770   -5.0180   23.3550 Cl  0  0  0  0  0  0  0  0  0  0  0  0
    6.2480   -1.2890   22.1230 C   0  0  0  0  0  0  0  0  0  0  0  0
    6.9890   -0.6800   21.1440 N   0  0  0  0  0  0  0  0  0  0  0  0
    8.1190   -0.0590   21.5230 C   0  0  0  0  0  0  0  0  0  0  0  0
    8.4360    1.0140   21.0100 O   0  0  0  0  0  0  0  0  0  0  0  0
    8.8530   -0.7250   22.5160 N   0  0  0  0  0  0  0  0  0  0  0  0
   10.2030   -0.3840   22.7380 C   0  0  0  0  0  0  0  0  0  0  0  0
   10.6220    0.9410   22.7460 C   0  0  0  0  0  0  0  0  0  0  0  0
   11.9510    1.3550   22.9410 C   0  0  0  0  0  0  0  0  0  0  0  0
   12.9760    0.2530   23.1670 C   0  0  0  0  0  0  0  0  0  0  0  0
   12.5110   -1.1830   23.1730 C   0  0  0  0  0  0  0  0  0  0  0  0
   13.5230   -2.5210   23.4370 Cl  0  0  0  0  0  0  0  0  0  0  0  0
   11.0760   -1.4130   22.9390 C   0  0  0  0  0  0  0  0  0  0  0  0
    6.3300   -0.0220   20.1280 C   0  0  0  0  0  0  0  0  0  0  0  0
    5.1250    0.6700   20.2960 C   0  0  0  0  0  0  0  0  0  0  0  0
    4.4600    1.3620   19.2660 N   0  0  0  0  0  0  0  0  0  0  0  0
    5.1290    1.3070   17.9900 C   0  0  0  0  0  0  0  0  0  0  0  0
    6.2890    0.6450   17.7770 N   0  0  0  0  0  0  0  0  0  0  0  0
    6.8300    0.0190   18.8340 C   0  0  0  0  0  0  0  0  0  0  0  0
  1  2  2  0
  2  3  1  0
  3  4  1  0
  2  5  1  0
  5  6  1  0
  6  7  1  0
  7  8  2  0
  7  9  1  0
  9 10  1  0
 10 11  2  0
 11 12  1  0
 12 13  2  0
 13 14  1  0
 14 15  1  0
 10 16  1  0
 14 16  2  0
  6 17  1  0
 17 18  2  0
 18 19  1  0
 19 20  2  0
 20 21  1  0
 17 22  1  0
 21 22  2  0
M  END
