SEB-HKI-06b43755-1
     RDKit          3D

 23 26  0  0  0  0  0  0  0  0999 V2000
    5.9830   -3.1610   19.9360 O   0  0  0  0  0  0  0  0  0  0  0  0
    6.1500   -4.1510   20.6370 C   0  0  0  0  0  0  0  0  0  0  0  0
    5.8040   -5.5560   20.4010 C   0  0  0  0  0  0  0  0  0  0  0  0
    5.1610   -6.2000   21.9140 Cl  0  0  0  0  0  0  0  0  0  0  0  0
    6.7590   -4.2420   21.8970 N   0  0  0  0  0  0  0  0  0  0  0  0
    7.8750   -3.7480   22.1870 C   0  0  0  0  0  0  0  0  0  0  0  0
    8.2510   -3.9890   23.5020 C   0  0  0  0  0  0  0  0  0  0  0  0
    9.4490   -3.4620   23.8720 C   0  0  0  0  0  0  0  0  0  0  0  0
    9.8130   -2.2490   23.3760 N   0  0  0  0  0  0  0  0  0  0  0  0
   10.9960   -2.0630   23.8710 C   0  0  0  0  0  0  0  0  0  0  0  0
   11.9010   -0.9150   23.6620 C   0  0  0  0  0  0  0  0  0  0  0  0
   13.1770   -1.0640   24.3720 C   0  0  0  0  0  0  0  0  0  0  0  0
   13.5020   -2.1860   25.1800 C   0  0  0  0  0  0  0  0  0  0  0  0
   12.6140   -3.2510   25.3620 C   0  0  0  0  0  0  0  0  0  0  0  0
   11.3890   -3.2000   24.7240 C   0  0  0  0  0  0  0  0  0  0  0  0
   10.3360   -4.1120   24.7180 N   0  0  0  0  0  0  0  0  0  0  0  0
    7.2230   -4.7080   24.0010 C   0  0  0  0  0  0  0  0  0  0  0  0
    7.2310   -5.1660   25.3760 C   0  0  0  0  0  0  0  0  0  0  0  0
    6.1610   -5.9200   25.9990 C   0  0  0  0  0  0  0  0  0  0  0  0
    5.1400   -6.1180   24.9800 C   0  0  0  0  0  0  0  0  0  0  0  0
    3.9130   -6.7110   24.8470 O   0  0  0  0  0  0  0  0  0  0  0  0
    6.0180   -5.4210   24.2440 C   0  0  0  0  0  0  0  0  0  0  0  0
    6.0760   -4.9810   23.0220 C   0  0  0  0  0  0  0  0  0  0  0  0
  1  2  2  0
  2  3  1  0
  3  4  1  0
  2  5  1  0
  5  6  1  0
  6  7  2  0
  7  8  1  0
  8  9  2  0
  9 10  1  0
 10 11  2  0
 11 12  1  0
 12 13  2  0
 13 14  1  0
 10 15  1  0
 14 15  2  0
  8 16  1  0
 15 16  1  0
  7 17  1  0
 17 18  1  0
 18 19  2  0
 19 20  1  0
 20 21  1  0
 20 22  2  0
  5 23  1  0
 17 23  2  0
 22 23  1  0
M  END
