SEB-HKI-06b43755-2
     RDKit          3D

 24 27  0  0  0  0  0  0  0  0999 V2000
    8.7100   -1.4060   22.8300 C   0  0  0  0  0  0  0  0  0  0  0  0
    9.5970   -2.3050   23.4100 N   0  0  0  0  0  0  0  0  0  0  0  0
    9.3880   -3.6380   23.8150 C   0  0  0  0  0  0  0  0  0  0  0  0
    8.1730   -4.3380   23.7450 C   0  0  0  0  0  0  0  0  0  0  0  0
    7.9610   -3.6880   22.3860 C   0  0  0  0  0  0  0  0  0  0  0  0
    6.7120   -4.1170   21.8190 N   0  0  0  0  0  0  0  0  0  0  0  0
    6.7720   -3.3010   20.6320 C   0  0  0  0  0  0  0  0  0  0  0  0
    7.7100   -2.6320   20.2610 O   0  0  0  0  0  0  0  0  0  0  0  0
    5.4070   -3.4230   20.1600 C   0  0  0  0  0  0  0  0  0  0  0  0
    4.8080   -3.2060   21.8220 Cl  0  0  0  0  0  0  0  0  0  0  0  0
    7.6130   -4.1690   22.8370 C   0  0  0  0  0  0  0  0  0  0  0  0
    7.8630   -4.7220   24.0970 C   0  0  0  0  0  0  0  0  0  0  0  0
    6.8620   -5.5560   24.6540 C   0  0  0  0  0  0  0  0  0  0  0  0
    6.9820   -6.0240   25.7770 O   0  0  0  0  0  0  0  0  0  0  0  0
    5.7080   -5.8270   23.8660 C   0  0  0  0  0  0  0  0  0  0  0  0
    5.7460   -5.1960   22.6400 C   0  0  0  0  0  0  0  0  0  0  0  0
    6.8640   -4.9420   23.4060 C   0  0  0  0  0  0  0  0  0  0  0  0
   10.4970   -4.1670   24.3320 N   0  0  0  0  0  0  0  0  0  0  0  0
   11.3990   -3.1430   24.2940 C   0  0  0  0  0  0  0  0  0  0  0  0
   12.8040   -3.0890   24.7860 C   0  0  0  0  0  0  0  0  0  0  0  0
   13.5330   -1.9660   24.6450 C   0  0  0  0  0  0  0  0  0  0  0  0
   13.0730   -0.6230   23.9870 C   0  0  0  0  0  0  0  0  0  0  0  0
   11.6010   -0.8380   23.5550 C   0  0  0  0  0  0  0  0  0  0  0  0
   10.8830   -1.9950   23.7190 C   0  0  0  0  0  0  0  0  0  0  0  0
  1  2  1  0
  2  3  1  0
  3  4  1  0
  4  5  2  0
  5  6  1  0
  6  7  1  0
  7  8  2  0
  7  9  1  0
  9 10  1  0
  6 11  1  0
 11 12  1  0
 12 13  2  0
 13 14  1  0
 13 15  1  0
 15 16  2  0
  4 17  1  0
 11 17  2  0
 16 17  1  0
  3 18  2  0
 18 19  1  0
 19 20  1  0
 20 21  2  0
 21 22  1  0
 22 23  2  0
  2 24  1  0
 19 24  2  0
 23 24  1  0
M  END
