SER-UNI-400afb01-1
     RDKit          3D

 36 40  0  0  0  0  0  0  0  0999 V2000
    1.2020    5.7580   21.9790 C   0  0  0  0  0  0  0  0  0  0  0  0
    2.5560    5.0610   21.9580 C   0  0  0  0  0  0  0  0  0  0  0  0
    3.5790    5.5400   22.6820 C   0  0  0  0  0  0  0  0  0  0  0  0
    3.7630    4.9590   24.3000 S   0  0  0  0  0  0  0  0  0  0  0  0
    5.4840    4.9260   24.1250 C   0  0  0  0  0  0  0  0  0  0  0  0
    6.0000    3.8200   23.5580 N   0  0  0  0  0  0  0  0  0  0  0  0
    7.3870    3.7360   23.3930 C   0  0  0  0  0  0  0  0  0  0  0  0
    7.9700    2.5340   22.7970 N   0  0  0  0  0  0  0  0  0  0  0  0
    7.6750    1.2590   23.2570 C   0  0  2  0  0  0  0  0  0  0  0  0
    8.6170    0.1810   22.9600 C   0  0  0  0  0  0  0  0  0  0  0  0
    7.3390   -0.0100   22.2490 C   0  0  2  0  0  0  0  0  0  0  0  0
    7.1740    0.2630   20.9380 C   0  0  0  0  0  0  0  0  0  0  0  0
    5.6010    0.2550   21.1740 C   0  0  0  0  0  0  0  0  0  0  0  0
    4.6960    0.5130   20.0520 C   0  0  0  0  0  0  0  0  0  0  0  0
    5.2050    0.8020   18.6110 C   0  0  0  0  0  0  0  0  0  0  0  0
    4.5320    1.0480   17.5400 F   0  0  0  0  0  0  0  0  0  0  0  0
    6.4960    0.7510   18.7100 C   0  0  0  0  0  0  0  0  0  0  0  0
    7.4870    0.9080   17.9000 F   0  0  0  0  0  0  0  0  0  0  0  0
    6.4220    0.4860   19.9600 C   0  0  0  0  0  0  0  0  0  0  0  0
    8.1760    4.8500   23.8390 C   0  0  0  0  0  0  0  0  0  0  0  0
    9.5090    5.1150   23.8380 N   0  0  0  0  0  0  0  0  0  0  0  0
    9.7390    6.3450   24.4090 N   0  0  0  0  0  0  0  0  0  0  0  0
    8.5190    6.8550   24.7700 N   0  0  0  0  0  0  0  0  0  0  0  0
    8.3080    8.1490   25.4280 C   0  0  2  0  0  0  0  0  0  0  0  0
    7.5070    9.0840   24.7540 C   0  0  0  0  0  0  0  0  0  0  0  0
    7.8660   10.4440   24.9680 C   0  0  2  0  0  0  0  0  0  0  0  0
    7.7070   11.1340   23.7260 O   0  0  0  0  0  0  0  0  0  0  0  0
    7.1890   12.4680   23.8680 C   0  0  0  0  0  0  0  0  0  0  0  0
    5.9080   12.5170   23.0290 C   0  0  0  0  0  0  0  0  0  0  0  0
    5.2760   13.7680   23.3030 O   0  0  0  0  0  0  0  0  0  0  0  0
    9.3490   10.4160   25.4180 C   0  0  1  0  0  0  0  0  0  0  0  0
    9.5500   11.1130   26.6500 O   0  0  0  0  0  0  0  0  0  0  0  0
    9.4540    8.9320   25.6140 C   0  0  1  0  0  0  0  0  0  0  0  0
    9.9770    8.7290   26.9320 O   0  0  0  0  0  0  0  0  0  0  0  0
    7.4770    5.9010   24.4040 C   0  0  0  0  0  0  0  0  0  0  0  0
    6.1470    6.0120   24.5780 N   0  0  0  0  0  0  0  0  0  0  0  0
  1  2  1  0
  2  3  1  0
  3  4  1  0
  4  5  1  0
  5  6  2  0
  6  7  1  0
  7  8  1  0
  9  8  1  6
  9 10  1  0
  9 11  1  0
 10 11  1  0
 11 12  1  6
 12 13  2  0
 13 14  1  0
 14 15  2  0
 15 16  1  0
 15 17  1  0
 17 18  1  0
 12 19  1  0
 17 19  2  0
  7 20  2  0
 20 21  1  0
 21 22  2  0
 22 23  1  0
 24 23  1  6
 24 25  1  0
 25 26  1  0
 26 27  1  6
 27 28  1  0
 28 29  1  0
 29 30  1  0
 26 31  1  0
 31 32  1  1
 24 33  1  0
 31 33  1  0
 33 34  1  1
 20 35  1  0
 23 35  1  0
  5 36  1  0
 35 36  2  0
M  END
