SER-UNI-985a0e14-3
     RDKit          3D

 34 37  0  0  0  0  0  0  0  0999 V2000
   10.0970   -0.2660   25.5080 C   0  0  0  0  0  0  0  0  0  0  0  0
    9.8870    0.4420   24.2330 C   0  0  0  0  0  0  0  0  0  0  0  0
    9.6180    1.5440   23.7700 C   0  0  0  0  0  0  0  0  0  0  0  0
    9.3640    2.6950   23.9850 C   0  0  0  0  0  0  0  0  0  0  0  0
    9.2080    3.0710   22.6840 C   0  0  0  0  0  0  0  0  0  0  0  0
    8.9080    4.5530   23.6240 S   0  0  0  0  0  0  0  0  0  0  0  0
   10.0610    4.8440   24.4260 O   0  0  0  0  0  0  0  0  0  0  0  0
    7.5880    4.4780   24.1940 O   0  0  0  0  0  0  0  0  0  0  0  0
    8.9190    5.8570   22.6210 N   0  0  0  0  0  0  0  0  0  0  0  0
    9.9550    6.4200   23.1200 C   0  0  0  0  0  0  0  0  0  0  0  0
    9.8200    7.5070   24.1840 C   0  0  0  0  0  0  0  0  0  0  0  0
   10.9540    7.9990   24.6750 C   0  0  0  0  0  0  0  0  0  0  0  0
   12.2620    7.4880   24.1750 C   0  0  0  0  0  0  0  0  0  0  0  0
   12.3860    6.4140   23.1220 C   0  0  0  0  0  0  0  0  0  0  0  0
   13.7280    5.6830   22.4250 Cl  0  0  0  0  0  0  0  0  0  0  0  0
   11.1120    5.9150   22.6300 C   0  0  0  0  0  0  0  0  0  0  0  0
    9.5200    1.5910   22.2290 C   0  0  0  0  0  0  0  0  0  0  0  0
    9.8380    0.2680   22.9230 C   0  0  0  0  0  0  0  0  0  0  0  0
   10.0000   -0.9290   22.2760 N   0  0  0  0  0  0  0  0  0  0  0  0
    8.8550   -1.3880   21.6840 C   0  0  0  0  0  0  0  0  0  0  0  0
    8.3290   -0.8690   20.7020 O   0  0  0  0  0  0  0  0  0  0  0  0
    8.2710   -2.5910   22.4530 C   0  0  0  0  0  0  0  0  0  0  0  0
    6.7640   -2.7290   22.5540 C   0  0  0  0  0  0  0  0  0  0  0  0
    6.2980   -2.4860   23.9130 N   0  0  0  0  0  0  0  0  0  0  0  0
    6.0860   -1.1610   24.5130 C   0  0  0  0  0  0  0  0  0  0  0  0
    5.7180   -0.1430   23.9520 O   0  0  0  0  0  0  0  0  0  0  0  0
    6.3950   -1.3500   25.8720 N   0  0  0  0  0  0  0  0  0  0  0  0
    7.2150   -0.4730   26.6640 C   0  0  0  0  0  0  0  0  0  0  0  0
    6.1420   -2.7000   26.1650 C   0  0  0  0  0  0  0  0  0  0  0  0
    5.9680   -3.3210   27.3800 C   0  0  0  0  0  0  0  0  0  0  0  0
    5.7200   -4.6950   27.3680 C   0  0  0  0  0  0  0  0  0  0  0  0
    5.6520   -5.4110   26.1660 C   0  0  0  0  0  0  0  0  0  0  0  0
    5.8340   -4.7750   24.9320 C   0  0  0  0  0  0  0  0  0  0  0  0
    6.0790   -3.4150   24.9520 C   0  0  0  0  0  0  0  0  0  0  0  0
  1  2  1  0
  2  3  2  0
  3  4  1  0
  4  5  2  0
  5  6  1  0
  6  7  2  0
  6  8  2  0
  6  9  1  0
  9 10  1  0
 10 11  2  0
 11 12  1  0
 12 13  2  0
 13 14  1  0
 14 15  1  0
 10 16  1  0
 14 16  2  0
  5 17  1  0
  2 18  1  0
 17 18  2  0
 18 19  1  0
 19 20  1  0
 20 21  2  0
 20 22  1  0
 22 23  1  0
 23 24  1  0
 24 25  1  0
 25 26  2  0
 25 27  1  0
 27 28  1  0
 27 29  1  0
 29 30  1  0
 30 31  2  0
 31 32  1  0
 32 33  2  0
 24 34  1  0
 29 34  2  0
 33 34  1  0
M  END
