SID-ELM-8b394441-19
     RDKit          3D

 21 23  0  0  0  0  0  0  0  0999 V2000
    9.1420    0.7990   21.4570 O   0  0  0  0  0  0  0  0  0  0  0  0
    8.5600   -0.2370   21.7620 C   0  0  0  0  0  0  0  0  0  0  0  0
    9.1440   -1.1980   22.7550 C   0  0  0  0  0  0  0  0  0  0  0  0
   10.1750   -2.0670   22.5840 C   0  0  0  0  0  0  0  0  0  0  0  0
   11.4750   -1.5740   21.9280 C   0  0  0  0  0  0  0  0  0  0  0  0
   12.7930   -1.9040   22.4550 C   0  0  0  0  0  0  0  0  0  0  0  0
   12.8750   -2.2260   23.8050 C   0  0  0  0  0  0  0  0  0  0  0  0
   11.7600   -1.7550   24.4530 C   0  0  0  0  0  0  0  0  0  0  0  0
   10.5730   -2.5570   23.9670 C   0  0  0  0  0  0  0  0  0  0  0  0
    7.2410   -0.6740   21.2700 N   0  0  0  0  0  0  0  0  0  0  0  0
    6.3700    0.0870   20.3370 C   0  0  0  0  0  0  0  0  0  0  0  0
    6.4830   -0.1880   19.0080 C   0  0  0  0  0  0  0  0  0  0  0  0
    7.5490   -1.3820   18.5710 Cl  0  0  0  0  0  0  0  0  0  0  0  0
    5.8640    0.3410   17.9770 N   0  0  0  0  0  0  0  0  0  0  0  0
    5.0270    1.2420   18.4190 C   0  0  0  0  0  0  0  0  0  0  0  0
    4.7980    1.6180   19.8500 C   0  0  0  0  0  0  0  0  0  0  0  0
    3.8500    2.5990   20.1550 N   0  0  0  0  0  0  0  0  0  0  0  0
    3.6390    2.6830   18.8350 C   0  0  0  0  0  0  0  0  0  0  0  0
    4.5340    1.8420   19.4520 N   0  0  0  0  0  0  0  0  0  0  0  0
    4.4980    2.0300   20.9150 C   0  0  0  0  0  0  0  0  0  0  0  0
    5.4610    1.0620   20.8950 C   0  0  0  0  0  0  0  0  0  0  0  0
  1  2  2  0
  2  3  1  0
  3  4  1  0
  4  5  1  0
  5  6  1  0
  6  7  1  0
  7  8  1  0
  4  9  1  0
  8  9  1  0
  2 10  1  0
 10 11  1  0
 11 12  2  0
 12 13  1  0
 12 14  1  0
 14 15  2  0
 15 16  1  0
 16 17  1  0
 17 18  2  0
 18 19  1  0
 19 20  2  0
 11 21  1  0
 16 21  2  0
 20 21  1  0
M  END
