SID-ELM-b654bfa2-21
     RDKit          3D

 18 19  0  0  0  0  0  0  0  0999 V2000
    9.1480    1.4520   23.0310 N   0  0  0  0  0  0  0  0  0  0  0  0
    9.5770    0.1460   23.0900 C   0  0  0  0  0  0  0  0  0  0  0  0
   10.8330    0.5590   22.4910 C   0  0  0  0  0  0  0  0  0  0  0  0
   11.6310   -0.4960   22.3620 N   0  0  0  0  0  0  0  0  0  0  0  0
   10.8430   -1.5100   22.9080 C   0  0  0  0  0  0  0  0  0  0  0  0
   11.3420   -2.7680   22.9860 F   0  0  0  0  0  0  0  0  0  0  0  0
    9.4140   -1.2090   23.4480 C   0  0  0  0  0  0  0  0  0  0  0  0
    9.8350   -0.0100   22.8590 N   0  0  0  0  0  0  0  0  0  0  0  0
    9.2320    0.4480   21.6120 C   0  0  0  0  0  0  0  0  0  0  0  0
    9.3690    1.5710   21.0950 O   0  0  0  0  0  0  0  0  0  0  0  0
    8.3400   -0.6730   20.9430 C   0  0  0  0  0  0  0  0  0  0  0  0
    6.9180   -0.3880   20.2740 C   0  0  0  0  0  0  0  0  0  0  0  0
    6.8230    0.8540   19.3610 C   0  0  0  0  0  0  0  0  0  0  0  0
    5.6070    1.6000   19.4200 C   0  0  0  0  0  0  0  0  0  0  0  0
    4.6020    1.5330   20.6060 C   0  0  0  0  0  0  0  0  0  0  0  0
    5.1810    0.7290   21.7070 C   0  0  0  0  0  0  0  0  0  0  0  0
    5.7810   -0.4840   21.3330 C   0  0  0  0  0  0  0  0  0  0  0  0
    8.3920   -0.2430   23.6550 C   0  0  0  0  0  0  0  0  0  0  0  0
  1  2  1  0
  2  3  2  0
  3  4  1  0
  4  5  2  0
  5  6  1  0
  5  7  1  0
  7  8  1  0
  8  9  1  0
  9 10  2  0
  9 11  1  0
 11 12  1  0
 12 13  1  0
 13 14  1  0
 14 15  1  0
 15 16  1  0
 12 17  1  0
 16 17  1  0
  2 18  1  0
  7 18  2  0
M  END
