SID-ELM-b654bfa2-20
     RDKit          3D

 20 22  0  0  0  0  0  0  0  0999 V2000
    9.1450    1.4320   21.3300 O   0  0  0  0  0  0  0  0  0  0  0  0
    8.7320    0.3260   21.6940 C   0  0  0  0  0  0  0  0  0  0  0  0
    9.4870   -0.5240   22.6680 C   0  0  0  0  0  0  0  0  0  0  0  0
   10.8170   -0.4080   22.8910 C   0  0  0  0  0  0  0  0  0  0  0  0
   11.7110   -1.4970   22.2920 C   0  0  0  0  0  0  0  0  0  0  0  0
   12.2190   -2.5170   23.1940 C   0  0  0  0  0  0  0  0  0  0  0  0
   12.7960   -2.0980   24.3950 C   0  0  0  0  0  0  0  0  0  0  0  0
   12.6180   -0.7390   24.5850 C   0  0  0  0  0  0  0  0  0  0  0  0
   11.1420   -0.4280   24.3910 C   0  0  0  0  0  0  0  0  0  0  0  0
    7.4800   -0.3020   21.2760 N   0  0  0  0  0  0  0  0  0  0  0  0
    6.6250    0.2530   20.2200 C   0  0  0  0  0  0  0  0  0  0  0  0
    6.7460   -0.1020   18.8740 C   0  0  0  0  0  0  0  0  0  0  0  0
    7.6610   -0.9960   18.5310 F   0  0  0  0  0  0  0  0  0  0  0  0
    6.0180    0.3690   17.8290 N   0  0  0  0  0  0  0  0  0  0  0  0
    5.0860    1.2660   18.1600 C   0  0  0  0  0  0  0  0  0  0  0  0
    4.8540    1.7050   19.5270 C   0  0  0  0  0  0  0  0  0  0  0  0
    3.9740    2.5790   20.0350 N   0  0  0  0  0  0  0  0  0  0  0  0
    4.2540    2.5750   21.4550 C   0  0  0  0  0  0  0  0  0  0  0  0
    5.2410    1.7490   21.7520 N   0  0  0  0  0  0  0  0  0  0  0  0
    5.6290    1.1950   20.5620 C   0  0  0  0  0  0  0  0  0  0  0  0
  1  2  2  0
  2  3  1  0
  3  4  1  0
  4  5  1  0
  5  6  1  0
  6  7  1  0
  7  8  1  0
  4  9  1  0
  8  9  1  0
  2 10  1  0
 10 11  1  0
 11 12  2  0
 12 13  1  0
 12 14  1  0
 14 15  2  0
 15 16  1  0
 16 17  1  0
 17 18  1  0
 18 19  2  0
 11 20  1  0
 16 20  2  0
 19 20  1  0
M  END
