SID-ELM-2583a2cd-8
     RDKit          3D

 19 21  0  0  0  0  0  0  0  0999 V2000
    4.6390   -3.3110   21.9690 O   0  0  0  0  0  0  0  0  0  0  0  0
    5.3260   -2.2890   22.1300 C   0  0  0  0  0  0  0  0  0  0  0  0
    5.3730   -1.4530   23.3350 N   0  0  0  0  0  0  0  0  0  0  0  0
    5.6010   -2.1700   24.6180 C   0  0  0  0  0  0  0  0  0  0  0  0
    5.2800   -3.4890   24.6080 C   0  0  0  0  0  0  0  0  0  0  0  0
    5.4090   -4.4440   25.7840 C   0  0  0  0  0  0  0  0  0  0  0  0
    5.9470   -3.8670   27.0970 C   0  0  0  0  0  0  0  0  0  0  0  0
    6.2950   -2.3770   27.0590 C   0  0  0  0  0  0  0  0  0  0  0  0
    6.1040   -1.5480   25.7700 C   0  0  0  0  0  0  0  0  0  0  0  0
    6.1920   -1.7180   21.2060 N   0  0  0  0  0  0  0  0  0  0  0  0
    5.9190   -0.7250   20.2850 C   0  0  0  0  0  0  0  0  0  0  0  0
    6.6250   -0.6000   18.9600 C   0  0  0  0  0  0  0  0  0  0  0  0
    6.4460    0.4020   17.8280 N   0  0  0  0  0  0  0  0  0  0  0  0
    5.5000    1.2870   18.0970 C   0  0  0  0  0  0  0  0  0  0  0  0
    5.2350    0.7130   19.3620 C   0  0  0  0  0  0  0  0  0  0  0  0
    4.3130    1.9280   19.1420 N   0  0  0  0  0  0  0  0  0  0  0  0
    3.6260    2.0300   20.1430 C   0  0  0  0  0  0  0  0  0  0  0  0
    3.8750    1.1310   21.0310 C   0  0  0  0  0  0  0  0  0  0  0  0
    4.8520    0.1790   20.7660 C   0  0  0  0  0  0  0  0  0  0  0  0
  1  2  2  0
  2  3  1  0
  3  4  1  0
  4  5  2  0
  5  6  1  0
  6  7  2  0
  7  8  1  0
  4  9  1  0
  8  9  2  0
  2 10  1  0
 10 11  1  0
 11 12  2  0
 12 13  1  0
 13 14  2  0
 14 15  1  0
 15 16  1  0
 16 17  1  0
 17 18  2  0
 11 19  1  0
 15 19  2  0
 18 19  1  0
M  END
