SID-ELM-8b394441-20
     RDKit          3D

 21 23  0  0  0  0  0  0  0  0999 V2000
    8.7280    1.4540   21.1130 O   0  0  0  0  0  0  0  0  0  0  0  0
    8.1650    0.3700   21.2980 C   0  0  0  0  0  0  0  0  0  0  0  0
    7.1600   -0.0680   20.2820 C   0  0  0  0  0  0  0  0  0  0  0  0
    6.4450    1.0200   19.6620 C   0  0  0  0  0  0  0  0  0  0  0  0
    5.7440    0.6400   18.5290 C   0  0  0  0  0  0  0  0  0  0  0  0
    4.3800    0.7900   18.6810 C   0  0  0  0  0  0  0  0  0  0  0  0
    4.0050    2.1090   18.8550 C   0  0  0  0  0  0  0  0  0  0  0  0
    4.4610    2.6650   20.0640 C   0  0  0  0  0  0  0  0  0  0  0  0
    5.6670    1.9300   20.6420 C   0  0  0  0  0  0  0  0  0  0  0  0
    8.3630   -0.5040   22.3350 N   0  0  0  0  0  0  0  0  0  0  0  0
    9.6590   -0.6950   22.7640 C   0  0  0  0  0  0  0  0  0  0  0  0
   10.0630   -1.9250   23.4130 C   0  0  0  0  0  0  0  0  0  0  0  0
   11.0520   -3.0820   24.1780 Cl  0  0  0  0  0  0  0  0  0  0  0  0
   11.3150   -1.5740   23.5910 N   0  0  0  0  0  0  0  0  0  0  0  0
   12.1870   -0.4300   23.3130 C   0  0  0  0  0  0  0  0  0  0  0  0
   12.1020    0.8580   22.7100 C   0  0  0  0  0  0  0  0  0  0  0  0
   13.5060    0.4400   23.2750 N   0  0  0  0  0  0  0  0  0  0  0  0
   13.4000   -1.0120   23.9450 C   0  0  0  0  0  0  0  0  0  0  0  0
   12.8620   -0.0220   23.3260 C   0  0  0  0  0  0  0  0  0  0  0  0
   11.7950    0.4270   22.8270 C   0  0  0  0  0  0  0  0  0  0  0  0
   10.5180    0.3760   22.5080 C   0  0  0  0  0  0  0  0  0  0  0  0
  1  2  2  0
  2  3  1  0
  3  4  1  0
  4  5  1  0
  5  6  1  0
  6  7  1  0
  7  8  1  0
  4  9  1  0
  8  9  1  0
  2 10  1  0
 10 11  1  0
 11 12  2  0
 12 13  1  0
 12 14  1  0
 14 15  2  0
 15 16  1  0
 16 17  1  0
 17 18  2  0
 18 19  1  0
 19 20  2  0
 11 21  1  0
 16 21  2  0
 20 21  1  0
M  END
