SID-ELM-8b394441-6
     RDKit          3D

 19 20  0  0  0  0  0  0  0  0999 V2000
    2.4130    2.6200   19.7770 C   0  0  0  0  0  0  0  0  0  0  0  0
    3.7340    3.1530   19.4510 N   0  0  0  0  0  0  0  0  0  0  0  0
    4.7090    2.0560   19.3610 C   0  0  0  0  0  0  0  0  0  0  0  0
    4.9360    1.6370   18.0630 C   0  0  0  0  0  0  0  0  0  0  0  0
    5.8550    0.5390   17.8280 N   0  0  0  0  0  0  0  0  0  0  0  0
    6.4900   -0.0440   18.9720 C   0  0  0  0  0  0  0  0  0  0  0  0
    7.5150   -1.3250   18.6530 Cl  0  0  0  0  0  0  0  0  0  0  0  0
    6.2740    0.4120   20.2500 C   0  0  0  0  0  0  0  0  0  0  0  0
    7.0130   -0.2370   21.2760 N   0  0  0  0  0  0  0  0  0  0  0  0
    8.3400    0.1010   21.5670 C   0  0  0  0  0  0  0  0  0  0  0  0
    8.8780    1.1440   21.1620 O   0  0  0  0  0  0  0  0  0  0  0  0
    8.9770   -0.8540   22.3450 N   0  0  0  0  0  0  0  0  0  0  0  0
   10.2730   -0.4410   22.5140 C   0  0  0  0  0  0  0  0  0  0  0  0
   10.6400    0.9760   22.8410 C   0  0  0  0  0  0  0  0  0  0  0  0
   12.0010    1.2540   22.9790 C   0  0  0  0  0  0  0  0  0  0  0  0
   12.9880    0.3130   22.8360 C   0  0  0  0  0  0  0  0  0  0  0  0
   12.6540   -1.0060   22.5320 C   0  0  0  0  0  0  0  0  0  0  0  0
   11.3190   -1.3720   22.3730 C   0  0  0  0  0  0  0  0  0  0  0  0
    5.3740    1.4560   20.4380 C   0  0  0  0  0  0  0  0  0  0  0  0
  1  2  1  0
  2  3  1  0
  3  4  2  0
  4  5  1  0
  5  6  2  0
  6  7  1  0
  6  8  1  0
  8  9  1  0
  9 10  1  0
 10 11  2  0
 10 12  1  0
 12 13  1  0
 13 14  2  0
 14 15  1  0
 15 16  2  0
 16 17  1  0
 13 18  1  0
 17 18  2  0
  3 19  1  0
  8 19  2  0
M  END
