SID-ELM-8b394441-22
     RDKit          3D

 20 22  0  0  0  0  0  0  0  0999 V2000
    9.0550    1.5390   21.2570 O   0  0  0  0  0  0  0  0  0  0  0  0
    8.5910    0.4460   21.5920 C   0  0  0  0  0  0  0  0  0  0  0  0
    9.2120   -0.3590   22.6840 C   0  0  0  0  0  0  0  0  0  0  0  0
   10.4500   -0.8810   22.5990 C   0  0  0  0  0  0  0  0  0  0  0  0
   11.5820    0.0080   23.1470 C   0  0  0  0  0  0  0  0  0  0  0  0
   12.8560   -0.6170   23.4220 C   0  0  0  0  0  0  0  0  0  0  0  0
   12.8420   -2.0120   23.4570 C   0  0  0  0  0  0  0  0  0  0  0  0
   11.7360   -2.4570   24.1740 C   0  0  0  0  0  0  0  0  0  0  0  0
   10.5010   -2.2620   23.2940 C   0  0  0  0  0  0  0  0  0  0  0  0
    7.4180   -0.2060   21.0220 N   0  0  0  0  0  0  0  0  0  0  0  0
    6.4690    0.4900   20.1340 C   0  0  0  0  0  0  0  0  0  0  0  0
    5.8430    0.0210   18.9640 C   0  0  0  0  0  0  0  0  0  0  0  0
    6.1130   -1.5540   18.4170 Cl  0  0  0  0  0  0  0  0  0  0  0  0
    4.9750    0.7320   18.1420 N   0  0  0  0  0  0  0  0  0  0  0  0
    4.7100    2.0170   18.5640 C   0  0  0  0  0  0  0  0  0  0  0  0
    5.3050    2.3660   19.6890 N   0  0  0  0  0  0  0  0  0  0  0  0
    5.7530    0.9760   19.3420 N   0  0  0  0  0  0  0  0  0  0  0  0
    5.0830    0.8860   18.2590 C   0  0  0  0  0  0  0  0  0  0  0  0
    5.1940    1.8960   19.1780 C   0  0  0  0  0  0  0  0  0  0  0  0
    6.0520    1.7830   20.4000 C   0  0  0  0  0  0  0  0  0  0  0  0
  1  2  2  0
  2  3  1  0
  3  4  1  0
  4  5  1  0
  5  6  1  0
  6  7  1  0
  7  8  1  0
  4  9  1  0
  8  9  1  0
  2 10  1  0
 10 11  1  0
 11 12  2  0
 12 13  1  0
 12 14  1  0
 14 15  2  0
 15 16  1  0
 16 17  1  0
 17 18  2  0
 18 19  1  0
 11 20  1  0
 16 20  1  0
 19 20  2  0
M  END
