SID-ELM-b654bfa2-2
     RDKit          3D

 19 20  0  0  0  0  0  0  0  0999 V2000
    2.4710    1.9990   20.2040 C   0  0  0  0  0  0  0  0  0  0  0  0
    3.7140    2.4410   19.6150 N   0  0  0  0  0  0  0  0  0  0  0  0
    4.7220    1.5860   19.3540 C   0  0  0  0  0  0  0  0  0  0  0  0
    5.0820    1.3430   18.0540 C   0  0  0  0  0  0  0  0  0  0  0  0
    6.1120    0.4550   17.8000 N   0  0  0  0  0  0  0  0  0  0  0  0
    6.7210   -0.1270   18.8560 C   0  0  0  0  0  0  0  0  0  0  0  0
    7.6910   -0.9720   18.5620 F   0  0  0  0  0  0  0  0  0  0  0  0
    6.4050    0.0950   20.2910 C   0  0  0  0  0  0  0  0  0  0  0  0
    7.1410   -0.5700   21.2920 N   0  0  0  0  0  0  0  0  0  0  0  0
    8.3230   -0.1360   21.8710 C   0  0  0  0  0  0  0  0  0  0  0  0
    8.9660    0.8610   21.5320 O   0  0  0  0  0  0  0  0  0  0  0  0
    8.8120   -0.9440   22.9930 N   0  0  0  0  0  0  0  0  0  0  0  0
   10.1840   -1.1430   23.0810 C   0  0  0  0  0  0  0  0  0  0  0  0
   10.9510   -1.2880   24.3800 C   0  0  0  0  0  0  0  0  0  0  0  0
   12.2820   -1.4780   24.5750 C   0  0  0  0  0  0  0  0  0  0  0  0
   13.1180   -1.5630   23.2930 C   0  0  0  0  0  0  0  0  0  0  0  0
   12.4910   -1.4450   22.0680 C   0  0  0  0  0  0  0  0  0  0  0  0
   10.9840   -1.2300   21.9700 C   0  0  0  0  0  0  0  0  0  0  0  0
    5.3670    0.9800   20.4580 C   0  0  0  0  0  0  0  0  0  0  0  0
  1  2  1  0
  2  3  1  0
  3  4  2  0
  4  5  1  0
  5  6  2  0
  6  7  1  0
  6  8  1  0
  8  9  1  0
  9 10  1  0
 10 11  2  0
 10 12  1  0
 12 13  1  0
 13 14  2  0
 14 15  1  0
 15 16  2  0
 16 17  1  0
 13 18  1  0
 17 18  2  0
  3 19  1  0
  8 19  2  0
M  END
