SID-ELM-2583a2cd-20
     RDKit          3D

 20 22  0  0  0  0  0  0  0  0999 V2000
    9.0330    0.1060   21.8880 O   0  0  0  0  0  0  0  0  0  0  0  0
    8.3830   -0.9300   21.7630 C   0  0  0  0  0  0  0  0  0  0  0  0
    8.8250   -2.2680   22.1570 N   0  0  0  0  0  0  0  0  0  0  0  0
   10.1940   -2.2420   22.7270 C   0  0  0  0  0  0  0  0  0  0  0  0
   11.0760   -1.5130   22.0210 C   0  0  0  0  0  0  0  0  0  0  0  0
   12.5470   -1.3040   22.3590 C   0  0  0  0  0  0  0  0  0  0  0  0
   13.0670   -1.9900   23.6220 C   0  0  0  0  0  0  0  0  0  0  0  0
   12.0280   -2.8020   24.3780 C   0  0  0  0  0  0  0  0  0  0  0  0
   10.5710   -2.9020   23.8820 C   0  0  0  0  0  0  0  0  0  0  0  0
    7.1040   -1.0050   21.2200 N   0  0  0  0  0  0  0  0  0  0  0  0
    6.6280   -0.3310   20.1180 C   0  0  0  0  0  0  0  0  0  0  0  0
    7.1610   -0.3620   18.8360 C   0  0  0  0  0  0  0  0  0  0  0  0
    6.5870    0.4050   17.7470 N   0  0  0  0  0  0  0  0  0  0  0  0
    5.4900    1.1960   17.8800 C   0  0  0  0  0  0  0  0  0  0  0  0
    4.8860    1.2450   19.2290 C   0  0  0  0  0  0  0  0  0  0  0  0
    3.6780    2.1470   19.2470 N   0  0  0  0  0  0  0  0  0  0  0  0
    3.1960    2.1500   20.4610 C   0  0  0  0  0  0  0  0  0  0  0  0
    3.6980    1.4550   21.5390 C   0  0  0  0  0  0  0  0  0  0  0  0
    4.7960    0.6490   21.4760 C   0  0  0  0  0  0  0  0  0  0  0  0
    5.4670    0.4930   20.2930 C   0  0  0  0  0  0  0  0  0  0  0  0
  1  2  2  0
  2  3  1  0
  3  4  1  0
  4  5  2  0
  5  6  1  0
  6  7  2  0
  7  8  1  0
  4  9  1  0
  8  9  2  0
  2 10  1  0
 10 11  1  0
 11 12  2  0
 12 13  1  0
 13 14  2  0
 14 15  1  0
 15 16  1  0
 16 17  2  0
 17 18  1  0
 18 19  2  0
 11 20  1  0
 15 20  2  0
 19 20  1  0
M  END
