SID-ELM-2583a2cd-18
     RDKit          3D

 19 21  0  0  0  0  0  0  0  0999 V2000
    9.0670    0.8590   21.4640 O   0  0  0  0  0  0  0  0  0  0  0  0
    8.5570   -0.2510   21.5800 C   0  0  0  0  0  0  0  0  0  0  0  0
    9.2890   -1.4480   22.0630 C   0  0  0  0  0  0  0  0  0  0  0  0
   10.4110   -1.2910   22.7710 C   0  0  0  0  0  0  0  0  0  0  0  0
   10.3680   -0.3530   23.9230 C   0  0  0  0  0  0  0  0  0  0  0  0
   11.4760   -0.3330   24.7290 C   0  0  0  0  0  0  0  0  0  0  0  0
   12.7040   -1.1940   24.5090 C   0  0  0  0  0  0  0  0  0  0  0  0
   12.3190   -2.5590   23.9410 C   0  0  0  0  0  0  0  0  0  0  0  0
   11.0760   -2.4970   23.0330 C   0  0  0  0  0  0  0  0  0  0  0  0
    7.2420   -0.5580   21.2890 N   0  0  0  0  0  0  0  0  0  0  0  0
    6.5940    0.0260   20.1860 C   0  0  0  0  0  0  0  0  0  0  0  0
    6.9060   -0.1680   18.8510 C   0  0  0  0  0  0  0  0  0  0  0  0
    6.2540    0.4190   17.8210 N   0  0  0  0  0  0  0  0  0  0  0  0
    5.2140    1.2680   18.0500 C   0  0  0  0  0  0  0  0  0  0  0  0
    4.8380    1.5140   19.3660 C   0  0  0  0  0  0  0  0  0  0  0  0
    3.8280    2.3180   19.9330 N   0  0  0  0  0  0  0  0  0  0  0  0
    3.9240    2.1730   21.3890 C   0  0  0  0  0  0  0  0  0  0  0  0
    5.0070    1.2710   21.6290 N   0  0  0  0  0  0  0  0  0  0  0  0
    5.5320    0.8920   20.4210 C   0  0  0  0  0  0  0  0  0  0  0  0
  1  2  2  0
  2  3  1  0
  3  4  1  0
  4  5  1  0
  5  6  1  0
  6  7  1  0
  7  8  1  0
  4  9  1  0
  8  9  1  0
  2 10  1  0
 10 11  1  0
 11 12  2  0
 12 13  1  0
 13 14  2  0
 14 15  1  0
 15 16  1  0
 16 17  1  0
 17 18  2  0
 11 19  1  0
 15 19  2  0
 18 19  1  0
M  END
