SID-ELM-1f105489-4
     RDKit          3D

 20 22  0  0  0  0  0  0  0  0999 V2000
   13.1900   -1.7040   23.8080 C   0  0  0  0  0  0  0  0  0  0  0  0
   12.2340   -0.9770   23.0120 N   0  0  0  0  0  0  0  0  0  0  0  0
   11.1490   -1.6140   22.5450 C   0  0  0  0  0  0  0  0  0  0  0  0
    9.9210   -1.3900   22.9980 C   0  0  0  0  0  0  0  0  0  0  0  0
    9.6740   -0.0590   22.8360 N   0  0  0  0  0  0  0  0  0  0  0  0
    8.7940    0.1660   21.7820 C   0  0  0  0  0  0  0  0  0  0  0  0
    8.7840    1.2400   21.1530 O   0  0  0  0  0  0  0  0  0  0  0  0
    7.7220   -0.8250   21.2450 C   0  0  0  0  0  0  0  0  0  0  0  0
    6.8940   -0.2010   20.1340 C   0  0  0  0  0  0  0  0  0  0  0  0
    7.1270   -0.6700   18.7180 C   0  0  0  0  0  0  0  0  0  0  0  0
    7.9390   -1.5670   18.2310 F   0  0  0  0  0  0  0  0  0  0  0  0
    6.1660    0.1790   18.0230 N   0  0  0  0  0  0  0  0  0  0  0  0
    5.4220    1.0330   18.8670 C   0  0  0  0  0  0  0  0  0  0  0  0
    4.3730    2.0040   18.5600 N   0  0  0  0  0  0  0  0  0  0  0  0
    3.9420    2.5880   19.7010 C   0  0  0  0  0  0  0  0  0  0  0  0
    4.3590    2.3780   20.9850 N   0  0  0  0  0  0  0  0  0  0  0  0
    5.3400    1.4620   21.1820 C   0  0  0  0  0  0  0  0  0  0  0  0
    5.8880    0.7760   20.1470 C   0  0  0  0  0  0  0  0  0  0  0  0
   10.6960    0.8530   23.1830 C   0  0  0  0  0  0  0  0  0  0  0  0
   11.9160    0.3350   23.6760 C   0  0  0  0  0  0  0  0  0  0  0  0
  1  2  1  0
  2  3  1  0
  3  4  1  0
  4  5  1  0
  5  6  1  0
  6  7  2  0
  6  8  1  0
  8  9  1  0
  9 10  2  0
 10 11  1  0
 10 12  1  0
 12 13  1  0
 13 14  1  0
 14 15  2  0
 15 16  1  0
 16 17  2  0
  9 18  1  0
 13 18  2  0
 17 18  1  0
  5 19  1  0
  2 20  1  0
 19 20  1  0
M  END
