SID-ELM-2583a2cd-15
     RDKit          3D

 19 20  0  0  0  0  0  0  0  0999 V2000
    3.8860    3.7540   19.9910 C   0  0  0  0  0  0  0  0  0  0  0  0
    3.6270    2.4000   19.9530 N   0  0  0  0  0  0  0  0  0  0  0  0
    2.3990    1.8420   20.3370 C   0  0  0  0  0  0  0  0  0  0  0  0
    4.7670    1.5520   19.6350 C   0  0  0  0  0  0  0  0  0  0  0  0
    5.0040    1.2820   18.2870 C   0  0  0  0  0  0  0  0  0  0  0  0
    6.1000    0.4450   17.7530 N   0  0  0  0  0  0  0  0  0  0  0  0
    6.9420   -0.0810   18.8370 C   0  0  0  0  0  0  0  0  0  0  0  0
    6.7260    0.1850   20.1710 C   0  0  0  0  0  0  0  0  0  0  0  0
    7.6380   -0.3800   21.0730 N   0  0  0  0  0  0  0  0  0  0  0  0
    8.7340    0.2920   21.5670 C   0  0  0  0  0  0  0  0  0  0  0  0
    9.1230    1.4360   21.3280 O   0  0  0  0  0  0  0  0  0  0  0  0
    9.5260   -0.4280   22.4350 C   0  0  0  0  0  0  0  0  0  0  0  0
   10.7010   -1.1150   22.7190 C   0  0  0  0  0  0  0  0  0  0  0  0
   11.8310   -0.3360   22.9180 C   0  0  0  0  0  0  0  0  0  0  0  0
   13.0280   -0.9820   22.7210 C   0  0  0  0  0  0  0  0  0  0  0  0
   13.1300   -1.7510   24.0380 C   0  0  0  0  0  0  0  0  0  0  0  0
   11.8970   -2.6370   24.1220 C   0  0  0  0  0  0  0  0  0  0  0  0
   10.6470   -2.0710   23.9280 C   0  0  0  0  0  0  0  0  0  0  0  0
    5.6450    0.9920   20.5730 C   0  0  0  0  0  0  0  0  0  0  0  0
  1  2  1  0
  2  3  1  0
  2  4  1  0
  4  5  2  0
  5  6  1  0
  6  7  2  0
  7  8  1  0
  8  9  1  0
  9 10  1  0
 10 11  2  0
 10 12  1  0
 12 13  1  0
 13 14  1  0
 14 15  1  0
 15 16  1  0
 16 17  1  0
 13 18  1  0
 17 18  1  0
  4 19  1  0
  8 19  2  0
M  END
