SID-ELM-b654bfa2-6
     RDKit          3D

 20 22  0  0  0  0  0  0  0  0999 V2000
    8.8280    0.8490   21.2640 O   0  0  0  0  0  0  0  0  0  0  0  0
    8.3300   -0.1960   21.6760 C   0  0  0  0  0  0  0  0  0  0  0  0
    8.9740   -1.0980   22.6190 N   0  0  0  0  0  0  0  0  0  0  0  0
   10.3980   -0.7200   22.6530 C   0  0  0  0  0  0  0  0  0  0  0  0
   10.5640    0.5990   22.8820 C   0  0  0  0  0  0  0  0  0  0  0  0
   11.8910    1.3190   22.9690 C   0  0  0  0  0  0  0  0  0  0  0  0
   13.1360    0.4820   22.7910 C   0  0  0  0  0  0  0  0  0  0  0  0
   12.9090   -0.9970   22.5370 C   0  0  0  0  0  0  0  0  0  0  0  0
   11.4790   -1.5780   22.4700 C   0  0  0  0  0  0  0  0  0  0  0  0
    7.0850   -0.6390   21.2840 N   0  0  0  0  0  0  0  0  0  0  0  0
    6.3970    0.0030   20.2920 C   0  0  0  0  0  0  0  0  0  0  0  0
    6.6050   -0.1620   18.9120 C   0  0  0  0  0  0  0  0  0  0  0  0
    7.5130   -1.0260   18.4510 F   0  0  0  0  0  0  0  0  0  0  0  0
    5.8550    0.6240   17.9350 N   0  0  0  0  0  0  0  0  0  0  0  0
    4.9060    1.5630   18.3180 C   0  0  0  0  0  0  0  0  0  0  0  0
    4.6810    1.6880   19.7910 C   0  0  0  0  0  0  0  0  0  0  0  0
    3.6520    2.6390   20.3850 N   0  0  0  0  0  0  0  0  0  0  0  0
    3.9260    2.2990   21.6160 C   0  0  0  0  0  0  0  0  0  0  0  0
    4.8900    1.3570   21.8600 C   0  0  0  0  0  0  0  0  0  0  0  0
    5.4160    0.9250   20.6910 N   0  0  0  0  0  0  0  0  0  0  0  0
  1  2  2  0
  2  3  1  0
  3  4  1  0
  4  5  2  0
  5  6  1  0
  6  7  2  0
  7  8  1  0
  4  9  1  0
  8  9  2  0
  2 10  1  0
 10 11  1  0
 11 12  2  0
 12 13  1  0
 12 14  1  0
 14 15  2  0
 15 16  1  0
 16 17  2  0
 17 18  1  0
 18 19  2  0
 11 20  1  0
 16 20  1  0
 19 20  1  0
M  END
