SID-ELM-8b394441-23
     RDKit          3D

 20 22  0  0  0  0  0  0  0  0999 V2000
    8.8640   -3.6600   22.7880 O   0  0  0  0  0  0  0  0  0  0  0  0
    8.3650   -2.5960   23.1030 C   0  0  0  0  0  0  0  0  0  0  0  0
    8.7860   -1.2560   22.4860 C   0  0  0  0  0  0  0  0  0  0  0  0
   10.1050   -0.9830   22.3730 C   0  0  0  0  0  0  0  0  0  0  0  0
   10.6180    0.1160   23.2780 C   0  0  0  0  0  0  0  0  0  0  0  0
   12.1210    0.4180   23.0550 C   0  0  0  0  0  0  0  0  0  0  0  0
   12.9490   -0.7350   23.5430 C   0  0  0  0  0  0  0  0  0  0  0  0
   11.9700   -1.8980   23.6780 C   0  0  0  0  0  0  0  0  0  0  0  0
   11.0880   -1.9650   22.3840 C   0  0  0  0  0  0  0  0  0  0  0  0
    7.3190   -2.4610   24.0990 N   0  0  0  0  0  0  0  0  0  0  0  0
    6.0740   -3.1440   24.1560 C   0  0  0  0  0  0  0  0  0  0  0  0
    5.9020   -4.5940   23.6350 C   0  0  0  0  0  0  0  0  0  0  0  0
    7.1400   -5.5840   22.9250 Cl  0  0  0  0  0  0  0  0  0  0  0  0
    4.7050   -5.2050   23.7150 N   0  0  0  0  0  0  0  0  0  0  0  0
    3.5220   -4.5630   24.2790 C   0  0  0  0  0  0  0  0  0  0  0  0
    3.7000   -3.1450   24.7870 C   0  0  0  0  0  0  0  0  0  0  0  0
    2.7550   -2.3640   25.3470 N   0  0  0  0  0  0  0  0  0  0  0  0
    3.4320   -1.1350   25.6480 C   0  0  0  0  0  0  0  0  0  0  0  0
    4.7560   -1.2330   25.2570 C   0  0  0  0  0  0  0  0  0  0  0  0
    4.9350   -2.5080   24.7070 N   0  0  0  0  0  0  0  0  0  0  0  0
  1  2  2  0
  2  3  1  0
  3  4  1  0
  4  5  1  0
  5  6  1  0
  6  7  1  0
  7  8  1  0
  4  9  1  0
  8  9  1  0
  2 10  1  0
 10 11  1  0
 11 12  2  0
 12 13  1  0
 12 14  1  0
 14 15  2  0
 15 16  1  0
 16 17  2  0
 17 18  1  0
 18 19  2  0
 11 20  1  0
 16 20  1  0
 19 20  1  0
M  END
