SID-ELM-8b394441-12
     RDKit          3D

 20 22  0  0  0  0  0  0  0  0999 V2000
    8.9070    0.8990   21.6870 O   0  0  0  0  0  0  0  0  0  0  0  0
    8.3830   -0.1230   22.1270 C   0  0  0  0  0  0  0  0  0  0  0  0
    9.1800   -1.1970   22.6500 N   0  0  0  0  0  0  0  0  0  0  0  0
   10.4250   -0.8130   22.7800 C   0  0  0  0  0  0  0  0  0  0  0  0
   10.6920    0.2950   23.4460 C   0  0  0  0  0  0  0  0  0  0  0  0
   12.0660    0.8260   23.6160 C   0  0  0  0  0  0  0  0  0  0  0  0
   13.2180    0.0700   23.0030 C   0  0  0  0  0  0  0  0  0  0  0  0
   12.9320   -1.2130   22.2470 C   0  0  0  0  0  0  0  0  0  0  0  0
   11.4400   -1.5820   22.1890 C   0  0  0  0  0  0  0  0  0  0  0  0
    7.0450   -0.2540   22.0990 N   0  0  0  0  0  0  0  0  0  0  0  0
    6.3030   -0.2170   21.0210 C   0  0  0  0  0  0  0  0  0  0  0  0
    5.9360    0.9410   20.3870 C   0  0  0  0  0  0  0  0  0  0  0  0
    6.3500    2.4970   20.9800 Cl  0  0  0  0  0  0  0  0  0  0  0  0
    5.2420    0.9840   19.2360 N   0  0  0  0  0  0  0  0  0  0  0  0
    4.9350   -0.2280   18.7240 C   0  0  0  0  0  0  0  0  0  0  0  0
    5.2080   -1.4550   19.3060 C   0  0  0  0  0  0  0  0  0  0  0  0
    4.9070   -2.7330   18.9400 N   0  0  0  0  0  0  0  0  0  0  0  0
    5.4350   -3.5810   19.9950 C   0  0  0  0  0  0  0  0  0  0  0  0
    6.0290   -2.7960   20.9210 C   0  0  0  0  0  0  0  0  0  0  0  0
    5.9020   -1.4130   20.4950 N   0  0  0  0  0  0  0  0  0  0  0  0
  1  2  2  0
  2  3  1  0
  3  4  1  0
  4  5  2  0
  5  6  1  0
  6  7  2  0
  7  8  1  0
  4  9  1  0
  8  9  2  0
  2 10  1  0
 10 11  1  0
 11 12  2  0
 12 13  1  0
 12 14  1  0
 14 15  2  0
 15 16  1  0
 16 17  2  0
 17 18  1  0
 18 19  2  0
 11 20  1  0
 16 20  1  0
 19 20  1  0
M  END
