SID-ELM-1f105489-11
     RDKit          3D

 19 21  0  0  0  0  0  0  0  0999 V2000
   13.2940   -1.8750   23.9160 C   0  0  0  0  0  0  0  0  0  0  0  0
   11.9930   -1.2520   23.8090 N   0  0  0  0  0  0  0  0  0  0  0  0
   11.0800   -2.1710   23.1040 C   0  0  0  0  0  0  0  0  0  0  0  0
    9.8400   -1.6120   22.8070 C   0  0  0  0  0  0  0  0  0  0  0  0
    9.9900   -0.2910   22.1760 N   0  0  0  0  0  0  0  0  0  0  0  0
    8.8260    0.2260   21.5220 C   0  0  0  0  0  0  0  0  0  0  0  0
    8.8780    1.6300   21.2870 O   0  0  0  0  0  0  0  0  0  0  0  0
    7.8250   -0.6200   21.1680 N   0  0  0  0  0  0  0  0  0  0  0  0
    7.0760   -0.2600   20.0890 C   0  0  0  0  0  0  0  0  0  0  0  0
    7.3020   -0.5880   18.6450 C   0  0  0  0  0  0  0  0  0  0  0  0
    6.3130    0.0200   17.9480 N   0  0  0  0  0  0  0  0  0  0  0  0
    5.4710    0.6960   18.8010 C   0  0  0  0  0  0  0  0  0  0  0  0
    4.3970    1.3980   18.4280 N   0  0  0  0  0  0  0  0  0  0  0  0
    3.7610    1.9450   19.4870 C   0  0  0  0  0  0  0  0  0  0  0  0
    4.1840    1.7950   20.8150 C   0  0  0  0  0  0  0  0  0  0  0  0
    5.2750    1.0900   21.1840 N   0  0  0  0  0  0  0  0  0  0  0  0
    5.9170    0.5330   20.1210 C   0  0  0  0  0  0  0  0  0  0  0  0
   10.8430    0.5920   22.9090 C   0  0  0  0  0  0  0  0  0  0  0  0
   12.0920    0.0500   23.1370 C   0  0  0  0  0  0  0  0  0  0  0  0
  1  2  1  0
  2  3  1  0
  3  4  1  0
  4  5  1  0
  5  6  1  0
  6  7  2  0
  6  8  1  0
  8  9  1  0
  9 10  2  0
 10 11  1  0
 11 12  1  0
 12 13  1  0
 13 14  2  0
 14 15  1  0
 15 16  2  0
  9 17  1  0
 12 17  2  0
 16 17  1  0
  5 18  1  0
  2 19  1  0
 18 19  1  0
M  END
