SID-ELM-1f105489-3
     RDKit          3D

 20 22  0  0  0  0  0  0  0  0999 V2000
   12.9980   -1.3900   24.3310 C   0  0  0  0  0  0  0  0  0  0  0  0
   12.3820   -0.9590   23.1850 N   0  0  0  0  0  0  0  0  0  0  0  0
   11.5410   -1.8640   22.4390 C   0  0  0  0  0  0  0  0  0  0  0  0
   10.1780   -1.6630   22.6640 C   0  0  0  0  0  0  0  0  0  0  0  0
    9.8390   -0.2530   22.5200 N   0  0  0  0  0  0  0  0  0  0  0  0
    8.8680    0.2240   21.6280 C   0  0  0  0  0  0  0  0  0  0  0  0
    8.9170    1.4100   21.2400 O   0  0  0  0  0  0  0  0  0  0  0  0
    7.8620   -0.6330   21.1730 C   0  0  0  0  0  0  0  0  0  0  0  0
    7.0100   -0.1910   20.1560 C   0  0  0  0  0  0  0  0  0  0  0  0
    7.1340   -0.5920   18.7670 C   0  0  0  0  0  0  0  0  0  0  0  0
    7.9960   -1.4060   18.2420 F   0  0  0  0  0  0  0  0  0  0  0  0
    6.1120    0.0920   18.0510 N   0  0  0  0  0  0  0  0  0  0  0  0
    5.3140    0.8870   18.9070 C   0  0  0  0  0  0  0  0  0  0  0  0
    4.2610    1.6460   18.5440 N   0  0  0  0  0  0  0  0  0  0  0  0
    3.6610    2.3010   19.5660 C   0  0  0  0  0  0  0  0  0  0  0  0
    4.0560    2.2300   20.8310 C   0  0  0  0  0  0  0  0  0  0  0  0
    5.2040    1.4060   21.1710 C   0  0  0  0  0  0  0  0  0  0  0  0
    5.8730    0.7000   20.1990 C   0  0  0  0  0  0  0  0  0  0  0  0
   10.4730    0.5640   23.3400 C   0  0  0  0  0  0  0  0  0  0  0  0
   11.8770    0.4380   23.2830 C   0  0  0  0  0  0  0  0  0  0  0  0
  1  2  1  0
  2  3  1  0
  3  4  1  0
  4  5  1  0
  5  6  1  0
  6  7  2  0
  6  8  1  0
  8  9  1  0
  9 10  2  0
 10 11  1  0
 10 12  1  0
 12 13  1  0
 13 14  1  0
 14 15  2  0
 15 16  1  0
 16 17  2  0
  9 18  1  0
 13 18  2  0
 17 18  1  0
  5 19  1  0
  2 20  1  0
 19 20  1  0
M  END
