SID-ELM-b654bfa2-7
     RDKit          3D

 21 23  0  0  0  0  0  0  0  0999 V2000
    8.7140    0.8390   21.5670 O   0  0  0  0  0  0  0  0  0  0  0  0
    8.3110   -0.2940   21.8150 C   0  0  0  0  0  0  0  0  0  0  0  0
    9.0760   -1.2350   22.6120 N   0  0  0  0  0  0  0  0  0  0  0  0
   10.4420   -0.7540   22.7460 C   0  0  0  0  0  0  0  0  0  0  0  0
   10.5620    0.5560   23.0190 C   0  0  0  0  0  0  0  0  0  0  0  0
   11.9880    1.0550   23.1440 C   0  0  0  0  0  0  0  0  0  0  0  0
   13.0910    0.1710   22.9790 C   0  0  0  0  0  0  0  0  0  0  0  0
   12.8600   -1.1730   22.7030 C   0  0  0  0  0  0  0  0  0  0  0  0
   11.5430   -1.6230   22.5890 C   0  0  0  0  0  0  0  0  0  0  0  0
    7.1060   -0.6920   21.3210 N   0  0  0  0  0  0  0  0  0  0  0  0
    6.6910   -0.2290   20.1410 C   0  0  0  0  0  0  0  0  0  0  0  0
    6.9670   -0.4600   18.7650 C   0  0  0  0  0  0  0  0  0  0  0  0
    7.8210   -1.3240   18.2640 F   0  0  0  0  0  0  0  0  0  0  0  0
    6.1680    0.4000   18.0070 N   0  0  0  0  0  0  0  0  0  0  0  0
    5.2280    1.3260   18.6870 C   0  0  0  0  0  0  0  0  0  0  0  0
    4.9800    1.4880   20.1660 C   0  0  0  0  0  0  0  0  0  0  0  0
    4.0720    2.4230   19.9180 N   0  0  0  0  0  0  0  0  0  0  0  0
    4.0580    2.5570   18.6010 C   0  0  0  0  0  0  0  0  0  0  0  0
    4.9550    1.7160   17.8060 C   0  0  0  0  0  0  0  0  0  0  0  0
    5.8190    0.7800   18.3340 N   0  0  0  0  0  0  0  0  0  0  0  0
    5.8290    0.6630   19.7080 C   0  0  0  0  0  0  0  0  0  0  0  0
  1  2  2  0
  2  3  1  0
  3  4  1  0
  4  5  2  0
  5  6  1  0
  6  7  2  0
  7  8  1  0
  4  9  1  0
  8  9  2  0
  2 10  1  0
 10 11  1  0
 11 12  2  0
 12 13  1  0
 12 14  1  0
 14 15  2  0
 15 16  1  0
 16 17  1  0
 17 18  2  0
 18 19  1  0
 19 20  2  0
 11 21  1  0
 16 21  2  0
 20 21  1  0
M  END
