SID-ELM-b654bfa2-15
     RDKit          3D

 21 23  0  0  0  0  0  0  0  0999 V2000
    9.2710    0.5690   21.7130 O   0  0  0  0  0  0  0  0  0  0  0  0
    8.5780   -0.4270   21.9130 C   0  0  0  0  0  0  0  0  0  0  0  0
    9.0120   -1.5940   22.7430 C   0  0  0  0  0  0  0  0  0  0  0  0
   10.3400   -2.0510   22.7050 C   0  0  0  0  0  0  0  0  0  0  0  0
   11.4030   -1.1930   22.1060 C   0  0  0  0  0  0  0  0  0  0  0  0
   12.6920   -1.1110   22.6140 C   0  0  0  0  0  0  0  0  0  0  0  0
   13.1150   -2.1520   23.6000 C   0  0  0  0  0  0  0  0  0  0  0  0
   12.1990   -2.4980   24.4920 C   0  0  0  0  0  0  0  0  0  0  0  0
   10.7350   -2.4890   24.1260 C   0  0  0  0  0  0  0  0  0  0  0  0
    7.2910   -0.6200   21.4290 N   0  0  0  0  0  0  0  0  0  0  0  0
    6.8320   -0.2130   20.1830 C   0  0  0  0  0  0  0  0  0  0  0  0
    7.0200   -0.4760   18.7890 C   0  0  0  0  0  0  0  0  0  0  0  0
    7.8330   -1.3500   18.2470 F   0  0  0  0  0  0  0  0  0  0  0  0
    6.1800    0.3620   18.0520 N   0  0  0  0  0  0  0  0  0  0  0  0
    5.2790    1.3060   18.7440 C   0  0  0  0  0  0  0  0  0  0  0  0
    5.1120    1.5130   20.2050 C   0  0  0  0  0  0  0  0  0  0  0  0
    4.1950    2.4330   19.9470 N   0  0  0  0  0  0  0  0  0  0  0  0
    4.1270    2.5000   18.6280 C   0  0  0  0  0  0  0  0  0  0  0  0
    4.9450    1.6700   17.8390 C   0  0  0  0  0  0  0  0  0  0  0  0
    5.8640    0.7310   18.3810 N   0  0  0  0  0  0  0  0  0  0  0  0
    5.9420    0.6690   19.7470 C   0  0  0  0  0  0  0  0  0  0  0  0
  1  2  2  0
  2  3  1  0
  3  4  1  0
  4  5  1  0
  5  6  1  0
  6  7  1  0
  7  8  1  0
  4  9  1  0
  8  9  1  0
  2 10  1  0
 10 11  1  0
 11 12  2  0
 12 13  1  0
 12 14  1  0
 14 15  2  0
 15 16  1  0
 16 17  1  0
 17 18  2  0
 18 19  1  0
 19 20  2  0
 11 21  1  0
 16 21  2  0
 20 21  1  0
M  END
