SID-ELM-2583a2cd-5
     RDKit          3D

 17 18  0  0  0  0  0  0  0  0999 V2000
    3.4000    2.0750   19.6450 N   0  0  0  0  0  0  0  0  0  0  0  0
    4.5850    1.3860   19.3880 C   0  0  0  0  0  0  0  0  0  0  0  0
    5.1210    1.1700   17.9880 C   0  0  0  0  0  0  0  0  0  0  0  0
    6.2480    0.5090   17.7100 N   0  0  0  0  0  0  0  0  0  0  0  0
    6.9290    0.0240   18.7570 C   0  0  0  0  0  0  0  0  0  0  0  0
    6.5460    0.1710   20.0780 C   0  0  0  0  0  0  0  0  0  0  0  0
    7.4150   -0.3980   21.0940 N   0  0  0  0  0  0  0  0  0  0  0  0
    8.5030    0.2510   21.6420 C   0  0  0  0  0  0  0  0  0  0  0  0
    8.9700    1.3350   21.2560 O   0  0  0  0  0  0  0  0  0  0  0  0
    8.9750   -0.5150   22.6810 N   0  0  0  0  0  0  0  0  0  0  0  0
   10.2920   -0.6380   23.1160 C   0  0  0  0  0  0  0  0  0  0  0  0
   10.7660   -0.1220   24.3310 C   0  0  0  0  0  0  0  0  0  0  0  0
   12.0540   -0.4190   24.4360 C   0  0  0  0  0  0  0  0  0  0  0  0
   13.0630   -1.0230   23.8170 C   0  0  0  0  0  0  0  0  0  0  0  0
   12.5960   -1.5260   22.6250 C   0  0  0  0  0  0  0  0  0  0  0  0
   11.2390   -1.3440   22.2750 C   0  0  0  0  0  0  0  0  0  0  0  0
    5.3660    0.8500   20.4070 C   0  0  0  0  0  0  0  0  0  0  0  0
  1  2  1  0
  2  3  2  0
  3  4  1  0
  4  5  2  0
  5  6  1  0
  6  7  1  0
  7  8  1  0
  8  9  2  0
  8 10  1  0
 10 11  1  0
 11 12  2  0
 12 13  1  0
 13 14  2  0
 14 15  1  0
 11 16  1  0
 15 16  2  0
  2 17  1  0
  6 17  2  0
M  END
