SID-ELM-1f105489-5
     RDKit          3D

 20 22  0  0  0  0  0  0  0  0999 V2000
   13.2220   -1.6120   23.6080 C   0  0  0  0  0  0  0  0  0  0  0  0
   12.1360   -1.0650   22.9800 N   0  0  0  0  0  0  0  0  0  0  0  0
   11.0310   -1.8940   23.4170 C   0  0  0  0  0  0  0  0  0  0  0  0
    9.9890   -1.5840   22.5610 C   0  0  0  0  0  0  0  0  0  0  0  0
    9.8590   -0.1370   22.3730 N   0  0  0  0  0  0  0  0  0  0  0  0
    8.8160    0.3230   21.5680 C   0  0  0  0  0  0  0  0  0  0  0  0
    8.7820    1.5050   21.1700 O   0  0  0  0  0  0  0  0  0  0  0  0
    7.7910   -0.5560   21.1890 C   0  0  0  0  0  0  0  0  0  0  0  0
    6.9070   -0.1120   20.0470 C   0  0  0  0  0  0  0  0  0  0  0  0
    7.0600   -0.4780   18.7840 C   0  0  0  0  0  0  0  0  0  0  0  0
    7.9680   -1.2890   18.3240 F   0  0  0  0  0  0  0  0  0  0  0  0
    6.1340    0.1130   18.0060 N   0  0  0  0  0  0  0  0  0  0  0  0
    5.3490    0.8620   18.8080 C   0  0  0  0  0  0  0  0  0  0  0  0
    4.3360    1.5890   18.4910 N   0  0  0  0  0  0  0  0  0  0  0  0
    3.7050    2.2610   19.6280 C   0  0  0  0  0  0  0  0  0  0  0  0
    4.0870    2.2260   21.1480 C   0  0  0  0  0  0  0  0  0  0  0  0
    5.1980    1.3780   21.1060 N   0  0  0  0  0  0  0  0  0  0  0  0
    5.7770    0.7550   20.0760 C   0  0  0  0  0  0  0  0  0  0  0  0
   10.5890    0.6750   23.3680 C   0  0  0  0  0  0  0  0  0  0  0  0
   11.9480    0.3380   23.4080 C   0  0  0  0  0  0  0  0  0  0  0  0
  1  2  1  0
  2  3  1  0
  3  4  1  0
  4  5  1  0
  5  6  1  0
  6  7  2  0
  6  8  1  0
  8  9  1  0
  9 10  2  0
 10 11  1  0
 10 12  1  0
 12 13  1  0
 13 14  1  0
 14 15  2  0
 15 16  1  0
 16 17  2  0
  9 18  1  0
 13 18  2  0
 17 18  1  0
  5 19  1  0
  2 20  1  0
 19 20  1  0
M  END
