SID-ELM-b654bfa2-1
     RDKit          3D

 18 19  0  0  0  0  0  0  0  0999 V2000
    3.3970    2.2080   19.7260 N   0  0  0  0  0  0  0  0  0  0  0  0
    4.5000    1.4130   19.4270 C   0  0  0  0  0  0  0  0  0  0  0  0
    5.0880    1.3020   18.0500 C   0  0  0  0  0  0  0  0  0  0  0  0
    6.1430    0.5280   17.7770 N   0  0  0  0  0  0  0  0  0  0  0  0
    6.6670   -0.1530   18.8030 C   0  0  0  0  0  0  0  0  0  0  0  0
    7.7140   -0.9650   18.6600 F   0  0  0  0  0  0  0  0  0  0  0  0
    6.1680   -0.1110   20.2360 C   0  0  0  0  0  0  0  0  0  0  0  0
    6.9100   -0.9050   21.0930 N   0  0  0  0  0  0  0  0  0  0  0  0
    8.2070   -0.4620   21.6060 C   0  0  0  0  0  0  0  0  0  0  0  0
    8.7250    0.6590   21.5050 O   0  0  0  0  0  0  0  0  0  0  0  0
    9.0370   -1.4270   22.3470 N   0  0  0  0  0  0  0  0  0  0  0  0
   10.3280   -0.9710   22.5890 C   0  0  0  0  0  0  0  0  0  0  0  0
   10.4550    0.3440   23.3100 C   0  0  0  0  0  0  0  0  0  0  0  0
   11.8870    0.7860   23.5270 C   0  0  0  0  0  0  0  0  0  0  0  0
   13.0090    0.1390   23.1490 C   0  0  0  0  0  0  0  0  0  0  0  0
   12.7870   -1.2230   22.4170 C   0  0  0  0  0  0  0  0  0  0  0  0
   11.4820   -1.6950   22.1790 C   0  0  0  0  0  0  0  0  0  0  0  0
    5.0780    0.6930   20.4670 C   0  0  0  0  0  0  0  0  0  0  0  0
  1  2  1  0
  2  3  2  0
  3  4  1  0
  4  5  2  0
  5  6  1  0
  5  7  1  0
  7  8  1  0
  8  9  1  0
  9 10  2  0
  9 11  1  0
 11 12  1  0
 12 13  2  0
 13 14  1  0
 14 15  2  0
 15 16  1  0
 12 17  1  0
 16 17  2  0
  2 18  1  0
  7 18  2  0
M  END
