SID-ELM-1f105489-16
     RDKit          3D

 20 22  0  0  0  0  0  0  0  0999 V2000
   13.2070   -1.9380   23.8310 C   0  0  0  0  0  0  0  0  0  0  0  0
   11.9780   -1.3100   23.4110 N   0  0  0  0  0  0  0  0  0  0  0  0
   11.0800   -1.9030   22.5910 C   0  0  0  0  0  0  0  0  0  0  0  0
    9.8540   -1.4220   22.3000 C   0  0  0  0  0  0  0  0  0  0  0  0
    9.9780   -0.0850   22.0050 N   0  0  0  0  0  0  0  0  0  0  0  0
    8.8160    0.4470   21.4940 C   0  0  0  0  0  0  0  0  0  0  0  0
    8.7050    1.6060   21.0870 O   0  0  0  0  0  0  0  0  0  0  0  0
    7.6720   -0.3270   21.4150 N   0  0  0  0  0  0  0  0  0  0  0  0
    6.3790    0.2330   21.0070 C   0  0  0  0  0  0  0  0  0  0  0  0
    5.3630   -0.6770   20.4490 C   0  0  0  0  0  0  0  0  0  0  0  0
    5.4140   -2.3700   20.1720 Cl  0  0  0  0  0  0  0  0  0  0  0  0
    4.2640    0.2090   20.1730 N   0  0  0  0  0  0  0  0  0  0  0  0
    4.5610    1.5460   20.5250 C   0  0  0  0  0  0  0  0  0  0  0  0
    3.7290    2.6230   20.3880 N   0  0  0  0  0  0  0  0  0  0  0  0
    4.3650    3.7310   20.8290 C   0  0  0  0  0  0  0  0  0  0  0  0
    5.6440    3.7790   21.3430 C   0  0  0  0  0  0  0  0  0  0  0  0
    6.4860    2.7250   21.4910 N   0  0  0  0  0  0  0  0  0  0  0  0
    5.8980    1.5740   21.0550 C   0  0  0  0  0  0  0  0  0  0  0  0
   10.7850    0.6820   22.9290 C   0  0  0  0  0  0  0  0  0  0  0  0
   12.1710    0.0890   23.1070 C   0  0  0  0  0  0  0  0  0  0  0  0
  1  2  1  0
  2  3  1  0
  3  4  1  0
  4  5  1  0
  5  6  1  0
  6  7  2  0
  6  8  1  0
  8  9  1  0
  9 10  2  0
 10 11  1  0
 10 12  1  0
 12 13  1  0
 13 14  1  0
 14 15  2  0
 15 16  1  0
 16 17  2  0
  9 18  1  0
 13 18  2  0
 17 18  1  0
  5 19  1  0
  2 20  1  0
 19 20  1  0
M  END
