SID-ELM-2583a2cd-14
     RDKit          3D

 19 21  0  0  0  0  0  0  0  0999 V2000
    8.6450    1.0820   21.1490 O   0  0  0  0  0  0  0  0  0  0  0  0
    8.2930   -0.0380   21.4700 C   0  0  0  0  0  0  0  0  0  0  0  0
    9.0880   -0.9780   22.0620 N   0  0  0  0  0  0  0  0  0  0  0  0
   10.4000   -0.7790   22.4820 C   0  0  0  0  0  0  0  0  0  0  0  0
   10.6550    0.4370   23.2270 C   0  0  0  0  0  0  0  0  0  0  0  0
   11.9350    0.6990   23.6740 C   0  0  0  0  0  0  0  0  0  0  0  0
   12.9510   -0.2040   23.4010 C   0  0  0  0  0  0  0  0  0  0  0  0
   12.7250   -1.3620   22.6950 C   0  0  0  0  0  0  0  0  0  0  0  0
   11.4390   -1.6630   22.2250 C   0  0  0  0  0  0  0  0  0  0  0  0
    6.9570   -0.4190   21.2200 N   0  0  0  0  0  0  0  0  0  0  0  0
    6.2640    0.2670   20.3050 C   0  0  0  0  0  0  0  0  0  0  0  0
    6.6730    0.0170   18.8490 C   0  0  0  0  0  0  0  0  0  0  0  0
    6.0500    0.6740   17.8530 N   0  0  0  0  0  0  0  0  0  0  0  0
    5.0090    1.6000   18.2300 C   0  0  0  0  0  0  0  0  0  0  0  0
    4.6210    1.8080   19.6040 C   0  0  0  0  0  0  0  0  0  0  0  0
    3.6250    2.6530   20.0480 N   0  0  0  0  0  0  0  0  0  0  0  0
    3.5220    2.6020   21.4820 C   0  0  0  0  0  0  0  0  0  0  0  0
    4.6000    1.6000   21.8670 C   0  0  0  0  0  0  0  0  0  0  0  0
    5.2630    1.1310   20.6300 N   0  0  0  0  0  0  0  0  0  0  0  0
  1  2  2  0
  2  3  1  0
  3  4  1  0
  4  5  2  0
  5  6  1  0
  6  7  2  0
  7  8  1  0
  4  9  1  0
  8  9  2  0
  2 10  1  0
 10 11  1  0
 11 12  2  0
 12 13  1  0
 13 14  2  0
 14 15  1  0
 15 16  2  0
 16 17  1  0
 17 18  2  0
 11 19  1  0
 15 19  1  0
 18 19  1  0
M  END
