SID-ELM-8b394441-21
     RDKit          3D

 20 22  0  0  0  0  0  0  0  0999 V2000
    8.9420    0.8350   21.5780 O   0  0  0  0  0  0  0  0  0  0  0  0
    8.3060   -0.2090   21.7070 C   0  0  0  0  0  0  0  0  0  0  0  0
    9.0630   -1.4470   22.1270 C   0  0  0  0  0  0  0  0  0  0  0  0
   10.4300   -1.2860   22.6200 C   0  0  0  0  0  0  0  0  0  0  0  0
   10.7930   -0.0140   23.0750 C   0  0  0  0  0  0  0  0  0  0  0  0
   11.8750   -0.0230   23.9720 C   0  0  0  0  0  0  0  0  0  0  0  0
   12.8330   -0.9820   23.6790 C   0  0  0  0  0  0  0  0  0  0  0  0
   12.3820   -2.2920   23.9070 C   0  0  0  0  0  0  0  0  0  0  0  0
   10.9070   -2.3950   23.5650 C   0  0  0  0  0  0  0  0  0  0  0  0
    6.9450   -0.3890   21.4950 N   0  0  0  0  0  0  0  0  0  0  0  0
    6.2770    0.2070   20.4020 C   0  0  0  0  0  0  0  0  0  0  0  0
    6.4840   -0.1460   19.0040 C   0  0  0  0  0  0  0  0  0  0  0  0
    7.5400   -1.3690   18.5880 Cl  0  0  0  0  0  0  0  0  0  0  0  0
    5.9080    0.3980   17.9370 N   0  0  0  0  0  0  0  0  0  0  0  0
    4.9520    1.4510   18.2050 C   0  0  0  0  0  0  0  0  0  0  0  0
    4.6570    1.8520   19.5220 C   0  0  0  0  0  0  0  0  0  0  0  0
    3.6850    2.8910   19.7630 N   0  0  0  0  0  0  0  0  0  0  0  0
    3.8630    2.8120   21.2330 C   0  0  0  0  0  0  0  0  0  0  0  0
    4.8190    1.8510   21.8090 C   0  0  0  0  0  0  0  0  0  0  0  0
    5.3340    1.2180   20.6120 C   0  0  0  0  0  0  0  0  0  0  0  0
  1  2  2  0
  2  3  1  0
  3  4  1  0
  4  5  1  0
  5  6  1  0
  6  7  1  0
  7  8  1  0
  4  9  1  0
  8  9  1  0
  2 10  1  0
 10 11  1  0
 11 12  2  0
 12 13  1  0
 12 14  1  0
 14 15  2  0
 15 16  1  0
 16 17  1  0
 17 18  1  0
 18 19  2  0
 11 20  1  0
 16 20  2  0
 19 20  1  0
M  END
