SID-ELM-b654bfa2-19
     RDKit          3D

 20 22  0  0  0  0  0  0  0  0999 V2000
    8.8160    1.3080   21.2030 O   0  0  0  0  0  0  0  0  0  0  0  0
    8.2560    0.2590   21.5770 C   0  0  0  0  0  0  0  0  0  0  0  0
    8.8720   -0.6420   22.5110 N   0  0  0  0  0  0  0  0  0  0  0  0
   10.1630   -0.4960   22.7810 C   0  0  0  0  0  0  0  0  0  0  0  0
   10.7500    0.6940   22.9460 C   0  0  0  0  0  0  0  0  0  0  0  0
   12.2110    0.8330   23.2490 C   0  0  0  0  0  0  0  0  0  0  0  0
   13.0510   -0.4220   23.3770 C   0  0  0  0  0  0  0  0  0  0  0  0
   12.3990   -1.7620   23.1890 C   0  0  0  0  0  0  0  0  0  0  0  0
   10.8980   -1.6880   22.8820 C   0  0  0  0  0  0  0  0  0  0  0  0
    7.0220   -0.0910   21.1280 N   0  0  0  0  0  0  0  0  0  0  0  0
    6.3420    0.3530   20.0780 C   0  0  0  0  0  0  0  0  0  0  0  0
    6.6600   -0.0370   18.7860 C   0  0  0  0  0  0  0  0  0  0  0  0
    7.6730   -0.9150   18.6560 F   0  0  0  0  0  0  0  0  0  0  0  0
    6.0460    0.3910   17.6860 N   0  0  0  0  0  0  0  0  0  0  0  0
    5.0870    1.2350   18.0390 C   0  0  0  0  0  0  0  0  0  0  0  0
    4.8650    1.5200   19.3420 C   0  0  0  0  0  0  0  0  0  0  0  0
    4.1550    2.2030   20.5320 N   0  0  0  0  0  0  0  0  0  0  0  0
    3.3960    2.7790   19.8030 C   0  0  0  0  0  0  0  0  0  0  0  0
    4.2450    2.0270   19.2680 N   0  0  0  0  0  0  0  0  0  0  0  0
    5.2700    1.2590   20.2740 C   0  0  0  0  0  0  0  0  0  0  0  0
  1  2  2  0
  2  3  1  0
  3  4  1  0
  4  5  2  0
  5  6  1  0
  6  7  2  0
  7  8  1  0
  4  9  1  0
  8  9  2  0
  2 10  1  0
 10 11  1  0
 11 12  2  0
 12 13  1  0
 12 14  1  0
 14 15  2  0
 15 16  1  0
 16 17  1  0
 17 18  1  0
 18 19  2  0
 11 20  1  0
 16 20  2  0
 19 20  1  0
M  END
