SIM-DEM-5935bd74-4
     RDKit          3D

 20 21  0  0  0  0  0  0  0  0999 V2000
    9.6230    5.6480   22.8240 C   0  0  0  0  0  0  0  0  0  0  0  0
   10.5470    5.6020   23.9730 C   0  0  0  0  0  0  0  0  0  0  0  0
   10.1290    5.9440   25.0810 O   0  0  0  0  0  0  0  0  0  0  0  0
   11.8590    5.1790   23.7620 N   0  0  0  0  0  0  0  0  0  0  0  0
   12.2490    4.3030   22.6390 C   0  0  0  0  0  0  0  0  0  0  0  0
   12.1960    2.7940   22.8680 C   0  0  0  0  0  0  0  0  0  0  0  0
   11.0500    2.2540   23.4250 C   0  0  0  0  0  0  0  0  0  0  0  0
    9.9840    3.0410   24.1260 C   0  0  0  0  0  0  0  0  0  0  0  0
    8.8990    2.1290   24.5810 C   0  0  0  0  0  0  0  0  0  0  0  0
   10.0890    1.5620   23.7640 C   0  0  0  0  0  0  0  0  0  0  0  0
   10.6740    0.3310   22.8060 C   0  0  0  0  0  0  0  0  0  0  0  0
   11.7930   -0.2020   23.0610 C   0  0  0  0  0  0  0  0  0  0  0  0
   13.3030   -0.7640   22.4730 S   0  0  0  0  0  0  0  0  0  0  0  0
   13.6180   -1.9100   23.6780 N   0  0  0  0  0  0  0  0  0  0  0  0
   13.1550   -1.4810   21.2290 O   0  0  0  0  0  0  0  0  0  0  0  0
   14.1190    0.3870   22.6500 O   0  0  0  0  0  0  0  0  0  0  0  0
   11.1340   -0.9060   24.0580 C   0  0  0  0  0  0  0  0  0  0  0  0
    9.7340   -0.5900   24.3370 C   0  0  0  0  0  0  0  0  0  0  0  0
    9.3530    0.6970   24.1270 C   0  0  0  0  0  0  0  0  0  0  0  0
   10.6660    0.8350   23.5380 C   0  0  0  0  0  0  0  0  0  0  0  0
  1  2  1  0
  2  3  2  0
  2  4  1  0
  4  5  1  0
  5  6  1  0
  6  7  1  0
  7  8  2  0
  8  9  1  0
  9 10  2  0
 10 11  1  0
 11 12  2  0
 12 13  1  0
 13 14  1  0
 13 15  2  0
 13 16  2  0
 12 17  1  0
 17 18  2  0
 10 19  1  0
 18 19  1  0
  7 20  1  0
 19 20  2  0
M  END
