SIM-DEM-163f01e0-1
     RDKit          3D

 29 30  0  0  0  0  0  0  0  0999 V2000
    2.3450    3.0610   23.4650 C   0  0  0  0  0  0  0  0  0  0  0  0
    2.7520    2.5450   24.8170 C   0  0  0  0  0  0  0  0  0  0  0  0
    2.8850    3.2840   25.7920 O   0  0  0  0  0  0  0  0  0  0  0  0
    2.9540    1.1900   24.8370 N   0  0  0  0  0  0  0  0  0  0  0  0
    4.1270    0.6260   25.4590 C   0  0  0  0  0  0  0  0  0  0  0  0
    5.1110    0.2060   24.4040 C   0  0  0  0  0  0  0  0  0  0  0  0
    6.0490   -0.8590   24.7800 N   0  0  0  0  0  0  0  0  0  0  0  0
    5.9220   -2.0690   23.9260 C   0  0  0  0  0  0  0  0  0  0  0  0
    6.9150   -2.1220   22.9150 C   0  0  0  0  0  0  0  0  0  0  0  0
    8.2750   -2.2360   23.3000 C   0  0  0  0  0  0  0  0  0  0  0  0
    8.5900   -3.5320   23.6450 C   0  0  0  0  0  0  0  0  0  0  0  0
    7.6340   -4.0800   24.6220 N   0  0  0  0  0  0  0  0  0  0  0  0
    8.0640   -4.5480   26.1750 S   0  0  0  0  0  0  0  0  0  0  0  0
    6.6160   -5.4420   26.6980 C   0  0  0  0  0  0  0  0  0  0  0  0
    9.1530   -5.4900   26.0380 O   0  0  0  0  0  0  0  0  0  0  0  0
    8.1530   -3.3780   27.0150 O   0  0  0  0  0  0  0  0  0  0  0  0
    9.2950   -1.6450   22.2820 C   0  0  0  0  0  0  0  0  0  0  0  0
    8.8130   -0.3880   21.5680 C   0  0  0  0  0  0  0  0  0  0  0  0
    9.4080    0.6810   21.5060 O   0  0  0  0  0  0  0  0  0  0  0  0
    7.5720   -0.7000   21.0510 N   0  0  0  0  0  0  0  0  0  0  0  0
    6.7810   -0.0240   20.1220 C   0  0  0  0  0  0  0  0  0  0  0  0
    7.0490   -0.0970   18.6360 C   0  0  0  0  0  0  0  0  0  0  0  0
    6.3190    0.5320   17.6890 N   0  0  0  0  0  0  0  0  0  0  0  0
    5.2840    1.2700   18.0910 C   0  0  0  0  0  0  0  0  0  0  0  0
    4.9320    1.4040   19.5590 C   0  0  0  0  0  0  0  0  0  0  0  0
    5.6880    0.7540   20.5350 C   0  0  0  0  0  0  0  0  0  0  0  0
    5.3280    0.9010   21.8780 C   0  0  0  0  0  0  0  0  0  0  0  0
    8.4180   -1.3970   24.5270 C   0  0  0  0  0  0  0  0  0  0  0  0
    7.3760   -0.2920   24.6450 C   0  0  0  0  0  0  0  0  0  0  0  0
  1  2  1  0
  2  3  2  0
  2  4  1  0
  4  5  1  0
  5  6  1  0
  6  7  1  0
  7  8  1  0
  8  9  1  0
  9 10  1  0
 10 11  1  0
 11 12  1  0
 13 12  1  0
 13 14  1  0
 13 15  2  0
 13 16  2  0
 10 17  1  0
 17 18  1  0
 18 19  2  0
 18 20  1  0
 20 21  1  0
 21 22  2  0
 22 23  1  0
 23 24  2  0
 24 25  1  0
 21 26  1  0
 25 26  2  0
 26 27  1  0
 10 28  1  0
  7 29  1  0
 28 29  1  0
M  END
