SIM-DEM-2843056b-1
     RDKit          3D

 25 27  0  0  0  0  0  0  0  0999 V2000
    2.4970    0.9230   21.5440 O   0  0  0  0  0  0  0  0  0  0  0  0
    3.5910    0.5620   21.9710 C   0  0  0  0  0  0  0  0  0  0  0  0
    3.9440    0.7470   23.4030 C   0  0  0  0  0  0  0  0  0  0  0  0
    3.2320    1.5050   24.2510 C   0  0  0  0  0  0  0  0  0  0  0  0
    4.1100    2.0210   25.3270 N   0  0  0  0  0  0  0  0  0  0  0  0
    4.5490    3.4220   25.0890 C   0  0  0  0  0  0  0  0  0  0  0  0
    3.8520    4.3870   26.0590 C   0  0  0  0  0  0  0  0  0  0  0  0
    4.1590    4.1070   27.4300 O   0  0  0  0  0  0  0  0  0  0  0  0
    4.2340    2.6970   27.6860 C   0  0  0  0  0  0  0  0  0  0  0  0
    3.5240    1.8890   26.5640 C   0  0  0  0  0  0  0  0  0  0  0  0
    4.6110   -0.0370   21.2460 N   0  0  0  0  0  0  0  0  0  0  0  0
    5.0310    0.3160   19.9850 C   0  0  0  0  0  0  0  0  0  0  0  0
    4.8190    1.2060   19.0480 C   0  0  0  0  0  0  0  0  0  0  0  0
    3.9990    2.3460   18.8130 C   0  0  0  0  0  0  0  0  0  0  0  0
    5.0320    1.8340   17.7400 C   0  0  0  0  0  0  0  0  0  0  0  0
    5.9260    0.6900   17.8520 N   0  0  0  0  0  0  0  0  0  0  0  0
    5.9360   -0.1690   19.1030 C   0  0  0  0  0  0  0  0  0  0  0  0
    6.7780   -1.2540   19.2070 C   0  0  0  0  0  0  0  0  0  0  0  0
    6.8220   -1.6380   20.5180 N   0  0  0  0  0  0  0  0  0  0  0  0
    6.0480   -2.8760   20.7420 C   0  0  0  0  0  0  0  0  0  0  0  0
    5.3490   -3.4070   19.8810 O   0  0  0  0  0  0  0  0  0  0  0  0
    6.2220   -3.3700   22.0130 N   0  0  0  0  0  0  0  0  0  0  0  0
    6.5150   -4.7530   22.1980 C   0  0  0  0  0  0  0  0  0  0  0  0
    6.2540   -5.3920   23.3330 C   0  0  0  0  0  0  0  0  0  0  0  0
    5.3300   -5.8600   22.3520 C   0  0  0  0  0  0  0  0  0  0  0  0
  1  2  2  0
  2  3  1  0
  3  4  1  0
  4  5  1  0
  5  6  1  0
  6  7  1  0
  7  8  1  0
  8  9  1  0
  5 10  1  0
  9 10  1  0
  2 11  1  0
 11 12  1  0
 12 13  2  0
 13 14  1  0
 14 15  2  0
 15 16  1  0
 12 17  1  0
 16 17  2  0
 17 18  1  0
 18 19  1  0
 19 20  1  0
 20 21  2  0
 20 22  1  0
 22 23  1  0
 23 24  1  0
 23 25  1  0
 24 25  1  0
M  END
