SIM-DEM-2843056b-5
     RDKit          3D

 26 28  0  0  0  0  0  0  0  0999 V2000
    2.1970    1.3890   29.3480 C   0  0  0  0  0  0  0  0  0  0  0  0
    2.1880    1.5860   27.8980 N   0  0  0  0  0  0  0  0  0  0  0  0
    3.2770    2.5010   27.4880 C   0  0  0  0  0  0  0  0  0  0  0  0
    3.4110    2.5520   26.1530 C   0  0  0  0  0  0  0  0  0  0  0  0
    2.7510    1.5690   25.2130 C   0  0  0  0  0  0  0  0  0  0  0  0
    3.5500    1.3700   24.2890 O   0  0  0  0  0  0  0  0  0  0  0  0
    3.0930    0.4480   23.3030 C   0  0  0  0  0  0  0  0  0  0  0  0
    3.4110    0.6240   21.8000 C   0  0  0  0  0  0  0  0  0  0  0  0
    2.4120    1.3510   21.0940 O   0  0  0  0  0  0  0  0  0  0  0  0
    4.6560    0.0320   21.3030 N   0  0  0  0  0  0  0  0  0  0  0  0
    5.1470    0.2790   19.9490 C   0  0  0  0  0  0  0  0  0  0  0  0
    4.7770    1.3020   19.0380 C   0  0  0  0  0  0  0  0  0  0  0  0
    4.0070    2.3140   18.9280 C   0  0  0  0  0  0  0  0  0  0  0  0
    5.0100    1.8060   17.7900 C   0  0  0  0  0  0  0  0  0  0  0  0
    5.9170    0.6530   17.8640 N   0  0  0  0  0  0  0  0  0  0  0  0
    5.9970   -0.1650   18.9920 C   0  0  0  0  0  0  0  0  0  0  0  0
    6.8050   -1.2780   19.1670 C   0  0  0  0  0  0  0  0  0  0  0  0
    6.8660   -1.6000   20.6110 N   0  0  0  0  0  0  0  0  0  0  0  0
    6.3260   -2.7840   20.9480 C   0  0  0  0  0  0  0  0  0  0  0  0
    5.4310   -3.4160   20.1240 O   0  0  0  0  0  0  0  0  0  0  0  0
    6.6700   -3.3930   22.1170 N   0  0  0  0  0  0  0  0  0  0  0  0
    5.8100   -4.4780   22.6070 C   0  0  0  0  0  0  0  0  0  0  0  0
    6.4580   -5.5790   22.7940 C   0  0  0  0  0  0  0  0  0  0  0  0
    5.6560   -5.9540   21.8590 C   0  0  0  0  0  0  0  0  0  0  0  0
    2.3280    0.3470   25.7440 C   0  0  0  0  0  0  0  0  0  0  0  0
    1.8250    0.3440   27.2010 C   0  0  0  0  0  0  0  0  0  0  0  0
  1  2  1  0
  2  3  1  0
  3  4  1  0
  4  5  1  0
  5  6  1  0
  6  7  1  0
  7  8  1  0
  8  9  2  0
  8 10  1  0
 10 11  1  0
 11 12  2  0
 12 13  1  0
 13 14  2  0
 14 15  1  0
 11 16  1  0
 15 16  2  0
 16 17  1  0
 17 18  1  0
 18 19  1  0
 19 20  2  0
 19 21  1  0
 21 22  1  0
 22 23  1  0
 22 24  1  0
 23 24  1  0
  5 25  1  0
  2 26  1  0
 25 26  1  0
M  END
