SIM-SYN-a98e6a07-6
     RDKit          3D

 26 29  0  0  0  0  0  0  0  0999 V2000
    9.1090    1.1740   21.3620 O   0  0  0  0  0  0  0  0  0  0  0  0
    8.5890    0.0890   21.6650 C   0  0  0  0  0  0  0  0  0  0  0  0
    9.0640   -0.7790   22.6330 N   0  0  0  0  0  0  0  0  0  0  0  0
   10.3750   -1.2610   22.7970 C   0  0  0  0  0  0  0  0  0  0  0  0
   11.1580   -0.7890   23.6980 C   0  0  0  0  0  0  0  0  0  0  0  0
   11.7790   -0.3930   22.6340 C   0  0  0  0  0  0  0  0  0  0  0  0
    7.3030   -0.4080   20.9750 C   0  0  2  0  0  0  0  0  0  0  0  0
    6.2110   -0.4650   21.7820 C   0  0  0  0  0  0  0  0  0  0  0  0
    5.0740   -0.9880   21.1350 C   0  0  0  0  0  0  0  0  0  0  0  0
    5.3720   -1.7710   20.0000 C   0  0  0  0  0  0  0  0  0  0  0  0
    5.7130   -1.0100   18.9520 N   0  0  0  0  0  0  0  0  0  0  0  0
    5.1030    0.2340   18.8630 C   0  0  0  0  0  0  0  0  0  0  0  0
    4.1950    0.6530   19.8500 C   0  0  0  0  0  0  0  0  0  0  0  0
    3.5190    1.8560   19.8720 C   0  0  0  0  0  0  0  0  0  0  0  0
    3.7800    2.8020   18.7230 C   0  0  0  0  0  0  0  0  0  0  0  0
    4.7670    2.3210   17.6640 C   0  0  0  0  0  0  0  0  0  0  0  0
    5.4080    1.1320   17.6940 C   0  0  0  0  0  0  0  0  0  0  0  0
    7.1310   -1.2420   19.0170 C   0  0  0  0  0  0  0  0  0  0  0  0
    7.9340   -1.1560   18.1430 O   0  0  0  0  0  0  0  0  0  0  0  0
    7.4520   -1.5860   20.2800 N   0  0  0  0  0  0  0  0  0  0  0  0
    6.8900   -2.8490   20.9280 C   0  0  0  0  0  0  0  0  0  0  0  0
    7.4060   -3.5110   22.2140 C   0  0  0  0  0  0  0  0  0  0  0  0
    7.0510   -4.8940   23.1860 C   0  0  0  0  0  0  0  0  0  0  0  0
    5.9610   -5.2200   22.2000 C   0  0  0  0  0  0  0  0  0  0  0  0
    6.0860   -4.3250   21.4570 N   0  0  0  0  0  0  0  0  0  0  0  0
    5.8680   -3.6210   20.4910 C   0  0  0  0  0  0  0  0  0  0  0  0
  1  2  2  0
  2  3  1  0
  3  4  1  0
  4  5  1  0
  4  6  1  0
  5  6  1  0
  7  2  1  1
  7  8  1  0
  8  9  1  0
  9 10  1  0
 10 11  1  0
 11 12  1  0
 12 13  2  0
 13 14  1  0
 14 15  2  0
 15 16  1  0
 12 17  1  0
 16 17  2  0
 11 18  1  0
 18 19  2  0
  7 20  1  0
 18 20  1  0
 20 21  1  0
 21 22  2  0
 22 23  1  0
 23 24  2  0
 24 25  1  0
 21 26  1  0
 25 26  2  0
M  END
