SIM-DEM-5935bd74-8
     RDKit          3D

 19 20  0  0  0  0  0  0  0  0999 V2000
    6.3770    0.7160   18.6630 C   0  0  0  0  0  0  0  0  0  0  0  0
    6.5190    0.6530   20.1450 C   0  0  0  0  0  0  0  0  0  0  0  0
    6.0940   -0.3610   20.7050 O   0  0  0  0  0  0  0  0  0  0  0  0
    7.0670    1.6240   20.8560 N   0  0  0  0  0  0  0  0  0  0  0  0
    7.3860    1.1750   22.1310 C   0  0  0  0  0  0  0  0  0  0  0  0
    8.2960    2.0510   22.9830 C   0  0  0  0  0  0  0  0  0  0  0  0
    9.7500    1.8680   22.7460 N   0  0  0  0  0  0  0  0  0  0  0  0
   10.5770    3.0540   23.0270 C   0  0  0  0  0  0  0  0  0  0  0  0
   12.0030    2.5850   23.1070 C   0  0  0  0  0  0  0  0  0  0  0  0
   11.9650    1.0710   22.8650 C   0  0  1  0  0  0  0  0  0  0  0  0
   12.6970    0.0260   23.6360 C   0  0  0  0  0  0  0  0  0  0  0  0
   12.2830   -1.2600   23.3910 C   0  0  0  0  0  0  0  0  0  0  0  0
   13.0620   -2.5010   24.2760 S   0  0  0  0  0  0  0  0  0  0  0  0
   11.7260   -3.4480   24.5580 N   0  0  0  0  0  0  0  0  0  0  0  0
   13.9100   -3.1890   23.3580 O   0  0  0  0  0  0  0  0  0  0  0  0
   13.5160   -2.0390   25.5590 O   0  0  0  0  0  0  0  0  0  0  0  0
   11.1510   -1.5750   22.3740 C   0  0  0  0  0  0  0  0  0  0  0  0
   10.1780   -0.4380   22.2240 C   0  0  0  0  0  0  0  0  0  0  0  0
   10.4590    0.6660   23.0070 C   0  0  2  0  0  0  0  0  0  0  0  0
  1  2  1  0
  2  3  2  0
  2  4  1  0
  4  5  1  0
  5  6  1  0
  6  7  1  0
  7  8  1  0
  8  9  2  0
 10  9  1  1
 10 11  1  0
 11 12  2  0
 12 13  1  0
 13 14  1  0
 13 15  2  0
 13 16  2  0
 12 17  1  0
 17 18  2  0
  7 19  1  0
 10 19  1  0
 19 18  1  6
M  END
