SIM-DEM-5935bd74-1
     RDKit          3D

 21 22  0  0  0  0  0  0  0  0999 V2000
    8.9230    6.7500   22.4800 C   0  0  0  0  0  0  0  0  0  0  0  0
    9.9930    5.6740   23.4510 S   0  0  0  0  0  0  0  0  0  0  0  0
    9.7880    5.9110   24.8640 O   0  0  0  0  0  0  0  0  0  0  0  0
    9.8690    4.3710   22.8620 O   0  0  0  0  0  0  0  0  0  0  0  0
   11.5070    6.2530   23.0170 N   0  0  0  0  0  0  0  0  0  0  0  0
   12.6700    5.3340   23.0680 C   0  0  0  0  0  0  0  0  0  0  0  0
   12.4460    4.1650   22.4450 C   0  0  0  0  0  0  0  0  0  0  0  0
   11.7650    2.9980   23.1020 C   0  0  0  0  0  0  0  0  0  0  0  0
   10.5770    2.7890   23.9150 C   0  0  0  0  0  0  0  0  0  0  0  0
   10.2450    1.3010   24.4150 C   0  0  0  0  0  0  0  0  0  0  0  0
   11.5580    0.4790   23.7150 C   0  0  0  0  0  0  0  0  0  0  0  0
   12.7970    0.9300   22.8110 C   0  0  0  0  0  0  0  0  0  0  0  0
   13.0330   -0.4200   22.9230 C   0  0  0  0  0  0  0  0  0  0  0  0
   12.0450   -1.1820   23.7710 C   0  0  0  0  0  0  0  0  0  0  0  0
   12.1830   -2.8110   24.0470 S   0  0  0  0  0  0  0  0  0  0  0  0
   13.0880   -3.0240   22.6480 N   0  0  0  0  0  0  0  0  0  0  0  0
   10.8670   -3.3690   23.8800 O   0  0  0  0  0  0  0  0  0  0  0  0
   13.0320   -3.0290   25.1890 O   0  0  0  0  0  0  0  0  0  0  0  0
   10.9860   -0.2770   24.2870 C   0  0  0  0  0  0  0  0  0  0  0  0
   10.9970    1.0990   23.9860 C   0  0  0  0  0  0  0  0  0  0  0  0
   11.9700    1.7580   23.2020 C   0  0  0  0  0  0  0  0  0  0  0  0
  1  2  1  0
  2  3  2  0
  2  4  2  0
  2  5  1  0
  5  6  1  0
  6  7  1  0
  7  8  1  0
  8  9  2  0
  9 10  1  0
 10 11  2  0
 11 12  1  0
 12 13  1  0
 13 14  2  0
 14 15  1  0
 15 16  1  0
 15 17  2  0
 15 18  2  0
 14 19  1  0
 19 20  2  0
  8 21  1  0
 12 21  2  0
 20 21  1  0
M  END
