SIM-SYN-3099a863-3
     RDKit          3D

 27 29  0  0  0  0  0  0  0  0999 V2000
    0.6400   -1.3590   26.5490 C   0  0  0  0  0  0  0  0  0  0  0  0
    1.7810   -2.3330   26.3920 C   0  0  0  0  0  0  0  0  0  0  0  0
    3.1340   -2.0310   26.8780 C   0  0  0  0  0  0  0  0  0  0  0  0
    4.1630   -2.9830   26.7090 C   0  0  0  0  0  0  0  0  0  0  0  0
    3.8900   -4.2090   26.0780 C   0  0  0  0  0  0  0  0  0  0  0  0
    5.3050   -5.2990   25.9920 S   0  0  0  0  0  0  0  0  0  0  0  0
    6.2280   -4.7850   26.9630 O   0  0  0  0  0  0  0  0  0  0  0  0
    4.8090   -6.6530   26.0740 O   0  0  0  0  0  0  0  0  0  0  0  0
    5.9670   -5.1390   24.4510 N   0  0  0  0  0  0  0  0  0  0  0  0
    5.2890   -5.8330   23.3990 C   0  0  0  0  0  0  0  0  0  0  0  0
    5.9440   -5.7590   22.1610 C   0  0  0  0  0  0  0  0  0  0  0  0
    6.4770   -4.5960   21.7590 N   0  0  0  0  0  0  0  0  0  0  0  0
    5.8190   -3.9300   20.8160 C   0  0  0  0  0  0  0  0  0  0  0  0
    5.2470   -4.6270   19.7120 O   0  0  0  0  0  0  0  0  0  0  0  0
    5.7330   -2.4620   20.9390 N   0  0  0  0  0  0  0  0  0  0  0  0
    5.0120   -2.1230   22.0710 C   0  0  0  0  0  0  0  0  0  0  0  0
    5.5080   -1.8110   19.6640 C   0  0  0  0  0  0  0  0  0  0  0  0
    5.2980   -0.3710   19.6940 C   0  0  0  0  0  0  0  0  0  0  0  0
    5.0120    0.3000   18.4960 C   0  0  0  0  0  0  0  0  0  0  0  0
    4.7880    1.7900   18.4600 C   0  0  0  0  0  0  0  0  0  0  0  0
    4.9080    2.4210   19.8230 C   0  0  0  0  0  0  0  0  0  0  0  0
    5.1850    1.7620   20.9730 N   0  0  0  0  0  0  0  0  0  0  0  0
    5.3710    0.3980   20.8790 C   0  0  0  0  0  0  0  0  0  0  0  0
    7.1740   -3.8900   22.8330 C   0  0  0  0  0  0  0  0  0  0  0  0
    6.4240   -3.8570   24.1540 C   0  0  0  0  0  0  0  0  0  0  0  0
    2.6370   -4.5380   25.5890 C   0  0  0  0  0  0  0  0  0  0  0  0
    1.5090   -3.5470   25.7540 C   0  0  0  0  0  0  0  0  0  0  0  0
  1  2  1  0
  2  3  2  0
  3  4  1  0
  4  5  2  0
  6  5  1  0
  6  7  2  0
  6  8  2  0
  6  9  1  0
  9 10  1  0
 10 11  1  0
 11 12  1  0
 12 13  1  0
 13 14  2  0
 13 15  1  0
 15 16  1  0
 15 17  1  0
 17 18  1  0
 18 19  2  0
 19 20  1  0
 20 21  2  0
 21 22  1  0
 18 23  1  0
 22 23  2  0
 12 24  1  0
  9 25  1  0
 24 25  1  0
  5 26  1  0
  2 27  1  0
 26 27  2  0
M  END
