SIM-DEM-2843056b-6
     RDKit          3D

 28 30  0  0  0  0  0  0  0  0999 V2000
   -0.4600   -2.0180   26.0590 C   0  0  0  0  0  0  0  0  0  0  0  0
   -0.0460   -0.9440   26.9680 N   0  0  0  0  0  0  0  0  0  0  0  0
    1.4220   -0.7890   26.9310 C   0  0  0  0  0  0  0  0  0  0  0  0
    1.8620   -0.5430   25.6860 C   0  0  0  0  0  0  0  0  0  0  0  0
    1.4020    0.7620   25.1870 N   0  0  0  0  0  0  0  0  0  0  0  0
    1.9270    1.2650   23.9960 C   0  0  0  0  0  0  0  0  0  0  0  0
    3.2110    0.5530   23.5370 C   0  0  0  0  0  0  0  0  0  0  0  0
    3.4690    0.6050   22.0160 C   0  0  0  0  0  0  0  0  0  0  0  0
    2.5340    0.9930   21.3160 O   0  0  0  0  0  0  0  0  0  0  0  0
    4.6990    0.2330   21.4370 N   0  0  0  0  0  0  0  0  0  0  0  0
    5.1000    0.4980   20.1480 C   0  0  0  0  0  0  0  0  0  0  0  0
    4.8260    1.3880   19.0640 C   0  0  0  0  0  0  0  0  0  0  0  0
    4.0540    2.3720   18.8120 C   0  0  0  0  0  0  0  0  0  0  0  0
    5.1050    1.7880   17.7610 C   0  0  0  0  0  0  0  0  0  0  0  0
    6.0020    0.6610   18.0250 N   0  0  0  0  0  0  0  0  0  0  0  0
    6.0010   -0.0290   19.2920 C   0  0  0  0  0  0  0  0  0  0  0  0
    6.8330   -1.1100   19.5430 C   0  0  0  0  0  0  0  0  0  0  0  0
    6.0030   -2.2650   19.3390 N   0  0  0  0  0  0  0  0  0  0  0  0
    5.8180   -3.3020   20.2220 C   0  0  0  0  0  0  0  0  0  0  0  0
    5.2520   -4.4980   19.7610 O   0  0  0  0  0  0  0  0  0  0  0  0
    6.2300   -3.1380   21.5200 N   0  0  0  0  0  0  0  0  0  0  0  0
    5.9860   -4.1650   22.5380 C   0  0  0  0  0  0  0  0  0  0  0  0
    7.0860   -4.4660   23.3270 C   0  0  0  0  0  0  0  0  0  0  0  0
    7.0860   -5.7480   23.8250 C   0  0  0  0  0  0  0  0  0  0  0  0
    6.2400   -6.5480   22.8650 C   0  0  0  0  0  0  0  0  0  0  0  0
    5.6340   -5.5290   21.8990 C   0  0  0  0  0  0  0  0  0  0  0  0
   -0.0650    0.8610   25.2510 C   0  0  0  0  0  0  0  0  0  0  0  0
   -0.6560    0.3370   26.5730 C   0  0  0  0  0  0  0  0  0  0  0  0
  1  2  1  0
  2  3  1  0
  3  4  1  0
  4  5  1  0
  5  6  1  0
  6  7  1  0
  7  8  1  0
  8  9  2  0
  8 10  1  0
 10 11  1  0
 11 12  2  0
 12 13  1  0
 13 14  2  0
 14 15  1  0
 11 16  1  0
 15 16  2  0
 16 17  1  0
 17 18  1  0
 18 19  1  0
 19 20  2  0
 19 21  1  0
 21 22  1  0
 22 23  1  0
 23 24  1  0
 24 25  1  0
 22 26  1  0
 25 26  1  0
  5 27  1  0
  2 28  1  0
 27 28  1  0
M  END
