SIM-DEM-5935bd74-3
     RDKit          3D

 20 21  0  0  0  0  0  0  0  0999 V2000
    8.9960    5.4960   22.8430 C   0  0  0  0  0  0  0  0  0  0  0  0
   10.1720    5.8360   23.7140 C   0  0  0  0  0  0  0  0  0  0  0  0
   10.0930    5.8930   24.9380 O   0  0  0  0  0  0  0  0  0  0  0  0
   11.3940    6.0830   22.9440 N   0  0  0  0  0  0  0  0  0  0  0  0
   12.4250    5.1420   23.0830 C   0  0  0  0  0  0  0  0  0  0  0  0
   12.4180    3.9950   22.2930 C   0  0  0  0  0  0  0  0  0  0  0  0
   11.7100    3.0240   22.9870 C   0  0  0  0  0  0  0  0  0  0  0  0
   10.6140    2.9540   23.7070 C   0  0  0  0  0  0  0  0  0  0  0  0
   10.2810    1.5830   24.2660 C   0  0  0  0  0  0  0  0  0  0  0  0
   11.5230    0.6030   23.7010 C   0  0  0  0  0  0  0  0  0  0  0  0
   12.7490    0.9500   22.8030 C   0  0  0  0  0  0  0  0  0  0  0  0
   13.0850   -0.3710   22.9080 C   0  0  0  0  0  0  0  0  0  0  0  0
   12.2200   -1.0910   23.6960 C   0  0  0  0  0  0  0  0  0  0  0  0
   12.5540   -2.7670   23.9330 S   0  0  0  0  0  0  0  0  0  0  0  0
   13.5770   -2.7790   25.2670 N   0  0  0  0  0  0  0  0  0  0  0  0
   13.3460   -3.1180   22.7800 O   0  0  0  0  0  0  0  0  0  0  0  0
   11.3320   -3.4220   24.3310 O   0  0  0  0  0  0  0  0  0  0  0  0
   11.1120   -0.4480   24.2760 C   0  0  0  0  0  0  0  0  0  0  0  0
   10.9380    0.9430   24.0270 C   0  0  0  0  0  0  0  0  0  0  0  0
   11.8940    1.7690   23.1730 C   0  0  0  0  0  0  0  0  0  0  0  0
  1  2  1  0
  2  3  2  0
  2  4  1  0
  4  5  1  0
  5  6  1  0
  6  7  1  0
  7  8  2  0
  8  9  1  0
  9 10  2  0
 10 11  1  0
 11 12  1  0
 12 13  2  0
 13 14  1  0
 14 15  1  0
 14 16  2  0
 14 17  2  0
 13 18  1  0
 18 19  2  0
  7 20  1  0
 11 20  2  0
 19 20  1  0
M  END
