STE-UNK-a3cce3f2-1
     RDKit          3D

 31 35  0  0  0  0  0  0  0  0999 V2000
    6.5150   -2.1010   26.3050 C   0  0  0  0  0  0  0  0  0  0  0  0
    7.4590   -2.4340   25.1720 C   0  0  0  0  0  0  0  0  0  0  0  0
    7.1220   -1.9850   23.9180 C   0  0  0  0  0  0  0  0  0  0  0  0
    7.4840   -0.7130   23.4870 C   0  0  0  0  0  0  0  0  0  0  0  0
    8.2860    0.1520   24.4260 C   0  0  0  0  0  0  0  0  0  0  0  0
    9.5530    0.5880   24.0050 C   0  0  0  0  0  0  0  0  0  0  0  0
    9.9080    1.9220   23.6830 C   0  0  0  0  0  0  0  0  0  0  0  0
   11.2940    2.3470   23.2230 C   0  0  0  0  0  0  0  0  0  0  0  0
   11.6690    3.7720   22.8710 C   0  0  0  0  0  0  0  0  0  0  0  0
   12.3510    1.2670   23.1120 C   0  0  0  0  0  0  0  0  0  0  0  0
   12.0100   -0.0320   23.4230 C   0  0  0  0  0  0  0  0  0  0  0  0
   12.9800   -1.0110   23.3110 C   0  0  0  0  0  0  0  0  0  0  0  0
   12.6280   -2.3020   23.6290 C   0  0  0  0  0  0  0  0  0  0  0  0
   11.3860   -2.6890   24.0450 N   0  0  0  0  0  0  0  0  0  0  0  0
   10.4600   -1.7240   24.1410 N   0  0  0  0  0  0  0  0  0  0  0  0
   10.7030   -0.4090   23.8520 C   0  0  0  0  0  0  0  0  0  0  0  0
    7.1750   -0.1870   22.2940 N   0  0  0  0  0  0  0  0  0  0  0  0
    6.4080   -0.9840   21.3460 C   0  0  0  0  0  0  0  0  0  0  0  0
    6.1720   -0.2360   20.2110 C   0  0  0  0  0  0  0  0  0  0  0  0
    6.7160   -0.4780   18.9640 C   0  0  0  0  0  0  0  0  0  0  0  0
    6.4570    0.2480   17.8640 N   0  0  0  0  0  0  0  0  0  0  0  0
    5.6070    1.2730   18.0000 C   0  0  0  0  0  0  0  0  0  0  0  0
    5.0240    1.6050   19.1960 C   0  0  0  0  0  0  0  0  0  0  0  0
    5.3090    0.8530   20.3140 C   0  0  0  0  0  0  0  0  0  0  0  0
    4.7260    1.1850   21.5430 C   0  0  0  0  0  0  0  0  0  0  0  0
    6.0210   -2.2960   21.6960 C   0  0  0  0  0  0  0  0  0  0  0  0
    5.3300   -3.2700   21.0590 N   0  0  0  0  0  0  0  0  0  0  0  0
    5.2980   -4.2920   21.9320 N   0  0  0  0  0  0  0  0  0  0  0  0
    5.9280   -4.0450   23.1230 C   0  0  0  0  0  0  0  0  0  0  0  0
    5.9780   -5.0150   24.1270 C   0  0  0  0  0  0  0  0  0  0  0  0
    6.4040   -2.7540   22.9980 C   0  0  0  0  0  0  0  0  0  0  0  0
  1  2  3  0
  2  3  1  0
  3  4  2  0
  4  5  1  0
  5  6  1  0
  6  7  2  0
  7  8  1  0
  8  9  1  0
  8 10  2  0
 10 11  1  0
 11 12  1  0
 12 13  2  0
 13 14  1  0
 14 15  2  0
  6 16  1  0
 11 16  2  0
 15 16  1  0
  4 17  1  0
 17 18  2  0
 18 19  1  0
 19 20  2  0
 20 21  1  0
 21 22  2  0
 22 23  1  0
 19 24  1  0
 23 24  2  0
 24 25  1  0
 18 26  1  0
 26 27  2  0
 27 28  1  0
 28 29  1  0
 29 30  1  0
  3 31  1  0
 26 31  1  0
 29 31  2  0
M  END
