STE-LAU-aafa5dff-1
     RDKit          3D

 28 30  0  0  0  0  0  0  0  0999 V2000
   10.7250   -4.4470   26.0960 C   0  0  0  0  0  0  0  0  0  0  0  0
    9.8580   -3.6920   25.3750 N   0  0  0  0  0  0  0  0  0  0  0  0
   10.3520   -2.4660   25.0170 C   0  0  0  0  0  0  0  0  0  0  0  0
    9.9390   -1.3880   25.3790 O   0  0  0  0  0  0  0  0  0  0  0  0
   11.4050   -2.5910   24.0960 C   0  0  0  0  0  0  0  0  0  0  0  0
   12.7960   -3.0000   24.3350 C   0  0  0  0  0  0  0  0  0  0  0  0
   13.7270   -3.0380   23.1540 C   0  0  0  0  0  0  0  0  0  0  0  0
   13.2970   -2.7070   21.8590 C   0  0  0  0  0  0  0  0  0  0  0  0
   12.0820   -2.3270   21.6250 C   0  0  0  0  0  0  0  0  0  0  0  0
   11.2310   -2.2630   22.6230 C   0  0  0  0  0  0  0  0  0  0  0  0
   10.1010   -1.7810   22.2930 C   0  0  0  0  0  0  0  0  0  0  0  0
    9.0960   -2.2960   21.7980 O   0  0  0  0  0  0  0  0  0  0  0  0
   10.4930   -0.4060   22.7680 C   0  0  0  0  0  0  0  0  0  0  0  0
   11.8670   -0.1170   22.8860 C   0  0  0  0  0  0  0  0  0  0  0  0
   12.2100    1.1300   23.3570 C   0  0  0  0  0  0  0  0  0  0  0  0
   11.2600    2.0660   23.7070 C   0  0  0  0  0  0  0  0  0  0  0  0
    9.8890    1.8200   23.5990 C   0  0  0  0  0  0  0  0  0  0  0  0
    9.4950    0.5800   23.1220 C   0  0  0  0  0  0  0  0  0  0  0  0
    8.2370    0.2070   22.9470 N   0  0  0  0  0  0  0  0  0  0  0  0
    7.9530    0.3960   21.6560 C   0  0  0  0  0  0  0  0  0  0  0  0
    8.6040    1.3860   20.9070 O   0  0  0  0  0  0  0  0  0  0  0  0
    7.0050   -0.4380   21.1890 N   0  0  0  0  0  0  0  0  0  0  0  0
    6.3350    0.1710   20.1030 C   0  0  0  0  0  0  0  0  0  0  0  0
    5.1250    0.8840   20.2530 C   0  0  0  0  0  0  0  0  0  0  0  0
    4.5220    1.4830   19.1580 C   0  0  0  0  0  0  0  0  0  0  0  0
    5.1350    1.3640   17.9230 C   0  0  0  0  0  0  0  0  0  0  0  0
    6.3710    0.6390   17.6930 N   0  0  0  0  0  0  0  0  0  0  0  0
    6.8920    0.0760   18.8430 C   0  0  0  0  0  0  0  0  0  0  0  0
  1  2  1  0
  2  3  1  0
  3  4  2  0
  3  5  1  0
  5  6  2  0
  6  7  1  0
  7  8  2  0
  8  9  1  0
  5 10  1  0
  9 10  2  0
 10 11  1  0
 11 12  2  0
 11 13  1  0
 13 14  2  0
 14 15  1  0
 15 16  2  0
 16 17  1  0
 13 18  1  0
 17 18  2  0
 18 19  1  0
 19 20  1  0
 20 21  2  0
 20 22  1  0
 22 23  1  0
 23 24  2  0
 24 25  1  0
 25 26  2  0
 26 27  1  0
 23 28  1  0
 27 28  2  0
M  END
