STE-UNK-07e72928-1
     RDKit          3D

 26 30  0  0  0  0  0  0  0  0999 V2000
    6.4580    1.8340   21.6560 C   0  0  0  0  0  0  0  0  0  0  0  0
    6.3250    1.2440   20.4120 C   0  0  0  0  0  0  0  0  0  0  0  0
    7.1460    0.1390   20.0970 C   0  0  0  0  0  0  0  0  0  0  0  0
    7.0540   -0.5240   18.7730 C   0  0  0  0  0  0  0  0  0  0  0  0
    6.1250   -0.0210   17.8390 N   0  0  0  0  0  0  0  0  0  0  0  0
    5.3330    1.0920   18.2360 C   0  0  0  0  0  0  0  0  0  0  0  0
    5.4010    1.7270   19.4650 C   0  0  0  0  0  0  0  0  0  0  0  0
    4.5620    2.8110   19.6800 C   0  0  0  0  0  0  0  0  0  0  0  0
    3.4530    2.6840   20.4940 C   0  0  0  0  0  0  0  0  0  0  0  0
    2.2030    2.9780   20.0020 N   0  0  0  0  0  0  0  0  0  0  0  0
    1.3000    2.7920   21.0010 N   0  0  0  0  0  0  0  0  0  0  0  0
    1.8800    2.3850   22.1440 C   0  0  0  0  0  0  0  0  0  0  0  0
    3.3890    2.2780   21.8690 C   0  0  0  0  0  0  0  0  0  0  0  0
    4.2740    1.8680   22.8810 C   0  0  0  0  0  0  0  0  0  0  0  0
    5.0740    0.6810   22.8430 C   0  0  0  0  0  0  0  0  0  0  0  0
    5.0750   -0.2260   21.7660 C   0  0  0  0  0  0  0  0  0  0  0  0
    5.9260    0.3660   23.9270 C   0  0  0  0  0  0  0  0  0  0  0  0
    6.7240   -0.7790   23.9340 C   0  0  0  0  0  0  0  0  0  0  0  0
    6.5290   -1.7370   24.8040 C   0  0  0  0  0  0  0  0  0  0  0  0
    6.0650   -2.2790   23.7050 C   0  0  0  0  0  0  0  0  0  0  0  0
    5.9730    1.2300   25.0330 C   0  0  0  0  0  0  0  0  0  0  0  0
    5.1970    2.3850   25.0730 C   0  0  0  0  0  0  0  0  0  0  0  0
    5.1400    3.5510   26.3550 S   0  0  0  0  0  0  0  0  0  0  0  0
    3.9970    4.4700   25.4920 C   0  0  0  0  0  0  0  0  0  0  0  0
    3.6280    3.9200   24.2080 N   0  0  0  0  0  0  0  0  0  0  0  0
    4.3390    2.7310   24.0150 C   0  0  0  0  0  0  0  0  0  0  0  0
  1  2  1  0
  2  3  2  0
  3  4  1  0
  4  5  2  0
  5  6  1  0
  2  7  1  0
  6  7  2  0
  7  8  1  0
  8  9  1  0
  9 10  2  0
 10 11  1  0
 11 12  1  0
  9 13  1  0
 12 13  2  0
 13 14  1  0
 14 15  2  0
 15 16  1  0
 15 17  1  0
 17 18  1  0
 18 19  1  0
 18 20  1  0
 19 20  1  0
 17 21  2  0
 21 22  1  0
 22 23  1  0
 23 24  1  0
 24 25  2  0
 14 26  1  0
 22 26  2  0
 25 26  1  0
M  END
