STE-LAU-c06d08a8-1
     RDKit          3D

 23 25  0  0  0  0  0  0  0  0999 V2000
    3.7130   -5.4840   25.5600 N   0  0  0  0  0  0  0  0  0  0  0  0
    4.2080   -4.3550   25.8960 C   0  0  1  0  0  0  0  0  0  0  0  0
    3.9280   -3.8890   27.3550 C   0  0  0  0  0  0  0  0  0  0  0  0
    2.5590   -4.0770   28.0410 C   0  0  0  0  0  0  0  0  0  0  0  0
    2.1750   -3.5890   29.6400 S   0  0  0  0  0  0  0  0  0  0  0  0
    3.2170   -4.1350   30.4900 O   0  0  0  0  0  0  0  0  0  0  0  0
    1.8320   -2.1810   29.6620 O   0  0  0  0  0  0  0  0  0  0  0  0
    0.7960   -4.4750   30.1080 N   0  0  0  0  0  0  0  0  0  0  0  0
   -0.3920   -4.3960   29.4780 C   0  0  0  0  0  0  0  0  0  0  0  0
   -1.2770   -5.4520   29.4510 C   0  0  0  0  0  0  0  0  0  0  0  0
   -2.3710   -5.0720   28.7460 N   0  0  0  0  0  0  0  0  0  0  0  0
   -2.1080   -3.7770   28.3610 C   0  0  0  0  0  0  0  0  0  0  0  0
   -0.9240   -3.3560   28.7950 N   0  0  0  0  0  0  0  0  0  0  0  0
    5.7410   -4.3590   25.6750 C   0  0  0  0  0  0  0  0  0  0  0  0
    6.1540   -4.8740   24.4220 C   0  0  0  0  0  0  0  0  0  0  0  0
    7.2500   -5.8740   24.2140 C   0  0  0  0  0  0  0  0  0  0  0  0
    7.4730   -6.2380   22.9420 C   0  0  0  0  0  0  0  0  0  0  0  0
    6.7280   -5.6840   21.9910 C   0  0  0  0  0  0  0  0  0  0  0  0
    5.9470   -4.8750   23.0390 C   0  0  0  0  0  0  0  0  0  0  0  0
    5.0090   -4.1500   21.9980 C   0  0  0  0  0  0  0  0  0  0  0  0
    5.3700   -4.5990   20.8410 N   0  0  0  0  0  0  0  0  0  0  0  0
    5.8970   -4.9540   21.8580 C   0  0  0  0  0  0  0  0  0  0  0  0
    5.4890   -4.4380   23.1110 C   0  0  0  0  0  0  0  0  0  0  0  0
  2  1  1  1
  2  3  1  0
  3  4  2  3
  5  4  1  0
  5  6  2  0
  5  7  2  0
  5  8  1  0
  8  9  1  0
  9 10  2  0
 10 11  1  0
 11 12  1  0
  9 13  1  0
 12 13  2  0
  2 14  1  0
 14 15  1  0
 15 16  2  0
 16 17  1  0
 17 18  2  0
 18 19  1  0
 19 20  2  0
 20 21  1  0
 18 22  1  0
 21 22  1  0
 15 23  1  0
 22 23  2  0
M  END
