TAM-UNI-c140e31a-3
     RDKit          3D

 27 29  0  0  0  0  0  0  0  0999 V2000
    8.8500    6.3800   22.6940 C   0  0  0  0  0  0  0  0  0  0  0  0
   10.0990    5.9670   23.4750 C   0  0  0  0  0  0  0  0  0  0  0  0
   10.0820    5.9080   24.7110 O   0  0  0  0  0  0  0  0  0  0  0  0
   11.2110    5.6690   22.7070 N   0  0  0  0  0  0  0  0  0  0  0  0
   12.4050    5.0420   23.2610 C   0  0  0  0  0  0  0  0  0  0  0  0
   12.6260    3.7480   22.7670 C   0  0  0  0  0  0  0  0  0  0  0  0
   11.7420    2.7210   23.0990 C   0  0  0  0  0  0  0  0  0  0  0  0
   10.4370    2.9210   23.5770 C   0  0  0  0  0  0  0  0  0  0  0  0
    9.7460    1.7430   23.8020 N   0  0  0  0  0  0  0  0  0  0  0  0
   10.6430    0.6910   23.4500 C   0  0  0  0  0  0  0  0  0  0  0  0
   10.3820   -0.6610   23.4860 C   0  0  0  0  0  0  0  0  0  0  0  0
    9.1400   -1.0670   23.8680 N   0  0  0  0  0  0  0  0  0  0  0  0
    8.1050   -0.8410   22.8580 C   0  0  0  0  0  0  0  0  0  0  0  0
    6.8740   -1.3170   23.3060 C   0  0  0  0  0  0  0  0  0  0  0  0
    5.9140   -0.6260   22.9670 O   0  0  0  0  0  0  0  0  0  0  0  0
    6.9320   -2.5740   24.1060 N   0  0  0  0  0  0  0  0  0  0  0  0
    6.4910   -3.6740   23.3520 C   0  0  0  0  0  0  0  0  0  0  0  0
    7.3620   -4.9280   23.3430 C   0  0  0  0  0  0  0  0  0  0  0  0
    6.7640   -6.0350   22.4860 C   0  0  0  0  0  0  0  0  0  0  0  0
    5.5690   -5.9180   21.7980 C   0  0  0  0  0  0  0  0  0  0  0  0
    4.8000   -4.8420   21.7950 N   0  0  0  0  0  0  0  0  0  0  0  0
    5.3110   -3.6940   22.6130 C   0  0  0  0  0  0  0  0  0  0  0  0
   11.4640   -1.6740   23.0800 C   0  0  0  0  0  0  0  0  0  0  0  0
   12.6830   -1.1900   22.6870 C   0  0  0  0  0  0  0  0  0  0  0  0
   13.6060   -2.0970   22.3330 F   0  0  0  0  0  0  0  0  0  0  0  0
   13.0270    0.2910   22.6270 C   0  0  0  0  0  0  0  0  0  0  0  0
   11.9740    1.3130   23.0050 C   0  0  0  0  0  0  0  0  0  0  0  0
  1  2  1  0
  2  3  2  0
  2  4  1  0
  4  5  1  0
  5  6  1  0
  6  7  1  0
  7  8  2  0
  8  9  1  0
  9 10  1  0
 10 11  1  0
 11 12  1  0
 12 13  1  0
 13 14  1  0
 14 15  2  0
 14 16  1  0
 16 17  1  0
 17 18  2  0
 18 19  1  0
 19 20  2  0
 20 21  1  0
 17 22  1  0
 21 22  2  0
 11 23  2  0
 23 24  1  0
 24 25  1  0
 24 26  2  0
  7 27  1  0
 10 27  2  0
 26 27  1  0
M  END
