TAM-UNI-c140e31a-16
     RDKit          3D

 23 25  0  0  0  0  0  0  0  0999 V2000
    8.9870    6.4880   22.6820 C   0  0  0  0  0  0  0  0  0  0  0  0
   10.1220    6.0280   23.5620 C   0  0  0  0  0  0  0  0  0  0  0  0
   10.0170    5.9980   24.7860 O   0  0  0  0  0  0  0  0  0  0  0  0
   11.2160    5.6700   22.8030 N   0  0  0  0  0  0  0  0  0  0  0  0
   12.3560    4.9770   23.2920 C   0  0  0  0  0  0  0  0  0  0  0  0
   12.6060    3.6590   22.8870 C   0  0  0  0  0  0  0  0  0  0  0  0
   11.5980    2.7070   22.9810 C   0  0  0  0  0  0  0  0  0  0  0  0
   10.3090    3.1080   23.2040 C   0  0  0  0  0  0  0  0  0  0  0  0
    9.5350    1.9750   23.1830 N   0  0  0  0  0  0  0  0  0  0  0  0
   10.2980    0.8470   22.9490 C   0  0  0  0  0  0  0  0  0  0  0  0
    9.9880   -0.6170   22.7800 C   0  0  0  0  0  0  0  0  0  0  0  0
    8.5000   -0.8700   22.8390 N   0  0  0  0  0  0  0  0  0  0  0  0
    7.9560   -0.0150   21.8610 C   0  0  0  0  0  0  0  0  0  0  0  0
    6.7750   -0.7400   21.7480 C   0  0  0  0  0  0  0  0  0  0  0  0
    6.3530   -1.8580   22.3760 C   0  0  0  0  0  0  0  0  0  0  0  0
    7.5730   -2.0410   23.1510 C   0  0  1  0  0  0  0  0  0  0  0  0
    8.3150   -3.3250   22.8340 C   0  0  0  0  0  0  0  0  0  0  0  0
    7.7730   -4.5310   23.2250 N   0  0  0  0  0  0  0  0  0  0  0  0
    9.3640   -3.1920   22.2320 O   0  0  0  0  0  0  0  0  0  0  0  0
   11.1390   -1.6810   22.5350 C   0  0  0  0  0  0  0  0  0  0  0  0
   12.5820   -1.1390   22.4720 C   0  0  0  0  0  0  0  0  0  0  0  0
   12.8940    0.3540   22.6230 C   0  0  0  0  0  0  0  0  0  0  0  0
   11.7290    1.3220   22.8460 C   0  0  0  0  0  0  0  0  0  0  0  0
  1  2  1  0
  2  3  2  0
  2  4  1  0
  4  5  1  0
  5  6  1  0
  6  7  1  0
  7  8  2  0
  8  9  1  0
  9 10  1  0
 10 11  1  0
 11 12  1  0
 12 13  1  0
 13 14  1  0
 14 15  1  0
 12 16  1  0
 15 16  1  0
 16 17  1  6
 17 18  1  0
 17 19  2  0
 11 20  2  0
 20 21  1  0
 21 22  2  0
  7 23  1  0
 10 23  2  0
 22 23  1  0
M  END
