TAM-UNI-c140e31a-21
     RDKit          3D

 32 35  0  0  0  0  0  0  0  0999 V2000
   12.6770    6.4660   22.6910 C   0  0  0  0  0  0  0  0  0  0  0  0
   11.8110    5.3370   23.7180 S   0  0  0  0  0  0  0  0  0  0  0  0
   10.4160    5.4020   23.3480 O   0  0  0  0  0  0  0  0  0  0  0  0
   12.2200    5.5500   25.0800 O   0  0  0  0  0  0  0  0  0  0  0  0
   12.5350    3.8490   23.0350 C   0  0  0  0  0  0  0  0  0  0  0  0
   11.6340    2.6950   23.0980 C   0  0  0  0  0  0  0  0  0  0  0  0
   10.3000    2.8960   23.3910 C   0  0  0  0  0  0  0  0  0  0  0  0
    9.7090    1.6930   23.3210 N   0  0  0  0  0  0  0  0  0  0  0  0
   10.5820    0.6970   22.9980 C   0  0  0  0  0  0  0  0  0  0  0  0
   10.3080   -0.7430   22.7800 C   0  0  0  0  0  0  0  0  0  0  0  0
    8.9620   -1.2410   22.8530 C   0  0  2  0  0  0  0  0  0  0  0  0
    8.8870   -2.6810   22.5730 N   0  0  0  0  0  0  0  0  0  0  0  0
    8.2540   -3.4600   23.6520 C   0  0  0  0  0  0  0  0  0  0  0  0
    7.3410   -4.6070   23.2190 C   0  0  0  0  0  0  0  0  0  0  0  0
    6.6850   -5.4170   24.1410 C   0  0  0  0  0  0  0  0  0  0  0  0
    6.8790   -5.1610   25.6470 C   0  0  0  0  0  0  0  0  0  0  0  0
    7.7600   -4.0550   26.0880 N   0  0  0  0  0  0  0  0  0  0  0  0
    8.4030   -3.2600   25.0250 C   0  0  0  0  0  0  0  0  0  0  0  0
    8.2030   -0.4300   21.7350 C   0  0  0  0  0  0  0  0  0  0  0  0
    8.5660    0.7220   21.4710 O   0  0  0  0  0  0  0  0  0  0  0  0
    7.1060   -1.1240   21.0540 N   0  0  0  0  0  0  0  0  0  0  0  0
    6.4120   -0.2240   20.1190 C   0  0  0  0  0  0  0  0  0  0  0  0
    5.1190    0.4630   20.5930 C   0  0  0  0  0  0  0  0  0  0  0  0
    4.4740    1.3100   19.7060 C   0  0  0  0  0  0  0  0  0  0  0  0
    4.9870    1.5390   18.4110 N   0  0  0  0  0  0  0  0  0  0  0  0
    6.1580    0.9010   18.0190 C   0  0  0  0  0  0  0  0  0  0  0  0
    6.8880    0.0230   18.8270 C   0  0  0  0  0  0  0  0  0  0  0  0
   11.3710   -1.5690   22.4710 C   0  0  0  0  0  0  0  0  0  0  0  0
   12.7580   -0.9910   22.3680 C   0  0  0  0  0  0  0  0  0  0  0  0
   13.7140   -1.8200   22.0710 F   0  0  0  0  0  0  0  0  0  0  0  0
   13.0200    0.3700   22.5610 C   0  0  0  0  0  0  0  0  0  0  0  0
   11.8390    1.2880   22.8830 C   0  0  0  0  0  0  0  0  0  0  0  0
  2  1  1  0
  2  3  2  0
  2  4  2  0
  2  5  1  0
  5  6  1  0
  6  7  2  0
  7  8  1  0
  8  9  1  0
  9 10  1  0
 10 11  1  0
 11 12  1  6
 12 13  1  0
 13 14  2  0
 14 15  1  0
 15 16  2  0
 16 17  1  0
 13 18  1  0
 17 18  2  0
 11 19  1  0
 19 20  2  0
 19 21  1  0
 21 22  1  0
 22 23  2  0
 23 24  1  0
 24 25  2  0
 25 26  1  0
 22 27  1  0
 26 27  2  0
 10 28  2  0
 28 29  1  0
 29 30  1  0
 29 31  2  0
  6 32  1  0
  9 32  2  0
 31 32  1  0
M  END
