TAM-UNI-c140e31a-10
     RDKit          3D

 23 24  0  0  0  0  0  0  0  0999 V2000
    9.5480    3.1580   21.8340 C   0  0  0  0  0  0  0  0  0  0  0  0
    9.9060    1.8710   22.9590 S   0  0  0  0  0  0  0  0  0  0  0  0
    9.1790    2.2560   24.1380 O   0  0  0  0  0  0  0  0  0  0  0  0
   11.3300    1.6420   22.9130 O   0  0  0  0  0  0  0  0  0  0  0  0
    9.1870    0.5230   22.2740 N   0  0  0  0  0  0  0  0  0  0  0  0
    7.8120    0.6070   22.0340 C   0  0  0  0  0  0  0  0  0  0  0  0
    7.0770   -0.4210   21.4580 C   0  0  2  0  0  0  0  0  0  0  0  0
    7.4760   -1.7460   21.6700 C   0  0  0  0  0  0  0  0  0  0  0  0
    7.3840   -2.3280   22.9420 C   0  0  0  0  0  0  0  0  0  0  0  0
    6.7470   -1.7510   23.8000 O   0  0  0  0  0  0  0  0  0  0  0  0
    8.0190   -3.5300   23.1400 N   0  0  0  0  0  0  0  0  0  0  0  0
    7.0300   -4.4980   23.2880 C   0  0  0  0  0  0  0  0  0  0  0  0
    6.8820   -5.5760   22.3950 C   0  0  0  0  0  0  0  0  0  0  0  0
    5.8550   -6.3660   22.7490 C   0  0  0  0  0  0  0  0  0  0  0  0
    4.8860   -6.4980   23.6820 C   0  0  0  0  0  0  0  0  0  0  0  0
    5.0270   -5.4470   24.5610 N   0  0  0  0  0  0  0  0  0  0  0  0
    6.0760   -4.4800   24.3600 C   0  0  0  0  0  0  0  0  0  0  0  0
    6.9430   -0.1370   19.9310 C   0  0  0  0  0  0  0  0  0  0  0  0
    6.1130    0.4980   18.7360 C   0  0  0  0  0  0  0  0  0  0  0  0
    4.7000    1.2440   19.1450 C   0  0  0  0  0  0  0  0  0  0  0  0
    4.1660    1.3620   20.4790 C   0  0  0  0  0  0  0  0  0  0  0  0
    5.0640    0.7510   21.2270 C   0  0  0  0  0  0  0  0  0  0  0  0
    5.8130    0.4720   20.1630 C   0  0  0  0  0  0  0  0  0  0  0  0
  1  2  1  0
  2  3  2  0
  2  4  2  0
  2  5  1  0
  5  6  1  0
  7  6  1  6
  7  8  1  0
  8  9  1  0
  9 10  2  0
  9 11  1  0
 11 12  1  0
 12 13  2  0
 13 14  1  0
 14 15  2  0
 15 16  1  0
 12 17  1  0
 16 17  2  0
  7 18  1  0
 18 19  2  0
 19 20  1  0
 20 21  2  0
 21 22  1  0
 18 23  1  0
 22 23  2  0
M  END
