TOM-OIS-cbf37265-3
     RDKit          3D

 23 25  0  0  0  0  0  0  0  0999 V2000
    5.5380   -3.1550   21.7180 C   0  0  0  0  0  0  0  0  0  0  0  0
    6.7990   -2.7100   22.3220 N   0  0  0  0  0  0  0  0  0  0  0  0
    7.6240   -3.7150   23.3800 S   0  0  0  0  0  0  0  0  0  0  0  0
    6.9850   -3.5920   24.6770 O   0  0  0  0  0  0  0  0  0  0  0  0
    7.7060   -5.0020   22.7150 O   0  0  0  0  0  0  0  0  0  0  0  0
    9.2650   -2.9820   23.4600 C   0  0  0  0  0  0  0  0  0  0  0  0
    9.1370   -1.5690   23.9870 C   0  0  0  0  0  0  0  0  0  0  0  0
   10.3660   -0.7370   23.6240 C   0  0  0  0  0  0  0  0  0  0  0  0
   11.5990   -1.5350   23.1520 C   0  0  0  0  0  0  0  0  0  0  0  0
   12.7330   -0.5590   22.8110 C   0  0  0  0  0  0  0  0  0  0  0  0
   12.3010    0.8670   23.0340 C   0  0  0  0  0  0  0  0  0  0  0  0
   10.8970    0.7140   23.5370 N   0  0  0  0  0  0  0  0  0  0  0  0
   10.1880    2.0350   23.8490 C   0  0  0  0  0  0  0  0  0  0  0  0
   11.1640    2.8640   23.5180 C   0  0  0  0  0  0  0  0  0  0  0  0
   11.4840    4.2170   23.4440 C   0  0  0  0  0  0  0  0  0  0  0  0
   10.3470    5.0230   23.2610 C   0  0  0  0  0  0  0  0  0  0  0  0
   10.4810    6.3830   22.9710 C   0  0  0  0  0  0  0  0  0  0  0  0
   11.8550    6.8160   23.1700 N   0  0  0  0  0  0  0  0  0  0  0  0
   12.1040    6.9680   24.5980 C   0  0  0  0  0  0  0  0  0  0  0  0
   12.8640    6.0140   22.4490 C   0  0  0  0  0  0  0  0  0  0  0  0
   12.5570    4.5250   22.3990 C   0  0  0  0  0  0  0  0  0  0  0  0
   11.3700    1.5640   23.3970 C   0  0  0  0  0  0  0  0  0  0  0  0
   10.3160    0.6810   23.7250 C   0  0  0  0  0  0  0  0  0  0  0  0
  1  2  1  0
  3  2  1  0
  3  4  2  0
  3  5  2  0
  3  6  1  0
  6  7  1  0
  7  8  1  0
  8  9  2  0
  9 10  1  0
 10 11  2  0
 11 12  1  0
 12 13  1  0
 13 14  2  0
 14 15  1  0
 15 16  1  0
 16 17  1  0
 17 18  1  0
 18 19  1  0
 18 20  1  0
 15 21  1  0
 20 21  1  0
 11 22  1  0
 14 22  1  0
  8 23  1  0
 22 23  2  0
M  END
