TOM-OIS-cbf37265-1
     RDKit          3D

 27 30  0  0  0  0  0  0  0  0999 V2000
   11.9340    6.5480   25.4300 C   0  0  0  0  0  0  0  0  0  0  0  0
   11.4240    5.4510   24.6080 N   0  0  0  0  0  0  0  0  0  0  0  0
   10.0680    5.8160   24.1740 C   0  0  0  0  0  0  0  0  0  0  0  0
   10.1210    5.9740   22.6920 C   0  0  0  0  0  0  0  0  0  0  0  0
   11.6220    6.0180   22.3910 C   0  0  0  0  0  0  0  0  0  0  0  0
   12.2590    5.1150   23.4150 C   0  0  2  0  0  0  0  0  0  0  0  0
   12.4510    3.6650   22.8870 C   0  0  0  0  0  0  0  0  0  0  0  0
   11.4390    2.6770   23.3860 C   0  0  0  0  0  0  0  0  0  0  0  0
   10.4530    2.7770   23.9140 C   0  0  0  0  0  0  0  0  0  0  0  0
   10.7980    1.5240   23.6680 N   0  0  0  0  0  0  0  0  0  0  0  0
   12.1610    1.1040   22.9360 C   0  0  0  0  0  0  0  0  0  0  0  0
   12.7130   -0.1630   22.5790 C   0  0  0  0  0  0  0  0  0  0  0  0
   11.9740   -1.3330   22.8820 C   0  0  0  0  0  0  0  0  0  0  0  0
   10.7380   -1.2200   23.5260 C   0  0  0  0  0  0  0  0  0  0  0  0
    9.8470   -2.3650   23.8920 C   0  0  0  0  0  0  0  0  0  0  0  0
    8.7840   -2.6320   22.8620 C   0  0  0  0  0  0  0  0  0  0  0  0
    7.1950   -3.0030   23.5710 S   0  0  0  0  0  0  0  0  0  0  0  0
    7.1960   -4.4040   23.9500 O   0  0  0  0  0  0  0  0  0  0  0  0
    6.1690   -2.4890   22.6790 O   0  0  0  0  0  0  0  0  0  0  0  0
    7.1270   -2.0590   25.0840 C   0  0  0  0  0  0  0  0  0  0  0  0
    6.4270   -2.5730   26.1820 C   0  0  0  0  0  0  0  0  0  0  0  0
    6.3830   -1.8390   27.3710 C   0  0  0  0  0  0  0  0  0  0  0  0
    7.0300   -0.6050   27.4570 C   0  0  0  0  0  0  0  0  0  0  0  0
    7.7250   -0.0930   26.3610 C   0  0  0  0  0  0  0  0  0  0  0  0
    7.7730   -0.8230   25.1690 C   0  0  0  0  0  0  0  0  0  0  0  0
   10.3250    0.0530   23.8350 C   0  0  0  0  0  0  0  0  0  0  0  0
   11.1640    1.0840   23.4530 C   0  0  0  0  0  0  0  0  0  0  0  0
  1  2  1  0
  2  3  1  0
  3  4  1  0
  4  5  1  0
  2  6  1  0
  5  6  1  0
  6  7  1  6
  7  8  1  0
  8  9  2  0
  9 10  1  0
 10 11  1  0
 11 12  1  0
 12 13  2  0
 13 14  1  0
 14 15  1  0
 15 16  1  0
 17 16  1  0
 17 18  2  0
 17 19  2  0
 17 20  1  0
 20 21  2  0
 21 22  1  0
 22 23  2  0
 23 24  1  0
 20 25  1  0
 24 25  2  0
 14 26  2  0
  8 27  1  0
 11 27  2  0
 26 27  1  0
M  END
