TRI-UNI-97428359-3
     RDKit          3D

 29 31  0  0  0  0  0  0  0  0999 V2000
    2.8960    4.5060   23.1370 O   0  0  0  0  0  0  0  0  0  0  0  0
    2.2060    3.9700   22.2750 C   0  0  0  0  0  0  0  0  0  0  0  0
    2.4210    2.6160   21.7800 N   0  0  0  0  0  0  0  0  0  0  0  0
    3.7470    2.4360   21.1680 C   0  0  0  0  0  0  0  0  0  0  0  0
    4.0860    1.0730   21.0700 C   0  0  0  0  0  0  0  0  0  0  0  0
    5.4640    0.8680   21.5540 N   0  0  0  0  0  0  0  0  0  0  0  0
    6.4660    0.3750   20.7240 C   0  0  0  0  0  0  0  0  0  0  0  0
    7.1920   -0.6540   21.1790 C   0  0  0  0  0  0  0  0  0  0  0  0
    7.7780   -0.2560   22.3690 N   0  0  0  0  0  0  0  0  0  0  0  0
    9.1450   -0.2950   22.4900 C   0  0  0  0  0  0  0  0  0  0  0  0
    9.9120    0.8230   22.8600 C   0  0  0  0  0  0  0  0  0  0  0  0
   11.2850    0.8210   22.9850 C   0  0  0  0  0  0  0  0  0  0  0  0
   12.0280   -0.3040   22.7640 C   0  0  0  0  0  0  0  0  0  0  0  0
   13.3160   -0.5180   22.8310 C   0  0  0  0  0  0  0  0  0  0  0  0
   13.8890    0.6910   22.7570 F   0  0  0  0  0  0  0  0  0  0  0  0
   13.7060   -1.2890   21.7880 F   0  0  0  0  0  0  0  0  0  0  0  0
   13.6250   -1.1560   23.9880 F   0  0  0  0  0  0  0  0  0  0  0  0
   11.2350   -1.5120   22.3650 C   0  0  0  0  0  0  0  0  0  0  0  0
    9.8810   -1.4660   22.2450 C   0  0  0  0  0  0  0  0  0  0  0  0
    6.9240    0.3660   23.3550 C   0  0  0  0  0  0  0  0  0  0  0  0
    5.5910    0.6390   23.0020 C   0  0  0  0  0  0  0  0  0  0  0  0
    1.1210    4.6510   21.6920 N   0  0  0  0  0  0  0  0  0  0  0  0
    1.1070    6.0270   21.6400 C   0  0  0  0  0  0  0  0  0  0  0  0
    0.7810    6.8730   20.5710 C   0  0  0  0  0  0  0  0  0  0  0  0
    1.6760    7.0750   19.5510 C   0  0  0  0  0  0  0  0  0  0  0  0
    1.4070    7.9350   18.4190 C   0  0  0  0  0  0  0  0  0  0  0  0
    0.1620    8.5680   18.4120 C   0  0  0  0  0  0  0  0  0  0  0  0
   -0.7210    8.3260   19.4830 C   0  0  0  0  0  0  0  0  0  0  0  0
   -0.4520    7.5070   20.5500 N   0  0  0  0  0  0  0  0  0  0  0  0
  1  2  2  0
  2  3  1  0
  3  4  1  0
  4  5  1  0
  5  6  1  0
  6  7  1  0
  7  8  1  0
  8  9  1  0
  9 10  1  0
 10 11  2  0
 11 12  1  0
 12 13  2  0
 13 14  1  0
 14 15  1  0
 14 16  1  0
 14 17  1  0
 13 18  1  0
 10 19  1  0
 18 19  2  0
  9 20  1  0
  6 21  1  0
 20 21  1  0
  2 22  1  0
 22 23  1  0
 23 24  1  0
 24 25  2  0
 25 26  1  0
 26 27  2  0
 27 28  1  0
 24 29  1  0
 28 29  2  0
M  END
