TRI-UNI-97428359-2
     RDKit          3D

 26 28  0  0  0  0  0  0  0  0999 V2000
    9.8710   -2.9050   23.5610 C   0  0  0  0  0  0  0  0  0  0  0  0
   10.4440   -1.4760   23.5110 C   0  0  0  0  0  0  0  0  0  0  0  0
    9.7970   -0.5130   24.2690 C   0  0  0  0  0  0  0  0  0  0  0  0
   10.1800    0.7980   24.3210 C   0  0  0  0  0  0  0  0  0  0  0  0
   11.2550    1.1670   23.5850 C   0  0  0  0  0  0  0  0  0  0  0  0
   11.5900    2.5650   23.6700 N   0  0  0  0  0  0  0  0  0  0  0  0
   10.7910    3.6470   23.3060 C   0  0  0  0  0  0  0  0  0  0  0  0
   11.5200    5.0130   23.1310 C   0  0  0  0  0  0  0  0  0  0  0  0
   12.9690    4.7610   23.1400 N   0  0  0  0  0  0  0  0  0  0  0  0
   13.8960    5.5780   22.3600 C   0  0  0  0  0  0  0  0  0  0  0  0
   15.2040    5.1050   22.7100 C   0  0  0  0  0  0  0  0  0  0  0  0
   16.1890    4.3800   21.9830 N   0  0  0  0  0  0  0  0  0  0  0  0
   17.4130    4.4710   22.8660 C   0  0  0  0  0  0  0  0  0  0  0  0
   17.3100    4.3010   24.2250 O   0  0  0  0  0  0  0  0  0  0  0  0
   18.6640    4.7870   22.3330 N   0  0  0  0  0  0  0  0  0  0  0  0
   19.4830    5.5190   23.1930 C   0  0  0  0  0  0  0  0  0  0  0  0
   20.8500    5.5140   22.7510 C   0  0  0  0  0  0  0  0  0  0  0  0
   21.3380    5.0330   21.3970 C   0  0  0  0  0  0  0  0  0  0  0  0
   22.8320    5.1020   21.0840 C   0  0  0  0  0  0  0  0  0  0  0  0
   23.7050    5.6050   22.0590 C   0  0  0  0  0  0  0  0  0  0  0  0
   23.1410    6.0780   23.4250 C   0  0  0  0  0  0  0  0  0  0  0  0
   21.7840    6.0170   23.7080 N   0  0  0  0  0  0  0  0  0  0  0  0
   13.2360    3.6360   22.3990 C   0  0  0  0  0  0  0  0  0  0  0  0
   12.6100    2.5700   22.8610 C   0  0  0  0  0  0  0  0  0  0  0  0
   11.9650    0.2160   22.8010 C   0  0  0  0  0  0  0  0  0  0  0  0
   11.5520   -1.0980   22.7660 C   0  0  0  0  0  0  0  0  0  0  0  0
  1  2  1  0
  2  3  2  0
  3  4  1  0
  4  5  2  0
  5  6  1  0
  6  7  1  0
  7  8  1  0
  8  9  1  0
  9 10  1  0
 10 11  1  0
 11 12  1  0
 12 13  1  0
 13 14  2  0
 13 15  1  0
 15 16  1  0
 16 17  1  0
 17 18  2  0
 18 19  1  0
 19 20  2  0
 20 21  1  0
 17 22  1  0
 21 22  2  0
  9 23  1  0
  6 24  1  0
 23 24  1  0
  5 25  1  0
  2 26  1  0
 25 26  2  0
M  END
