TRY-UNI-714a760b-3
     RDKit          3D

 19 20  0  0  0  0  0  0  0  0999 V2000
    4.7190    0.8020   21.8660 C   0  0  0  0  0  0  0  0  0  0  0  0
    5.2340    0.7250   20.4380 C   0  0  0  0  0  0  0  0  0  0  0  0
    4.5910    1.3050   19.4220 C   0  0  0  0  0  0  0  0  0  0  0  0
    3.3540    2.0250   19.7290 N   0  0  0  0  0  0  0  0  0  0  0  0
    5.0540    1.2700   17.9970 C   0  0  0  0  0  0  0  0  0  0  0  0
    6.2620    0.5630   17.6090 N   0  0  0  0  0  0  0  0  0  0  0  0
    6.9490   -0.0630   18.7360 C   0  0  0  0  0  0  0  0  0  0  0  0
    6.4240    0.0410   20.1390 C   0  0  0  0  0  0  0  0  0  0  0  0
    7.1570   -0.5400   21.1270 N   0  0  0  0  0  0  0  0  0  0  0  0
    8.2790    0.2340   21.6340 C   0  0  0  0  0  0  0  0  0  0  0  0
    8.6300    1.3130   21.1260 O   0  0  0  0  0  0  0  0  0  0  0  0
    9.0090   -0.3920   22.8240 C   0  0  0  0  0  0  0  0  0  0  0  0
   10.3500   -0.3210   22.8600 C   0  0  0  0  0  0  0  0  0  0  0  0
   10.9230    1.0940   22.8730 C   0  0  0  0  0  0  0  0  0  0  0  0
   12.2670    1.2090   22.8940 C   0  0  0  0  0  0  0  0  0  0  0  0
   13.1160   -0.0130   22.9010 C   0  0  0  0  0  0  0  0  0  0  0  0
   12.5220   -1.2660   22.8910 C   0  0  0  0  0  0  0  0  0  0  0  0
   13.4560   -2.6560   22.9050 Cl  0  0  0  0  0  0  0  0  0  0  0  0
   11.1630   -1.4120   22.8700 C   0  0  0  0  0  0  0  0  0  0  0  0
  1  2  1  0
  2  3  2  0
  3  4  1  0
  3  5  1  0
  5  6  2  0
  6  7  1  0
  2  8  1  0
  7  8  2  0
  8  9  1  0
  9 10  1  0
 10 11  2  0
 10 12  1  0
 12 13  1  0
 13 14  2  0
 14 15  1  0
 15 16  2  0
 16 17  1  0
 17 18  1  0
 13 19  1  0
 17 19  2  0
M  END
