TRY-UNI-714a760b-9
     RDKit          3D

 19 20  0  0  0  0  0  0  0  0999 V2000
    4.4410    0.2960   21.9120 C   0  0  0  0  0  0  0  0  0  0  0  0
    5.0430    0.3670   20.5220 C   0  0  0  0  0  0  0  0  0  0  0  0
    4.4350    1.0240   19.5310 C   0  0  0  0  0  0  0  0  0  0  0  0
    3.1500    1.6560   19.8810 N   0  0  0  0  0  0  0  0  0  0  0  0
    4.9770    1.1520   18.1290 C   0  0  0  0  0  0  0  0  0  0  0  0
    6.2430    0.5270   17.7470 N   0  0  0  0  0  0  0  0  0  0  0  0
    6.8870   -0.1950   18.8510 C   0  0  0  0  0  0  0  0  0  0  0  0
    6.2740   -0.2560   20.2290 C   0  0  0  0  0  0  0  0  0  0  0  0
    6.9530   -0.9220   21.2130 N   0  0  0  0  0  0  0  0  0  0  0  0
    8.0860   -0.2120   21.7820 C   0  0  0  0  0  0  0  0  0  0  0  0
    8.3390    0.9280   21.3920 O   0  0  0  0  0  0  0  0  0  0  0  0
    8.7820   -0.8940   22.6780 N   0  0  0  0  0  0  0  0  0  0  0  0
   10.1400   -0.6960   22.6290 C   0  0  0  0  0  0  0  0  0  0  0  0
   10.6120    0.4740   23.1810 C   0  0  0  0  0  0  0  0  0  0  0  0
   12.1310    0.7750   23.1390 C   0  0  0  0  0  0  0  0  0  0  0  0
   12.9240   -0.1230   22.5580 C   0  0  0  0  0  0  0  0  0  0  0  0
   12.3340   -1.3580   21.9710 C   0  0  0  0  0  0  0  0  0  0  0  0
   13.2630   -2.4760   21.1910 Cl  0  0  0  0  0  0  0  0  0  0  0  0
   10.9950   -1.5850   22.0410 C   0  0  0  0  0  0  0  0  0  0  0  0
  1  2  1  0
  2  3  2  0
  3  4  1  0
  3  5  1  0
  5  6  2  0
  6  7  1  0
  2  8  1  0
  7  8  2  0
  8  9  1  0
  9 10  1  0
 10 11  2  0
 10 12  1  0
 12 13  1  0
 13 14  2  0
 14 15  1  0
 15 16  2  0
 16 17  1  0
 17 18  1  0
 13 19  1  0
 17 19  2  0
M  END
