TRY-UNI-714a760b-7
     RDKit          3D

 18 19  0  0  0  0  0  0  0  0999 V2000
    5.1500    1.1210   21.9290 C   0  0  0  0  0  0  0  0  0  0  0  0
    5.5450    0.8320   20.4810 C   0  0  0  0  0  0  0  0  0  0  0  0
    4.7480    1.3080   19.4450 C   0  0  0  0  0  0  0  0  0  0  0  0
    3.6220    2.0320   19.7260 N   0  0  0  0  0  0  0  0  0  0  0  0
    5.0210    1.1010   18.1090 C   0  0  0  0  0  0  0  0  0  0  0  0
    6.2050    0.3310   17.7130 N   0  0  0  0  0  0  0  0  0  0  0  0
    7.0160   -0.1530   18.8410 C   0  0  0  0  0  0  0  0  0  0  0  0
    6.7040    0.0950   20.1610 C   0  0  0  0  0  0  0  0  0  0  0  0
    7.5700   -0.3920   21.1560 N   0  0  0  0  0  0  0  0  0  0  0  0
    8.6470    0.3040   21.6860 C   0  0  0  0  0  0  0  0  0  0  0  0
    9.0850    1.3820   21.2780 O   0  0  0  0  0  0  0  0  0  0  0  0
    9.1680   -0.3580   22.7380 N   0  0  0  0  0  0  0  0  0  0  0  0
   10.4570   -1.0350   22.6110 C   0  0  0  0  0  0  0  0  0  0  0  0
   11.4840   -0.1700   22.9570 C   0  0  0  0  0  0  0  0  0  0  0  0
   12.7410   -0.7020   23.2370 C   0  0  0  0  0  0  0  0  0  0  0  0
   12.7720   -1.6510   24.2520 C   0  0  0  0  0  0  0  0  0  0  0  0
   11.9200   -2.7700   23.6870 C   0  0  0  0  0  0  0  0  0  0  0  0
   10.4820   -2.2930   23.4780 C   0  0  0  0  0  0  0  0  0  0  0  0
  1  2  1  0
  2  3  2  0
  3  4  1  0
  3  5  1  0
  5  6  2  0
  6  7  1  0
  2  8  1  0
  7  8  2  0
  8  9  1  0
  9 10  1  0
 10 11  2  0
 10 12  1  0
 12 13  1  0
 13 14  1  0
 14 15  1  0
 15 16  1  0
 16 17  1  0
 13 18  1  0
 17 18  1  0
M  END
