TRY-UNI-714a760b-12
     RDKit          3D

 18 19  0  0  0  0  0  0  0  0999 V2000
    4.6520    1.4990   21.7110 C   0  0  0  0  0  0  0  0  0  0  0  0
    5.2010    1.1360   20.3410 C   0  0  0  0  0  0  0  0  0  0  0  0
    4.6450    1.6010   19.2400 C   0  0  0  0  0  0  0  0  0  0  0  0
    5.1450    1.2920   17.8760 C   0  0  0  0  0  0  0  0  0  0  0  0
    6.1910    0.5070   17.6510 N   0  0  0  0  0  0  0  0  0  0  0  0
    6.8230   -0.0200   18.7700 C   0  0  0  0  0  0  0  0  0  0  0  0
    6.3260    0.3040   20.1640 C   0  0  0  0  0  0  0  0  0  0  0  0
    6.9740   -0.1930   21.2750 N   0  0  0  0  0  0  0  0  0  0  0  0
    8.1480    0.3690   21.6680 C   0  0  0  0  0  0  0  0  0  0  0  0
    8.6290    1.4180   21.2100 O   0  0  0  0  0  0  0  0  0  0  0  0
    8.8070   -0.4530   22.6840 N   0  0  0  0  0  0  0  0  0  0  0  0
   10.1740   -0.3920   22.6400 C   0  0  0  0  0  0  0  0  0  0  0  0
   10.6850    0.8030   23.0670 C   0  0  0  0  0  0  0  0  0  0  0  0
   12.2120    1.0420   23.0620 C   0  0  0  0  0  0  0  0  0  0  0  0
   12.9790    0.0280   22.6140 C   0  0  0  0  0  0  0  0  0  0  0  0
   12.3040   -1.2260   22.1590 C   0  0  0  0  0  0  0  0  0  0  0  0
   13.2140   -2.4690   21.5600 Cl  0  0  0  0  0  0  0  0  0  0  0  0
   10.9630   -1.4020   22.1900 C   0  0  0  0  0  0  0  0  0  0  0  0
  1  2  1  0
  2  3  2  0
  3  4  1  0
  4  5  2  0
  5  6  1  0
  2  7  1  0
  6  7  2  0
  7  8  1  0
  8  9  1  0
  9 10  2  0
  9 11  1  0
 11 12  1  0
 12 13  2  0
 13 14  1  0
 14 15  2  0
 15 16  1  0
 16 17  1  0
 12 18  1  0
 16 18  2  0
M  END
