TRY-UNI-714a760b-18
     RDKit          3D

 19 20  0  0  0  0  0  0  0  0999 V2000
    5.2230    1.2400   21.8690 C   0  0  0  0  0  0  0  0  0  0  0  0
    5.6260    0.8960   20.4590 C   0  0  0  0  0  0  0  0  0  0  0  0
    4.7910    1.4130   19.3660 C   0  0  0  0  0  0  0  0  0  0  0  0
    5.1460    1.1170   18.0470 C   0  0  0  0  0  0  0  0  0  0  0  0
    6.2690    0.3380   17.8480 N   0  0  0  0  0  0  0  0  0  0  0  0
    7.0600   -0.1590   18.8490 C   0  0  0  0  0  0  0  0  0  0  0  0
    6.7580    0.1170   20.1490 C   0  0  0  0  0  0  0  0  0  0  0  0
    7.6280   -0.4050   21.0490 N   0  0  0  0  0  0  0  0  0  0  0  0
    8.4140    0.6390   21.5060 C   0  0  0  0  0  0  0  0  0  0  0  0
    8.6450    1.6380   20.8490 O   0  0  0  0  0  0  0  0  0  0  0  0
    9.1000    0.7700   22.8450 C   0  0  2  0  0  0  0  0  0  0  0  0
   10.0750    1.9510   22.7650 C   0  0  0  0  0  0  0  0  0  0  0  0
    9.7280   -0.5700   23.2670 C   0  0  0  0  0  0  0  0  0  0  0  0
    8.8240   -1.6940   23.2950 C   0  0  0  0  0  0  0  0  0  0  0  0
    9.3360   -2.9160   23.6810 C   0  0  0  0  0  0  0  0  0  0  0  0
   10.7900   -3.1350   24.0780 C   0  0  0  0  0  0  0  0  0  0  0  0
   11.7380   -1.9660   24.0450 C   0  0  0  0  0  0  0  0  0  0  0  0
   13.3750   -2.1490   24.4830 Cl  0  0  0  0  0  0  0  0  0  0  0  0
   11.1000   -0.6540   23.6040 C   0  0  0  0  0  0  0  0  0  0  0  0
  1  2  1  0
  2  3  2  0
  3  4  1  0
  4  5  2  0
  5  6  1  0
  2  7  1  0
  6  7  2  0
  7  8  1  0
  8  9  1  0
  9 10  2  0
  9 11  1  0
 11 12  1  6
 11 13  1  0
 13 14  2  0
 14 15  1  0
 15 16  2  0
 16 17  1  0
 17 18  1  0
 13 19  1  0
 17 19  2  0
M  END
