TRY-UNI-714a760b-13
     RDKit          3D

 19 20  0  0  0  0  0  0  0  0999 V2000
    4.4880    0.4780   21.5800 C   0  0  0  0  0  0  0  0  0  0  0  0
    5.1460    0.5070   20.2520 C   0  0  0  0  0  0  0  0  0  0  0  0
    4.5480    1.1500   19.1610 C   0  0  0  0  0  0  0  0  0  0  0  0
    3.3150    1.8240   19.1520 N   0  0  0  0  0  0  0  0  0  0  0  0
    5.1700    1.1700   17.9350 C   0  0  0  0  0  0  0  0  0  0  0  0
    6.4360    0.5180   17.7480 N   0  0  0  0  0  0  0  0  0  0  0  0
    7.0190   -0.1180   18.8240 C   0  0  0  0  0  0  0  0  0  0  0  0
    6.4200   -0.1290   20.0660 C   0  0  0  0  0  0  0  0  0  0  0  0
    7.0720   -0.7650   21.1440 N   0  0  0  0  0  0  0  0  0  0  0  0
    8.2750   -0.3610   21.7130 C   0  0  0  0  0  0  0  0  0  0  0  0
    8.8970    0.6630   21.4320 O   0  0  0  0  0  0  0  0  0  0  0  0
    8.7570   -1.2810   22.7390 C   0  0  2  0  0  0  0  0  0  0  0  0
    9.6430   -2.4880   22.4520 C   0  0  0  0  0  0  0  0  0  0  0  0
    7.4460   -1.8210   23.3700 C   0  0  0  0  0  0  0  0  0  0  0  0
    7.6230   -2.2400   24.6520 C   0  0  0  0  0  0  0  0  0  0  0  0
    6.3180   -2.5160   25.4170 C   0  0  0  0  0  0  0  0  0  0  0  0
    5.2430   -2.8160   24.5550 C   0  0  0  0  0  0  0  0  0  0  0  0
    5.5370   -3.2130   23.1030 C   0  0  0  0  0  0  0  0  0  0  0  0
    6.7990   -2.9780   22.6090 C   0  0  0  0  0  0  0  0  0  0  0  0
  1  2  1  0
  2  3  2  0
  3  4  1  0
  3  5  1  0
  5  6  2  0
  6  7  1  0
  2  8  1  0
  7  8  2  0
  8  9  1  0
  9 10  1  0
 10 11  2  0
 10 12  1  0
 12 13  1  6
 12 14  1  0
 14 15  1  0
 15 16  1  0
 16 17  1  0
 17 18  1  0
 14 19  1  0
 18 19  1  0
M  END
