TRY-UNI-714a760b-8
     RDKit          3D

 18 19  0  0  0  0  0  0  0  0999 V2000
    5.1260    0.8550   22.0370 C   0  0  0  0  0  0  0  0  0  0  0  0
    5.5260    0.7090   20.5830 C   0  0  0  0  0  0  0  0  0  0  0  0
    4.8350    1.3210   19.5980 C   0  0  0  0  0  0  0  0  0  0  0  0
    3.6750    2.1410   19.9710 N   0  0  0  0  0  0  0  0  0  0  0  0
    5.1650    1.2330   18.1400 C   0  0  0  0  0  0  0  0  0  0  0  0
    6.2940    0.4370   17.6910 N   0  0  0  0  0  0  0  0  0  0  0  0
    7.0370   -0.2280   18.7770 C   0  0  0  0  0  0  0  0  0  0  0  0
    6.6470   -0.0810   20.2270 C   0  0  0  0  0  0  0  0  0  0  0  0
    7.4110   -0.7320   21.1930 N   0  0  0  0  0  0  0  0  0  0  0  0
    8.5800   -0.1870   21.9060 C   0  0  0  0  0  0  0  0  0  0  0  0
    9.1650    0.8050   21.4870 O   0  0  0  0  0  0  0  0  0  0  0  0
    8.8570   -0.9220   23.0130 N   0  0  0  0  0  0  0  0  0  0  0  0
    8.0710   -1.9950   23.4830 C   0  0  0  0  0  0  0  0  0  0  0  0
    8.3120   -3.2340   22.8940 C   0  0  0  0  0  0  0  0  0  0  0  0
    7.4850   -4.4600   23.3450 C   0  0  0  0  0  0  0  0  0  0  0  0
    6.5430   -4.2870   24.3110 C   0  0  0  0  0  0  0  0  0  0  0  0
    6.3110   -2.9300   24.9300 C   0  0  0  0  0  0  0  0  0  0  0  0
    7.0860   -1.8580   24.4830 C   0  0  0  0  0  0  0  0  0  0  0  0
  1  2  1  0
  2  3  2  0
  3  4  1  0
  3  5  1  0
  5  6  2  0
  6  7  1  0
  2  8  1  0
  7  8  2  0
  8  9  1  0
  9 10  1  0
 10 11  2  0
 10 12  1  0
 12 13  1  0
 13 14  2  0
 14 15  1  0
 15 16  2  0
 16 17  1  0
 13 18  1  0
 17 18  2  0
M  END
