TRY-UNI-714a760b-14
     RDKit          3D

 19 20  0  0  0  0  0  0  0  0999 V2000
    5.2660    0.3740   22.2050 C   0  0  0  0  0  0  0  0  0  0  0  0
    5.5270    0.3750   20.7080 C   0  0  0  0  0  0  0  0  0  0  0  0
    4.6750    0.9290   19.8470 C   0  0  0  0  0  0  0  0  0  0  0  0
    3.4670    1.5170   20.4330 N   0  0  0  0  0  0  0  0  0  0  0  0
    4.8790    0.9790   18.3580 C   0  0  0  0  0  0  0  0  0  0  0  0
    6.0660    0.3870   17.7390 N   0  0  0  0  0  0  0  0  0  0  0  0
    6.9780   -0.2240   18.7200 C   0  0  0  0  0  0  0  0  0  0  0  0
    6.6950   -0.2150   20.2010 C   0  0  0  0  0  0  0  0  0  0  0  0
    7.6090   -0.7820   21.0530 N   0  0  0  0  0  0  0  0  0  0  0  0
    8.6620    0.0640   21.5880 C   0  0  0  0  0  0  0  0  0  0  0  0
    8.8270    1.2060   21.1340 O   0  0  0  0  0  0  0  0  0  0  0  0
    9.5550   -0.5240   22.7220 C   0  0  1  0  0  0  0  0  0  0  0  0
    9.9000   -1.8680   22.8210 C   0  0  0  0  0  0  0  0  0  0  0  0
   10.5950    0.3940   22.7920 C   0  0  0  0  0  0  0  0  0  0  0  0
   10.2240    1.7240   22.7860 C   0  0  0  0  0  0  0  0  0  0  0  0
   11.3250    2.7760   22.8370 C   0  0  0  0  0  0  0  0  0  0  0  0
   12.6470    2.3620   22.8900 C   0  0  0  0  0  0  0  0  0  0  0  0
   12.9140    0.9970   22.8980 C   0  0  0  0  0  0  0  0  0  0  0  0
   11.9280    0.0440   22.8510 C   0  0  0  0  0  0  0  0  0  0  0  0
  1  2  1  0
  2  3  2  0
  3  4  1  0
  3  5  1  0
  5  6  2  0
  6  7  1  0
  2  8  1  0
  7  8  2  0
  8  9  1  0
  9 10  1  0
 10 11  2  0
 10 12  1  0
 12 13  1  6
 12 14  1  0
 14 15  2  0
 15 16  1  0
 16 17  2  0
 17 18  1  0
 14 19  1  0
 18 19  2  0
M  END
