VID-DNY-1d288c6c-11
     RDKit          3D

 31 34  0  0  0  0  0  0  0  0999 V2000
   10.3710    2.1090   22.4580 O   0  0  0  0  0  0  0  0  0  0  0  0
    9.4750    1.6840   21.7170 N   0  0  0  0  0  0  0  0  0  0  0  0
    8.7330    2.4190   21.0740 O   0  0  0  0  0  0  0  0  0  0  0  0
    8.8790    0.4310   22.1140 C   0  0  0  0  0  0  0  0  0  0  0  0
    9.3550   -0.1790   23.3680 C   0  0  0  0  0  0  0  0  0  0  0  0
    8.7610   -1.3450   23.7980 C   0  0  0  0  0  0  0  0  0  0  0  0
    7.7540   -1.9250   23.0660 C   0  0  0  0  0  0  0  0  0  0  0  0
    7.2000   -3.0640   23.6770 N   0  0  0  0  0  0  0  0  0  0  0  0
    5.9910   -3.4750   23.2130 N   0  0  0  0  0  0  0  0  0  0  0  0
    5.6980   -4.4710   23.9840 C   0  0  0  0  0  0  0  0  0  0  0  0
    4.5340   -5.2540   23.9600 C   0  0  0  0  0  0  0  0  0  0  0  0
    4.4930   -6.3910   24.7990 C   0  0  0  0  0  0  0  0  0  0  0  0
    3.2830   -7.3060   24.8520 C   0  0  0  0  0  0  0  0  0  0  0  0
    2.1860   -6.8620   23.9450 C   0  0  0  0  0  0  0  0  0  0  0  0
    1.0410   -7.6040   23.9040 F   0  0  0  0  0  0  0  0  0  0  0  0
    2.2570   -5.7340   23.1390 C   0  0  0  0  0  0  0  0  0  0  0  0
    3.4250   -4.9410   23.1520 C   0  0  0  0  0  0  0  0  0  0  0  0
    6.7360   -4.6330   24.8610 C   0  0  0  0  0  0  0  0  0  0  0  0
    7.8300   -3.7290   24.7640 C   0  0  0  0  0  0  0  0  0  0  0  0
    8.1100   -4.5970   25.7930 C   0  0  0  0  0  0  0  0  0  0  0  0
    8.4940   -5.8360   25.4280 C   0  0  0  0  0  0  0  0  0  0  0  0
    8.8740   -5.6770   26.5380 C   0  0  0  0  0  0  0  0  0  0  0  0
    7.6190   -5.4920   27.3370 C   0  0  0  0  0  0  0  0  0  0  0  0
    6.4840   -6.0300   26.8800 F   0  0  0  0  0  0  0  0  0  0  0  0
    7.9550   -5.0290   28.3590 C   0  0  0  0  0  0  0  0  0  0  0  0
    8.2050   -4.1620   27.2610 C   0  0  0  0  0  0  0  0  0  0  0  0
    7.3220   -1.3630   21.8400 C   0  0  0  0  0  0  0  0  0  0  0  0
    6.2760   -1.9320   21.0110 N   0  0  0  0  0  0  0  0  0  0  0  0
    5.8630   -3.0640   21.2900 O   0  0  0  0  0  0  0  0  0  0  0  0
    5.8620   -1.2040   20.0960 O   0  0  0  0  0  0  0  0  0  0  0  0
    7.8860   -0.1730   21.3570 C   0  0  0  0  0  0  0  0  0  0  0  0
  1  2  2  0
  2  3  1  0
  2  4  1  0
  4  5  2  0
  5  6  1  0
  6  7  2  0
  7  8  1  0
  8  9  1  0
  9 10  2  0
 10 11  1  0
 11 12  2  0
 12 13  1  0
 13 14  2  0
 14 15  1  0
 14 16  1  0
 11 17  1  0
 16 17  2  0
 10 18  1  0
  8 19  1  0
 18 19  2  0
 19 20  1  0
 20 21  2  0
 21 22  1  0
 22 23  2  0
 23 24  1  0
 23 25  1  0
 20 26  1  0
 25 26  2  0
  7 27  1  0
 27 28  1  0
 28 29  2  0
 28 30  1  0
  4 31  1  0
 27 31  2  0
M  CHG  4   2   1   3  -1  28   1  30  -1
M  END
