VID-DNY-1d288c6c-5
     RDKit          3D

 31 34  0  0  0  0  0  0  0  0999 V2000
    6.7540    0.8000   18.1910 O   0  0  0  0  0  0  0  0  0  0  0  0
    7.1360    1.2680   19.2820 N   0  0  0  0  0  0  0  0  0  0  0  0
    6.5100    2.1980   19.7910 O   0  0  0  0  0  0  0  0  0  0  0  0
    7.3940    0.2940   20.3220 C   0  0  0  0  0  0  0  0  0  0  0  0
    8.3070    0.5250   21.3660 C   0  0  0  0  0  0  0  0  0  0  0  0
    8.4430   -0.4590   22.3630 C   0  0  0  0  0  0  0  0  0  0  0  0
    7.6350   -1.6970   22.3030 C   0  0  0  0  0  0  0  0  0  0  0  0
    7.5990   -2.7020   23.2650 N   0  0  0  0  0  0  0  0  0  0  0  0
    6.3520   -3.2040   23.0540 N   0  0  0  0  0  0  0  0  0  0  0  0
    6.1900   -4.1150   23.8980 C   0  0  0  0  0  0  0  0  0  0  0  0
    5.0390   -4.9000   24.0420 C   0  0  0  0  0  0  0  0  0  0  0  0
    5.0520   -5.9040   25.0220 C   0  0  0  0  0  0  0  0  0  0  0  0
    3.9630   -6.7570   25.2610 C   0  0  0  0  0  0  0  0  0  0  0  0
    2.8270   -6.5740   24.4750 C   0  0  0  0  0  0  0  0  0  0  0  0
    1.7560   -7.3570   24.6580 F   0  0  0  0  0  0  0  0  0  0  0  0
    2.7910   -5.4750   23.3980 C   0  0  0  0  0  0  0  0  0  0  0  0
    3.9110   -4.6890   23.2390 C   0  0  0  0  0  0  0  0  0  0  0  0
    7.3410   -4.1590   24.6250 C   0  0  0  0  0  0  0  0  0  0  0  0
    8.4110   -3.2500   24.3150 C   0  0  0  0  0  0  0  0  0  0  0  0
    8.5070   -4.1340   25.3370 C   0  0  0  0  0  0  0  0  0  0  0  0
    9.3910   -5.1180   25.7600 C   0  0  0  0  0  0  0  0  0  0  0  0
    9.0310   -5.8590   26.9000 C   0  0  0  0  0  0  0  0  0  0  0  0
    7.8070   -5.5710   27.5610 C   0  0  0  0  0  0  0  0  0  0  0  0
    7.1470   -6.3370   28.9220 Cl  0  0  0  0  0  0  0  0  0  0  0  0
    6.9810   -4.5780   27.1210 C   0  0  0  0  0  0  0  0  0  0  0  0
    7.3290   -3.8820   26.0360 C   0  0  0  0  0  0  0  0  0  0  0  0
    6.7880   -1.8380   21.2120 C   0  0  0  0  0  0  0  0  0  0  0  0
    5.9340   -3.0040   21.0010 N   0  0  0  0  0  0  0  0  0  0  0  0
    5.1380   -2.9170   20.0620 O   0  0  0  0  0  0  0  0  0  0  0  0
    6.3430   -4.0830   21.4400 O   0  0  0  0  0  0  0  0  0  0  0  0
    6.6600   -0.8710   20.2340 C   0  0  0  0  0  0  0  0  0  0  0  0
  1  2  2  0
  2  3  1  0
  2  4  1  0
  4  5  2  0
  5  6  1  0
  6  7  2  0
  7  8  1  0
  8  9  1  0
  9 10  2  0
 10 11  1  0
 11 12  2  0
 12 13  1  0
 13 14  2  0
 14 15  1  0
 14 16  1  0
 11 17  1  0
 16 17  2  0
 10 18  1  0
  8 19  1  0
 18 19  2  0
 19 20  1  0
 20 21  2  0
 21 22  1  0
 22 23  2  0
 23 24  1  0
 23 25  1  0
 20 26  1  0
 25 26  2  0
  7 27  1  0
 27 28  1  0
 28 29  2  0
 28 30  1  0
  4 31  1  0
 27 31  2  0
M  CHG  4   2   1   3  -1  28   1  30  -1
M  END
