VID-DNY-1d288c6c-1
     RDKit          3D

 29 32  0  0  0  0  0  0  0  0999 V2000
    6.9970    2.0820   20.0110 O   0  0  0  0  0  0  0  0  0  0  0  0
    7.2970    0.9930   19.5250 N   0  0  0  0  0  0  0  0  0  0  0  0
    6.8930    0.6230   18.3990 O   0  0  0  0  0  0  0  0  0  0  0  0
    7.4660   -0.0390   20.5400 C   0  0  0  0  0  0  0  0  0  0  0  0
    8.6930   -0.1470   21.4320 C   0  0  0  0  0  0  0  0  0  0  0  0
    8.7480   -1.1660   22.4050 C   0  0  0  0  0  0  0  0  0  0  0  0
    7.6720   -2.0260   22.5070 C   0  0  0  0  0  0  0  0  0  0  0  0
    7.5040   -3.0760   23.4370 N   0  0  0  0  0  0  0  0  0  0  0  0
    6.3730   -3.7460   23.1160 N   0  0  0  0  0  0  0  0  0  0  0  0
    6.2440   -4.6480   24.0020 C   0  0  0  0  0  0  0  0  0  0  0  0
    5.2040   -5.5740   24.1020 C   0  0  0  0  0  0  0  0  0  0  0  0
    4.4440   -5.9760   22.9920 C   0  0  0  0  0  0  0  0  0  0  0  0
    3.3140   -6.9840   23.1620 C   0  0  0  0  0  0  0  0  0  0  0  0
    3.0900   -7.5000   24.5560 C   0  0  0  0  0  0  0  0  0  0  0  0
    3.8960   -7.0440   25.6000 C   0  0  0  0  0  0  0  0  0  0  0  0
    4.9130   -6.1130   25.3750 C   0  0  0  0  0  0  0  0  0  0  0  0
    7.3040   -4.5250   24.8440 C   0  0  0  0  0  0  0  0  0  0  0  0
    8.2550   -3.4880   24.5890 C   0  0  0  0  0  0  0  0  0  0  0  0
    8.5210   -4.2540   25.6850 C   0  0  0  0  0  0  0  0  0  0  0  0
    9.3190   -5.4000   25.5810 C   0  0  0  0  0  0  0  0  0  0  0  0
    9.5040   -6.1810   26.6860 C   0  0  0  0  0  0  0  0  0  0  0  0
    8.8440   -5.6300   27.6990 C   0  0  0  0  0  0  0  0  0  0  0  0
    8.0720   -4.6130   28.0590 C   0  0  0  0  0  0  0  0  0  0  0  0
    7.8870   -3.8390   26.9300 C   0  0  0  0  0  0  0  0  0  0  0  0
    6.5700   -1.8860   21.6480 C   0  0  0  0  0  0  0  0  0  0  0  0
    5.4380   -2.7850   21.7540 N   0  0  0  0  0  0  0  0  0  0  0  0
    5.0290   -3.3290   20.7200 O   0  0  0  0  0  0  0  0  0  0  0  0
    4.7390   -2.6040   22.7630 O   0  0  0  0  0  0  0  0  0  0  0  0
    6.4420   -0.9260   20.6750 C   0  0  0  0  0  0  0  0  0  0  0  0
  1  2  2  0
  2  3  1  0
  2  4  1  0
  4  5  2  0
  5  6  1  0
  6  7  2  0
  7  8  1  0
  8  9  1  0
  9 10  2  0
 10 11  1  0
 11 12  2  0
 12 13  1  0
 13 14  2  0
 14 15  1  0
 11 16  1  0
 15 16  2  0
 10 17  1  0
  8 18  1  0
 17 18  2  0
 18 19  1  0
 19 20  2  0
 20 21  1  0
 21 22  2  0
 22 23  1  0
 19 24  1  0
 23 24  2  0
  7 25  1  0
 25 26  1  0
 26 27  2  0
 26 28  1  0
  4 29  1  0
 25 29  2  0
M  CHG  4   2   1   3  -1  26   1  28  -1
M  END
