VID-DNY-1d288c6c-8
     RDKit          3D

 31 34  0  0  0  0  0  0  0  0999 V2000
   10.1040    3.1670   21.9700 O   0  0  0  0  0  0  0  0  0  0  0  0
    9.2180    2.5840   21.3250 N   0  0  0  0  0  0  0  0  0  0  0  0
    8.1510    3.1320   21.0660 O   0  0  0  0  0  0  0  0  0  0  0  0
    9.0100    1.4180   21.7440 C   0  0  0  0  0  0  0  0  0  0  0  0
    9.8950    0.8580   22.8470 C   0  0  0  0  0  0  0  0  0  0  0  0
    9.6070   -0.5090   23.4110 C   0  0  0  0  0  0  0  0  0  0  0  0
    8.5080   -1.1520   22.8400 C   0  0  0  0  0  0  0  0  0  0  0  0
    8.0870   -2.3480   23.3830 N   0  0  0  0  0  0  0  0  0  0  0  0
    6.9850   -2.7870   22.7500 N   0  0  0  0  0  0  0  0  0  0  0  0
    6.6760   -3.8090   23.4450 C   0  0  0  0  0  0  0  0  0  0  0  0
    5.6200   -4.6220   23.2910 C   0  0  0  0  0  0  0  0  0  0  0  0
    5.7430   -5.5200   22.2770 C   0  0  0  0  0  0  0  0  0  0  0  0
    4.7710   -6.3860   22.0470 C   0  0  0  0  0  0  0  0  0  0  0  0
    3.5920   -6.3090   22.9440 C   0  0  0  0  0  0  0  0  0  0  0  0
    2.2190   -7.3490   22.8260 Cl  0  0  0  0  0  0  0  0  0  0  0  0
    3.6180   -5.3360   23.9250 C   0  0  0  0  0  0  0  0  0  0  0  0
    4.5910   -4.3530   24.2680 C   0  0  0  0  0  0  0  0  0  0  0  0
    7.5800   -3.9600   24.4130 C   0  0  0  0  0  0  0  0  0  0  0  0
    8.6120   -3.0090   24.4920 C   0  0  0  0  0  0  0  0  0  0  0  0
    8.6070   -3.9850   25.4300 C   0  0  0  0  0  0  0  0  0  0  0  0
    9.4510   -5.1010   25.7740 C   0  0  0  0  0  0  0  0  0  0  0  0
    9.0290   -5.9350   26.8580 C   0  0  0  0  0  0  0  0  0  0  0  0
    7.7570   -5.5970   27.5590 C   0  0  0  0  0  0  0  0  0  0  0  0
    6.7850   -6.3470   28.9740 Br  0  0  0  0  0  0  0  0  0  0  0  0
    7.2690   -4.4850   26.9570 C   0  0  0  0  0  0  0  0  0  0  0  0
    7.4300   -3.7360   26.1580 C   0  0  0  0  0  0  0  0  0  0  0  0
    7.7410   -0.6090   21.7750 C   0  0  0  0  0  0  0  0  0  0  0  0
    6.6130   -1.3300   21.1880 N   0  0  0  0  0  0  0  0  0  0  0  0
    6.4920   -1.1790   19.9600 O   0  0  0  0  0  0  0  0  0  0  0  0
    5.6610   -1.5400   21.9470 O   0  0  0  0  0  0  0  0  0  0  0  0
    7.9750    0.6510   21.2280 C   0  0  0  0  0  0  0  0  0  0  0  0
  1  2  2  0
  2  3  1  0
  2  4  1  0
  4  5  2  0
  5  6  1  0
  6  7  2  0
  7  8  1  0
  8  9  1  0
  9 10  2  0
 10 11  1  0
 11 12  2  0
 12 13  1  0
 13 14  2  0
 14 15  1  0
 14 16  1  0
 11 17  1  0
 16 17  2  0
 10 18  1  0
  8 19  1  0
 18 19  2  0
 19 20  1  0
 20 21  2  0
 21 22  1  0
 22 23  2  0
 23 24  1  0
 23 25  1  0
 20 26  1  0
 25 26  2  0
  7 27  1  0
 27 28  1  0
 28 29  2  0
 28 30  1  0
  4 31  1  0
 27 31  2  0
M  CHG  4   2   1   3  -1  28   1  30  -1
M  END
