VIJ-CYC-1a381570-1
     RDKit          3D

 32 33  0  0  0  0  0  0  0  0999 V2000
    8.3730   -2.9810   23.9430 C   0  0  0  0  0  0  0  0  0  0  0  0
    9.4440   -2.0370   24.0870 O   0  0  0  0  0  0  0  0  0  0  0  0
    9.8920   -1.3760   22.9520 C   0  0  0  0  0  0  0  0  0  0  0  0
    9.8590   -1.9860   21.8980 O   0  0  0  0  0  0  0  0  0  0  0  0
   10.3870   -0.0290   22.9680 C   0  0  0  0  0  0  0  0  0  0  0  0
    9.9510    1.1340   23.2590 C   0  0  0  0  0  0  0  0  0  0  0  0
    9.1380    2.0460   23.6410 C   0  0  0  0  0  0  0  0  0  0  0  0
   10.0410    3.0530   23.5010 C   0  0  0  0  0  0  0  0  0  0  0  0
    9.8000    4.7930   23.8590 S   0  0  0  0  0  0  0  0  0  0  0  0
   10.5390    5.6100   22.9240 O   0  0  0  0  0  0  0  0  0  0  0  0
   10.0100    4.9880   25.2780 O   0  0  0  0  0  0  0  0  0  0  0  0
    8.1560    5.0430   23.6450 N   0  0  0  0  0  0  0  0  0  0  0  0
    7.5730    4.9620   22.4180 C   0  0  0  0  0  0  0  0  0  0  0  0
    7.0820    6.0530   21.7500 C   0  0  0  0  0  0  0  0  0  0  0  0
    7.2870    7.2960   21.1500 C   0  0  0  0  0  0  0  0  0  0  0  0
    6.3610    8.1120   20.5420 C   0  0  0  0  0  0  0  0  0  0  0  0
    5.0580    7.8010   20.4380 C   0  0  0  0  0  0  0  0  0  0  0  0
    4.2320    8.8700   19.7220 C   0  0  2  0  0  0  0  0  0  0  0  0
    5.1630   10.0570   19.4710 C   0  0  0  0  0  0  0  0  0  0  0  0
    3.0820    9.2670   20.5080 N   0  0  0  0  0  0  0  0  0  0  0  0
    1.9560    9.8520   19.8900 C   0  0  0  0  0  0  0  0  0  0  0  0
    0.8240    9.3930   19.9180 O   0  0  0  0  0  0  0  0  0  0  0  0
    2.3480   10.9920   19.2720 O   0  0  0  0  0  0  0  0  0  0  0  0
    2.3900   11.0910   17.8220 C   0  0  0  0  0  0  0  0  0  0  0  0
    3.4850   10.5640   17.1380 C   0  0  0  0  0  0  0  0  0  0  0  0
    2.3580   12.5740   17.4440 C   0  0  0  0  0  0  0  0  0  0  0  0
    1.1640   10.3790   17.2420 C   0  0  0  0  0  0  0  0  0  0  0  0
    4.6310    6.6040   20.9640 C   0  0  0  0  0  0  0  0  0  0  0  0
    5.5320    5.7230   21.6000 C   0  0  0  0  0  0  0  0  0  0  0  0
   11.4120    2.3000   22.9430 C   0  0  0  0  0  0  0  0  0  0  0  0
   12.8060    3.5450   22.6530 Br  0  0  0  0  0  0  0  0  0  0  0  0
   11.5700    0.7450   22.6870 C   0  0  0  0  0  0  0  0  0  0  0  0
  1  2  1  0
  2  3  1  0
  3  4  2  0
  3  5  1  0
  5  6  2  0
  6  7  1  0
  7  8  2  0
  8  9  1  0
  9 10  2  0
  9 11  2  0
  9 12  1  0
 12 13  1  0
 13 14  1  0
 14 15  2  0
 15 16  1  0
 16 17  2  0
 17 18  1  0
 18 19  1  1
 18 20  1  0
 20 21  1  0
 21 22  2  0
 21 23  1  0
 24 23  1  0
 24 25  1  0
 24 26  1  0
 24 27  1  0
 17 28  1  0
 14 29  1  0
 28 29  2  0
  8 30  1  0
 30 31  1  0
  5 32  1  0
 30 32  2  0
M  END
