VIJ-CYC-1a381570-13
     RDKit          3D

 25 26  0  0  0  0  0  0  0  0999 V2000
    3.8070    3.0550   19.1380 C   0  0  0  0  0  0  0  0  0  0  0  0
    4.3340    3.5750   20.3590 O   0  0  0  0  0  0  0  0  0  0  0  0
    3.9150    4.9220   20.6520 C   0  0  0  0  0  0  0  0  0  0  0  0
    2.7140    5.4690   20.3490 O   0  0  0  0  0  0  0  0  0  0  0  0
    4.9560    5.5780   21.3420 C   0  0  0  0  0  0  0  0  0  0  0  0
    6.0440    4.6000   22.2710 S   0  0  0  0  0  0  0  0  0  0  0  0
    6.8730    5.9870   22.7530 C   0  0  0  0  0  0  0  0  0  0  0  0
    7.9090    6.0600   23.5840 N   0  0  0  0  0  0  0  0  0  0  0  0
    9.3540    5.2700   23.2930 S   0  0  0  0  0  0  0  0  0  0  0  0
   10.2170    5.9230   22.3470 O   0  0  0  0  0  0  0  0  0  0  0  0
    9.8740    5.2600   24.6550 O   0  0  0  0  0  0  0  0  0  0  0  0
    8.9540    3.5280   22.9260 C   0  0  0  0  0  0  0  0  0  0  0  0
    7.9410    2.8020   23.4430 C   0  0  0  0  0  0  0  0  0  0  0  0
    8.5000    1.8780   22.8040 C   0  0  0  0  0  0  0  0  0  0  0  0
    8.5700    0.5730   22.4690 C   0  0  0  0  0  0  0  0  0  0  0  0
    7.7550   -0.6900   22.8640 C   0  0  0  0  0  0  0  0  0  0  0  0
    8.5630   -1.6140   23.5080 F   0  0  0  0  0  0  0  0  0  0  0  0
    9.6440    0.7990   21.6420 C   0  0  0  0  0  0  0  0  0  0  0  0
    9.7270    2.5390   22.0450 C   0  0  0  0  0  0  0  0  0  0  0  0
    6.4490    7.1150   22.2920 N   0  0  0  0  0  0  0  0  0  0  0  0
    5.3430    6.9390   21.4700 C   0  0  0  0  0  0  0  0  0  0  0  0
    4.8540    8.1610   20.9560 C   0  0  0  0  0  0  0  0  0  0  0  0
    3.6410    8.2270   20.2700 C   0  0  0  0  0  0  0  0  0  0  0  0
    5.9260    8.7390   19.9840 C   0  0  0  0  0  0  0  0  0  0  0  0
    4.8240    9.2030   22.0950 C   0  0  0  0  0  0  0  0  0  0  0  0
  1  2  1  0
  2  3  1  0
  3  4  2  0
  3  5  1  0
  5  6  1  0
  6  7  1  0
  7  8  1  0
  9  8  1  0
  9 10  2  0
  9 11  2  0
  9 12  1  0
 12 13  2  0
 13 14  1  0
 14 15  2  0
 15 16  1  0
 16 17  1  0
 15 18  1  0
 12 19  1  0
 18 19  2  0
  7 20  2  0
  5 21  2  0
 20 21  1  0
 21 22  1  0
 22 23  1  0
 22 24  1  0
 22 25  1  0
M  END
