VIJ-CYC-1a381570-4
     RDKit          3D

 32 35  0  0  0  0  0  0  0  0999 V2000
   13.1540   -1.0750   22.8250 C   0  0  0  0  0  0  0  0  0  0  0  0
   12.6930   -0.0340   23.6750 O   0  0  0  0  0  0  0  0  0  0  0  0
   12.6930    1.3400   23.3520 C   0  0  0  0  0  0  0  0  0  0  0  0
   11.5090    1.3200   23.6890 C   0  0  0  0  0  0  0  0  0  0  0  0
   10.4610    0.4560   24.1810 C   0  0  0  0  0  0  0  0  0  0  0  0
    9.5240    1.5990   24.1840 C   0  0  0  0  0  0  0  0  0  0  0  0
   10.3590    2.8120   23.6760 C   0  0  0  0  0  0  0  0  0  0  0  0
   11.9200    2.6410   23.2780 C   0  0  0  0  0  0  0  0  0  0  0  0
   12.3520    4.1300   22.8780 C   0  0  0  0  0  0  0  0  0  0  0  0
   11.6760    5.2010   23.4760 C   0  0  0  0  0  0  0  0  0  0  0  0
   12.3150    5.7350   24.6850 N   0  0  0  0  0  0  0  0  0  0  0  0
   11.4900    6.5120   25.4690 C   0  0  0  0  0  0  0  0  0  0  0  0
   10.2920    6.2570   25.6150 O   0  0  0  0  0  0  0  0  0  0  0  0
   11.8670    7.6370   26.1570 C   0  0  0  0  0  0  0  0  0  0  0  0
   12.3020    7.3660   27.2740 O   0  0  0  0  0  0  0  0  0  0  0  0
   11.6850    8.8910   25.5020 N   0  0  0  0  0  0  0  0  0  0  0  0
   10.6430    9.7930   25.7400 C   0  0  0  0  0  0  0  0  0  0  0  0
   11.0660   11.0790   26.0590 C   0  0  0  0  0  0  0  0  0  0  0  0
   12.1600   11.6670   25.4570 C   0  0  0  0  0  0  0  0  0  0  0  0
   12.5390   12.9490   25.8050 C   0  0  0  0  0  0  0  0  0  0  0  0
   11.8710   13.7110   26.7510 C   0  0  0  0  0  0  0  0  0  0  0  0
   12.2390   15.0140   27.1130 C   0  0  0  0  0  0  0  0  0  0  0  0
   13.5370   15.6210   26.9490 N   0  0  0  0  0  0  0  0  0  0  0  0
   13.2720   16.9090   27.4930 O   0  0  0  0  0  0  0  0  0  0  0  0
   11.9370   17.0010   27.9200 C   0  0  0  0  0  0  0  0  0  0  0  0
   11.5020   18.2300   28.4910 C   0  0  0  0  0  0  0  0  0  0  0  0
   11.2760   15.8920   27.7150 N   0  0  0  0  0  0  0  0  0  0  0  0
   10.7640   13.1050   27.3570 C   0  0  0  0  0  0  0  0  0  0  0  0
   10.3660   11.8200   27.0230 C   0  0  0  0  0  0  0  0  0  0  0  0
   13.7760    4.2630   22.7360 C   0  0  0  0  0  0  0  0  0  0  0  0
   13.5440    4.9660   21.6390 C   0  0  0  0  0  0  0  0  0  0  0  0
   12.2800    4.5950   21.3830 C   0  0  0  0  0  0  0  0  0  0  0  0
  1  2  1  0
  2  3  1  0
  3  4  2  0
  4  5  1  0
  5  6  2  0
  6  7  1  0
  3  8  1  0
  7  8  2  0
  8  9  1  0
  9 10  1  0
 10 11  1  0
 11 12  1  0
 12 13  2  0
 12 14  1  0
 14 15  2  0
 14 16  1  0
 16 17  1  0
 17 18  1  0
 18 19  2  0
 19 20  1  0
 20 21  2  0
 21 22  1  0
 22 23  2  0
 23 24  1  0
 24 25  1  0
 25 26  1  0
 22 27  1  0
 25 27  2  0
 21 28  1  0
 18 29  1  0
 28 29  2  0
  9 30  1  0
 30 31  1  0
  9 32  1  0
 31 32  1  0
M  END
