VIJ-CYC-1a381570-7
     RDKit          3D

 34 36  0  0  0  0  0  0  0  0999 V2000
   -0.0280   -9.6400   23.1010 C   0  0  0  0  0  0  0  0  0  0  0  0
    0.3350   -8.1810   23.3470 C   0  0  0  0  0  0  0  0  0  0  0  0
    1.4450   -7.7670   24.0080 N   0  0  0  0  0  0  0  0  0  0  0  0
    1.3530   -6.3630   23.9800 C   0  0  0  0  0  0  0  0  0  0  0  0
    2.3720   -5.6330   24.5920 C   0  0  0  0  0  0  0  0  0  0  0  0
    2.1800   -4.2920   24.9230 C   0  0  0  0  0  0  0  0  0  0  0  0
    3.1980   -3.5700   25.5320 C   0  0  0  0  0  0  0  0  0  0  0  0
    4.4210   -4.1780   25.8210 C   0  0  0  0  0  0  0  0  0  0  0  0
    5.4110   -3.4330   26.4250 C   0  0  0  0  0  0  0  0  0  0  0  0
    5.8550   -2.5550   25.4540 N   0  0  0  0  0  0  0  0  0  0  0  0
    7.1750   -2.1360   25.2120 C   0  0  0  0  0  0  0  0  0  0  0  0
    7.6700   -1.1870   25.8200 O   0  0  0  0  0  0  0  0  0  0  0  0
    7.9410   -2.8060   24.2480 C   0  0  0  0  0  0  0  0  0  0  0  0
    7.7880   -4.0230   24.1730 O   0  0  0  0  0  0  0  0  0  0  0  0
    8.7190   -1.9670   23.5430 N   0  0  0  0  0  0  0  0  0  0  0  0
    7.8610   -1.1310   22.8590 C   0  0  0  0  0  0  0  0  0  0  0  0
    8.5370    0.2090   22.5220 C   0  0  0  0  0  0  0  0  0  0  0  0
    8.3200    1.5460   22.9490 C   0  0  0  0  0  0  0  0  0  0  0  0
    7.8260    2.5720   23.5530 C   0  0  0  0  0  0  0  0  0  0  0  0
    8.7900    3.3930   22.9630 C   0  0  0  0  0  0  0  0  0  0  0  0
    9.0430    5.1560   23.2760 S   0  0  0  0  0  0  0  0  0  0  0  0
   10.3100    5.5940   22.7230 O   0  0  0  0  0  0  0  0  0  0  0  0
    8.8320    5.3530   24.7020 O   0  0  0  0  0  0  0  0  0  0  0  0
    7.7590    5.8650   22.4750 N   0  0  0  0  0  0  0  0  0  0  0  0
    6.7320    4.9420   21.9950 C   0  0  0  0  0  0  0  0  0  0  0  0
    7.8570    7.2570   22.0160 C   0  0  0  0  0  0  0  0  0  0  0  0
    7.9940    8.2110   23.1980 C   0  0  0  0  0  0  0  0  0  0  0  0
    6.7320    7.6470   21.0770 C   0  0  0  0  0  0  0  0  0  0  0  0
    9.6850    2.4530   21.9880 C   0  0  0  0  0  0  0  0  0  0  0  0
    9.5340    0.7510   21.7590 C   0  0  0  0  0  0  0  0  0  0  0  0
    4.6210   -5.5250   25.4910 C   0  0  0  0  0  0  0  0  0  0  0  0
    3.6090   -6.2420   24.8840 C   0  0  0  0  0  0  0  0  0  0  0  0
    0.2530   -5.9020   23.3450 N   0  0  0  0  0  0  0  0  0  0  0  0
   -0.4160   -7.1020   22.9290 O   0  0  0  0  0  0  0  0  0  0  0  0
  1  2  1  0
  2  3  2  0
  3  4  1  0
  4  5  1  0
  5  6  2  0
  6  7  1  0
  7  8  2  0
  8  9  1  0
  9 10  1  0
 10 11  1  0
 11 12  2  0
 11 13  1  0
 13 14  2  0
 13 15  1  0
 15 16  1  0
 16 17  1  0
 17 18  2  0
 18 19  1  0
 19 20  2  0
 20 21  1  0
 21 22  2  0
 21 23  2  0
 21 24  1  0
 24 25  1  0
 24 26  1  0
 26 27  1  0
 26 28  1  0
 20 29  1  0
 17 30  1  0
 29 30  2  0
  8 31  1  0
  5 32  1  0
 31 32  2  0
  4 33  2  0
  2 34  1  0
 33 34  1  0
M  END
