VIK-SYN-9a3d118a-3
     RDKit          3D

 16 16  0  0  0  0  0  0  0  0999 V2000
    6.4300   -1.9230   26.5550 C   0  0  0  0  0  0  0  0  0  0  0  0
    5.7590   -2.9900   27.3390 C   0  0  0  0  0  0  0  0  0  0  0  0
    6.3700   -3.2290   28.5680 C   0  0  0  0  0  0  0  0  0  0  0  0
    5.4990   -4.1740   26.8170 N   0  0  0  0  0  0  0  0  0  0  0  0
    5.0610   -4.3410   25.5240 C   0  0  0  0  0  0  0  0  0  0  0  0
    3.9550   -3.8770   25.2200 O   0  0  0  0  0  0  0  0  0  0  0  0
    5.7320   -4.9970   24.4930 C   0  0  0  0  0  0  0  0  0  0  0  0
    4.9140   -5.7520   23.4770 C   0  0  0  0  0  0  0  0  0  0  0  0
    5.5200   -5.9640   22.2880 C   0  0  0  0  0  0  0  0  0  0  0  0
    6.4700   -5.0840   21.8590 N   0  0  0  0  0  0  0  0  0  0  0  0
    6.0870   -4.1990   20.9230 C   0  0  0  0  0  0  0  0  0  0  0  0
    5.2810   -4.6200   19.8010 O   0  0  0  0  0  0  0  0  0  0  0  0
    6.5110   -2.7240   20.9940 C   0  0  0  0  0  0  0  0  0  0  0  0
    5.8600   -1.9040   21.8450 F   0  0  0  0  0  0  0  0  0  0  0  0
    7.2830   -4.5950   22.8260 C   0  0  0  0  0  0  0  0  0  0  0  0
    6.6470   -4.0210   24.0510 C   0  0  0  0  0  0  0  0  0  0  0  0
  1  2  1  0
  2  3  1  0
  2  4  1  0
  4  5  1  0
  5  6  2  0
  5  7  1  0
  7  8  1  0
  8  9  1  0
  9 10  1  0
 10 11  1  0
 11 12  2  0
 11 13  1  0
 13 14  1  0
 10 15  1  0
  7 16  1  0
 15 16  1  0
M  END
