VIT-UNK-b910b07f-1
     RDKit          3D

 20 21  0  0  0  0  0  0  0  0999 V2000
    6.9720   -5.6290   22.2330 C   0  0  0  0  0  0  0  0  0  0  0  0
    5.6690   -4.9460   22.1070 C   0  0  0  0  0  0  0  0  0  0  0  0
    5.7210   -3.5500   22.0810 C   0  0  0  0  0  0  0  0  0  0  0  0
    4.9860   -5.2830   21.1560 O   0  0  0  0  0  0  0  0  0  0  0  0
    4.8900   -5.4220   23.3320 C   0  0  2  0  0  0  0  0  0  0  0  0
    4.6140   -6.7890   23.2570 C   0  0  0  0  0  0  0  0  0  0  0  0
    3.9480   -7.4220   24.3250 O   0  0  0  0  0  0  0  0  0  0  0  0
    3.3340   -6.4020   25.1040 C   0  0  1  0  0  0  0  0  0  0  0  0
    4.1270   -6.0330   26.0980 N   0  0  0  0  0  0  0  0  0  0  0  0
    4.3090   -4.6530   26.1360 C   0  0  0  0  0  0  0  0  0  0  0  0
    5.2950   -3.6810   25.5330 C   0  0  0  0  0  0  0  0  0  0  0  0
    5.3290   -2.2190   25.7250 C   0  0  0  0  0  0  0  0  0  0  0  0
    6.2890   -1.4620   25.1130 O   0  0  0  0  0  0  0  0  0  0  0  0
    4.3760   -1.7130   26.5280 C   0  0  0  0  0  0  0  0  0  0  0  0
    3.3840   -2.4950   27.1590 C   0  0  0  0  0  0  0  0  0  0  0  0
    2.5800   -1.9110   27.8650 O   0  0  0  0  0  0  0  0  0  0  0  0
    3.2950   -3.8980   27.0110 C   0  0  0  0  0  0  0  0  0  0  0  0
    2.7260   -5.3730   24.3800 C   0  0  2  0  0  0  0  0  0  0  0  0
    1.6570   -5.8760   23.7430 F   0  0  0  0  0  0  0  0  0  0  0  0
    3.5860   -4.6040   23.5810 C   0  0  0  0  0  0  0  0  0  0  0  0
  1  2  1  0
  2  3  1  0
  2  4  1  0
  5  2  1  6
  5  6  1  0
  6  7  1  0
  7  8  1  0
  8  9  1  1
  9 10  1  0
 10 11  2  0
 11 12  1  0
 12 13  1  0
 12 14  2  0
 14 15  1  0
 15 16  1  0
 10 17  1  0
 15 17  2  0
  8 18  1  0
 18 19  1  6
  5 20  1  0
 18 20  1  0
M  END
