VIT-UNK-026187e6-3
     RDKit          3D

 25 26  0  0  0  0  0  0  0  0999 V2000
   11.6300    9.2940   25.6710 N   0  0  0  0  0  0  0  0  0  0  0  0
   11.9230    8.2140   24.7050 C   0  0  0  0  0  0  0  0  0  0  0  0
   12.7930    8.4160   23.5820 O   0  0  0  0  0  0  0  0  0  0  0  0
   11.2340    6.9350   25.0230 C   0  0  0  0  0  0  0  0  0  0  0  0
   10.0360    6.5900   24.2000 C   0  0  0  0  0  0  0  0  0  0  0  0
    9.2790    5.3340   24.4410 C   0  0  0  0  0  0  0  0  0  0  0  0
   10.0010    4.2010   24.0920 C   0  0  0  0  0  0  0  0  0  0  0  0
    9.3100    2.8810   24.3700 C   0  0  2  0  0  0  0  0  0  0  0  0
    8.5060    3.0790   25.5380 O   0  0  0  0  0  0  0  0  0  0  0  0
   10.1700    1.6580   24.1700 C   0  0  0  0  0  0  0  0  0  0  0  0
   11.5210    1.8100   23.5250 C   0  0  0  0  0  0  0  0  0  0  0  0
   12.2510    0.6640   23.3270 C   0  0  0  0  0  0  0  0  0  0  0  0
   11.7000   -0.5330   23.7290 C   0  0  0  0  0  0  0  0  0  0  0  0
   12.3590   -1.5920   23.4570 C   0  0  0  0  0  0  0  0  0  0  0  0
   11.8350   -1.8600   22.1290 C   0  0  0  0  0  0  0  0  0  0  0  0
   12.2400   -2.8450   21.4350 C   0  0  0  0  0  0  0  0  0  0  0  0
   11.4930   -3.4630   20.5420 C   0  0  0  0  0  0  0  0  0  0  0  0
   11.9860   -4.5870   19.7540 C   0  0  0  0  0  0  0  0  0  0  0  0
   11.1740   -5.2540   18.8070 O   0  0  0  0  0  0  0  0  0  0  0  0
   13.2760   -4.8270   20.1510 C   0  0  0  0  0  0  0  0  0  0  0  0
   13.9600   -4.2420   21.0090 C   0  0  0  0  0  0  0  0  0  0  0  0
   15.1600   -4.9220   21.0140 O   0  0  0  0  0  0  0  0  0  0  0  0
   13.4360   -3.1980   21.7070 C   0  0  0  0  0  0  0  0  0  0  0  0
   10.4830   -0.6830   24.3370 C   0  0  0  0  0  0  0  0  0  0  0  0
    9.7200    0.4080   24.5590 C   0  0  0  0  0  0  0  0  0  0  0  0
  1  2  1  0
  2  3  2  0
  2  4  1  0
  4  5  2  3
  5  6  1  0
  6  7  1  0
  7  8  1  0
  8  9  1  1
  8 10  1  0
 10 11  2  0
 11 12  1  0
 12 13  2  0
 13 14  1  0
 14 15  2  3
 15 16  1  0
 16 17  2  0
 17 18  1  0
 18 19  1  0
 18 20  2  0
 20 21  1  0
 21 22  1  0
 16 23  1  0
 21 23  2  0
 13 24  1  0
 10 25  1  0
 24 25  2  0
M  END
