VIT-UNK-026187e6-5
     RDKit          3D

 21 22  0  0  0  0  0  0  0  0999 V2000
    6.4170    5.7250   27.0750 C   0  0  0  0  0  0  0  0  0  0  0  0
    5.8130    6.0310   25.8600 C   0  0  0  0  0  0  0  0  0  0  0  0
    5.4680    7.3910   25.6780 C   0  0  0  0  0  0  0  0  0  0  0  0
    4.7370    5.4840   25.6350 O   0  0  0  0  0  0  0  0  0  0  0  0
    6.8080    5.5950   24.7850 C   0  0  2  0  0  0  0  0  0  0  0  0
    7.1340    4.1170   24.8050 C   0  0  0  0  0  0  0  0  0  0  0  0
    7.9510    3.6700   24.0060 O   0  0  0  0  0  0  0  0  0  0  0  0
    9.1010    4.5210   23.8470 C   0  0  2  0  0  0  0  0  0  0  0  0
   10.2710    3.7470   23.8610 C   0  0  0  0  0  0  0  0  0  0  0  0
   10.2630    2.3590   23.7340 C   0  0  0  0  0  0  0  0  0  0  0  0
   10.7560    1.0590   23.6360 C   0  0  0  0  0  0  0  0  0  0  0  0
   12.1670    0.7680   23.0820 C   0  0  0  0  0  0  0  0  0  0  0  0
   12.5640   -0.5490   22.9780 C   0  0  0  0  0  0  0  0  0  0  0  0
   13.7870   -0.7870   22.4750 O   0  0  0  0  0  0  0  0  0  0  0  0
   11.7190   -1.5960   23.3710 C   0  0  0  0  0  0  0  0  0  0  0  0
   10.4470   -1.3580   23.8820 C   0  0  0  0  0  0  0  0  0  0  0  0
    9.7160   -2.2720   24.2140 O   0  0  0  0  0  0  0  0  0  0  0  0
    9.9970   -0.0470   24.0050 C   0  0  0  0  0  0  0  0  0  0  0  0
    9.0860    5.6090   24.7580 C   0  0  1  0  0  0  0  0  0  0  0  0
   10.2240    6.2710   24.5180 F   0  0  0  0  0  0  0  0  0  0  0  0
    7.9450    6.4060   24.6440 C   0  0  0  0  0  0  0  0  0  0  0  0
  1  2  1  0
  2  3  1  0
  2  4  1  0
  5  2  1  1
  5  6  1  0
  6  7  1  0
  7  8  1  0
  8  9  1  1
  9 10  2  3
 10 11  1  0
 11 12  2  0
 12 13  1  0
 13 14  1  0
 13 15  2  0
 15 16  1  0
 16 17  1  0
 11 18  1  0
 16 18  2  0
  8 19  1  0
 19 20  1  6
  5 21  1  0
 19 21  1  0
M  END
