VIT-UNK-525497ca-6
     RDKit          3D

 25 26  0  0  0  0  0  0  0  0999 V2000
    0.4230  -14.4360   24.5680 N   0  0  0  0  0  0  0  0  0  0  0  0
   -0.5710  -13.5200   25.1710 C   0  0  0  0  0  0  0  0  0  0  0  0
   -1.7650  -13.9130   25.8380 O   0  0  0  0  0  0  0  0  0  0  0  0
   -0.2290  -12.0650   25.0300 C   0  0  0  0  0  0  0  0  0  0  0  0
    0.7870  -11.5210   25.9240 C   0  0  0  0  0  0  0  0  0  0  0  0
    1.1420  -10.1780   25.8010 C   0  0  0  0  0  0  0  0  0  0  0  0
    0.4870   -9.3250   26.6990 C   0  0  0  0  0  0  0  0  0  0  0  0
   -0.1050   -8.2020   26.1470 C   0  0  1  0  0  0  0  0  0  0  0  0
   -0.7260   -7.5540   27.2700 O   0  0  0  0  0  0  0  0  0  0  0  0
    0.7940   -7.2350   25.6190 C   0  0  2  0  0  0  0  0  0  0  0  0
    0.1520   -6.0660   24.8610 C   0  0  0  0  0  0  0  0  0  0  0  0
    1.1260   -5.0530   24.5550 O   0  0  0  0  0  0  0  0  0  0  0  0
    2.2890   -5.5330   23.8750 C   0  0  1  0  0  0  0  0  0  0  0  0
    3.5980   -5.3330   24.5080 N   0  0  0  0  0  0  0  0  0  0  0  0
    3.8660   -4.2240   25.2700 C   0  0  0  0  0  0  0  0  0  0  0  0
    5.1070   -3.5130   24.9570 C   0  0  0  0  0  0  0  0  0  0  0  0
    5.4760   -2.3790   25.6890 C   0  0  0  0  0  0  0  0  0  0  0  0
    6.5410   -1.9020   25.3070 O   0  0  0  0  0  0  0  0  0  0  0  0
    4.6170   -1.8400   26.8230 C   0  0  0  0  0  0  0  0  0  0  0  0
    3.3220   -2.5440   27.1810 C   0  0  0  0  0  0  0  0  0  0  0  0
    2.6130   -2.1260   28.0960 O   0  0  0  0  0  0  0  0  0  0  0  0
    3.0130   -3.7720   26.3200 C   0  0  0  0  0  0  0  0  0  0  0  0
    2.1060   -6.9000   23.5050 C   0  0  2  0  0  0  0  0  0  0  0  0
    1.2060   -6.8770   22.5080 F   0  0  0  0  0  0  0  0  0  0  0  0
    1.8070   -7.8650   24.6470 C   0  0  0  0  0  0  0  0  0  0  0  0
  1  2  1  0
  2  3  2  0
  2  4  1  0
  4  5  2  3
  5  6  1  0
  6  7  1  0
  7  8  1  0
  8  9  1  1
  8 10  1  0
 10 11  1  6
 11 12  1  0
 12 13  1  0
 13 14  1  1
 14 15  1  0
 15 16  2  0
 16 17  1  0
 17 18  1  0
 17 19  2  0
 19 20  1  0
 20 21  1  0
 15 22  1  0
 20 22  2  0
 13 23  1  0
 23 24  1  6
 10 25  1  0
 23 25  1  0
M  END
