VIT-UNK-026187e6-2
     RDKit          3D

 29 31  0  0  0  0  0  0  0  0999 V2000
    2.6650    2.7750   27.1740 O   0  0  0  0  0  0  0  0  0  0  0  0
    3.8010    3.1380   26.8480 C   0  0  0  0  0  0  0  0  0  0  0  0
    4.4800    4.3460   27.2470 N   0  0  0  0  0  0  0  0  0  0  0  0
    5.7250    4.4920   26.7190 C   0  0  0  0  0  0  0  0  0  0  0  0
    6.5100    5.4210   26.8380 O   0  0  0  0  0  0  0  0  0  0  0  0
    5.8460    3.2230   25.9740 C   0  0  2  0  0  0  0  0  0  0  0  0
    6.1330    3.5710   24.4850 C   0  0  0  0  0  0  0  0  0  0  0  0
    7.0080    2.6770   23.8940 C   0  0  0  0  0  0  0  0  0  0  0  0
    7.7750    3.3090   22.9110 C   0  0  0  0  0  0  0  0  0  0  0  0
    8.9510    2.6080   22.6050 C   0  0  0  0  0  0  0  0  0  0  0  0
    9.7970    2.6490   23.8870 C   0  0  2  0  0  0  0  0  0  0  0  0
   10.7240    3.7250   23.6940 O   0  0  0  0  0  0  0  0  0  0  0  0
   10.5740    1.3510   23.9440 C   0  0  0  0  0  0  0  0  0  0  0  0
   11.9250    1.3860   23.3130 C   0  0  0  0  0  0  0  0  0  0  0  0
   12.6420    0.2310   23.3120 C   0  0  0  0  0  0  0  0  0  0  0  0
   12.1200   -0.9160   23.8830 C   0  0  0  0  0  0  0  0  0  0  0  0
   12.9700   -1.9250   23.7070 C   0  0  0  0  0  0  0  0  0  0  0  0
   13.8430   -2.7880   24.3030 C   0  0  0  0  0  0  0  0  0  0  0  0
   14.1690   -3.3820   23.0070 C   0  0  0  0  0  0  0  0  0  0  0  0
   15.1090   -4.5670   22.2400 C   0  0  0  0  0  0  0  0  0  0  0  0
   14.9810   -4.7430   20.8500 C   0  0  0  0  0  0  0  0  0  0  0  0
   15.6110   -5.6560   20.0570 O   0  0  0  0  0  0  0  0  0  0  0  0
   13.9750   -3.6700   20.3300 C   0  0  0  0  0  0  0  0  0  0  0  0
   13.2450   -2.7020   21.0080 C   0  0  0  0  0  0  0  0  0  0  0  0
   12.4190   -1.9040   20.3580 O   0  0  0  0  0  0  0  0  0  0  0  0
   13.3350   -2.5740   22.2900 C   0  0  0  0  0  0  0  0  0  0  0  0
   10.8710   -0.9660   24.4910 C   0  0  0  0  0  0  0  0  0  0  0  0
   10.0890    0.1760   24.5250 C   0  0  0  0  0  0  0  0  0  0  0  0
    4.6960    2.4770   26.0170 N   0  0  0  0  0  0  0  0  0  0  0  0
  1  2  2  0
  2  3  1  0
  3  4  1  0
  4  5  2  0
  4  6  1  0
  6  7  1  6
  7  8  1  0
  8  9  1  0
  9 10  1  0
 10 11  1  0
 11 12  1  6
 11 13  1  0
 13 14  2  0
 14 15  1  0
 15 16  2  0
 16 17  1  0
 17 18  2  3
 18 19  1  0
 19 20  2  0
 20 21  1  0
 21 22  1  0
 21 23  2  0
 23 24  1  0
 24 25  1  0
 19 26  1  0
 24 26  2  0
 16 27  1  0
 13 28  1  0
 27 28  2  0
  2 29  1  0
  6 29  1  0
M  END
