VIT-UNK-026187e6-1
     RDKit          3D

 20 21  0  0  0  0  0  0  0  0999 V2000
    8.0180    0.8990   23.9340 C   0  0  0  0  0  0  0  0  0  0  0  0
    9.4720    1.2840   24.3090 C   0  0  0  0  0  0  0  0  0  0  0  0
    9.7780    2.6020   23.9770 C   0  0  0  0  0  0  0  0  0  0  0  0
    9.5530    0.9710   25.6930 O   0  0  0  0  0  0  0  0  0  0  0  0
   10.4740    0.4600   23.5530 C   0  0  0  0  0  0  0  0  0  0  0  0
   11.8060    0.8040   23.4180 C   0  0  0  0  0  0  0  0  0  0  0  0
   12.8410    0.0360   22.6070 C   0  0  0  0  0  0  0  0  0  0  0  0
   12.3190   -1.2030   21.9050 C   0  0  0  0  0  0  0  0  0  0  0  0
   13.2020   -1.9080   21.0940 C   0  0  0  0  0  0  0  0  0  0  0  0
   13.2790   -3.2610   21.1980 C   0  0  0  0  0  0  0  0  0  0  0  0
   14.1970   -4.0770   20.4290 C   0  0  0  0  0  0  0  0  0  0  0  0
   14.9420   -3.5220   19.4980 C   0  0  0  0  0  0  0  0  0  0  0  0
   15.9070   -4.0490   18.7030 C   0  0  0  0  0  0  0  0  0  0  0  0
   16.5980   -3.5040   17.9020 O   0  0  0  0  0  0  0  0  0  0  0  0
   16.0010   -5.3330   18.8610 C   0  0  0  0  0  0  0  0  0  0  0  0
   15.2930   -5.8920   19.7960 C   0  0  0  0  0  0  0  0  0  0  0  0
   15.3980   -7.1210   19.9770 O   0  0  0  0  0  0  0  0  0  0  0  0
   14.5150   -5.3570   20.5220 C   0  0  0  0  0  0  0  0  0  0  0  0
   11.0040   -1.5910   22.0590 C   0  0  0  0  0  0  0  0  0  0  0  0
   10.1060   -0.7190   22.8990 C   0  0  0  0  0  0  0  0  0  0  0  0
  1  2  1  0
  2  3  1  0
  2  4  1  0
  2  5  1  0
  5  6  2  0
  6  7  1  0
  7  8  2  0
  8  9  1  0
  9 10  2  3
 10 11  1  0
 11 12  2  0
 12 13  1  0
 13 14  1  0
 13 15  2  0
 15 16  1  0
 16 17  1  0
 11 18  1  0
 16 18  2  0
  8 19  1  0
  5 20  1  0
 19 20  2  0
M  END
