VIT-UNK-026187e6-4
     RDKit          3D

 20 21  0  0  0  0  0  0  0  0999 V2000
    9.1710   -2.2280   23.6990 O   0  0  0  0  0  0  0  0  0  0  0  0
   10.0860   -1.4490   23.4580 C   0  0  0  0  0  0  0  0  0  0  0  0
   11.5300   -1.8790   23.2570 C   0  0  0  0  0  0  0  0  0  0  0  0
   12.5810   -0.8240   22.9670 C   0  0  0  0  0  0  0  0  0  0  0  0
   13.8370   -1.2090   22.7900 O   0  0  0  0  0  0  0  0  0  0  0  0
   12.1590    0.5120   22.9010 C   0  0  0  0  0  0  0  0  0  0  0  0
   10.8100    0.8640   23.0870 C   0  0  0  0  0  0  0  0  0  0  0  0
   10.3890    2.2010   23.0110 C   0  0  0  0  0  0  0  0  0  0  0  0
   10.4940    3.5960   23.0730 C   0  0  0  0  0  0  0  0  0  0  0  0
    9.4510    4.5150   22.8120 C   0  0  0  0  0  0  0  0  0  0  0  0
    8.0430    4.0750   22.4610 C   0  0  0  0  0  0  0  0  0  0  0  0
    7.0920    5.0580   22.2150 C   0  0  0  0  0  0  0  0  0  0  0  0
    7.3850    6.4130   22.2770 C   0  0  0  0  0  0  0  0  0  0  0  0
    6.3970    7.3850   22.0250 C   0  0  2  0  0  0  0  0  0  0  0  0
    6.5210    7.8740   20.6890 O   0  0  0  0  0  0  0  0  0  0  0  0
    6.3590    8.4770   22.8940 C   0  0  0  0  0  0  0  0  0  0  0  0
    4.6700    8.6420   23.4650 Cl  0  0  0  0  0  0  0  0  0  0  0  0
    8.6380    6.9300   22.5880 C   0  0  0  0  0  0  0  0  0  0  0  0
    9.7020    6.0480   22.8630 C   0  0  0  0  0  0  0  0  0  0  0  0
    9.8040   -0.0940   23.3580 C   0  0  0  0  0  0  0  0  0  0  0  0
  1  2  1  0
  2  3  2  0
  3  4  1  0
  4  5  1  0
  4  6  2  0
  6  7  1  0
  7  8  1  0
  8  9  2  3
  9 10  1  0
 10 11  2  0
 11 12  1  0
 12 13  2  0
 13 14  1  0
 14 15  1  6
 14 16  1  0
 16 17  1  0
 13 18  1  0
 10 19  1  0
 18 19  2  0
  2 20  1  0
  7 20  2  0
M  END
