VIT-UNK-2a0afa28-3
     RDKit          3D

 23 24  0  0  0  0  0  0  0  0999 V2000
    1.9500   -7.8890   23.2250 N   0  0  0  0  0  0  0  0  0  0  0  0
    3.1990   -7.4070   23.8430 C   0  0  0  0  0  0  0  0  0  0  0  0
    3.7690   -8.0650   24.7020 O   0  0  0  0  0  0  0  0  0  0  0  0
    3.6960   -6.0310   23.3240 C   0  0  0  0  0  0  0  0  0  0  0  0
    4.8760   -6.1030   22.5710 C   0  0  0  0  0  0  0  0  0  0  0  0
    5.4110   -4.8720   22.2230 C   0  0  0  0  0  0  0  0  0  0  0  0
    6.0060   -4.7450   20.9710 C   0  0  0  0  0  0  0  0  0  0  0  0
    5.7950   -3.3810   20.3470 C   0  0  0  0  0  0  0  0  0  0  0  0
    5.2610   -3.4150   19.0240 O   0  0  0  0  0  0  0  0  0  0  0  0
    6.1540   -2.3220   21.1380 N   0  0  0  0  0  0  0  0  0  0  0  0
    5.8710   -2.3960   22.5460 C   0  0  0  0  0  0  0  0  0  0  0  0
    7.0040   -3.0450   23.0460 C   0  0  0  0  0  0  0  0  0  0  0  0
    8.1110   -2.0970   22.9800 N   0  0  0  0  0  0  0  0  0  0  0  0
    9.1930   -2.2520   23.8560 C   0  0  0  0  0  0  0  0  0  0  0  0
   10.3060   -1.5260   23.5770 C   0  0  0  0  0  0  0  0  0  0  0  0
   10.1710   -0.1570   23.4540 C   0  0  0  0  0  0  0  0  0  0  0  0
   11.2630    0.6430   23.1740 C   0  0  0  0  0  0  0  0  0  0  0  0
   12.6350    0.0610   22.9910 C   0  0  0  0  0  0  0  0  0  0  0  0
   12.6970   -1.4490   23.1350 C   0  0  0  0  0  0  0  0  0  0  0  0
   13.8190   -2.1210   23.0030 F   0  0  0  0  0  0  0  0  0  0  0  0
   11.5340   -2.1640   23.4200 C   0  0  0  0  0  0  0  0  0  0  0  0
    8.5410   -1.8450   21.6960 C   0  0  0  0  0  0  0  0  0  0  0  0
    7.2950   -1.4430   20.8510 C   0  0  0  0  0  0  0  0  0  0  0  0
  1  2  1  0
  2  3  2  0
  2  4  1  0
  4  5  1  0
  5  6  1  0
  6  7  1  0
  7  8  1  0
  8  9  2  0
  8 10  1  0
 10 11  1  0
 11 12  1  0
 12 13  1  0
 13 14  1  0
 14 15  1  0
 15 16  2  0
 16 17  1  0
 17 18  2  0
 18 19  1  0
 19 20  1  0
 15 21  1  0
 19 21  2  0
 13 22  1  0
 10 23  1  0
 22 23  1  0
M  END
