VIT-UNK-6e6e7b8a-3
     RDKit          3D

 26 29  0  0  0  0  0  0  0  0999 V2000
   14.0710    5.0460   22.8460 O   0  0  0  0  0  0  0  0  0  0  0  0
   12.8580    4.9170   22.8730 C   0  0  0  0  0  0  0  0  0  0  0  0
   11.9930    6.1280   23.1030 C   0  0  0  0  0  0  0  0  0  0  0  0
   10.4960    5.9410   23.1330 C   0  0  0  0  0  0  0  0  0  0  0  0
    9.9350    4.5510   22.9280 C   0  0  0  0  0  0  0  0  0  0  0  0
   10.9050    3.4060   22.7020 C   0  0  0  0  0  0  0  0  0  0  0  0
   10.1610    2.0730   22.5090 C   0  0  0  0  0  0  0  0  0  0  0  0
   10.2950    1.4140   23.8590 C   0  0  1  0  0  0  0  0  0  0  0  0
    8.8870    1.4510   24.3880 N   0  0  0  0  0  0  0  0  0  0  0  0
    8.5740    0.3750   25.3340 C   0  0  0  0  0  0  0  0  0  0  0  0
    8.6140   -0.9540   24.6370 C   0  0  1  0  0  0  0  0  0  0  0  0
    8.0480   -1.0580   23.3970 C   0  0  2  0  0  0  0  0  0  0  0  0
    7.0620   -2.1050   23.3990 O   0  0  0  0  0  0  0  0  0  0  0  0
    8.9390   -1.2340   22.2850 C   0  0  0  0  0  0  0  0  0  0  0  0
    8.2890   -1.2280   21.1130 F   0  0  0  0  0  0  0  0  0  0  0  0
    9.9700   -1.0470   24.2780 C   0  0  0  0  0  0  0  0  0  0  0  0
   10.0990    0.1200   24.0540 C   0  0  0  0  0  0  0  0  0  0  0  0
   10.7460   -1.2390   24.0700 C   0  0  0  0  0  0  0  0  0  0  0  0
   11.9740   -1.6240   23.7140 C   0  0  0  0  0  0  0  0  0  0  0  0
   12.2510   -0.4180   23.3540 C   0  0  0  0  0  0  0  0  0  0  0  0
   10.9280   -0.0280   23.8140 C   0  0  0  0  0  0  0  0  0  0  0  0
   13.4980   -0.2180   22.8050 C   0  0  0  0  0  0  0  0  0  0  0  0
   13.3650   -1.2870   21.8810 C   0  0  0  0  0  0  0  0  0  0  0  0
   13.4720   -2.6710   22.4400 N   0  0  0  0  0  0  0  0  0  0  0  0
   12.7900   -2.7970   23.6530 C   0  0  0  0  0  0  0  0  0  0  0  0
   12.3020    3.6240   22.6840 C   0  0  0  0  0  0  0  0  0  0  0  0
  1  2  1  0
  2  3  2  0
  3  4  1  0
  4  5  2  0
  5  6  1  0
  6  7  1  0
  8  7  1  6
  8  9  1  0
  9 10  1  0
 11 10  1  6
 11 12  1  0
 12 13  1  1
 12 14  1  0
 14 15  1  0
 11 16  1  0
 16 17  2  0
 17 18  1  0
 18 19  2  0
 19 20  1  0
  8 21  1  0
 16 21  1  0
 20 21  2  0
 20 22  1  0
 22 23  1  0
 23 24  1  0
 19 25  1  0
 24 25  1  0
  2 26  1  0
  6 26  2  0
M  END
