VIT-UNK-525497ca-8
     RDKit          3D

 33 36  0  0  0  0  0  0  0  0999 V2000
   14.1090   12.7970   16.2860 O   0  0  0  0  0  0  0  0  0  0  0  0
   13.6330   12.3690   17.3260 C   0  0  0  0  0  0  0  0  0  0  0  0
   13.5780   13.0110   18.5580 N   0  0  0  0  0  0  0  0  0  0  0  0
   13.2280   12.1790   19.6250 C   0  0  0  0  0  0  0  0  0  0  0  0
   13.2090   12.5340   20.7980 O   0  0  0  0  0  0  0  0  0  0  0  0
   12.9100   10.8290   19.0050 C   0  0  2  0  0  0  0  0  0  0  0  0
   13.6630    9.2900   19.3690 C   0  0  0  0  0  0  0  0  0  0  0  0
   13.8340    8.0120   20.4430 C   0  0  0  0  0  0  0  0  0  0  0  0
   13.3910    6.4890   20.8770 C   0  0  0  0  0  0  0  0  0  0  0  0
   13.0280    6.3570   22.2580 C   0  0  2  0  0  0  0  0  0  0  0  0
   13.4740    7.3530   23.0790 O   0  0  0  0  0  0  0  0  0  0  0  0
   12.8850    5.0880   22.9890 C   0  0  2  0  0  0  0  0  0  0  0  0
   12.1810    4.3540   21.8600 C   0  0  0  0  0  0  0  0  0  0  0  0
   11.3990    3.1740   22.2180 N   0  0  0  0  0  0  0  0  0  0  0  0
   11.1420    3.0730   23.5040 C   0  0  2  0  0  0  0  0  0  0  0  0
   10.2540    2.0430   23.9700 C   0  0  0  0  0  0  0  0  0  0  0  0
   10.7280    0.7710   23.6670 C   0  0  0  0  0  0  0  0  0  0  0  0
   12.1530    0.4820   23.1760 C   0  0  0  0  0  0  0  0  0  0  0  0
   12.6010   -0.9250   22.8440 C   0  0  0  0  0  0  0  0  0  0  0  0
   13.7070   -1.2540   22.4400 O   0  0  0  0  0  0  0  0  0  0  0  0
   11.6170   -2.0660   23.0080 C   0  0  0  0  0  0  0  0  0  0  0  0
   10.1930   -1.8460   23.4950 C   0  0  0  0  0  0  0  0  0  0  0  0
    9.2830   -2.8530   23.6500 O   0  0  0  0  0  0  0  0  0  0  0  0
    9.7730   -0.4200   23.8200 C   0  0  0  0  0  0  0  0  0  0  0  0
   10.6450    4.4580   23.9350 C   0  0  0  0  0  0  0  0  0  0  0  0
   11.8350    5.3740   24.1550 C   0  0  2  0  0  0  0  0  0  0  0  0
   11.3470    6.8090   24.3790 C   0  0  0  0  0  0  0  0  0  0  0  0
   10.8200    6.9740   25.8150 C   0  0  1  0  0  0  0  0  0  0  0  0
   11.8160    7.5150   26.8660 C   0  0  0  0  0  0  0  0  0  0  0  0
   11.2840    8.4500   27.7360 C   0  0  0  0  0  0  0  0  0  0  0  0
    9.9650    8.8020   27.1830 N   0  0  0  0  0  0  0  0  0  0  0  0
    9.7890    8.1100   25.9000 C   0  0  0  0  0  0  0  0  0  0  0  0
   13.0380   11.1540   17.4850 N   0  0  0  0  0  0  0  0  0  0  0  0
  1  2  2  0
  2  3  1  0
  3  4  1  0
  4  5  2  0
  4  6  1  0
  6  7  1  1
  7  8  1  0
  8  9  1  0
  9 10  1  0
 10 11  1  1
 10 12  1  0
 12 13  1  6
 13 14  1  0
 14 15  1  0
 15 16  1  6
 16 17  1  0
 17 18  2  0
 18 19  1  0
 19 20  1  0
 19 21  2  0
 21 22  1  0
 22 23  1  0
 17 24  1  0
 22 24  2  0
 15 25  1  0
 12 26  1  0
 25 26  1  0
 26 27  1  6
 28 27  1  6
 28 29  1  0
 29 30  1  0
 30 31  1  0
 28 32  1  0
 31 32  1  0
  2 33  1  0
  6 33  1  0
M  END
