VOL-CHA-d666e5ae-2
     RDKit          3D

 24 24  0  0  0  0  0  0  0  0999 V2000
    7.6470    4.5890   22.2250 C   0  0  0  0  0  0  0  0  0  0  0  0
    7.0650    3.6000   23.2420 C   0  0  0  0  0  0  0  0  0  0  0  0
    6.0350    3.8000   23.8640 O   0  0  0  0  0  0  0  0  0  0  0  0
    7.8590    2.4050   23.3760 N   0  0  0  0  0  0  0  0  0  0  0  0
    7.8390    1.3670   22.4260 C   0  0  2  0  0  0  0  0  0  0  0  0
    6.6080    0.7350   22.4280 C   0  0  0  0  0  0  0  0  0  0  0  0
    6.2710    0.6510   21.1230 C   0  0  0  0  0  0  0  0  0  0  0  0
    5.3400    1.4980   20.5380 C   0  0  0  0  0  0  0  0  0  0  0  0
    5.0670    1.3860   19.1980 C   0  0  0  0  0  0  0  0  0  0  0  0
    5.7250    0.4300   18.4580 C   0  0  0  0  0  0  0  0  0  0  0  0
    5.4580    0.3300   17.1150 O   0  0  0  0  0  0  0  0  0  0  0  0
    6.6500   -0.4400   18.9860 C   0  0  0  0  0  0  0  0  0  0  0  0
    6.9230   -0.3240   20.3320 C   0  0  0  0  0  0  0  0  0  0  0  0
    9.0960    0.6830   22.5070 C   0  0  0  0  0  0  0  0  0  0  0  0
   10.2890    1.4540   22.4660 O   0  0  0  0  0  0  0  0  0  0  0  0
    9.0930   -0.6390   22.5770 N   0  0  0  0  0  0  0  0  0  0  0  0
   10.2570   -1.2580   22.0100 O   0  0  0  0  0  0  0  0  0  0  0  0
   10.9540   -2.0490   22.9940 C   0  0  0  0  0  0  0  0  0  0  0  0
   12.4600   -1.7300   22.8920 C   0  0  0  0  0  0  0  0  0  0  0  0
   13.3000   -2.6330   23.5160 F   0  0  0  0  0  0  0  0  0  0  0  0
   12.8160   -1.8200   21.5860 F   0  0  0  0  0  0  0  0  0  0  0  0
   12.7170   -0.3130   23.3410 C   0  0  0  0  0  0  0  0  0  0  0  0
   13.5300    0.3020   22.4620 F   0  0  0  0  0  0  0  0  0  0  0  0
   11.5690    0.3860   23.3190 F   0  0  0  0  0  0  0  0  0  0  0  0
  1  2  1  0
  2  3  2  0
  2  4  1  0
  4  5  1  0
  5  6  1  1
  6  7  1  0
  7  8  2  0
  8  9  1  0
  9 10  2  0
 10 11  1  0
 10 12  1  0
  7 13  1  0
 12 13  2  0
  5 14  1  0
 14 15  2  0
 14 16  1  0
 16 17  1  0
 17 18  1  0
 18 19  1  0
 19 20  1  0
 19 21  1  0
 19 22  1  0
 22 23  1  0
 22 24  1  0
M  END
