VOL-CHA-d666e5ae-4
     RDKit          3D

 24 25  0  0  0  0  0  0  0  0999 V2000
    7.5190    4.9690   22.3070 C   0  0  0  0  0  0  0  0  0  0  0  0
    7.1130    3.6310   22.8650 C   0  0  0  0  0  0  0  0  0  0  0  0
    6.1790    3.5150   23.6520 O   0  0  0  0  0  0  0  0  0  0  0  0
    7.8740    2.5750   22.4200 N   0  0  0  0  0  0  0  0  0  0  0  0
    7.7060    1.2500   23.0100 C   0  0  1  0  0  0  0  0  0  0  0  0
    6.4570    0.7060   22.7580 C   0  0  0  0  0  0  0  0  0  0  0  0
    6.1900    0.7770   21.2920 C   0  0  0  0  0  0  0  0  0  0  0  0
    5.2750    1.6760   20.7150 C   0  0  0  0  0  0  0  0  0  0  0  0
    5.0380    1.7440   19.3530 C   0  0  0  0  0  0  0  0  0  0  0  0
    5.7600    0.8440   18.4100 C   0  0  0  0  0  0  0  0  0  0  0  0
    5.6510    0.7820   17.0260 O   0  0  0  0  0  0  0  0  0  0  0  0
    6.7150   -0.0950   19.0670 C   0  0  0  0  0  0  0  0  0  0  0  0
    6.9020   -0.1060   20.4460 C   0  0  0  0  0  0  0  0  0  0  0  0
    8.8300    0.3700   22.4560 C   0  0  0  0  0  0  0  0  0  0  0  0
    9.8760    0.8360   22.0270 O   0  0  0  0  0  0  0  0  0  0  0  0
    8.5160   -0.9750   22.4970 N   0  0  0  0  0  0  0  0  0  0  0  0
    9.4710   -2.0890   22.4200 C   0  0  2  0  0  0  0  0  0  0  0  0
    8.7820   -3.1410   23.0160 C   0  0  0  0  0  0  0  0  0  0  0  0
   10.7020   -1.7390   23.2800 C   0  0  0  0  0  0  0  0  0  0  0  0
   11.9380   -2.4780   23.0100 N   0  0  0  0  0  0  0  0  0  0  0  0
   12.9360   -2.1450   24.0320 C   0  0  0  0  0  0  0  0  0  0  0  0
   13.0130   -0.8250   23.6590 C   0  0  0  0  0  0  0  0  0  0  0  0
   12.9280   -0.6970   22.3130 C   0  0  0  0  0  0  0  0  0  0  0  0
   12.5340   -1.9150   21.7940 C   0  0  0  0  0  0  0  0  0  0  0  0
  1  2  1  0
  2  3  2  0
  2  4  1  0
  4  5  1  0
  5  6  1  6
  6  7  1  0
  7  8  2  0
  8  9  1  0
  9 10  2  0
 10 11  1  0
 10 12  1  0
  7 13  1  0
 12 13  2  0
  5 14  1  0
 14 15  2  0
 14 16  1  0
 16 17  1  0
 17 18  1  1
 17 19  1  0
 19 20  1  0
 20 21  1  0
 21 22  1  0
 22 23  1  0
 20 24  1  0
 23 24  1  0
M  END
