VOL-CHA-d666e5ae-5
     RDKit          3D

 21 22  0  0  0  0  0  0  0  0999 V2000
    7.8190    4.9440   22.2980 C   0  0  0  0  0  0  0  0  0  0  0  0
    7.4430    3.5000   22.7330 C   0  0  0  0  0  0  0  0  0  0  0  0
    6.2440    3.5060   23.5450 O   0  0  0  0  0  0  0  0  0  0  0  0
    8.2220    2.4210   22.3530 N   0  0  0  0  0  0  0  0  0  0  0  0
    7.8820    1.1310   22.9370 C   0  0  1  0  0  0  0  0  0  0  0  0
    6.6240    0.6890   22.5140 C   0  0  0  0  0  0  0  0  0  0  0  0
    6.3820    0.6630   21.1540 C   0  0  0  0  0  0  0  0  0  0  0  0
    5.3970    1.7120   20.6580 C   0  0  0  0  0  0  0  0  0  0  0  0
    5.1860    1.6320   19.1690 C   0  0  0  0  0  0  0  0  0  0  0  0
    5.8180    0.7060   18.3480 C   0  0  0  0  0  0  0  0  0  0  0  0
    5.5590    0.7610   17.1730 O   0  0  0  0  0  0  0  0  0  0  0  0
    6.7020   -0.2210   18.8860 C   0  0  0  0  0  0  0  0  0  0  0  0
    6.9770   -0.2460   20.2370 C   0  0  0  0  0  0  0  0  0  0  0  0
    8.8920    0.0270   22.6670 C   0  0  0  0  0  0  0  0  0  0  0  0
    8.5860   -1.1930   22.2240 N   0  0  0  0  0  0  0  0  0  0  0  0
    9.6900   -1.9440   22.1330 N   0  0  0  0  0  0  0  0  0  0  0  0
   10.7100   -1.0600   22.5700 C   0  0  0  0  0  0  0  0  0  0  0  0
   12.1110   -1.6850   22.6050 C   0  0  0  0  0  0  0  0  0  0  0  0
   13.1100   -1.1630   23.6540 C   0  0  0  0  0  0  0  0  0  0  0  0
   12.8620   -1.8930   21.4680 C   0  0  0  0  0  0  0  0  0  0  0  0
   10.2600    0.2110   22.9010 O   0  0  0  0  0  0  0  0  0  0  0  0
  1  2  1  0
  2  3  2  0
  2  4  1  0
  4  5  1  0
  5  6  1  6
  6  7  1  0
  7  8  2  0
  8  9  1  0
  9 10  2  0
 10 11  1  0
 10 12  1  0
  7 13  1  0
 12 13  2  0
  5 14  1  0
 14 15  2  0
 15 16  1  0
 16 17  2  0
 17 18  1  0
 18 19  1  0
 18 20  1  0
 14 21  1  0
 17 21  1  0
M  END
