WAL-WAB-9cbe20c2-1
     RDKit          3D

 36 38  0  0  0  0  0  0  0  0999 V2000
   16.5290   -5.1720   24.1460 C   0  0  0  0  0  0  0  0  0  0  0  0
   16.5400   -4.1890   25.2310 C   0  0  2  0  0  0  0  0  0  0  0  0
   15.4040   -3.2300   25.5490 C   0  0  0  0  0  0  0  0  0  0  0  0
   14.0040   -2.6600   24.8090 C   0  0  0  0  0  0  0  0  0  0  0  0
   13.5460   -1.7390   23.6240 C   0  0  0  0  0  0  0  0  0  0  0  0
   12.8360   -0.3940   23.5670 C   0  0  0  0  0  0  0  0  0  0  0  0
   13.3980    0.7250   22.8710 C   0  0  0  0  0  0  0  0  0  0  0  0
   12.6520    2.1060   22.8040 C   0  0  0  0  0  0  0  0  0  0  0  0
   11.2940    2.2280   23.4980 C   0  0  0  0  0  0  0  0  0  0  0  0
   10.3460    3.7880   23.4720 S   0  0  0  0  0  0  0  0  0  0  0  0
   11.4870    5.0410   23.4610 N   0  0  0  0  0  0  0  0  0  0  0  0
    9.5800    3.9750   24.6760 O   0  0  0  0  0  0  0  0  0  0  0  0
    9.6620    3.9170   22.2220 O   0  0  0  0  0  0  0  0  0  0  0  0
   10.8080    1.0920   24.1480 C   0  0  0  0  0  0  0  0  0  0  0  0
   11.5700   -0.1560   24.1700 C   0  0  0  0  0  0  0  0  0  0  0  0
   18.1800   -3.7540   25.1820 C   0  0  1  0  0  0  0  0  0  0  0  0
   18.6700   -2.5120   25.5640 C   0  0  0  0  0  0  0  0  0  0  0  0
   19.5270   -1.8520   24.6320 C   0  0  0  0  0  0  0  0  0  0  0  0
   20.4160   -0.9440   25.2490 C   0  0  0  0  0  0  0  0  0  0  0  0
   20.5510    0.2480   24.4060 N   0  0  0  0  0  0  0  0  0  0  0  0
   21.1350    1.7290   24.9880 S   0  0  0  0  0  0  0  0  0  0  0  0
   19.9150    3.0540   24.4620 C   0  0  0  0  0  0  0  0  0  0  0  0
   21.1620    1.2620   26.3060 O   0  0  0  0  0  0  0  0  0  0  0  0
   22.4260    2.1440   24.4980 O   0  0  0  0  0  0  0  0  0  0  0  0
   19.2550   -4.1980   26.1860 C   0  0  0  0  0  0  0  0  0  0  0  0
   19.2920   -5.2810   26.6510 O   0  0  0  0  0  0  0  0  0  0  0  0
   20.1820   -3.1220   26.5320 N   0  0  0  0  0  0  0  0  0  0  0  0
   21.5880   -2.8100   26.3190 C   0  0  0  0  0  0  0  0  0  0  0  0
   22.6460   -3.3350   26.9850 C   0  0  0  0  0  0  0  0  0  0  0  0
   23.9100   -2.9140   26.7180 N   0  0  0  0  0  0  0  0  0  0  0  0
   23.7030   -2.0360   25.7990 C   0  0  0  0  0  0  0  0  0  0  0  0
   24.6980   -1.3530   25.2050 C   0  0  0  0  0  0  0  0  0  0  0  0
   24.5580   -1.2110   23.8810 C   0  0  0  0  0  0  0  0  0  0  0  0
   23.4070   -1.7480   23.1900 C   0  0  0  0  0  0  0  0  0  0  0  0
   22.2810   -2.0310   23.8770 C   0  0  0  0  0  0  0  0  0  0  0  0
   22.2380   -1.7980   25.3660 C   0  0  1  0  0  0  0  0  0  0  0  0
  2  1  1  6
  2  3  1  0
  3  4  1  0
  4  5  1  0
  5  6  1  0
  6  7  2  0
  7  8  1  0
  8  9  2  0
  9 10  1  0
 10 11  1  0
 10 12  2  0
 10 13  2  0
  9 14  1  0
  6 15  1  0
 14 15  2  0
  2 16  1  0
 16 17  1  1
 17 18  1  0
 18 19  1  0
 19 20  1  0
 21 20  1  0
 21 22  1  0
 21 23  2  0
 21 24  2  0
 16 25  1  0
 25 26  2  0
 25 27  1  0
 27 28  1  0
 28 29  2  0
 29 30  1  0
 30 31  2  0
 31 32  1  0
 32 33  2  0
 33 34  1  0
 34 35  2  0
 28 36  1  0
 31 36  1  0
 36 35  1  6
M  END
