WAL-WAB-c1441da0-1
     RDKit          3D

 36 38  0  0  0  0  0  0  0  0999 V2000
   15.6400    1.5600   17.6610 C   0  0  0  0  0  0  0  0  0  0  0  0
   15.8570    0.7210   18.8720 C   0  0  1  0  0  0  0  0  0  0  0  0
   15.0230   -0.3870   19.0640 C   0  0  0  0  0  0  0  0  0  0  0  0
   13.6870   -0.8390   20.1390 C   0  0  0  0  0  0  0  0  0  0  0  0
   13.1500   -0.5910   21.6300 C   0  0  0  0  0  0  0  0  0  0  0  0
   12.5080    0.5970   22.1980 C   0  0  0  0  0  0  0  0  0  0  0  0
   13.2090    1.7500   22.4360 C   0  0  0  0  0  0  0  0  0  0  0  0
   12.4290    2.9820   22.9600 C   0  0  0  0  0  0  0  0  0  0  0  0
   10.9540    2.9080   23.1700 C   0  0  0  0  0  0  0  0  0  0  0  0
   10.1030    4.3890   23.7250 S   0  0  0  0  0  0  0  0  0  0  0  0
   11.1780    5.6370   23.3330 N   0  0  0  0  0  0  0  0  0  0  0  0
    9.9890    4.4400   25.1570 O   0  0  0  0  0  0  0  0  0  0  0  0
    8.9610    4.6300   22.8850 O   0  0  0  0  0  0  0  0  0  0  0  0
   10.3230    1.7010   22.9320 C   0  0  0  0  0  0  0  0  0  0  0  0
   11.1040    0.5920   22.4750 C   0  0  0  0  0  0  0  0  0  0  0  0
   17.4400    0.4700   18.6480 C   0  0  1  0  0  0  0  0  0  0  0  0
   18.3540   -0.7860   18.8220 C   0  0  0  0  0  0  0  0  0  0  0  0
   19.6780   -0.9970   19.4760 C   0  0  0  0  0  0  0  0  0  0  0  0
   19.9830   -1.6840   20.6930 C   0  0  0  0  0  0  0  0  0  0  0  0
   20.9400   -0.8440   21.4470 N   0  0  0  0  0  0  0  0  0  0  0  0
   21.4370   -1.1340   23.0310 S   0  0  0  0  0  0  0  0  0  0  0  0
   19.9520   -0.9890   24.0070 C   0  0  0  0  0  0  0  0  0  0  0  0
   22.2850   -0.0160   23.3740 O   0  0  0  0  0  0  0  0  0  0  0  0
   21.9250   -2.4880   23.1150 O   0  0  0  0  0  0  0  0  0  0  0  0
   17.2780   -0.2500   17.5280 C   0  0  0  0  0  0  0  0  0  0  0  0
   16.8280    0.0040   16.4220 O   0  0  0  0  0  0  0  0  0  0  0  0
   17.7880   -1.3220   18.1480 N   0  0  0  0  0  0  0  0  0  0  0  0
   17.5120   -2.4020   17.6920 C   0  0  0  0  0  0  0  0  0  0  0  0
   18.1320   -2.7090   16.7070 C   0  0  0  0  0  0  0  0  0  0  0  0
   17.8150   -3.8310   16.1660 N   0  0  0  0  0  0  0  0  0  0  0  0
   16.8940   -4.3210   16.8420 C   0  0  0  0  0  0  0  0  0  0  0  0
   16.3000   -5.4350   16.5710 C   0  0  0  0  0  0  0  0  0  0  0  0
   15.4040   -5.7520   17.4300 C   0  0  0  0  0  0  0  0  0  0  0  0
   15.0510   -4.9870   18.6180 C   0  0  0  0  0  0  0  0  0  0  0  0
   15.5880   -3.9230   18.8730 C   0  0  0  0  0  0  0  0  0  0  0  0
   16.5870   -3.4710   17.9820 C   0  0  0  0  0  0  0  0  0  0  0  0
  2  1  1  6
  2  3  1  0
  3  4  1  0
  4  5  1  0
  5  6  1  0
  6  7  2  0
  7  8  1  0
  8  9  2  0
  9 10  1  0
 10 11  1  0
 10 12  2  0
 10 13  2  0
  9 14  1  0
  6 15  1  0
 14 15  2  0
  2 16  1  0
 16 17  1  1
 17 18  1  0
 18 19  1  0
 19 20  1  0
 21 20  1  0
 21 22  1  0
 21 23  2  0
 21 24  2  0
 16 25  1  0
 25 26  2  0
 25 27  1  0
 27 28  1  0
 28 29  2  0
 29 30  1  0
 30 31  1  0
 31 32  1  0
 32 33  2  0
 33 34  1  0
 34 35  2  0
 28 36  1  0
 31 36  2  0
 35 36  1  0
M  END
