WAR-XCH-b6889685-54
     RDKit          3D

 20 21  0  0  0  0  0  0  0  0999 V2000
    8.0670   -3.4530   24.0420 C   0  0  0  0  0  0  0  0  0  0  0  0
    9.4520   -2.8660   23.9050 C   0  0  0  0  0  0  0  0  0  0  0  0
    9.7610   -2.4290   22.5360 N   0  0  0  0  0  0  0  0  0  0  0  0
    8.4860   -2.2440   21.8580 C   0  0  0  0  0  0  0  0  0  0  0  0
   10.4910   -1.1380   22.5090 C   0  0  0  0  0  0  0  0  0  0  0  0
   10.0270   -0.2740   23.4200 C   0  0  0  0  0  0  0  0  0  0  0  0
   10.2780    1.0580   22.8290 C   0  0  0  0  0  0  0  0  0  0  0  0
   11.7040    1.2970   22.6920 N   0  0  0  0  0  0  0  0  0  0  0  0
   11.8900    2.6760   22.9560 C   0  0  0  0  0  0  0  0  0  0  0  0
   13.1590    3.5290   22.7550 C   0  0  0  0  0  0  0  0  0  0  0  0
   13.0580    5.0040   23.1320 C   0  0  0  0  0  0  0  0  0  0  0  0
   11.8480    5.5130   23.6380 C   0  0  0  0  0  0  0  0  0  0  0  0
   11.6860    7.2050   24.1050 S   0  0  0  0  0  0  0  0  0  0  0  0
   11.8680    7.1100   25.7760 N   0  0  0  0  0  0  0  0  0  0  0  0
   12.7940    7.9520   23.5630 O   0  0  0  0  0  0  0  0  0  0  0  0
   10.3050    7.5810   23.9100 O   0  0  0  0  0  0  0  0  0  0  0  0
   10.7290    4.6990   23.7940 C   0  0  0  0  0  0  0  0  0  0  0  0
   10.7560    3.3520   23.4650 C   0  0  0  0  0  0  0  0  0  0  0  0
   12.6160    0.1440   22.9830 C   0  0  0  0  0  0  0  0  0  0  0  0
   12.0340   -1.1400   22.7030 C   0  0  0  0  0  0  0  0  0  0  0  0
  1  2  1  0
  2  3  1  0
  3  4  1  0
  3  5  1  0
  5  6  1  0
  6  7  1  0
  7  8  1  0
  8  9  1  0
  9 10  2  0
 10 11  1  0
 11 12  2  0
 12 13  1  0
 13 14  1  0
 13 15  2  0
 13 16  2  0
 12 17  1  0
  9 18  1  0
 17 18  2  0
  8 19  1  0
  5 20  1  0
 19 20  1  0
M  END
