WAR-XCH-b72a1bbc-4
     RDKit          3D

 17 18  0  0  0  0  0  0  0  0999 V2000
   13.0430   -2.5340   25.0410 C   0  0  0  0  0  0  0  0  0  0  0  0
   12.6510   -1.3520   24.4490 C   0  0  0  0  0  0  0  0  0  0  0  0
   11.7830   -0.3790   24.8760 C   0  0  0  0  0  0  0  0  0  0  0  0
   11.5630    0.7850   24.0250 C   0  0  0  0  0  0  0  0  0  0  0  0
   12.1450    1.0510   22.7670 N   0  0  0  0  0  0  0  0  0  0  0  0
   12.9880    0.0770   22.3660 C   0  0  0  0  0  0  0  0  0  0  0  0
   13.0920   -0.9620   23.2860 C   0  0  0  0  0  0  0  0  0  0  0  0
   12.2040    0.3600   23.4310 C   0  0  0  0  0  0  0  0  0  0  0  0
   10.7300    0.4730   23.9280 C   0  0  0  0  0  0  0  0  0  0  0  0
   10.0280    1.8860   23.9750 C   0  0  0  0  0  0  0  0  0  0  0  0
   10.8030    3.1760   23.5220 C   0  0  0  0  0  0  0  0  0  0  0  0
   10.0360    4.8110   23.5740 S   0  0  0  0  0  0  0  0  0  0  0  0
    8.8190    4.7210   22.4200 N   0  0  0  0  0  0  0  0  0  0  0  0
   10.9890    5.7770   23.0680 O   0  0  0  0  0  0  0  0  0  0  0  0
    9.3350    5.0230   24.8260 O   0  0  0  0  0  0  0  0  0  0  0  0
   12.2600    3.0590   23.0240 C   0  0  0  0  0  0  0  0  0  0  0  0
   12.9110    1.6560   23.0010 C   0  0  0  0  0  0  0  0  0  0  0  0
  1  2  1  0
  2  3  2  0
  3  4  1  0
  4  5  2  0
  5  6  1  0
  2  7  1  0
  6  7  2  0
  7  8  1  0
  8  9  2  0
  9 10  1  0
 10 11  2  0
 11 12  1  0
 12 13  1  0
 12 14  2  0
 12 15  2  0
 11 16  1  0
  8 17  1  0
 16 17  2  0
M  END
