WAR-XCH-b6889685-62
     RDKit          3D

 26 28  0  0  0  0  0  0  0  0999 V2000
   21.9830  -22.9240   22.4220 C   0  0  0  0  0  0  0  0  0  0  0  0
   23.1120  -22.1650   22.0980 C   0  0  2  0  0  0  0  0  0  0  0  0
   23.2360  -20.9490   22.7910 C   0  0  0  0  0  0  0  0  0  0  0  0
   22.6680  -20.7860   24.0770 C   0  0  0  0  0  0  0  0  0  0  0  0
   22.7520  -19.5800   24.7720 C   0  0  0  0  0  0  0  0  0  0  0  0
   23.4430  -18.3580   24.2160 C   0  0  0  0  0  0  0  0  0  0  0  0
   24.0810  -18.4840   22.8420 C   0  0  0  0  0  0  0  0  0  0  0  0
   23.9250  -19.8690   22.1780 C   0  0  0  0  0  0  0  0  0  0  0  0
   23.2550  -22.0630   20.6080 N   0  0  0  0  0  0  0  0  0  0  0  0
   24.6160  -21.7860   20.1700 C   0  0  0  0  0  0  0  0  0  0  0  0
   22.4880  -23.0020   19.7680 C   0  0  0  0  0  0  0  0  0  0  0  0
   22.9890  -24.3980   20.0960 C   0  0  0  0  0  0  0  0  0  0  0  0
   22.1250  -25.4300   19.4750 C   0  0  0  0  0  0  0  0  0  0  0  0
   22.0570  -25.3010   18.0260 N   0  0  0  0  0  0  0  0  0  0  0  0
   21.6620  -26.4980   17.4600 C   0  0  0  0  0  0  0  0  0  0  0  0
   20.6080  -27.1640   18.0810 C   0  0  0  0  0  0  0  0  0  0  0  0
   20.1040  -28.3920   17.6410 C   0  0  0  0  0  0  0  0  0  0  0  0
   20.6540  -29.0100   16.5240 C   0  0  0  0  0  0  0  0  0  0  0  0
   20.0280  -30.5610   15.9410 S   0  0  0  0  0  0  0  0  0  0  0  0
   21.4480  -31.3820   15.5580 N   0  0  0  0  0  0  0  0  0  0  0  0
   19.3520  -30.3380   14.6840 O   0  0  0  0  0  0  0  0  0  0  0  0
   19.3960  -31.2450   17.0450 O   0  0  0  0  0  0  0  0  0  0  0  0
   21.8050  -28.3000   15.8340 C   0  0  0  0  0  0  0  0  0  0  0  0
   22.2640  -27.0780   16.3230 C   0  0  0  0  0  0  0  0  0  0  0  0
   21.7010  -23.9460   17.4930 C   0  0  0  0  0  0  0  0  0  0  0  0
   22.4570  -22.8190   18.2300 C   0  0  0  0  0  0  0  0  0  0  0  0
  2  1  1  6
  2  3  1  0
  3  4  2  0
  4  5  1  0
  5  6  2  0
  6  7  1  0
  3  8  1  0
  7  8  2  0
  2  9  1  0
  9 10  1  0
  9 11  1  0
 11 12  1  0
 12 13  1  0
 13 14  1  0
 14 15  1  0
 15 16  2  0
 16 17  1  0
 17 18  2  0
 18 19  1  0
 19 20  1  0
 19 21  2  0
 19 22  2  0
 18 23  1  0
 15 24  1  0
 23 24  2  0
 14 25  1  0
 11 26  1  0
 25 26  1  0
M  END
