WAR-XCH-b6889685-4
     RDKit          3D

 26 28  0  0  0  0  0  0  0  0999 V2000
    4.4140    2.2990   18.2520 C   0  0  0  0  0  0  0  0  0  0  0  0
    5.3230    1.4080   18.9990 C   0  0  0  0  0  0  0  0  0  0  0  0
    6.2910    0.6660   18.3400 C   0  0  0  0  0  0  0  0  0  0  0  0
    7.1570   -0.1660   19.0530 C   0  0  0  0  0  0  0  0  0  0  0  0
    7.0580   -0.2510   20.4480 C   0  0  0  0  0  0  0  0  0  0  0  0
    7.9020   -1.0560   21.2700 N   0  0  0  0  0  0  0  0  0  0  0  0
    7.1340   -1.8330   22.2510 C   0  0  0  0  0  0  0  0  0  0  0  0
    9.2360   -0.5210   21.6940 C   0  0  0  0  0  0  0  0  0  0  0  0
    9.8710   -1.3210   22.8610 C   0  0  0  0  0  0  0  0  0  0  0  0
   10.0570   -0.4700   24.1240 C   0  0  0  0  0  0  0  0  0  0  0  0
   11.4300   -0.7700   24.6790 C   0  0  0  0  0  0  0  0  0  0  0  0
   12.3570   -0.3080   23.6790 N   0  0  0  0  0  0  0  0  0  0  0  0
   12.2390    1.0640   23.3980 C   0  0  0  0  0  0  0  0  0  0  0  0
   11.0100    1.8040   23.9660 C   0  0  0  0  0  0  0  0  0  0  0  0
   10.8460    3.2840   23.7370 C   0  0  0  0  0  0  0  0  0  0  0  0
   11.8210    3.9320   23.0130 C   0  0  0  0  0  0  0  0  0  0  0  0
   11.6610    5.6720   22.7750 S   0  0  0  0  0  0  0  0  0  0  0  0
   10.0040    5.8680   22.5570 N   0  0  0  0  0  0  0  0  0  0  0  0
   11.9890    6.3420   24.0090 O   0  0  0  0  0  0  0  0  0  0  0  0
   12.2770    6.0150   21.5260 O   0  0  0  0  0  0  0  0  0  0  0  0
   12.9350    3.2230   22.4850 C   0  0  0  0  0  0  0  0  0  0  0  0
   13.1420    1.8390   22.6650 C   0  0  0  0  0  0  0  0  0  0  0  0
   12.4150   -1.2560   22.5670 C   0  0  0  0  0  0  0  0  0  0  0  0
   11.2130   -1.9990   22.4180 C   0  0  0  0  0  0  0  0  0  0  0  0
    6.0560    0.5080   21.0770 C   0  0  0  0  0  0  0  0  0  0  0  0
    5.2040    1.3240   20.3590 C   0  0  0  0  0  0  0  0  0  0  0  0
  1  2  1  0
  2  3  2  0
  3  4  1  0
  4  5  2  0
  5  6  1  0
  6  7  1  0
  6  8  1  0
  8  9  1  0
  9 10  1  0
 10 11  1  0
 11 12  1  0
 12 13  1  0
 13 14  2  0
 14 15  1  0
 15 16  2  0
 16 17  1  0
 17 18  1  0
 17 19  2  0
 17 20  2  0
 16 21  1  0
 13 22  1  0
 21 22  2  0
 12 23  1  0
  9 24  1  0
 23 24  1  0
  5 25  1  0
  2 26  1  0
 25 26  2  0
M  END
