WAR-XCH-b72a1bbc-32
     RDKit          3D

 28 31  0  0  0  0  0  0  0  0999 V2000
    9.0230    6.5120   22.5840 N   0  0  0  0  0  0  0  0  0  0  0  0
   10.4160    6.3770   23.5260 S   0  0  0  0  0  0  0  0  0  0  0  0
   11.4760    7.0250   22.8120 O   0  0  0  0  0  0  0  0  0  0  0  0
   10.0750    6.6780   24.8960 O   0  0  0  0  0  0  0  0  0  0  0  0
   10.7000    4.6620   23.4340 C   0  0  0  0  0  0  0  0  0  0  0  0
    9.6200    3.7660   23.9250 C   0  0  0  0  0  0  0  0  0  0  0  0
    9.8240    2.4040   23.8560 C   0  0  0  0  0  0  0  0  0  0  0  0
   10.9830    1.8670   23.3590 C   0  0  0  0  0  0  0  0  0  0  0  0
   11.1230    0.5510   23.3320 N   0  0  0  0  0  0  0  0  0  0  0  0
   12.5320    0.1880   23.1250 C   0  0  0  0  0  0  0  0  0  0  0  0
   12.8350   -0.8920   23.8520 C   0  0  0  0  0  0  0  0  0  0  0  0
   11.8020   -1.4310   24.4840 C   0  0  0  0  0  0  0  0  0  0  0  0
   12.1780   -2.7740   24.7500 C   0  0  0  0  0  0  0  0  0  0  0  0
   12.1310   -3.0070   23.3440 N   0  0  0  0  0  0  0  0  0  0  0  0
   10.9870   -2.2720   22.8430 C   0  0  0  0  0  0  0  0  0  0  0  0
   10.7970   -2.4450   21.3920 C   0  0  0  0  0  0  0  0  0  0  0  0
   11.8360   -2.9900   20.6150 C   0  0  0  0  0  0  0  0  0  0  0  0
   13.2370   -3.0650   21.1880 C   0  0  2  0  0  0  0  0  0  0  0  0
   14.2510   -4.1920   20.6370 C   0  0  0  0  0  0  0  0  0  0  0  0
   15.5440   -4.2940   20.1210 C   0  0  0  0  0  0  0  0  0  0  0  0
   16.0490   -5.3330   19.8660 C   0  0  0  0  0  0  0  0  0  0  0  0
   15.4070   -6.1940   19.9840 C   0  0  0  0  0  0  0  0  0  0  0  0
   14.0980   -5.7550   20.4960 S   0  0  0  0  0  0  0  0  0  0  0  0
   13.3150   -2.7490   22.5940 C   0  0  0  0  0  0  0  0  0  0  0  0
   11.1300   -0.5140   25.4170 C   0  0  0  0  0  0  0  0  0  0  0  0
   10.3200    0.0950   24.5080 C   0  0  0  0  0  0  0  0  0  0  0  0
   12.0220    2.6610   22.8920 C   0  0  0  0  0  0  0  0  0  0  0  0
   11.8760    4.1530   22.9250 C   0  0  0  0  0  0  0  0  0  0  0  0
  2  1  1  0
  2  3  2  0
  2  4  2  0
  2  5  1  0
  5  6  2  0
  6  7  1  0
  7  8  2  0
  8  9  1  0
  9 10  1  0
 10 11  1  0
 11 12  1  0
 12 13  1  0
 13 14  1  0
 14 15  1  0
 15 16  1  0
 16 17  1  0
 17 18  1  0
 18 19  1  1
 19 20  2  0
 20 21  1  0
 21 22  2  0
 19 23  1  0
 22 23  1  0
 14 24  1  0
 18 24  1  0
 12 25  1  0
  9 26  1  0
 25 26  1  0
  8 27  1  0
  5 28  1  0
 27 28  2  0
M  END
