WAR-XCH-b72a1bbc-26
     RDKit          3D

 30 33  0  0  0  0  0  0  0  0999 V2000
   -0.9050   -5.2830   24.0150 N   0  0  0  0  0  0  0  0  0  0  0  0
    0.2930   -6.3880   23.5710 S   0  0  0  0  0  0  0  0  0  0  0  0
   -0.2480   -7.7170   23.7370 O   0  0  0  0  0  0  0  0  0  0  0  0
    0.8130   -5.9100   22.3140 O   0  0  0  0  0  0  0  0  0  0  0  0
    1.5130   -6.1280   24.8290 C   0  0  0  0  0  0  0  0  0  0  0  0
    2.7340   -6.8110   24.7820 C   0  0  0  0  0  0  0  0  0  0  0  0
    3.6830   -6.5920   25.7920 C   0  0  0  0  0  0  0  0  0  0  0  0
    3.4430   -5.6970   26.8630 C   0  0  0  0  0  0  0  0  0  0  0  0
    4.3830   -5.4760   27.8680 N   0  0  0  0  0  0  0  0  0  0  0  0
    4.7180   -4.0970   28.2220 C   0  0  0  0  0  0  0  0  0  0  0  0
    5.6820   -3.5380   27.1790 C   0  0  0  0  0  0  0  0  0  0  0  0
    6.5730   -4.6390   26.5750 C   0  0  0  0  0  0  0  0  0  0  0  0
    7.8680   -4.1170   25.9860 C   0  0  0  0  0  0  0  0  0  0  0  0
    7.8480   -3.2430   24.9810 N   0  0  0  0  0  0  0  0  0  0  0  0
    6.8520   -3.3730   24.0200 C   0  0  0  0  0  0  0  0  0  0  0  0
    6.7020   -2.3690   23.0290 C   0  0  0  0  0  0  0  0  0  0  0  0
    7.8510   -1.4570   22.8870 C   0  0  0  0  0  0  0  0  0  0  0  0
    9.1220   -2.0140   23.1050 C   0  0  1  0  0  0  0  0  0  0  0  0
   10.3080   -1.2830   22.9150 C   0  0  0  0  0  0  0  0  0  0  0  0
   10.4790    0.0700   23.2420 C   0  0  0  0  0  0  0  0  0  0  0  0
   11.7180    0.7010   23.0250 C   0  0  0  0  0  0  0  0  0  0  0  0
   12.7590   -0.0230   22.4920 C   0  0  0  0  0  0  0  0  0  0  0  0
   12.5810   -1.3480   22.1570 C   0  0  0  0  0  0  0  0  0  0  0  0
   13.5530   -2.0440   21.6300 F   0  0  0  0  0  0  0  0  0  0  0  0
   11.3800   -1.9690   22.3660 C   0  0  0  0  0  0  0  0  0  0  0  0
    9.1540   -2.7770   24.4640 C   0  0  0  0  0  0  0  0  0  0  0  0
    6.8240   -5.7440   27.6090 C   0  0  0  0  0  0  0  0  0  0  0  0
    5.5020   -6.4310   27.9600 C   0  0  0  0  0  0  0  0  0  0  0  0
    2.2000   -5.0340   26.8660 C   0  0  0  0  0  0  0  0  0  0  0  0
    1.2440   -5.2400   25.8670 C   0  0  0  0  0  0  0  0  0  0  0  0
  2  1  1  0
  2  3  2  0
  2  4  2  0
  2  5  1  0
  5  6  2  0
  6  7  1  0
  7  8  2  0
  8  9  1  0
  9 10  1  0
 10 11  1  0
 11 12  1  0
 12 13  1  0
 13 14  1  0
 14 15  1  0
 15 16  1  0
 16 17  1  0
 17 18  1  0
 18 19  1  1
 19 20  2  0
 20 21  1  0
 21 22  2  0
 22 23  1  0
 23 24  1  0
 19 25  1  0
 23 25  2  0
 14 26  1  0
 18 26  1  0
 12 27  1  0
  9 28  1  0
 27 28  1  0
  8 29  1  0
  5 30  1  0
 29 30  2  0
M  END
