WAR-XCH-bdd24732-5
     RDKit          3D

 24 26  0  0  0  0  0  0  0  0999 V2000
   -0.1080   -6.3060   22.1660 C   0  0  0  0  0  0  0  0  0  0  0  0
    0.3630   -5.7900   23.4070 O   0  0  0  0  0  0  0  0  0  0  0  0
    1.7100   -5.6120   23.5410 C   0  0  0  0  0  0  0  0  0  0  0  0
    2.6950   -6.4800   22.8750 C   0  0  0  0  0  0  0  0  0  0  0  0
    4.0870   -6.2900   23.0210 C   0  0  0  0  0  0  0  0  0  0  0  0
    4.5740   -5.2620   23.8160 C   0  0  0  0  0  0  0  0  0  0  0  0
    5.9400   -4.9940   24.0920 N   0  0  0  0  0  0  0  0  0  0  0  0
    6.0280   -5.4390   25.4450 C   0  0  0  0  0  0  0  0  0  0  0  0
    6.1220   -5.7930   26.8340 C   0  0  0  0  0  0  0  0  0  0  0  0
    6.2430   -4.9270   28.0350 C   0  0  0  0  0  0  0  0  0  0  0  0
    6.2920   -5.6760   29.3220 C   0  0  0  0  0  0  0  0  0  0  0  0
    6.3070   -3.4330   27.9140 C   0  0  0  0  0  0  0  0  0  0  0  0
    6.2270   -3.0300   26.5640 C   0  0  0  0  0  0  0  0  0  0  0  0
    6.2650   -1.7240   26.2730 F   0  0  0  0  0  0  0  0  0  0  0  0
    6.1010   -3.9880   25.5260 C   0  0  0  0  0  0  0  0  0  0  0  0
    6.8140   -4.0010   23.3850 C   0  0  2  0  0  0  0  0  0  0  0  0
    7.9220   -3.2100   24.1070 C   0  0  0  0  0  0  0  0  0  0  0  0
    8.3290   -1.8970   23.4450 C   0  0  0  0  0  0  0  0  0  0  0  0
    8.0820   -2.0160   21.9630 C   0  0  2  0  0  0  0  0  0  0  0  0
    8.4150   -1.1110   21.1850 O   0  0  0  0  0  0  0  0  0  0  0  0
    6.5700   -2.1500   21.7980 C   0  0  0  0  0  0  0  0  0  0  0  0
    6.0160   -3.3020   22.4460 C   0  0  0  0  0  0  0  0  0  0  0  0
    3.7210   -4.3950   24.4750 C   0  0  0  0  0  0  0  0  0  0  0  0
    2.2440   -4.5860   24.3270 C   0  0  0  0  0  0  0  0  0  0  0  0
  1  2  1  0
  2  3  1  0
  3  4  2  0
  4  5  1  0
  5  6  2  0
  6  7  1  0
  7  8  1  0
  8  9  2  0
  9 10  1  0
 10 11  1  0
 10 12  2  0
 12 13  1  0
 13 14  1  0
  8 15  1  0
 13 15  2  0
 16  7  1  1
 16 17  1  0
 17 18  1  0
 18 19  1  0
 19 20  1  6
 19 21  1  0
 16 22  1  0
 21 22  1  0
  6 23  1  0
  3 24  1  0
 23 24  2  0
M  END
