WAR-XCH-b6889685-23
     RDKit          3D

 20 21  0  0  0  0  0  0  0  0999 V2000
    8.3150   -3.3060   24.0690 C   0  0  0  0  0  0  0  0  0  0  0  0
    9.4660   -2.3240   24.0410 C   0  0  0  0  0  0  0  0  0  0  0  0
   10.7790   -2.8140   24.0780 C   0  0  0  0  0  0  0  0  0  0  0  0
    9.3910   -1.4520   22.8460 N   0  0  0  0  0  0  0  0  0  0  0  0
   10.3820   -0.3060   22.7760 C   0  0  0  0  0  0  0  0  0  0  0  0
   10.4430    0.6050   23.8220 C   0  0  0  0  0  0  0  0  0  0  0  0
   11.0910    1.9030   23.3040 C   0  0  0  0  0  0  0  0  0  0  0  0
   12.2060    1.6860   22.3500 N   0  0  0  0  0  0  0  0  0  0  0  0
   13.1840    2.6950   22.4010 C   0  0  0  0  0  0  0  0  0  0  0  0
   14.5590    2.5240   21.7580 C   0  0  0  0  0  0  0  0  0  0  0  0
   15.5830    3.5770   22.1320 C   0  0  0  0  0  0  0  0  0  0  0  0
   15.3100    4.5540   22.9770 C   0  0  0  0  0  0  0  0  0  0  0  0
   16.9970    5.1120   23.4800 S   0  0  0  0  0  0  0  0  0  0  0  0
   18.1390    4.6140   22.3860 N   0  0  0  0  0  0  0  0  0  0  0  0
   17.3430    4.0580   24.3860 O   0  0  0  0  0  0  0  0  0  0  0  0
   17.3590    6.3860   24.0440 O   0  0  0  0  0  0  0  0  0  0  0  0
   13.9360    4.8050   23.3980 C   0  0  0  0  0  0  0  0  0  0  0  0
   12.9380    3.8750   23.0980 C   0  0  0  0  0  0  0  0  0  0  0  0
   12.7820    0.3100   22.4930 C   0  0  0  0  0  0  0  0  0  0  0  0
   11.8410   -0.7470   22.5050 C   0  0  0  0  0  0  0  0  0  0  0  0
  1  2  1  0
  2  3  1  0
  2  4  1  0
  4  5  1  0
  5  6  1  0
  6  7  1  0
  7  8  1  0
  8  9  1  0
  9 10  2  0
 10 11  1  0
 11 12  2  0
 12 13  1  0
 13 14  1  0
 13 15  2  0
 13 16  2  0
 12 17  1  0
  9 18  1  0
 17 18  2  0
  8 19  1  0
  5 20  1  0
 19 20  1  0
M  END
