WAR-XCH-b6889685-27
     RDKit          3D

 24 26  0  0  0  0  0  0  0  0999 V2000
   15.5740   -5.7160   18.5240 C   0  0  0  0  0  0  0  0  0  0  0  0
   14.7910   -5.0420   19.4100 C   0  0  0  0  0  0  0  0  0  0  0  0
   15.5610   -5.2560   20.3310 C   0  0  0  0  0  0  0  0  0  0  0  0
   15.2410   -4.7980   21.3700 C   0  0  0  0  0  0  0  0  0  0  0  0
   14.0510   -3.9640   21.5160 C   0  0  0  0  0  0  0  0  0  0  0  0
   13.2060   -3.6940   20.6080 C   0  0  0  0  0  0  0  0  0  0  0  0
   12.1870   -2.8810   21.1120 N   0  0  0  0  0  0  0  0  0  0  0  0
   12.4250   -2.4640   22.5220 C   0  0  0  0  0  0  0  0  0  0  0  0
   11.3560   -2.2430   23.6000 C   0  0  0  0  0  0  0  0  0  0  0  0
   11.6400   -0.9450   24.3520 C   0  0  0  0  0  0  0  0  0  0  0  0
   11.8150    0.0140   23.2780 N   0  0  0  0  0  0  0  0  0  0  0  0
   11.4480    1.3330   23.3430 C   0  0  0  0  0  0  0  0  0  0  0  0
   10.1940    1.6840   23.8200 C   0  0  0  0  0  0  0  0  0  0  0  0
    9.8320    3.0270   23.8690 C   0  0  0  0  0  0  0  0  0  0  0  0
   10.7180    4.0270   23.4470 C   0  0  0  0  0  0  0  0  0  0  0  0
   10.2510    5.7270   23.5280 S   0  0  0  0  0  0  0  0  0  0  0  0
    8.8650    5.7620   22.5820 N   0  0  0  0  0  0  0  0  0  0  0  0
   11.2360    6.5110   22.8340 O   0  0  0  0  0  0  0  0  0  0  0  0
    9.8200    6.0360   24.8710 O   0  0  0  0  0  0  0  0  0  0  0  0
   11.9710    3.6760   22.9680 C   0  0  0  0  0  0  0  0  0  0  0  0
   12.3290    2.3400   22.9190 C   0  0  0  0  0  0  0  0  0  0  0  0
   13.0890   -0.0590   22.6690 C   0  0  0  0  0  0  0  0  0  0  0  0
   13.5120   -1.4780   22.5720 C   0  0  0  0  0  0  0  0  0  0  0  0
   13.5920   -4.3390   19.4830 C   0  0  0  0  0  0  0  0  0  0  0  0
  1  2  1  0
  2  3  2  0
  3  4  1  0
  4  5  2  0
  5  6  1  0
  6  7  1  0
  7  8  1  0
  8  9  1  0
  9 10  1  0
 10 11  1  0
 11 12  1  0
 12 13  2  0
 13 14  1  0
 14 15  2  0
 15 16  1  0
 16 17  1  0
 16 18  2  0
 16 19  2  0
 15 20  1  0
 12 21  1  0
 20 21  2  0
 11 22  1  0
  8 23  1  0
 22 23  1  0
  2 24  1  0
  6 24  2  0
M  END
