WAR-XCH-b0339bbe-6
     RDKit          3D

 31 34  0  0  0  0  0  0  0  0999 V2000
    4.8620   -0.9920   21.9300 O   0  0  0  0  0  0  0  0  0  0  0  0
    5.8550   -0.4640   22.4010 C   0  0  0  0  0  0  0  0  0  0  0  0
    6.8170   -1.2610   23.2800 C   0  0  0  0  0  0  0  0  0  0  0  0
    6.3270   -2.4500   23.6900 C   0  0  0  0  0  0  0  0  0  0  0  0
    4.8960   -2.4370   24.4670 C   0  0  0  0  0  0  0  0  0  0  0  0
    4.5110   -3.8510   24.8410 C   0  0  0  0  0  0  0  0  0  0  0  0
    5.7370   -4.0690   24.2000 C   0  0  0  0  0  0  0  0  0  0  0  0
    6.6190   -4.9870   23.8310 N   0  0  0  0  0  0  0  0  0  0  0  0
    7.1190   -3.7330   23.4110 C   0  0  0  0  0  0  0  0  0  0  0  0
    6.1210    0.8520   22.1020 N   0  0  0  0  0  0  0  0  0  0  0  0
    6.2800    1.3290   20.8590 C   0  0  2  0  0  0  0  0  0  0  0  0
    5.1420    1.7410   20.1600 C   0  0  0  0  0  0  0  0  0  0  0  0
    4.6930    0.5100   19.3370 C   0  0  0  0  0  0  0  0  0  0  0  0
    5.5840    0.3690   18.3060 C   0  0  2  0  0  0  0  0  0  0  0  0
    5.3650   -0.5050   17.4990 O   0  0  0  0  0  0  0  0  0  0  0  0
    6.9940    0.3750   18.8000 C   0  0  0  0  0  0  0  0  0  0  0  0
    7.1380    0.4810   20.1710 C   0  0  0  0  0  0  0  0  0  0  0  0
    6.1250    1.8870   23.1520 C   0  0  0  0  0  0  0  0  0  0  0  0
    4.8660    1.8420   23.7450 C   0  0  0  0  0  0  0  0  0  0  0  0
    4.5080    2.9020   24.5660 C   0  0  0  0  0  0  0  0  0  0  0  0
    3.5250    2.7550   25.5510 C   0  0  0  0  0  0  0  0  0  0  0  0
    3.9500    2.1100   26.7070 C   0  0  0  0  0  0  0  0  0  0  0  0
    3.0690    1.0240   26.9740 C   0  0  0  0  0  0  0  0  0  0  0  0
    1.7250    1.7240   27.2040 C   0  0  0  0  0  0  0  0  0  0  0  0
    1.1280    2.2430   26.0790 C   0  0  0  0  0  0  0  0  0  0  0  0
    2.2480    2.3770   25.0590 C   0  0  0  0  0  0  0  0  0  0  0  0
    6.2390    3.3020   22.4760 C   0  0  0  0  0  0  0  0  0  0  0  0
    7.5480    3.7340   22.1920 C   0  0  0  0  0  0  0  0  0  0  0  0
    8.3240    3.8680   23.3310 C   0  0  0  0  0  0  0  0  0  0  0  0
    7.7830    3.1420   24.3760 C   0  0  0  0  0  0  0  0  0  0  0  0
    7.1980    1.9090   24.0750 C   0  0  0  0  0  0  0  0  0  0  0  0
  1  2  2  0
  2  3  1  0
  3  4  1  0
  4  5  2  0
  5  6  1  0
  6  7  2  0
  7  8  1  0
  4  9  1  0
  8  9  2  0
  2 10  1  0
 11 10  1  1
 11 12  1  0
 12 13  1  0
 13 14  1  0
 14 15  1  1
 14 16  1  0
 11 17  1  0
 16 17  1  0
 10 18  1  0
 18 19  1  0
 19 20  3  0
 20 21  1  0
 21 22  1  0
 22 23  1  0
 23 24  1  0
 24 25  1  0
 21 26  1  0
 25 26  1  0
 18 27  1  0
 27 28  1  0
 28 29  1  0
 29 30  1  0
 18 31  1  0
 30 31  1  0
M  END
