WAR-XCH-b72a1bbc-14
     RDKit          3D

 18 19  0  0  0  0  0  0  0  0999 V2000
    8.9550    5.3330   22.5130 N   0  0  0  0  0  0  0  0  0  0  0  0
   10.4210    5.4960   23.3070 S   0  0  0  0  0  0  0  0  0  0  0  0
   11.2890    6.2600   22.4540 O   0  0  0  0  0  0  0  0  0  0  0  0
   10.1230    5.9140   24.6620 O   0  0  0  0  0  0  0  0  0  0  0  0
   11.0240    3.8290   23.3900 C   0  0  0  0  0  0  0  0  0  0  0  0
   10.1510    2.7890   24.0190 C   0  0  0  0  0  0  0  0  0  0  0  0
   10.6240    1.4760   24.1640 C   0  0  0  0  0  0  0  0  0  0  0  0
   11.8800    1.0330   23.7510 C   0  0  0  0  0  0  0  0  0  0  0  0
   12.2220   -0.2930   24.0230 N   0  0  0  0  0  0  0  0  0  0  0  0
   12.6380   -1.2110   22.9890 C   0  0  0  0  0  0  0  0  0  0  0  0
   11.7640   -2.3210   23.0530 C   0  0  0  0  0  0  0  0  0  0  0  0
   10.3360   -2.0560   23.1190 C   0  0  0  0  0  0  0  0  0  0  0  0
    9.3470   -3.1640   23.5080 C   0  0  0  0  0  0  0  0  0  0  0  0
    8.6140   -3.6770   22.4110 O   0  0  0  0  0  0  0  0  0  0  0  0
   10.0610   -1.0250   24.1770 C   0  0  0  0  0  0  0  0  0  0  0  0
   11.3230   -0.9030   24.9650 C   0  0  0  0  0  0  0  0  0  0  0  0
   12.7040    1.9710   23.1170 C   0  0  0  0  0  0  0  0  0  0  0  0
   12.2700    3.4430   22.9230 C   0  0  0  0  0  0  0  0  0  0  0  0
  2  1  1  0
  2  3  2  0
  2  4  2  0
  2  5  1  0
  5  6  2  0
  6  7  1  0
  7  8  2  0
  8  9  1  0
  9 10  1  0
 10 11  1  0
 11 12  1  0
 12 13  1  0
 13 14  1  0
 12 15  1  0
  9 16  1  0
 15 16  1  0
  8 17  1  0
  5 18  1  0
 17 18  2  0
M  END
