WAR-XCH-79d12f6e-3
     RDKit          3D

 21 22  0  0  0  0  0  0  0  0999 V2000
    6.2420   -5.8340   26.3190 O   0  0  0  0  0  0  0  0  0  0  0  0
    5.2990   -5.7230   25.5530 C   0  0  0  0  0  0  0  0  0  0  0  0
    5.3900   -5.4590   24.1970 N   0  0  0  0  0  0  0  0  0  0  0  0
    5.6950   -4.2180   23.6220 C   0  0  0  0  0  0  0  0  0  0  0  0
    6.7170   -4.9330   23.0210 C   0  0  0  0  0  0  0  0  0  0  0  0
    6.8560   -3.5480   22.5750 C   0  0  0  0  0  0  0  0  0  0  0  0
    6.0040   -2.3780   22.9300 C   0  0  0  0  0  0  0  0  0  0  0  0
    4.8730   -2.4040   23.7930 C   0  0  0  0  0  0  0  0  0  0  0  0
    4.6740   -3.6590   24.2620 C   0  0  0  0  0  0  0  0  0  0  0  0
    3.9890   -5.8840   26.0800 N   0  0  0  0  0  0  0  0  0  0  0  0
    2.9140   -7.1190   25.6250 S   0  0  0  0  0  0  0  0  0  0  0  0
    1.8490   -6.4710   24.8900 O   0  0  0  0  0  0  0  0  0  0  0  0
    3.7250   -8.1090   24.9520 O   0  0  0  0  0  0  0  0  0  0  0  0
    2.1590   -8.0110   26.9590 C   0  0  0  0  0  0  0  0  0  0  0  0
    2.4270   -7.5890   28.4120 C   0  0  0  0  0  0  0  0  0  0  0  0
    3.2120   -6.5660   28.7810 F   0  0  0  0  0  0  0  0  0  0  0  0
    1.6540   -8.5320   29.1980 C   0  0  0  0  0  0  0  0  0  0  0  0
    0.7840   -9.6400   29.2300 C   0  0  0  0  0  0  0  0  0  0  0  0
    0.5780   -9.9740   27.8750 C   0  0  0  0  0  0  0  0  0  0  0  0
    1.2820   -9.1380   26.7350 C   0  0  0  0  0  0  0  0  0  0  0  0
    1.0540   -9.4940   25.4300 F   0  0  0  0  0  0  0  0  0  0  0  0
  1  2  2  0
  2  3  1  0
  3  4  1  0
  4  5  2  0
  5  6  1  0
  6  7  2  0
  7  8  1  0
  4  9  1  0
  8  9  2  0
  2 10  1  0
 11 10  1  0
 11 12  2  0
 11 13  2  0
 11 14  1  0
 14 15  2  0
 15 16  1  0
 15 17  1  0
 17 18  2  0
 18 19  1  0
 14 20  1  0
 19 20  2  0
 20 21  1  0
M  END
