WAR-XCH-b72a1bbc-38
     RDKit          3D

 25 27  0  0  0  0  0  0  0  0999 V2000
    3.3810   -4.6330   23.9900 C   0  0  0  0  0  0  0  0  0  0  0  0
    3.0390   -4.3730   25.3190 C   0  0  0  0  0  0  0  0  0  0  0  0
    2.0460   -3.4250   25.5860 C   0  0  0  0  0  0  0  0  0  0  0  0
    1.6360   -3.0990   26.8900 C   0  0  0  0  0  0  0  0  0  0  0  0
    2.1190   -3.6290   28.0310 N   0  0  0  0  0  0  0  0  0  0  0  0
    3.1730   -4.6370   27.8160 C   0  0  0  0  0  0  0  0  0  0  0  0
    3.6480   -5.0210   26.4140 C   0  0  0  0  0  0  0  0  0  0  0  0
    4.9310   -6.2590   26.2400 S   0  0  0  0  0  0  0  0  0  0  0  0
    6.4440   -5.2320   26.0550 C   0  0  0  0  0  0  0  0  0  0  0  0
    6.2590   -4.0920   25.0910 C   0  0  0  0  0  0  0  0  0  0  0  0
    7.0330   -3.0700   25.2730 C   0  0  0  0  0  0  0  0  0  0  0  0
    6.8830   -1.9670   24.3010 C   0  0  0  0  0  0  0  0  0  0  0  0
    7.6280   -2.2910   23.0440 N   0  0  0  0  0  0  0  0  0  0  0  0
    8.8630   -1.6060   22.8980 C   0  0  0  0  0  0  0  0  0  0  0  0
    9.0460   -0.2380   23.2190 C   0  0  0  0  0  0  0  0  0  0  0  0
   10.3160    0.3340   23.1650 C   0  0  0  0  0  0  0  0  0  0  0  0
   11.4030   -0.4240   22.8080 C   0  0  0  0  0  0  0  0  0  0  0  0
   12.9900    0.1740   22.8260 S   0  0  0  0  0  0  0  0  0  0  0  0
   13.5510   -0.8000   21.5850 N   0  0  0  0  0  0  0  0  0  0  0  0
   12.9310    1.5840   22.5730 O   0  0  0  0  0  0  0  0  0  0  0  0
   13.5070   -0.4100   24.0260 O   0  0  0  0  0  0  0  0  0  0  0  0
   11.2260   -1.7170   22.4470 C   0  0  0  0  0  0  0  0  0  0  0  0
   10.0010   -2.3150   22.4760 C   0  0  0  0  0  0  0  0  0  0  0  0
    7.7490   -3.7730   23.0880 C   0  0  0  0  0  0  0  0  0  0  0  0
    6.5810   -4.4260   23.5980 C   0  0  0  0  0  0  0  0  0  0  0  0
  1  2  1  0
  2  3  2  0
  3  4  1  0
  4  5  2  0
  5  6  1  0
  2  7  1  0
  6  7  2  0
  7  8  1  0
  8  9  1  0
  9 10  1  0
 10 11  1  0
 11 12  1  0
 12 13  1  0
 13 14  1  0
 14 15  2  0
 15 16  1  0
 16 17  2  0
 17 18  1  0
 18 19  1  0
 18 20  2  0
 18 21  2  0
 17 22  1  0
 14 23  1  0
 22 23  2  0
 13 24  1  0
 10 25  1  0
 24 25  1  0
M  END
