WAR-XCH-e55cba98-1
     RDKit          3D

 26 29  0  0  0  0  0  0  0  0999 V2000
    4.9880   -0.6510   19.7030 C   0  0  0  0  0  0  0  0  0  0  0  0
    6.1820   -0.6610   20.5870 C   0  0  0  0  0  0  0  0  0  0  0  0
    6.4550   -1.6360   21.4660 N   0  0  0  0  0  0  0  0  0  0  0  0
    7.6380   -1.3840   22.1370 C   0  0  0  0  0  0  0  0  0  0  0  0
    8.2740   -0.1110   21.7050 C   0  0  0  0  0  0  0  0  0  0  0  0
    9.6230    0.2740   22.3770 C   0  0  0  0  0  0  0  0  0  0  0  0
    9.9240    1.7730   22.1190 N   0  0  0  0  0  0  0  0  0  0  0  0
   10.9180    2.7190   22.7560 C   0  0  0  0  0  0  0  0  0  0  0  0
   11.8870    1.7760   23.0110 C   0  0  0  0  0  0  0  0  0  0  0  0
   12.5440    0.8090   23.1390 C   0  0  0  0  0  0  0  0  0  0  0  0
   12.9750   -0.4620   23.3600 C   0  0  0  0  0  0  0  0  0  0  0  0
   13.1740   -1.3890   22.3520 C   0  0  0  0  0  0  0  0  0  0  0  0
   13.5690   -2.7430   22.8180 C   0  0  0  0  0  0  0  0  0  0  0  0
   13.7130   -2.9780   24.1740 C   0  0  0  0  0  0  0  0  0  0  0  0
   13.4810   -1.8770   25.0950 C   0  0  0  0  0  0  0  0  0  0  0  0
   13.1350   -0.7000   24.6510 N   0  0  0  0  0  0  0  0  0  0  0  0
   11.7450    3.7530   21.9120 C   0  0  0  0  0  0  0  0  0  0  0  0
   11.5220    5.1240   22.5340 C   0  0  0  0  0  0  0  0  0  0  0  0
   10.2650    5.0100   23.3720 C   0  0  0  0  0  0  0  0  0  0  0  0
   10.4440    3.6110   23.9460 C   0  0  0  0  0  0  0  0  0  0  0  0
   10.6410   -0.7020   21.7540 C   0  0  0  0  0  0  0  0  0  0  0  0
   10.7250   -2.1460   22.1830 C   0  0  0  0  0  0  0  0  0  0  0  0
   11.4730   -2.1700   23.4510 C   0  0  0  0  0  0  0  0  0  0  0  0
   11.2100   -0.8590   24.1190 C   0  0  0  0  0  0  0  0  0  0  0  0
    9.8020   -0.2340   23.7830 C   0  0  0  0  0  0  0  0  0  0  0  0
    7.3130    0.6530   20.4950 S   0  0  0  0  0  0  0  0  0  0  0  0
  1  2  1  0
  2  3  2  0
  3  4  1  0
  4  5  2  0
  5  6  1  0
  6  7  1  0
  7  8  1  0
  8  9  1  0
  9 10  3  0
 10 11  1  0
 11 12  2  0
 12 13  1  0
 13 14  2  0
 14 15  1  0
 11 16  1  0
 15 16  2  0
  8 17  1  0
 17 18  1  0
 18 19  1  0
  8 20  1  0
 19 20  1  0
  6 21  1  0
 21 22  1  0
 22 23  1  0
 23 24  1  0
  6 25  1  0
 24 25  1  0
  2 26  1  0
  5 26  1  0
M  END
