WAR-XCH-bdd24732-42
     RDKit          3D

 31 34  0  0  0  0  0  0  0  0999 V2000
    1.8530   -4.5980   27.5560 O   0  0  0  0  0  0  0  0  0  0  0  0
    3.0170   -4.2300   27.3920 C   0  0  0  0  0  0  0  0  0  0  0  0
    3.3780   -3.4620   26.2820 N   0  0  0  0  0  0  0  0  0  0  0  0
    3.6270   -4.2680   25.0640 C   0  0  0  0  0  0  0  0  0  0  0  0
    4.1010   -3.4850   24.0140 C   0  0  0  0  0  0  0  0  0  0  0  0
    4.7150   -4.1250   22.9280 C   0  0  0  0  0  0  0  0  0  0  0  0
    4.5180   -5.5230   22.8710 C   0  0  0  0  0  0  0  0  0  0  0  0
    3.1640   -5.9910   23.3680 C   0  0  0  0  0  0  0  0  0  0  0  0
    2.6970   -5.1860   24.5980 C   0  0  0  0  0  0  0  0  0  0  0  0
    4.0150   -4.5780   28.3390 N   0  0  0  0  0  0  0  0  0  0  0  0
    3.4970   -5.2820   29.5270 C   0  0  2  0  0  0  0  0  0  0  0  0
    3.1860   -4.3580   30.6500 C   0  0  0  0  0  0  0  0  0  0  0  0
    2.8170   -4.9260   31.8160 C   0  0  0  0  0  0  0  0  0  0  0  0
    3.3090   -6.1980   32.1520 C   0  0  1  0  0  0  0  0  0  0  0  0
    2.3270   -6.8460   32.9580 O   0  0  0  0  0  0  0  0  0  0  0  0
    3.7210   -7.0870   31.1420 C   0  0  0  0  0  0  0  0  0  0  0  0
    4.3000   -6.4980   30.0140 C   0  0  0  0  0  0  0  0  0  0  0  0
    5.5260   -4.2670   28.2880 C   0  0  0  0  0  0  0  0  0  0  0  0
    5.9340   -3.6910   29.4430 C   0  0  0  0  0  0  0  0  0  0  0  0
    6.3020   -2.3310   29.4250 C   0  0  0  0  0  0  0  0  0  0  0  0
    5.5980   -1.3490   30.1460 C   0  0  0  0  0  0  0  0  0  0  0  0
    4.0900   -1.4210   30.1580 C   0  0  0  0  0  0  0  0  0  0  0  0
    3.3890   -0.4490   30.8740 C   0  0  0  0  0  0  0  0  0  0  0  0
    4.1010    0.5430   31.5440 C   0  0  0  0  0  0  0  0  0  0  0  0
    5.5000    0.5420   31.4860 C   0  0  0  0  0  0  0  0  0  0  0  0
    6.2480   -0.3660   30.8120 N   0  0  0  0  0  0  0  0  0  0  0  0
    6.2980   -5.5790   28.1610 C   0  0  0  0  0  0  0  0  0  0  0  0
    6.2790   -6.0020   26.8540 C   0  0  0  0  0  0  0  0  0  0  0  0
    6.0570   -5.1160   25.7120 C   0  0  0  0  0  0  0  0  0  0  0  0
    6.1660   -3.7230   25.9510 C   0  0  0  0  0  0  0  0  0  0  0  0
    5.9880   -3.2160   27.2280 C   0  0  0  0  0  0  0  0  0  0  0  0
  1  2  2  0
  2  3  1  0
  3  4  1  0
  4  5  1  0
  5  6  1  0
  6  7  1  0
  7  8  1  0
  4  9  1  0
  8  9  1  0
  2 10  1  0
 11 10  1  6
 11 12  1  0
 12 13  1  0
 13 14  1  0
 14 15  1  6
 14 16  1  0
 11 17  1  0
 16 17  1  0
 10 18  1  0
 18 19  1  0
 19 20  3  0
 20 21  1  0
 21 22  2  0
 22 23  1  0
 23 24  2  0
 24 25  1  0
 21 26  1  0
 25 26  2  0
 18 27  1  0
 27 28  1  0
 28 29  1  0
 29 30  1  0
 18 31  1  0
 30 31  1  0
M  END
