WAR-XCH-b6889685-29
     RDKit          3D

 23 25  0  0  0  0  0  0  0  0999 V2000
    1.3000   -2.7300   27.9250 N   0  0  0  0  0  0  0  0  0  0  0  0
    1.5780   -2.2980   26.3180 S   0  0  0  0  0  0  0  0  0  0  0  0
    1.6760   -0.8570   26.2590 O   0  0  0  0  0  0  0  0  0  0  0  0
    0.6130   -3.0420   25.5440 O   0  0  0  0  0  0  0  0  0  0  0  0
    3.1850   -2.9840   26.0310 C   0  0  0  0  0  0  0  0  0  0  0  0
    4.2710   -2.8290   27.0440 C   0  0  0  0  0  0  0  0  0  0  0  0
    5.5270   -3.3770   26.8020 C   0  0  0  0  0  0  0  0  0  0  0  0
    5.7880   -4.0740   25.6200 C   0  0  0  0  0  0  0  0  0  0  0  0
    7.0510   -4.6140   25.3920 N   0  0  0  0  0  0  0  0  0  0  0  0
    8.2050   -4.0150   26.0570 C   0  0  0  0  0  0  0  0  0  0  0  0
    8.4750   -2.8410   25.3240 C   0  0  0  0  0  0  0  0  0  0  0  0
    8.9030   -3.1340   23.8860 C   0  0  0  0  0  0  0  0  0  0  0  0
    9.0680   -1.8730   23.1040 N   0  0  0  0  0  0  0  0  0  0  0  0
   10.4370   -1.3250   22.8780 C   0  0  0  0  0  0  0  0  0  0  0  0
   10.5610    0.1660   23.1890 C   0  0  0  0  0  0  0  0  0  0  0  0
   11.9510    0.8070   22.9900 C   0  0  0  0  0  0  0  0  0  0  0  0
   13.0560   -0.1210   22.5040 C   0  0  0  0  0  0  0  0  0  0  0  0
   12.8290   -1.4740   22.2400 C   0  0  0  0  0  0  0  0  0  0  0  0
   11.5500   -2.0200   22.4310 C   0  0  0  0  0  0  0  0  0  0  0  0
    7.8340   -4.0140   23.2000 C   0  0  0  0  0  0  0  0  0  0  0  0
    7.3680   -5.0630   24.0200 C   0  0  0  0  0  0  0  0  0  0  0  0
    4.7410   -4.2070   24.6740 C   0  0  0  0  0  0  0  0  0  0  0  0
    3.4600   -3.6780   24.8640 C   0  0  0  0  0  0  0  0  0  0  0  0
  2  1  1  0
  2  3  2  0
  2  4  2  0
  2  5  1  0
  5  6  2  0
  6  7  1  0
  7  8  2  0
  8  9  1  0
  9 10  1  0
 10 11  1  0
 11 12  1  0
 12 13  1  0
 13 14  1  0
 14 15  2  0
 15 16  1  0
 16 17  2  0
 17 18  1  0
 14 19  1  0
 18 19  2  0
 12 20  1  0
  9 21  1  0
 20 21  1  0
  8 22  1  0
  5 23  1  0
 22 23  2  0
M  END
