WAR-XCH-b72a1bbc-48
     RDKit          3D

 22 23  0  0  0  0  0  0  0  0999 V2000
    9.4880    6.9380   22.8840 C   0  0  0  0  0  0  0  0  0  0  0  0
    9.7430    6.9200   24.2650 C   0  0  0  0  0  0  0  0  0  0  0  0
    8.9490    6.0850   25.0720 C   0  0  0  0  0  0  0  0  0  0  0  0
   11.1990    6.7520   24.5170 N   0  0  0  0  0  0  0  0  0  0  0  0
   11.9130    7.9570   24.9230 C   0  0  0  0  0  0  0  0  0  0  0  0
   11.8410    5.8100   23.7240 C   0  0  0  0  0  0  0  0  0  0  0  0
   11.0630    4.9870   22.7310 C   0  0  0  0  0  0  0  0  0  0  0  0
   12.0220    4.1070   21.9940 C   0  0  0  0  0  0  0  0  0  0  0  0
   11.9350    2.9180   22.8660 C   0  0  0  0  0  0  0  0  0  0  0  0
   10.7630    2.1700   22.5500 N   0  0  0  0  0  0  0  0  0  0  0  0
   11.0310    0.9350   22.9530 C   0  0  0  0  0  0  0  0  0  0  0  0
   12.5170    0.8220   23.2020 C   0  0  0  0  0  0  0  0  0  0  0  0
   13.0060   -0.4710   23.6890 C   0  0  0  0  0  0  0  0  0  0  0  0
   11.9510   -1.4530   23.8590 C   0  0  0  0  0  0  0  0  0  0  0  0
   12.6240   -2.8800   24.4710 S   0  0  0  0  0  0  0  0  0  0  0  0
   13.6740   -3.1040   23.1840 N   0  0  0  0  0  0  0  0  0  0  0  0
   13.4640   -2.5650   25.5970 O   0  0  0  0  0  0  0  0  0  0  0  0
   11.5270   -3.7980   24.5180 O   0  0  0  0  0  0  0  0  0  0  0  0
   10.6020   -1.3940   23.6220 C   0  0  0  0  0  0  0  0  0  0  0  0
   10.1450   -0.1380   23.1490 C   0  0  0  0  0  0  0  0  0  0  0  0
    9.5470    2.9260   22.8400 C   0  0  0  0  0  0  0  0  0  0  0  0
    9.8250    4.2250   23.3460 C   0  0  0  0  0  0  0  0  0  0  0  0
  1  2  1  0
  2  3  1  0
  2  4  1  0
  4  5  1  0
  4  6  1  0
  6  7  1  0
  7  8  1  0
  8  9  1  0
  9 10  1  0
 10 11  1  0
 11 12  2  0
 12 13  1  0
 13 14  2  0
 14 15  1  0
 15 16  1  0
 15 17  2  0
 15 18  2  0
 14 19  1  0
 11 20  1  0
 19 20  2  0
 10 21  1  0
  7 22  1  0
 21 22  1  0
M  END
