WAR-XCH-b72a1bbc-16
     RDKit          3D

 21 23  0  0  0  0  0  0  0  0999 V2000
    9.9960    6.8700   22.3750 N   0  0  0  0  0  0  0  0  0  0  0  0
   11.3220    6.6110   23.3960 S   0  0  0  0  0  0  0  0  0  0  0  0
   12.3740    7.5180   23.1160 O   0  0  0  0  0  0  0  0  0  0  0  0
   10.7700    6.4650   24.7270 O   0  0  0  0  0  0  0  0  0  0  0  0
   11.8470    5.0310   22.8940 C   0  0  0  0  0  0  0  0  0  0  0  0
   10.7850    4.2050   22.4470 C   0  0  0  0  0  0  0  0  0  0  0  0
   11.0920    2.9470   22.1330 C   0  0  0  0  0  0  0  0  0  0  0  0
   12.4250    2.2520   22.2090 C   0  0  0  0  0  0  0  0  0  0  0  0
   12.5770    0.5250   22.0250 N   0  0  0  0  0  0  0  0  0  0  0  0
   13.5150   -0.3520   22.7920 C   0  0  0  0  0  0  0  0  0  0  0  0
   13.0700   -1.3360   23.7880 C   0  0  0  0  0  0  0  0  0  0  0  0
   12.0240   -2.2500   23.4900 C   0  0  0  0  0  0  0  0  0  0  0  0
   11.3230   -3.1420   24.5330 C   0  0  0  0  0  0  0  0  0  0  0  0
    9.8530   -3.3730   24.1920 C   0  0  0  0  0  0  0  0  0  0  0  0
    9.2030   -4.2500   25.2190 C   0  0  0  0  0  0  0  0  0  0  0  0
   10.3530   -4.6730   26.4050 S   0  0  0  0  0  0  0  0  0  0  0  0
   11.6760   -3.7930   25.6950 C   0  0  0  0  0  0  0  0  0  0  0  0
   10.8630   -1.5100   22.9370 C   0  0  0  0  0  0  0  0  0  0  0  0
   11.2870   -0.5080   21.9150 C   0  0  0  0  0  0  0  0  0  0  0  0
   13.3880    3.1840   22.5630 C   0  0  0  0  0  0  0  0  0  0  0  0
   13.1350    4.5320   22.9050 C   0  0  0  0  0  0  0  0  0  0  0  0
  2  1  1  0
  2  3  2  0
  2  4  2  0
  2  5  1  0
  5  6  2  0
  6  7  1  0
  7  8  2  0
  8  9  1  0
  9 10  1  0
 10 11  1  0
 11 12  1  0
 12 13  1  0
 13 14  1  0
 14 15  2  0
 15 16  1  0
 13 17  2  0
 16 17  1  0
 12 18  1  0
  9 19  1  0
 18 19  1  0
  8 20  1  0
  5 21  1  0
 20 21  2  0
M  END
