WAR-XCH-b72a1bbc-24
     RDKit          3D

 30 33  0  0  0  0  0  0  0  0999 V2000
   13.6550   -2.8120   24.3970 C   0  0  0  0  0  0  0  0  0  0  0  0
   12.3530   -2.5550   24.0190 C   0  0  0  0  0  0  0  0  0  0  0  0
   11.5390   -1.9930   24.9270 C   0  0  0  0  0  0  0  0  0  0  0  0
   10.1890   -1.6480   24.7690 C   0  0  0  0  0  0  0  0  0  0  0  0
    9.6080   -1.9580   23.4370 C   0  0  0  0  0  0  0  0  0  0  0  0
    8.2050   -1.6160   23.0900 C   0  0  2  0  0  0  0  0  0  0  0  0
    7.0040   -2.4630   22.8150 C   0  0  0  0  0  0  0  0  0  0  0  0
    6.5980   -1.7930   21.4640 C   0  0  0  0  0  0  0  0  0  0  0  0
    7.5550   -0.9500   20.7720 C   0  0  0  0  0  0  0  0  0  0  0  0
    8.6800   -0.3820   21.5980 N   0  0  0  0  0  0  0  0  0  0  0  0
    9.7420   -1.4740   21.9040 C   0  0  0  0  0  0  0  0  0  0  0  0
   11.2260   -0.9800   22.1770 C   0  0  0  0  0  0  0  0  0  0  0  0
   12.4240   -1.5350   21.5040 C   0  0  0  0  0  0  0  0  0  0  0  0
   13.4910   -0.6510   21.4740 C   0  0  0  0  0  0  0  0  0  0  0  0
   13.1490    0.6290   22.2550 N   0  0  0  0  0  0  0  0  0  0  0  0
   12.7570    2.4280   22.2910 C   0  0  0  0  0  0  0  0  0  0  0  0
   11.4360    3.0950   22.0730 C   0  0  0  0  0  0  0  0  0  0  0  0
   11.0470    4.3300   22.3280 C   0  0  0  0  0  0  0  0  0  0  0  0
   11.9890    5.2580   22.8440 C   0  0  0  0  0  0  0  0  0  0  0  0
   11.3510    6.7830   23.3300 S   0  0  0  0  0  0  0  0  0  0  0  0
   10.0380    6.9810   22.2880 N   0  0  0  0  0  0  0  0  0  0  0  0
   12.3990    7.7220   23.1520 O   0  0  0  0  0  0  0  0  0  0  0  0
   10.7350    6.5810   24.6300 O   0  0  0  0  0  0  0  0  0  0  0  0
   13.2630    4.8600   22.9200 C   0  0  0  0  0  0  0  0  0  0  0  0
   13.6130    3.4290   22.6180 C   0  0  0  0  0  0  0  0  0  0  0  0
   13.2070   -0.3950   23.4150 C   0  0  0  0  0  0  0  0  0  0  0  0
   11.9890   -1.1940   23.4850 C   0  0  0  0  0  0  0  0  0  0  0  0
    8.0450   -0.1630   22.8750 C   0  0  0  0  0  0  0  0  0  0  0  0
   10.4140   -2.5350   22.4650 C   0  0  0  0  0  0  0  0  0  0  0  0
   11.8610   -2.8300   22.7850 C   0  0  0  0  0  0  0  0  0  0  0  0
  1  2  1  0
  2  3  2  0
  3  4  1  0
  4  5  2  0
  6  5  1  6
  6  7  1  0
  7  8  1  0
  8  9  1  0
  9 10  1  0
 10 11  1  0
 11 12  1  0
 12 13  1  0
 13 14  1  0
 14 15  1  0
 15 16  1  0
 16 17  2  0
 17 18  1  0
 18 19  2  0
 19 20  1  0
 20 21  1  0
 20 22  2  0
 20 23  2  0
 19 24  1  0
 16 25  1  0
 24 25  2  0
 15 26  1  0
 12 27  1  0
 26 27  1  0
  6 28  1  0
 10 28  1  0
  5 29  1  0
  2 30  1  0
 29 30  2  0
M  END
