WAR-XCH-bdd24732-11
     RDKit          3D

 26 29  0  0  0  0  0  0  0  0999 V2000
   11.1620  -12.0920   32.2540 C   0  0  0  0  0  0  0  0  0  0  0  0
   10.8070  -11.9890   30.7450 C   0  0  0  0  0  0  0  0  0  0  0  0
   10.7030  -13.0470   30.4630 C   0  0  0  0  0  0  0  0  0  0  0  0
   10.4650  -13.4500   29.2680 C   0  0  0  0  0  0  0  0  0  0  0  0
   10.4380  -14.7690   29.3560 F   0  0  0  0  0  0  0  0  0  0  0  0
   10.2930  -12.3330   28.1590 C   0  0  0  0  0  0  0  0  0  0  0  0
   10.3020  -10.7580   28.1300 C   0  0  0  0  0  0  0  0  0  0  0  0
    9.8850   -8.9230   26.3370 C   0  0  0  0  0  0  0  0  0  0  0  0
    9.6680   -7.3210   25.7470 C   0  0  0  0  0  0  0  0  0  0  0  0
    9.0470   -6.3440   24.3870 C   0  0  0  0  0  0  0  0  0  0  0  0
    8.8750   -4.7460   23.8290 C   0  0  0  0  0  0  0  0  0  0  0  0
    7.5400   -4.1920   23.4550 C   0  0  0  0  0  0  0  0  0  0  0  0
    7.7420   -2.6830   22.9420 C   0  0  0  0  0  0  0  0  0  0  0  0
    8.9570   -2.5550   22.9560 N   0  0  0  0  0  0  0  0  0  0  0  0
    8.1170   -3.7950   23.2900 C   0  0  0  0  0  0  0  0  0  0  0  0
    8.2470   -5.1300   23.6940 C   0  0  0  0  0  0  0  0  0  0  0  0
    8.7420   -6.3690   24.0900 C   0  0  0  0  0  0  0  0  0  0  0  0
    9.5380   -4.4800   23.6110 C   0  0  0  0  0  0  0  0  0  0  0  0
    8.4720   -3.7160   23.3020 C   0  0  0  0  0  0  0  0  0  0  0  0
    8.1080   -2.5060   22.9150 N   0  0  0  0  0  0  0  0  0  0  0  0
    6.8980   -3.0630   23.0040 C   0  0  0  0  0  0  0  0  0  0  0  0
    6.7310   -1.8320   22.6180 N   0  0  0  0  0  0  0  0  0  0  0  0
    8.4920   -6.8840   23.4320 C   0  0  0  0  0  0  0  0  0  0  0  0
    8.6720   -8.0510   23.8730 C   0  0  0  0  0  0  0  0  0  0  0  0
    9.2900   -8.4970   25.1280 N   0  0  0  0  0  0  0  0  0  0  0  0
   10.6080  -10.9390   29.7100 C   0  0  0  0  0  0  0  0  0  0  0  0
  1  2  1  0
  2  3  2  0
  3  4  1  0
  4  5  1  0
  4  6  2  0
  6  7  1  0
  7  8  1  0
  8  9  2  0
  9 10  1  0
 10 11  1  0
 11 12  1  0
 12 13  1  0
 13 14  2  0
 14 15  1  0
 15 16  2  0
 16 17  1  0
 16 18  1  0
 18 19  2  0
 19 20  1  0
 15 21  1  0
 20 21  2  0
 13 22  1  0
 21 22  1  0
 10 23  2  0
 23 24  1  0
  8 25  1  0
 24 25  2  0
  2 26  1  0
  7 26  2  0
M  END
