WAR-XCH-b6889685-30
     RDKit          3D

 24 26  0  0  0  0  0  0  0  0999 V2000
   13.2630   -2.8850   21.6830 C   0  0  0  0  0  0  0  0  0  0  0  0
   13.3020   -2.3000   23.0640 C   0  0  0  0  0  0  0  0  0  0  0  0
   13.6970   -2.9120   24.2380 C   0  0  0  0  0  0  0  0  0  0  0  0
   13.6480   -2.2750   25.4420 C   0  0  0  0  0  0  0  0  0  0  0  0
   13.1970   -0.9840   25.4740 C   0  0  0  0  0  0  0  0  0  0  0  0
   12.8260   -0.3670   24.3390 C   0  0  0  0  0  0  0  0  0  0  0  0
   12.8890   -1.0560   23.1570 C   0  0  0  0  0  0  0  0  0  0  0  0
   12.4930   -0.5530   22.0480 N   0  0  0  0  0  0  0  0  0  0  0  0
   11.2030   -0.6560   22.5510 C   0  0  0  0  0  0  0  0  0  0  0  0
   11.4270   -1.7430   23.6300 C   0  0  0  0  0  0  0  0  0  0  0  0
   11.0340   -0.8450   24.7250 C   0  0  0  0  0  0  0  0  0  0  0  0
   10.1160   -0.0490   23.9200 N   0  0  0  0  0  0  0  0  0  0  0  0
   10.4110    1.2950   23.7360 C   0  0  0  0  0  0  0  0  0  0  0  0
    9.2700    2.2090   24.1320 C   0  0  0  0  0  0  0  0  0  0  0  0
    9.5190    3.6710   23.9690 C   0  0  0  0  0  0  0  0  0  0  0  0
   10.6930    4.2050   23.4960 C   0  0  0  0  0  0  0  0  0  0  0  0
   10.7880    5.9590   23.4020 S   0  0  0  0  0  0  0  0  0  0  0  0
    9.3970    6.2940   22.5180 N   0  0  0  0  0  0  0  0  0  0  0  0
   11.9300    6.3250   22.6160 O   0  0  0  0  0  0  0  0  0  0  0  0
   10.5300    6.4780   24.7250 O   0  0  0  0  0  0  0  0  0  0  0  0
   11.7250    3.3180   23.1330 C   0  0  0  0  0  0  0  0  0  0  0  0
   11.5970    1.9270   23.2460 C   0  0  0  0  0  0  0  0  0  0  0  0
    9.1620   -0.7300   22.9530 C   0  0  0  0  0  0  0  0  0  0  0  0
    9.9490   -1.0490   21.8610 C   0  0  0  0  0  0  0  0  0  0  0  0
  1  2  1  0
  2  3  2  0
  3  4  1  0
  4  5  2  0
  5  6  1  0
  2  7  1  0
  6  7  2  0
  7  8  1  0
  8  9  1  0
  9 10  1  0
 10 11  1  0
 11 12  1  0
 12 13  1  0
 13 14  2  0
 14 15  1  0
 15 16  2  0
 16 17  1  0
 17 18  1  0
 17 19  2  0
 17 20  2  0
 16 21  1  0
 13 22  1  0
 21 22  2  0
 12 23  1  0
  9 24  1  0
 23 24  1  0
M  END
