WAR-XCH-72a8c209-2
     RDKit          3D

 25 27  0  0  0  0  0  0  0  0999 V2000
    6.2190   -2.9480   25.1790 C   0  0  0  0  0  0  0  0  0  0  0  0
    6.5810   -3.8590   24.0300 C   0  0  0  0  0  0  0  0  0  0  0  0
    5.9080   -5.1770   23.7250 C   0  0  0  0  0  0  0  0  0  0  0  0
    4.8540   -5.6430   24.5300 N   0  0  0  0  0  0  0  0  0  0  0  0
    6.3260   -6.0440   22.5700 C   0  0  0  0  0  0  0  0  0  0  0  0
    7.3450   -5.6530   21.7620 N   0  0  0  0  0  0  0  0  0  0  0  0
    7.2130   -4.7580   22.6060 C   0  0  0  0  0  0  0  0  0  0  0  0
    7.5760   -3.6290   23.0900 C   0  0  0  0  0  0  0  0  0  0  0  0
    8.5310   -2.6060   22.8370 N   0  0  0  0  0  0  0  0  0  0  0  0
    8.3470   -1.4330   22.1180 C   0  0  0  0  0  0  0  0  0  0  0  0
    9.2270   -0.6700   21.7370 O   0  0  0  0  0  0  0  0  0  0  0  0
    6.8810   -1.1370   21.8170 C   0  0  0  0  0  0  0  0  0  0  0  0
    6.5530    0.2860   21.2490 C   0  0  0  0  0  0  0  0  0  0  0  0
    7.3440    1.2920   22.1390 C   0  0  0  0  0  0  0  0  0  0  0  0
    8.6620    1.6820   21.8510 C   0  0  0  0  0  0  0  0  0  0  0  0
    9.3660    2.5880   22.6540 C   0  0  0  0  0  0  0  0  0  0  0  0
    8.7620    3.1300   23.7820 C   0  0  0  0  0  0  0  0  0  0  0  0
    7.4580    2.7660   24.1000 C   0  0  0  0  0  0  0  0  0  0  0  0
    6.6970    3.4290   25.4970 Cl  0  0  0  0  0  0  0  0  0  0  0  0
    6.7560    1.8610   23.2930 C   0  0  0  0  0  0  0  0  0  0  0  0
    5.0240    0.5520   21.3380 C   0  0  0  0  0  0  0  0  0  0  0  0
    4.5690    1.7320   20.4740 C   0  0  0  0  0  0  0  0  0  0  0  0
    4.6780    1.3760   19.0000 C   0  0  0  0  0  0  0  0  0  0  0  0
    5.6850    0.2580   18.7770 C   0  0  0  0  0  0  0  0  0  0  0  0
    6.8940    0.3700   19.7230 C   0  0  0  0  0  0  0  0  0  0  0  0
  1  2  1  0
  2  3  2  0
  3  4  1  0
  3  5  1  0
  5  6  2  0
  6  7  1  0
  2  8  1  0
  7  8  2  0
  8  9  1  0
  9 10  1  0
 10 11  2  0
 10 12  1  0
 13 12  1  0
 13 14  1  0
 14 15  2  0
 15 16  1  0
 16 17  2  0
 17 18  1  0
 18 19  1  0
 14 20  1  0
 18 20  2  0
 13 21  1  0
 21 22  1  0
 22 23  1  0
 23 24  1  0
 13 25  1  0
 24 25  1  0
M  END
