WAR-XCH-b72a1bbc-42
     RDKit          3D

 23 25  0  0  0  0  0  0  0  0999 V2000
    9.5170    6.1930   22.6920 N   0  0  0  0  0  0  0  0  0  0  0  0
   10.9160    5.9300   23.5830 S   0  0  0  0  0  0  0  0  0  0  0  0
   11.9520    6.6800   22.9410 O   0  0  0  0  0  0  0  0  0  0  0  0
   10.5390    6.1240   24.9670 O   0  0  0  0  0  0  0  0  0  0  0  0
   11.1600    4.2140   23.2870 C   0  0  0  0  0  0  0  0  0  0  0  0
   12.4000    3.6040   23.1510 C   0  0  0  0  0  0  0  0  0  0  0  0
   12.4770    2.2190   22.9260 C   0  0  0  0  0  0  0  0  0  0  0  0
   11.3270    1.4720   22.8280 C   0  0  0  0  0  0  0  0  0  0  0  0
   11.2720    0.1280   22.5970 N   0  0  0  0  0  0  0  0  0  0  0  0
   12.3120   -0.8710   22.8580 C   0  0  0  0  0  0  0  0  0  0  0  0
   11.7570   -2.2970   22.5670 C   0  0  0  0  0  0  0  0  0  0  0  0
   10.2920   -2.3910   21.9420 C   0  0  0  0  0  0  0  0  0  0  0  0
    9.1670   -3.0110   22.7850 C   0  0  0  0  0  0  0  0  0  0  0  0
    9.0800   -1.9770   24.2220 S   0  0  0  0  0  0  0  0  0  0  0  0
   10.8260   -1.9040   24.3520 C   0  0  0  0  0  0  0  0  0  0  0  0
   11.7750   -3.0670   24.5690 C   0  0  0  0  0  0  0  0  0  0  0  0
   13.1680   -2.4970   24.6040 C   0  0  0  0  0  0  0  0  0  0  0  0
   12.9270   -1.0380   24.3920 C   0  0  0  0  0  0  0  0  0  0  0  0
   11.5800   -0.7680   24.2620 O   0  0  0  0  0  0  0  0  0  0  0  0
    9.6730   -1.0580   21.6380 C   0  0  0  0  0  0  0  0  0  0  0  0
    9.8850   -0.2700   22.7540 C   0  0  0  0  0  0  0  0  0  0  0  0
   10.1230    2.1370   22.9650 C   0  0  0  0  0  0  0  0  0  0  0  0
   10.0350    3.4750   23.1920 C   0  0  0  0  0  0  0  0  0  0  0  0
  2  1  1  0
  2  3  2  0
  2  4  2  0
  2  5  1  0
  5  6  2  0
  6  7  1  0
  7  8  2  0
  8  9  1  0
  9 10  1  0
 10 11  1  0
 11 12  1  0
 12 13  1  0
 13 14  1  0
 14 15  1  0
 15 16  2  0
 16 17  1  0
 17 18  2  0
 15 19  1  0
 18 19  1  0
 12 20  1  0
  9 21  1  0
 20 21  1  0
  8 22  1  0
  5 23  1  0
 22 23  2  0
M  END
