WAR-XCH-bdd24732-44
     RDKit          3D

 30 33  0  0  0  0  0  0  0  0999 V2000
    5.8260   -5.5680   29.6720 O   0  0  0  0  0  0  0  0  0  0  0  0
    5.1620   -5.3240   28.6730 C   0  0  0  0  0  0  0  0  0  0  0  0
    5.7410   -4.6800   27.4760 C   0  0  0  0  0  0  0  0  0  0  0  0
    5.8860   -5.3490   26.3260 C   0  0  0  0  0  0  0  0  0  0  0  0
    6.4360   -4.6940   25.0830 C   0  0  0  0  0  0  0  0  0  0  0  0
    6.8830   -3.2350   25.0620 C   0  0  0  0  0  0  0  0  0  0  0  0
    6.7150   -2.4960   26.3930 C   0  0  0  0  0  0  0  0  0  0  0  0
    6.1190   -3.3280   27.5740 C   0  0  0  0  0  0  0  0  0  0  0  0
    3.7170   -5.6080   28.4210 N   0  0  0  0  0  0  0  0  0  0  0  0
    3.2570   -6.0530   27.0440 C   0  0  1  0  0  0  0  0  0  0  0  0
    3.1250   -4.9500   26.1770 C   0  0  0  0  0  0  0  0  0  0  0  0
    2.6760   -5.2650   24.7280 C   0  0  0  0  0  0  0  0  0  0  0  0
    3.4190   -6.4700   24.2050 C   0  0  2  0  0  0  0  0  0  0  0  0
    2.8120   -7.1030   23.3320 O   0  0  0  0  0  0  0  0  0  0  0  0
    3.6780   -7.4470   25.1770 C   0  0  0  0  0  0  0  0  0  0  0  0
    3.9340   -7.1460   26.5330 C   0  0  0  0  0  0  0  0  0  0  0  0
    2.6270   -5.0190   29.3110 C   0  0  0  0  0  0  0  0  0  0  0  0
    2.2370   -3.8030   28.7600 C   0  0  0  0  0  0  0  0  0  0  0  0
    1.0280   -3.6230   28.0920 C   0  0  0  0  0  0  0  0  0  0  0  0
    0.8820   -2.1780   27.6320 C   0  0  0  0  0  0  0  0  0  0  0  0
    2.1350   -1.5710   26.9860 C   0  0  0  0  0  0  0  0  0  0  0  0
    1.9810   -0.1180   26.5260 C   0  0  0  0  0  0  0  0  0  0  0  0
    0.6430    0.6100   26.7280 C   0  0  0  0  0  0  0  0  0  0  0  0
   -0.4460   -0.2530   27.4050 C   0  0  0  0  0  0  0  0  0  0  0  0
   -0.3100   -1.5470   27.8160 N   0  0  0  0  0  0  0  0  0  0  0  0
    3.0870   -4.6730   30.7580 C   0  0  0  0  0  0  0  0  0  0  0  0
    2.0220   -4.5370   31.6700 C   0  0  0  0  0  0  0  0  0  0  0  0
    1.2120   -5.6520   31.8260 C   0  0  0  0  0  0  0  0  0  0  0  0
    1.1440   -6.5880   30.6140 C   0  0  0  0  0  0  0  0  0  0  0  0
    1.4210   -6.0250   29.3580 C   0  0  0  0  0  0  0  0  0  0  0  0
  1  2  2  0
  2  3  1  0
  3  4  2  0
  4  5  1  0
  5  6  2  0
  6  7  1  0
  3  8  1  0
  7  8  2  0
  2  9  1  0
 10  9  1  1
 10 11  1  0
 11 12  1  0
 12 13  1  0
 13 14  1  6
 13 15  1  0
 10 16  1  0
 15 16  1  0
  9 17  1  0
 17 18  1  0
 18 19  3  0
 19 20  1  0
 20 21  2  0
 21 22  1  0
 22 23  2  0
 23 24  1  0
 20 25  1  0
 24 25  2  0
 17 26  1  0
 26 27  1  0
 27 28  1  0
 28 29  1  0
 17 30  1  0
 29 30  1  0
M  END
