WAR-XCH-b72a1bbc-41
     RDKit          3D

 24 26  0  0  0  0  0  0  0  0999 V2000
    8.9840    5.5910   22.6830 N   0  0  0  0  0  0  0  0  0  0  0  0
   10.3870    5.6180   23.5980 S   0  0  0  0  0  0  0  0  0  0  0  0
   11.3420    6.4080   22.8620 O   0  0  0  0  0  0  0  0  0  0  0  0
    9.9680    5.9690   24.9370 O   0  0  0  0  0  0  0  0  0  0  0  0
   10.8950    3.9260   23.5680 C   0  0  0  0  0  0  0  0  0  0  0  0
   10.0520    2.9510   24.1030 C   0  0  0  0  0  0  0  0  0  0  0  0
   10.4510    1.6200   24.1000 C   0  0  0  0  0  0  0  0  0  0  0  0
   11.6830    1.2540   23.5720 C   0  0  0  0  0  0  0  0  0  0  0  0
   12.0760   -0.0690   23.5880 N   0  0  0  0  0  0  0  0  0  0  0  0
   12.2840   -0.7250   24.8800 C   0  0  0  0  0  0  0  0  0  0  0  0
   12.9340   -2.0510   24.6060 C   0  0  0  0  0  0  0  0  0  0  0  0
   12.2760   -2.6100   23.3620 C   0  0  0  0  0  0  0  0  0  0  0  0
   10.7950   -3.0610   23.5080 C   0  0  0  0  0  0  0  0  0  0  0  0
    9.5640   -2.0120   24.0680 S   0  0  0  0  0  0  0  0  0  0  0  0
    8.1890   -3.0070   23.4800 C   0  0  0  0  0  0  0  0  0  0  0  0
    7.0910   -2.3310   22.6360 C   0  0  0  0  0  0  0  0  0  0  0  0
    5.9390   -3.2250   22.1440 C   0  0  0  0  0  0  0  0  0  0  0  0
    5.9890   -4.6990   22.5330 C   0  0  0  0  0  0  0  0  0  0  0  0
    7.1720   -5.1090   23.3670 C   0  0  0  0  0  0  0  0  0  0  0  0
    8.1830   -4.3290   23.8050 N   0  0  0  0  0  0  0  0  0  0  0  0
   12.4830   -1.7340   22.1260 C   0  0  0  0  0  0  0  0  0  0  0  0
   13.0080   -0.5180   22.5830 C   0  0  0  0  0  0  0  0  0  0  0  0
   12.5070    2.2460   23.0340 C   0  0  0  0  0  0  0  0  0  0  0  0
   12.1280    3.5790   23.0220 C   0  0  0  0  0  0  0  0  0  0  0  0
  2  1  1  0
  2  3  2  0
  2  4  2  0
  2  5  1  0
  5  6  2  0
  6  7  1  0
  7  8  2  0
  8  9  1  0
  9 10  1  0
 10 11  1  0
 11 12  1  0
 12 13  1  0
 13 14  1  0
 14 15  1  0
 15 16  2  0
 16 17  1  0
 17 18  2  0
 18 19  1  0
 15 20  1  0
 19 20  2  0
 12 21  1  0
  9 22  1  0
 21 22  1  0
  8 23  1  0
  5 24  1  0
 23 24  2  0
M  END
