WAR-XCH-b0339bbe-1
     RDKit          3D

 23 26  0  0  0  0  0  0  0  0999 V2000
    3.2000   -4.2380   24.2740 C   0  0  0  0  0  0  0  0  0  0  0  0
    4.5930   -4.4060   23.7280 C   0  0  0  0  0  0  0  0  0  0  0  0
    5.8240   -3.5060   23.7450 C   0  0  0  0  0  0  0  0  0  0  0  0
    7.1790   -3.9500   23.0800 C   0  0  0  0  0  0  0  0  0  0  0  0
    7.4300   -5.2610   22.3710 N   0  0  0  0  0  0  0  0  0  0  0  0
    6.2760   -5.7900   22.4930 C   0  0  0  0  0  0  0  0  0  0  0  0
    7.0580   -4.6570   22.7970 N   0  0  0  0  0  0  0  0  0  0  0  0
    6.7660   -3.5490   23.4450 C   0  0  0  0  0  0  0  0  0  0  0  0
    8.1470   -3.4010   23.0640 C   0  0  0  0  0  0  0  0  0  0  0  0
    8.7580   -2.0240   23.3500 C   0  0  0  0  0  0  0  0  0  0  0  0
    7.6880   -1.2590   24.1600 C   0  0  0  0  0  0  0  0  0  0  0  0
    7.0600   -1.7610   25.3510 C   0  0  0  0  0  0  0  0  0  0  0  0
    6.1300   -1.4850   26.3430 C   0  0  0  0  0  0  0  0  0  0  0  0
    5.6480   -0.2170   25.9990 C   0  0  0  0  0  0  0  0  0  0  0  0
    6.0340    0.5910   24.8870 N   0  0  0  0  0  0  0  0  0  0  0  0
    7.0980    0.0170   23.9480 C   0  0  0  0  0  0  0  0  0  0  0  0
    8.9660   -1.1050   22.0930 C   0  0  0  0  0  0  0  0  0  0  0  0
    9.8520    0.0890   22.4320 C   0  0  0  0  0  0  0  0  0  0  0  0
   11.2060   -0.5030   22.7840 C   0  0  0  0  0  0  0  0  0  0  0  0
   10.9380   -1.9960   22.8650 C   0  0  0  0  0  0  0  0  0  0  0  0
   10.1590   -2.2820   24.0170 C   0  0  0  0  0  0  0  0  0  0  0  0
    5.6840   -4.1480   23.5040 N   0  0  0  0  0  0  0  0  0  0  0  0
    5.1040   -5.4090   23.0690 C   0  0  0  0  0  0  0  0  0  0  0  0
  1  2  1  0
  2  3  2  0
  3  4  1  0
  4  5  2  0
  5  6  1  0
  6  7  1  0
  7  8  1  0
  8  9  1  0
 10  9  1  0
 10 11  1  0
 11 12  2  0
 12 13  1  0
 13 14  2  0
 14 15  1  0
 11 16  1  0
 15 16  2  0
 10 17  1  0
 17 18  1  0
 18 19  1  0
 19 20  1  0
 10 21  1  0
 20 21  1  0
  8 22  2  0
  2 23  1  0
  6 23  2  0
 22 23  1  0
M  END
