WAR-XCH-b72a1bbc-19
     RDKit          3D

 23 25  0  0  0  0  0  0  0  0999 V2000
    8.8510    5.1680   22.5750 N   0  0  0  0  0  0  0  0  0  0  0  0
   10.2970    5.1910   23.4340 S   0  0  0  0  0  0  0  0  0  0  0  0
   11.1790    6.0920   22.7250 O   0  0  0  0  0  0  0  0  0  0  0  0
    9.9670    5.3990   24.8280 O   0  0  0  0  0  0  0  0  0  0  0  0
   10.9140    3.5320   23.2370 C   0  0  0  0  0  0  0  0  0  0  0  0
   10.0780    2.4020   23.2710 C   0  0  0  0  0  0  0  0  0  0  0  0
   10.6400    1.1040   23.1440 C   0  0  0  0  0  0  0  0  0  0  0  0
   12.0290    0.9320   22.9920 C   0  0  0  0  0  0  0  0  0  0  0  0
   12.6780   -0.3260   22.8990 N   0  0  0  0  0  0  0  0  0  0  0  0
   12.1050   -1.2780   22.0230 C   0  0  0  0  0  0  0  0  0  0  0  0
   12.0310   -2.6370   22.6210 C   0  0  0  0  0  0  0  0  0  0  0  0
   11.4560   -2.7900   23.9950 C   0  0  0  0  0  0  0  0  0  0  0  0
    9.9140   -2.9360   24.1110 C   0  0  0  0  0  0  0  0  0  0  0  0
    8.9590   -3.0960   23.0170 N   0  0  0  0  0  0  0  0  0  0  0  0
    7.9280   -4.1010   23.2750 C   0  0  0  0  0  0  0  0  0  0  0  0
    6.8470   -3.5940   24.0040 C   0  0  0  0  0  0  0  0  0  0  0  0
    6.7790   -2.2210   24.2440 C   0  0  0  0  0  0  0  0  0  0  0  0
    7.4070   -1.3920   23.3270 C   0  0  0  0  0  0  0  0  0  0  0  0
    8.4460   -1.9230   22.5740 C   0  0  0  0  0  0  0  0  0  0  0  0
   11.9900   -1.6380   24.7480 C   0  0  0  0  0  0  0  0  0  0  0  0
   13.0570   -1.0000   24.1330 C   0  0  0  0  0  0  0  0  0  0  0  0
   12.8000    2.0870   22.9350 C   0  0  0  0  0  0  0  0  0  0  0  0
   12.2750    3.3660   23.0510 C   0  0  0  0  0  0  0  0  0  0  0  0
  2  1  1  0
  2  3  2  0
  2  4  2  0
  2  5  1  0
  5  6  2  0
  6  7  1  0
  7  8  2  0
  8  9  1  0
  9 10  1  0
 10 11  1  0
 11 12  1  0
 12 13  1  0
 13 14  1  0
 14 15  1  0
 15 16  1  0
 16 17  1  0
 17 18  1  0
 14 19  1  0
 18 19  1  0
 12 20  1  0
  9 21  1  0
 20 21  1  0
  8 22  1  0
  5 23  1  0
 22 23  2  0
M  END
