WAR-XCH-e55cba98-9
     RDKit          3D

 23 25  0  0  0  0  0  0  0  0999 V2000
    5.2520    1.4520   21.7750 C   0  0  0  0  0  0  0  0  0  0  0  0
    5.6800    1.0290   20.3880 C   0  0  0  0  0  0  0  0  0  0  0  0
    4.8940    1.5300   19.2550 C   0  0  0  0  0  0  0  0  0  0  0  0
    5.2680    1.1610   17.9590 C   0  0  0  0  0  0  0  0  0  0  0  0
    6.3610    0.3320   17.8320 N   0  0  0  0  0  0  0  0  0  0  0  0
    7.1080   -0.1530   18.8650 C   0  0  0  0  0  0  0  0  0  0  0  0
    6.7840    0.1910   20.1380 C   0  0  0  0  0  0  0  0  0  0  0  0
    7.6100   -0.3340   21.0690 N   0  0  0  0  0  0  0  0  0  0  0  0
    8.2600    0.7210   21.6680 C   0  0  0  0  0  0  0  0  0  0  0  0
    8.9160    1.6080   21.1200 O   0  0  0  0  0  0  0  0  0  0  0  0
    8.0470    0.6820   23.0210 N   0  0  0  0  0  0  0  0  0  0  0  0
    9.1200    0.8200   24.0160 C   0  0  0  0  0  0  0  0  0  0  0  0
    8.4160    0.5230   25.3500 C   0  0  0  0  0  0  0  0  0  0  0  0
    8.8520   -0.3980   26.3820 C   0  0  0  0  0  0  0  0  0  0  0  0
    8.5350   -0.9330   27.6470 C   0  0  0  0  0  0  0  0  0  0  0  0
    7.3360   -0.3150   28.0190 C   0  0  0  0  0  0  0  0  0  0  0  0
    6.7110    0.6360   27.1630 N   0  0  0  0  0  0  0  0  0  0  0  0
    7.2170    1.0580   25.8650 C   0  0  0  0  0  0  0  0  0  0  0  0
   10.1530   -0.3300   23.7050 C   0  0  0  0  0  0  0  0  0  0  0  0
   11.6360    0.0480   23.8390 C   0  0  0  0  0  0  0  0  0  0  0  0
   11.9000    1.3510   23.1190 C   0  0  0  0  0  0  0  0  0  0  0  0
   10.5360    1.9030   22.7760 C   0  0  0  0  0  0  0  0  0  0  0  0
    9.8390    2.1950   23.9660 C   0  0  0  0  0  0  0  0  0  0  0  0
  1  2  1  0
  2  3  2  0
  3  4  1  0
  4  5  2  0
  5  6  1  0
  2  7  1  0
  6  7  2  0
  7  8  1  0
  8  9  1  0
  9 10  2  0
  9 11  1  0
 12 11  1  0
 12 13  1  0
 13 14  2  0
 14 15  1  0
 15 16  2  0
 16 17  1  0
 13 18  1  0
 17 18  2  0
 12 19  1  0
 19 20  1  0
 20 21  1  0
 21 22  1  0
 12 23  1  0
 22 23  1  0
M  END
