WAR-XCH-bdd24732-13
     RDKit          3D

 27 30  0  0  0  0  0  0  0  0999 V2000
    2.4540   -0.3190   26.6090 C   0  0  0  0  0  0  0  0  0  0  0  0
    3.1260   -1.1960   25.5550 C   0  0  0  0  0  0  0  0  0  0  0  0
    4.1830   -0.6900   24.7960 C   0  0  0  0  0  0  0  0  0  0  0  0
    4.8030   -1.4790   23.8190 C   0  0  0  0  0  0  0  0  0  0  0  0
    4.3650   -2.7840   23.6000 C   0  0  0  0  0  0  0  0  0  0  0  0
    4.9970   -3.5520   22.6170 C   0  0  0  0  0  0  0  0  0  0  0  0
    4.4470   -3.4650   21.4040 O   0  0  0  0  0  0  0  0  0  0  0  0
    6.0650   -4.2670   22.7180 N   0  0  0  0  0  0  0  0  0  0  0  0
    5.7430   -5.5510   23.1500 C   0  0  0  0  0  0  0  0  0  0  0  0
    4.9750   -5.8720   24.2650 C   0  0  0  0  0  0  0  0  0  0  0  0
    4.6380   -5.7990   25.6120 C   0  0  0  0  0  0  0  0  0  0  0  0
    3.4350   -6.3920   25.9680 C   0  0  0  0  0  0  0  0  0  0  0  0
    3.0690   -7.5100   25.2430 C   0  0  0  0  0  0  0  0  0  0  0  0
    2.7490   -7.0240   23.8260 C   0  0  0  0  0  0  0  0  0  0  0  0
    3.5640   -5.7360   23.6510 C   0  0  0  0  0  0  0  0  0  0  0  0
    7.2460   -3.5160   22.8820 C   0  0  0  0  0  0  0  0  0  0  0  0
    8.3980   -3.9680   23.6290 N   0  0  0  0  0  0  0  0  0  0  0  0
    8.9200   -2.7860   23.3000 C   0  0  0  0  0  0  0  0  0  0  0  0
    7.9130   -3.5810   23.2210 C   0  0  0  0  0  0  0  0  0  0  0  0
    7.4970   -4.8500   23.6440 C   0  0  0  0  0  0  0  0  0  0  0  0
    9.2340   -3.6650   23.8830 C   0  0  0  0  0  0  0  0  0  0  0  0
    9.0820   -2.3150   23.1530 C   0  0  0  0  0  0  0  0  0  0  0  0
    9.4120   -1.0490   22.6900 N   0  0  0  0  0  0  0  0  0  0  0  0
    8.3660   -1.7580   22.5480 C   0  0  0  0  0  0  0  0  0  0  0  0
    7.1230   -2.0690   22.1240 N   0  0  0  0  0  0  0  0  0  0  0  0
    3.3060   -3.2840   24.3720 C   0  0  0  0  0  0  0  0  0  0  0  0
    2.6880   -2.5090   25.3390 C   0  0  0  0  0  0  0  0  0  0  0  0
  1  2  1  0
  2  3  2  0
  3  4  1  0
  4  5  2  0
  5  6  1  0
  6  7  2  0
  6  8  1  0
  8  9  1  0
  9 10  1  0
 10 11  1  0
 11 12  1  0
 12 13  1  0
 13 14  1  0
 10 15  1  0
 14 15  1  0
  8 16  1  0
 16 17  2  0
 17 18  1  0
 18 19  2  0
 19 20  1  0
 19 21  1  0
 21 22  2  0
 22 23  1  0
 18 24  1  0
 23 24  2  0
 16 25  1  0
 24 25  1  0
  5 26  1  0
  2 27  1  0
 26 27  2  0
M  END
