WAR-XCH-bdd24732-39
     RDKit          3D

 32 35  0  0  0  0  0  0  0  0999 V2000
    3.8280   -2.6550   26.3180 O   0  0  0  0  0  0  0  0  0  0  0  0
    3.2060   -3.9480   26.4820 S   0  0  0  0  0  0  0  0  0  0  0  0
    3.1600   -4.8710   25.3640 O   0  0  0  0  0  0  0  0  0  0  0  0
    1.5610   -3.6190   27.0030 C   0  0  0  0  0  0  0  0  0  0  0  0
    0.6810   -4.7840   27.4620 C   0  0  0  0  0  0  0  0  0  0  0  0
   -0.5860   -4.6060   27.8710 C   0  0  0  0  0  0  0  0  0  0  0  0
   -1.2080   -3.2280   27.8950 C   0  0  0  0  0  0  0  0  0  0  0  0
   -0.3690   -2.0300   27.4430 C   0  0  0  0  0  0  0  0  0  0  0  0
    1.0580   -2.3120   26.9940 C   0  0  0  0  0  0  0  0  0  0  0  0
    1.8170   -1.2840   26.5910 F   0  0  0  0  0  0  0  0  0  0  0  0
    3.9840   -4.8120   27.7650 N   0  0  0  0  0  0  0  0  0  0  0  0
    3.2000   -5.5640   28.6460 C   0  0  2  0  0  0  0  0  0  0  0  0
    2.6040   -4.7790   29.8550 C   0  0  0  0  0  0  0  0  0  0  0  0
    1.9770   -5.3830   30.9380 C   0  0  0  0  0  0  0  0  0  0  0  0
    2.9140   -6.5600   31.3430 C   0  0  2  0  0  0  0  0  0  0  0  0
    4.0110   -6.0670   31.5720 O   0  0  0  0  0  0  0  0  0  0  0  0
    3.1000   -7.4150   30.2620 C   0  0  0  0  0  0  0  0  0  0  0  0
    3.8010   -6.7670   29.0730 C   0  0  0  0  0  0  0  0  0  0  0  0
    5.3250   -4.2990   28.2730 C   0  0  0  0  0  0  0  0  0  0  0  0
    5.5710   -3.6440   29.4560 C   0  0  0  0  0  0  0  0  0  0  0  0
    5.0960   -2.3320   29.5770 C   0  0  0  0  0  0  0  0  0  0  0  0
    5.8980   -1.3450   30.1430 C   0  0  0  0  0  0  0  0  0  0  0  0
    5.2600   -0.6280   31.1540 C   0  0  0  0  0  0  0  0  0  0  0  0
    5.8690    0.5830   31.4420 C   0  0  0  0  0  0  0  0  0  0  0  0
    5.4440    1.5510   30.4840 C   0  0  0  0  0  0  0  0  0  0  0  0
    5.3910    0.7860   29.1490 C   0  0  0  0  0  0  0  0  0  0  0  0
    6.1970   -0.3290   29.0320 C   0  0  0  0  0  0  0  0  0  0  0  0
    6.3190   -5.4710   28.2200 C   0  0  0  0  0  0  0  0  0  0  0  0
    6.2940   -6.0280   26.9830 C   0  0  0  0  0  0  0  0  0  0  0  0
    6.0460   -5.2020   25.8440 C   0  0  0  0  0  0  0  0  0  0  0  0
    6.1800   -3.8010   25.9890 C   0  0  0  0  0  0  0  0  0  0  0  0
    5.9840   -3.3040   27.2710 C   0  0  0  0  0  0  0  0  0  0  0  0
  1  2  2  0
  2  3  2  0
  2  4  1  0
  4  5  2  0
  5  6  1  0
  6  7  2  0
  7  8  1  0
  4  9  1  0
  8  9  2  0
  9 10  1  0
  2 11  1  0
 12 11  1  1
 12 13  1  0
 13 14  1  0
 14 15  1  0
 15 16  1  6
 15 17  1  0
 12 18  1  0
 17 18  1  0
 11 19  1  0
 19 20  1  0
 20 21  3  0
 21 22  1  0
 22 23  1  0
 23 24  1  0
 24 25  1  0
 25 26  1  0
 22 27  1  0
 26 27  1  0
 19 28  1  0
 28 29  1  0
 29 30  1  0
 30 31  1  0
 19 32  1  0
 31 32  1  0
M  END
