WAR-XCH-72a8c209-4
     RDKit          3D

 26 29  0  0  0  0  0  0  0  0999 V2000
    3.2510   -6.6010   25.7810 O   0  0  0  0  0  0  0  0  0  0  0  0
    3.7520   -5.7230   25.0850 C   0  0  0  0  0  0  0  0  0  0  0  0
    4.7990   -5.9320   24.0970 C   0  0  0  0  0  0  0  0  0  0  0  0
    6.1260   -5.6350   24.4380 C   0  0  0  0  0  0  0  0  0  0  0  0
    7.1650   -5.7710   23.5140 C   0  0  0  0  0  0  0  0  0  0  0  0
    6.9220   -6.2030   22.2100 C   0  0  0  0  0  0  0  0  0  0  0  0
    5.5340   -6.5330   21.7920 C   0  0  0  0  0  0  0  0  0  0  0  0
    4.4400   -6.3790   22.8380 C   0  0  0  0  0  0  0  0  0  0  0  0
    3.5190   -4.3730   24.9980 N   0  0  0  0  0  0  0  0  0  0  0  0
    4.4670   -3.9370   24.0790 C   0  0  0  0  0  0  0  0  0  0  0  0
    4.3720   -4.4610   22.7350 C   0  0  0  0  0  0  0  0  0  0  0  0
    5.3270   -4.0190   21.9620 C   0  0  0  0  0  0  0  0  0  0  0  0
    6.3490   -3.1440   22.3550 C   0  0  0  0  0  0  0  0  0  0  0  0
    6.7430   -2.4510   23.5570 C   0  0  0  0  0  0  0  0  0  0  0  0
    7.6060   -2.2120   22.4450 C   0  0  0  0  0  0  0  0  0  0  0  0
    6.5970   -2.7520   23.0050 C   0  0  0  0  0  0  0  0  0  0  0  0
    6.7910   -2.1270   24.3870 C   0  0  0  0  0  0  0  0  0  0  0  0
    5.8800   -2.4670   25.3150 C   0  0  0  0  0  0  0  0  0  0  0  0
    5.5350   -3.0680   24.3130 C   0  0  0  0  0  0  0  0  0  0  0  0
    3.3730   -3.5780   26.2300 C   0  0  1  0  0  0  0  0  0  0  0  0
    2.5820   -2.4540   25.9220 C   0  0  0  0  0  0  0  0  0  0  0  0
    1.2600   -2.5870   26.3730 C   0  0  0  0  0  0  0  0  0  0  0  0
    1.1280   -2.9430   27.7160 C   0  0  2  0  0  0  0  0  0  0  0  0
    1.1250   -1.7460   28.5010 O   0  0  0  0  0  0  0  0  0  0  0  0
    2.0910   -3.7880   28.2480 C   0  0  0  0  0  0  0  0  0  0  0  0
    2.8420   -4.3940   27.2410 C   0  0  0  0  0  0  0  0  0  0  0  0
  1  2  2  0
  2  3  1  0
  3  4  2  0
  4  5  1  0
  5  6  2  0
  6  7  1  0
  3  8  1  0
  7  8  2  0
  2  9  1  0
  9 10  1  0
 10 11  2  0
 11 12  1  0
 12 13  2  0
 13 14  1  0
 14 15  1  0
 15 16  2  0
 16 17  1  0
 17 18  2  0
 10 19  1  0
 14 19  2  0
 18 19  1  0
 20  9  1  6
 20 21  1  0
 21 22  1  0
 22 23  1  0
 23 24  1  1
 23 25  1  0
 20 26  1  0
 25 26  1  0
M  END
