WAR-XCH-b72a1bbc-33
     RDKit          3D

 24 26  0  0  0  0  0  0  0  0999 V2000
    8.8170    5.9040   22.5200 N   0  0  0  0  0  0  0  0  0  0  0  0
   10.3070    5.9330   23.2910 S   0  0  0  0  0  0  0  0  0  0  0  0
   11.2240    6.6050   22.4210 O   0  0  0  0  0  0  0  0  0  0  0  0
   10.0830    6.3420   24.6600 O   0  0  0  0  0  0  0  0  0  0  0  0
   10.7520    4.2340   23.3300 C   0  0  0  0  0  0  0  0  0  0  0  0
    9.8250    3.3360   23.8280 C   0  0  0  0  0  0  0  0  0  0  0  0
   10.1550    2.0100   23.9170 C   0  0  0  0  0  0  0  0  0  0  0  0
   11.3910    1.5630   23.5090 C   0  0  0  0  0  0  0  0  0  0  0  0
   11.5930    0.2460   23.6610 N   0  0  0  0  0  0  0  0  0  0  0  0
   10.4720   -0.4410   23.1290 C   0  0  0  0  0  0  0  0  0  0  0  0
   11.1130   -1.5690   22.4580 C   0  0  0  0  0  0  0  0  0  0  0  0
   12.5140   -1.6460   22.9560 C   0  0  0  0  0  0  0  0  0  0  0  0
   12.8310   -2.9940   22.6680 C   0  0  0  0  0  0  0  0  0  0  0  0
   14.4530   -3.3680   23.0870 S   0  0  0  0  0  0  0  0  0  0  0  0
   15.6260   -4.7210   21.9410 C   0  0  0  0  0  0  0  0  0  0  0  0
   14.9690   -5.4460   20.9450 C   0  0  0  0  0  0  0  0  0  0  0  0
   15.1920   -5.2120   19.8170 C   0  0  0  0  0  0  0  0  0  0  0  0
   16.4120   -4.8990   19.6490 C   0  0  0  0  0  0  0  0  0  0  0  0
   17.3640   -4.8240   20.5980 C   0  0  0  0  0  0  0  0  0  0  0  0
   16.9630   -4.7780   21.8510 C   0  0  0  0  0  0  0  0  0  0  0  0
   12.6000   -1.5930   24.4860 C   0  0  0  0  0  0  0  0  0  0  0  0
   11.9390   -0.3460   24.9320 C   0  0  0  0  0  0  0  0  0  0  0  0
   12.3070    2.4580   22.9840 C   0  0  0  0  0  0  0  0  0  0  0  0
   12.0070    3.8140   22.8850 C   0  0  0  0  0  0  0  0  0  0  0  0
  2  1  1  0
  2  3  2  0
  2  4  2  0
  2  5  1  0
  5  6  2  0
  6  7  1  0
  7  8  2  0
  8  9  1  0
  9 10  1  0
 10 11  1  0
 11 12  1  0
 12 13  1  0
 13 14  1  0
 14 15  1  0
 15 16  1  0
 16 17  1  0
 17 18  1  0
 18 19  1  0
 15 20  1  0
 19 20  1  0
 12 21  1  0
  9 22  1  0
 21 22  1  0
  8 23  1  0
  5 24  1  0
 23 24  2  0
M  END
