WAR-XCH-b72a1bbc-18
     RDKit          3D

 21 23  0  0  0  0  0  0  0  0999 V2000
    8.8330    5.0160   22.4920 N   0  0  0  0  0  0  0  0  0  0  0  0
   10.3340    5.0970   23.2430 S   0  0  0  0  0  0  0  0  0  0  0  0
   11.1900    5.9980   22.5090 O   0  0  0  0  0  0  0  0  0  0  0  0
   10.0320    5.3440   24.6390 O   0  0  0  0  0  0  0  0  0  0  0  0
   10.9930    3.4420   23.1120 C   0  0  0  0  0  0  0  0  0  0  0  0
   10.1820    2.3000   23.1690 C   0  0  0  0  0  0  0  0  0  0  0  0
   10.7820    1.0050   23.1280 C   0  0  0  0  0  0  0  0  0  0  0  0
   12.1850    0.8330   23.0330 C   0  0  0  0  0  0  0  0  0  0  0  0
   12.8310   -0.4330   23.0750 N   0  0  0  0  0  0  0  0  0  0  0  0
   12.6570   -1.2720   24.2670 C   0  0  0  0  0  0  0  0  0  0  0  0
   12.2200   -2.6360   23.8280 C   0  0  0  0  0  0  0  0  0  0  0  0
   11.0500   -2.4800   22.8250 C   0  0  0  0  0  0  0  0  0  0  0  0
    9.8230   -1.7350   23.3840 C   0  0  2  0  0  0  0  0  0  0  0  0
    8.6970   -2.6980   23.7560 C   0  0  0  0  0  0  0  0  0  0  0  0
    7.6480   -2.5960   22.6730 C   0  0  0  0  0  0  0  0  0  0  0  0
    8.0470   -1.4150   21.8020 C   0  0  0  0  0  0  0  0  0  0  0  0
    9.2630   -0.8710   22.3680 O   0  0  0  0  0  0  0  0  0  0  0  0
   11.6060   -1.8460   21.5780 C   0  0  0  0  0  0  0  0  0  0  0  0
   12.9830   -1.2740   21.8950 C   0  0  0  0  0  0  0  0  0  0  0  0
   12.9090    2.0080   22.9270 C   0  0  0  0  0  0  0  0  0  0  0  0
   12.3570    3.2840   22.9640 C   0  0  0  0  0  0  0  0  0  0  0  0
  2  1  1  0
  2  3  2  0
  2  4  2  0
  2  5  1  0
  5  6  2  0
  6  7  1  0
  7  8  2  0
  8  9  1  0
  9 10  1  0
 10 11  1  0
 11 12  1  0
 13 12  1  6
 13 14  1  0
 14 15  1  0
 15 16  1  0
 13 17  1  0
 16 17  1  0
 12 18  1  0
  9 19  1  0
 18 19  1  0
  8 20  1  0
  5 21  1  0
 20 21  2  0
M  END
