WAR-XCH-e55cba98-13
     RDKit          3D

 30 33  0  0  0  0  0  0  0  0999 V2000
    9.2140    1.4760   21.3710 O   0  0  0  0  0  0  0  0  0  0  0  0
    8.6280    0.4920   21.8380 C   0  0  0  0  0  0  0  0  0  0  0  0
    8.9980   -0.0140   23.2180 C   0  0  0  0  0  0  0  0  0  0  0  0
   10.1600   -0.9070   23.3230 C   0  0  0  0  0  0  0  0  0  0  0  0
    9.8860   -2.2120   23.6310 N   0  0  0  0  0  0  0  0  0  0  0  0
    8.7340   -2.6170   24.2100 C   0  0  0  0  0  0  0  0  0  0  0  0
    8.1170   -1.7040   25.0750 C   0  0  0  0  0  0  0  0  0  0  0  0
    8.1820   -1.8770   26.4460 C   0  0  0  0  0  0  0  0  0  0  0  0
    8.1000   -0.7750   27.3190 C   0  0  0  0  0  0  0  0  0  0  0  0
    7.8700    0.5880   26.5650 C   0  0  0  0  0  0  0  0  0  0  0  0
    7.7840    1.7660   27.5360 C   0  0  0  0  0  0  0  0  0  0  0  0
    7.9520    1.2130   28.8650 C   0  0  0  0  0  0  0  0  0  0  0  0
    8.1590    0.0200   29.5980 C   0  0  0  0  0  0  0  0  0  0  0  0
    8.2250   -1.0100   28.6860 N   0  0  0  0  0  0  0  0  0  0  0  0
    8.8310   -3.9970   24.9510 C   0  0  0  0  0  0  0  0  0  0  0  0
    7.6850   -4.9070   24.5300 C   0  0  0  0  0  0  0  0  0  0  0  0
    6.8860   -3.9620   23.6640 C   0  0  0  0  0  0  0  0  0  0  0  0
    7.9110   -2.9700   23.1090 C   0  0  0  0  0  0  0  0  0  0  0  0
   10.9480   -0.8150   22.1900 C   0  0  0  0  0  0  0  0  0  0  0  0
   12.2780   -1.5140   22.3130 C   0  0  0  0  0  0  0  0  0  0  0  0
   13.1430   -0.6170   22.9550 C   0  0  0  0  0  0  0  0  0  0  0  0
   12.3770    0.1650   24.0370 C   0  0  0  0  0  0  0  0  0  0  0  0
   10.8890   -0.1400   24.2840 C   0  0  0  0  0  0  0  0  0  0  0  0
    7.6140   -0.2290   21.2470 N   0  0  0  0  0  0  0  0  0  0  0  0
    6.7990    0.2460   20.2240 C   0  0  0  0  0  0  0  0  0  0  0  0
    5.5850    1.1700   20.3910 C   0  0  0  0  0  0  0  0  0  0  0  0
    4.9120    1.5470   19.2610 C   0  0  0  0  0  0  0  0  0  0  0  0
    5.3120    1.1120   18.0290 C   0  0  0  0  0  0  0  0  0  0  0  0
    6.3600    0.2980   17.8210 N   0  0  0  0  0  0  0  0  0  0  0  0
    7.0730   -0.1170   18.9060 C   0  0  0  0  0  0  0  0  0  0  0  0
  1  2  2  0
  2  3  1  0
  3  4  1  0
  4  5  1  0
  5  6  1  0
  6  7  1  0
  7  8  3  0
  8  9  1  0
  9 10  2  0
 10 11  1  0
 11 12  2  0
 12 13  1  0
  9 14  1  0
 13 14  2  0
  6 15  1  0
 15 16  1  0
 16 17  1  0
  6 18  1  0
 17 18  1  0
  4 19  1  0
 19 20  1  0
 20 21  1  0
 21 22  1  0
  4 23  1  0
 22 23  1  0
  2 24  1  0
 24 25  1  0
 25 26  2  0
 26 27  1  0
 27 28  2  0
 28 29  1  0
 25 30  1  0
 29 30  2  0
M  END
