WAR-XCH-b0339bbe-4
     RDKit          3D

 26 29  0  0  0  0  0  0  0  0999 V2000
   -1.8740   -8.2800   21.6390 N   0  0  0  0  0  0  0  0  0  0  0  0
   -0.5730   -7.3950   21.0650 S   0  0  0  0  0  0  0  0  0  0  0  0
   -1.1320   -6.5620   20.0240 O   0  0  0  0  0  0  0  0  0  0  0  0
    0.4620   -8.3690   20.7990 O   0  0  0  0  0  0  0  0  0  0  0  0
   -0.0520   -6.3550   22.4090 C   0  0  0  0  0  0  0  0  0  0  0  0
   -1.0260   -5.3690   23.0230 C   0  0  0  0  0  0  0  0  0  0  0  0
   -0.5730   -4.5800   24.0720 C   0  0  0  0  0  0  0  0  0  0  0  0
    0.7460   -4.6920   24.5440 C   0  0  0  0  0  0  0  0  0  0  0  0
    1.6730   -5.5970   23.9910 C   0  0  0  0  0  0  0  0  0  0  0  0
    2.9610   -5.6280   24.5560 C   0  0  0  0  0  0  0  0  0  0  0  0
    4.0280   -4.7960   24.1410 C   0  0  0  0  0  0  0  0  0  0  0  0
    5.2190   -5.0160   23.7030 C   0  0  0  0  0  0  0  0  0  0  0  0
    6.4360   -4.9590   23.2550 C   0  0  0  0  0  0  0  0  0  0  0  0
    6.5830   -3.5430   23.2120 C   0  0  0  0  0  0  0  0  0  0  0  0
    8.0220   -2.9340   22.7000 C   0  0  0  0  0  0  0  0  0  0  0  0
    7.7720   -4.2580   22.7880 C   0  0  0  0  0  0  0  0  0  0  0  0
    6.5400   -4.2450   23.2320 C   0  0  0  0  0  0  0  0  0  0  0  0
    6.4380   -2.7430   23.2670 C   0  0  0  0  0  0  0  0  0  0  0  0
    5.3200   -2.6360   23.6710 C   0  0  0  0  0  0  0  0  0  0  0  0
    4.1080   -3.3840   24.1100 C   0  0  0  0  0  0  0  0  0  0  0  0
    2.5980   -5.2510   26.0420 C   0  0  0  0  0  0  0  0  0  0  0  0
    3.4530   -5.9690   27.0730 C   0  0  0  0  0  0  0  0  0  0  0  0
    3.2150   -7.4690   27.0110 C   0  0  0  0  0  0  0  0  0  0  0  0
    2.8720   -7.9080   25.7220 C   0  0  0  0  0  0  0  0  0  0  0  0
    3.5630   -7.0720   24.6440 C   0  0  0  0  0  0  0  0  0  0  0  0
    1.2620   -6.4300   22.9170 C   0  0  0  0  0  0  0  0  0  0  0  0
  2  1  1  0
  2  3  2  0
  2  4  2  0
  2  5  1  0
  5  6  2  0
  6  7  1  0
  7  8  2  0
  8  9  1  0
 10  9  1  0
 10 11  1  0
 11 12  2  0
 12 13  1  0
 13 14  2  0
 14 15  1  0
 15 16  2  0
 16 17  1  0
 17 18  2  0
 14 19  1  0
 18 19  1  0
 11 20  1  0
 19 20  2  0
 10 21  1  0
 21 22  1  0
 22 23  1  0
 23 24  1  0
 10 25  1  0
 24 25  1  0
  5 26  1  0
  9 26  2  0
M  END
