WAR-XCH-b72a1bbc-28
     RDKit          3D

 29 32  0  0  0  0  0  0  0  0999 V2000
    6.4120   -3.4890   21.1850 N   0  0  0  0  0  0  0  0  0  0  0  0
    6.1550   -5.1550   21.2110 S   0  0  0  0  0  0  0  0  0  0  0  0
    5.2330   -5.4340   20.1530 O   0  0  0  0  0  0  0  0  0  0  0  0
    7.4390   -5.8180   21.2660 O   0  0  0  0  0  0  0  0  0  0  0  0
    5.5260   -5.2430   22.8440 C   0  0  0  0  0  0  0  0  0  0  0  0
    5.4250   -4.0570   23.5450 C   0  0  0  0  0  0  0  0  0  0  0  0
    4.9760   -4.0750   24.8570 C   0  0  0  0  0  0  0  0  0  0  0  0
    4.6210   -5.2690   25.5060 C   0  0  0  0  0  0  0  0  0  0  0  0
    4.2340   -5.2420   26.8320 N   0  0  0  0  0  0  0  0  0  0  0  0
    5.0820   -6.1250   27.6440 C   0  0  0  0  0  0  0  0  0  0  0  0
    6.5450   -5.7070   27.4030 C   0  0  0  0  0  0  0  0  0  0  0  0
    6.6170   -4.4190   26.5530 C   0  0  0  0  0  0  0  0  0  0  0  0
    8.0220   -3.9150   26.1780 C   0  0  0  0  0  0  0  0  0  0  0  0
    8.2580   -2.8590   25.3490 N   0  0  0  0  0  0  0  0  0  0  0  0
    7.2320   -1.9310   25.3700 C   0  0  0  0  0  0  0  0  0  0  0  0
    6.9840   -1.0100   24.3240 C   0  0  0  0  0  0  0  0  0  0  0  0
    7.9790   -0.8450   23.2590 C   0  0  0  0  0  0  0  0  0  0  0  0
    9.0030   -1.7950   23.0390 C   0  0  1  0  0  0  0  0  0  0  0  0
   10.3260   -1.2780   22.8490 C   0  0  0  0  0  0  0  0  0  0  0  0
   10.6760    0.0180   23.2620 C   0  0  0  0  0  0  0  0  0  0  0  0
   11.9770    0.5190   23.0730 C   0  0  0  0  0  0  0  0  0  0  0  0
   12.9310   -0.2750   22.4740 C   0  0  0  0  0  0  0  0  0  0  0  0
   12.6170   -1.5570   22.0450 C   0  0  0  0  0  0  0  0  0  0  0  0
   11.3250   -2.0510   22.2310 C   0  0  0  0  0  0  0  0  0  0  0  0
    8.8120   -3.0800   23.9630 C   0  0  0  0  0  0  0  0  0  0  0  0
    5.7430   -3.3660   27.2750 C   0  0  0  0  0  0  0  0  0  0  0  0
    4.2930   -3.8720   27.3600 C   0  0  0  0  0  0  0  0  0  0  0  0
    4.7110   -6.4480   24.7580 C   0  0  0  0  0  0  0  0  0  0  0  0
    5.1630   -6.4400   23.4320 C   0  0  0  0  0  0  0  0  0  0  0  0
  2  1  1  0
  2  3  2  0
  2  4  2  0
  2  5  1  0
  5  6  2  0
  6  7  1  0
  7  8  2  0
  8  9  1  0
  9 10  1  0
 10 11  1  0
 11 12  1  0
 12 13  1  0
 13 14  1  0
 14 15  1  0
 15 16  1  0
 16 17  1  0
 17 18  1  0
 18 19  1  1
 19 20  2  0
 20 21  1  0
 21 22  2  0
 22 23  1  0
 19 24  1  0
 23 24  2  0
 14 25  1  0
 18 25  1  0
 12 26  1  0
  9 27  1  0
 26 27  1  0
  8 28  1  0
  5 29  1  0
 28 29  2  0
M  END
