WAR-XCH-b72a1bbc-8
     RDKit          3D

 25 28  0  0  0  0  0  0  0  0999 V2000
   23.4230  -12.7410   24.5650 N   0  0  0  0  0  0  0  0  0  0  0  0
   24.8310  -13.5550   24.9660 S   0  0  0  0  0  0  0  0  0  0  0  0
   25.8570  -13.1630   24.0290 O   0  0  0  0  0  0  0  0  0  0  0  0
   24.9890  -13.4850   26.3900 O   0  0  0  0  0  0  0  0  0  0  0  0
   24.3500  -15.1780   24.6040 C   0  0  0  0  0  0  0  0  0  0  0  0
   23.8080  -16.0660   25.6760 C   0  0  0  0  0  0  0  0  0  0  0  0
   23.4540  -17.3670   25.3360 C   0  0  0  0  0  0  0  0  0  0  0  0
   23.6130  -17.8030   24.0160 C   0  0  0  0  0  0  0  0  0  0  0  0
   23.3140  -19.0600   23.6160 N   0  0  0  0  0  0  0  0  0  0  0  0
   22.9340  -20.0760   24.5800 C   0  0  0  0  0  0  0  0  0  0  0  0
   22.3460  -21.2590   23.8320 C   0  0  0  0  0  0  0  0  0  0  0  0
   23.3700  -21.8380   22.8650 C   0  0  0  0  0  0  0  0  0  0  0  0
   22.7940  -22.8950   21.8440 C   0  0  0  0  0  0  0  0  0  0  0  0
   22.5070  -23.3220   20.6410 N   0  0  0  0  0  0  0  0  0  0  0  0
   22.7420  -22.5920   19.2960 C   0  0  0  0  0  0  0  0  0  0  0  0
   22.4780  -22.9750   17.9300 C   0  0  0  0  0  0  0  0  0  0  0  0
   21.8780  -24.3230   17.6830 C   0  0  0  0  0  0  0  0  0  0  0  0
   21.5490  -25.2640   18.7570 C   0  0  0  0  0  0  0  0  0  0  0  0
   21.8740  -24.7150   19.9610 C   0  0  0  0  0  0  0  0  0  0  0  0
   22.3120  -23.6070   19.4240 C   0  0  0  0  0  0  0  0  0  0  0  0
   23.0090  -22.2180   20.4240 S   0  0  0  0  0  0  0  0  0  0  0  0
   24.3920  -20.8110   22.3310 C   0  0  0  0  0  0  0  0  0  0  0  0
   23.9860  -19.4820   22.3630 C   0  0  0  0  0  0  0  0  0  0  0  0
   24.1140  -16.9310   23.0370 C   0  0  0  0  0  0  0  0  0  0  0  0
   24.4850  -15.6190   23.3150 C   0  0  0  0  0  0  0  0  0  0  0  0
  2  1  1  0
  2  3  2  0
  2  4  2  0
  2  5  1  0
  5  6  2  0
  6  7  1  0
  7  8  2  0
  8  9  1  0
  9 10  1  0
 10 11  1  0
 11 12  1  0
 12 13  1  0
 13 14  2  0
 14 15  1  0
 15 16  2  0
 16 17  1  0
 17 18  2  0
 18 19  1  0
 15 20  1  0
 19 20  2  0
 13 21  1  0
 20 21  1  0
 12 22  1  0
  9 23  1  0
 22 23  1  0
  8 24  1  0
  5 25  1  0
 24 25  2  0
M  END
