WAR-XCH-b72a1bbc-21
     RDKit          3D

 23 25  0  0  0  0  0  0  0  0999 V2000
    9.4210    6.7110   22.5070 N   0  0  0  0  0  0  0  0  0  0  0  0
   10.6250    6.5300   23.6750 S   0  0  0  0  0  0  0  0  0  0  0  0
   11.7520    7.3110   23.2690 O   0  0  0  0  0  0  0  0  0  0  0  0
   10.0150    6.6130   24.9810 O   0  0  0  0  0  0  0  0  0  0  0  0
   11.0650    4.8750   23.4020 C   0  0  0  0  0  0  0  0  0  0  0  0
   10.0480    3.9670   23.5150 C   0  0  0  0  0  0  0  0  0  0  0  0
   10.3080    2.6530   23.3190 C   0  0  0  0  0  0  0  0  0  0  0  0
   11.5710    2.1710   23.0150 C   0  0  0  0  0  0  0  0  0  0  0  0
   11.5310    0.8570   22.9050 N   0  0  0  0  0  0  0  0  0  0  0  0
   12.6870    0.0580   23.2070 C   0  0  0  0  0  0  0  0  0  0  0  0
   12.3430   -1.1970   22.4500 C   0  0  0  0  0  0  0  0  0  0  0  0
   10.8670   -1.2530   21.8510 C   0  0  0  0  0  0  0  0  0  0  0  0
   10.2770   -2.4830   22.3070 C   0  0  0  0  0  0  0  0  0  0  0  0
   11.3130   -3.0970   23.0040 N   0  0  0  0  0  0  0  0  0  0  0  0
   12.5950   -2.5760   22.5410 C   0  0  0  0  0  0  0  0  0  0  0  0
   13.6570   -2.4970   23.4440 C   0  0  0  0  0  0  0  0  0  0  0  0
   13.3220   -2.2770   25.2060 S   0  0  0  0  0  0  0  0  0  0  0  0
   11.6230   -1.8340   24.8670 C   0  0  0  0  0  0  0  0  0  0  0  0
   11.0370   -2.9430   24.3830 C   0  0  0  0  0  0  0  0  0  0  0  0
    9.8350   -0.2010   22.1710 C   0  0  0  0  0  0  0  0  0  0  0  0
   10.2510    0.3340   23.3000 C   0  0  0  0  0  0  0  0  0  0  0  0
   12.6260    3.0400   22.8820 C   0  0  0  0  0  0  0  0  0  0  0  0
   12.3620    4.4950   23.0880 C   0  0  0  0  0  0  0  0  0  0  0  0
  2  1  1  0
  2  3  2  0
  2  4  2  0
  2  5  1  0
  5  6  2  0
  6  7  1  0
  7  8  2  0
  8  9  1  0
  9 10  1  0
 10 11  1  0
 11 12  1  0
 12 13  1  0
 13 14  1  0
 14 15  1  0
 15 16  1  0
 16 17  1  0
 17 18  1  0
 14 19  1  0
 18 19  1  0
 12 20  1  0
  9 21  1  0
 20 21  1  0
  8 22  1  0
  5 23  1  0
 22 23  2  0
M  END
