WAR-XCH-b0339bbe-10
     RDKit          3D

 24 26  0  0  0  0  0  0  0  0999 V2000
    6.7990    0.2040   22.1880 O   0  0  0  0  0  0  0  0  0  0  0  0
    7.2000   -0.2160   23.2690 C   0  0  0  0  0  0  0  0  0  0  0  0
    8.3780   -0.8800   23.3390 O   0  0  0  0  0  0  0  0  0  0  0  0
    6.4410   -0.0120   24.5400 C   0  0  0  0  0  0  0  0  0  0  0  0
    5.8850    1.2790   24.9000 N   0  0  0  0  0  0  0  0  0  0  0  0
    5.2520    1.1020   26.1330 C   0  0  0  0  0  0  0  0  0  0  0  0
    4.4150    2.2320   27.0800 Cl  0  0  0  0  0  0  0  0  0  0  0  0
    5.3860   -0.3060   26.5870 N   0  0  0  0  0  0  0  0  0  0  0  0
    6.1520   -1.0910   25.5910 C   0  0  0  0  0  0  0  0  0  0  0  0
    6.3800   -2.5110   25.8730 C   0  0  0  0  0  0  0  0  0  0  0  0
    5.4110   -3.2860   25.1840 C   0  0  0  0  0  0  0  0  0  0  0  0
    5.8950   -4.1570   24.1990 C   0  0  0  0  0  0  0  0  0  0  0  0
    6.4660   -5.2840   25.0250 C   0  0  0  0  0  0  0  0  0  0  0  0
    6.6920   -4.7660   26.4260 C   0  0  0  0  0  0  0  0  0  0  0  0
    7.9120   -4.1990   26.6200 C   0  0  0  0  0  0  0  0  0  0  0  0
    8.2890   -4.6940   27.8700 C   0  0  0  0  0  0  0  0  0  0  0  0
    9.1160   -5.8580   27.5860 C   0  0  0  0  0  0  0  0  0  0  0  0
    9.4680   -5.6350   26.1880 C   0  0  0  0  0  0  0  0  0  0  0  0
    8.8370   -4.5200   25.6340 C   0  0  0  0  0  0  0  0  0  0  0  0
    4.9090   -4.6220   23.3310 C   0  0  0  0  0  0  0  0  0  0  0  0
    5.3770   -5.5220   22.3850 C   0  0  0  0  0  0  0  0  0  0  0  0
    6.5220   -5.0870   21.7650 C   0  0  0  0  0  0  0  0  0  0  0  0
    7.4690   -4.4430   22.5730 C   0  0  0  0  0  0  0  0  0  0  0  0
    6.7890   -3.5420   23.2930 C   0  0  0  0  0  0  0  0  0  0  0  0
  1  2  2  0
  2  3  1  0
  2  4  1  0
  4  5  1  0
  5  6  2  0
  6  7  1  0
  6  8  1  0
  4  9  2  0
  8  9  1  0
  9 10  1  0
 10 11  1  0
 11 12  1  0
 12 13  1  0
 13 14  3  0
 14 15  1  0
 15 16  1  0
 16 17  1  0
 17 18  1  0
 15 19  1  0
 18 19  1  0
 12 20  1  0
 20 21  1  0
 21 22  1  0
 22 23  1  0
 12 24  1  0
 23 24  1  0
M  END
