WAR-XCH-b6889685-38
     RDKit          3D

 32 36  0  0  0  0  0  0  0  0999 V2000
   27.7660  -15.1960   27.7290 N   0  0  0  0  0  0  0  0  0  0  0  0
   26.4090  -14.3220   27.2350 S   0  0  0  0  0  0  0  0  0  0  0  0
   26.8590  -13.2980   26.3270 O   0  0  0  0  0  0  0  0  0  0  0  0
   25.6890  -14.0570   28.4500 O   0  0  0  0  0  0  0  0  0  0  0  0
   25.5660  -15.5570   26.2970 C   0  0  0  0  0  0  0  0  0  0  0  0
   24.0690  -15.6640   26.2420 C   0  0  0  0  0  0  0  0  0  0  0  0
   23.4940  -16.6930   25.4700 C   0  0  0  0  0  0  0  0  0  0  0  0
   24.3040  -17.5980   24.7610 C   0  0  0  0  0  0  0  0  0  0  0  0
   23.8100  -18.6270   23.9870 N   0  0  0  0  0  0  0  0  0  0  0  0
   22.5570  -19.2580   24.2240 C   0  0  0  0  0  0  0  0  0  0  0  0
   22.6700  -20.7910   24.2000 C   0  0  0  0  0  0  0  0  0  0  0  0
   23.5230  -21.3820   23.0710 C   0  0  0  0  0  0  0  0  0  0  0  0
   22.8120  -21.8420   21.8360 N   0  0  0  0  0  0  0  0  0  0  0  0
   23.6570  -22.3850   20.7440 C   0  0  0  0  0  0  0  0  0  0  0  0
   22.9890  -23.2070   19.6370 C   0  0  0  0  0  0  0  0  0  0  0  0
   22.3900  -24.4380   19.9600 C   0  0  0  0  0  0  0  0  0  0  0  0
   21.8190  -25.2420   18.9690 C   0  0  0  0  0  0  0  0  0  0  0  0
   21.8330  -24.8420   17.6380 C   0  0  0  0  0  0  0  0  0  0  0  0
   22.3940  -23.6250   17.2580 C   0  0  0  0  0  0  0  0  0  0  0  0
   22.3770  -23.2670   15.9020 C   0  0  0  0  0  0  0  0  0  0  0  0
   22.9160  -22.0620   15.4260 C   0  0  0  0  0  0  0  0  0  0  0  0
   23.4940  -21.1860   16.3080 C   0  0  0  0  0  0  0  0  0  0  0  0
   23.5260  -21.5660   17.7740 C   0  0  0  0  0  0  0  0  0  0  0  0
   22.9770  -22.7830   18.2510 C   0  0  0  0  0  0  0  0  0  0  0  0
   24.8280  -23.1510   21.4280 C   0  0  0  0  0  0  0  0  0  0  0  0
   25.9420  -23.1700   20.3960 C   0  0  0  0  0  0  0  0  0  0  0  0
   25.9460  -21.7370   19.9080 C   0  0  0  0  0  0  0  0  0  0  0  0
   24.4970  -21.2500   20.0580 C   0  0  0  0  0  0  0  0  0  0  0  0
   24.6960  -20.4530   22.6580 C   0  0  0  0  0  0  0  0  0  0  0  0
   24.3740  -18.9600   22.6920 C   0  0  0  0  0  0  0  0  0  0  0  0
   25.7010  -17.4530   24.8440 C   0  0  0  0  0  0  0  0  0  0  0  0
   26.3320  -16.4610   25.5890 C   0  0  0  0  0  0  0  0  0  0  0  0
  2  1  1  0
  2  3  2  0
  2  4  2  0
  2  5  1  0
  5  6  2  0
  6  7  1  0
  7  8  2  0
  8  9  1  0
  9 10  1  0
 10 11  1  0
 11 12  1  0
 12 13  1  0
 14 13  1  0
 14 15  1  0
 15 16  2  0
 16 17  1  0
 17 18  2  0
 18 19  1  0
 19 20  1  0
 20 21  2  0
 21 22  1  0
 22 23  2  0
 15 24  1  0
 19 24  2  0
 23 24  1  0
 14 25  1  0
 25 26  1  0
 26 27  1  0
 14 28  1  0
 27 28  1  0
 12 29  1  0
  9 30  1  0
 29 30  1  0
  8 31  1  0
  5 32  1  0
 31 32  2  0
M  END
