WAR-XCH-bdd24732-30
     RDKit          3D

 26 29  0  0  0  0  0  0  0  0999 V2000
    9.3910   -3.1550   22.0050 O   0  0  0  0  0  0  0  0  0  0  0  0
    8.5860   -2.4630   22.5500 C   0  0  0  0  0  0  0  0  0  0  0  0
    8.8120   -1.1110   22.7540 N   0  0  0  0  0  0  0  0  0  0  0  0
   10.1170   -0.5530   22.7460 C   0  0  0  0  0  0  0  0  0  0  0  0
   10.4100    0.9480   22.8330 C   0  0  0  0  0  0  0  0  0  0  0  0
   11.8830    1.4150   22.8220 C   0  0  0  0  0  0  0  0  0  0  0  0
   12.9210    0.3460   22.7280 C   0  0  0  0  0  0  0  0  0  0  0  0
   12.5280   -1.1010   22.6420 C   0  0  0  0  0  0  0  0  0  0  0  0
   11.1820   -1.4850   22.6520 C   0  0  0  0  0  0  0  0  0  0  0  0
    7.3700   -2.9880   23.0220 N   0  0  0  0  0  0  0  0  0  0  0  0
    7.5570   -4.3830   23.4530 C   0  0  0  0  0  0  0  0  0  0  0  0
    7.6280   -5.5050   24.1560 C   0  0  0  0  0  0  0  0  0  0  0  0
    7.2560   -4.9970   25.2870 C   0  0  0  0  0  0  0  0  0  0  0  0
    7.1010   -5.3760   26.4030 C   0  0  0  0  0  0  0  0  0  0  0  0
    7.0080   -3.9460   25.2580 S   0  0  0  0  0  0  0  0  0  0  0  0
    6.7070   -4.8900   27.6270 C   0  0  0  0  0  0  0  0  0  0  0  0
    6.4080   -3.4470   27.6550 C   0  0  0  0  0  0  0  0  0  0  0  0
    6.5330   -2.8680   26.4020 C   0  0  0  0  0  0  0  0  0  0  0  0
    6.9020   -3.6070   25.2400 C   0  0  0  0  0  0  0  0  0  0  0  0
    6.4120   -2.4430   22.0190 C   0  0  1  0  0  0  0  0  0  0  0  0
    5.6910   -3.2510   21.1640 C   0  0  0  0  0  0  0  0  0  0  0  0
    5.4010   -2.5560   19.7980 C   0  0  0  0  0  0  0  0  0  0  0  0
    5.8570   -1.0900   19.7990 C   0  0  1  0  0  0  0  0  0  0  0  0
    5.2710   -0.3920   18.7060 O   0  0  0  0  0  0  0  0  0  0  0  0
    5.5340   -0.3570   21.1080 C   0  0  0  0  0  0  0  0  0  0  0  0
    5.8080   -1.2330   22.3420 C   0  0  0  0  0  0  0  0  0  0  0  0
  1  2  2  0
  2  3  1  0
  3  4  1  0
  4  5  2  0
  5  6  1  0
  6  7  2  0
  7  8  1  0
  4  9  1  0
  8  9  2  0
  2 10  1  0
 10 11  1  0
 11 12  2  0
 12 13  1  0
 13 14  2  0
 11 15  1  0
 14 15  1  0
 14 16  1  0
 16 17  1  0
 17 18  1  0
 13 19  1  0
 18 19  1  0
 20 10  1  1
 20 21  1  0
 21 22  1  0
 22 23  1  0
 23 24  1  6
 23 25  1  0
 20 26  1  0
 25 26  1  0
M  END
