WAR-XCH-b6889685-31
     RDKit          3D

 22 24  0  0  0  0  0  0  0  0999 V2000
    9.5440    6.3350   22.8330 N   0  0  0  0  0  0  0  0  0  0  0  0
   10.8390    5.8600   23.8050 S   0  0  0  0  0  0  0  0  0  0  0  0
   12.0000    6.4710   23.2160 O   0  0  0  0  0  0  0  0  0  0  0  0
   10.4060    6.0780   25.1630 O   0  0  0  0  0  0  0  0  0  0  0  0
   10.8270    4.1460   23.4470 C   0  0  0  0  0  0  0  0  0  0  0  0
    9.5990    3.5370   23.5470 C   0  0  0  0  0  0  0  0  0  0  0  0
    9.4670    2.2040   23.2520 C   0  0  0  0  0  0  0  0  0  0  0  0
   10.5360    1.4240   22.8570 C   0  0  0  0  0  0  0  0  0  0  0  0
   10.1700    0.1140   22.5750 N   0  0  0  0  0  0  0  0  0  0  0  0
   10.6110   -0.9750   23.4360 C   0  0  0  0  0  0  0  0  0  0  0  0
    9.4760   -2.0190   23.7190 C   0  0  0  0  0  0  0  0  0  0  0  0
    8.7050   -2.2410   22.4620 C   0  0  0  0  0  0  0  0  0  0  0  0
    9.7960   -2.4990   21.5510 N   0  0  0  0  0  0  0  0  0  0  0  0
   11.0260   -1.8880   21.8270 C   0  0  0  0  0  0  0  0  0  0  0  0
   11.2440   -0.8080   22.8940 C   0  0  0  0  0  0  0  0  0  0  0  0
   12.6860   -0.3890   22.9010 C   0  0  0  0  0  0  0  0  0  0  0  0
   13.5120   -1.2710   21.7300 S   0  0  0  0  0  0  0  0  0  0  0  0
   12.1870   -2.1710   21.1750 C   0  0  0  0  0  0  0  0  0  0  0  0
    7.9930   -0.9700   22.1060 C   0  0  0  0  0  0  0  0  0  0  0  0
    9.0790   -0.0830   21.6010 C   0  0  0  0  0  0  0  0  0  0  0  0
   11.8190    2.0290   22.7720 C   0  0  0  0  0  0  0  0  0  0  0  0
   11.9480    3.4130   23.0710 C   0  0  0  0  0  0  0  0  0  0  0  0
  2  1  1  0
  2  3  2  0
  2  4  2  0
  2  5  1  0
  5  6  2  0
  6  7  1  0
  7  8  2  0
  8  9  1  0
  9 10  1  0
 10 11  1  0
 11 12  1  0
 12 13  1  0
 13 14  1  0
 14 15  1  0
 15 16  2  0
 16 17  1  0
 14 18  2  0
 17 18  1  0
 12 19  1  0
  9 20  1  0
 19 20  1  0
  8 21  1  0
  5 22  1  0
 21 22  2  0
M  END
