WAR-XCH-eb7b662f-7
     RDKit          3D

 17 18  0  0  0  0  0  0  0  0999 V2000
    8.8460    1.2160   21.1830 O   0  0  0  0  0  0  0  0  0  0  0  0
    8.4100    0.1180   21.5570 C   0  0  0  0  0  0  0  0  0  0  0  0
    7.2250   -0.4280   21.1190 N   0  0  0  0  0  0  0  0  0  0  0  0
    6.4980    0.1200   20.0580 C   0  0  0  0  0  0  0  0  0  0  0  0
    5.2880    0.8540   20.3790 C   0  0  0  0  0  0  0  0  0  0  0  0
    4.5800    1.4160   19.3310 C   0  0  0  0  0  0  0  0  0  0  0  0
    5.0830    1.2360   18.0530 C   0  0  0  0  0  0  0  0  0  0  0  0
    6.2110    0.5520   17.6860 N   0  0  0  0  0  0  0  0  0  0  0  0
    6.8990   -0.0010   18.7240 C   0  0  0  0  0  0  0  0  0  0  0  0
    9.0530   -0.7070   22.4550 N   0  0  0  0  0  0  0  0  0  0  0  0
   10.3770   -0.4860   22.8310 C   0  0  0  0  0  0  0  0  0  0  0  0
   10.9380    0.9840   22.6880 C   0  0  0  0  0  0  0  0  0  0  0  0
   12.3950    1.1640   23.0870 C   0  0  0  0  0  0  0  0  0  0  0  0
   12.7500   -0.1480   23.4920 C   0  0  0  0  0  0  0  0  0  0  0  0
   12.4440   -1.4750   23.7000 C   0  0  0  0  0  0  0  0  0  0  0  0
   13.3650   -2.7610   24.2920 Cl  0  0  0  0  0  0  0  0  0  0  0  0
   11.1100   -1.6310   23.3120 C   0  0  0  0  0  0  0  0  0  0  0  0
  1  2  2  0
  2  3  1  0
  3  4  1  0
  4  5  2  0
  5  6  1  0
  6  7  2  0
  7  8  1  0
  4  9  1  0
  8  9  2  0
  2 10  1  0
 10 11  1  0
 11 12  2  0
 12 13  1  0
 13 14  2  0
 14 15  1  0
 15 16  1  0
 11 17  1  0
 15 17  2  0
M  END
