WAR-XCH-b6889685-11
     RDKit          3D

 30 33  0  0  0  0  0  0  0  0999 V2000
    7.6790   -5.2650   28.2870 C   0  0  0  0  0  0  0  0  0  0  0  0
    6.3690   -5.6460   27.6760 C   0  0  0  0  0  0  0  0  0  0  0  0
    5.3340   -6.0960   28.5210 C   0  0  0  0  0  0  0  0  0  0  0  0
    4.0600   -6.4830   28.0550 C   0  0  0  0  0  0  0  0  0  0  0  0
    3.7300   -6.4450   26.6970 C   0  0  0  0  0  0  0  0  0  0  0  0
    4.7980   -5.9700   25.7320 C   0  0  0  0  0  0  0  0  0  0  0  0
    6.1570   -5.5650   26.2860 C   0  0  0  0  0  0  0  0  0  0  0  0
    7.2060   -5.1070   25.2470 C   0  0  0  0  0  0  0  0  0  0  0  0
    7.3560   -3.6150   25.0300 C   0  0  0  0  0  0  0  0  0  0  0  0
    8.5800   -3.2080   24.4420 C   0  0  0  0  0  0  0  0  0  0  0  0
    9.6440   -3.4580   25.4300 N   0  0  0  0  0  0  0  0  0  0  0  0
   11.0100   -3.4550   24.9120 C   0  0  0  0  0  0  0  0  0  0  0  0
   11.4070   -2.3210   24.2270 C   0  0  0  0  0  0  0  0  0  0  0  0
   11.8010   -2.4840   22.9360 C   0  0  0  0  0  0  0  0  0  0  0  0
   11.8420   -1.3680   22.1480 C   0  0  0  0  0  0  0  0  0  0  0  0
   12.4950   -0.3330   22.8880 N   0  0  0  0  0  0  0  0  0  0  0  0
   11.9310    0.9170   23.1200 C   0  0  0  0  0  0  0  0  0  0  0  0
   10.6530    1.0830   23.6090 C   0  0  0  0  0  0  0  0  0  0  0  0
   10.0740    2.4760   23.8350 C   0  0  0  0  0  0  0  0  0  0  0  0
   10.8080    3.6520   23.5560 C   0  0  0  0  0  0  0  0  0  0  0  0
   10.1070    5.2650   23.8230 S   0  0  0  0  0  0  0  0  0  0  0  0
    8.9310    5.3600   22.6220 N   0  0  0  0  0  0  0  0  0  0  0  0
   11.1210    6.2440   23.5070 O   0  0  0  0  0  0  0  0  0  0  0  0
    9.3580    5.2740   25.0710 O   0  0  0  0  0  0  0  0  0  0  0  0
   12.0990    3.5030   23.0700 C   0  0  0  0  0  0  0  0  0  0  0  0
   12.6510    2.0980   22.8620 C   0  0  0  0  0  0  0  0  0  0  0  0
   13.3570   -0.8930   23.8640 C   0  0  0  0  0  0  0  0  0  0  0  0
   12.5720   -1.6170   24.9040 C   0  0  0  0  0  0  0  0  0  0  0  0
    9.5130   -4.6930   26.1730 C   0  0  0  0  0  0  0  0  0  0  0  0
    8.5510   -5.7170   25.6300 C   0  0  0  0  0  0  0  0  0  0  0  0
  1  2  1  0
  2  3  2  0
  3  4  1  0
  4  5  2  0
  5  6  1  0
  2  7  1  0
  6  7  2  0
  7  8  1  0
  8  9  1  0
  9 10  1  0
 10 11  1  0
 11 12  1  0
 12 13  1  0
 13 14  1  0
 14 15  1  0
 15 16  1  0
 16 17  1  0
 17 18  2  0
 18 19  1  0
 19 20  2  0
 20 21  1  0
 21 22  1  0
 21 23  2  0
 21 24  2  0
 20 25  1  0
 17 26  1  0
 25 26  2  0
 16 27  1  0
 13 28  1  0
 27 28  1  0
 11 29  1  0
  8 30  1  0
 29 30  1  0
M  END
