WAR-XCH-bdd24732-29
     RDKit          3D

 26 29  0  0  0  0  0  0  0  0999 V2000
    5.9790   -2.5100   24.3430 O   0  0  0  0  0  0  0  0  0  0  0  0
    6.7570   -3.3820   23.9670 C   0  0  0  0  0  0  0  0  0  0  0  0
    6.2760   -4.6550   23.4840 N   0  0  0  0  0  0  0  0  0  0  0  0
    4.9240   -4.8960   23.3480 C   0  0  0  0  0  0  0  0  0  0  0  0
    4.6060   -6.2850   22.8530 C   0  0  0  0  0  0  0  0  0  0  0  0
    3.1820   -6.6890   23.2360 C   0  0  0  0  0  0  0  0  0  0  0  0
    3.0100   -6.8940   24.7360 C   0  0  0  0  0  0  0  0  0  0  0  0
    4.0190   -5.9980   25.4610 C   0  0  0  0  0  0  0  0  0  0  0  0
    4.1930   -4.6600   24.6860 C   0  0  0  0  0  0  0  0  0  0  0  0
    8.0930   -3.1820   23.9800 N   0  0  0  0  0  0  0  0  0  0  0  0
    8.9690   -4.2940   24.4960 C   0  0  0  0  0  0  0  0  0  0  0  0
    9.4940   -5.3100   25.4330 C   0  0  0  0  0  0  0  0  0  0  0  0
    8.6750   -4.9810   26.2320 C   0  0  0  0  0  0  0  0  0  0  0  0
    8.3000   -5.2750   27.3450 C   0  0  0  0  0  0  0  0  0  0  0  0
    7.8650   -4.1150   26.0450 S   0  0  0  0  0  0  0  0  0  0  0  0
    7.3260   -4.8740   28.2490 C   0  0  0  0  0  0  0  0  0  0  0  0
    6.7950   -3.6160   27.9800 C   0  0  0  0  0  0  0  0  0  0  0  0
    7.4160   -3.0220   26.8750 C   0  0  0  0  0  0  0  0  0  0  0  0
    7.8440   -3.9120   25.8500 C   0  0  0  0  0  0  0  0  0  0  0  0
    8.5610   -2.2240   22.9160 C   0  0  2  0  0  0  0  0  0  0  0  0
    9.4730   -1.1510   23.4970 C   0  0  0  0  0  0  0  0  0  0  0  0
    8.9840    0.1330   23.0520 C   0  0  0  0  0  0  0  0  0  0  0  0
    8.8630    0.2190   21.6850 C   0  0  2  0  0  0  0  0  0  0  0  0
    8.6420    1.5970   21.3350 O   0  0  0  0  0  0  0  0  0  0  0  0
    7.7740   -0.6610   21.0830 C   0  0  0  0  0  0  0  0  0  0  0  0
    7.5090   -1.7260   22.1220 C   0  0  0  0  0  0  0  0  0  0  0  0
  1  2  2  0
  2  3  1  0
  3  4  1  0
  4  5  1  0
  5  6  1  0
  6  7  1  0
  7  8  1  0
  4  9  1  0
  8  9  1  0
  2 10  1  0
 10 11  1  0
 11 12  2  0
 12 13  1  0
 13 14  2  0
 11 15  1  0
 14 15  1  0
 14 16  1  0
 16 17  1  0
 17 18  1  0
 13 19  1  0
 18 19  1  0
 20 10  1  1
 20 21  1  0
 21 22  1  0
 22 23  1  0
 23 24  1  1
 23 25  1  0
 20 26  1  0
 25 26  1  0
M  END
