WAR-XCH-e55cba98-12
     RDKit          3D

 23 25  0  0  0  0  0  0  0  0999 V2000
    9.7190    6.5780   22.6470 N   0  0  0  0  0  0  0  0  0  0  0  0
   10.9680    6.6360   23.7880 S   0  0  0  0  0  0  0  0  0  0  0  0
   10.3990    6.5290   25.1190 O   0  0  0  0  0  0  0  0  0  0  0  0
   11.9730    7.5810   23.4320 O   0  0  0  0  0  0  0  0  0  0  0  0
   11.7750    5.1840   23.4360 C   0  0  0  0  0  0  0  0  0  0  0  0
   10.8850    4.1640   23.8980 C   0  0  0  0  0  0  0  0  0  0  0  0
   11.4240    2.9180   23.6730 C   0  0  0  0  0  0  0  0  0  0  0  0
   12.7940    2.5270   23.0190 C   0  0  0  0  0  0  0  0  0  0  0  0
   13.5810    3.7180   22.5960 C   0  0  0  0  0  0  0  0  0  0  0  0
   14.8560    3.6910   21.9390 C   0  0  0  0  0  0  0  0  0  0  0  0
   16.3690    3.7780   22.5210 C   0  0  0  0  0  0  0  0  0  0  0  0
   17.1370    4.2340   23.7660 C   0  0  0  0  0  0  0  0  0  0  0  0
   18.6530    4.1820   24.2820 C   0  0  0  0  0  0  0  0  0  0  0  0
   19.4040    5.3220   24.4030 C   0  0  0  0  0  0  0  0  0  0  0  0
   20.8400    5.4290   24.8710 C   0  0  0  0  0  0  0  0  0  0  0  0
   21.4880    4.1430   25.2470 C   0  0  0  0  0  0  0  0  0  0  0  0
   20.6150    2.9270   25.1120 C   0  0  0  0  0  0  0  0  0  0  0  0
   19.2060    3.0200   24.6280 N   0  0  0  0  0  0  0  0  0  0  0  0
   14.7950    4.4690   20.6420 C   0  0  0  0  0  0  0  0  0  0  0  0
   15.6450    3.7690   19.8240 C   0  0  0  0  0  0  0  0  0  0  0  0
   15.1260    2.5460   19.8700 C   0  0  0  0  0  0  0  0  0  0  0  0
   14.5880    2.3580   21.1590 C   0  0  0  0  0  0  0  0  0  0  0  0
   13.0550    5.0310   22.8150 C   0  0  0  0  0  0  0  0  0  0  0  0
  2  1  1  0
  2  3  2  0
  2  4  2  0
  2  5  1  0
  5  6  2  0
  6  7  1  0
  7  8  2  0
  8  9  1  0
  9 10  1  0
 10 11  1  0
 11 12  3  0
 12 13  1  0
 13 14  2  0
 14 15  1  0
 15 16  2  0
 16 17  1  0
 13 18  1  0
 17 18  2  0
 10 19  1  0
 19 20  1  0
 20 21  1  0
 10 22  1  0
 21 22  1  0
  5 23  1  0
  9 23  2  0
M  END
