WAR-XCH-bdd24732-47
     RDKit          3D

 27 29  0  0  0  0  0  0  0  0999 V2000
    6.7850   -6.3450   29.1320 C   0  0  0  0  0  0  0  0  0  0  0  0
    6.8280   -5.1440   28.2770 C   0  0  0  0  0  0  0  0  0  0  0  0
    5.6330   -5.1370   27.4160 C   0  0  0  0  0  0  0  0  0  0  0  0
    5.4510   -4.0260   26.4150 C   0  0  0  0  0  0  0  0  0  0  0  0
    6.5130   -2.9630   26.3770 C   0  0  0  0  0  0  0  0  0  0  0  0
    6.3900   -1.6100   25.1920 S   0  0  0  0  0  0  0  0  0  0  0  0
    6.8180   -0.4290   25.8720 O   0  0  0  0  0  0  0  0  0  0  0  0
    5.1110   -1.6340   24.5500 O   0  0  0  0  0  0  0  0  0  0  0  0
    7.5910   -2.0660   24.0720 N   0  0  0  0  0  0  0  0  0  0  0  0
    7.7290   -1.3730   22.7590 C   0  0  0  0  0  0  0  0  0  0  0  0
    6.9220   -2.0530   21.6430 C   0  0  0  0  0  0  0  0  0  0  0  0
    6.5940   -1.3770   20.2890 C   0  0  0  0  0  0  0  0  0  0  0  0
    5.7490   -2.1060   19.1910 C   0  0  0  0  0  0  0  0  0  0  0  0
    5.3370   -3.3810   19.5540 C   0  0  0  0  0  0  0  0  0  0  0  0
    6.0680   -2.8280   20.5580 C   0  0  0  0  0  0  0  0  0  0  0  0
    6.4240   -3.3260   21.7990 C   0  0  0  0  0  0  0  0  0  0  0  0
    5.7730   -4.4970   21.5270 C   0  0  0  0  0  0  0  0  0  0  0  0
    8.1970   -3.4070   24.2250 C   0  0  1  0  0  0  0  0  0  0  0  0
    8.6010   -3.5900   25.5280 C   0  0  0  0  0  0  0  0  0  0  0  0
    7.6140   -4.1960   26.4030 C   0  0  0  0  0  0  0  0  0  0  0  0
    7.8050   -5.6030   26.0570 C   0  0  1  0  0  0  0  0  0  0  0  0
    6.9900   -6.3700   26.9400 O   0  0  0  0  0  0  0  0  0  0  0  0
    7.4480   -5.7020   24.6500 C   0  0  0  0  0  0  0  0  0  0  0  0
    7.2960   -4.5670   23.8610 C   0  0  0  0  0  0  0  0  0  0  0  0
    7.5810   -3.0410   27.2580 C   0  0  0  0  0  0  0  0  0  0  0  0
    8.4810   -1.9140   27.1560 C   0  0  0  0  0  0  0  0  0  0  0  0
    7.7730   -4.1130   28.1940 C   0  0  0  0  0  0  0  0  0  0  0  0
  1  2  1  0
  2  3  2  0
  3  4  1  0
  4  5  2  0
  5  6  1  0
  6  7  2  0
  6  8  2  0
  6  9  1  0
  9 10  1  0
 10 11  1  0
 11 12  2  0
 12 13  1  0
 13 14  2  0
 14 15  1  0
 11 16  1  0
 15 16  2  0
 16 17  1  0
 18  9  1  1
 18 19  1  0
 19 20  1  0
 20 21  1  0
 21 22  1  1
 21 23  1  0
 18 24  1  0
 23 24  1  0
  5 25  1  0
 25 26  1  0
  2 27  1  0
 25 27  2  0
M  END
