WAR-XCH-b72a1bbc-6
     RDKit          3D

 22 24  0  0  0  0  0  0  0  0999 V2000
    9.6060    6.7340   22.0480 N   0  0  0  0  0  0  0  0  0  0  0  0
   10.8130    6.5340   23.1860 S   0  0  0  0  0  0  0  0  0  0  0  0
   11.8180    7.5270   23.1620 O   0  0  0  0  0  0  0  0  0  0  0  0
   10.0800    6.2780   24.4100 O   0  0  0  0  0  0  0  0  0  0  0  0
   11.7150    5.0820   22.8430 C   0  0  0  0  0  0  0  0  0  0  0  0
   11.2980    4.0350   22.2170 C   0  0  0  0  0  0  0  0  0  0  0  0
   11.8940    2.7950   22.0150 C   0  0  0  0  0  0  0  0  0  0  0  0
   13.1490    2.5960   22.6400 C   0  0  0  0  0  0  0  0  0  0  0  0
   13.7420    0.9490   22.6320 N   0  0  0  0  0  0  0  0  0  0  0  0
   13.4710   -0.2260   23.6890 C   0  0  0  0  0  0  0  0  0  0  0  0
   13.5900   -1.7680   23.6680 C   0  0  0  0  0  0  0  0  0  0  0  0
   12.3100   -2.1960   22.9910 C   0  0  0  0  0  0  0  0  0  0  0  0
   11.1060   -2.7100   23.8070 C   0  0  0  0  0  0  0  0  0  0  0  0
    9.7570   -2.6260   23.5230 C   0  0  0  0  0  0  0  0  0  0  0  0
    8.9510   -3.2540   24.5230 C   0  0  0  0  0  0  0  0  0  0  0  0
    9.7040   -3.8030   25.5510 C   0  0  0  0  0  0  0  0  0  0  0  0
    9.1000   -4.6510   26.9180 Cl  0  0  0  0  0  0  0  0  0  0  0  0
   11.3690   -3.5840   25.3730 S   0  0  0  0  0  0  0  0  0  0  0  0
   12.0570   -1.0790   22.0180 C   0  0  0  0  0  0  0  0  0  0  0  0
   13.4110   -0.3140   21.8110 C   0  0  0  0  0  0  0  0  0  0  0  0
   13.5550    3.9130   23.1700 C   0  0  0  0  0  0  0  0  0  0  0  0
   12.8840    5.0430   23.2670 C   0  0  0  0  0  0  0  0  0  0  0  0
  2  1  1  0
  2  3  2  0
  2  4  2  0
  2  5  1  0
  5  6  2  0
  6  7  1  0
  7  8  2  0
  8  9  1  0
  9 10  1  0
 10 11  1  0
 11 12  1  0
 12 13  1  0
 13 14  2  0
 14 15  1  0
 15 16  2  0
 16 17  1  0
 13 18  1  0
 16 18  1  0
 12 19  1  0
  9 20  1  0
 19 20  1  0
  8 21  1  0
  5 22  1  0
 21 22  2  0
M  END
