WAR-XCH-b72a1bbc-13
     RDKit          3D

 32 36  0  0  0  0  0  0  0  0999 V2000
   27.0870  -14.0430   25.9590 N   0  0  0  0  0  0  0  0  0  0  0  0
   25.5650  -14.2630   26.6540 S   0  0  0  0  0  0  0  0  0  0  0  0
   25.7510  -14.4670   28.0710 O   0  0  0  0  0  0  0  0  0  0  0  0
   24.7250  -13.2570   26.0800 O   0  0  0  0  0  0  0  0  0  0  0  0
   25.0160  -15.7410   25.8990 C   0  0  0  0  0  0  0  0  0  0  0  0
   25.9520  -16.5250   25.2540 C   0  0  0  0  0  0  0  0  0  0  0  0
   25.5310  -17.6920   24.6460 C   0  0  0  0  0  0  0  0  0  0  0  0
   24.1890  -18.0980   24.6690 C   0  0  0  0  0  0  0  0  0  0  0  0
   23.8790  -19.2850   24.0360 N   0  0  0  0  0  0  0  0  0  0  0  0
   22.5710  -19.8220   24.1510 C   0  0  0  0  0  0  0  0  0  0  0  0
   22.4740  -21.3100   23.7380 C   0  0  0  0  0  0  0  0  0  0  0  0
   23.4300  -21.8260   22.6190 C   0  0  0  0  0  0  0  0  0  0  0  0
   22.7290  -22.1120   21.3280 N   0  0  0  0  0  0  0  0  0  0  0  0
   23.5840  -21.8880   20.2220 C   0  0  0  0  0  0  0  0  0  0  0  0
   22.9250  -22.9400   19.4960 C   0  0  0  0  0  0  0  0  0  0  0  0
   22.7760  -24.2480   20.2740 C   0  0  0  0  0  0  0  0  0  0  0  0
   22.0510  -25.4280   19.5400 C   0  0  0  0  0  0  0  0  0  0  0  0
   21.5310  -25.2180   18.0650 C   0  0  0  0  0  0  0  0  0  0  0  0
   21.7670  -23.8530   17.4760 C   0  0  0  0  0  0  0  0  0  0  0  0
   22.4130  -23.0310   18.3430 C   0  0  0  0  0  0  0  0  0  0  0  0
   22.4730  -24.0640   19.3600 C   0  0  2  0  0  0  0  0  0  0  0  0
   22.1080  -25.4370   19.1510 C   0  0  0  0  0  0  0  0  0  0  0  0
   22.9540  -26.4770   19.6390 C   0  0  0  0  0  0  0  0  0  0  0  0
   22.6070  -27.8330   19.4380 C   0  0  0  0  0  0  0  0  0  0  0  0
   21.4390  -28.1870   18.7650 C   0  0  0  0  0  0  0  0  0  0  0  0
   20.6010  -27.1980   18.2800 C   0  0  0  0  0  0  0  0  0  0  0  0
   20.9330  -25.8430   18.4690 C   0  0  0  0  0  0  0  0  0  0  0  0
   22.1660  -23.5040   20.9280 C   0  0  0  0  0  0  0  0  0  0  0  0
   24.6810  -20.9230   22.4510 C   0  0  0  0  0  0  0  0  0  0  0  0
   24.3940  -19.4450   22.6930 C   0  0  0  0  0  0  0  0  0  0  0  0
   23.2610  -17.2810   25.3340 C   0  0  0  0  0  0  0  0  0  0  0  0
   23.6710  -16.0990   25.9530 C   0  0  0  0  0  0  0  0  0  0  0  0
  2  1  1  0
  2  3  2  0
  2  4  2  0
  2  5  1  0
  5  6  2  0
  6  7  1  0
  7  8  2  0
  8  9  1  0
  9 10  1  0
 10 11  1  0
 11 12  1  0
 12 13  1  0
 13 14  1  0
 14 15  1  0
 15 16  2  0
 16 17  1  0
 17 18  2  0
 18 19  1  0
 15 20  1  0
 19 20  2  0
 20 21  1  0
 21 22  1  6
 22 23  2  0
 23 24  1  0
 24 25  2  0
 25 26  1  0
 22 27  1  0
 26 27  2  0
 13 28  1  0
 21 28  1  0
 12 29  1  0
  9 30  1  0
 29 30  1  0
  8 31  1  0
  5 32  1  0
 31 32  2  0
M  END
