WAR-XCH-b72a1bbc-31
     RDKit          3D

 29 32  0  0  0  0  0  0  0  0999 V2000
    8.7290    6.0860   22.7560 N   0  0  0  0  0  0  0  0  0  0  0  0
    9.8650    5.9250   23.9900 S   0  0  0  0  0  0  0  0  0  0  0  0
   11.0800    6.5310   23.5120 O   0  0  0  0  0  0  0  0  0  0  0  0
    9.2290    6.3760   25.2000 O   0  0  0  0  0  0  0  0  0  0  0  0
   10.0240    4.1720   24.0740 C   0  0  0  0  0  0  0  0  0  0  0  0
    8.9140    3.4090   24.3830 C   0  0  0  0  0  0  0  0  0  0  0  0
    9.0090    2.0280   24.4540 C   0  0  0  0  0  0  0  0  0  0  0  0
   10.1980    1.3770   24.2210 C   0  0  0  0  0  0  0  0  0  0  0  0
   10.1970   -0.0000   24.3090 N   0  0  0  0  0  0  0  0  0  0  0  0
   11.1860   -0.6790   25.1290 C   0  0  0  0  0  0  0  0  0  0  0  0
   11.4930   -1.9320   24.3590 C   0  0  0  0  0  0  0  0  0  0  0  0
   10.7620   -1.7120   23.0460 C   0  0  0  0  0  0  0  0  0  0  0  0
   11.5740   -2.3400   21.9820 C   0  0  0  0  0  0  0  0  0  0  0  0
   12.9550   -2.1360   22.2210 N   0  0  0  0  0  0  0  0  0  0  0  0
   13.3830   -2.7230   23.4670 C   0  0  0  0  0  0  0  0  0  0  0  0
   13.1810   -1.9030   24.7260 C   0  0  0  0  0  0  0  0  0  0  0  0
   12.5750   -0.4990   24.5500 C   0  0  0  0  0  0  0  0  0  0  0  0
   13.0150    0.2250   23.2760 C   0  0  2  0  0  0  0  0  0  0  0  0
   12.2700    1.5210   22.8860 C   0  0  0  0  0  0  0  0  0  0  0  0
   10.9240    1.7980   22.6180 C   0  0  0  0  0  0  0  0  0  0  0  0
   10.6960    3.1900   22.2560 C   0  0  0  0  0  0  0  0  0  0  0  0
   11.8790    3.9020   22.2700 C   0  0  0  0  0  0  0  0  0  0  0  0
   12.2250    5.5410   21.9280 Cl  0  0  0  0  0  0  0  0  0  0  0  0
   13.1720    2.9760   22.6980 S   0  0  0  0  0  0  0  0  0  0  0  0
   12.9670   -0.7200   22.1110 C   0  0  0  0  0  0  0  0  0  0  0  0
    9.2740   -1.9150   23.2200 C   0  0  0  0  0  0  0  0  0  0  0  0
    8.9070   -0.7170   24.0890 C   0  0  0  0  0  0  0  0  0  0  0  0
   11.3120    2.1630   23.9140 C   0  0  0  0  0  0  0  0  0  0  0  0
   11.2290    3.5690   23.8390 C   0  0  0  0  0  0  0  0  0  0  0  0
  2  1  1  0
  2  3  2  0
  2  4  2  0
  2  5  1  0
  5  6  2  0
  6  7  1  0
  7  8  2  0
  8  9  1  0
  9 10  1  0
 10 11  1  0
 11 12  1  0
 12 13  1  0
 13 14  1  0
 14 15  1  0
 15 16  1  0
 16 17  1  0
 17 18  1  0
 18 19  1  6
 19 20  2  0
 20 21  1  0
 21 22  2  0
 22 23  1  0
 19 24  1  0
 22 24  1  0
 14 25  1  0
 18 25  1  0
 12 26  1  0
  9 27  1  0
 26 27  1  0
  8 28  1  0
  5 29  1  0
 28 29  2  0
M  END
