WAR-XCH-b6889685-37
     RDKit          3D

 29 32  0  0  0  0  0  0  0  0999 V2000
   25.2230  -12.7840   23.4370 N   0  0  0  0  0  0  0  0  0  0  0  0
   24.2680  -13.2640   24.7460 S   0  0  0  0  0  0  0  0  0  0  0  0
   22.9570  -12.6930   24.6290 O   0  0  0  0  0  0  0  0  0  0  0  0
   25.0970  -13.1950   25.9200 O   0  0  0  0  0  0  0  0  0  0  0  0
   24.1740  -14.9530   24.5210 C   0  0  0  0  0  0  0  0  0  0  0  0
   23.7740  -15.7980   25.6860 C   0  0  0  0  0  0  0  0  0  0  0  0
   23.7130  -17.1750   25.5300 C   0  0  0  0  0  0  0  0  0  0  0  0
   24.0210  -17.7680   24.3130 C   0  0  0  0  0  0  0  0  0  0  0  0
   23.9830  -19.0960   24.1740 N   0  0  0  0  0  0  0  0  0  0  0  0
   22.6920  -19.7030   24.4360 C   0  0  0  0  0  0  0  0  0  0  0  0
   22.6740  -21.1900   24.1600 C   0  0  0  0  0  0  0  0  0  0  0  0
   23.2630  -21.3140   22.7930 C   0  0  0  0  0  0  0  0  0  0  0  0
   22.8100  -22.4210   21.9320 N   0  0  0  0  0  0  0  0  0  0  0  0
   23.6430  -22.6840   20.7370 C   0  0  0  0  0  0  0  0  0  0  0  0
   22.9390  -23.4630   19.6510 C   0  0  0  0  0  0  0  0  0  0  0  0
   22.4930  -24.7500   19.9780 C   0  0  0  0  0  0  0  0  0  0  0  0
   21.8800  -25.5490   19.0250 C   0  0  0  0  0  0  0  0  0  0  0  0
   21.7060  -25.0750   17.7400 C   0  0  0  0  0  0  0  0  0  0  0  0
   22.1230  -23.7880   17.3990 C   0  0  0  0  0  0  0  0  0  0  0  0
   21.9470  -23.3220   16.1560 F   0  0  0  0  0  0  0  0  0  0  0  0
   22.7360  -22.9830   18.3500 C   0  0  0  0  0  0  0  0  0  0  0  0
   24.9840  -23.3790   21.1910 C   0  0  0  0  0  0  0  0  0  0  0  0
   25.9550  -22.8690   20.3490 C   0  0  0  0  0  0  0  0  0  0  0  0
   25.4720  -21.5680   19.7810 C   0  0  0  0  0  0  0  0  0  0  0  0
   24.1250  -21.3440   20.0900 C   0  0  0  0  0  0  0  0  0  0  0  0
   24.7400  -21.0750   22.9230 C   0  0  0  0  0  0  0  0  0  0  0  0
   24.8020  -19.5690   23.0360 C   0  0  0  0  0  0  0  0  0  0  0  0
   24.3830  -16.9850   23.2170 C   0  0  0  0  0  0  0  0  0  0  0  0
   24.4670  -15.5020   23.3100 C   0  0  0  0  0  0  0  0  0  0  0  0
  2  1  1  0
  2  3  2  0
  2  4  2  0
  2  5  1  0
  5  6  2  0
  6  7  1  0
  7  8  2  0
  8  9  1  0
  9 10  1  0
 10 11  1  0
 11 12  1  0
 12 13  1  0
 14 13  1  0
 14 15  1  0
 15 16  2  0
 16 17  1  0
 17 18  2  0
 18 19  1  0
 19 20  1  0
 15 21  1  0
 19 21  2  0
 14 22  1  0
 22 23  1  0
 23 24  1  0
 14 25  1  0
 24 25  1  0
 12 26  1  0
  9 27  1  0
 26 27  1  0
  8 28  1  0
  5 29  1  0
 28 29  2  0
M  END
