WAR-XCH-b72a1bbc-9
     RDKit          3D

 18 19  0  0  0  0  0  0  0  0999 V2000
    5.4920   -5.4960   24.4670 C   0  0  0  0  0  0  0  0  0  0  0  0
    5.9280   -4.6520   25.5270 O   0  0  0  0  0  0  0  0  0  0  0  0
    6.8000   -3.5920   25.0980 C   0  0  0  0  0  0  0  0  0  0  0  0
    7.6290   -3.9300   23.9890 C   0  0  0  0  0  0  0  0  0  0  0  0
    7.4790   -3.2340   22.7820 C   0  0  0  0  0  0  0  0  0  0  0  0
    7.7030   -1.8170   23.0530 N   0  0  0  0  0  0  0  0  0  0  0  0
    8.9800   -1.3300   22.9930 C   0  0  0  0  0  0  0  0  0  0  0  0
    9.2630    0.1760   23.1110 C   0  0  0  0  0  0  0  0  0  0  0  0
   10.7140    0.6130   23.0390 C   0  0  0  0  0  0  0  0  0  0  0  0
   11.7110   -0.5220   22.8640 C   0  0  0  0  0  0  0  0  0  0  0  0
   13.3180   -0.1680   22.7970 S   0  0  0  0  0  0  0  0  0  0  0  0
   13.1920    1.5020   22.9130 N   0  0  0  0  0  0  0  0  0  0  0  0
   13.7320   -0.7470   24.0310 O   0  0  0  0  0  0  0  0  0  0  0  0
   13.7210   -0.6100   21.4970 O   0  0  0  0  0  0  0  0  0  0  0  0
   11.4190   -1.8330   22.7610 C   0  0  0  0  0  0  0  0  0  0  0  0
   10.0110   -2.2410   22.8280 C   0  0  0  0  0  0  0  0  0  0  0  0
    7.1040   -1.3990   24.3060 C   0  0  0  0  0  0  0  0  0  0  0  0
    6.0500   -2.3780   24.7220 C   0  0  0  0  0  0  0  0  0  0  0  0
  1  2  1  0
  2  3  1  0
  3  4  1  0
  4  5  1  0
  5  6  1  0
  6  7  1  0
  7  8  2  0
  8  9  1  0
  9 10  2  0
 10 11  1  0
 11 12  1  0
 11 13  2  0
 11 14  2  0
 10 15  1  0
  7 16  1  0
 15 16  2  0
  6 17  1  0
  3 18  1  0
 17 18  1  0
M  END
