WAR-XCH-b72a1bbc-15
     RDKit          3D

 22 24  0  0  0  0  0  0  0  0999 V2000
    9.1550    6.0600   22.6690 N   0  0  0  0  0  0  0  0  0  0  0  0
   10.5150    5.9730   23.6600 S   0  0  0  0  0  0  0  0  0  0  0  0
   11.5570    6.7620   23.0620 O   0  0  0  0  0  0  0  0  0  0  0  0
   10.0260    6.1840   25.0030 O   0  0  0  0  0  0  0  0  0  0  0  0
   10.9450    4.2760   23.4870 C   0  0  0  0  0  0  0  0  0  0  0  0
    9.9220    3.2620   23.8390 C   0  0  0  0  0  0  0  0  0  0  0  0
   10.2400    1.9330   23.7070 C   0  0  0  0  0  0  0  0  0  0  0  0
   11.4830    1.5550   23.2550 C   0  0  0  0  0  0  0  0  0  0  0  0
   11.6800    0.2370   23.1430 N   0  0  0  0  0  0  0  0  0  0  0  0
   12.3600   -0.4390   24.2620 C   0  0  0  0  0  0  0  0  0  0  0  0
   11.3530   -1.2070   25.0880 C   0  0  0  0  0  0  0  0  0  0  0  0
   10.3650   -1.8120   24.1310 C   0  0  0  0  0  0  0  0  0  0  0  0
   11.4310   -2.2580   23.2520 C   0  0  0  0  0  0  0  0  0  0  0  0
   11.1950   -2.2600   21.8000 C   0  0  0  0  0  0  0  0  0  0  0  0
   12.2210   -2.6520   20.9980 C   0  0  0  0  0  0  0  0  0  0  0  0
   13.3840   -3.0220   21.4920 N   0  0  0  0  0  0  0  0  0  0  0  0
   13.5650   -3.0040   22.8430 C   0  0  0  0  0  0  0  0  0  0  0  0
   12.6340   -2.6400   23.7560 C   0  0  0  0  0  0  0  0  0  0  0  0
    9.5730   -0.8130   23.3540 C   0  0  0  0  0  0  0  0  0  0  0  0
   10.5170   -0.3550   22.4420 C   0  0  0  0  0  0  0  0  0  0  0  0
   12.4430    2.5220   22.9310 C   0  0  0  0  0  0  0  0  0  0  0  0
   12.1930    3.8740   23.0380 C   0  0  0  0  0  0  0  0  0  0  0  0
  2  1  1  0
  2  3  2  0
  2  4  2  0
  2  5  1  0
  5  6  2  0
  6  7  1  0
  7  8  2  0
  8  9  1  0
  9 10  1  0
 10 11  1  0
 11 12  1  0
 12 13  1  0
 13 14  2  0
 14 15  1  0
 15 16  2  0
 16 17  1  0
 13 18  1  0
 17 18  2  0
 12 19  1  0
  9 20  1  0
 19 20  1  0
  8 21  1  0
  5 22  1  0
 21 22  2  0
M  END
