WAR-XCH-b72a1bbc-29
     RDKit          3D

 28 31  0  0  0  0  0  0  0  0999 V2000
    9.0280    5.5320   22.6820 N   0  0  0  0  0  0  0  0  0  0  0  0
   10.4690    5.3990   23.5330 S   0  0  0  0  0  0  0  0  0  0  0  0
   11.4070    6.2710   22.8690 O   0  0  0  0  0  0  0  0  0  0  0  0
   10.1120    5.5730   24.9230 O   0  0  0  0  0  0  0  0  0  0  0  0
   10.9480    3.7170   23.2550 C   0  0  0  0  0  0  0  0  0  0  0  0
    9.9990    2.7020   23.2190 C   0  0  0  0  0  0  0  0  0  0  0  0
   10.3990    1.3710   23.0140 C   0  0  0  0  0  0  0  0  0  0  0  0
   11.7510    1.0150   22.8460 C   0  0  0  0  0  0  0  0  0  0  0  0
   12.1490   -0.3340   22.6640 N   0  0  0  0  0  0  0  0  0  0  0  0
   12.4240   -1.0220   23.8910 C   0  0  0  0  0  0  0  0  0  0  0  0
   11.0820   -1.6920   24.3440 C   0  0  0  0  0  0  0  0  0  0  0  0
    9.6700   -1.1090   23.7430 C   0  0  0  0  0  0  0  0  0  0  0  0
    8.2170   -1.6670   24.2390 C   0  0  0  0  0  0  0  0  0  0  0  0
    7.5280   -2.8870   23.7940 N   0  0  0  0  0  0  0  0  0  0  0  0
    6.5540   -2.6340   22.7620 C   0  0  0  0  0  0  0  0  0  0  0  0
    7.2060   -1.7370   21.7020 C   0  0  0  0  0  0  0  0  0  0  0  0
    8.7470   -1.8490   21.6050 C   0  0  0  0  0  0  0  0  0  0  0  0
    9.4060   -2.4410   22.8670 C   0  0  2  0  0  0  0  0  0  0  0  0
   10.9200   -2.5310   22.8350 C   0  0  0  0  0  0  0  0  0  0  0  0
   11.8440   -2.9500   23.8000 C   0  0  0  0  0  0  0  0  0  0  0  0
   13.1930   -2.8390   23.3250 C   0  0  0  0  0  0  0  0  0  0  0  0
   13.2540   -2.2380   21.7340 S   0  0  0  0  0  0  0  0  0  0  0  0
   11.5790   -2.1330   21.7030 C   0  0  0  0  0  0  0  0  0  0  0  0
    8.5990   -3.6410   23.2810 C   0  0  0  0  0  0  0  0  0  0  0  0
    9.8060   -0.8920   22.2490 C   0  0  0  0  0  0  0  0  0  0  0  0
   11.2210   -1.2560   21.9680 C   0  0  0  0  0  0  0  0  0  0  0  0
   12.6660    2.0680   22.8800 C   0  0  0  0  0  0  0  0  0  0  0  0
   12.2900    3.4030   23.0730 C   0  0  0  0  0  0  0  0  0  0  0  0
  2  1  1  0
  2  3  2  0
  2  4  2  0
  2  5  1  0
  5  6  2  0
  6  7  1  0
  7  8  2  0
  8  9  1  0
  9 10  1  0
 10 11  1  0
 11 12  1  0
 12 13  1  0
 13 14  1  0
 14 15  1  0
 15 16  1  0
 16 17  1  0
 17 18  1  0
 18 19  1  6
 19 20  1  0
 20 21  2  0
 21 22  1  0
 19 23  2  0
 22 23  1  0
 14 24  1  0
 18 24  1  0
 12 25  1  0
  9 26  1  0
 25 26  1  0
  8 27  1  0
  5 28  1  0
 27 28  2  0
M  END
