WAR-XCH-b6889685-63
     RDKit          3D

 27 29  0  0  0  0  0  0  0  0999 V2000
   12.2310    2.6740   22.9600 C   0  0  0  0  0  0  0  0  0  0  0  0
   11.0500    1.7630   22.6700 C   0  0  0  0  0  0  0  0  0  0  0  0
   11.7950    0.6920   22.6860 C   0  0  0  0  0  0  0  0  0  0  0  0
   13.0290    0.3010   22.8490 C   0  0  0  0  0  0  0  0  0  0  0  0
   12.6420   -0.9470   22.6450 C   0  0  0  0  0  0  0  0  0  0  0  0
   11.1980   -0.8680   22.4140 C   0  0  0  0  0  0  0  0  0  0  0  0
   10.3870    0.4430   22.4150 C   0  0  0  0  0  0  0  0  0  0  0  0
    8.8530    0.3870   22.1150 C   0  0  1  0  0  0  0  0  0  0  0  0
    8.5320    1.7870   21.5840 C   0  0  0  0  0  0  0  0  0  0  0  0
    8.3590   -0.7070   21.1990 N   0  0  0  0  0  0  0  0  0  0  0  0
    8.5580   -2.0010   21.8720 C   0  0  0  0  0  0  0  0  0  0  0  0
    7.0060   -0.5600   20.5150 C   0  0  0  0  0  0  0  0  0  0  0  0
    7.0350    0.0500   19.0580 C   0  0  0  0  0  0  0  0  0  0  0  0
    5.6620    0.4200   18.4280 C   0  0  0  0  0  0  0  0  0  0  0  0
    4.8110    1.0660   19.4470 N   0  0  0  0  0  0  0  0  0  0  0  0
    3.6980    1.8990   19.3420 C   0  0  0  0  0  0  0  0  0  0  0  0
    3.6660    2.9690   18.4790 C   0  0  0  0  0  0  0  0  0  0  0  0
    2.5630    3.8450   18.3850 C   0  0  0  0  0  0  0  0  0  0  0  0
    1.4480    3.6410   19.1850 C   0  0  0  0  0  0  0  0  0  0  0  0
    0.0530    4.7410   19.1010 S   0  0  0  0  0  0  0  0  0  0  0  0
   -1.1150    3.8910   19.9710 N   0  0  0  0  0  0  0  0  0  0  0  0
    0.3590    5.9250   19.8660 O   0  0  0  0  0  0  0  0  0  0  0  0
   -0.4300    4.8140   17.7440 O   0  0  0  0  0  0  0  0  0  0  0  0
    1.4330    2.5700   20.0600 C   0  0  0  0  0  0  0  0  0  0  0  0
    2.5480    1.7280   20.1210 C   0  0  0  0  0  0  0  0  0  0  0  0
    5.5310    1.3800   20.6450 C   0  0  0  0  0  0  0  0  0  0  0  0
    5.9010    0.1000   21.3350 C   0  0  0  0  0  0  0  0  0  0  0  0
  1  2  1  0
  2  3  2  0
  3  4  1  0
  4  5  2  0
  5  6  1  0
  2  7  1  0
  6  7  2  0
  7  8  1  0
  8  9  1  6
  8 10  1  0
 10 11  1  0
 10 12  1  0
 12 13  1  0
 13 14  1  0
 14 15  1  0
 15 16  1  0
 16 17  2  0
 17 18  1  0
 18 19  2  0
 19 20  1  0
 20 21  1  0
 20 22  2  0
 20 23  2  0
 19 24  1  0
 16 25  1  0
 24 25  2  0
 15 26  1  0
 12 27  1  0
 26 27  1  0
M  END
