WAR-XCH-b6889685-52
     RDKit          3D

 33 37  0  0  0  0  0  0  0  0999 V2000
    8.8420    5.4050   22.5470 N   0  0  0  0  0  0  0  0  0  0  0  0
   10.2910    5.4730   23.3980 S   0  0  0  0  0  0  0  0  0  0  0  0
    9.9670    5.5810   24.7880 O   0  0  0  0  0  0  0  0  0  0  0  0
   11.0890    6.4850   22.7800 O   0  0  0  0  0  0  0  0  0  0  0  0
   11.0450    3.8770   23.1660 C   0  0  0  0  0  0  0  0  0  0  0  0
   10.2660    2.6080   23.2030 C   0  0  0  0  0  0  0  0  0  0  0  0
   10.9350    1.3560   23.0690 C   0  0  0  0  0  0  0  0  0  0  0  0
   12.3190    1.2820   22.9110 C   0  0  0  0  0  0  0  0  0  0  0  0
   13.0390    0.0630   22.8600 N   0  0  0  0  0  0  0  0  0  0  0  0
   12.8940   -0.7690   23.9950 C   0  0  0  0  0  0  0  0  0  0  0  0
   11.4040   -1.1140   24.0420 C   0  0  0  0  0  0  0  0  0  0  0  0
   10.7580   -1.4090   22.6590 C   0  0  0  0  0  0  0  0  0  0  0  0
    9.6780   -0.4530   22.0850 N   0  0  0  0  0  0  0  0  0  0  0  0
    8.4770   -0.9200   21.2930 C   0  0  0  0  0  0  0  0  0  0  0  0
    7.1910   -1.1840   22.1040 C   0  0  0  0  0  0  0  0  0  0  0  0
    7.0600   -0.6200   23.3910 C   0  0  0  0  0  0  0  0  0  0  0  0
    7.7950   -1.6990   24.7080 S   0  0  0  0  0  0  0  0  0  0  0  0
    9.1800   -2.0420   23.6560 C   0  0  0  0  0  0  0  0  0  0  0  0
    8.6460   -2.2520   22.4370 C   0  0  0  0  0  0  0  0  0  0  0  0
    9.3930   -2.5090   21.3950 C   0  0  0  0  0  0  0  0  0  0  0  0
   10.7360   -2.6130   21.4630 C   0  0  0  0  0  0  0  0  0  0  0  0
   11.3590   -2.4580   22.6360 C   0  0  0  0  0  0  0  0  0  0  0  0
   12.7210   -2.6290   22.6680 C   0  0  0  0  0  0  0  0  0  0  0  0
   13.4920   -2.4700   23.9100 C   0  0  0  0  0  0  0  0  0  0  0  0
   12.9050   -2.0980   25.0830 C   0  0  0  0  0  0  0  0  0  0  0  0
   11.5230   -1.9210   25.0160 C   0  0  0  0  0  0  0  0  0  0  0  0
   10.6530   -2.1330   23.7990 C   0  0  0  0  0  0  0  0  0  0  0  0
    7.7560    0.7400   23.3170 C   0  0  0  0  0  0  0  0  0  0  0  0
    9.2430    0.7070   22.8920 C   0  0  0  0  0  0  0  0  0  0  0  0
   11.9270   -1.7260   21.6600 C   0  0  0  0  0  0  0  0  0  0  0  0
   13.2130   -0.9130   21.8230 C   0  0  0  0  0  0  0  0  0  0  0  0
   12.9740    2.5170   22.8400 C   0  0  0  0  0  0  0  0  0  0  0  0
   12.3940    3.7810   22.9580 C   0  0  0  0  0  0  0  0  0  0  0  0
  2  1  1  0
  2  3  2  0
  2  4  2  0
  2  5  1  0
  5  6  2  0
  6  7  1  0
  7  8  2  0
  8  9  1  0
  9 10  1  0
 10 11  1  0
 11 12  1  0
 12 13  1  0
 13 14  1  0
 14 15  1  0
 15 16  1  0
 16 17  1  0
 17 18  1  0
 18 19  2  0
 19 20  1  0
 20 21  2  0
 21 22  1  0
 22 23  1  0
 23 24  2  0
 24 25  1  0
 25 26  2  0
 18 27  1  0
 22 27  2  0
 26 27  1  0
 16 28  1  0
 13 29  1  0
 28 29  1  0
 12 30  1  0
  9 31  1  0
 30 31  1  0
  8 32  1  0
  5 33  1  0
 32 33  2  0
M  END
