WAR-XCH-72a8c209-3
     RDKit          3D

 26 28  0  0  0  0  0  0  0  0999 V2000
   -1.6910   -4.9540   21.3650 C   0  0  0  0  0  0  0  0  0  0  0  0
   -1.6620   -4.6850   22.7670 O   0  0  0  0  0  0  0  0  0  0  0  0
   -0.5300   -5.0510   23.4440 C   0  0  0  0  0  0  0  0  0  0  0  0
    0.6200   -5.7610   22.8740 C   0  0  0  0  0  0  0  0  0  0  0  0
    1.7600   -6.1040   23.6340 C   0  0  0  0  0  0  0  0  0  0  0  0
    1.8780   -5.7970   25.0100 C   0  0  0  0  0  0  0  0  0  0  0  0
    3.0070   -6.1680   25.7360 C   0  0  0  0  0  0  0  0  0  0  0  0
    4.0100   -5.1630   25.9130 C   0  0  0  0  0  0  0  0  0  0  0  0
    5.4740   -5.4690   25.5390 C   0  0  0  0  0  0  0  0  0  0  0  0
    6.2600   -6.0120   26.3120 O   0  0  0  0  0  0  0  0  0  0  0  0
    5.7840   -5.0210   24.2590 N   0  0  0  0  0  0  0  0  0  0  0  0
    4.5920   -4.7220   23.5640 C   0  0  0  0  0  0  0  0  0  0  0  0
    4.4370   -3.2810   23.4770 C   0  0  0  0  0  0  0  0  0  0  0  0
    5.2090   -2.1050   23.5660 C   0  0  0  0  0  0  0  0  0  0  0  0
    5.0460   -1.3890   24.7670 C   0  0  0  0  0  0  0  0  0  0  0  0
    3.7530   -0.9980   24.9970 N   0  0  0  0  0  0  0  0  0  0  0  0
    6.0930   -1.1300   25.6030 O   0  0  0  0  0  0  0  0  0  0  0  0
    6.5040   -2.6300   23.4310 C   0  0  0  0  0  0  0  0  0  0  0  0
    6.7610   -3.8630   24.3470 C   0  0  0  0  0  0  0  0  0  0  0  0
    2.7840   -6.9000   26.9180 C   0  0  0  0  0  0  0  0  0  0  0  0
    1.8100   -8.0700   26.8530 C   0  0  0  0  0  0  0  0  0  0  0  0
    2.0510   -8.9330   25.6120 C   0  0  0  0  0  0  0  0  0  0  0  0
    2.5580   -8.1650   24.5230 C   0  0  0  0  0  0  0  0  0  0  0  0
    3.7160   -7.2300   24.9110 C   0  0  0  0  0  0  0  0  0  0  0  0
    0.8100   -5.1180   25.6040 C   0  0  0  0  0  0  0  0  0  0  0  0
   -0.4250   -4.7330   24.8090 C   0  0  0  0  0  0  0  0  0  0  0  0
  1  2  1  0
  2  3  1  0
  3  4  2  0
  4  5  1  0
  5  6  2  0
  6  7  1  0
  7  8  1  0
  8  9  1  0
  9 10  2  0
  9 11  1  0
 11 12  1  0
 12 13  1  0
 13 14  1  0
 14 15  1  0
 15 16  1  0
 15 17  2  0
 14 18  1  0
 11 19  1  0
 18 19  1  0
  7 20  1  0
 20 21  1  0
 21 22  1  0
 22 23  1  0
  7 24  1  0
 23 24  1  0
  6 25  1  0
  3 26  1  0
 25 26  2  0
M  END
