WAR-XCH-b72a1bbc-43
     RDKit          3D

 25 27  0  0  0  0  0  0  0  0999 V2000
    4.4150    2.2010   18.1910 C   0  0  0  0  0  0  0  0  0  0  0  0
    5.2510    1.4330   18.9210 C   0  0  0  0  0  0  0  0  0  0  0  0
    6.2730    0.7140   18.3360 C   0  0  0  0  0  0  0  0  0  0  0  0
    7.1370   -0.0530   19.1310 C   0  0  0  0  0  0  0  0  0  0  0  0
    6.9580   -0.0810   20.5280 C   0  0  0  0  0  0  0  0  0  0  0  0
    7.8290   -0.8060   21.3230 N   0  0  0  0  0  0  0  0  0  0  0  0
    9.1430   -0.2260   21.5580 C   0  0  0  0  0  0  0  0  0  0  0  0
    9.6740   -0.1290   22.9910 C   0  0  0  0  0  0  0  0  0  0  0  0
    9.2190    1.1260   23.7690 C   0  0  0  0  0  0  0  0  0  0  0  0
    9.4820    2.4500   23.0290 C   0  0  0  0  0  0  0  0  0  0  0  0
   10.8280    2.5520   22.4510 N   0  0  0  0  0  0  0  0  0  0  0  0
   11.7310    3.5130   22.9250 C   0  0  0  0  0  0  0  0  0  0  0  0
   11.6990    4.7930   23.7620 C   0  0  0  0  0  0  0  0  0  0  0  0
   13.1360    5.3220   24.2270 C   0  0  0  0  0  0  0  0  0  0  0  0
   14.5040    4.5130   23.7930 C   0  0  0  0  0  0  0  0  0  0  0  0
   16.7470    4.4360   24.5180 S   0  0  0  0  0  0  0  0  0  0  0  0
   17.5940    3.1200   24.3980 N   0  0  0  0  0  0  0  0  0  0  0  0
   16.9770    3.6240   25.6760 O   0  0  0  0  0  0  0  0  0  0  0  0
   18.0090    5.0770   24.1970 O   0  0  0  0  0  0  0  0  0  0  0  0
   14.0580    3.4860   22.8460 C   0  0  0  0  0  0  0  0  0  0  0  0
   12.8650    3.0930   22.5440 C   0  0  0  0  0  0  0  0  0  0  0  0
   11.6990    1.3140   22.8280 C   0  0  0  0  0  0  0  0  0  0  0  0
   11.1800   -0.0210   22.9240 C   0  0  0  0  0  0  0  0  0  0  0  0
    5.9030    0.6440   21.0640 C   0  0  0  0  0  0  0  0  0  0  0  0
    5.0650    1.3880   20.2750 C   0  0  0  0  0  0  0  0  0  0  0  0
  1  2  1  0
  2  3  2  0
  3  4  1  0
  4  5  2  0
  5  6  1  0
  6  7  1  0
  7  8  1  0
  8  9  1  0
  9 10  1  0
 10 11  1  0
 11 12  1  0
 12 13  2  0
 13 14  1  0
 14 15  2  0
 15 16  1  0
 16 17  1  0
 16 18  2  0
 16 19  2  0
 15 20  1  0
 12 21  1  0
 20 21  2  0
 11 22  1  0
  8 23  1  0
 22 23  1  0
  5 24  1  0
  2 25  1  0
 24 25  2  0
M  END
