WAR-XCH-b6889685-36
     RDKit          3D

 29 32  0  0  0  0  0  0  0  0999 V2000
   25.3510  -13.3800   25.7080 N   0  0  0  0  0  0  0  0  0  0  0  0
   24.3390  -13.2360   24.3660 S   0  0  0  0  0  0  0  0  0  0  0  0
   23.0580  -12.6970   24.7260 O   0  0  0  0  0  0  0  0  0  0  0  0
   25.1480  -12.7470   23.2760 O   0  0  0  0  0  0  0  0  0  0  0  0
   24.1970  -14.9450   24.2660 C   0  0  0  0  0  0  0  0  0  0  0  0
   23.8770  -15.6820   25.5210 C   0  0  0  0  0  0  0  0  0  0  0  0
   23.7820  -17.0440   25.4650 C   0  0  0  0  0  0  0  0  0  0  0  0
   23.9880  -17.6850   24.2620 C   0  0  0  0  0  0  0  0  0  0  0  0
   23.9300  -19.0270   24.1870 N   0  0  0  0  0  0  0  0  0  0  0  0
   22.6120  -19.6260   24.3590 C   0  0  0  0  0  0  0  0  0  0  0  0
   22.6240  -21.0020   24.1100 C   0  0  0  0  0  0  0  0  0  0  0  0
   23.2710  -21.1540   22.7700 C   0  0  0  0  0  0  0  0  0  0  0  0
   22.8040  -22.2980   21.9550 N   0  0  0  0  0  0  0  0  0  0  0  0
   23.6820  -22.5940   20.8100 C   0  0  0  0  0  0  0  0  0  0  0  0
   23.0090  -23.2960   19.6310 C   0  0  0  0  0  0  0  0  0  0  0  0
   22.4980  -24.6940   19.9410 C   0  0  0  0  0  0  0  0  0  0  0  0
   21.8970  -25.3970   18.7410 C   0  0  0  0  0  0  0  0  0  0  0  0
   21.8510  -24.7620   17.5060 C   0  0  0  0  0  0  0  0  0  0  0  0
   22.3240  -23.4540   17.3130 C   0  0  0  0  0  0  0  0  0  0  0  0
   22.2280  -22.7120   15.7620 Cl  0  0  0  0  0  0  0  0  0  0  0  0
   22.8920  -22.7300   18.3520 C   0  0  0  0  0  0  0  0  0  0  0  0
   24.9330  -23.3620   21.3170 C   0  0  0  0  0  0  0  0  0  0  0  0
   25.9970  -22.9050   20.5600 C   0  0  0  0  0  0  0  0  0  0  0  0
   25.8340  -21.6330   20.0240 C   0  0  0  0  0  0  0  0  0  0  0  0
   24.3530  -21.3090   20.2400 C   0  0  0  0  0  0  0  0  0  0  0  0
   24.7370  -21.0750   23.0020 C   0  0  0  0  0  0  0  0  0  0  0  0
   24.9930  -19.6260   23.3490 C   0  0  0  0  0  0  0  0  0  0  0  0
   24.2770  -16.9610   23.0870 C   0  0  0  0  0  0  0  0  0  0  0  0
   24.3840  -15.5880   23.0750 C   0  0  0  0  0  0  0  0  0  0  0  0
  2  1  1  0
  2  3  2  0
  2  4  2  0
  2  5  1  0
  5  6  2  0
  6  7  1  0
  7  8  2  0
  8  9  1  0
  9 10  1  0
 10 11  1  0
 11 12  1  0
 12 13  1  0
 14 13  1  0
 14 15  1  0
 15 16  2  0
 16 17  1  0
 17 18  2  0
 18 19  1  0
 19 20  1  0
 15 21  1  0
 19 21  2  0
 14 22  1  0
 22 23  1  0
 23 24  1  0
 14 25  1  0
 24 25  1  0
 12 26  1  0
  9 27  1  0
 26 27  1  0
  8 28  1  0
  5 29  1  0
 28 29  2  0
M  END
