WAR-XCH-bdd24732-15
     RDKit          3D

 30 34  0  0  0  0  0  0  0  0999 V2000
    5.3840   -5.9820   29.6880 C   0  0  0  0  0  0  0  0  0  0  0  0
    5.7330   -4.7290   28.9140 C   0  0  0  0  0  0  0  0  0  0  0  0
    6.4330   -4.8680   27.5470 C   0  0  0  0  0  0  0  0  0  0  0  0
    5.6030   -5.5250   26.3780 C   0  0  0  0  0  0  0  0  0  0  0  0
    4.4690   -6.1860   26.7630 N   0  0  0  0  0  0  0  0  0  0  0  0
    3.6900   -6.7790   25.8330 C   0  0  0  0  0  0  0  0  0  0  0  0
    2.4270   -7.5100   26.2280 C   0  0  0  0  0  0  0  0  0  0  0  0
    2.1810   -7.9520   27.5230 C   0  0  0  0  0  0  0  0  0  0  0  0
    0.9940   -8.6230   27.8140 C   0  0  0  0  0  0  0  0  0  0  0  0
    0.0560   -8.8460   26.7890 C   0  0  0  0  0  0  0  0  0  0  0  0
    0.2570   -8.4310   25.5230 N   0  0  0  0  0  0  0  0  0  0  0  0
    1.4300   -7.7810   25.2840 C   0  0  0  0  0  0  0  0  0  0  0  0
    3.9400   -6.7740   24.5340 N   0  0  0  0  0  0  0  0  0  0  0  0
    5.0230   -6.1500   24.1190 C   0  0  0  0  0  0  0  0  0  0  0  0
    5.2200   -6.1940   22.7540 C   0  0  0  0  0  0  0  0  0  0  0  0
    6.3930   -5.5340   22.1410 C   0  0  0  0  0  0  0  0  0  0  0  0
    7.2710   -4.8770   22.9810 C   0  0  0  0  0  0  0  0  0  0  0  0
    7.0390   -4.8550   24.3620 C   0  0  0  0  0  0  0  0  0  0  0  0
    5.9350   -5.4790   24.9720 C   0  0  0  0  0  0  0  0  0  0  0  0
    7.7910   -5.5580   27.8710 C   0  0  0  0  0  0  0  0  0  0  0  0
    8.8350   -5.5190   26.7490 C   0  0  0  0  0  0  0  0  0  0  0  0
    8.6630   -4.3760   25.7480 C   0  0  0  0  0  0  0  0  0  0  0  0
    7.8800   -3.1390   26.2370 C   0  0  0  0  0  0  0  0  0  0  0  0
    6.6920   -3.3910   27.1720 C   0  0  0  0  0  0  0  0  0  0  0  0
    4.9790   -7.1640   30.4770 C   0  0  2  0  0  0  0  0  0  0  0  0
    3.6390   -7.6850   29.9690 C   0  0  0  0  0  0  0  0  0  0  0  0
    2.5370   -6.6630   30.2310 C   0  0  0  0  0  0  0  0  0  0  0  0
    2.4670   -6.3080   31.7180 C   0  0  0  0  0  0  0  0  0  0  0  0
    3.7630   -5.8550   32.2360 N   0  0  0  0  0  0  0  0  0  0  0  0
    4.8170   -6.8520   31.9780 C   0  0  0  0  0  0  0  0  0  0  0  0
  1  2  3  0
  3  2  1  0
  3  4  1  0
  4  5  2  0
  5  6  1  0
  6  7  1  0
  7  8  2  0
  8  9  1  0
  9 10  2  0
 10 11  1  0
  7 12  1  0
 11 12  2  0
  6 13  2  0
 13 14  1  0
 14 15  1  0
 15 16  2  0
 16 17  1  0
 17 18  2  0
  4 19  1  0
 14 19  2  0
 18 19  1  0
  3 20  1  0
 20 21  1  0
 21 22  1  0
 22 23  1  0
  3 24  1  0
 23 24  1  0
 25  1  1  6
 25 26  1  0
 26 27  1  0
 27 28  1  0
 28 29  1  0
 25 30  1  0
 29 30  1  0
M  END
