WAR-XCH-b6889685-40
     RDKit          3D

 29 32  0  0  0  0  0  0  0  0999 V2000
    9.5030   -2.5590   22.0680 C   0  0  0  0  0  0  0  0  0  0  0  0
    9.8780   -3.1460   23.2720 C   0  0  0  0  0  0  0  0  0  0  0  0
    8.8130   -3.7670   23.9560 C   0  0  0  0  0  0  0  0  0  0  0  0
    8.8670   -4.4440   25.2040 C   0  0  0  0  0  0  0  0  0  0  0  0
   10.1280   -4.5130   25.8600 C   0  0  0  0  0  0  0  0  0  0  0  0
   11.3340   -3.8640   25.1890 C   0  0  0  0  0  0  0  0  0  0  0  0
   11.2240   -3.1490   23.8220 C   0  0  0  0  0  0  0  0  0  0  0  0
   12.5890   -2.5100   23.2280 C   0  0  0  0  0  0  0  0  0  0  0  0
   13.6870   -2.7740   24.1290 N   0  0  0  0  0  0  0  0  0  0  0  0
   13.1150   -2.3020   25.2700 C   0  0  0  0  0  0  0  0  0  0  0  0
   11.7300   -2.4890   24.7440 C   0  0  0  0  0  0  0  0  0  0  0  0
   11.0750   -1.1020   24.3640 C   0  0  0  0  0  0  0  0  0  0  0  0
   11.8550   -0.3060   23.4030 N   0  0  0  0  0  0  0  0  0  0  0  0
   11.5380    1.1120   23.3220 C   0  0  0  0  0  0  0  0  0  0  0  0
   10.1630    1.5500   23.6160 C   0  0  0  0  0  0  0  0  0  0  0  0
    9.7560    2.8720   23.6070 C   0  0  0  0  0  0  0  0  0  0  0  0
   10.7330    3.9030   23.3000 C   0  0  0  0  0  0  0  0  0  0  0  0
   10.2630    5.6060   23.3470 S   0  0  0  0  0  0  0  0  0  0  0  0
    8.8000    5.6220   22.5210 N   0  0  0  0  0  0  0  0  0  0  0  0
   11.2290    6.3710   22.6000 O   0  0  0  0  0  0  0  0  0  0  0  0
    9.9290    5.9410   24.7130 O   0  0  0  0  0  0  0  0  0  0  0  0
   12.0380    3.5620   22.9850 C   0  0  0  0  0  0  0  0  0  0  0  0
   12.4730    2.2550   22.9780 C   0  0  0  0  0  0  0  0  0  0  0  0
   13.1670   -0.3970   23.9060 C   0  0  0  0  0  0  0  0  0  0  0  0
   12.9610   -0.8470   25.3500 C   0  0  0  0  0  0  0  0  0  0  0  0
   12.1120   -1.0450   23.1310 C   0  0  0  0  0  0  0  0  0  0  0  0
   11.0940   -1.1800   22.1940 C   0  0  0  0  0  0  0  0  0  0  0  0
   11.7720   -2.0790   21.1720 C   0  0  0  0  0  0  0  0  0  0  0  0
   13.0510   -2.3440   21.8100 C   0  0  0  0  0  0  0  0  0  0  0  0
  1  2  1  0
  2  3  2  0
  3  4  1  0
  4  5  2  0
  5  6  1  0
  2  7  1  0
  6  7  2  0
  7  8  1  0
  8  9  1  0
  9 10  1  0
 10 11  1  0
 11 12  1  0
 12 13  1  0
 13 14  1  0
 14 15  2  0
 15 16  1  0
 16 17  2  0
 17 18  1  0
 18 19  1  0
 18 20  2  0
 18 21  2  0
 17 22  1  0
 14 23  1  0
 22 23  2  0
 13 24  1  0
 10 25  1  0
 24 25  1  0
  8 26  1  0
 26 27  1  0
 27 28  1  0
  8 29  1  0
 28 29  1  0
M  END
