WAR-XCH-b6889685-49
     RDKit          3D

 26 28  0  0  0  0  0  0  0  0999 V2000
   22.3900  -18.9520   25.9890 C   0  0  0  0  0  0  0  0  0  0  0  0
   22.8970  -19.3340   24.6390 C   0  0  0  0  0  0  0  0  0  0  0  0
   23.5620  -18.3540   23.9430 C   0  0  0  0  0  0  0  0  0  0  0  0
   24.0820  -18.6320   22.6960 C   0  0  0  0  0  0  0  0  0  0  0  0
   23.9250  -19.9040   22.1360 C   0  0  0  0  0  0  0  0  0  0  0  0
   23.2420  -20.9450   22.7870 C   0  0  0  0  0  0  0  0  0  0  0  0
   23.0670  -22.2130   22.1890 C   0  0  1  0  0  0  0  0  0  0  0  0
   21.9210  -22.9070   22.5840 C   0  0  0  0  0  0  0  0  0  0  0  0
   23.1270  -21.9690   20.7230 N   0  0  0  0  0  0  0  0  0  0  0  0
   22.9640  -23.0290   19.7100 C   0  0  0  0  0  0  0  0  0  0  0  0
   22.3420  -24.2770   20.2950 C   0  0  0  0  0  0  0  0  0  0  0  0
   22.5620  -25.4530   19.3890 C   0  0  0  0  0  0  0  0  0  0  0  0
   22.2560  -25.1740   17.9830 N   0  0  0  0  0  0  0  0  0  0  0  0
   21.7580  -26.3950   17.4980 C   0  0  0  0  0  0  0  0  0  0  0  0
   22.3000  -27.1060   16.4170 C   0  0  0  0  0  0  0  0  0  0  0  0
   21.7500  -28.3320   16.0110 C   0  0  0  0  0  0  0  0  0  0  0  0
   20.6490  -28.8580   16.6870 C   0  0  0  0  0  0  0  0  0  0  0  0
   19.9540  -30.4000   16.1760 S   0  0  0  0  0  0  0  0  0  0  0  0
   21.3180  -31.3230   15.8460 N   0  0  0  0  0  0  0  0  0  0  0  0
   19.2830  -30.2240   14.9080 O   0  0  0  0  0  0  0  0  0  0  0  0
   19.3160  -31.0380   17.3040 O   0  0  0  0  0  0  0  0  0  0  0  0
   20.0960  -28.1680   17.7630 C   0  0  0  0  0  0  0  0  0  0  0  0
   20.6490  -26.9550   18.1540 C   0  0  0  0  0  0  0  0  0  0  0  0
   21.6310  -23.8660   17.6380 C   0  0  0  0  0  0  0  0  0  0  0  0
   22.2370  -22.6620   18.3980 C   0  0  0  0  0  0  0  0  0  0  0  0
   22.7310  -20.6240   24.0690 C   0  0  0  0  0  0  0  0  0  0  0  0
  1  2  1  0
  2  3  2  0
  3  4  1  0
  4  5  2  0
  5  6  1  0
  6  7  1  0
  7  8  1  6
  7  9  1  0
  9 10  1  0
 10 11  1  0
 11 12  1  0
 12 13  1  0
 13 14  1  0
 14 15  2  0
 15 16  1  0
 16 17  2  0
 17 18  1  0
 18 19  1  0
 18 20  2  0
 18 21  2  0
 17 22  1  0
 14 23  1  0
 22 23  2  0
 13 24  1  0
 10 25  1  0
 24 25  1  0
  2 26  1  0
  6 26  2  0
M  END
