WAR-XCH-b6889685-44
     RDKit          3D

 24 26  0  0  0  0  0  0  0  0999 V2000
   19.5440  -30.2840   14.9400 N   0  0  0  0  0  0  0  0  0  0  0  0
   21.2260  -30.2520   15.0890 S   0  0  0  0  0  0  0  0  0  0  0  0
   21.6070  -31.3490   15.9470 O   0  0  0  0  0  0  0  0  0  0  0  0
   21.7270  -30.1110   13.7410 O   0  0  0  0  0  0  0  0  0  0  0  0
   21.4980  -28.7270   15.9530 C   0  0  0  0  0  0  0  0  0  0  0  0
   20.6890  -28.3930   17.0320 C   0  0  0  0  0  0  0  0  0  0  0  0
   20.9110  -27.1940   17.7020 C   0  0  0  0  0  0  0  0  0  0  0  0
   21.9400  -26.2970   17.3210 C   0  0  0  0  0  0  0  0  0  0  0  0
   22.0880  -25.1250   18.0630 N   0  0  0  0  0  0  0  0  0  0  0  0
   21.9340  -25.3880   19.4910 C   0  0  0  0  0  0  0  0  0  0  0  0
   22.2460  -24.1580   20.3120 C   0  0  0  0  0  0  0  0  0  0  0  0
   22.9550  -23.0650   19.5190 C   0  0  0  0  0  0  0  0  0  0  0  0
   23.2380  -21.9100   20.4180 N   0  0  0  0  0  0  0  0  0  0  0  0
   23.2370  -22.2060   21.8810 C   0  0  0  0  0  0  0  0  0  0  0  0
   23.2560  -20.9480   22.7910 C   0  0  0  0  0  0  0  0  0  0  0  0
   22.6060  -21.0770   24.1390 C   0  0  0  0  0  0  0  0  0  0  0  0
   22.6800  -19.8020   24.9210 C   0  0  0  0  0  0  0  0  0  0  0  0
   23.4040  -18.7530   24.0790 C   0  0  0  0  0  0  0  0  0  0  0  0
   23.7070  -16.9820   24.6950 Br  0  0  0  0  0  0  0  0  0  0  0  0
   23.9040  -19.3460   22.5440 S   0  0  0  0  0  0  0  0  0  0  0  0
   22.1440  -22.6870   18.2610 C   0  0  0  0  0  0  0  0  0  0  0  0
   21.6570  -23.8130   17.5240 C   0  0  0  0  0  0  0  0  0  0  0  0
   22.7380  -26.6640   16.2290 C   0  0  0  0  0  0  0  0  0  0  0  0
   22.5240  -27.8610   15.5520 C   0  0  0  0  0  0  0  0  0  0  0  0
  2  1  1  0
  2  3  2  0
  2  4  2  0
  2  5  1  0
  5  6  2  0
  6  7  1  0
  7  8  2  0
  8  9  1  0
  9 10  1  0
 10 11  1  0
 11 12  1  0
 12 13  1  0
 13 14  1  0
 14 15  1  0
 15 16  2  0
 16 17  1  0
 17 18  2  0
 18 19  1  0
 15 20  1  0
 18 20  1  0
 12 21  1  0
  9 22  1  0
 21 22  1  0
  8 23  1  0
  5 24  1  0
 23 24  2  0
M  END
