WAR-XCH-bdd24732-1
     RDKit          3D

 28 30  0  0  0  0  0  0  0  0999 V2000
    5.5580   -6.6360   29.1230 C   0  0  0  0  0  0  0  0  0  0  0  0
    5.6800   -6.2100   27.6880 C   0  0  1  0  0  0  0  0  0  0  0  0
    4.5870   -6.4110   26.8190 C   0  0  0  0  0  0  0  0  0  0  0  0
    4.5320   -7.4380   26.1630 O   0  0  0  0  0  0  0  0  0  0  0  0
    3.5920   -5.5250   26.6230 N   0  0  0  0  0  0  0  0  0  0  0  0
    3.4760   -5.1450   25.3300 C   0  0  0  0  0  0  0  0  0  0  0  0
    4.5580   -5.4150   24.4150 O   0  0  0  0  0  0  0  0  0  0  0  0
    2.3690   -4.5090   24.7870 C   0  0  2  0  0  0  0  0  0  0  0  0
    1.3990   -3.8870   25.5790 C   0  0  0  0  0  0  0  0  0  0  0  0
    1.6180   -5.5280   23.9310 C   0  0  0  0  0  0  0  0  0  0  0  0
    0.2810   -5.3730   23.7260 C   0  0  0  0  0  0  0  0  0  0  0  0
   -0.4780   -6.3030   22.9210 C   0  0  0  0  0  0  0  0  0  0  0  0
    0.1300   -7.3460   22.3590 C   0  0  0  0  0  0  0  0  0  0  0  0
    1.5780   -7.5430   22.5640 C   0  0  0  0  0  0  0  0  0  0  0  0
    2.2990   -6.6280   23.3480 C   0  0  0  0  0  0  0  0  0  0  0  0
    2.3750   -5.7910   27.4340 C   0  0  2  0  0  0  0  0  0  0  0  0
    2.2280   -4.9380   28.5240 C   0  0  0  0  0  0  0  0  0  0  0  0
    0.9960   -5.1000   29.4010 C   0  0  0  0  0  0  0  0  0  0  0  0
    0.9570   -6.5930   29.7240 C   0  0  1  0  0  0  0  0  0  0  0  0
   -0.2350   -6.9870   30.4040 O   0  0  0  0  0  0  0  0  0  0  0  0
    1.1350   -7.4960   28.6820 C   0  0  0  0  0  0  0  0  0  0  0  0
    2.2530   -7.2620   27.8820 C   0  0  0  0  0  0  0  0  0  0  0  0
    6.0990   -4.7700   27.6280 C   0  0  0  0  0  0  0  0  0  0  0  0
    6.5890   -4.1610   28.7480 C   0  0  0  0  0  0  0  0  0  0  0  0
    6.9880   -2.7030   28.6470 C   0  0  0  0  0  0  0  0  0  0  0  0
    6.8550   -2.0430   27.4410 C   0  0  0  0  0  0  0  0  0  0  0  0
    6.3650   -2.7060   26.3360 C   0  0  0  0  0  0  0  0  0  0  0  0
    5.9920   -4.0440   26.4360 C   0  0  0  0  0  0  0  0  0  0  0  0
  2  1  1  1
  2  3  1  0
  3  4  2  0
  3  5  1  0
  5  6  1  0
  6  7  2  0
  6  8  1  0
  8  9  1  1
  8 10  1  0
 10 11  2  0
 11 12  1  0
 12 13  2  0
 13 14  1  0
 10 15  1  0
 14 15  2  0
 16  5  1  1
 16 17  1  0
 17 18  1  0
 18 19  1  0
 19 20  1  6
 19 21  1  0
 16 22  1  0
 21 22  1  0
  2 23  1  0
 23 24  2  0
 24 25  1  0
 25 26  2  0
 26 27  1  0
 23 28  1  0
 27 28  2  0
M  END
