WAR-XCH-79d12f6e-16
     RDKit          3D

 24 27  0  0  0  0  0  0  0  0999 V2000
    5.5640   -5.7840   26.3900 C   0  0  0  0  0  0  0  0  0  0  0  0
    5.5980   -4.6700   25.4470 N   0  0  0  0  0  0  0  0  0  0  0  0
    5.3560   -3.4660   26.0140 C   0  0  0  0  0  0  0  0  0  0  0  0
    5.4710   -2.8190   24.9340 C   0  0  0  0  0  0  0  0  0  0  0  0
    5.7060   -2.8850   23.6410 C   0  0  0  0  0  0  0  0  0  0  0  0
    5.5110   -1.4980   23.8520 C   0  0  0  0  0  0  0  0  0  0  0  0
    5.3880   -2.3600   25.0330 C   0  0  0  0  0  0  0  0  0  0  0  0
    5.7190   -2.9690   23.6130 C   0  0  0  0  0  0  0  0  0  0  0  0
    6.0120   -4.0910   22.6390 C   0  0  0  0  0  0  0  0  0  0  0  0
    6.1730   -5.3950   22.3500 C   0  0  0  0  0  0  0  0  0  0  0  0
    6.8060   -5.8050   21.2510 C   0  0  0  0  0  0  0  0  0  0  0  0
    6.0560   -5.2460   20.2290 C   0  0  0  0  0  0  0  0  0  0  0  0
    6.0260   -3.8550   20.2220 C   0  0  0  0  0  0  0  0  0  0  0  0
    6.6510   -3.1430   21.2310 C   0  0  0  0  0  0  0  0  0  0  0  0
    6.6370   -1.7650   21.2230 C   0  0  0  0  0  0  0  0  0  0  0  0
    5.9640   -0.9040   20.1470 C   0  0  0  0  0  0  0  0  0  0  0  0
    5.3640   -1.9270   19.1620 C   0  0  0  0  0  0  0  0  0  0  0  0
    5.3940   -3.2890   19.2010 N   0  0  0  0  0  0  0  0  0  0  0  0
    4.8150   -5.7190   21.8600 C   0  0  0  0  0  0  0  0  0  0  0  0
    3.7890   -5.3700   22.7300 C   0  0  0  0  0  0  0  0  0  0  0  0
    3.9360   -5.8290   23.9870 C   0  0  0  0  0  0  0  0  0  0  0  0
    5.0670   -6.5870   24.2370 C   0  0  0  0  0  0  0  0  0  0  0  0
    6.2910   -6.3320   23.5110 C   0  0  0  0  0  0  0  0  0  0  0  0
    5.8340   -4.4480   23.9170 C   0  0  0  0  0  0  0  0  0  0  0  0
  1  2  1  0
  2  3  1  0
  3  4  2  0
  4  5  1  0
  5  6  1  0
  6  7  2  0
  7  8  1  0
  8  9  2  0
  9 10  1  0
 10 11  1  0
 11 12  3  0
 12 13  1  0
 13 14  2  0
 14 15  1  0
 15 16  2  0
 16 17  1  0
 13 18  1  0
 17 18  2  0
 10 19  1  0
 19 20  1  0
 20 21  1  0
 21 22  1  0
 10 23  1  0
 22 23  1  0
  2 24  1  0
  5 24  2  0
  9 24  1  0
M  END
