WAR-XCH-bdd24732-4
     RDKit          3D

 27 30  0  0  0  0  0  0  0  0999 V2000
   -0.6290   -3.5450   25.7540 C   0  0  0  0  0  0  0  0  0  0  0  0
    0.5870   -3.6050   25.0220 O   0  0  0  0  0  0  0  0  0  0  0  0
    1.6910   -2.9930   25.5660 C   0  0  0  0  0  0  0  0  0  0  0  0
    2.9520   -3.3540   25.3420 C   0  0  0  0  0  0  0  0  0  0  0  0
    4.1570   -2.6830   25.9330 C   0  0  0  0  0  0  0  0  0  0  0  0
    3.8030   -1.5100   26.8440 C   0  0  0  0  0  0  0  0  0  0  0  0
    4.9740   -0.7730   27.4880 C   0  0  0  0  0  0  0  0  0  0  0  0
    5.6020    0.1880   26.4500 C   0  0  0  0  0  0  0  0  0  0  0  0
    5.8560   -0.6050   25.1200 C   0  0  0  0  0  0  0  0  0  0  0  0
    5.0800   -0.5420   23.9760 C   0  0  0  0  0  0  0  0  0  0  0  0
    5.4860   -1.3970   22.7670 C   0  0  0  0  0  0  0  0  0  0  0  0
    6.5450   -2.2090   22.7330 N   0  0  0  0  0  0  0  0  0  0  0  0
    7.3350   -2.2440   23.9650 C   0  0  0  0  0  0  0  0  0  0  0  0
    8.4950   -3.1160   23.9950 N   0  0  0  0  0  0  0  0  0  0  0  0
    8.6070   -2.4290   22.9160 C   0  0  0  0  0  0  0  0  0  0  0  0
    7.9980   -2.8050   24.0780 N   0  0  0  0  0  0  0  0  0  0  0  0
    8.5970   -3.9980   25.1120 C   0  0  0  0  0  0  0  0  0  0  0  0
    7.6170   -4.3410   26.6110 C   0  0  0  0  0  0  0  0  0  0  0  0
    8.3180   -5.4020   27.3260 C   0  0  0  0  0  0  0  0  0  0  0  0
    9.4780   -5.9990   26.9290 C   0  0  0  0  0  0  0  0  0  0  0  0
    8.0980   -4.5540   26.4000 C   0  0  0  0  0  0  0  0  0  0  0  0
    6.9740   -3.7250   26.4400 C   0  0  0  0  0  0  0  0  0  0  0  0
    8.7910   -4.5450   25.6680 C   0  0  0  0  0  0  0  0  0  0  0  0
    7.8210   -3.4650   25.1850 C   0  0  0  0  0  0  0  0  0  0  0  0
    6.9850   -1.4630   25.0970 C   0  0  0  0  0  0  0  0  0  0  0  0
    2.4510   -1.1820   27.0380 C   0  0  0  0  0  0  0  0  0  0  0  0
    1.4360   -1.8990   26.4190 C   0  0  0  0  0  0  0  0  0  0  0  0
  1  2  1  0
  2  3  1  0
  3  4  2  0
  4  5  1  0
  5  6  2  0
  6  7  1  0
  7  8  1  0
  8  9  1  0
  9 10  2  0
 10 11  1  0
 11 12  2  0
 12 13  1  0
 13 14  1  0
 14 15  1  0
 15 16  2  0
 16 17  1  0
 17 18  1  0
 18 19  2  0
 19 20  1  0
 19 21  1  0
 21 22  1  0
 21 23  2  0
 14 24  1  0
 17 24  2  0
 23 24  1  0
  9 25  1  0
 13 25  2  0
  6 26  1  0
  3 27  1  0
 26 27  2  0
M  END
