WAR-XCH-b6889685-41
     RDKit          3D

 27 30  0  0  0  0  0  0  0  0999 V2000
    8.9890    5.8500   22.6410 N   0  0  0  0  0  0  0  0  0  0  0  0
   10.4410    5.8180   23.4900 S   0  0  0  0  0  0  0  0  0  0  0  0
   11.4030    6.5010   22.6710 O   0  0  0  0  0  0  0  0  0  0  0  0
   10.1590    6.2020   24.8560 O   0  0  0  0  0  0  0  0  0  0  0  0
   10.8170    4.0940   23.4790 C   0  0  0  0  0  0  0  0  0  0  0  0
    9.8010    3.1570   24.0340 C   0  0  0  0  0  0  0  0  0  0  0  0
   10.1010    1.8050   24.0450 C   0  0  0  0  0  0  0  0  0  0  0  0
   11.2960    1.3280   23.5600 C   0  0  0  0  0  0  0  0  0  0  0  0
   11.5070   -0.0170   23.6060 N   0  0  0  0  0  0  0  0  0  0  0  0
   12.1330   -0.6850   24.7680 C   0  0  0  0  0  0  0  0  0  0  0  0
   13.1890   -1.3730   24.2570 C   0  0  0  0  0  0  0  0  0  0  0  0
   12.8110   -2.1180   23.1890 C   0  0  0  0  0  0  0  0  0  0  0  0
   13.6930   -3.2110   22.8700 N   0  0  0  0  0  0  0  0  0  0  0  0
   13.6730   -3.7540   21.4860 C   0  0  0  0  0  0  0  0  0  0  0  0
   12.3880   -4.0460   20.8920 C   0  0  0  0  0  0  0  0  0  0  0  0
   11.1980   -3.2110   20.9830 C   0  0  0  0  0  0  0  0  0  0  0  0
   10.1770   -3.8130   20.2930 C   0  0  0  0  0  0  0  0  0  0  0  0
   10.6540   -5.2550   19.5430 S   0  0  0  0  0  0  0  0  0  0  0  0
   12.1990   -5.0910   20.2040 C   0  0  0  0  0  0  0  0  0  0  0  0
   14.8440   -4.8820   20.9930 C   0  0  0  0  0  0  0  0  0  0  0  0
   15.2560   -4.6110   19.8800 C   0  0  0  0  0  0  0  0  0  0  0  0
   14.4630   -3.6090   19.6560 C   0  0  0  0  0  0  0  0  0  0  0  0
   13.6640   -2.7990   20.4890 C   0  0  0  0  0  0  0  0  0  0  0  0
   12.4590   -1.2340   22.0270 C   0  0  0  0  0  0  0  0  0  0  0  0
   11.2310   -0.7540   22.3960 C   0  0  0  0  0  0  0  0  0  0  0  0
   12.2430    2.2250   23.0300 C   0  0  0  0  0  0  0  0  0  0  0  0
   12.0190    3.6050   22.9810 C   0  0  0  0  0  0  0  0  0  0  0  0
  2  1  1  0
  2  3  2  0
  2  4  2  0
  2  5  1  0
  5  6  2  0
  6  7  1  0
  7  8  2  0
  8  9  1  0
  9 10  1  0
 10 11  1  0
 11 12  1  0
 12 13  1  0
 14 13  1  0
 14 15  1  0
 15 16  1  0
 16 17  2  0
 17 18  1  0
 15 19  2  0
 18 19  1  0
 14 20  1  0
 20 21  1  0
 21 22  1  0
 14 23  1  0
 22 23  1  0
 12 24  1  0
  9 25  1  0
 24 25  1  0
  8 26  1  0
  5 27  1  0
 26 27  2  0
M  END
