WAR-XCH-b6889685-22
     RDKit          3D

 23 25  0  0  0  0  0  0  0  0999 V2000
    9.0460    5.6550   22.6910 N   0  0  0  0  0  0  0  0  0  0  0  0
   10.5040    5.6670   23.5350 S   0  0  0  0  0  0  0  0  0  0  0  0
   11.4450    6.4720   22.8030 O   0  0  0  0  0  0  0  0  0  0  0  0
   10.1330    5.9460   24.9060 O   0  0  0  0  0  0  0  0  0  0  0  0
   10.9950    3.9690   23.4040 C   0  0  0  0  0  0  0  0  0  0  0  0
   10.1010    2.9850   23.8080 C   0  0  0  0  0  0  0  0  0  0  0  0
   10.4610    1.6470   23.7200 C   0  0  0  0  0  0  0  0  0  0  0  0
   11.7040    1.2400   23.2310 C   0  0  0  0  0  0  0  0  0  0  0  0
   11.9460   -0.0990   23.1670 N   0  0  0  0  0  0  0  0  0  0  0  0
   12.5380   -0.8370   24.2920 C   0  0  0  0  0  0  0  0  0  0  0  0
   13.1570   -2.1110   23.7420 C   0  0  0  0  0  0  0  0  0  0  0  0
   12.4970   -2.4320   22.4070 C   0  0  0  0  0  0  0  0  0  0  0  0
   12.9670   -1.7770   21.1680 C   0  0  0  0  0  0  0  0  0  0  0  0
   13.9080   -2.3760   20.2460 O   0  0  0  0  0  0  0  0  0  0  0  0
   14.3110   -3.7210   20.0650 C   0  0  0  0  0  0  0  0  0  0  0  0
   13.6360   -4.6120   20.4510 C   0  0  0  0  0  0  0  0  0  0  0  0
   14.2870   -5.8310   20.2930 C   0  0  0  0  0  0  0  0  0  0  0  0
   15.4280   -5.8650   19.7710 C   0  0  0  0  0  0  0  0  0  0  0  0
   15.8650   -4.4110   19.3930 S   0  0  0  0  0  0  0  0  0  0  0  0
   11.0000   -2.0900   22.5580 C   0  0  0  0  0  0  0  0  0  0  0  0
   10.8260   -0.7520   22.5030 C   0  0  0  0  0  0  0  0  0  0  0  0
   12.5820    2.2510   22.8320 C   0  0  0  0  0  0  0  0  0  0  0  0
   12.2450    3.5980   22.9110 C   0  0  0  0  0  0  0  0  0  0  0  0
  2  1  1  0
  2  3  2  0
  2  4  2  0
  2  5  1  0
  5  6  2  0
  6  7  1  0
  7  8  2  0
  8  9  1  0
  9 10  1  0
 10 11  1  0
 11 12  1  0
 12 13  1  0
 13 14  1  0
 14 15  1  0
 15 16  2  0
 16 17  1  0
 17 18  2  0
 15 19  1  0
 18 19  1  0
 12 20  1  0
  9 21  1  0
 20 21  1  0
  8 22  1  0
  5 23  1  0
 22 23  2  0
M  END
