WAR-XCH-b72a1bbc-44
     RDKit          3D

 25 27  0  0  0  0  0  0  0  0999 V2000
   17.3150    3.5930   25.5920 N   0  0  0  0  0  0  0  0  0  0  0  0
   16.6770    4.4880   24.4860 S   0  0  0  0  0  0  0  0  0  0  0  0
   17.8610    5.2860   24.2340 O   0  0  0  0  0  0  0  0  0  0  0  0
   17.3130    3.3570   23.9710 O   0  0  0  0  0  0  0  0  0  0  0  0
   14.3860    4.6020   23.7690 C   0  0  0  0  0  0  0  0  0  0  0  0
   13.9820    3.6010   22.7740 C   0  0  0  0  0  0  0  0  0  0  0  0
   12.7950    3.2370   22.4450 C   0  0  0  0  0  0  0  0  0  0  0  0
   11.7030    3.7050   22.8750 C   0  0  0  0  0  0  0  0  0  0  0  0
   10.7900    2.7830   22.3390 N   0  0  0  0  0  0  0  0  0  0  0  0
    9.5010    2.8050   23.0350 C   0  0  0  0  0  0  0  0  0  0  0  0
    8.8880    1.4410   23.4460 C   0  0  0  0  0  0  0  0  0  0  0  0
    9.4600    0.1180   22.8850 C   0  0  0  0  0  0  0  0  0  0  0  0
    8.9680   -0.1680   21.4750 C   0  0  0  0  0  0  0  0  0  0  0  0
    7.7080   -0.8370   21.1310 N   0  0  0  0  0  0  0  0  0  0  0  0
    6.8020   -0.0380   20.3220 C   0  0  0  0  0  0  0  0  0  0  0  0
    7.0390    0.0220   18.9440 C   0  0  0  0  0  0  0  0  0  0  0  0
    6.2010    0.8050   18.1470 C   0  0  0  0  0  0  0  0  0  0  0  0
    5.1580    1.4960   18.7250 C   0  0  0  0  0  0  0  0  0  0  0  0
    4.3640    2.2540   17.9900 F   0  0  0  0  0  0  0  0  0  0  0  0
    4.9250    1.4150   20.0790 C   0  0  0  0  0  0  0  0  0  0  0  0
    5.7430    0.6500   20.8880 C   0  0  0  0  0  0  0  0  0  0  0  0
   10.9730    0.1350   22.8910 C   0  0  0  0  0  0  0  0  0  0  0  0
   11.6200    1.5230   22.6890 C   0  0  0  0  0  0  0  0  0  0  0  0
   11.7870    4.8420   23.6950 C   0  0  0  0  0  0  0  0  0  0  0  0
   13.0910    5.3080   24.1530 C   0  0  0  0  0  0  0  0  0  0  0  0
  2  1  1  0
  2  3  2  0
  2  4  2  0
  2  5  1  0
  5  6  2  0
  6  7  1  0
  7  8  2  0
  8  9  1  0
  9 10  1  0
 10 11  1  0
 11 12  1  0
 12 13  1  0
 13 14  1  0
 14 15  1  0
 15 16  2  0
 16 17  1  0
 17 18  2  0
 18 19  1  0
 18 20  1  0
 15 21  1  0
 20 21  2  0
 12 22  1  0
  9 23  1  0
 22 23  1  0
  8 24  1  0
  5 25  1  0
 24 25  2  0
M  END
