WAR-XCH-b6889685-5
     RDKit          3D

 26 28  0  0  0  0  0  0  0  0999 V2000
    7.2600   -2.1110   22.0830 C   0  0  0  0  0  0  0  0  0  0  0  0
    7.8290   -1.1150   21.1700 N   0  0  0  0  0  0  0  0  0  0  0  0
    9.1940   -0.6300   21.5110 C   0  0  0  0  0  0  0  0  0  0  0  0
    9.9170   -1.2180   22.5550 C   0  0  0  0  0  0  0  0  0  0  0  0
    9.7750   -0.4480   23.5960 C   0  0  0  0  0  0  0  0  0  0  0  0
    9.9110    0.8490   23.1770 C   0  0  0  0  0  0  0  0  0  0  0  0
   11.2960    1.1050   22.8230 N   0  0  0  0  0  0  0  0  0  0  0  0
   11.6050    2.4510   22.9900 C   0  0  0  0  0  0  0  0  0  0  0  0
   12.9810    3.1150   22.8130 C   0  0  0  0  0  0  0  0  0  0  0  0
   13.1150    4.6540   23.0650 C   0  0  0  0  0  0  0  0  0  0  0  0
   11.8430    5.3790   23.4820 C   0  0  0  0  0  0  0  0  0  0  0  0
   11.7750    7.0980   23.8370 S   0  0  0  0  0  0  0  0  0  0  0  0
   11.9690    7.1020   25.5070 N   0  0  0  0  0  0  0  0  0  0  0  0
   12.9080    7.7700   23.2480 O   0  0  0  0  0  0  0  0  0  0  0  0
   10.4050    7.5080   23.6400 O   0  0  0  0  0  0  0  0  0  0  0  0
   10.6780    4.6460   23.5920 C   0  0  0  0  0  0  0  0  0  0  0  0
   10.5560    3.2980   23.3660 C   0  0  0  0  0  0  0  0  0  0  0  0
   12.1010   -0.0750   22.7750 C   0  0  0  0  0  0  0  0  0  0  0  0
   11.4730   -1.3050   22.4060 C   0  0  0  0  0  0  0  0  0  0  0  0
    6.9350   -0.3170   20.3920 C   0  0  0  0  0  0  0  0  0  0  0  0
    7.0840   -0.1780   18.9870 C   0  0  0  0  0  0  0  0  0  0  0  0
    6.2170    0.6130   18.2360 C   0  0  0  0  0  0  0  0  0  0  0  0
    5.1000    1.3220   18.9300 C   0  0  0  0  0  0  0  0  0  0  0  0
    4.2500    2.0930   18.2640 F   0  0  0  0  0  0  0  0  0  0  0  0
    4.9500    1.1770   20.3020 C   0  0  0  0  0  0  0  0  0  0  0  0
    5.8510    0.3780   21.0040 C   0  0  0  0  0  0  0  0  0  0  0  0
  1  2  1  0
  2  3  1  0
  3  4  1  0
  4  5  1  0
  5  6  1  0
  6  7  1  0
  7  8  1  0
  8  9  2  0
  9 10  1  0
 10 11  2  0
 11 12  1  0
 12 13  1  0
 12 14  2  0
 12 15  2  0
 11 16  1  0
  8 17  1  0
 16 17  2  0
  7 18  1  0
  4 19  1  0
 18 19  1  0
  2 20  1  0
 20 21  2  0
 21 22  1  0
 22 23  2  0
 23 24  1  0
 23 25  1  0
 20 26  1  0
 25 26  2  0
M  END
