WAR-XCH-79d12f6e-15
     RDKit          3D

 28 31  0  0  0  0  0  0  0  0999 V2000
    1.6060   -4.3440   24.7490 O   0  0  0  0  0  0  0  0  0  0  0  0
    2.4780   -3.5000   24.9400 C   0  0  0  0  0  0  0  0  0  0  0  0
    3.8310   -3.7510   24.3840 C   0  0  0  0  0  0  0  0  0  0  0  0
    4.1330   -4.8010   23.6300 C   0  0  0  0  0  0  0  0  0  0  0  0
    5.4750   -5.1580   23.0450 C   0  0  0  0  0  0  0  0  0  0  0  0
    6.5570   -4.3630   23.2680 N   0  0  0  0  0  0  0  0  0  0  0  0
    6.2540   -3.2600   24.0400 C   0  0  0  0  0  0  0  0  0  0  0  0
    4.8750   -2.9050   24.6370 C   0  0  0  0  0  0  0  0  0  0  0  0
    4.6910   -1.6430   25.5110 C   0  0  0  0  0  0  0  0  0  0  0  0
    5.8860   -1.0080   26.1590 C   0  0  0  0  0  0  0  0  0  0  0  0
    5.6500    0.1220   26.9380 C   0  0  0  0  0  0  0  0  0  0  0  0
    6.8140    0.8440   27.6230 C   0  0  0  0  0  0  0  0  0  0  0  0
    6.3750    1.4340   28.9470 C   0  0  0  0  0  0  0  0  0  0  0  0
    7.1150    2.4510   29.5700 C   0  0  0  0  0  0  0  0  0  0  0  0
    8.4360    2.2010   29.9300 C   0  0  0  0  0  0  0  0  0  0  0  0
    8.8570    0.9290   30.2760 C   0  0  0  0  0  0  0  0  0  0  0  0
   10.1800    0.7440   30.6170 C   0  0  0  0  0  0  0  0  0  0  0  0
   11.0790    1.8040   30.6160 C   0  0  0  0  0  0  0  0  0  0  0  0
   10.5420    3.1770   30.2280 C   0  0  0  0  0  0  0  0  0  0  0  0
    9.2390    3.3230   29.8990 N   0  0  0  0  0  0  0  0  0  0  0  0
    7.8350   -0.2840   27.9390 C   0  0  0  0  0  0  0  0  0  0  0  0
    8.3860   -1.0320   26.6870 C   0  0  0  0  0  0  0  0  0  0  0  0
    8.1810   -0.3480   25.2960 C   0  0  0  0  0  0  0  0  0  0  0  0
    7.3880    0.9860   25.3410 C   0  0  0  0  0  0  0  0  0  0  0  0
    7.4780    1.6350   26.7160 C   0  0  0  0  0  0  0  0  0  0  0  0
    4.3100    0.5480   27.0440 C   0  0  0  0  0  0  0  0  0  0  0  0
    3.2540   -0.1210   26.3980 C   0  0  0  0  0  0  0  0  0  0  0  0
    3.4010   -1.2170   25.6250 N   0  0  0  0  0  0  0  0  0  0  0  0
  1  2  1  0
  2  3  1  0
  3  4  2  0
  4  5  1  0
  5  6  2  0
  6  7  1  0
  3  8  1  0
  7  8  2  0
  8  9  1  0
  9 10  2  0
 10 11  1  0
 11 12  1  0
 12 13  1  0
 13 14  3  0
 14 15  1  0
 15 16  2  0
 16 17  1  0
 17 18  2  0
 18 19  1  0
 15 20  1  0
 19 20  2  0
 12 21  1  0
 21 22  1  0
 22 23  1  0
 23 24  1  0
 12 25  1  0
 24 25  1  0
 11 26  2  0
 26 27  1  0
  9 28  1  0
 27 28  2  0
M  END
