WAR-XCH-bdd24732-34
     RDKit          3D

 22 25  0  0  0  0  0  0  0  0999 V2000
    6.3700   -3.4950   26.2770 C   0  0  0  0  0  0  0  0  0  0  0  0
    6.0520   -4.7750   26.9970 C   0  0  0  0  0  0  0  0  0  0  0  0
    6.2040   -3.4810   26.6820 C   0  0  0  0  0  0  0  0  0  0  0  0
    6.8230   -3.4160   25.1770 C   0  0  0  0  0  0  0  0  0  0  0  0
    6.8020   -1.6090   25.2520 S   0  0  0  0  0  0  0  0  0  0  0  0
    7.4900   -1.2790   23.5650 C   0  0  0  0  0  0  0  0  0  0  0  0
    7.7400   -0.0610   22.8840 C   0  0  0  0  0  0  0  0  0  0  0  0
    8.9570    0.7690   23.0300 C   0  0  0  0  0  0  0  0  0  0  0  0
    9.0820    1.9510   22.3430 C   0  0  0  0  0  0  0  0  0  0  0  0
   10.2810    2.7680   22.5000 C   0  0  0  0  0  0  0  0  0  0  0  0
   10.4930    3.4860   23.5990 C   0  0  0  0  0  0  0  0  0  0  0  0
   10.5450    4.9410   23.3990 C   0  0  0  0  0  0  0  0  0  0  0  0
    9.5300    5.7290   22.8820 C   0  0  0  0  0  0  0  0  0  0  0  0
    9.8320    7.0150   22.8170 N   0  0  0  0  0  0  0  0  0  0  0  0
   11.0990    7.0200   23.3170 N   0  0  0  0  0  0  0  0  0  0  0  0
   11.5530    5.8360   23.6660 C   0  0  0  0  0  0  0  0  0  0  0  0
    8.0550    2.3680   21.4970 C   0  0  0  0  0  0  0  0  0  0  0  0
    6.8120    1.5090   21.3410 C   0  0  0  0  0  0  0  0  0  0  0  0
    6.6320    0.3440   21.9910 N   0  0  0  0  0  0  0  0  0  0  0  0
    7.7160   -2.4850   23.0510 N   0  0  0  0  0  0  0  0  0  0  0  0
    7.2040   -2.4320   24.2890 C   0  0  0  0  0  0  0  0  0  0  0  0
    6.8280   -3.3370   25.1670 C   0  0  0  0  0  0  0  0  0  0  0  0
  1  2  2  0
  2  3  1  0
  3  4  2  0
  4  5  1  0
  5  6  1  0
  6  7  1  0
  7  8  2  0
  8  9  1  0
  9 10  1  0
 10 11  1  0
 11 12  1  0
 12 13  1  0
 13 14  2  0
 14 15  1  0
 12 16  2  0
 15 16  1  0
  9 17  2  0
 17 18  1  0
  7 19  1  0
 18 19  2  0
  6 20  2  0
  4 21  1  0
 20 21  1  0
  1 22  1  0
 21 22  2  0
M  END
