WIL-LEE-364b6ea8-33
     RDKit          3D

 21 21  0  0  0  0  0  0  0  0999 V2000
    5.4690   -7.5070   29.3310 C   0  0  0  0  0  0  0  0  0  0  0  0
    5.1970   -6.4710   28.3260 C   0  0  0  0  0  0  0  0  0  0  0  0
    3.8420   -6.6140   27.8430 O   0  0  0  0  0  0  0  0  0  0  0  0
    6.0490   -5.5440   27.9280 N   0  0  0  0  0  0  0  0  0  0  0  0
    6.3430   -5.2780   26.5170 C   0  0  0  0  0  0  0  0  0  0  0  0
    5.4960   -5.6760   25.5340 O   0  0  0  0  0  0  0  0  0  0  0  0
    7.8890   -4.3870   26.1390 S   0  0  0  0  0  0  0  0  0  0  0  0
    8.9830   -5.3260   25.9980 O   0  0  0  0  0  0  0  0  0  0  0  0
    8.1050   -3.4100   27.1840 O   0  0  0  0  0  0  0  0  0  0  0  0
    7.4750   -3.5390   24.5820 C   0  0  0  0  0  0  0  0  0  0  0  0
    8.7280   -3.0990   23.9110 C   0  0  0  0  0  0  0  0  0  0  0  0
    9.7360   -3.7600   24.0290 O   0  0  0  0  0  0  0  0  0  0  0  0
    8.7700   -1.9510   23.1320 C   0  0  0  0  0  0  0  0  0  0  0  0
   10.2480   -1.6000   22.9760 C   0  0  0  0  0  0  0  0  0  0  0  0
   10.6480   -0.6890   24.0140 O   0  0  0  0  0  0  0  0  0  0  0  0
   11.5610    0.1720   23.4950 C   0  0  0  0  0  0  0  0  0  0  0  0
   11.0500    1.2600   22.6690 C   0  0  0  0  0  0  0  0  0  0  0  0
   12.5170    1.3540   22.7030 C   0  0  0  0  0  0  0  0  0  0  0  0
   13.1720    0.1510   22.2190 C   0  0  0  0  0  0  0  0  0  0  0  0
   13.6820   -0.9420   22.9810 C   0  0  0  0  0  0  0  0  0  0  0  0
   12.9550    0.1150   23.6810 C   0  0  0  0  0  0  0  0  0  0  0  0
  1  2  1  0
  2  3  2  0
  2  4  1  0
  4  5  1  0
  5  6  2  0
  7  5  1  0
  7  8  2  0
  7  9  2  0
  7 10  1  0
 10 11  1  0
 11 12  2  0
 11 13  1  0
 13 14  1  0
 14 15  1  0
 15 16  1  0
 16 17  2  0
 17 18  1  0
 18 19  1  0
 19 20  2  0
 16 21  1  0
 20 21  1  0
M  END
