WIL-NOV-066c4001-1
     RDKit          3D

 19 20  0  0  0  0  0  0  0  0999 V2000
    6.4220    1.1570   -7.6360 N   0  0  0  0  0  0  0  0  0  0  0  0
    5.9010    1.1340   -6.0660 S   0  0  0  0  0  0  0  0  0  0  0  0
    4.6470    1.7650   -5.9000 O   0  0  0  0  0  0  0  0  0  0  0  0
    6.9420    1.8000   -5.3920 O   0  0  0  0  0  0  0  0  0  0  0  0
    6.1930   -0.5730   -6.0930 C   0  0  0  0  0  0  0  0  0  0  0  0
    7.3850   -0.1610   -6.4030 C   0  0  0  0  0  0  0  0  0  0  0  0
    8.4260   -0.8150   -6.6430 C   0  0  0  0  0  0  0  0  0  0  0  0
    8.0850   -2.0940   -6.5370 C   0  0  0  0  0  0  0  0  0  0  0  0
    6.7540   -2.6350   -6.1890 C   0  0  0  0  0  0  0  0  0  0  0  0
    5.5590   -2.0490   -5.9050 C   0  0  0  0  0  0  0  0  0  0  0  0
    5.6810   -3.5350   -5.9540 C   0  0  0  0  0  0  0  0  0  0  0  0
    5.3810   -4.6990   -6.1240 O   0  0  0  0  0  0  0  0  0  0  0  0
    4.3440   -3.5820   -6.2110 N   0  0  0  0  0  0  0  0  0  0  0  0
    3.3210   -4.6580   -6.6450 C   0  0  0  0  0  0  0  0  0  0  0  0
    3.4630   -5.5710   -7.7010 C   0  0  2  0  0  0  0  0  0  0  0  0
    3.1750   -5.1090   -9.1580 C   0  0  0  0  0  0  0  0  0  0  0  0
    1.8330   -5.2660   -9.4270 C   0  0  0  0  0  0  0  0  0  0  0  0
    1.1980   -5.8070   -8.3020 C   0  0  0  0  0  0  0  0  0  0  0  0
    2.2770   -6.3970   -7.5540 O   0  0  0  0  0  0  0  0  0  0  0  0
  2  1  1  0
  2  3  2  0
  2  4  2  0
  2  5  1  0
  5  6  2  0
  6  7  1  0
  7  8  2  0
  8  9  1  0
  5 10  1  0
  9 10  2  0
 10 11  1  0
 11 12  2  0
 11 13  1  0
 13 14  1  0
 15 14  1  1
 15 16  1  0
 16 17  1  0
 17 18  1  0
 15 19  1  0
 18 19  1  0
M  END
