WIL-LEE-1f71e281-5
     RDKit          3D

 18 19  0  0  0  0  0  0  0  0999 V2000
    8.2610    0.1890   21.2630 C   0  0  0  0  0  0  0  0  0  0  0  0
    7.8680   -1.2210   21.1190 C   0  0  0  0  0  0  0  0  0  0  0  0
    7.3270   -1.5470   20.0690 O   0  0  0  0  0  0  0  0  0  0  0  0
    8.0830   -2.0880   22.0980 N   0  0  0  0  0  0  0  0  0  0  0  0
    8.5280   -1.6260   23.4170 C   0  0  1  0  0  0  0  0  0  0  0  0
    9.9150   -1.0480   23.3280 C   0  0  0  0  0  0  0  0  0  0  0  0
   10.4060    0.0680   24.0070 C   0  0  0  0  0  0  0  0  0  0  0  0
   11.8040    0.6040   23.8660 C   0  0  0  0  0  0  0  0  0  0  0  0
   12.6720    0.0070   23.0540 C   0  0  0  0  0  0  0  0  0  0  0  0
   12.2170   -1.2040   22.2900 C   0  0  0  0  0  0  0  0  0  0  0  0
   13.2200   -2.0460   21.2200 Cl  0  0  0  0  0  0  0  0  0  0  0  0
   10.7990   -1.6970   22.4700 C   0  0  0  0  0  0  0  0  0  0  0  0
    7.4480   -0.7300   23.8920 N   0  0  0  0  0  0  0  0  0  0  0  0
    7.8320    0.1000   24.8970 C   0  0  0  0  0  0  0  0  0  0  0  0
    6.8100    0.8320   25.7330 C   0  0  0  0  0  0  0  0  0  0  0  0
    5.6060    0.0800   25.9340 O   0  0  0  0  0  0  0  0  0  0  0  0
    5.2320   -0.7100   24.7950 C   0  0  0  0  0  0  0  0  0  0  0  0
    6.2870   -1.5250   24.3820 C   0  0  0  0  0  0  0  0  0  0  0  0
  1  2  1  0
  2  3  2  0
  2  4  1  0
  5  4  1  6
  5  6  1  0
  6  7  2  0
  7  8  1  0
  8  9  2  0
  9 10  1  0
 10 11  1  0
  6 12  1  0
 10 12  2  0
  5 13  1  0
 13 14  1  0
 14 15  1  0
 15 16  1  0
 16 17  1  0
 13 18  1  0
 17 18  1  0
M  END
