WIL-LEE-1f71e281-4
     RDKit          3D

 18 19  0  0  0  0  0  0  0  0999 V2000
    8.0790    0.1140   21.0970 C   0  0  0  0  0  0  0  0  0  0  0  0
    7.6660   -1.3230   21.1300 C   0  0  0  0  0  0  0  0  0  0  0  0
    6.9970   -1.7670   20.2120 O   0  0  0  0  0  0  0  0  0  0  0  0
    8.1130   -1.9760   22.2770 N   0  0  0  0  0  0  0  0  0  0  0  0
    8.6430   -1.3590   23.4630 C   0  0  1  0  0  0  0  0  0  0  0  0
    9.9790   -0.9340   23.3530 C   0  0  0  0  0  0  0  0  0  0  0  0
   10.5210    0.1560   24.0680 C   0  0  0  0  0  0  0  0  0  0  0  0
   11.8430    0.5500   23.9150 C   0  0  0  0  0  0  0  0  0  0  0  0
   12.7020   -0.1290   23.0440 C   0  0  0  0  0  0  0  0  0  0  0  0
   12.2280   -1.3170   22.2360 C   0  0  0  0  0  0  0  0  0  0  0  0
   13.1750   -2.2090   21.1570 Cl  0  0  0  0  0  0  0  0  0  0  0  0
   10.7770   -1.6620   22.4690 C   0  0  0  0  0  0  0  0  0  0  0  0
    7.8720   -0.2790   23.8440 N   0  0  0  0  0  0  0  0  0  0  0  0
    8.3510    1.0030   23.8300 C   0  0  0  0  0  0  0  0  0  0  0  0
    7.2680    1.9770   23.9320 C   0  0  0  0  0  0  0  0  0  0  0  0
    6.4610    1.9430   24.8530 O   0  0  0  0  0  0  0  0  0  0  0  0
    5.9260    0.6140   25.0090 C   0  0  0  0  0  0  0  0  0  0  0  0
    7.0010   -0.4830   24.9770 C   0  0  0  0  0  0  0  0  0  0  0  0
  1  2  1  0
  2  3  2  0
  2  4  1  0
  5  4  1  6
  5  6  1  0
  6  7  2  0
  7  8  1  0
  8  9  2  0
  9 10  1  0
 10 11  1  0
  6 12  1  0
 10 12  2  0
  5 13  1  0
 13 14  1  0
 14 15  1  0
 15 16  1  0
 16 17  1  0
 13 18  1  0
 17 18  1  0
M  END
