WIL-LEE-23e8b574-4
     RDKit          3D

 22 23  0  0  0  0  0  0  0  0999 V2000
   14.0110    5.4890   22.5700 C   0  0  0  0  0  0  0  0  0  0  0  0
   12.9800    6.5970   22.7800 C   0  0  0  0  0  0  0  0  0  0  0  0
   13.1780    7.7630   23.1490 O   0  0  0  0  0  0  0  0  0  0  0  0
   11.8290    6.0040   22.4180 N   0  0  0  0  0  0  0  0  0  0  0  0
   12.0890    4.9440   21.5830 C   0  0  0  0  0  0  0  0  0  0  0  0
   11.5510    3.7390   21.8590 C   0  0  0  0  0  0  0  0  0  0  0  0
   11.4070    3.2590   23.0370 N   0  0  0  0  0  0  0  0  0  0  0  0
   12.2410    2.1720   23.0540 C   0  0  0  0  0  0  0  0  0  0  0  0
   11.6990    0.9310   23.0600 C   0  0  0  0  0  0  0  0  0  0  0  0
   12.4200   -0.3050   23.0860 C   0  0  0  0  0  0  0  0  0  0  0  0
   11.6310   -1.6360   23.1240 C   0  0  0  0  0  0  0  0  0  0  0  0
   10.1050   -1.4560   23.1280 C   0  0  0  0  0  0  0  0  0  0  0  0
    9.1030   -2.5530   23.1690 C   0  0  0  0  0  0  0  0  0  0  0  0
    7.9090   -3.2510   22.7000 C   0  0  0  0  0  0  0  0  0  0  0  0
    6.8950   -3.7600   23.9650 S   0  0  0  0  0  0  0  0  0  0  0  0
    5.3660   -3.4860   23.3070 N   0  0  0  0  0  0  0  0  0  0  0  0
    7.0570   -2.8860   25.1030 O   0  0  0  0  0  0  0  0  0  0  0  0
    7.0660   -5.1900   24.1110 O   0  0  0  0  0  0  0  0  0  0  0  0
    9.5040   -0.2610   23.0910 C   0  0  0  0  0  0  0  0  0  0  0  0
   10.3290    0.9700   23.0540 C   0  0  0  0  0  0  0  0  0  0  0  0
   11.4350    4.2880   24.0030 C   0  0  0  0  0  0  0  0  0  0  0  0
   10.8670    5.5800   23.4610 C   0  0  0  0  0  0  0  0  0  0  0  0
  1  2  1  0
  2  3  2  0
  2  4  1  0
  4  5  1  0
  5  6  1  0
  6  7  1  0
  7  8  1  0
  8  9  1  0
  9 10  2  0
 10 11  1  0
 11 12  2  0
 12 13  1  0
 13 14  1  0
 14 15  1  0
 15 16  1  0
 15 17  2  0
 15 18  2  0
 12 19  1  0
  9 20  1  0
 19 20  2  0
  7 21  1  0
  4 22  1  0
 21 22  1  0
M  END
