WIL-LEE-23e8b574-2
     RDKit          3D

 22 23  0  0  0  0  0  0  0  0999 V2000
   12.5410    4.1720   22.0200 C   0  0  0  0  0  0  0  0  0  0  0  0
   11.8310    2.9500   22.5930 C   0  0  0  0  0  0  0  0  0  0  0  0
   10.6270    2.7830   22.4160 O   0  0  0  0  0  0  0  0  0  0  0  0
   12.7020    2.0490   23.3570 N   0  0  0  0  0  0  0  0  0  0  0  0
   13.2970    0.8850   22.7270 C   0  0  0  0  0  0  0  0  0  0  0  0
   13.2790   -0.3930   23.4710 C   0  0  0  0  0  0  0  0  0  0  0  0
   11.9020   -0.8240   23.4420 C   0  0  0  0  0  0  0  0  0  0  0  0
   11.6560   -2.2670   23.6290 C   0  0  0  0  0  0  0  0  0  0  0  0
   10.2170   -2.7110   23.6200 C   0  0  0  0  0  0  0  0  0  0  0  0
    9.0920   -1.6400   23.4150 C   0  0  0  0  0  0  0  0  0  0  0  0
    7.7540   -1.9070   23.4030 C   0  0  0  0  0  0  0  0  0  0  0  0
    7.4050   -3.1660   24.0530 N   0  0  0  0  0  0  0  0  0  0  0  0
    6.2450   -3.1480   24.9620 C   0  0  0  0  0  0  0  0  0  0  0  0
    5.6020   -4.3580   25.0780 C   0  0  0  0  0  0  0  0  0  0  0  0
    5.6390   -5.2290   24.0510 N   0  0  0  0  0  0  0  0  0  0  0  0
    4.5530   -5.3100   23.0760 C   0  0  0  0  0  0  0  0  0  0  0  0
    3.2970   -4.8720   23.4910 C   0  0  0  0  0  0  0  0  0  0  0  0
    4.7220   -5.7340   21.9380 O   0  0  0  0  0  0  0  0  0  0  0  0
    6.9830   -5.5190   23.5750 C   0  0  0  0  0  0  0  0  0  0  0  0
    7.6570   -4.3650   23.2350 C   0  0  0  0  0  0  0  0  0  0  0  0
    9.4490   -0.2940   23.2340 C   0  0  0  0  0  0  0  0  0  0  0  0
   10.7610    0.1110   23.2400 C   0  0  0  0  0  0  0  0  0  0  0  0
  1  2  1  0
  2  3  2  0
  2  4  1  0
  4  5  1  0
  5  6  1  0
  6  7  1  0
  7  8  2  0
  8  9  1  0
  9 10  2  0
 10 11  1  0
 11 12  1  0
 12 13  1  0
 13 14  1  0
 14 15  1  0
 15 16  1  0
 16 17  1  0
 16 18  2  0
 15 19  1  0
 12 20  1  0
 19 20  1  0
 10 21  1  0
  7 22  1  0
 21 22  2  0
M  END
