WIL-WAB-1289c0dd-1
     RDKit          3D

 36 40  0  0  0  0  0  0  0  0999 V2000
   26.1060   -5.5430   27.1620 C   0  0  0  0  0  0  0  0  0  0  0  0
   25.0960   -4.6920   26.4750 C   0  0  0  0  0  0  0  0  0  0  0  0
   25.3510   -3.9090   25.4000 C   0  0  0  0  0  0  0  0  0  0  0  0
   24.1580   -3.1150   24.8250 C   0  0  0  0  0  0  0  0  0  0  0  0
   22.8280   -3.1860   25.3890 C   0  0  0  0  0  0  0  0  0  0  0  0
   21.8990   -2.5410   24.8780 O   0  0  0  0  0  0  0  0  0  0  0  0
   20.6100   -2.4460   25.5130 C   0  0  0  0  0  0  0  0  0  0  0  0
   19.7470   -3.5490   25.5200 C   0  0  0  0  0  0  0  0  0  0  0  0
   20.3060   -4.6740   26.1380 O   0  0  0  0  0  0  0  0  0  0  0  0
   18.4110   -3.4430   25.0610 N   0  0  0  0  0  0  0  0  0  0  0  0
   17.5710   -4.6600   24.9410 C   0  0  0  0  0  0  0  0  0  0  0  0
   16.0310   -4.4730   24.7740 C   0  0  0  0  0  0  0  0  0  0  0  0
   15.2570   -3.6380   25.4750 N   0  0  0  0  0  0  0  0  0  0  0  0
   13.9520   -3.2080   24.7210 C   0  0  0  0  0  0  0  0  0  0  0  0
   13.2950   -1.9040   24.5970 C   0  0  0  0  0  0  0  0  0  0  0  0
   12.2360   -1.6980   23.7150 N   0  0  0  0  0  0  0  0  0  0  0  0
   10.8990   -2.1220   24.1490 C   0  0  0  0  0  0  0  0  0  0  0  0
    9.8080   -2.0180   23.1640 C   0  0  0  0  0  0  0  0  0  0  0  0
    9.9480   -0.9380   22.3880 N   0  0  0  0  0  0  0  0  0  0  0  0
    8.9070   -0.4580   21.6240 C   0  0  0  0  0  0  0  0  0  0  0  0
    7.5500   -0.8930   21.6750 C   0  0  0  0  0  0  0  0  0  0  0  0
    6.6770   -0.7770   20.5390 C   0  0  2  0  0  0  0  0  0  0  0  0
    7.1500   -0.2740   19.3400 C   0  0  0  0  0  0  0  0  0  0  0  0
    6.1210    0.2220   18.4040 N   0  0  0  0  0  0  0  0  0  0  0  0
    5.2330    0.5390   19.2710 C   0  0  0  0  0  0  0  0  0  0  0  0
    4.0850    1.1600   19.0040 N   0  0  0  0  0  0  0  0  0  0  0  0
    3.8600    2.0470   19.9140 C   0  0  0  0  0  0  0  0  0  0  0  0
    4.7170    2.3500   21.0540 C   0  0  0  0  0  0  0  0  0  0  0  0
    5.5600    1.3410   21.4190 C   0  0  0  0  0  0  0  0  0  0  0  0
    5.5030    0.2100   20.7070 C   0  0  2  0  0  0  0  0  0  0  0  0
   10.7860    0.0840   23.0400 C   0  0  0  0  0  0  0  0  0  0  0  0
   12.0850   -0.3140   23.1710 C   0  0  0  0  0  0  0  0  0  0  0  0
   15.9700   -2.4990   26.0540 C   0  0  0  0  0  0  0  0  0  0  0  0
   17.7370   -2.3360   25.6910 C   0  0  0  0  0  0  0  0  0  0  0  0
   22.7120   -4.0160   26.4950 C   0  0  0  0  0  0  0  0  0  0  0  0
   23.8080   -4.7350   27.0040 C   0  0  0  0  0  0  0  0  0  0  0  0
  1  2  1  0
  2  3  2  0
  3  4  1  0
  4  5  2  0
  5  6  1  0
  6  7  1  0
  7  8  1  0
  8  9  2  0
  8 10  1  0
 10 11  1  0
 11 12  1  0
 12 13  1  0
 13 14  1  0
 14 15  1  0
 15 16  1  0
 16 17  1  0
 17 18  1  0
 18 19  1  0
 19 20  1  0
 20 21  1  0
 22 21  1  1
 22 23  1  0
 23 24  1  0
 24 25  2  0
 25 26  1  0
 26 27  2  0
 27 28  1  0
 28 29  2  0
 22 30  1  0
 25 30  1  0
 30 29  1  1
 19 31  1  0
 16 32  1  0
 31 32  1  0
 13 33  1  0
 10 34  1  0
 33 34  1  0
  5 35  1  0
  2 36  1  0
 35 36  2  0
M  END
