WIL-LEE-364b6ea8-1
     RDKit          3D

 26 27  0  0  0  0  0  0  0  0999 V2000
    1.9110   -8.4230   30.1230 C   0  0  0  0  0  0  0  0  0  0  0  0
    3.2820   -7.8490   30.3260 C   0  0  0  0  0  0  0  0  0  0  0  0
    3.9730   -8.0480   31.3220 O   0  0  0  0  0  0  0  0  0  0  0  0
    3.7970   -6.9710   29.2090 C   0  0  0  0  0  0  0  0  0  0  0  0
    3.0630   -6.7110   28.2590 O   0  0  0  0  0  0  0  0  0  0  0  0
    5.2020   -6.3910   29.2410 C   0  0  0  0  0  0  0  0  0  0  0  0
    5.8600   -6.5000   30.2700 O   0  0  0  0  0  0  0  0  0  0  0  0
    5.5930   -5.7710   28.0610 N   0  0  0  0  0  0  0  0  0  0  0  0
    6.8880   -5.5660   27.6670 C   0  0  0  0  0  0  0  0  0  0  0  0
    7.4870   -4.9120   26.6650 C   0  0  0  0  0  0  0  0  0  0  0  0
    6.8680   -4.1530   25.5910 C   0  0  0  0  0  0  0  0  0  0  0  0
    5.7670   -4.4700   25.1970 O   0  0  0  0  0  0  0  0  0  0  0  0
    7.5900   -2.9530   24.9810 C   0  0  0  0  0  0  0  0  0  0  0  0
    7.1840   -1.8310   25.2360 O   0  0  0  0  0  0  0  0  0  0  0  0
    8.7700   -3.0770   24.0420 C   0  0  0  0  0  0  0  0  0  0  0  0
    9.4850   -4.0430   24.1860 O   0  0  0  0  0  0  0  0  0  0  0  0
    8.9200   -1.9540   23.0080 C   0  0  0  0  0  0  0  0  0  0  0  0
   10.2960   -1.3150   22.8920 C   0  0  0  0  0  0  0  0  0  0  0  0
   10.5670   -0.1060   23.3910 C   0  0  0  0  0  0  0  0  0  0  0  0
   11.7970    0.5230   23.3290 O   0  0  0  0  0  0  0  0  0  0  0  0
   12.8510   -0.1590   22.7970 C   0  0  0  0  0  0  0  0  0  0  0  0
   12.7260   -1.3680   22.2430 C   0  0  0  0  0  0  0  0  0  0  0  0
   11.3930   -2.0590   22.1810 C   0  0  0  0  0  0  0  0  0  0  0  0
    8.8530   -5.0080   26.7070 O   0  0  0  0  0  0  0  0  0  0  0  0
    8.9530   -5.4530   28.0560 C   0  0  0  0  0  0  0  0  0  0  0  0
    7.7990   -6.1710   28.4880 O   0  0  0  0  0  0  0  0  0  0  0  0
  1  2  1  0
  2  3  2  0
  2  4  1  0
  4  5  2  0
  4  6  1  0
  6  7  2  0
  6  8  1  0
  8  9  1  0
  9 10  2  0
 10 11  1  0
 11 12  2  0
 11 13  1  0
 13 14  2  0
 13 15  1  0
 15 16  2  0
 15 17  1  0
 17 18  1  0
 18 19  2  0
 19 20  1  0
 20 21  1  0
 21 22  2  0
 18 23  1  0
 22 23  1  0
 10 24  1  0
 24 25  1  0
  9 26  1  0
 25 26  1  0
M  END
