WIL-LEE-364b6ea8-34
     RDKit          3D

 22 22  0  0  0  0  0  0  0  0999 V2000
    6.2880   -6.0240   27.6040 C   0  0  0  0  0  0  0  0  0  0  0  0
    6.6050   -5.2060   26.3840 C   0  0  0  0  0  0  0  0  0  0  0  0
    8.1740   -4.5380   26.2390 S   0  0  0  0  0  0  0  0  0  0  0  0
    9.1650   -5.5880   26.2290 O   0  0  0  0  0  0  0  0  0  0  0  0
    8.1980   -3.4770   27.2190 O   0  0  0  0  0  0  0  0  0  0  0  0
    8.1790   -3.8360   24.7050 N   0  0  0  0  0  0  0  0  0  0  0  0
    7.5190   -2.5480   24.5410 C   0  0  0  0  0  0  0  0  0  0  0  0
    7.1650   -2.0580   23.2640 C   0  0  0  0  0  0  0  0  0  0  0  0
    7.4460   -2.8190   21.8230 S   0  0  0  0  0  0  0  0  0  0  0  0
    8.8880   -2.9180   21.6820 O   0  0  0  0  0  0  0  0  0  0  0  0
    6.6480   -2.1950   20.7810 O   0  0  0  0  0  0  0  0  0  0  0  0
    6.8070   -4.4660   21.9940 C   0  0  0  0  0  0  0  0  0  0  0  0
    7.4980   -5.4640   21.9180 O   0  0  0  0  0  0  0  0  0  0  0  0
    5.4410   -4.6550   22.2250 C   0  0  0  0  0  0  0  0  0  0  0  0
    4.6850   -3.8300   21.7320 O   0  0  0  0  0  0  0  0  0  0  0  0
    4.9840   -5.8670   23.0480 C   0  0  0  0  0  0  0  0  0  0  0  0
    3.6480   -5.8700   23.1910 C   0  0  0  0  0  0  0  0  0  0  0  0
    3.0210   -7.2250   23.2210 N   0  0  0  0  0  0  0  0  0  0  0  0
    2.9690   -4.8600   23.2810 O   0  0  0  0  0  0  0  0  0  0  0  0
    6.4740   -0.7070   23.2950 C   0  0  0  0  0  0  0  0  0  0  0  0
    6.4660   -0.4950   24.7710 C   0  0  0  0  0  0  0  0  0  0  0  0
    7.1100   -1.6280   25.5120 C   0  0  0  0  0  0  0  0  0  0  0  0
  1  2  1  0
  2  3  1  0
  3  4  2  0
  3  5  2  0
  3  6  1  0
  6  7  1  0
  7  8  2  0
  8  9  1  0
  9 10  2  0
  9 11  2  0
  9 12  1  0
 12 13  2  0
 12 14  1  0
 14 15  2  0
 14 16  1  0
 16 17  1  0
 17 18  1  0
 17 19  2  0
  8 20  1  0
 20 21  1  0
  7 22  1  0
 21 22  2  0
M  END
