WIL-LEE-364b6ea8-11
     RDKit          3D

 21 22  0  0  0  0  0  0  0  0999 V2000
    7.0190    6.2120   27.9180 C   0  0  0  0  0  0  0  0  0  0  0  0
    8.2590    5.3720   27.8490 C   0  0  0  0  0  0  0  0  0  0  0  0
    8.1280    3.9680   27.3140 C   0  0  0  0  0  0  0  0  0  0  0  0
    8.0650    3.9010   25.7950 C   0  0  0  0  0  0  0  0  0  0  0  0
    6.9080    3.9080   25.3800 O   0  0  0  0  0  0  0  0  0  0  0  0
    9.2460    3.8450   24.8380 C   0  0  0  0  0  0  0  0  0  0  0  0
   10.3650    4.7810   24.9410 O   0  0  0  0  0  0  0  0  0  0  0  0
    9.1140    2.8700   23.9350 C   0  0  0  0  0  0  0  0  0  0  0  0
   10.4380    2.5210   22.8910 S   0  0  0  0  0  0  0  0  0  0  0  0
   11.5730    3.2520   23.4050 O   0  0  0  0  0  0  0  0  0  0  0  0
    9.8590    2.8680   21.6140 O   0  0  0  0  0  0  0  0  0  0  0  0
   10.9120    0.7200   22.8220 C   0  0  1  0  0  0  0  0  0  0  0  0
   12.3190    0.2640   23.1300 C   0  0  0  0  0  0  0  0  0  0  0  0
   12.5350   -1.2190   23.1480 C   0  0  0  0  0  0  0  0  0  0  0  0
   13.7330   -1.8090   23.3930 O   0  0  0  0  0  0  0  0  0  0  0  0
   11.3240   -2.0720   22.8910 C   0  0  0  0  0  0  0  0  0  0  0  0
   10.2290   -1.4830   23.7380 C   0  0  2  0  0  0  0  0  0  0  0  0
    8.9280   -2.2050   23.6690 N   0  0  0  0  0  0  0  0  0  0  0  0
    7.8730   -1.1660   23.8130 O   0  0  0  0  0  0  0  0  0  0  0  0
    8.4880   -0.0450   23.3350 C   0  0  0  0  0  0  0  0  0  0  0  0
    9.8970   -0.1270   23.2580 C   0  0  0  0  0  0  0  0  0  0  0  0
  1  2  2  3
  2  3  1  0
  3  4  1  0
  4  5  2  0
  4  6  1  0
  6  7  2  0
  6  8  1  0
  9  8  1  0
  9 10  2  0
  9 11  2  0
 12  9  1  1
 12 13  1  0
 13 14  2  0
 14 15  1  0
 14 16  1  0
 17 16  1  6
 17 18  1  0
 18 19  1  0
 19 20  1  0
 12 21  1  0
 17 21  1  0
 20 21  2  0
M  END
