WIL-LEE-364b6ea8-25
     RDKit          3D

 14 13  0  0  0  0  0  0  0  0999 V2000
    9.7120    0.7650   23.5160 O   0  0  0  0  0  0  0  0  0  0  0  0
   10.6130   -0.0590   23.3880 C   0  0  0  0  0  0  0  0  0  0  0  0
   11.9530    0.1520   23.6130 O   0  0  0  0  0  0  0  0  0  0  0  0
   10.2710   -1.4190   22.9610 C   0  0  0  0  0  0  0  0  0  0  0  0
   11.1170   -2.0490   22.3320 O   0  0  0  0  0  0  0  0  0  0  0  0
    9.0640   -1.9530   23.2570 C   0  0  0  0  0  0  0  0  0  0  0  0
    8.1060   -1.3710   22.7600 O   0  0  0  0  0  0  0  0  0  0  0  0
    9.0200   -3.1570   24.1390 C   0  0  0  0  0  0  0  0  0  0  0  0
   10.0160   -3.8050   24.2540 O   0  0  0  0  0  0  0  0  0  0  0  0
    7.8430   -3.5090   24.8280 N   0  0  0  0  0  0  0  0  0  0  0  0
    7.9180   -4.3330   26.1540 S   0  0  0  0  0  0  0  0  0  0  0  0
    8.8710   -5.3930   25.9420 O   0  0  0  0  0  0  0  0  0  0  0  0
    8.0600   -3.3930   27.2360 O   0  0  0  0  0  0  0  0  0  0  0  0
    6.4500   -4.9710   26.3070 O   0  0  0  0  0  0  0  0  0  0  0  0
  1  2  2  0
  2  3  1  0
  2  4  1  0
  4  5  2  0
  4  6  1  0
  6  7  2  0
  6  8  1  0
  8  9  2  0
  8 10  1  0
 10 11  1  0
 11 12  2  0
 11 13  2  0
 11 14  1  0
M  END
