WIL-LEE-364b6ea8-31
     RDKit          3D

 19 19  0  0  0  0  0  0  0  0999 V2000
    7.6000  -10.2290   29.9670 C   0  0  0  0  0  0  0  0  0  0  0  0
    6.5510   -9.3290   29.7630 N   0  0  0  0  0  0  0  0  0  0  0  0
    6.0680   -8.2910   30.5340 C   0  0  0  0  0  0  0  0  0  0  0  0
    6.0190   -8.3650   31.7620 O   0  0  0  0  0  0  0  0  0  0  0  0
    5.5560   -7.0410   29.8970 C   0  0  0  0  0  0  0  0  0  0  0  0
    6.3760   -6.3390   28.9930 C   0  0  0  0  0  0  0  0  0  0  0  0
    6.1200   -5.1800   28.2470 C   0  0  0  0  0  0  0  0  0  0  0  0
    5.8590   -5.3400   26.8740 C   0  0  0  0  0  0  0  0  0  0  0  0
    7.0020   -4.6200   25.8260 S   0  0  0  0  0  0  0  0  0  0  0  0
    8.1800   -5.4660   25.7280 O   0  0  0  0  0  0  0  0  0  0  0  0
    7.0800   -3.2350   26.2250 O   0  0  0  0  0  0  0  0  0  0  0  0
    6.2050   -4.6260   24.2190 C   0  0  0  0  0  0  0  0  0  0  0  0
    5.3110   -5.6080   23.9200 O   0  0  0  0  0  0  0  0  0  0  0  0
    6.5420   -3.5060   23.2430 C   0  0  0  0  0  0  0  0  0  0  0  0
    7.9610   -3.2310   22.8250 C   0  0  0  0  0  0  0  0  0  0  0  0
    8.3660   -2.2450   21.9610 O   0  0  0  0  0  0  0  0  0  0  0  0
    7.3090   -1.4230   21.4480 C   0  0  0  0  0  0  0  0  0  0  0  0
    5.8520   -1.5650   21.7580 C   0  0  0  0  0  0  0  0  0  0  0  0
    5.3680   -2.6670   22.6980 C   0  0  0  0  0  0  0  0  0  0  0  0
  1  2  1  0
  2  3  1  0
  3  4  2  0
  3  5  1  0
  5  6  2  3
  6  7  1  0
  7  8  1  0
  8  9  1  0
  9 10  2  0
  9 11  2  0
  9 12  1  0
 12 13  2  0
 12 14  1  0
 14 15  2  0
 15 16  1  0
 16 17  1  0
 17 18  2  0
 14 19  1  0
 18 19  1  0
M  END
