WIL-WAB-6ef46ddb-1
     RDKit          3D

 24 25  0  0  0  0  0  0  0  0999 V2000
    9.8190    3.5540   22.6140 C   0  0  0  0  0  0  0  0  0  0  0  0
    8.3460    3.6690   22.4000 C   0  0  0  0  0  0  0  0  0  0  0  0
    7.7410    4.8420   22.1050 C   0  0  0  0  0  0  0  0  0  0  0  0
    6.2170    4.8290   21.9090 C   0  0  0  0  0  0  0  0  0  0  0  0
    5.4430    3.6090   22.0340 N   0  0  0  0  0  0  0  0  0  0  0  0
    6.1920    2.3930   22.3550 C   0  0  0  0  0  0  0  0  0  0  0  0
    7.5880    2.4850   22.5190 C   0  0  0  0  0  0  0  0  0  0  0  0
    8.2480    1.2850   22.8260 N   0  0  0  0  0  0  0  0  0  0  0  0
    7.9920    0.0130   22.2520 C   0  0  0  0  0  0  0  0  0  0  0  0
    7.9540   -0.1840   21.0450 O   0  0  0  0  0  0  0  0  0  0  0  0
    7.7430   -1.1510   23.1960 C   0  0  0  0  0  0  0  0  0  0  0  0
    8.9760   -2.0420   23.0960 C   0  0  2  0  0  0  0  0  0  0  0  0
    9.0770   -2.9220   24.1700 C   0  0  0  0  0  0  0  0  0  0  0  0
    7.9740   -3.5730   24.6180 N   0  0  0  0  0  0  0  0  0  0  0  0
    8.0550   -4.3830   26.0960 S   0  0  0  0  0  0  0  0  0  0  0  0
    6.4740   -5.1870   26.2470 C   0  0  0  0  0  0  0  0  0  0  0  0
    9.0660   -5.4010   25.9530 O   0  0  0  0  0  0  0  0  0  0  0  0
    8.1200   -3.3540   27.1020 O   0  0  0  0  0  0  0  0  0  0  0  0
   10.2080   -1.3390   23.1270 C   0  0  0  0  0  0  0  0  0  0  0  0
   10.5500   -0.1390   23.9250 C   0  0  0  0  0  0  0  0  0  0  0  0
   11.8150    0.4960   23.8930 C   0  0  0  0  0  0  0  0  0  0  0  0
   12.8260    0.0000   23.0830 C   0  0  0  0  0  0  0  0  0  0  0  0
   12.6300   -1.1050   22.3010 C   0  0  0  0  0  0  0  0  0  0  0  0
   11.4260   -1.7870   22.2670 C   0  0  0  0  0  0  0  0  0  0  0  0
  1  2  1  0
  2  3  2  0
  3  4  1  0
  4  5  2  0
  5  6  1  0
  2  7  1  0
  6  7  2  0
  7  8  1  0
  8  9  1  0
  9 10  2  0
  9 11  1  0
 12 11  1  1
 12 13  1  0
 13 14  1  0
 15 14  1  0
 15 16  1  0
 15 17  2  0
 15 18  2  0
 12 19  1  0
 19 20  2  0
 20 21  1  0
 21 22  2  0
 22 23  1  0
 19 24  1  0
 23 24  2  0
M  END
