WIL-LEE-364b6ea8-17
     RDKit          3D

 16 16  0  0  0  0  0  0  0  0999 V2000
   12.8900   -1.9640   21.4510 C   0  0  0  0  0  0  0  0  0  0  0  0
   13.0910   -2.9970   22.4030 O   0  0  0  0  0  0  0  0  0  0  0  0
   12.5190   -2.7430   23.8980 S   0  0  0  0  0  0  0  0  0  0  0  0
   13.4890   -2.7030   24.9660 O   0  0  0  0  0  0  0  0  0  0  0  0
   11.3630   -3.5630   24.1090 O   0  0  0  0  0  0  0  0  0  0  0  0
   11.8420   -1.1260   23.8160 C   0  0  0  0  0  0  0  0  0  0  0  0
   10.4170   -0.8500   23.4620 C   0  0  0  0  0  0  0  0  0  0  0  0
    9.2700   -1.7640   23.0670 C   0  0  0  0  0  0  0  0  0  0  0  0
    8.6850   -1.6310   22.0040 O   0  0  0  0  0  0  0  0  0  0  0  0
    8.7560   -2.7830   23.8980 C   0  0  0  0  0  0  0  0  0  0  0  0
    9.3540   -3.8370   23.9580 O   0  0  0  0  0  0  0  0  0  0  0  0
    7.5430   -2.5420   24.5800 C   0  0  0  0  0  0  0  0  0  0  0  0
    6.8340   -3.8330   24.7690 N   0  0  0  0  0  0  0  0  0  0  0  0
   10.3190    0.6310   23.5670 C   0  0  0  0  0  0  0  0  0  0  0  0
   11.6660    1.0450   23.6080 C   0  0  0  0  0  0  0  0  0  0  0  0
   12.5800    0.0880   24.0860 C   0  0  0  0  0  0  0  0  0  0  0  0
  1  2  1  0
  3  2  1  0
  3  4  2  0
  3  5  2  0
  3  6  1  0
  6  7  2  0
  7  8  1  0
  8  9  2  0
  8 10  1  0
 10 11  2  0
 10 12  1  0
 12 13  1  0
  7 14  1  0
 14 15  1  0
  6 16  1  0
 15 16  1  0
M  END
