WIL-LEE-364b6ea8-23
     RDKit          3D

 32 33  0  0  0  0  0  0  0  0999 V2000
    7.1010   -3.9920   22.9620 O   0  0  0  0  0  0  0  0  0  0  0  0
    7.4900   -3.4910   24.0220 C   0  0  0  0  0  0  0  0  0  0  0  0
    8.7940   -2.7340   24.0830 C   0  0  0  0  0  0  0  0  0  0  0  0
    9.1960   -1.8950   22.9170 C   0  0  0  0  0  0  0  0  0  0  0  0
   10.5520   -1.2280   23.0910 C   0  0  0  0  0  0  0  0  0  0  0  0
   10.9030    0.1920   22.8630 C   0  0  0  0  0  0  0  0  0  0  0  0
   12.2190    0.5360   23.0870 C   0  0  0  0  0  0  0  0  0  0  0  0
   12.5680   -0.6460   23.4290 O   0  0  0  0  0  0  0  0  0  0  0  0
   11.6900   -1.7520   23.4800 C   0  0  0  0  0  0  0  0  0  0  0  0
   12.2030   -3.0010   23.8970 O   0  0  0  0  0  0  0  0  0  0  0  0
   13.5040   -2.8250   24.4300 C   0  0  0  0  0  0  0  0  0  0  0  0
   13.6910   -3.5600   25.6330 O   0  0  0  0  0  0  0  0  0  0  0  0
    6.8930   -3.5100   25.2620 O   0  0  0  0  0  0  0  0  0  0  0  0
    5.9670   -4.4720   25.5530 C   0  0  0  0  0  0  0  0  0  0  0  0
    5.0950   -5.1260   26.1080 O   0  0  0  0  0  0  0  0  0  0  0  0
    5.9370   -3.5690   26.5910 N   0  0  0  0  0  0  0  0  0  0  0  0
    4.7170   -2.8420   26.8250 C   0  0  0  0  0  0  0  0  0  0  0  0
    4.2740   -2.1030   25.9540 O   0  0  0  0  0  0  0  0  0  0  0  0
    4.1800   -3.0730   28.0460 O   0  0  0  0  0  0  0  0  0  0  0  0
    3.6710   -2.0100   28.7010 C   0  0  0  0  0  0  0  0  0  0  0  0
    3.6740   -0.8300   28.3920 O   0  0  0  0  0  0  0  0  0  0  0  0
    3.1040   -2.4320   29.8490 C   0  0  0  0  0  0  0  0  0  0  0  0
    3.5900   -2.1760   30.9510 O   0  0  0  0  0  0  0  0  0  0  0  0
    1.9040   -3.1840   29.6610 C   0  0  0  0  0  0  0  0  0  0  0  0
    0.9130   -2.5100   30.2600 C   0  0  0  0  0  0  0  0  0  0  0  0
   -0.1940   -3.3870   30.7780 C   0  0  0  0  0  0  0  0  0  0  0  0
   -1.2050   -3.7800   29.8870 C   0  0  0  0  0  0  0  0  0  0  0  0
   -1.9910   -2.8660   29.2250 C   0  0  0  0  0  0  0  0  0  0  0  0
   -2.9700   -3.3650   28.3440 C   0  0  0  0  0  0  0  0  0  0  0  0
   -3.6840   -4.6040   28.7630 C   0  0  0  0  0  0  0  0  0  0  0  0
   -2.6490   -5.5130   29.5210 C   0  0  0  0  0  0  0  0  0  0  0  0
   -1.3560   -5.1490   29.7300 O   0  0  0  0  0  0  0  0  0  0  0  0
  1  2  2  0
  2  3  1  0
  3  4  1  0
  4  5  1  0
  5  6  1  0
  6  7  2  0
  7  8  1  0
  5  9  2  0
  8  9  1  0
  9 10  1  0
 10 11  1  0
 11 12  1  0
  2 13  1  0
 13 14  1  0
 14 15  2  0
 14 16  1  0
 16 17  1  0
 17 18  2  0
 17 19  1  0
 19 20  1  0
 20 21  2  0
 20 22  1  0
 22 23  2  0
 22 24  1  0
 24 25  1  0
 25 26  1  0
 26 27  1  0
 27 28  2  0
 28 29  1  0
 29 30  1  0
 30 31  2  0
 27 32  1  0
 31 32  1  0
M  END
