WIL-LEE-364b6ea8-12
     RDKit          3D

 17 18  0  0  0  0  0  0  0  0999 V2000
    8.1950   -0.7740   21.0000 C   0  0  0  0  0  0  0  0  0  0  0  0
    9.3460   -0.9610   21.3830 O   0  0  0  0  0  0  0  0  0  0  0  0
    9.4440   -1.3910   22.6730 C   0  0  2  0  0  0  0  0  0  0  0  0
    9.7310   -0.4030   23.4290 C   0  0  0  0  0  0  0  0  0  0  0  0
   10.9630    0.2090   23.1110 C   0  0  0  0  0  0  0  0  0  0  0  0
   11.2290    1.5770   23.0110 C   0  0  0  0  0  0  0  0  0  0  0  0
   12.5380    2.0060   22.7050 C   0  0  0  0  0  0  0  0  0  0  0  0
   13.4620    1.0980   22.8940 C   0  0  0  0  0  0  0  0  0  0  0  0
   13.2570   -0.1620   23.3710 N   0  0  0  0  0  0  0  0  0  0  0  0
   12.0050   -0.6850   22.8560 C   0  0  1  0  0  0  0  0  0  0  0  0
   11.6760   -2.0570   23.2780 C   0  0  0  0  0  0  0  0  0  0  0  0
   10.3420   -2.4450   22.9160 C   0  0  1  0  0  0  0  0  0  0  0  0
    9.7990   -3.2930   23.6320 O   0  0  0  0  0  0  0  0  0  0  0  0
    8.2080   -3.6650   23.4780 S   0  0  0  0  0  0  0  0  0  0  0  0
    7.8080   -5.0260   23.7690 O   0  0  0  0  0  0  0  0  0  0  0  0
    7.7970   -3.1800   22.1850 O   0  0  0  0  0  0  0  0  0  0  0  0
    7.6450   -2.9580   24.6190 O   0  0  0  0  0  0  0  0  0  0  0  0
  1  2  1  0
  3  2  1  6
  3  4  1  0
  4  5  1  0
  5  6  2  0
  6  7  1  0
  7  8  2  0
  8  9  1  0
  5 10  1  0
  9 10  1  0
 10 11  1  1
  3 12  1  0
 11 12  1  0
 12 13  1  1
 14 13  1  0
 14 15  2  0
 14 16  2  0
 14 17  1  0
M  END
