WIL-LEE-364b6ea8-15
     RDKit          3D

 22 23  0  0  0  0  0  0  0  0999 V2000
   12.3180    1.6100   23.2770 C   0  0  0  0  0  0  0  0  0  0  0  0
   12.6060    0.5040   23.7150 O   0  0  0  0  0  0  0  0  0  0  0  0
   12.2230   -0.5520   22.9600 C   0  0  0  0  0  0  0  0  0  0  0  0
   10.8700   -1.1070   22.7750 C   0  0  0  0  0  0  0  0  0  0  0  0
    9.5140   -0.6290   23.3540 C   0  0  0  0  0  0  0  0  0  0  0  0
    9.5820    0.3630   24.4470 C   0  0  0  0  0  0  0  0  0  0  0  0
   10.3890   -0.4480   23.8900 C   0  0  0  0  0  0  0  0  0  0  0  0
    9.2870   -1.6750   23.6470 C   0  0  0  0  0  0  0  0  0  0  0  0
    9.1940   -3.0120   24.1400 O   0  0  0  0  0  0  0  0  0  0  0  0
    8.4380   -3.7350   25.4600 S   0  0  0  0  0  0  0  0  0  0  0  0
    8.7900   -5.0990   25.8120 O   0  0  0  0  0  0  0  0  0  0  0  0
    8.4060   -2.7590   26.5270 O   0  0  0  0  0  0  0  0  0  0  0  0
    6.6600   -3.7440   25.0750 C   0  0  0  0  0  0  0  0  0  0  0  0
    5.5590   -4.0320   24.6270 O   0  0  0  0  0  0  0  0  0  0  0  0
    7.1710   -4.8340   24.3820 N   0  0  0  0  0  0  0  0  0  0  0  0
    6.2830   -5.8070   23.7010 C   0  0  0  0  0  0  0  0  0  0  0  0
    6.9470   -6.5390   22.5620 C   0  0  0  0  0  0  0  0  0  0  0  0
    5.1180   -6.0370   23.9980 O   0  0  0  0  0  0  0  0  0  0  0  0
    8.3780   -1.0770   22.8630 C   0  0  0  0  0  0  0  0  0  0  0  0
   10.9010   -2.1720   21.8550 C   0  0  0  0  0  0  0  0  0  0  0  0
   12.2960   -2.2570   21.4700 C   0  0  0  0  0  0  0  0  0  0  0  0
   13.1430   -1.3760   22.0940 C   0  0  0  0  0  0  0  0  0  0  0  0
  1  2  1  0
  2  3  1  0
  3  4  2  0
  4  5  1  0
  5  6  2  0
  6  7  1  0
  7  8  1  0
  8  9  1  0
 10  9  1  0
 10 11  2  0
 10 12  2  0
 10 13  1  0
 13 14  2  0
 13 15  1  0
 15 16  1  0
 16 17  1  0
 16 18  2  0
  5 19  1  0
  8 19  2  0
  4 20  1  0
 20 21  2  0
  3 22  1  0
 21 22  1  0
M  END
