WIL-LEE-23e8b574-8
     RDKit          3D

 24 26  0  0  0  0  0  0  0  0999 V2000
    7.9020    8.2530   23.1700 C   0  0  0  0  0  0  0  0  0  0  0  0
    7.6390    7.1860   22.1390 C   0  0  0  0  0  0  0  0  0  0  0  0
    6.9890    7.4350   21.1370 O   0  0  0  0  0  0  0  0  0  0  0  0
    8.2110    5.9820   22.5010 N   0  0  0  0  0  0  0  0  0  0  0  0
    9.4410    5.8470   23.1800 C   0  0  0  0  0  0  0  0  0  0  0  0
    9.6000    4.7450   24.0130 C   0  0  0  0  0  0  0  0  0  0  0  0
    9.2450    3.4950   23.6300 N   0  0  0  0  0  0  0  0  0  0  0  0
   10.2870    2.6530   23.5140 C   0  0  0  0  0  0  0  0  0  0  0  0
   11.5000    3.0520   22.9960 C   0  0  0  0  0  0  0  0  0  0  0  0
   12.6060    2.2590   22.8670 C   0  0  0  0  0  0  0  0  0  0  0  0
   12.5830    0.8500   23.2860 C   0  0  0  0  0  0  0  0  0  0  0  0
   11.2850    0.3240   23.8730 C   0  0  0  0  0  0  0  0  0  0  0  0
   11.3140   -0.8920   24.2520 N   0  0  0  0  0  0  0  0  0  0  0  0
   12.6630   -1.1100   24.6520 C   0  0  0  0  0  0  0  0  0  0  0  0
   13.1540   -0.8530   25.7200 O   0  0  0  0  0  0  0  0  0  0  0  0
   13.3010   -1.6760   23.5490 N   0  0  0  0  0  0  0  0  0  0  0  0
   13.1320   -2.9470   23.7230 C   0  0  0  0  0  0  0  0  0  0  0  0
   11.7870   -3.0030   24.1130 C   0  0  0  0  0  0  0  0  0  0  0  0
   10.8820   -2.4860   23.2220 O   0  0  0  0  0  0  0  0  0  0  0  0
   11.4450   -1.8530   22.0510 C   0  0  0  0  0  0  0  0  0  0  0  0
   12.9030   -1.3950   22.2050 C   0  0  0  0  0  0  0  0  0  0  0  0
   10.2380    1.2690   23.9370 C   0  0  0  0  0  0  0  0  0  0  0  0
    8.3370    3.5330   22.4730 C   0  0  0  0  0  0  0  0  0  0  0  0
    7.4750    4.8010   22.3530 C   0  0  0  0  0  0  0  0  0  0  0  0
  1  2  1  0
  2  3  2  0
  2  4  1  0
  4  5  1  0
  5  6  1  0
  6  7  1  0
  7  8  1  0
  8  9  2  0
  9 10  1  0
 10 11  2  0
 11 12  1  0
 12 13  1  0
 13 14  1  0
 14 15  2  0
 14 16  1  0
 16 17  1  0
 17 18  1  0
 18 19  1  0
 19 20  1  0
 16 21  1  0
 20 21  1  0
  8 22  1  0
 12 22  2  0
  7 23  1  0
  4 24  1  0
 23 24  1  0
M  END
