WIL-LEE-364b6ea8-18
     RDKit          3D

 20 20  0  0  0  0  0  0  0  0999 V2000
    2.9610   -4.7690   31.7350 C   0  0  0  0  0  0  0  0  0  0  0  0
    3.6170   -5.9290   31.0540 C   0  0  0  0  0  0  0  0  0  0  0  0
    3.2820   -6.2450   29.6240 C   0  0  0  0  0  0  0  0  0  0  0  0
    2.3000   -5.4420   28.7970 C   0  0  0  0  0  0  0  0  0  0  0  0
    2.9300   -4.4090   27.8770 C   0  0  0  0  0  0  0  0  0  0  0  0
    2.3990   -3.3460   27.5330 O   0  0  0  0  0  0  0  0  0  0  0  0
    4.1430   -4.7950   27.4830 C   0  0  0  0  0  0  0  0  0  0  0  0
    5.0810   -3.9800   26.6870 C   0  0  0  0  0  0  0  0  0  0  0  0
    5.3360   -2.7070   27.1170 O   0  0  0  0  0  0  0  0  0  0  0  0
    5.7210   -4.5560   25.4460 C   0  0  0  0  0  0  0  0  0  0  0  0
    5.3590   -5.6180   24.9500 O   0  0  0  0  0  0  0  0  0  0  0  0
    7.0400   -3.5010   24.8110 S   0  0  0  0  0  0  0  0  0  0  0  0
    6.4100   -2.7270   23.4860 N   0  0  0  0  0  0  0  0  0  0  0  0
    8.0840   -4.3390   24.2330 O   0  0  0  0  0  0  0  0  0  0  0  0
    7.2960   -2.4850   25.8050 O   0  0  0  0  0  0  0  0  0  0  0  0
    3.8780   -7.3200   28.9400 C   0  0  0  0  0  0  0  0  0  0  0  0
    3.3530   -7.6950   27.8970 O   0  0  0  0  0  0  0  0  0  0  0  0
    5.1090   -7.8850   29.5920 C   0  0  0  0  0  0  0  0  0  0  0  0
    5.5140   -7.2360   30.8900 C   0  0  0  0  0  0  0  0  0  0  0  0
    4.5580   -6.7390   31.7000 C   0  0  0  0  0  0  0  0  0  0  0  0
  1  2  1  0
  2  3  2  0
  3  4  1  0
  4  5  1  0
  5  6  2  0
  5  7  1  0
  7  8  1  0
  8  9  2  0
  8 10  1  0
 10 11  2  0
 12 10  1  0
 12 13  1  0
 12 14  2  0
 12 15  2  0
  3 16  1  0
 16 17  1  0
 16 18  2  0
 18 19  1  0
  2 20  1  0
 19 20  1  0
M  END
