YUN-WES-85ecc354-1
     RDKit          3D

 42 45  0  0  0  0  0  0  0  0999 V2000
    8.7130    4.3820   22.7180 C   0  0  0  0  0  0  0  0  0  0  0  0
    9.2520    3.0890   23.2700 C   0  0  0  0  0  0  0  0  0  0  0  0
   10.4830    2.7720   22.6960 C   0  0  0  0  0  0  0  0  0  0  0  0
    8.1830    1.9700   23.1190 C   0  0  0  0  0  0  0  0  0  0  0  0
    7.8710    1.5510   21.8130 C   0  0  2  0  0  0  0  0  0  0  0  0
    6.7180    1.8350   21.0880 N   0  0  0  0  0  0  0  0  0  0  0  0
    6.0940    3.0160   21.4860 C   0  0  0  0  0  0  0  0  0  0  0  0
    6.5010    3.7030   22.4120 O   0  0  0  0  0  0  0  0  0  0  0  0
    5.0200    3.3460   20.8070 N   0  0  0  0  0  0  0  0  0  0  0  0
    3.9570    2.3940   20.6260 C   0  0  0  0  0  0  0  0  0  0  0  0
    4.5020    1.3550   19.8920 C   0  0  0  0  0  0  0  0  0  0  0  0
    4.7170    0.0980   20.4530 C   0  0  0  0  0  0  0  0  0  0  0  0
    5.2990   -0.9640   19.6500 C   0  0  0  0  0  0  0  0  0  0  0  0
    5.6450   -0.7100   18.3290 C   0  0  0  0  0  0  0  0  0  0  0  0
    5.4220    0.5580   17.7970 C   0  0  0  0  0  0  0  0  0  0  0  0
    4.8600    1.5640   18.5560 C   0  0  0  0  0  0  0  0  0  0  0  0
    8.2340    0.0320   21.5800 C   0  0  0  0  0  0  0  0  0  0  0  0
    9.3670   -0.3390   21.8490 O   0  0  0  0  0  0  0  0  0  0  0  0
    7.3030   -0.8430   21.0720 N   0  0  0  0  0  0  0  0  0  0  0  0
    6.8610   -1.8680   21.8780 C   0  0  1  0  0  0  0  0  0  0  0  0
    5.9920   -1.5470   22.9270 C   0  0  0  0  0  0  0  0  0  0  0  0
    6.4780   -0.9010   24.0880 C   0  0  2  0  0  0  0  0  0  0  0  0
    7.2320   -1.6750   25.1750 C   0  0  0  0  0  0  0  0  0  0  0  0
    6.7100   -1.5150   26.4720 C   0  0  0  0  0  0  0  0  0  0  0  0
    5.5040   -0.7720   26.2540 N   0  0  0  0  0  0  0  0  0  0  0  0
    5.3720   -0.2960   24.9560 C   0  0  0  0  0  0  0  0  0  0  0  0
    4.5020    0.4890   24.6080 O   0  0  0  0  0  0  0  0  0  0  0  0
    6.2480   -2.9850   20.9580 C   0  0  0  0  0  0  0  0  0  0  0  0
    5.7110   -2.7680   19.8730 O   0  0  0  0  0  0  0  0  0  0  0  0
    6.2930   -4.4830   21.3850 C   0  0  0  0  0  0  0  0  0  0  0  0
    7.3220   -5.1190   21.3940 O   0  0  0  0  0  0  0  0  0  0  0  0
    5.0740   -5.0680   21.7050 N   0  0  0  0  0  0  0  0  0  0  0  0
    4.4840   -5.1750   23.0700 C   0  0  0  0  0  0  0  0  0  0  0  0
    5.2700   -4.3080   23.9830 C   0  0  0  0  0  0  0  0  0  0  0  0
    6.4160   -3.8790   24.4390 C   0  0  0  0  0  0  0  0  0  0  0  0
    5.4390   -3.1340   25.1550 C   0  0  0  0  0  0  0  0  0  0  0  0
    4.3700   -3.8450   24.4760 C   0  0  0  0  0  0  0  0  0  0  0  0
    4.4780   -4.8740   23.4880 C   0  0  0  0  0  0  0  0  0  0  0  0
    5.8160   -5.1760   23.1700 C   0  0  0  0  0  0  0  0  0  0  0  0
    3.2180   -5.3190   23.1160 O   0  0  0  0  0  0  0  0  0  0  0  0
    2.4820   -4.8380   24.2860 C   0  0  0  0  0  0  0  0  0  0  0  0
    3.0420   -3.5900   24.7420 O   0  0  0  0  0  0  0  0  0  0  0  0
  1  2  1  0
  2  3  1  0
  2  4  1  0
  5  4  1  1
  5  6  1  0
  6  7  1  0
  7  8  2  0
  7  9  1  0
  9 10  1  0
 10 11  1  0
 11 12  2  0
 12 13  1  0
 13 14  2  0
 14 15  1  0
 11 16  1  0
 15 16  2  0
  5 17  1  0
 17 18  2  0
 17 19  1  0
 19 20  1  0
 20 21  1  1
 22 21  1  6
 22 23  1  0
 23 24  1  0
 24 25  1  0
 22 26  1  0
 25 26  1  0
 26 27  2  0
 20 28  1  0
 28 29  2  0
 28 30  1  0
 30 31  2  0
 30 32  1  0
 32 33  1  0
 33 34  1  0
 34 35  2  0
 35 36  1  0
 36 37  2  0
 37 38  1  0
 34 39  1  0
 38 39  2  0
 38 40  1  0
 40 41  1  0
 37 42  1  0
 41 42  1  0
M  END
