YUN-WES-58b0dbae-6
     RDKit          3D

 42 45  0  0  0  0  0  0  0  0999 V2000
   -2.8240   -6.4780   26.1790 C   0  0  0  0  0  0  0  0  0  0  0  0
   -1.4160   -5.9530   26.3070 C   0  0  0  0  0  0  0  0  0  0  0  0
   -1.2350   -4.5510   25.9230 C   0  0  0  0  0  0  0  0  0  0  0  0
   -0.4030   -6.8130   25.5110 C   0  0  0  0  0  0  0  0  0  0  0  0
    0.6170   -7.3820   26.2880 C   0  0  2  0  0  0  0  0  0  0  0  0
    0.2890   -7.7650   27.6310 N   0  0  0  0  0  0  0  0  0  0  0  0
   -0.5700   -8.9000   27.8060 C   0  0  0  0  0  0  0  0  0  0  0  0
   -1.2580   -9.5180   26.7800 O   0  0  0  0  0  0  0  0  0  0  0  0
   -0.6210   -9.2940   29.1180 N   0  0  0  0  0  0  0  0  0  0  0  0
    0.4870  -10.0540   29.4550 C   0  0  0  0  0  0  0  0  0  0  0  0
    0.4930  -11.4890   29.9910 C   0  0  0  0  0  0  0  0  0  0  0  0
    0.9670  -12.5490   28.9840 C   0  0  0  0  0  0  0  0  0  0  0  0
    0.9130  -13.8280   29.6610 C   0  0  0  0  0  0  0  0  0  0  0  0
    0.5860  -14.4260   30.8900 C   0  0  0  0  0  0  0  0  0  0  0  0
    0.1590  -13.4230   31.7740 C   0  0  0  0  0  0  0  0  0  0  0  0
    0.1100  -11.9150   31.3200 C   0  0  0  0  0  0  0  0  0  0  0  0
    1.7970   -6.3740   26.3820 C   0  0  0  0  0  0  0  0  0  0  0  0
    2.2180   -5.8560   27.5520 O   0  0  0  0  0  0  0  0  0  0  0  0
    2.3880   -6.0550   25.1760 N   0  0  0  0  0  0  0  0  0  0  0  0
    3.1300   -4.7920   24.9950 C   0  0  1  0  0  0  0  0  0  0  0  0
    3.7640   -4.7160   23.6000 C   0  0  0  0  0  0  0  0  0  0  0  0
    5.1020   -5.4580   23.5130 C   0  0  2  0  0  0  0  0  0  0  0  0
    6.1020   -4.8620   24.3610 C   0  0  0  0  0  0  0  0  0  0  0  0
    7.3170   -4.4520   23.5460 C   0  0  0  0  0  0  0  0  0  0  0  0
    6.8820   -4.6940   22.2080 N   0  0  0  0  0  0  0  0  0  0  0  0
    5.6970   -5.3260   22.1030 C   0  0  0  0  0  0  0  0  0  0  0  0
    5.2030   -5.7090   21.0490 O   0  0  0  0  0  0  0  0  0  0  0  0
    2.1790   -3.6070   25.1860 C   0  0  0  0  0  0  0  0  0  0  0  0
    0.7940   -3.6320   24.8780 O   0  0  0  0  0  0  0  0  0  0  0  0
    2.7970   -2.2900   25.7360 C   0  0  0  0  0  0  0  0  0  0  0  0
    3.7640   -1.7880   25.1850 O   0  0  0  0  0  0  0  0  0  0  0  0
    2.1550   -1.7840   26.8490 N   0  0  0  0  0  0  0  0  0  0  0  0
    0.7310   -1.8900   27.0470 C   0  0  0  0  0  0  0  0  0  0  0  0
    0.1530   -0.6660   27.3570 C   0  0  0  0  0  0  0  0  0  0  0  0
   -1.1450   -0.3890   26.8810 C   0  0  0  0  0  0  0  0  0  0  0  0
   -1.7880    0.8290   27.1590 C   0  0  0  0  0  0  0  0  0  0  0  0
   -1.1380    1.8040   27.9250 C   0  0  0  0  0  0  0  0  0  0  0  0
    0.1200    1.5950   28.4140 C   0  0  0  0  0  0  0  0  0  0  0  0
    0.8440    0.2840   28.1310 C   0  0  0  0  0  0  0  0  0  0  0  0
    0.5870    2.6500   29.1360 O   0  0  0  0  0  0  0  0  0  0  0  0
   -0.5570    3.5280   29.0870 C   0  0  0  0  0  0  0  0  0  0  0  0
   -1.6350    3.0220   28.2710 O   0  0  0  0  0  0  0  0  0  0  0  0
  1  2  1  0
  2  3  1  0
  2  4  1  0
  5  4  1  1
  5  6  1  0
  6  7  1  0
  7  8  2  0
  7  9  1  0
  9 10  1  0
 10 11  1  0
 11 12  2  0
 12 13  1  0
 13 14  2  0
 14 15  1  0
 11 16  1  0
 15 16  2  0
  5 17  1  0
 17 18  2  0
 17 19  1  0
 19 20  1  0
 20 21  1  6
 22 21  1  6
 22 23  1  0
 23 24  1  0
 24 25  1  0
 22 26  1  0
 25 26  1  0
 26 27  2  0
 20 28  1  0
 28 29  2  0
 28 30  1  0
 30 31  2  0
 30 32  1  0
 32 33  1  0
 33 34  1  0
 34 35  2  0
 35 36  1  0
 36 37  2  0
 37 38  1  0
 34 39  1  0
 38 39  2  0
 38 40  1  0
 40 41  1  0
 37 42  1  0
 41 42  1  0
M  END
