YUN-WES-64c64eb2-5
     RDKit          3D

 42 44  0  0  0  0  0  0  0  0999 V2000
    4.2620   -2.7010   29.4580 C   0  0  0  0  0  0  0  0  0  0  0  0
    5.2130   -2.5260   28.4610 C   0  0  0  0  0  0  0  0  0  0  0  0
    6.5790   -2.6520   28.7880 C   0  0  0  0  0  0  0  0  0  0  0  0
    4.9210   -1.2290   27.7120 C   0  0  0  0  0  0  0  0  0  0  0  0
    4.5610   -1.2920   26.2410 C   0  0  2  0  0  0  0  0  0  0  0  0
    4.2660   -0.1500   25.5800 N   0  0  0  0  0  0  0  0  0  0  0  0
    5.3270    1.1280   25.6450 S   0  0  0  0  0  0  0  0  0  0  0  0
    6.2110    1.0390   24.4970 O   0  0  0  0  0  0  0  0  0  0  0  0
    5.8340    1.2630   26.9970 O   0  0  0  0  0  0  0  0  0  0  0  0
    4.2880    2.4170   25.4010 N   0  0  0  0  0  0  0  0  0  0  0  0
    4.1750    2.8740   24.1330 C   0  0  0  0  0  0  0  0  0  0  0  0
    3.9360    4.2480   24.0820 C   0  0  0  0  0  0  0  0  0  0  0  0
    4.1570    4.9130   22.8730 C   0  0  0  0  0  0  0  0  0  0  0  0
    3.9340    6.2830   22.7690 C   0  0  0  0  0  0  0  0  0  0  0  0
    3.4400    7.0800   24.0010 C   0  0  0  0  0  0  0  0  0  0  0  0
    3.2560    6.3280   25.1390 C   0  0  0  0  0  0  0  0  0  0  0  0
    3.4870    4.9480   25.2150 C   0  0  0  0  0  0  0  0  0  0  0  0
    3.5240   -2.1690   25.8550 C   0  0  0  0  0  0  0  0  0  0  0  0
    2.3540   -1.7770   25.8020 O   0  0  0  0  0  0  0  0  0  0  0  0
    3.8700   -3.4560   25.5440 N   0  0  0  0  0  0  0  0  0  0  0  0
    3.1380   -4.0840   24.5820 C   0  0  1  0  0  0  0  0  0  0  0  0
    3.7490   -4.4940   23.3820 C   0  0  0  0  0  0  0  0  0  0  0  0
    4.9540   -5.2080   23.4200 C   0  0  2  0  0  0  0  0  0  0  0  0
    6.0660   -4.6320   24.0690 C   0  0  0  0  0  0  0  0  0  0  0  0
    7.2640   -4.7180   23.3180 C   0  0  0  0  0  0  0  0  0  0  0  0
    6.7690   -4.9050   22.0070 N   0  0  0  0  0  0  0  0  0  0  0  0
    5.5690   -5.5420   22.0700 C   0  0  0  0  0  0  0  0  0  0  0  0
    5.1240   -6.2290   21.1990 O   0  0  0  0  0  0  0  0  0  0  0  0
    2.4060   -5.2210   25.3370 C   0  0  0  0  0  0  0  0  0  0  0  0
    2.9940   -6.0330   26.0590 O   0  0  0  0  0  0  0  0  0  0  0  0
    1.0060   -5.3800   25.2300 C   0  0  0  0  0  0  0  0  0  0  0  0
    0.3660   -4.8460   24.3420 O   0  0  0  0  0  0  0  0  0  0  0  0
    0.5130   -6.1970   26.2390 N   0  0  0  0  0  0  0  0  0  0  0  0
   -0.7370   -6.8510   26.3040 C   0  0  0  0  0  0  0  0  0  0  0  0
   -1.3660   -7.4290   25.1840 C   0  0  0  0  0  0  0  0  0  0  0  0
   -2.6040   -8.0700   25.2970 C   0  0  0  0  0  0  0  0  0  0  0  0
   -3.2010   -8.6250   24.1990 O   0  0  0  0  0  0  0  0  0  0  0  0
   -3.2570   -8.1510   26.5220 C   0  0  0  0  0  0  0  0  0  0  0  0
   -4.4440   -8.7590   26.6510 F   0  0  0  0  0  0  0  0  0  0  0  0
   -2.5750   -7.5270   27.7360 C   0  0  0  0  0  0  0  0  0  0  0  0
   -1.3530   -6.9070   27.5740 C   0  0  0  0  0  0  0  0  0  0  0  0
   -0.7500   -6.3540   28.6410 F   0  0  0  0  0  0  0  0  0  0  0  0
  1  2  1  0
  2  3  1  0
  2  4  1  0
  5  4  1  1
  5  6  1  0
  7  6  1  0
  7  8  2  0
  7  9  2  0
  7 10  1  0
 10 11  1  0
 11 12  1  0
 12 13  2  0
 13 14  1  0
 14 15  2  0
 15 16  1  0
 12 17  1  0
 16 17  2  0
  5 18  1  0
 18 19  2  0
 18 20  1  0
 20 21  1  0
 21 22  1  6
 23 22  1  6
 23 24  1  0
 24 25  1  0
 25 26  1  0
 23 27  1  0
 26 27  1  0
 27 28  2  0
 21 29  1  0
 29 30  2  0
 29 31  1  0
 31 32  2  0
 31 33  1  0
 33 34  1  0
 34 35  2  0
 35 36  1  0
 36 37  1  0
 36 38  2  0
 38 39  1  0
 38 40  1  0
 34 41  1  0
 40 41  2  0
 41 42  1  0
M  END
