YUN-WES-58b0dbae-3
     RDKit          3D

 45 47  0  0  0  0  0  0  0  0999 V2000
    7.3610   -1.8760   24.6000 C   0  0  0  0  0  0  0  0  0  0  0  0
    6.0410   -1.1410   24.5010 C   0  0  0  0  0  0  0  0  0  0  0  0
    5.0410   -1.7810   23.6590 C   0  0  0  0  0  0  0  0  0  0  0  0
    6.2370    0.2850   23.9630 C   0  0  0  0  0  0  0  0  0  0  0  0
    7.3630    0.3880   23.1510 C   0  0  2  0  0  0  0  0  0  0  0  0
    8.2880    1.4130   23.5280 N   0  0  0  0  0  0  0  0  0  0  0  0
    9.5360    1.7230   22.4480 S   0  0  0  0  0  0  0  0  0  0  0  0
    8.8960    2.1720   21.2310 O   0  0  0  0  0  0  0  0  0  0  0  0
   10.5030    2.5310   23.1550 O   0  0  0  0  0  0  0  0  0  0  0  0
   10.1510    0.1790   22.1830 N   0  0  0  0  0  0  0  0  0  0  0  0
    9.9920   -0.7780   23.1470 C   0  0  0  0  0  0  0  0  0  0  0  0
   11.2050   -1.4680   23.2340 C   0  0  0  0  0  0  0  0  0  0  0  0
   11.8230   -1.8350   21.8360 C   0  0  0  0  0  0  0  0  0  0  0  0
   13.1510   -2.5790   21.9090 C   0  0  0  0  0  0  0  0  0  0  0  0
   13.4170   -2.7080   23.3150 C   0  0  0  0  0  0  0  0  0  0  0  0
   12.9920   -2.4540   24.6040 C   0  0  0  0  0  0  0  0  0  0  0  0
   11.7800   -1.7790   24.5200 C   0  0  0  0  0  0  0  0  0  0  0  0
    7.1010    0.5660   21.7860 C   0  0  0  0  0  0  0  0  0  0  0  0
    6.9580    1.8290   21.2560 O   0  0  0  0  0  0  0  0  0  0  0  0
    6.9960   -0.6810   21.0040 N   0  0  0  0  0  0  0  0  0  0  0  0
    5.7540   -1.0680   20.2980 C   0  0  1  0  0  0  0  0  0  0  0  0
    5.3440   -0.1680   19.1380 C   0  0  0  0  0  0  0  0  0  0  0  0
    5.0090    1.2660   19.5160 C   0  0  2  0  0  0  0  0  0  0  0  0
    3.7110    1.4130   20.3010 C   0  0  0  0  0  0  0  0  0  0  0  0
    2.9430    2.5410   19.8590 C   0  0  0  0  0  0  0  0  0  0  0  0
    3.6830    3.0830   18.8400 N   0  0  0  0  0  0  0  0  0  0  0  0
    4.6890    2.1420   18.3550 C   0  0  0  0  0  0  0  0  0  0  0  0
    5.1670    2.0720   17.2430 O   0  0  0  0  0  0  0  0  0  0  0  0
    5.7630   -2.3850   19.7100 C   0  0  0  0  0  0  0  0  0  0  0  0
    5.8390   -2.5260   18.3560 O   0  0  0  0  0  0  0  0  0  0  0  0
    5.6740   -3.7110   20.4930 C   0  0  0  0  0  0  0  0  0  0  0  0
    5.3490   -4.6830   19.8120 O   0  0  0  0  0  0  0  0  0  0  0  0
    5.9470   -3.8900   21.7920 N   0  0  0  0  0  0  0  0  0  0  0  0
    5.0370   -4.6640   22.4340 C   0  0  0  0  0  0  0  0  0  0  0  0
    5.5510   -5.4580   23.4510 C   0  0  0  0  0  0  0  0  0  0  0  0
    6.3340   -4.8740   24.4340 C   0  0  0  0  0  0  0  0  0  0  0  0
    5.6330   -4.0680   25.3610 C   0  0  0  0  0  0  0  0  0  0  0  0
    4.5380   -3.5800   25.0590 O   0  0  0  0  0  0  0  0  0  0  0  0
    6.1770   -3.8560   26.6360 N   0  0  0  0  0  0  0  0  0  0  0  0
    6.3830   -2.4630   27.0800 C   0  0  0  0  0  0  0  0  0  0  0  0
    6.0450   -4.8340   27.7240 C   0  0  0  0  0  0  0  0  0  0  0  0
    6.9280   -4.7200   28.7480 C   0  0  0  0  0  0  0  0  0  0  0  0
    5.9320   -6.2590   27.2350 C   0  0  0  0  0  0  0  0  0  0  0  0
    7.3720   -3.9880   23.7220 C   0  0  0  0  0  0  0  0  0  0  0  0
    7.2980   -4.1460   22.2280 C   0  0  0  0  0  0  0  0  0  0  0  0
  1  2  1  0
  2  3  1  0
  2  4  1  0
  5  4  1  1
  5  6  1  0
  7  6  1  0
  7  8  2  0
  7  9  2  0
  7 10  1  0
 10 11  1  0
 11 12  1  0
 12 13  2  0
 13 14  1  0
 14 15  2  0
 15 16  1  0
 12 17  1  0
 16 17  2  0
  5 18  1  0
 18 19  2  0
 18 20  1  0
 20 21  1  0
 21 22  1  6
 23 22  1  6
 23 24  1  0
 24 25  1  0
 25 26  1  0
 23 27  1  0
 26 27  1  0
 27 28  2  0
 21 29  1  0
 29 30  2  0
 29 31  1  0
 31 32  2  0
 31 33  1  0
 33 34  1  0
 34 35  1  0
 35 36  1  0
 36 37  1  0
 37 38  2  0
 37 39  1  0
 39 40  1  0
 39 41  1  0
 41 42  1  0
 41 43  1  0
 36 44  1  0
 33 45  1  0
 44 45  1  0
M  END
