YUN-WES-64c64eb2-3
     RDKit          3D

 42 44  0  0  0  0  0  0  0  0999 V2000
   -0.4770  -11.8580   23.6240 C   0  0  0  0  0  0  0  0  0  0  0  0
   -0.7140  -10.6270   22.9330 O   0  0  0  0  0  0  0  0  0  0  0  0
   -0.9950   -9.6460   23.8510 C   0  0  0  0  0  0  0  0  0  0  0  0
   -1.6880   -9.8420   25.0690 C   0  0  0  0  0  0  0  0  0  0  0  0
   -1.9210   -8.6780   25.9750 C   0  0  0  0  0  0  0  0  0  0  0  0
   -1.4320   -7.3050   25.6050 C   0  0  0  0  0  0  0  0  0  0  0  0
   -0.7510   -7.1160   24.4030 C   0  0  0  0  0  0  0  0  0  0  0  0
   -0.2780   -5.7680   24.0560 N   0  0  0  0  0  0  0  0  0  0  0  0
    1.1180   -5.7590   23.6230 C   0  0  0  0  0  0  0  0  0  0  0  0
    1.8140   -6.4270   22.5510 O   0  0  0  0  0  0  0  0  0  0  0  0
    1.8580   -4.9090   24.4520 C   0  0  0  0  0  0  0  0  0  0  0  0
    1.0950   -4.4250   25.5710 O   0  0  0  0  0  0  0  0  0  0  0  0
    3.1910   -4.6260   24.1020 C   0  0  2  0  0  0  0  0  0  0  0  0
    3.9980   -5.9160   23.7580 C   0  0  0  0  0  0  0  0  0  0  0  0
    5.3000   -5.6450   23.3500 C   0  0  2  0  0  0  0  0  0  0  0  0
    6.1550   -4.9860   24.2430 C   0  0  0  0  0  0  0  0  0  0  0  0
    7.2870   -4.6340   23.5320 C   0  0  0  0  0  0  0  0  0  0  0  0
    6.9690   -4.8040   22.2500 N   0  0  0  0  0  0  0  0  0  0  0  0
    5.6520   -5.0260   22.1480 C   0  0  0  0  0  0  0  0  0  0  0  0
    4.8720   -4.6230   21.0300 O   0  0  0  0  0  0  0  0  0  0  0  0
    3.7450   -3.8120   25.2230 N   0  0  0  0  0  0  0  0  0  0  0  0
    3.6440   -4.1250   26.5510 C   0  0  0  0  0  0  0  0  0  0  0  0
    3.6890   -5.2580   27.0080 O   0  0  0  0  0  0  0  0  0  0  0  0
    3.4840   -2.9870   27.3620 C   0  0  2  0  0  0  0  0  0  0  0  0
    4.5450   -2.0680   27.3240 C   0  0  0  0  0  0  0  0  0  0  0  0
    5.8710   -2.5800   27.3770 C   0  0  0  0  0  0  0  0  0  0  0  0
    6.4210   -2.8500   28.6330 C   0  0  0  0  0  0  0  0  0  0  0  0
    6.7520   -1.4920   26.7610 C   0  0  0  0  0  0  0  0  0  0  0  0
    3.1120   -3.1430   28.6570 N   0  0  0  0  0  0  0  0  0  0  0  0
    2.5610   -2.0680   29.3700 C   0  0  0  0  0  0  0  0  0  0  0  0
    2.6020   -0.9160   28.9660 O   0  0  0  0  0  0  0  0  0  0  0  0
    1.9870   -2.5140   30.5550 N   0  0  0  0  0  0  0  0  0  0  0  0
    1.5190   -1.7560   31.6520 C   0  0  0  0  0  0  0  0  0  0  0  0
    2.3320   -1.3850   32.7410 C   0  0  0  0  0  0  0  0  0  0  0  0
    3.6270   -1.7470   32.7820 F   0  0  0  0  0  0  0  0  0  0  0  0
    1.8110   -0.6400   33.7920 C   0  0  0  0  0  0  0  0  0  0  0  0
    0.4850   -0.2400   33.8000 C   0  0  0  0  0  0  0  0  0  0  0  0
   -0.4240   -0.6250   32.6370 C   0  0  0  0  0  0  0  0  0  0  0  0
   -1.7380   -0.2430   32.6220 O   0  0  0  0  0  0  0  0  0  0  0  0
    0.1520   -1.3700   31.6170 C   0  0  0  0  0  0  0  0  0  0  0  0
   -0.6130   -1.7300   30.5740 F   0  0  0  0  0  0  0  0  0  0  0  0
   -0.5410   -8.3520   23.5160 C   0  0  0  0  0  0  0  0  0  0  0  0
  1  2  1  0
  2  3  1  0
  3  4  2  0
  4  5  1  0
  5  6  2  0
  6  7  1  0
  7  8  1  0
  8  9  1  0
  9 10  2  0
  9 11  1  0
 11 12  2  0
 11 13  1  0
 13 14  1  1
 15 14  1  1
 15 16  1  0
 16 17  1  0
 17 18  1  0
 15 19  1  0
 18 19  1  0
 19 20  2  0
 13 21  1  0
 21 22  1  0
 22 23  2  0
 22 24  1  0
 24 25  1  1
 25 26  1  0
 26 27  1  0
 26 28  1  0
 24 29  1  0
 29 30  1  0
 30 31  2  0
 30 32  1  0
 32 33  1  0
 33 34  2  0
 34 35  1  0
 34 36  1  0
 36 37  2  0
 37 38  1  0
 38 39  1  0
 33 40  1  0
 38 40  2  0
 40 41  1  0
  3 42  1  0
  7 42  2  0
M  END
