YUN-WES-64c64eb2-2
     RDKit          3D

 41 43  0  0  0  0  0  0  0  0999 V2000
   -0.1790   -2.6180   30.1010 C   0  0  0  0  0  0  0  0  0  0  0  0
    0.0510   -3.7460   29.0550 C   0  0  0  0  0  0  0  0  0  0  0  0
   -0.9230   -3.7520   28.0500 C   0  0  0  0  0  0  0  0  0  0  0  0
    1.4430   -3.6270   28.3830 C   0  0  0  0  0  0  0  0  0  0  0  0
    1.5420   -2.7900   27.2800 C   0  0  2  0  0  0  0  0  0  0  0  0
    0.4830   -1.7630   27.2060 N   0  0  0  0  0  0  0  0  0  0  0  0
    0.7480   -0.4170   27.3150 C   0  0  0  0  0  0  0  0  0  0  0  0
    1.8560    0.0640   27.0880 O   0  0  0  0  0  0  0  0  0  0  0  0
   -0.3230    0.3590   27.6970 N   0  0  0  0  0  0  0  0  0  0  0  0
   -1.1350   -0.0130   28.8420 C   0  0  0  0  0  0  0  0  0  0  0  0
   -2.3060    0.7540   28.7910 C   0  0  0  0  0  0  0  0  0  0  0  0
   -2.3400    2.0750   29.2500 C   0  0  0  0  0  0  0  0  0  0  0  0
   -3.4330    2.9390   29.2560 C   0  0  0  0  0  0  0  0  0  0  0  0
   -4.6440    2.4510   28.7500 C   0  0  0  0  0  0  0  0  0  0  0  0
   -4.7190    1.1320   28.2620 C   0  0  0  0  0  0  0  0  0  0  0  0
   -3.4990    0.2350   28.2800 C   0  0  0  0  0  0  0  0  0  0  0  0
    1.5680   -3.5250   25.9180 C   0  0  0  0  0  0  0  0  0  0  0  0
    0.6640   -3.3710   25.0920 O   0  0  0  0  0  0  0  0  0  0  0  0
    2.6450   -4.3670   25.6760 N   0  0  0  0  0  0  0  0  0  0  0  0
    2.8380   -4.9460   24.3390 C   0  0  1  0  0  0  0  0  0  0  0  0
    3.8250   -4.0650   23.4890 C   0  0  0  0  0  0  0  0  0  0  0  0
    4.9320   -5.1560   23.4000 C   0  0  2  0  0  0  0  0  0  0  0  0
    6.0920   -4.9280   24.1430 C   0  0  0  0  0  0  0  0  0  0  0  0
    7.2760   -4.7650   23.4220 C   0  0  0  0  0  0  0  0  0  0  0  0
    6.7820   -4.7410   22.0950 N   0  0  0  0  0  0  0  0  0  0  0  0
    5.5750   -5.3620   22.0390 C   0  0  0  0  0  0  0  0  0  0  0  0
    5.1540   -5.9350   21.0750 O   0  0  0  0  0  0  0  0  0  0  0  0
    3.0500   -6.4620   24.4300 C   0  0  0  0  0  0  0  0  0  0  0  0
    4.1060   -7.0340   24.6880 O   0  0  0  0  0  0  0  0  0  0  0  0
    1.9010   -7.2540   24.2240 C   0  0  0  0  0  0  0  0  0  0  0  0
    1.3350   -7.7370   25.1930 O   0  0  0  0  0  0  0  0  0  0  0  0
    1.5610   -7.3810   22.8930 N   0  0  0  0  0  0  0  0  0  0  0  0
    0.4030   -6.9110   22.2290 C   0  0  0  0  0  0  0  0  0  0  0  0
   -0.3470   -5.7730   22.5670 C   0  0  0  0  0  0  0  0  0  0  0  0
   -1.4800   -5.3210   21.8940 C   0  0  0  0  0  0  0  0  0  0  0  0
   -2.1430   -4.1990   22.3090 O   0  0  0  0  0  0  0  0  0  0  0  0
   -1.9100   -6.0850   20.7570 C   0  0  0  0  0  0  0  0  0  0  0  0
   -2.9900   -5.7180   20.0490 F   0  0  0  0  0  0  0  0  0  0  0  0
   -1.1710   -7.2100   20.4190 C   0  0  0  0  0  0  0  0  0  0  0  0
   -0.0500   -7.6190   21.1340 C   0  0  0  0  0  0  0  0  0  0  0  0
    0.6160   -8.7150   20.7470 F   0  0  0  0  0  0  0  0  0  0  0  0
  1  2  1  0
  2  3  1  0
  2  4  1  0
  5  4  1  1
  5  6  1  0
  6  7  1  0
  7  8  2  0
  7  9  1  0
  9 10  1  0
 10 11  1  0
 11 12  2  0
 12 13  1  0
 13 14  2  0
 14 15  1  0
 11 16  1  0
 15 16  2  0
  5 17  1  0
 17 18  2  0
 17 19  1  0
 19 20  1  0
 20 21  1  1
 22 21  1  6
 22 23  1  0
 23 24  1  0
 24 25  1  0
 22 26  1  0
 25 26  1  0
 26 27  2  0
 20 28  1  0
 28 29  2  0
 28 30  1  0
 30 31  2  0
 30 32  1  0
 32 33  1  0
 33 34  2  0
 34 35  1  0
 35 36  1  0
 35 37  2  0
 37 38  1  0
 37 39  1  0
 33 40  1  0
 39 40  2  0
 40 41  1  0
M  END
