YUN-WES-58b0dbae-7
     RDKit          3D

 41 43  0  0  0  0  0  0  0  0999 V2000
    0.6570   -6.6150   30.0710 C   0  0  0  0  0  0  0  0  0  0  0  0
    0.6290   -5.2700   29.3900 C   0  0  0  0  0  0  0  0  0  0  0  0
   -0.6390   -4.9050   28.7640 C   0  0  0  0  0  0  0  0  0  0  0  0
    1.7430   -5.1540   28.3280 C   0  0  0  0  0  0  0  0  0  0  0  0
    2.5300   -3.9980   28.4300 C   0  0  2  0  0  0  0  0  0  0  0  0
    1.9650   -2.8590   29.0980 N   0  0  0  0  0  0  0  0  0  0  0  0
    2.7370   -2.2200   30.1190 C   0  0  0  0  0  0  0  0  0  0  0  0
    4.0630   -1.8550   29.9710 O   0  0  0  0  0  0  0  0  0  0  0  0
    1.9950   -2.0130   31.2540 N   0  0  0  0  0  0  0  0  0  0  0  0
    2.8020   -1.8770   32.3730 C   0  0  0  0  0  0  0  0  0  0  0  0
    2.4700   -2.3150   33.8070 C   0  0  0  0  0  0  0  0  0  0  0  0
    3.2680   -3.5270   34.3110 C   0  0  0  0  0  0  0  0  0  0  0  0
    2.8260   -3.7890   35.6690 C   0  0  0  0  0  0  0  0  0  0  0  0
    1.9420   -3.3320   36.6600 C   0  0  0  0  0  0  0  0  0  0  0  0
    1.2380   -2.2300   36.1560 C   0  0  0  0  0  0  0  0  0  0  0  0
    1.5030   -1.7010   34.6910 C   0  0  0  0  0  0  0  0  0  0  0  0
    2.8670   -3.5250   26.9940 C   0  0  0  0  0  0  0  0  0  0  0  0
    2.8100   -2.2290   26.6350 O   0  0  0  0  0  0  0  0  0  0  0  0
    3.2260   -4.5150   26.1060 N   0  0  0  0  0  0  0  0  0  0  0  0
    2.7600   -4.4250   24.7160 C   0  0  1  0  0  0  0  0  0  0  0  0
    3.8760   -4.0180   23.7370 C   0  0  0  0  0  0  0  0  0  0  0  0
    4.9480   -5.0910   23.5080 C   0  0  2  0  0  0  0  0  0  0  0  0
    6.0990   -4.9030   24.3600 C   0  0  0  0  0  0  0  0  0  0  0  0
    7.3780   -5.0630   23.5480 C   0  0  0  0  0  0  0  0  0  0  0  0
    6.8750   -5.1290   22.2100 N   0  0  0  0  0  0  0  0  0  0  0  0
    5.5540   -4.9130   22.1120 C   0  0  0  0  0  0  0  0  0  0  0  0
    4.9770   -4.6040   21.0690 O   0  0  0  0  0  0  0  0  0  0  0  0
    2.0440   -5.7180   24.3030 C   0  0  0  0  0  0  0  0  0  0  0  0
    2.6030   -7.0270   24.3570 O   0  0  0  0  0  0  0  0  0  0  0  0
    0.5800   -5.5400   23.8010 C   0  0  0  0  0  0  0  0  0  0  0  0
   -0.1290   -4.6720   24.2850 O   0  0  0  0  0  0  0  0  0  0  0  0
    0.2080   -6.4260   22.8150 N   0  0  0  0  0  0  0  0  0  0  0  0
   -0.7430   -6.1190   21.7690 C   0  0  0  0  0  0  0  0  0  0  0  0
   -1.4730   -4.9480   21.8880 C   0  0  0  0  0  0  0  0  0  0  0  0
   -2.4030   -4.6330   20.8750 C   0  0  0  0  0  0  0  0  0  0  0  0
   -3.1540   -3.4890   20.9380 O   0  0  0  0  0  0  0  0  0  0  0  0
   -2.5730   -5.4940   19.7810 C   0  0  0  0  0  0  0  0  0  0  0  0
   -3.4550   -5.2030   18.8120 F   0  0  0  0  0  0  0  0  0  0  0  0
   -1.8230   -6.6680   19.6930 C   0  0  0  0  0  0  0  0  0  0  0  0
   -0.9200   -6.9730   20.6760 C   0  0  0  0  0  0  0  0  0  0  0  0
   -0.1970   -8.0980   20.5930 F   0  0  0  0  0  0  0  0  0  0  0  0
  1  2  1  0
  2  3  1  0
  2  4  1  0
  5  4  1  6
  5  6  1  0
  6  7  1  0
  7  8  2  0
  7  9  1  0
  9 10  1  0
 10 11  1  0
 11 12  2  0
 12 13  1  0
 13 14  2  0
 14 15  1  0
 11 16  1  0
 15 16  2  0
  5 17  1  0
 17 18  2  0
 17 19  1  0
 19 20  1  0
 20 21  1  6
 22 21  1  1
 22 23  1  0
 23 24  1  0
 24 25  1  0
 22 26  1  0
 25 26  1  0
 26 27  2  0
 20 28  1  0
 28 29  2  0
 28 30  1  0
 30 31  2  0
 30 32  1  0
 32 33  1  0
 33 34  2  0
 34 35  1  0
 35 36  1  0
 35 37  2  0
 37 38  1  0
 37 39  1  0
 33 40  1  0
 39 40  2  0
 40 41  1  0
M  END
