ZAC-WAB-b0242612-1
     RDKit          3D

 18 19  0  0  0  0  0  0  0  0999 V2000
    2.9200    1.5270   24.1530 O   0  0  0  0  0  0  0  0  0  0  0  0
    2.8250    2.2230   23.1430 C   0  0  0  0  0  0  0  0  0  0  0  0
    3.6980    2.1370   22.0470 N   0  0  0  0  0  0  0  0  0  0  0  0
    5.0100    1.4420   22.2190 C   0  0  0  0  0  0  0  0  0  0  0  0
    5.9910    1.9020   23.0290 O   0  0  0  0  0  0  0  0  0  0  0  0
    5.0940    0.2610   21.4270 C   0  0  0  0  0  0  0  0  0  0  0  0
    5.8160    1.3140   20.7410 C   0  0  0  0  0  0  0  0  0  0  0  0
    5.8970    0.3390   20.0700 C   0  0  0  0  0  0  0  0  0  0  0  0
    6.4650    0.0780   18.9350 C   0  0  0  0  0  0  0  0  0  0  0  0
    6.0480   -1.1120   19.0080 C   0  0  0  0  0  0  0  0  0  0  0  0
    5.2940   -0.9350   20.4240 C   0  0  0  0  0  0  0  0  0  0  0  0
    1.8300    3.1720   22.9880 N   0  0  0  0  0  0  0  0  0  0  0  0
    0.7340    3.3210   23.7780 C   0  0  0  0  0  0  0  0  0  0  0  0
    0.5160    4.7610   24.3280 C   0  0  0  0  0  0  0  0  0  0  0  0
   -0.7210    4.7820   25.2150 C   0  0  0  0  0  0  0  0  0  0  0  0
   -1.8080    4.5230   24.1900 C   0  0  0  0  0  0  0  0  0  0  0  0
   -1.6610    3.2390   23.6370 C   0  0  0  0  0  0  0  0  0  0  0  0
   -0.4210    2.8540   23.1090 C   0  0  0  0  0  0  0  0  0  0  0  0
  1  2  2  0
  2  3  1  0
  3  4  1  0
  4  5  2  0
  4  6  1  0
  6  7  2  0
  7  8  1  0
  8  9  2  0
  9 10  1  0
  6 11  1  0
 10 11  2  0
  2 12  1  0
 12 13  1  0
 13 14  1  0
 14 15  1  0
 15 16  1  0
 16 17  1  0
 13 18  1  0
 17 18  1  0
M  END
