ZAC-WAB-d55a3c2e-1
     RDKit          3D

 26 28  0  0  0  0  0  0  0  0999 V2000
    6.3110   -6.0940   22.0110 C   0  0  0  0  0  0  0  0  0  0  0  0
    5.7750   -4.6410   22.8940 S   0  0  0  0  0  0  0  0  0  0  0  0
    5.6580   -5.0150   24.2880 O   0  0  0  0  0  0  0  0  0  0  0  0
    4.6320   -4.0510   22.2020 O   0  0  0  0  0  0  0  0  0  0  0  0
    7.0840   -3.5850   22.6920 N   0  0  0  0  0  0  0  0  0  0  0  0
    7.9610   -3.2790   23.8500 C   0  0  0  0  0  0  0  0  0  0  0  0
    8.6430   -2.0430   23.8310 C   0  0  0  0  0  0  0  0  0  0  0  0
    9.2530   -1.5700   22.6520 C   0  0  1  0  0  0  0  0  0  0  0  0
    8.6090   -0.6220   21.8410 C   0  0  0  0  0  0  0  0  0  0  0  0
    8.8300    0.5890   21.9880 O   0  0  0  0  0  0  0  0  0  0  0  0
    7.6910   -1.1550   20.7970 C   0  0  0  0  0  0  0  0  0  0  0  0
    6.6760   -0.1620   20.2850 C   0  0  0  0  0  0  0  0  0  0  0  0
    5.6470    0.2880   21.2400 C   0  0  0  0  0  0  0  0  0  0  0  0
    4.8390    1.1240   20.7270 N   0  0  0  0  0  0  0  0  0  0  0  0
    5.2680    1.2570   19.4940 C   0  0  0  0  0  0  0  0  0  0  0  0
    4.3950    2.2380   18.7750 N   0  0  0  0  0  0  0  0  0  0  0  0
    4.7590    2.4440   17.5100 C   0  0  0  0  0  0  0  0  0  0  0  0
    5.1530    1.7200   18.5190 C   0  0  0  0  0  0  0  0  0  0  0  0
    6.1290    1.1520   17.9480 C   0  0  0  0  0  0  0  0  0  0  0  0
    6.5240    0.4540   18.9690 C   0  0  0  0  0  0  0  0  0  0  0  0
   10.7080   -1.1250   22.8790 C   0  0  0  0  0  0  0  0  0  0  0  0
   11.5990   -2.0030   22.3390 C   0  0  0  0  0  0  0  0  0  0  0  0
   12.9210   -1.5990   22.3950 C   0  0  0  0  0  0  0  0  0  0  0  0
   13.2660   -0.8000   23.4860 C   0  0  0  0  0  0  0  0  0  0  0  0
   12.2360   -0.1890   24.4070 C   0  0  0  0  0  0  0  0  0  0  0  0
   10.9600   -0.6960   24.1760 C   0  0  0  0  0  0  0  0  0  0  0  0
  1  2  1  0
  2  3  2  0
  2  4  2  0
  2  5  1  0
  5  6  1  0
  6  7  1  0
  8  7  1  1
  8  9  1  0
  9 10  2  0
  9 11  1  0
 11 12  1  0
 12 13  2  0
 13 14  1  0
 14 15  1  0
 15 16  1  0
 16 17  2  0
 17 18  1  0
 18 19  2  0
 12 20  1  0
 15 20  2  0
 19 20  1  0
  8 21  1  0
 21 22  1  0
 22 23  1  0
 23 24  1  0
 24 25  1  0
 21 26  1  0
 25 26  1  0
M  END
