ZAC-WAB-d55a3c2e-2
     RDKit          3D

 23 24  0  0  0  0  0  0  0  0999 V2000
    8.3620   -5.8240   27.4120 C   0  0  0  0  0  0  0  0  0  0  0  0
    7.1780   -4.8460   26.4930 S   0  0  0  0  0  0  0  0  0  0  0  0
    6.6650   -5.6290   25.3970 O   0  0  0  0  0  0  0  0  0  0  0  0
    6.2400   -4.2710   27.4350 O   0  0  0  0  0  0  0  0  0  0  0  0
    8.1040   -3.5590   25.8080 N   0  0  0  0  0  0  0  0  0  0  0  0
    8.2200   -3.3650   24.4220 C   0  0  0  0  0  0  0  0  0  0  0  0
    8.6990   -1.9810   24.0360 C   0  0  0  0  0  0  0  0  0  0  0  0
    9.2200   -1.4990   22.6500 C   0  0  1  0  0  0  0  0  0  0  0  0
    8.3730   -0.4990   21.9140 C   0  0  0  0  0  0  0  0  0  0  0  0
    8.7130    0.6870   21.8530 O   0  0  0  0  0  0  0  0  0  0  0  0
    7.1810   -1.0760   21.2920 N   0  0  0  0  0  0  0  0  0  0  0  0
    6.5990   -0.3120   20.1900 C   0  0  0  0  0  0  0  0  0  0  0  0
    5.4420    0.5120   20.4530 C   0  0  0  0  0  0  0  0  0  0  0  0
    4.8400    1.2680   19.4330 C   0  0  0  0  0  0  0  0  0  0  0  0
    5.1550    1.4510   17.9290 C   0  0  0  0  0  0  0  0  0  0  0  0
    6.3630    0.5300   17.8610 N   0  0  0  0  0  0  0  0  0  0  0  0
    7.0070   -0.2710   18.9170 C   0  0  0  0  0  0  0  0  0  0  0  0
   10.6350   -0.9140   22.6790 C   0  0  0  0  0  0  0  0  0  0  0  0
   11.7150   -1.9070   22.3030 C   0  0  0  0  0  0  0  0  0  0  0  0
   13.0730   -1.2470   22.3570 C   0  0  0  0  0  0  0  0  0  0  0  0
   12.9460    0.1870   22.8470 C   0  0  0  0  0  0  0  0  0  0  0  0
   12.2030    0.3640   24.0010 C   0  0  0  0  0  0  0  0  0  0  0  0
   10.9140   -0.1200   23.9810 C   0  0  0  0  0  0  0  0  0  0  0  0
  1  2  1  0
  2  3  2  0
  2  4  2  0
  2  5  1  0
  5  6  1  0
  6  7  1  0
  8  7  1  1
  8  9  1  0
  9 10  2  0
  9 11  1  0
 11 12  1  0
 12 13  2  0
 13 14  1  0
 14 15  2  0
 15 16  1  0
 12 17  1  0
 16 17  2  0
  8 18  1  0
 18 19  1  0
 19 20  1  0
 20 21  1  0
 21 22  1  0
 18 23  1  0
 22 23  1  0
M  END
