ZAC-WAB-86e8bacf-1
     RDKit          3D

 27 29  0  0  0  0  0  0  0  0999 V2000
    4.9270   -4.8860   23.7130 C   0  0  0  0  0  0  0  0  0  0  0  0
    6.2110   -4.6530   24.9350 S   0  0  0  0  0  0  0  0  0  0  0  0
    5.8270   -3.5840   25.8220 O   0  0  0  0  0  0  0  0  0  0  0  0
    6.5670   -5.9500   25.4280 O   0  0  0  0  0  0  0  0  0  0  0  0
    7.5120   -4.1350   24.0010 N   0  0  0  0  0  0  0  0  0  0  0  0
    7.8390   -2.7670   24.0100 C   0  0  0  0  0  0  0  0  0  0  0  0
    9.1460   -2.2920   23.8520 C   0  0  0  0  0  0  0  0  0  0  0  0
    9.5160   -1.5360   22.6960 C   0  0  1  0  0  0  0  0  0  0  0  0
    8.7170   -0.5770   22.0870 C   0  0  0  0  0  0  0  0  0  0  0  0
    8.9970    0.5980   22.2270 O   0  0  0  0  0  0  0  0  0  0  0  0
    7.6810   -1.0490   21.3300 C   0  0  0  0  0  0  0  0  0  0  0  0
    7.5760   -0.4380   20.1080 C   0  0  0  0  0  0  0  0  0  0  0  0
    6.3190    0.2120   19.9620 C   0  0  0  0  0  0  0  0  0  0  0  0
    6.4760    0.4360   18.5360 C   0  0  0  0  0  0  0  0  0  0  0  0
    5.5270    1.0900   17.7180 N   0  0  0  0  0  0  0  0  0  0  0  0
    4.5500    1.4030   18.5130 C   0  0  0  0  0  0  0  0  0  0  0  0
    3.3750    2.0400   18.2900 N   0  0  0  0  0  0  0  0  0  0  0  0
    2.4960    2.2490   19.3270 C   0  0  0  0  0  0  0  0  0  0  0  0
    2.8760    1.7460   20.7170 C   0  0  0  0  0  0  0  0  0  0  0  0
    4.2070    1.0510   20.8620 C   0  0  0  0  0  0  0  0  0  0  0  0
    5.0820    0.8510   19.8180 C   0  0  0  0  0  0  0  0  0  0  0  0
   10.9450   -0.9700   22.7890 C   0  0  0  0  0  0  0  0  0  0  0  0
   11.8550   -1.9850   22.5250 C   0  0  0  0  0  0  0  0  0  0  0  0
   13.1560   -1.5500   22.5400 C   0  0  0  0  0  0  0  0  0  0  0  0
   13.4950   -0.7850   23.8180 C   0  0  0  0  0  0  0  0  0  0  0  0
   12.3270   -0.8830   24.7950 C   0  0  0  0  0  0  0  0  0  0  0  0
   11.2070   -0.3500   24.1790 C   0  0  0  0  0  0  0  0  0  0  0  0
  1  2  1  0
  2  3  2  0
  2  4  2  0
  2  5  1  0
  5  6  1  0
  6  7  1  0
  8  7  1  1
  8  9  1  0
  9 10  2  0
  9 11  1  0
 11 12  1  0
 12 13  1  0
 13 14  2  0
 14 15  1  0
 15 16  1  0
 16 17  1  0
 17 18  2  0
 18 19  1  0
 19 20  2  0
 13 21  1  0
 16 21  2  0
 20 21  1  0
  8 22  1  0
 22 23  1  0
 23 24  1  0
 24 25  1  0
 25 26  1  0
 22 27  1  0
 26 27  1  0
M  END
