ZAC-WAB-2baeb60f-1
     RDKit          3D

 26 28  0  0  0  0  0  0  0  0999 V2000
    6.2030   -5.9000   21.7600 C   0  0  0  0  0  0  0  0  0  0  0  0
    6.6370   -5.2680   23.3650 S   0  0  0  0  0  0  0  0  0  0  0  0
    5.4260   -5.1660   24.1450 O   0  0  0  0  0  0  0  0  0  0  0  0
    7.7670   -6.0200   23.8420 O   0  0  0  0  0  0  0  0  0  0  0  0
    7.2240   -3.7090   23.0630 N   0  0  0  0  0  0  0  0  0  0  0  0
    8.1090   -3.1560   24.0140 C   0  0  0  0  0  0  0  0  0  0  0  0
    8.6460   -1.8080   23.8000 C   0  0  0  0  0  0  0  0  0  0  0  0
    9.1860   -1.4670   22.5490 C   0  0  1  0  0  0  0  0  0  0  0  0
    8.5280   -0.5440   21.7460 C   0  0  0  0  0  0  0  0  0  0  0  0
    8.7300    0.6690   21.8390 O   0  0  0  0  0  0  0  0  0  0  0  0
    7.6530   -1.0190   20.8070 C   0  0  0  0  0  0  0  0  0  0  0  0
    6.5980   -0.1970   20.4810 C   0  0  0  0  0  0  0  0  0  0  0  0
    5.4590    0.1910   21.3180 C   0  0  0  0  0  0  0  0  0  0  0  0
    4.7070    1.0160   20.5590 N   0  0  0  0  0  0  0  0  0  0  0  0
    5.2680    1.1790   19.3330 C   0  0  0  0  0  0  0  0  0  0  0  0
    4.4210    2.0990   18.5460 N   0  0  0  0  0  0  0  0  0  0  0  0
    4.9810    2.2960   17.2700 C   0  0  0  0  0  0  0  0  0  0  0  0
    5.1560    1.6360   18.4440 C   0  0  0  0  0  0  0  0  0  0  0  0
    6.1960    1.1460   17.9580 C   0  0  0  0  0  0  0  0  0  0  0  0
    6.6740    0.3750   19.0210 C   0  0  0  0  0  0  0  0  0  0  0  0
   10.6150   -0.9330   22.6790 C   0  0  0  0  0  0  0  0  0  0  0  0
   11.5830   -2.0600   22.3940 C   0  0  0  0  0  0  0  0  0  0  0  0
   13.0150   -1.6390   22.5210 C   0  0  0  0  0  0  0  0  0  0  0  0
   13.2470   -1.0080   23.8680 C   0  0  0  0  0  0  0  0  0  0  0  0
   12.0760   -0.9700   24.6500 C   0  0  0  0  0  0  0  0  0  0  0  0
   10.9820   -0.1480   23.9910 C   0  0  0  0  0  0  0  0  0  0  0  0
  1  2  1  0
  2  3  2  0
  2  4  2  0
  2  5  1  0
  5  6  1  0
  6  7  1  0
  8  7  1  1
  8  9  1  0
  9 10  2  0
  9 11  1  0
 11 12  1  0
 12 13  2  0
 13 14  1  0
 14 15  1  0
 15 16  1  0
 16 17  2  0
 17 18  1  0
 18 19  2  0
 12 20  1  0
 15 20  2  0
 19 20  1  0
  8 21  1  0
 21 22  1  0
 22 23  1  0
 23 24  1  0
 24 25  1  0
 21 26  1  0
 25 26  1  0
M  END
