ZAC-WAB-0847d168-1
     RDKit          3D

 20 22  0  0  0  0  0  0  0  0999 V2000
    6.9330    1.0300   22.1800 O   0  0  0  0  0  0  0  0  0  0  0  0
    5.8900    0.5100   22.5920 C   0  0  0  0  0  0  0  0  0  0  0  0
    5.6390   -0.8700   22.5240 C   0  0  0  0  0  0  0  0  0  0  0  0
    5.5700   -1.4820   21.2710 C   0  0  0  0  0  0  0  0  0  0  0  0
    5.3240   -2.8530   21.1300 C   0  0  0  0  0  0  0  0  0  0  0  0
    5.1270   -3.7180   22.2170 C   0  0  0  0  0  0  0  0  0  0  0  0
    5.1860   -3.1210   23.6420 C   0  0  0  0  0  0  0  0  0  0  0  0
    5.4620   -1.6100   23.6970 C   0  0  0  0  0  0  0  0  0  0  0  0
    4.8340    1.3410   23.1840 N   0  0  0  0  0  0  0  0  0  0  0  0
    4.3290    1.1000   24.5390 C   0  0  0  0  0  0  0  0  0  0  0  0
    3.2490    2.0140   24.6760 C   0  0  0  0  0  0  0  0  0  0  0  0
    3.0800    2.9190   23.6370 C   0  0  2  0  0  0  0  0  0  0  0  0
    1.7470    2.7680   23.0430 N   0  0  0  0  0  0  0  0  0  0  0  0
    0.4970    3.3600   23.5490 C   0  0  0  0  0  0  0  0  0  0  0  0
    0.5710    4.4400   24.3910 C   0  0  0  0  0  0  0  0  0  0  0  0
   -0.5670    5.0540   24.9060 C   0  0  0  0  0  0  0  0  0  0  0  0
   -1.8370    4.5810   24.5720 C   0  0  0  0  0  0  0  0  0  0  0  0
   -2.0930    3.3750   23.6360 C   0  0  0  0  0  0  0  0  0  0  0  0
   -0.7330    2.8230   23.1650 C   0  0  0  0  0  0  0  0  0  0  0  0
    4.1240    2.4860   22.5690 C   0  0  0  0  0  0  0  0  0  0  0  0
  1  2  2  0
  2  3  1  0
  3  4  2  0
  4  5  1  0
  5  6  2  0
  6  7  1  0
  3  8  1  0
  7  8  2  0
  2  9  1  0
  9 10  1  0
 10 11  1  0
 11 12  1  0
 12 13  1  6
 13 14  1  0
 14 15  2  0
 15 16  1  0
 16 17  2  0
 17 18  1  0
 14 19  1  0
 18 19  2  0
  9 20  1  0
 12 20  1  0
M  END
