ZAC-WAB-3baddbb3-1
     RDKit          3D

 23 24  0  0  0  0  0  0  0  0999 V2000
    9.2240   -5.8290   26.6090 C   0  0  0  0  0  0  0  0  0  0  0  0
    8.1700   -4.7300   25.6760 S   0  0  0  0  0  0  0  0  0  0  0  0
    7.3360   -4.0010   26.6030 O   0  0  0  0  0  0  0  0  0  0  0  0
    7.6170   -5.4730   24.5660 O   0  0  0  0  0  0  0  0  0  0  0  0
    9.2620   -3.6450   25.0020 N   0  0  0  0  0  0  0  0  0  0  0  0
    8.8230   -2.4350   24.4100 C   0  0  0  0  0  0  0  0  0  0  0  0
    8.6720   -2.3290   23.0250 C   0  0  0  0  0  0  0  0  0  0  0  0
    9.1830   -1.2650   22.2250 C   0  0  1  0  0  0  0  0  0  0  0  0
    8.3660   -0.2290   21.7570 C   0  0  0  0  0  0  0  0  0  0  0  0
    8.8660    0.8580   21.5030 O   0  0  0  0  0  0  0  0  0  0  0  0
    7.0410   -0.5280   21.6120 N   0  0  0  0  0  0  0  0  0  0  0  0
    6.5380    0.0490   20.4440 C   0  0  0  0  0  0  0  0  0  0  0  0
    5.4330    0.9210   20.4790 C   0  0  0  0  0  0  0  0  0  0  0  0
    5.1090    1.3590   19.2430 C   0  0  0  0  0  0  0  0  0  0  0  0
    5.4800    1.2520   17.9600 C   0  0  0  0  0  0  0  0  0  0  0  0
    6.5570    0.4020   17.9280 N   0  0  0  0  0  0  0  0  0  0  0  0
    7.0670   -0.1830   19.1380 C   0  0  0  0  0  0  0  0  0  0  0  0
   10.6030   -0.7390   22.5310 C   0  0  0  0  0  0  0  0  0  0  0  0
   11.5380   -1.8760   22.2070 C   0  0  0  0  0  0  0  0  0  0  0  0
   12.9400   -1.3170   22.3890 C   0  0  0  0  0  0  0  0  0  0  0  0
   13.1390   -0.2640   23.2920 C   0  0  0  0  0  0  0  0  0  0  0  0
   12.0810    0.2640   24.0300 C   0  0  0  0  0  0  0  0  0  0  0  0
   10.7910   -0.1620   23.7770 C   0  0  0  0  0  0  0  0  0  0  0  0
  1  2  1  0
  2  3  2  0
  2  4  2  0
  2  5  1  0
  5  6  1  0
  6  7  1  0
  8  7  1  1
  8  9  1  0
  9 10  2  0
  9 11  1  0
 11 12  1  0
 12 13  2  0
 13 14  1  0
 14 15  2  0
 15 16  1  0
 12 17  1  0
 16 17  2  0
  8 18  1  0
 18 19  1  0
 19 20  1  0
 20 21  1  0
 21 22  1  0
 18 23  1  0
 22 23  1  0
M  END
