AGN-NEW-5f02c22c-1
     RDKit          3D

 37 40  0  0  0  0  0  0  0  0999 V2000
    6.7000   -6.7590   22.2950 C   0  0  0  0  0  0  0  0  0  0  0  0
    7.1340   -5.5440   22.4570 C   0  0  0  0  0  0  0  0  0  0  0  0
    6.4150   -4.3850   21.7870 C   0  0  0  0  0  0  0  0  0  0  0  0
    5.5080   -4.5970   21.0310 O   0  0  0  0  0  0  0  0  0  0  0  0
    6.8120   -3.0680   22.0520 N   0  0  0  0  0  0  0  0  0  0  0  0
    6.4000   -1.7300   21.6320 C   0  0  0  0  0  0  0  0  0  0  0  0
    6.9200   -1.2640   22.9750 C   0  0  0  0  0  0  0  0  0  0  0  0
    7.6490    0.0660   22.8530 C   0  0  0  0  0  0  0  0  0  0  0  0
    8.4660    0.3130   24.1110 C   0  0  0  0  0  0  0  0  0  0  0  0
    9.3350    1.4810   23.9090 N   0  0  0  0  0  0  0  0  0  0  0  0
    8.8100    2.7450   23.9750 C   0  0  0  0  0  0  0  0  0  0  0  0
    7.6410    2.8980   24.1980 O   0  0  0  0  0  0  0  0  0  0  0  0
    9.6200    3.8340   23.7870 N   0  0  0  0  0  0  0  0  0  0  0  0
    9.0840    5.1260   23.8540 C   0  0  0  0  0  0  0  0  0  0  0  0
    9.5470    6.0550   24.7800 C   0  0  0  0  0  0  0  0  0  0  0  0
   10.6590    5.6600   25.7380 C   0  0  0  0  0  0  0  0  0  0  0  0
    9.0230    7.2880   24.8320 N   0  0  0  0  0  0  0  0  0  0  0  0
    8.0420    7.6670   24.0000 C   0  0  0  0  0  0  0  0  0  0  0  0
    7.5340    6.7850   23.0520 C   0  0  0  0  0  0  0  0  0  0  0  0
    6.4210    7.2320   22.1180 C   0  0  0  0  0  0  0  0  0  0  0  0
    8.0660    5.5020   22.9850 C   0  0  0  0  0  0  0  0  0  0  0  0
    7.5350    4.5110   21.9610 C   0  0  0  0  0  0  0  0  0  0  0  0
    6.0930    4.1620   22.2940 C   0  0  0  0  0  0  0  0  0  0  0  0
    5.5300    3.3270   21.2200 N   0  0  0  0  0  0  0  0  0  0  0  0
    6.3130    2.0990   21.0200 C   0  0  0  0  0  0  0  0  0  0  0  0
    5.7060    1.2640   19.9030 C   0  0  0  0  0  0  0  0  0  0  0  0
    4.3470    0.9660   20.1880 O   0  0  0  0  0  0  0  0  0  0  0  0
    3.5690    2.1410   20.3720 C   0  0  0  0  0  0  0  0  0  0  0  0
    4.1260    2.9910   21.5040 C   0  0  0  0  0  0  0  0  0  0  0  0
   10.7000    1.3020   23.6490 C   0  0  0  0  0  0  0  0  0  0  0  0
   11.1210    0.0840   23.1270 C   0  0  0  0  0  0  0  0  0  0  0  0
   12.4740   -0.1040   22.8650 C   0  0  0  0  0  0  0  0  0  0  0  0
   12.9620   -1.4260   22.2950 C   0  0  0  0  0  0  0  0  0  0  0  0
   13.3740    0.9230   23.1280 C   0  0  0  0  0  0  0  0  0  0  0  0
   12.8920    2.1190   23.6500 C   0  0  0  0  0  0  0  0  0  0  0  0
   11.5840    2.2810   23.8960 N   0  0  0  0  0  0  0  0  0  0  0  0
    7.8660   -2.4440   22.8510 C   0  0  0  0  0  0  0  0  0  0  0  0
  1  2  2  0
  2  3  1  0
  3  4  2  0
  3  5  1  0
  5  6  1  0
  5 37  1  0
  6  7  1  0
  7  8  1  0
  7 37  1  0
  8  9  1  0
  9 10  1  0
 10 11  1  0
 10 30  1  0
 11 12  2  0
 11 13  1  0
 13 14  1  0
 14 15  2  0
 14 21  1  0
 15 16  1  0
 15 17  1  0
 17 18  2  0
 18 19  1  0
 19 20  1  0
 19 21  2  0
 21 22  1  0
 22 23  1  0
 23 24  1  0
 24 25  1  0
 24 29  1  0
 25 26  1  0
 26 27  1  0
 27 28  1  0
 28 29  1  0
 30 31  2  0
 30 36  1  0
 31 32  1  0
 32 33  1  0
 32 34  2  0
 34 35  1  0
 35 36  2  0
M  CHG  1  24   1
M  END
