BEN-VAN-77cef4f8-12
     RDKit          3D

 30 32  0  0  1  0  0  0  0  0999 V2000
    4.6020   -6.1340   26.7670 C   0  0  0  0  0  0  0  0  0  0  0  0
    4.7400   -6.0640   25.4760 C   0  0  0  0  0  0  0  0  0  0  0  0
    5.0890   -4.7390   24.8190 C   0  0  0  0  0  0  0  0  0  0  0  0
    5.2400   -3.7570   25.4920 O   0  0  0  0  0  0  0  0  0  0  0  0
    5.2340   -4.6630   23.4280 N   0  0  0  0  0  0  0  0  0  0  0  0
    5.0470   -5.8810   22.6250 C   0  0  0  0  0  0  0  0  0  0  0  0
    5.9460   -5.8590   21.3980 C   0  0  0  0  0  0  0  0  0  0  0  0
    5.8880   -4.6020   20.7360 O   0  0  0  0  0  0  0  0  0  0  0  0
    6.4290   -3.5830   21.5660 C   0  0  0  0  0  0  0  0  0  0  0  0
    6.5120   -2.2620   20.8180 C   0  0  0  0  0  0  0  0  0  0  0  0
    5.8010   -2.1310   19.6290 C   0  0  0  0  0  0  0  0  0  0  0  0
    5.8520   -0.9380   18.9160 C   0  0  0  0  0  0  0  0  0  0  0  0
    6.6170    0.1180   19.4030 C   0  0  0  0  0  0  0  0  0  0  0  0
    6.6690    1.2610   18.7250 F   0  0  0  0  0  0  0  0  0  0  0  0
    7.3280   -0.0120   20.5920 C   0  0  0  0  0  0  0  0  0  0  0  0
    8.0560    1.0060   21.0450 F   0  0  0  0  0  0  0  0  0  0  0  0
    7.2760   -1.2060   21.3030 C   0  0  0  0  0  0  0  0  0  0  0  0
    8.0600   -1.3280   22.6000 C   0  0  0  0  0  0  0  0  0  0  0  0
    9.4750   -1.7920   22.2950 C   0  0  0  0  0  0  0  0  0  0  0  0
   10.1520   -2.2320   23.5830 C   0  0  0  0  0  0  0  0  0  0  0  0
   10.2350   -0.6860   21.6950 N   0  0  0  0  0  0  0  0  0  0  0  0
   10.5390    0.4480   22.4570 C   0  0  0  0  0  0  0  0  0  0  0  0
   11.1390    1.5280   21.8160 C   0  0  0  0  0  0  0  0  0  0  0  0
   11.4480    2.6630   22.5580 C   0  0  0  0  0  0  0  0  0  0  0  0
   11.1560    2.7080   23.9180 C   0  0  0  0  0  0  0  0  0  0  0  0
   11.4980    3.9540   24.7210 C   0  0  0  0  0  0  0  0  0  0  0  0
   11.7540    4.8880   25.3230 N   0  0  0  0  0  0  0  0  0  0  0  0
   10.5560    1.5960   24.4990 C   0  0  0  0  0  0  0  0  0  0  0  0
   10.2650    0.5090   23.7690 N   0  0  0  0  0  0  0  0  0  0  0  0
    5.5710   -3.3740   22.8050 C   0  0  0  0  0  0  0  0  0  0  0  0
  1  2  2  0
  2  3  1  0
  3  4  2  0
  3  5  1  0
  5  6  1  0
  5 30  1  0
  6  7  1  0
  7  8  1  0
  8  9  1  0
  9 10  1  0
  9 30  1  0
 10 11  2  0
 10 17  1  0
 11 12  1  0
 12 13  2  0
 13 14  1  0
 13 15  1  0
 15 16  1  0
 15 17  2  0
 17 18  1  0
 18 19  1  0
 19 20  1  0
 19 21  1  0
 21 22  1  0
 22 23  2  0
 22 29  1  0
 23 24  1  0
 24 25  2  0
 25 26  1  0
 25 28  1  0
 26 27  3  0
 28 29  2  0
M  END
