BEN-VAN-ed886787-20
     RDKit          3D

 27 28  0  0  0  0  0  0  0  0999 V2000
    5.5660   -7.7320   33.5680 C   0  0  0  0  0  0  0  0  0  0  0  0
    5.8410   -6.5080   33.2270 C   0  0  0  0  0  0  0  0  0  0  0  0
    6.0940   -6.1630   31.7690 C   0  0  0  0  0  0  0  0  0  0  0  0
    6.3430   -5.0330   31.4540 O   0  0  0  0  0  0  0  0  0  0  0  0
    6.0360   -7.1430   30.8130 N   0  0  0  0  0  0  0  0  0  0  0  0
    6.2640   -6.8320   29.4980 C   0  0  0  0  0  0  0  0  0  0  0  0
    7.3790   -6.8700   29.0570 O   0  0  0  0  0  0  0  0  0  0  0  0
    5.1040   -6.4400   28.5980 C   0  0  0  0  0  0  0  0  0  0  0  0
    5.5440   -6.4010   27.2490 O   0  0  0  0  0  0  0  0  0  0  0  0
    4.6510   -6.2140   26.2530 C   0  0  0  0  0  0  0  0  0  0  0  0
    3.3240   -5.9390   26.5660 C   0  0  0  0  0  0  0  0  0  0  0  0
    2.4050   -5.7460   25.5400 C   0  0  0  0  0  0  0  0  0  0  0  0
    2.8160   -5.8300   24.2130 C   0  0  0  0  0  0  0  0  0  0  0  0
    1.6400   -5.5830   22.9000 Cl  0  0  0  0  0  0  0  0  0  0  0  0
    4.1460   -6.1060   23.9130 C   0  0  0  0  0  0  0  0  0  0  0  0
    4.6090   -6.2000   22.4680 C   0  0  0  0  0  0  0  0  0  0  0  0
    5.5690   -5.0590   22.1680 C   0  0  0  0  0  0  0  0  0  0  0  0
    5.1320   -3.8090   21.9430 N   0  0  0  0  0  0  0  0  0  0  0  0
    5.9660   -2.7900   21.6760 C   0  0  0  0  0  0  0  0  0  0  0  0
    5.5000   -1.4900   21.4420 N   0  0  0  0  0  0  0  0  0  0  0  0
    6.3940   -0.4850   20.8500 C   0  0  0  0  0  0  0  0  0  0  0  0
    5.8270   -0.0250   19.5170 C   0  0  0  0  0  0  0  0  0  0  0  0
    7.3370   -3.0160   21.6260 C   0  0  0  0  0  0  0  0  0  0  0  0
    7.8190   -4.3010   21.8560 C   0  0  0  0  0  0  0  0  0  0  0  0
    6.9320   -5.3380   22.1300 C   0  0  0  0  0  0  0  0  0  0  0  0
    7.3990   -6.5640   22.3490 F   0  0  0  0  0  0  0  0  0  0  0  0
    5.0740   -6.3000   24.9310 C   0  0  0  0  0  0  0  0  0  0  0  0
  1  2  2  0
  2  3  1  0
  3  4  2  0
  3  5  1  0
  5  6  1  0
  6  7  2  0
  6  8  1  0
  8  9  1  0
  9 10  1  0
 10 11  2  0
 10 27  1  0
 11 12  1  0
 12 13  2  0
 13 14  1  0
 13 15  1  0
 15 16  1  0
 15 27  2  0
 16 17  1  0
 17 18  2  0
 17 25  1  0
 18 19  1  0
 19 20  1  0
 19 23  2  0
 20 21  1  0
 21 22  1  0
 23 24  1  0
 24 25  2  0
 25 26  1  0
M  END
