BEN-VAN-77cef4f8-5
     RDKit          3D

 30 32  0  0  1  0  0  0  0  0999 V2000
    9.7360    8.1340   26.3910 C   0  0  0  0  0  0  0  0  0  0  0  0
   10.4920    7.4490   25.5850 C   0  0  0  0  0  0  0  0  0  0  0  0
   10.3500    5.9370   25.5110 C   0  0  0  0  0  0  0  0  0  0  0  0
    9.5500    5.3750   26.2080 O   0  0  0  0  0  0  0  0  0  0  0  0
   11.1520    5.2000   24.6300 N   0  0  0  0  0  0  0  0  0  0  0  0
   12.1300    5.9080   23.7900 C   0  0  0  0  0  0  0  0  0  0  0  0
   13.3580    5.0490   23.5360 C   0  0  0  0  0  0  0  0  0  0  0  0
   13.0000    3.7190   23.1840 O   0  0  0  0  0  0  0  0  0  0  0  0
   12.3370    3.0710   24.2610 C   0  0  0  0  0  0  0  0  0  0  0  0
   12.0700    1.6110   23.9310 C   0  0  0  0  0  0  0  0  0  0  0  0
   12.9610    0.9130   23.1240 C   0  0  0  0  0  0  0  0  0  0  0  0
   12.7010   -0.4220   22.8320 C   0  0  0  0  0  0  0  0  0  0  0  0
   13.5490   -1.0940   22.0600 F   0  0  0  0  0  0  0  0  0  0  0  0
   11.5710   -1.0540   23.3360 C   0  0  0  0  0  0  0  0  0  0  0  0
   11.3390   -2.3320   23.0460 F   0  0  0  0  0  0  0  0  0  0  0  0
   10.6920   -0.3380   24.1430 C   0  0  0  0  0  0  0  0  0  0  0  0
    9.4570   -1.0310   24.6940 C   0  0  0  0  0  0  0  0  0  0  0  0
    8.9610   -1.9500   23.7310 O   0  0  0  0  0  0  0  0  0  0  0  0
    7.8020   -2.5920   24.2420 C   0  0  0  0  0  0  0  0  0  0  0  0
    8.1470   -3.2980   25.5430 C   0  0  0  0  0  0  0  0  0  0  0  0
    7.3150   -3.5760   23.2650 N   0  0  0  0  0  0  0  0  0  0  0  0
    6.6970   -3.1440   22.0860 C   0  0  0  0  0  0  0  0  0  0  0  0
    6.6070   -1.7830   21.8200 C   0  0  0  0  0  0  0  0  0  0  0  0
    5.9950   -1.3430   20.6520 C   0  0  0  0  0  0  0  0  0  0  0  0
    5.4830   -2.2910   19.7730 C   0  0  0  0  0  0  0  0  0  0  0  0
    5.5810   -3.6010   20.0490 N   0  0  0  0  0  0  0  0  0  0  0  0
    6.1690   -4.0470   21.1700 C   0  0  0  0  0  0  0  0  0  0  0  0
    6.2940   -5.7860   21.5290 Cl  0  0  0  0  0  0  0  0  0  0  0  0
   10.9330    0.9980   24.4470 C   0  0  0  0  0  0  0  0  0  0  0  0
   11.0050    3.7380   24.5680 C   0  0  0  0  0  0  0  0  0  0  0  0
  1  2  2  0
  2  3  1  0
  3  4  2  0
  3  5  1  0
  5  6  1  0
  5 30  1  0
  6  7  1  0
  7  8  1  0
  8  9  1  0
  9 10  1  0
  9 30  1  0
 10 11  2  0
 10 29  1  0
 11 12  1  0
 12 13  1  0
 12 14  2  0
 14 15  1  0
 14 16  1  0
 16 17  1  0
 16 29  2  0
 17 18  1  0
 18 19  1  0
 19 20  1  0
 19 21  1  0
 21 22  1  0
 22 23  2  0
 22 27  1  0
 23 24  1  0
 24 25  2  0
 25 26  1  0
 26 27  2  0
 27 28  1  0
M  END
