BEN-VAN-ed886787-10
     RDKit          3D

 27 28  0  0  0  0  0  0  0  0999 V2000
    9.9530   -4.3160   25.6090 C   0  0  0  0  0  0  0  0  0  0  0  0
    9.6530   -5.1080   26.5950 C   0  0  0  0  0  0  0  0  0  0  0  0
    8.3440   -4.9240   27.3460 C   0  0  0  0  0  0  0  0  0  0  0  0
    7.7190   -3.9070   27.2230 O   0  0  0  0  0  0  0  0  0  0  0  0
    7.8770   -5.9200   28.1620 N   0  0  0  0  0  0  0  0  0  0  0  0
    6.6980   -5.7550   28.8390 C   0  0  0  0  0  0  0  0  0  0  0  0
    6.6980   -5.2700   29.9370 O   0  0  0  0  0  0  0  0  0  0  0  0
    5.3880   -6.1870   28.2000 C   0  0  0  0  0  0  0  0  0  0  0  0
    5.6440   -6.6670   26.8340 N   0  0  0  0  0  0  0  0  0  0  0  0
    5.0050   -6.0580   25.7470 C   0  0  0  0  0  0  0  0  0  0  0  0
    3.8630   -5.2950   25.9640 C   0  0  0  0  0  0  0  0  0  0  0  0
    3.2380   -4.6960   24.8750 C   0  0  0  0  0  0  0  0  0  0  0  0
    1.9900   -3.8590   25.1010 C   0  0  0  0  0  0  0  0  0  0  0  0
    3.7360   -4.8510   23.5850 C   0  0  0  0  0  0  0  0  0  0  0  0
    4.8790   -5.6200   23.3970 C   0  0  0  0  0  0  0  0  0  0  0  0
    5.4340   -5.7980   21.9920 C   0  0  0  0  0  0  0  0  0  0  0  0
    6.0930   -4.5040   21.5400 C   0  0  0  0  0  0  0  0  0  0  0  0
    5.5280   -3.7090   20.6150 N   0  0  0  0  0  0  0  0  0  0  0  0
    6.0970   -2.5640   20.2040 C   0  0  0  0  0  0  0  0  0  0  0  0
    5.5010   -1.7420   19.2400 N   0  0  0  0  0  0  0  0  0  0  0  0
    6.1840   -0.5200   18.7910 C   0  0  0  0  0  0  0  0  0  0  0  0
    5.2690    0.6760   18.9980 C   0  0  0  0  0  0  0  0  0  0  0  0
    7.3170   -2.1670   20.7430 C   0  0  0  0  0  0  0  0  0  0  0  0
    7.9250   -2.9700   21.7030 C   0  0  0  0  0  0  0  0  0  0  0  0
    7.3130   -4.1520   22.1100 C   0  0  0  0  0  0  0  0  0  0  0  0
    7.9000   -4.9150   23.0270 F   0  0  0  0  0  0  0  0  0  0  0  0
    5.5240   -6.2300   24.4680 C   0  0  0  0  0  0  0  0  0  0  0  0
  1  2  2  0
  2  3  1  0
  3  4  2  0
  3  5  1  0
  5  6  1  0
  6  7  2  0
  6  8  1  0
  8  9  1  0
  9 10  1  0
 10 11  2  0
 10 27  1  0
 11 12  1  0
 12 13  1  0
 12 14  2  0
 14 15  1  0
 15 16  1  0
 15 27  2  0
 16 17  1  0
 17 18  2  0
 17 25  1  0
 18 19  1  0
 19 20  1  0
 19 23  2  0
 20 21  1  0
 21 22  1  0
 23 24  1  0
 24 25  2  0
 25 26  1  0
M  END
