BEN-VAN-77cef4f8-4
     RDKit          3D

 29 31  0  0  1  0  0  0  0  0999 V2000
    5.1410   -6.7260   33.3500 C   0  0  0  0  0  0  0  0  0  0  0  0
    5.1270   -6.8460   32.0560 C   0  0  0  0  0  0  0  0  0  0  0  0
    6.1330   -6.0820   31.2110 C   0  0  0  0  0  0  0  0  0  0  0  0
    6.9260   -5.3510   31.7370 O   0  0  0  0  0  0  0  0  0  0  0  0
    6.1340   -6.2310   29.8180 N   0  0  0  0  0  0  0  0  0  0  0  0
    5.1500   -7.1280   29.1930 C   0  0  0  0  0  0  0  0  0  0  0  0
    4.7460   -6.6240   27.8160 C   0  0  0  0  0  0  0  0  0  0  0  0
    5.8800   -6.2260   27.0540 O   0  0  0  0  0  0  0  0  0  0  0  0
    6.5290   -5.1140   27.6560 C   0  0  0  0  0  0  0  0  0  0  0  0
    7.6610   -4.6090   26.7760 C   0  0  0  0  0  0  0  0  0  0  0  0
    8.5940   -5.5040   26.2640 C   0  0  0  0  0  0  0  0  0  0  0  0
    9.6280   -5.0360   25.4590 C   0  0  0  0  0  0  0  0  0  0  0  0
    9.7180   -3.6780   25.1760 C   0  0  0  0  0  0  0  0  0  0  0  0
   10.7060   -3.2300   24.4060 F   0  0  0  0  0  0  0  0  0  0  0  0
    8.7800   -2.7890   25.6920 C   0  0  0  0  0  0  0  0  0  0  0  0
    8.8930   -1.3070   25.3730 C   0  0  0  0  0  0  0  0  0  0  0  0
    8.1930   -1.0270   24.1690 O   0  0  0  0  0  0  0  0  0  0  0  0
    8.8070   -1.7190   23.0920 C   0  0  0  0  0  0  0  0  0  0  0  0
   10.0980   -1.0140   22.7080 C   0  0  0  0  0  0  0  0  0  0  0  0
    7.8970   -1.7370   21.9390 N   0  0  0  0  0  0  0  0  0  0  0  0
    7.3030   -2.9380   21.5350 C   0  0  0  0  0  0  0  0  0  0  0  0
    7.7100   -4.1320   22.1170 C   0  0  0  0  0  0  0  0  0  0  0  0
    7.1270   -5.3320   21.7240 C   0  0  0  0  0  0  0  0  0  0  0  0
    6.1410   -5.2990   20.7450 C   0  0  0  0  0  0  0  0  0  0  0  0
    5.7610   -4.1360   20.1940 N   0  0  0  0  0  0  0  0  0  0  0  0
    6.3110   -2.9670   20.5610 C   0  0  0  0  0  0  0  0  0  0  0  0
    5.8030   -1.4270   19.8270 Cl  0  0  0  0  0  0  0  0  0  0  0  0
    7.7430   -3.2490   26.4980 C   0  0  0  0  0  0  0  0  0  0  0  0
    7.1120   -5.4860   29.0110 C   0  0  0  0  0  0  0  0  0  0  0  0
  1  2  2  0
  2  3  1  0
  3  4  2  0
  3  5  1  0
  5  6  1  0
  5 29  1  0
  6  7  1  0
  7  8  1  0
  8  9  1  0
  9 10  1  0
  9 29  1  0
 10 11  2  0
 10 28  1  0
 11 12  1  0
 12 13  2  0
 13 14  1  0
 13 15  1  0
 15 16  1  0
 15 28  2  0
 16 17  1  0
 17 18  1  0
 18 19  1  0
 18 20  1  0
 20 21  1  0
 21 22  2  0
 21 26  1  0
 22 23  1  0
 23 24  2  0
 24 25  1  0
 25 26  2  0
 26 27  1  0
M  END
