BOG-INS-da52c1c2-1
     RDKit          3D

 31 34  0  0  1  0  0  0  0  0999 V2000
    8.1260   -1.5720   20.8440 C   0  0  0  0  0  0  0  0  0  0  0  0
    7.6290   -2.6850   21.6680 N   0  0  0  0  0  0  0  0  0  0  0  0
    6.4430   -3.3460   21.3570 C   0  0  0  0  0  0  0  0  0  0  0  0
    5.7080   -3.1140   20.4100 O   0  0  0  0  0  0  0  0  0  0  0  0
    6.2460   -4.4100   22.4090 C   0  0  0  0  0  0  0  0  0  0  0  0
    5.0030   -4.0230   23.1970 C   0  0  0  0  0  0  0  0  0  0  0  0
    4.5980   -5.1750   24.1020 C   0  0  0  0  0  0  0  0  0  0  0  0
    3.8710   -6.2340   23.5710 C   0  0  0  0  0  0  0  0  0  0  0  0
    3.5070   -7.2820   24.4100 C   0  0  0  0  0  0  0  0  0  0  0  0
    2.8000   -8.3180   23.9130 O   0  0  0  0  0  0  0  0  0  0  0  0
    3.8580   -7.2810   25.7560 C   0  0  0  0  0  0  0  0  0  0  0  0
    4.5860   -6.2090   26.2610 C   0  0  0  0  0  0  0  0  0  0  0  0
    4.9270   -6.1970   27.5470 F   0  0  0  0  0  0  0  0  0  0  0  0
    4.9630   -5.1490   25.4440 C   0  0  0  0  0  0  0  0  0  0  0  0
    7.4500   -4.2420   23.3110 C   0  0  0  0  0  0  0  0  0  0  0  0
    7.8250   -4.9340   24.4570 C   0  0  0  0  0  0  0  0  0  0  0  0
    9.0040   -4.5680   25.0970 C   0  0  0  0  0  0  0  0  0  0  0  0
    9.3880   -5.2040   26.1940 F   0  0  0  0  0  0  0  0  0  0  0  0
    9.8090   -3.5420   24.6230 C   0  0  0  0  0  0  0  0  0  0  0  0
    9.4090   -2.8690   23.4760 C   0  0  0  0  0  0  0  0  0  0  0  0
   10.3360   -1.7580   23.0090 C   0  0  0  0  0  0  0  0  0  0  0  0
   10.3420   -0.6680   24.0700 C   0  0  0  0  0  0  0  0  0  0  0  0
   11.4130    0.3060   23.8100 N   0  0  0  0  0  0  0  0  0  0  0  0
   11.2210    1.6500   24.1560 C   0  0  0  0  0  0  0  0  0  0  0  0
   10.1900    1.9980   24.6620 O   0  0  0  0  0  0  0  0  0  0  0  0
   12.3200    2.6670   23.8930 C   0  0  0  0  0  0  0  0  0  0  0  0
   11.7630    4.2830   24.3880 Cl  0  0  0  0  0  0  0  0  0  0  0  0
   12.6840   -0.0950   23.1880 C   0  0  0  0  0  0  0  0  0  0  0  0
   12.4680   -1.2430   22.2150 C   0  0  0  0  0  0  0  0  0  0  0  0
   11.6470   -2.2560   22.7820 O   0  0  0  0  0  0  0  0  0  0  0  0
    8.2260   -3.2160   22.8200 C   0  0  0  0  0  0  0  0  0  0  0  0
  1  2  1  0
  2  3  1  0
  2 31  1  0
  3  4  2  0
  3  5  1  0
  5  6  1  0
  5 15  1  0
  6  7  1  0
  7  8  2  0
  7 14  1  0
  8  9  1  0
  9 10  1  0
  9 11  2  0
 11 12  1  0
 12 13  1  0
 12 14  2  0
 15 16  2  0
 15 31  1  0
 16 17  1  0
 17 18  1  0
 17 19  2  0
 19 20  1  0
 20 21  1  0
 20 31  2  0
 21 22  1  0
 21 30  1  0
 22 23  1  0
 23 24  1  0
 23 28  1  0
 24 25  2  0
 24 26  1  0
 26 27  1  0
 28 29  1  0
 29 30  1  0
M  END
