BOG-INS-01af3fef-1
     RDKit          3D

 33 37  0  0  1  0  0  0  0  0999 V2000
   13.0800    6.3200   23.5920 C   0  0  0  0  0  0  0  0  0  0  0  0
   12.5940    4.9260   23.9550 C   0  0  0  0  0  0  0  0  0  0  0  0
   12.3060    4.1860   22.6580 C   0  0  0  0  0  0  0  0  0  0  0  0
   11.6890    2.8780   22.9270 N   0  0  0  0  0  0  0  0  0  0  0  0
   11.4960    2.1200   21.6830 C   0  0  0  0  0  0  0  0  0  0  0  0
   11.2540    0.6560   22.0130 C   0  0  0  0  0  0  0  0  0  0  0  0
   12.3200   -0.0730   22.5280 C   0  0  0  0  0  0  0  0  0  0  0  0
   12.1550   -1.4170   22.8470 C   0  0  0  0  0  0  0  0  0  0  0  0
   10.9220   -2.0320   22.6520 C   0  0  0  0  0  0  0  0  0  0  0  0
    9.8640   -1.2900   22.1370 C   0  0  0  0  0  0  0  0  0  0  0  0
    8.6310   -1.9060   21.9440 C   0  0  0  0  0  0  0  0  0  0  0  0
    7.5720   -1.1660   21.4290 C   0  0  0  0  0  0  0  0  0  0  0  0
    6.2310   -1.8500   21.2220 C   0  0  0  0  0  0  0  0  0  0  0  0
    6.1500   -2.4790   19.8610 C   0  0  0  0  0  0  0  0  0  0  0  0
    6.4030   -3.3340   21.0690 C   0  0  0  0  0  0  0  0  0  0  0  0
    5.2000   -4.0780   21.4710 N   0  0  0  0  0  0  0  0  0  0  0  0
    7.7610    0.1780   21.1170 C   0  0  0  0  0  0  0  0  0  0  0  0
    6.6940    0.9180   20.6000 N   0  0  0  0  0  0  0  0  0  0  0  0
    6.2160    2.0970   21.3410 C   0  0  0  0  0  0  0  0  0  0  0  0
    4.7200    2.3040   21.1530 C   0  0  0  0  0  0  0  0  0  0  0  0
    4.3260    2.1670   19.7420 N   0  0  0  0  0  0  0  0  0  0  0  0
    2.8680    2.3490   19.6860 C   0  0  0  0  0  0  0  0  0  0  0  0
    4.6000    0.7920   19.2960 C   0  0  0  0  0  0  0  0  0  0  0  0
    6.0880    0.4770   19.3330 C   0  0  0  0  0  0  0  0  0  0  0  0
    8.9640    0.7370   21.3180 N   0  0  0  0  0  0  0  0  0  0  0  0
   10.0120    0.0560   21.8120 C   0  0  0  0  0  0  0  0  0  0  0  0
   10.3540    3.1240   23.4960 C   0  0  0  0  0  0  0  0  0  0  0  0
   10.4350    3.8340   24.8390 C   0  0  0  0  0  0  0  0  0  0  0  0
   11.3910    4.9530   24.8030 N   0  0  0  0  0  0  0  0  0  0  0  0
   11.1360    6.0690   25.6090 C   0  0  0  0  0  0  0  0  0  0  0  0
   10.1570    6.0980   26.3020 O   0  0  0  0  0  0  0  0  0  0  0  0
   12.1000    7.2450   25.6050 C   0  0  0  0  0  0  0  0  0  0  0  0
   12.7020    7.5240   27.2560 Cl  0  0  0  0  0  0  0  0  0  0  0  0
  1  2  1  0
  2  3  1  0
  2 29  1  0
  3  4  1  0
  4  5  1  0
  4 27  1  0
  5  6  1  0
  6  7  2  0
  6 26  1  0
  7  8  1  0
  8  9  2  0
  9 10  1  0
 10 11  1  0
 10 26  2  0
 11 12  2  0
 12 13  1  0
 12 17  1  0
 13 14  1  0
 13 15  1  0
 14 15  1  0
 15 16  1  0
 17 18  1  0
 17 25  2  0
 18 19  1  0
 18 24  1  0
 19 20  1  0
 20 21  1  0
 21 22  1  0
 21 23  1  0
 23 24  1  0
 25 26  1  0
 27 28  1  0
 28 29  1  0
 29 30  1  0
 30 31  2  0
 30 32  1  0
 32 33  1  0
M  END
