CHA-KIN-87c379ac-2
     RDKit          3D

 43 45  0  0  1  0  0  0  0  0999 V2000
    8.6210    7.5350   25.0190 C   0  0  0  0  0  0  0  0  0  0  0  0
    7.5520    8.2230   24.1850 C   0  0  0  0  0  0  0  0  0  0  0  0
    6.8320    9.2740   24.7430 C   0  0  0  0  0  0  0  0  0  0  0  0
    5.8480    9.9160   23.9980 C   0  0  0  0  0  0  0  0  0  0  0  0
    5.5860    9.5070   22.6940 C   0  0  0  0  0  0  0  0  0  0  0  0
    6.3070    8.4570   22.1360 C   0  0  0  0  0  0  0  0  0  0  0  0
    6.0210    8.0120   20.7110 C   0  0  0  0  0  0  0  0  0  0  0  0
    5.7930    9.1510   19.8950 O   0  0  0  0  0  0  0  0  0  0  0  0
    7.2900    7.8150   22.8820 C   0  0  0  0  0  0  0  0  0  0  0  0
    8.0160    6.7570   22.3200 N   0  0  0  0  0  0  0  0  0  0  0  0
    7.9690    5.5140   22.8930 C   0  0  0  0  0  0  0  0  0  0  0  0
    7.3060    5.3310   23.8770 O   0  0  0  0  0  0  0  0  0  0  0  0
    8.6790    4.4790   22.3440 N   0  0  0  0  0  0  0  0  0  0  0  0
    8.6290    3.1450   22.9580 C   0  0  0  0  0  0  0  0  0  0  0  0
    9.3780    3.1680   24.2810 C   0  0  0  0  0  0  0  0  0  0  0  0
   10.7660    3.7490   24.0670 C   0  0  0  0  0  0  0  0  0  0  0  0
   10.9710    5.1140   24.2380 C   0  0  0  0  0  0  0  0  0  0  0  0
   12.2400    5.6500   24.0440 C   0  0  0  0  0  0  0  0  0  0  0  0
   13.2890    4.8120   23.6810 C   0  0  0  0  0  0  0  0  0  0  0  0
   14.5220    5.3280   23.4910 O   0  0  0  0  0  0  0  0  0  0  0  0
   13.0900    3.4470   23.5080 C   0  0  0  0  0  0  0  0  0  0  0  0
   11.8200    2.9160   23.7040 C   0  0  0  0  0  0  0  0  0  0  0  0
    9.2770    2.1330   22.0270 C   0  0  0  0  0  0  0  0  0  0  0  0
   10.3030    2.4040   21.4670 O   0  0  0  0  0  0  0  0  0  0  0  0
    8.6890    0.9120   21.8270 N   0  0  0  0  0  0  0  0  0  0  0  0
    7.4320    0.5800   22.5120 C   0  0  0  0  0  0  0  0  0  0  0  0
    6.3500    0.3010   21.4810 C   0  0  0  0  0  0  0  0  0  0  0  0
    6.1020    1.5530   20.6560 C   0  0  0  0  0  0  0  0  0  0  0  0
    5.2300    1.2070   19.4600 C   0  0  0  0  0  0  0  0  0  0  0  0
    4.4740    2.1790   18.8600 N   0  0  0  0  0  0  0  0  0  0  0  0
    5.2030    0.0820   19.0420 O   0  0  0  0  0  0  0  0  0  0  0  0
    9.3150   -0.0660   20.9260 C   0  0  0  0  0  0  0  0  0  0  0  0
   10.0820   -1.0910   21.7460 C   0  0  0  0  0  0  0  0  0  0  0  0
    9.1350   -1.9260   22.4970 N   0  0  0  0  0  0  0  0  0  0  0  0
    9.8520   -2.8030   23.4390 C   0  0  0  0  0  0  0  0  0  0  0  0
    8.8160   -3.5680   24.2480 C   0  0  0  0  0  0  0  0  0  0  0  0
    7.9580   -4.4540   23.3590 C   0  0  0  0  0  0  0  0  0  0  0  0
    7.5080   -3.7270   22.1620 N   0  0  0  0  0  0  0  0  0  0  0  0
    6.2560   -4.0610   21.6330 C   0  0  0  0  0  0  0  0  0  0  0  0
    5.8460   -3.4920   20.6590 O   0  0  0  0  0  0  0  0  0  0  0  0
    5.4170   -5.1440   22.2900 C   0  0  0  0  0  0  0  0  0  0  0  0
    6.4190   -6.5900   22.5580 Cl  0  0  0  0  0  0  0  0  0  0  0  0
    8.3220   -2.6770   21.5250 C   0  0  0  0  0  0  0  0  0  0  0  0
  1  2  1  0
  2  3  2  0
  2  9  1  0
  3  4  1  0
  4  5  2  0
  5  6  1  0
  6  7  1  0
  6  9  2  0
  7  8  1  0
  9 10  1  0
 10 11  1  0
 11 12  2  0
 11 13  1  0
 13 14  1  0
 14 15  1  0
 14 23  1  0
 15 16  1  0
 16 17  2  0
 16 22  1  0
 17 18  1  0
 18 19  2  0
 19 20  1  0
 19 21  1  0
 21 22  2  0
 23 24  2  0
 23 25  1  0
 25 26  1  0
 25 32  1  0
 26 27  1  0
 27 28  1  0
 28 29  1  0
 29 30  1  0
 29 31  2  0
 32 33  1  0
 33 34  1  0
 34 35  1  0
 34 43  1  0
 35 36  1  0
 36 37  1  0
 37 38  1  0
 38 39  1  0
 38 43  1  0
 39 40  2  0
 39 41  1  0
 41 42  1  0
M  CHG  1  34   1
M  END
