DAR-DIA-fb20be43-10
     RDKit          3D

 27 29  0  0  0  0  0  0  0  0999 V2000
   12.7060    5.2970   21.2480 C   0  0  0  0  0  0  0  0  0  0  0  0
   13.4710    6.0670   22.3120 C   0  0  0  0  0  0  0  0  0  0  0  0
   14.2000    6.9650   21.9940 O   0  0  0  0  0  0  0  0  0  0  0  0
   13.3270    5.7360   23.6330 N   0  0  0  0  0  0  0  0  0  0  0  0
   12.4330    4.6350   24.0220 C   0  0  0  0  0  0  0  0  0  0  0  0
   12.9840    3.3220   23.4900 C   0  0  0  0  0  0  0  0  0  0  0  0
   12.0740    2.1820   23.9140 C   0  0  0  0  0  0  0  0  0  0  0  0
   11.0630    2.3310   24.7400 C   0  0  0  0  0  0  0  0  0  0  0  0
   10.4100    0.9730   24.8960 C   0  0  0  0  0  0  0  0  0  0  0  0
   11.2280    0.0430   24.0190 C   0  0  0  0  0  0  0  0  0  0  0  0
   11.1080   -1.3200   23.7620 C   0  0  0  0  0  0  0  0  0  0  0  0
   10.0180   -2.1670   24.3970 C   0  0  0  0  0  0  0  0  0  0  0  0
    9.4710   -3.0930   23.3940 N   0  0  0  0  0  0  0  0  0  0  0  0
    8.5390   -3.9890   24.1000 C   0  0  0  0  0  0  0  0  0  0  0  0
    7.8680   -4.9710   23.1510 C   0  0  0  0  0  0  0  0  0  0  0  0
    7.3890   -4.3020   21.9320 N   0  0  0  0  0  0  0  0  0  0  0  0
    6.2310   -4.7890   21.3140 C   0  0  0  0  0  0  0  0  0  0  0  0
    5.8160   -4.2640   20.3180 O   0  0  0  0  0  0  0  0  0  0  0  0
    5.5000   -5.9840   21.9040 C   0  0  0  0  0  0  0  0  0  0  0  0
    4.2860   -5.4170   23.0760 Cl  0  0  0  0  0  0  0  0  0  0  0  0
    8.0700   -3.1360   21.3460 C   0  0  0  0  0  0  0  0  0  0  0  0
    8.7340   -2.2780   22.4140 C   0  0  0  0  0  0  0  0  0  0  0  0
   12.0130   -1.9260   22.8960 C   0  0  0  0  0  0  0  0  0  0  0  0
   13.0110   -1.1510   22.3150 C   0  0  0  0  0  0  0  0  0  0  0  0
   13.8870   -1.7080   21.4840 F   0  0  0  0  0  0  0  0  0  0  0  0
   13.1160    0.2090   22.5840 C   0  0  0  0  0  0  0  0  0  0  0  0
   12.2120    0.8210   23.4480 C   0  0  0  0  0  0  0  0  0  0  0  0
  1  2  1  0
  2  3  2  0
  2  4  1  0
  4  5  1  0
  5  6  1  0
  6  7  1  0
  7  8  2  0
  7 27  1  0
  8  9  1  0
  9 10  1  0
 10 11  2  0
 10 27  1  0
 11 12  1  0
 11 23  1  0
 12 13  1  0
 13 14  1  0
 13 22  1  0
 14 15  1  0
 15 16  1  0
 16 17  1  0
 16 21  1  0
 17 18  2  0
 17 19  1  0
 19 20  1  0
 21 22  1  0
 23 24  2  0
 24 25  1  0
 24 26  1  0
 26 27  2  0
M  CHG  1  13   1
M  END
