DAR-DIA-fb20be43-18
     RDKit          3D

 29 31  0  0  0  0  0  0  0  0999 V2000
    8.3780   -6.3670   23.3560 C   0  0  0  0  0  0  0  0  0  0  0  0
    7.7720   -6.3100   22.0730 O   0  0  0  0  0  0  0  0  0  0  0  0
    7.2070   -5.1620   21.6440 C   0  0  0  0  0  0  0  0  0  0  0  0
    6.3940   -5.1250   20.5160 C   0  0  0  0  0  0  0  0  0  0  0  0
    5.8420   -3.9740   20.1060 N   0  0  0  0  0  0  0  0  0  0  0  0
    6.0510   -2.8230   20.7640 C   0  0  0  0  0  0  0  0  0  0  0  0
    5.4120   -1.5330   20.2760 C   0  0  0  0  0  0  0  0  0  0  0  0
    5.9380   -1.1980   18.9450 N   0  0  0  0  0  0  0  0  0  0  0  0
    6.1030    0.1130   18.5840 C   0  0  0  0  0  0  0  0  0  0  0  0
    6.5330    0.3860   17.4970 O   0  0  0  0  0  0  0  0  0  0  0  0
    5.7710    1.1340   19.4820 N   0  0  0  0  0  0  0  0  0  0  0  0
    4.4340    1.7440   19.4130 C   0  0  0  0  0  0  0  0  0  0  0  0
    3.9570    2.1680   20.7940 C   0  0  0  0  0  0  0  0  0  0  0  0
    4.9750    2.8590   21.5060 O   0  0  0  0  0  0  0  0  0  0  0  0
    6.0760    2.0000   21.7710 C   0  0  0  0  0  0  0  0  0  0  0  0
    6.7590    1.5540   20.4870 C   0  0  0  0  0  0  0  0  0  0  0  0
    6.8560   -2.8000   21.8990 C   0  0  0  0  0  0  0  0  0  0  0  0
    7.1170   -1.5180   22.6720 C   0  0  0  0  0  0  0  0  0  0  0  0
    8.4960   -1.5230   23.1780 N   0  0  0  0  0  0  0  0  0  0  0  0
    9.3650   -1.1460   22.0520 C   0  0  0  0  0  0  0  0  0  0  0  0
   10.8270   -1.0820   22.4700 C   0  0  0  0  0  0  0  0  0  0  0  0
   10.9930   -0.3640   23.7430 N   0  0  0  0  0  0  0  0  0  0  0  0
   12.1640    0.3730   23.9610 C   0  0  0  0  0  0  0  0  0  0  0  0
   12.3160    0.9650   24.9940 O   0  0  0  0  0  0  0  0  0  0  0  0
   13.2410    0.4220   22.8900 C   0  0  0  0  0  0  0  0  0  0  0  0
   13.5710   -1.2260   22.3040 Cl  0  0  0  0  0  0  0  0  0  0  0  0
    9.9720   -0.3790   24.8030 C   0  0  0  0  0  0  0  0  0  0  0  0
    8.5720   -0.4820   24.2150 C   0  0  0  0  0  0  0  0  0  0  0  0
    7.4390   -3.9820   22.3430 C   0  0  0  0  0  0  0  0  0  0  0  0
  1  2  1  0
  2  3  1  0
  3  4  2  0
  3 29  1  0
  4  5  1  0
  5  6  2  0
  6  7  1  0
  6 17  1  0
  7  8  1  0
  8  9  1  0
  9 10  2  0
  9 11  1  0
 11 12  1  0
 11 16  1  0
 12 13  1  0
 13 14  1  0
 14 15  1  0
 15 16  1  0
 17 18  1  0
 17 29  2  0
 18 19  1  0
 19 20  1  0
 19 28  1  0
 20 21  1  0
 21 22  1  0
 22 23  1  0
 22 27  1  0
 23 24  2  0
 23 25  1  0
 25 26  1  0
 27 28  1  0
M  END
