DAR-DIA-fb20be43-13
     RDKit          3D

 28 30  0  0  0  0  0  0  0  0999 V2000
   13.3630   -1.4210   22.0200 C   0  0  0  0  0  0  0  0  0  0  0  0
   13.3950   -0.1920   22.7320 O   0  0  0  0  0  0  0  0  0  0  0  0
   12.3400    0.6460   22.6770 C   0  0  0  0  0  0  0  0  0  0  0  0
   11.1960    0.2800   21.9760 C   0  0  0  0  0  0  0  0  0  0  0  0
   10.1220    1.1620   21.9340 C   0  0  0  0  0  0  0  0  0  0  0  0
    8.8720    0.7630   21.1680 C   0  0  0  0  0  0  0  0  0  0  0  0
    8.3140   -0.4660   21.7470 N   0  0  0  0  0  0  0  0  0  0  0  0
    6.8920   -0.5100   21.3680 C   0  0  0  0  0  0  0  0  0  0  0  0
    6.2120   -1.7680   21.8870 C   0  0  0  0  0  0  0  0  0  0  0  0
    7.0320   -2.9650   21.6390 N   0  0  0  0  0  0  0  0  0  0  0  0
    6.3950   -4.1870   21.4000 C   0  0  0  0  0  0  0  0  0  0  0  0
    5.1970   -4.2490   21.3990 O   0  0  0  0  0  0  0  0  0  0  0  0
    7.2210   -5.4360   21.1420 C   0  0  0  0  0  0  0  0  0  0  0  0
    6.7500   -6.7080   22.2950 Cl  0  0  0  0  0  0  0  0  0  0  0  0
    8.5030   -2.9310   21.6240 C   0  0  0  0  0  0  0  0  0  0  0  0
    9.0170   -1.5920   21.1140 C   0  0  0  0  0  0  0  0  0  0  0  0
   10.2250    2.3840   22.5930 C   0  0  0  0  0  0  0  0  0  0  0  0
   11.3530    2.7580   23.2890 C   0  0  0  0  0  0  0  0  0  0  0  0
   12.4250    1.8700   23.3300 C   0  0  0  0  0  0  0  0  0  0  0  0
   11.1480    4.0690   23.8610 C   0  0  0  0  0  0  0  0  0  0  0  0
   12.1850    4.8050   24.6930 C   0  0  0  0  0  0  0  0  0  0  0  0
   11.6760    6.1990   25.0200 C   0  0  0  0  0  0  0  0  0  0  0  0
   12.6800    6.9130   25.8210 N   0  0  0  0  0  0  0  0  0  0  0  0
   12.4060    7.2520   27.1200 C   0  0  0  0  0  0  0  0  0  0  0  0
   13.4450    7.9900   27.9480 C   0  0  0  0  0  0  0  0  0  0  0  0
   11.3450    6.9670   27.6030 O   0  0  0  0  0  0  0  0  0  0  0  0
    9.9670    4.5650   23.5720 C   0  0  0  0  0  0  0  0  0  0  0  0
    9.2450    3.5360   22.7260 C   0  0  0  0  0  0  0  0  0  0  0  0
  1  2  1  0
  2  3  1  0
  3  4  2  0
  3 19  1  0
  4  5  1  0
  5  6  1  0
  5 17  2  0
  6  7  1  0
  7  8  1  0
  7 16  1  0
  8  9  1  0
  9 10  1  0
 10 11  1  0
 10 15  1  0
 11 12  2  0
 11 13  1  0
 13 14  1  0
 15 16  1  0
 17 18  1  0
 17 28  1  0
 18 19  2  0
 18 20  1  0
 20 21  1  0
 20 27  2  0
 21 22  1  0
 22 23  1  0
 23 24  1  0
 24 25  1  0
 24 26  2  0
 27 28  1  0
M  END
