DAR-DIA-fb20be43-15
     RDKit          3D

 27 29  0  0  0  0  0  0  0  0999 V2000
   12.7930    5.1660   21.3020 C   0  0  0  0  0  0  0  0  0  0  0  0
   13.4820    6.0330   22.3420 C   0  0  0  0  0  0  0  0  0  0  0  0
   14.1680    6.9540   21.9950 O   0  0  0  0  0  0  0  0  0  0  0  0
   13.3190    5.7640   23.6750 N   0  0  0  0  0  0  0  0  0  0  0  0
   12.4780    4.6360   24.1000 C   0  0  0  0  0  0  0  0  0  0  0  0
   13.1170    3.3310   23.6530 C   0  0  0  0  0  0  0  0  0  0  0  0
   12.1990    2.1710   24.0030 C   0  0  0  0  0  0  0  0  0  0  0  0
   11.1600    2.2170   24.8860 C   0  0  0  0  0  0  0  0  0  0  0  0
   10.5890    0.9790   24.9240 N   0  0  0  0  0  0  0  0  0  0  0  0
   11.2660    0.1520   24.0680 C   0  0  0  0  0  0  0  0  0  0  0  0
   11.0490   -1.1920   23.7830 C   0  0  0  0  0  0  0  0  0  0  0  0
    9.9190   -1.9600   24.4510 C   0  0  0  0  0  0  0  0  0  0  0  0
    9.3990   -2.9730   23.5220 N   0  0  0  0  0  0  0  0  0  0  0  0
    8.4170   -3.7770   24.2670 C   0  0  0  0  0  0  0  0  0  0  0  0
    7.7690   -4.8380   23.3900 C   0  0  0  0  0  0  0  0  0  0  0  0
    7.3620   -4.2880   22.0880 N   0  0  0  0  0  0  0  0  0  0  0  0
    6.2240   -4.8160   21.4670 C   0  0  0  0  0  0  0  0  0  0  0  0
    5.8670   -4.3880   20.4040 O   0  0  0  0  0  0  0  0  0  0  0  0
    5.4400   -5.9320   22.1380 C   0  0  0  0  0  0  0  0  0  0  0  0
    4.2100   -5.2290   23.2160 Cl  0  0  0  0  0  0  0  0  0  0  0  0
    8.0950   -3.1990   21.4230 C   0  0  0  0  0  0  0  0  0  0  0  0
    8.7270   -2.2490   22.4290 C   0  0  0  0  0  0  0  0  0  0  0  0
   11.8690   -1.8570   22.8770 C   0  0  0  0  0  0  0  0  0  0  0  0
   12.9060   -1.1670   22.2590 C   0  0  0  0  0  0  0  0  0  0  0  0
   13.9520   -2.0300   21.1060 Cl  0  0  0  0  0  0  0  0  0  0  0  0
   13.0920    0.1800   22.5680 C   0  0  0  0  0  0  0  0  0  0  0  0
   12.2800    0.8620   23.4720 C   0  0  0  0  0  0  0  0  0  0  0  0
  1  2  1  0
  2  3  2  0
  2  4  1  0
  4  5  1  0
  5  6  1  0
  6  7  1  0
  7  8  2  0
  7 27  1  0
  8  9  1  0
  9 10  1  0
 10 11  1  0
 10 27  2  0
 11 12  1  0
 11 23  2  0
 12 13  1  0
 13 14  1  0
 13 22  1  0
 14 15  1  0
 15 16  1  0
 16 17  1  0
 16 21  1  0
 17 18  2  0
 17 19  1  0
 19 20  1  0
 21 22  1  0
 23 24  1  0
 24 25  1  0
 24 26  2  0
 26 27  1  0
M  CHG  1  13   1
M  END
