DAV-CRI-f9b12666-6
     RDKit          3D

 42 45  0  0  1  0  0  0  0  0999 V2000
   10.6160    6.6220   26.3570 C   0  0  0  0  0  0  0  0  0  0  0  0
   12.0200    6.4650   25.7970 C   0  0  0  0  0  0  0  0  0  0  0  0
   12.7020    7.7680   25.8080 N   0  0  0  0  0  0  0  0  0  0  0  0
   11.9430    5.9640   24.4170 N   0  0  0  0  0  0  0  0  0  0  0  0
   12.6000    4.6520   24.3340 C   0  0  0  0  0  0  0  0  0  0  0  0
   13.8330    4.7570   23.4510 C   0  0  0  0  0  0  0  0  0  0  0  0
   13.4760    5.4890   22.1680 C   0  0  0  0  0  0  0  0  0  0  0  0
   12.7000    4.8740   21.2210 N   0  0  0  0  0  0  0  0  0  0  0  0
   13.8730    6.6070   21.9840 O   0  0  0  0  0  0  0  0  0  0  0  0
   11.6360    3.6390   23.7400 C   0  0  0  0  0  0  0  0  0  0  0  0
   10.6180    4.0100   23.2240 O   0  0  0  0  0  0  0  0  0  0  0  0
   11.9280    2.3010   23.7930 N   0  0  0  0  0  0  0  0  0  0  0  0
   10.9950    1.3220   23.2180 C   0  0  0  0  0  0  0  0  0  0  0  0
    9.8290    1.1630   24.1830 C   0  0  0  0  0  0  0  0  0  0  0  0
    8.8720    0.0760   23.7190 C   0  0  0  0  0  0  0  0  0  0  0  0
    9.6280   -1.2450   23.7430 C   0  0  0  0  0  0  0  0  0  0  0  0
    8.7280   -2.3770   23.2830 C   0  0  0  0  0  0  0  0  0  0  0  0
    8.0680   -3.2380   24.0250 N   0  0  0  0  0  0  0  0  0  0  0  0
    7.3210   -4.1780   23.3500 C   0  0  0  0  0  0  0  0  0  0  0  0
    6.5060   -5.2260   23.7610 C   0  0  0  0  0  0  0  0  0  0  0  0
    6.3090   -5.5080   25.1690 C   0  0  0  0  0  0  0  0  0  0  0  0
    7.2350   -5.0400   26.0970 C   0  0  0  0  0  0  0  0  0  0  0  0
    7.0440   -5.3120   27.4480 C   0  0  0  0  0  0  0  0  0  0  0  0
    5.9360   -6.0450   27.8600 C   0  0  0  0  0  0  0  0  0  0  0  0
    5.6980   -6.3850   29.5490 S   0  0  0  0  0  0  0  0  0  0  0  0
    4.1180   -6.2210   29.9180 N   0  0  0  0  0  0  0  0  0  0  0  0
    6.1190   -7.7330   29.8310 O   0  0  0  0  0  0  0  0  0  0  0  0
    6.4730   -5.4640   30.3380 O   0  0  0  0  0  0  0  0  0  0  0  0
    5.0180   -6.5080   26.9230 C   0  0  0  0  0  0  0  0  0  0  0  0
    3.9420   -7.2210   27.3250 O   0  0  0  0  0  0  0  0  0  0  0  0
    5.1980   -6.2420   25.5700 C   0  0  0  0  0  0  0  0  0  0  0  0
    5.8500   -6.0440   22.8470 C   0  0  0  0  0  0  0  0  0  0  0  0
    5.9850   -5.8410   21.4760 C   0  0  0  0  0  0  0  0  0  0  0  0
    6.7790   -4.8140   20.9980 C   0  0  0  0  0  0  0  0  0  0  0  0
    7.3920   -4.0540   21.9790 C   0  0  0  0  0  0  0  0  0  0  0  0
    8.4150   -2.7410   21.6530 S   0  0  0  0  0  0  0  0  0  0  0  0
   10.8570   -1.2310   22.8420 C   0  0  0  0  0  0  0  0  0  0  0  0
   11.6280    0.0180   22.9560 N   0  0  0  0  0  0  0  0  0  0  0  0
   13.0200   -0.0370   22.8080 C   0  0  0  0  0  0  0  0  0  0  0  0
   13.6730    0.9660   22.8950 O   0  0  0  0  0  0  0  0  0  0  0  0
   13.7030   -1.3670   22.5360 C   0  0  0  0  0  0  0  0  0  0  0  0
   13.9010   -1.5860   20.7810 Cl  0  0  0  0  0  0  0  0  0  0  0  0
  1  2  1  0
  2  3  1  0
  2  4  1  0
  4  5  1  0
  5  6  1  0
  5 10  1  0
  6  7  1  0
  7  8  1  0
  7  9  2  0
 10 11  2  0
 10 12  1  0
 12 13  1  0
 13 14  1  0
 13 38  1  0
 14 15  1  0
 15 16  1  0
 16 17  1  0
 16 37  1  0
 17 18  2  0
 17 36  1  0
 18 19  1  0
 19 20  2  0
 19 35  1  0
 20 21  1  0
 20 32  1  0
 21 22  2  0
 21 31  1  0
 22 23  1  0
 23 24  2  0
 24 25  1  0
 24 29  1  0
 25 26  1  0
 25 27  2  0
 25 28  2  0
 29 30  1  0
 29 31  2  0
 32 33  2  0
 33 34  1  0
 34 35  2  0
 35 36  1  0
 37 38  1  0
 38 39  1  0
 39 40  2  0
 39 41  1  0
 41 42  1  0
M  END
