DAV-CRI-f9b12666-3
     RDKit          3D

 41 44  0  0  1  0  0  0  0  0999 V2000
    1.8360   -7.7740   25.4080 C   0  0  0  0  0  0  0  0  0  0  0  0
    2.5200   -7.4290   24.0950 C   0  0  0  0  0  0  0  0  0  0  0  0
    2.0160   -8.3130   23.0340 N   0  0  0  0  0  0  0  0  0  0  0  0
    3.9720   -7.6110   24.2360 N   0  0  0  0  0  0  0  0  0  0  0  0
    4.6350   -6.2990   24.2040 C   0  0  0  0  0  0  0  0  0  0  0  0
    5.6720   -6.2830   23.0930 C   0  0  0  0  0  0  0  0  0  0  0  0
    5.9290   -4.8480   22.6610 C   0  0  0  0  0  0  0  0  0  0  0  0
    6.6620   -4.0130   23.4620 N   0  0  0  0  0  0  0  0  0  0  0  0
    5.4900   -4.4480   21.6180 O   0  0  0  0  0  0  0  0  0  0  0  0
    5.3170   -6.0430   25.5380 C   0  0  0  0  0  0  0  0  0  0  0  0
    5.2010   -6.8340   26.4330 O   0  0  0  0  0  0  0  0  0  0  0  0
    6.0640   -4.9090   25.7190 N   0  0  0  0  0  0  0  0  0  0  0  0
    6.7240   -4.6620   27.0100 C   0  0  0  0  0  0  0  0  0  0  0  0
    8.1960   -5.0400   26.9540 C   0  0  0  0  0  0  0  0  0  0  0  0
    8.9760   -4.0520   26.1010 C   0  0  0  0  0  0  0  0  0  0  0  0
    8.8700   -2.6490   26.6790 C   0  0  0  0  0  0  0  0  0  0  0  0
    9.6020   -1.7080   25.7350 C   0  0  0  0  0  0  0  0  0  0  0  0
    9.8100   -0.4240   25.8960 N   0  0  0  0  0  0  0  0  0  0  0  0
   10.5060    0.2180   24.8940 C   0  0  0  0  0  0  0  0  0  0  0  0
   10.9170    1.5330   24.6950 C   0  0  0  0  0  0  0  0  0  0  0  0
   11.6290    1.9320   23.5650 C   0  0  0  0  0  0  0  0  0  0  0  0
   12.0490    3.3060   23.3720 C   0  0  0  0  0  0  0  0  0  0  0  0
   12.7080    3.6730   22.2020 C   0  0  0  0  0  0  0  0  0  0  0  0
   13.1030    4.9960   22.0330 C   0  0  0  0  0  0  0  0  0  0  0  0
   12.8470    5.9470   23.0150 C   0  0  0  0  0  0  0  0  0  0  0  0
   12.1880    5.5590   24.1770 C   0  0  0  0  0  0  0  0  0  0  0  0
   11.8650    6.7430   25.4100 S   0  0  0  0  0  0  0  0  0  0  0  0
   12.8530    8.0240   25.2060 N   0  0  0  0  0  0  0  0  0  0  0  0
   10.4950    7.1750   25.3160 O   0  0  0  0  0  0  0  0  0  0  0  0
   12.0970    6.1610   26.7070 O   0  0  0  0  0  0  0  0  0  0  0  0
   11.7840    4.2420   24.3660 C   0  0  0  0  0  0  0  0  0  0  0  0
   11.9730    1.0350   22.5620 C   0  0  0  0  0  0  0  0  0  0  0  0
   11.5920   -0.2900   22.7000 C   0  0  0  0  0  0  0  0  0  0  0  0
   10.8870   -0.6020   23.8530 C   0  0  0  0  0  0  0  0  0  0  0  0
   10.3120   -2.1480   24.2520 S   0  0  0  0  0  0  0  0  0  0  0  0
    7.4260   -2.1810   26.8080 C   0  0  0  0  0  0  0  0  0  0  0  0
    6.5320   -3.2360   27.3180 N   0  0  0  0  0  0  0  0  0  0  0  0
    5.4520   -2.8810   28.1350 C   0  0  0  0  0  0  0  0  0  0  0  0
    4.7170   -3.7300   28.5600 O   0  0  0  0  0  0  0  0  0  0  0  0
    5.2090   -1.4220   28.4830 C   0  0  0  0  0  0  0  0  0  0  0  0
    3.9180   -1.3090   29.7040 Cl  0  0  0  0  0  0  0  0  0  0  0  0
  1  2  1  0
  2  3  1  0
  2  4  1  0
  4  5  1  0
  5  6  1  0
  5 10  1  0
  6  7  1  0
  7  8  1  0
  7  9  2  0
 10 11  2  0
 10 12  1  0
 12 13  1  0
 13 14  1  0
 13 37  1  0
 14 15  1  0
 15 16  1  0
 16 17  1  0
 16 36  1  0
 17 18  2  0
 17 35  1  0
 18 19  1  0
 19 20  2  0
 19 34  1  0
 20 21  1  0
 21 22  1  0
 21 32  2  0
 22 23  2  0
 22 31  1  0
 23 24  1  0
 24 25  2  0
 25 26  1  0
 26 27  1  0
 26 31  2  0
 27 28  1  0
 27 29  2  0
 27 30  2  0
 32 33  1  0
 33 34  2  0
 34 35  1  0
 36 37  1  0
 37 38  1  0
 38 39  2  0
 38 40  1  0
 40 41  1  0
M  END
