DAV-CRI-1c77f7a9-4
     RDKit          3D

 28 31  0  0  1  0  0  0  0  0999 V2000
    7.4540   -3.3170   25.5800 O   0  0  0  0  0  0  0  0  0  0  0  0
    8.5930   -3.4160   25.2160 C   0  0  0  0  0  0  0  0  0  0  0  0
    9.5200   -4.4180   25.8840 C   0  0  0  0  0  0  0  0  0  0  0  0
    8.7670   -5.0160   27.3820 Cl  0  0  0  0  0  0  0  0  0  0  0  0
    9.0680   -2.6080   24.1770 N   0  0  0  0  0  0  0  0  0  0  0  0
   10.4730   -2.7770   23.7750 C   0  0  0  0  0  0  0  0  0  0  0  0
   10.9380   -1.4950   23.1030 C   0  0  0  0  0  0  0  0  0  0  0  0
   12.2440   -1.0530   23.2870 C   0  0  0  0  0  0  0  0  0  0  0  0
   12.6750    0.1180   22.6730 C   0  0  0  0  0  0  0  0  0  0  0  0
   11.8250    0.8680   21.8690 C   0  0  0  0  0  0  0  0  0  0  0  0
   10.5230    0.4180   21.6940 C   0  0  0  0  0  0  0  0  0  0  0  0
   10.0760   -0.7510   22.3040 C   0  0  0  0  0  0  0  0  0  0  0  0
    8.6510   -1.2450   22.1260 C   0  0  0  0  0  0  0  0  0  0  0  0
    7.6890   -0.1760   21.6340 C   0  0  0  0  0  0  0  0  0  0  0  0
    7.1280    0.7210   22.5370 C   0  0  0  0  0  0  0  0  0  0  0  0
    6.2500    1.6940   22.0700 C   0  0  0  0  0  0  0  0  0  0  0  0
    5.9310    1.7760   20.7180 C   0  0  0  0  0  0  0  0  0  0  0  0
    6.5030    0.8690   19.8320 C   0  0  0  0  0  0  0  0  0  0  0  0
    6.0990    0.9670   18.1010 Cl  0  0  0  0  0  0  0  0  0  0  0  0
    7.3830   -0.1110   20.2790 C   0  0  0  0  0  0  0  0  0  0  0  0
    8.1830   -1.6300   23.5180 C   0  0  0  0  0  0  0  0  0  0  0  0
    6.7700   -2.1930   23.4850 C   0  0  0  0  0  0  0  0  0  0  0  0
    6.6440   -3.1800   22.3360 C   0  0  0  0  0  0  0  0  0  0  0  0
    7.3800   -4.3600   22.3470 C   0  0  0  0  0  0  0  0  0  0  0  0
    7.2620   -5.2600   21.2940 C   0  0  0  0  0  0  0  0  0  0  0  0
    6.4000   -4.9540   20.2450 C   0  0  0  0  0  0  0  0  0  0  0  0
    5.6990   -3.8120   20.2500 N   0  0  0  0  0  0  0  0  0  0  0  0
    5.8010   -2.9320   21.2580 C   0  0  0  0  0  0  0  0  0  0  0  0
  1  2  2  0
  2  3  1  0
  2  5  1  0
  3  4  1  0
  5  6  1  0
  5 21  1  0
  6  7  1  0
  7  8  1  0
  7 12  2  0
  8  9  2  0
  9 10  1  0
 10 11  2  0
 11 12  1  0
 12 13  1  0
 13 14  1  0
 13 21  1  0
 14 15  2  0
 14 20  1  0
 15 16  1  0
 16 17  2  0
 17 18  1  0
 18 19  1  0
 18 20  2  0
 21 22  1  0
 22 23  1  0
 23 24  2  0
 23 28  1  0
 24 25  1  0
 25 26  2  0
 26 27  1  0
 27 28  2  0
M  END
