DAV-CRI-f9b12666-7
     RDKit          3D

 42 45  0  0  1  0  0  0  0  0999 V2000
    1.8440   -7.8070   25.4070 C   0  0  0  0  0  0  0  0  0  0  0  0
    2.5360   -7.4360   24.1050 C   0  0  0  0  0  0  0  0  0  0  0  0
    2.0330   -8.2930   23.0220 N   0  0  0  0  0  0  0  0  0  0  0  0
    3.9860   -7.6270   24.2490 N   0  0  0  0  0  0  0  0  0  0  0  0
    4.6600   -6.3220   24.1900 C   0  0  0  0  0  0  0  0  0  0  0  0
    5.6930   -6.3360   23.0740 C   0  0  0  0  0  0  0  0  0  0  0  0
    5.9550   -4.9120   22.6100 C   0  0  0  0  0  0  0  0  0  0  0  0
    6.6840   -4.0590   23.3960 N   0  0  0  0  0  0  0  0  0  0  0  0
    5.5250   -4.5360   21.5550 O   0  0  0  0  0  0  0  0  0  0  0  0
    5.3510   -6.0490   25.5160 C   0  0  0  0  0  0  0  0  0  0  0  0
    5.2470   -6.8320   26.4190 O   0  0  0  0  0  0  0  0  0  0  0  0
    6.0920   -4.9080   25.6800 N   0  0  0  0  0  0  0  0  0  0  0  0
    6.7600   -4.6440   26.9630 C   0  0  0  0  0  0  0  0  0  0  0  0
    8.2400   -4.9880   26.8920 C   0  0  0  0  0  0  0  0  0  0  0  0
    8.9880   -3.9830   26.0290 C   0  0  0  0  0  0  0  0  0  0  0  0
    8.8550   -2.5820   26.6070 C   0  0  0  0  0  0  0  0  0  0  0  0
    9.5550   -1.6250   25.6540 C   0  0  0  0  0  0  0  0  0  0  0  0
    9.8900   -0.3790   25.8820 N   0  0  0  0  0  0  0  0  0  0  0  0
   10.5210    0.2870   24.8550 C   0  0  0  0  0  0  0  0  0  0  0  0
   11.0190    1.5790   24.7050 C   0  0  0  0  0  0  0  0  0  0  0  0
   11.6310    2.0130   23.5310 C   0  0  0  0  0  0  0  0  0  0  0  0
   12.1440    3.3630   23.3890 C   0  0  0  0  0  0  0  0  0  0  0  0
   12.9240    3.6900   22.2850 C   0  0  0  0  0  0  0  0  0  0  0  0
   13.4130    4.9870   22.1570 C   0  0  0  0  0  0  0  0  0  0  0  0
   13.1200    5.9400   23.1260 C   0  0  0  0  0  0  0  0  0  0  0  0
   13.5950    7.1970   23.0000 O   0  0  0  0  0  0  0  0  0  0  0  0
   12.3390    5.6010   24.2260 C   0  0  0  0  0  0  0  0  0  0  0  0
   11.9780    6.7980   25.4360 S   0  0  0  0  0  0  0  0  0  0  0  0
   12.9880    8.0650   25.2660 N   0  0  0  0  0  0  0  0  0  0  0  0
   10.6180    7.2440   25.2790 O   0  0  0  0  0  0  0  0  0  0  0  0
   12.1460    6.2230   26.7460 O   0  0  0  0  0  0  0  0  0  0  0  0
   11.8460    4.3080   24.3650 C   0  0  0  0  0  0  0  0  0  0  0  0
   11.7810    1.1790   22.4300 C   0  0  0  0  0  0  0  0  0  0  0  0
   11.3050   -0.1190   22.5160 C   0  0  0  0  0  0  0  0  0  0  0  0
   10.7100   -0.4710   23.7180 C   0  0  0  0  0  0  0  0  0  0  0  0
   10.0520   -1.9950   24.0690 S   0  0  0  0  0  0  0  0  0  0  0  0
    7.4020   -2.1470   26.7510 C   0  0  0  0  0  0  0  0  0  0  0  0
    6.5380   -3.2220   27.2720 N   0  0  0  0  0  0  0  0  0  0  0  0
    5.4590   -2.8910   28.1000 C   0  0  0  0  0  0  0  0  0  0  0  0
    4.7490   -3.7560   28.5340 O   0  0  0  0  0  0  0  0  0  0  0  0
    5.1860   -1.4370   28.4500 C   0  0  0  0  0  0  0  0  0  0  0  0
    4.2880   -1.3540   29.9840 Cl  0  0  0  0  0  0  0  0  0  0  0  0
  1  2  1  0
  2  3  1  0
  2  4  1  0
  4  5  1  0
  5  6  1  0
  5 10  1  0
  6  7  1  0
  7  8  1  0
  7  9  2  0
 10 11  2  0
 10 12  1  0
 12 13  1  0
 13 14  1  0
 13 38  1  0
 14 15  1  0
 15 16  1  0
 16 17  1  0
 16 37  1  0
 17 18  2  0
 17 36  1  0
 18 19  1  0
 19 20  2  0
 19 35  1  0
 20 21  1  0
 21 22  1  0
 21 33  2  0
 22 23  2  0
 22 32  1  0
 23 24  1  0
 24 25  2  0
 25 26  1  0
 25 27  1  0
 27 28  1  0
 27 32  2  0
 28 29  1  0
 28 30  2  0
 28 31  2  0
 33 34  1  0
 34 35  2  0
 35 36  1  0
 37 38  1  0
 38 39  1  0
 39 40  2  0
 39 41  1  0
 41 42  1  0
M  END
