DAV-CRI-25b90884-2
     RDKit          3D

 27 28  0  0  1  0  0  0  0  0999 V2000
    6.9920   -5.7670   20.8320 C   0  0  0  0  0  0  0  0  0  0  0  0
    6.3370   -4.4550   21.2320 C   0  0  0  0  0  0  0  0  0  0  0  0
    5.1490   -4.4020   21.3940 O   0  0  0  0  0  0  0  0  0  0  0  0
    7.1030   -3.3320   21.4060 N   0  0  0  0  0  0  0  0  0  0  0  0
    6.4690   -2.0630   21.7930 C   0  0  0  0  0  0  0  0  0  0  0  0
    7.3030   -1.3890   22.8700 C   0  0  0  0  0  0  0  0  0  0  0  0
    8.4600   -1.8810   23.2000 C   0  0  0  0  0  0  0  0  0  0  0  0
    9.2930   -1.2060   24.2780 C   0  0  0  0  0  0  0  0  0  0  0  0
    9.5610   -2.1640   25.3610 N   0  0  0  0  0  0  0  0  0  0  0  0
    8.5220   -2.8100   25.9770 C   0  0  0  0  0  0  0  0  0  0  0  0
    7.3930   -2.5940   25.6320 O   0  0  0  0  0  0  0  0  0  0  0  0
    8.7990   -3.8000   27.0960 C   0  0  0  0  0  0  0  0  0  0  0  0
    9.9490   -5.0330   26.5270 Cl  0  0  0  0  0  0  0  0  0  0  0  0
   10.6090   -0.7360   23.6810 C   0  0  0  0  0  0  0  0  0  0  0  0
   11.4140   -1.6300   22.9820 C   0  0  0  0  0  0  0  0  0  0  0  0
   12.6150   -1.1820   22.4420 C   0  0  0  0  0  0  0  0  0  0  0  0
   13.0150    0.1420   22.5930 C   0  0  0  0  0  0  0  0  0  0  0  0
   12.1960    1.0200   23.2960 C   0  0  0  0  0  0  0  0  0  0  0  0
   12.7010    2.7150   23.4940 Cl  0  0  0  0  0  0  0  0  0  0  0  0
   10.9910    0.5920   23.8440 C   0  0  0  0  0  0  0  0  0  0  0  0
    6.3780   -1.1520   20.5790 C   0  0  0  0  0  0  0  0  0  0  0  0
    5.8970   -1.6610   19.3770 C   0  0  0  0  0  0  0  0  0  0  0  0
    5.8110   -0.8310   18.2640 C   0  0  0  0  0  0  0  0  0  0  0  0
    6.2070    0.4990   18.3680 C   0  0  0  0  0  0  0  0  0  0  0  0
    6.1250    1.3080   17.2910 O   0  0  0  0  0  0  0  0  0  0  0  0
    6.6880    1.0120   19.5680 C   0  0  0  0  0  0  0  0  0  0  0  0
    6.7720    0.1780   20.6780 C   0  0  0  0  0  0  0  0  0  0  0  0
  1  2  1  0
  2  3  2  0
  2  4  1  0
  4  5  1  0
  5  6  1  0
  5 21  1  0
  6  7  2  0
  7  8  1  0
  8  9  1  0
  8 14  1  0
  9 10  1  0
 10 11  2  0
 10 12  1  0
 12 13  1  0
 14 15  2  0
 14 20  1  0
 15 16  1  0
 16 17  2  0
 17 18  1  0
 18 19  1  0
 18 20  2  0
 21 22  2  0
 21 27  1  0
 22 23  1  0
 23 24  2  0
 24 25  1  0
 24 26  1  0
 26 27  2  0
M  END
