DAV-CRI-1c77f7a9-3
     RDKit          3D

 28 31  0  0  1  0  0  0  0  0999 V2000
    5.0420   -4.0240   21.6610 O   0  0  0  0  0  0  0  0  0  0  0  0
    4.8640   -4.2690   22.8220 C   0  0  0  0  0  0  0  0  0  0  0  0
    3.5830   -4.9560   23.2660 C   0  0  0  0  0  0  0  0  0  0  0  0
    3.9830   -6.4830   24.0900 Cl  0  0  0  0  0  0  0  0  0  0  0  0
    5.8370   -3.9230   23.7690 N   0  0  0  0  0  0  0  0  0  0  0  0
    5.5650   -4.2430   25.1770 C   0  0  0  0  0  0  0  0  0  0  0  0
    6.8670   -4.3350   25.9580 C   0  0  0  0  0  0  0  0  0  0  0  0
    7.0300   -5.2600   26.9850 C   0  0  0  0  0  0  0  0  0  0  0  0
    8.2230   -5.3360   27.6960 C   0  0  0  0  0  0  0  0  0  0  0  0
    9.2780   -4.4840   27.3920 C   0  0  0  0  0  0  0  0  0  0  0  0
    9.1010   -3.5680   26.3610 C   0  0  0  0  0  0  0  0  0  0  0  0
    7.9140   -3.4810   25.6370 C   0  0  0  0  0  0  0  0  0  0  0  0
    7.7250   -2.4810   24.5060 C   0  0  0  0  0  0  0  0  0  0  0  0
    9.0240   -1.8940   23.9790 C   0  0  0  0  0  0  0  0  0  0  0  0
    9.4930   -0.6880   24.4900 C   0  0  0  0  0  0  0  0  0  0  0  0
   10.6820   -0.1540   24.0040 C   0  0  0  0  0  0  0  0  0  0  0  0
   11.3930   -0.8260   23.0150 C   0  0  0  0  0  0  0  0  0  0  0  0
   10.9150   -2.0300   22.5120 C   0  0  0  0  0  0  0  0  0  0  0  0
    9.7270   -2.5740   22.9890 C   0  0  0  0  0  0  0  0  0  0  0  0
    7.0880   -3.2560   23.3660 C   0  0  0  0  0  0  0  0  0  0  0  0
    6.7740   -2.3360   22.1970 C   0  0  0  0  0  0  0  0  0  0  0  0
    6.5280   -1.6150   21.2830 C   0  0  0  0  0  0  0  0  0  0  0  0
    6.2140   -0.6950   20.1140 C   0  0  0  0  0  0  0  0  0  0  0  0
    5.6710    0.5640   20.3450 C   0  0  0  0  0  0  0  0  0  0  0  0
    5.3850    1.4040   19.2730 C   0  0  0  0  0  0  0  0  0  0  0  0
    5.6530    0.9560   17.9830 C   0  0  0  0  0  0  0  0  0  0  0  0
    6.1750   -0.2620   17.7790 N   0  0  0  0  0  0  0  0  0  0  0  0
    6.4570   -1.0830   18.8010 C   0  0  0  0  0  0  0  0  0  0  0  0
  1  2  2  0
  2  3  1  0
  2  5  1  0
  3  4  1  0
  5  6  1  0
  5 20  1  0
  6  7  1  0
  7  8  1  0
  7 12  2  0
  8  9  2  0
  9 10  1  0
 10 11  2  0
 11 12  1  0
 12 13  1  0
 13 14  1  0
 13 20  1  0
 14 15  2  0
 14 19  1  0
 15 16  1  0
 16 17  2  0
 17 18  1  0
 18 19  2  0
 20 21  1  0
 21 22  3  0
 22 23  1  0
 23 24  2  0
 23 28  1  0
 24 25  1  0
 25 26  2  0
 26 27  1  0
 27 28  2  0
M  END
