DAV-CRI-f9b12666-10
     RDKit          3D

 42 45  0  0  1  0  0  0  0  0999 V2000
    5.5000   -0.6200   19.7390 C   0  0  0  0  0  0  0  0  0  0  0  0
    6.4670   -0.7110   20.9090 C   0  0  0  0  0  0  0  0  0  0  0  0
    6.1140    0.2990   21.9160 N   0  0  0  0  0  0  0  0  0  0  0  0
    6.3850   -2.0510   21.5080 N   0  0  0  0  0  0  0  0  0  0  0  0
    7.4530   -2.8990   20.9590 C   0  0  0  0  0  0  0  0  0  0  0  0
    6.8610   -4.2210   20.4950 C   0  0  0  0  0  0  0  0  0  0  0  0
    5.9900   -4.8000   21.5980 C   0  0  0  0  0  0  0  0  0  0  0  0
    6.2860   -6.0280   22.1300 N   0  0  0  0  0  0  0  0  0  0  0  0
    5.0430   -4.1840   22.0010 O   0  0  0  0  0  0  0  0  0  0  0  0
    8.4960   -3.1600   22.0340 C   0  0  0  0  0  0  0  0  0  0  0  0
    8.4140   -4.1380   22.7240 O   0  0  0  0  0  0  0  0  0  0  0  0
    9.5290   -2.2800   22.2130 N   0  0  0  0  0  0  0  0  0  0  0  0
   10.5390   -2.5320   23.2530 C   0  0  0  0  0  0  0  0  0  0  0  0
   11.8860   -1.9420   22.8640 C   0  0  0  0  0  0  0  0  0  0  0  0
   11.8520   -0.4240   22.9370 C   0  0  0  0  0  0  0  0  0  0  0  0
   11.5250    0.0340   24.3500 C   0  0  0  0  0  0  0  0  0  0  0  0
   11.4300    1.5520   24.3290 C   0  0  0  0  0  0  0  0  0  0  0  0
   10.3990    2.2860   24.6670 N   0  0  0  0  0  0  0  0  0  0  0  0
   10.5590    3.6490   24.5640 C   0  0  0  0  0  0  0  0  0  0  0  0
    9.7200    4.7310   24.8200 C   0  0  0  0  0  0  0  0  0  0  0  0
   10.1300    6.0490   24.6300 C   0  0  0  0  0  0  0  0  0  0  0  0
    9.2130    7.2250   24.9140 C   0  0  0  0  0  0  0  0  0  0  0  0
    8.2230    7.3830   23.7700 C   0  0  0  0  0  0  0  0  0  0  0  0
    8.2610    6.5060   22.6910 C   0  0  0  0  0  0  0  0  0  0  0  0
    7.3460    6.6700   21.6570 C   0  0  0  0  0  0  0  0  0  0  0  0
    6.4020    7.6920   21.6900 C   0  0  0  0  0  0  0  0  0  0  0  0
    6.3820    8.5570   22.7790 C   0  0  0  0  0  0  0  0  0  0  0  0
    5.2050    9.8380   22.8290 S   0  0  0  0  0  0  0  0  0  0  0  0
    5.0640   10.5050   21.3490 N   0  0  0  0  0  0  0  0  0  0  0  0
    3.9320    9.3050   23.2390 O   0  0  0  0  0  0  0  0  0  0  0  0
    5.6300   10.8430   23.7700 O   0  0  0  0  0  0  0  0  0  0  0  0
    7.2880    8.4120   23.8240 C   0  0  0  0  0  0  0  0  0  0  0  0
   11.4020    6.3620   24.1690 C   0  0  0  0  0  0  0  0  0  0  0  0
   12.2830    5.3270   23.8950 C   0  0  0  0  0  0  0  0  0  0  0  0
   11.7990    4.0470   24.1120 C   0  0  0  0  0  0  0  0  0  0  0  0
   12.6700    2.6140   23.8470 S   0  0  0  0  0  0  0  0  0  0  0  0
   10.2020   -0.5290   24.8530 C   0  0  0  0  0  0  0  0  0  0  0  0
   10.0190   -1.9480   24.5000 N   0  0  0  0  0  0  0  0  0  0  0  0
    9.3270   -2.7880   25.3800 C   0  0  0  0  0  0  0  0  0  0  0  0
    9.1740   -3.9470   25.1060 O   0  0  0  0  0  0  0  0  0  0  0  0
    8.7710   -2.2340   26.6810 C   0  0  0  0  0  0  0  0  0  0  0  0
    7.6450   -3.4130   27.3950 Cl  0  0  0  0  0  0  0  0  0  0  0  0
  1  2  1  0
  2  3  1  0
  2  4  1  0
  4  5  1  0
  5  6  1  0
  5 10  1  0
  6  7  1  0
  7  8  1  0
  7  9  2  0
 10 11  2  0
 10 12  1  0
 12 13  1  0
 13 14  1  0
 13 38  1  0
 14 15  1  0
 15 16  1  0
 16 17  1  0
 16 37  1  0
 17 18  2  0
 17 36  1  0
 18 19  1  0
 19 20  2  0
 19 35  1  0
 20 21  1  0
 21 22  1  0
 21 33  2  0
 22 23  1  0
 23 24  2  0
 23 32  1  0
 24 25  1  0
 25 26  2  0
 26 27  1  0
 27 28  1  0
 27 32  2  0
 28 29  1  0
 28 30  2  0
 28 31  2  0
 33 34  1  0
 34 35  2  0
 35 36  1  0
 37 38  1  0
 38 39  1  0
 39 40  2  0
 39 41  1  0
 41 42  1  0
M  END
