DAV-CRI-f9b12666-1
     RDKit          3D

 41 44  0  0  1  0  0  0  0  0999 V2000
    6.7050   -6.5970   22.1000 C   0  0  0  0  0  0  0  0  0  0  0  0
    5.4980   -5.7130   21.8320 C   0  0  0  0  0  0  0  0  0  0  0  0
    4.3450   -6.2120   22.5950 N   0  0  0  0  0  0  0  0  0  0  0  0
    5.7990   -4.3340   22.2440 N   0  0  0  0  0  0  0  0  0  0  0  0
    7.0720   -3.9100   21.6430 C   0  0  0  0  0  0  0  0  0  0  0  0
    6.9220   -2.5080   21.0750 C   0  0  0  0  0  0  0  0  0  0  0  0
    5.9140   -2.5260   19.9380 C   0  0  0  0  0  0  0  0  0  0  0  0
    5.4750   -1.3490   19.3920 N   0  0  0  0  0  0  0  0  0  0  0  0
    5.5020   -3.5730   19.5190 O   0  0  0  0  0  0  0  0  0  0  0  0
    8.1600   -3.9140   22.7050 C   0  0  0  0  0  0  0  0  0  0  0  0
    8.1810   -4.7760   23.5380 O   0  0  0  0  0  0  0  0  0  0  0  0
    9.1150   -2.9320   22.7100 N   0  0  0  0  0  0  0  0  0  0  0  0
   10.1680   -2.9350   23.7370 C   0  0  0  0  0  0  0  0  0  0  0  0
   11.4440   -2.2940   23.2160 C   0  0  0  0  0  0  0  0  0  0  0  0
   11.2720   -0.7900   23.0650 C   0  0  0  0  0  0  0  0  0  0  0  0
   10.9360   -0.1560   24.4070 C   0  0  0  0  0  0  0  0  0  0  0  0
   10.7000    1.3280   24.1650 C   0  0  0  0  0  0  0  0  0  0  0  0
    9.5790    1.9060   23.8110 N   0  0  0  0  0  0  0  0  0  0  0  0
    9.6150    3.2740   23.6530 C   0  0  0  0  0  0  0  0  0  0  0  0
    8.6670    4.2300   23.2960 C   0  0  0  0  0  0  0  0  0  0  0  0
    8.9690    5.5870   23.2080 C   0  0  0  0  0  0  0  0  0  0  0  0
    7.9710    6.5700   22.8330 C   0  0  0  0  0  0  0  0  0  0  0  0
    7.6560    7.5970   23.7180 C   0  0  0  0  0  0  0  0  0  0  0  0
    6.7010    8.5460   23.3690 C   0  0  0  0  0  0  0  0  0  0  0  0
    6.0710    8.4530   22.1330 C   0  0  0  0  0  0  0  0  0  0  0  0
    4.8740    9.6330   21.6850 S   0  0  0  0  0  0  0  0  0  0  0  0
    5.1580   10.1440   20.1630 N   0  0  0  0  0  0  0  0  0  0  0  0
    3.5640    9.0400   21.7560 O   0  0  0  0  0  0  0  0  0  0  0  0
    4.9440   10.7530   22.5880 O   0  0  0  0  0  0  0  0  0  0  0  0
    6.3820    7.4280   21.2450 C   0  0  0  0  0  0  0  0  0  0  0  0
    7.3380    6.4800   21.5980 C   0  0  0  0  0  0  0  0  0  0  0  0
   10.2440    6.0730   23.4710 C   0  0  0  0  0  0  0  0  0  0  0  0
   11.2330    5.1720   23.8310 C   0  0  0  0  0  0  0  0  0  0  0  0
   10.8490    3.8410   23.8950 C   0  0  0  0  0  0  0  0  0  0  0  0
   11.8720    2.5530   24.3100 S   0  0  0  0  0  0  0  0  0  0  0  0
    9.6830   -0.7510   25.0350 C   0  0  0  0  0  0  0  0  0  0  0  0
    9.6250   -2.2180   24.9030 N   0  0  0  0  0  0  0  0  0  0  0  0
    9.0350   -2.9750   25.9220 C   0  0  0  0  0  0  0  0  0  0  0  0
    8.9830   -4.1700   25.8280 O   0  0  0  0  0  0  0  0  0  0  0  0
    8.4600   -2.2820   27.1470 C   0  0  0  0  0  0  0  0  0  0  0  0
    6.6830   -2.3620   27.0930 Cl  0  0  0  0  0  0  0  0  0  0  0  0
  1  2  1  0
  2  3  1  0
  2  4  1  0
  4  5  1  0
  5  6  1  0
  5 10  1  0
  6  7  1  0
  7  8  1  0
  7  9  2  0
 10 11  2  0
 10 12  1  0
 12 13  1  0
 13 14  1  0
 13 37  1  0
 14 15  1  0
 15 16  1  0
 16 17  1  0
 16 36  1  0
 17 18  2  0
 17 35  1  0
 18 19  1  0
 19 20  2  0
 19 34  1  0
 20 21  1  0
 21 22  1  0
 21 32  2  0
 22 23  2  0
 22 31  1  0
 23 24  1  0
 24 25  2  0
 25 26  1  0
 25 30  1  0
 26 27  1  0
 26 28  2  0
 26 29  2  0
 30 31  2  0
 32 33  1  0
 33 34  2  0
 34 35  1  0
 36 37  1  0
 37 38  1  0
 38 39  2  0
 38 40  1  0
 40 41  1  0
M  END
