HAR-NEW-972ef1cc-1
     RDKit          3D

 21 23  0  0  1  0  0  0  0  0999 V2000
   14.0810    4.9350   23.7950 N   0  0  0  0  0  0  0  0  0  0  0  0
   12.6350    4.6730   23.8390 C   0  0  0  0  0  0  0  0  0  0  0  0
   12.3230    3.4160   23.0430 C   0  0  0  0  0  0  0  0  0  0  0  0
   12.7000    2.1750   23.8350 C   0  0  0  0  0  0  0  0  0  0  0  0
   12.5550    0.9880   22.8940 C   0  0  0  0  0  0  0  0  0  0  0  0
   11.1870    0.9560   22.2270 C   0  0  0  0  0  0  0  0  0  0  0  0
   10.5530   -0.0990   21.6230 N   0  0  0  0  0  0  0  0  0  0  0  0
    9.3620    0.3470   21.1240 C   0  0  0  0  0  0  0  0  0  0  0  0
    8.3560   -0.4940   20.3550 C   0  0  0  0  0  0  0  0  0  0  0  0
    7.2450    0.3810   19.7900 C   0  0  0  0  0  0  0  0  0  0  0  0
    6.2900   -0.5200   19.0180 C   0  0  0  0  0  0  0  0  0  0  0  0
    5.6520   -1.5880   19.8970 C   0  0  0  0  0  0  0  0  0  0  0  0
    6.6490   -2.2640   20.7450 N   0  0  0  0  0  0  0  0  0  0  0  0
    6.4590   -3.6200   21.0360 C   0  0  0  0  0  0  0  0  0  0  0  0
    5.5010   -4.1980   20.6020 O   0  0  0  0  0  0  0  0  0  0  0  0
    7.4650   -4.3600   21.9030 C   0  0  0  0  0  0  0  0  0  0  0  0
    7.0150   -6.0790   21.9980 Cl  0  0  0  0  0  0  0  0  0  0  0  0
    7.8320   -1.5760   21.2890 C   0  0  0  0  0  0  0  0  0  0  0  0
    9.2120    1.6690   21.4260 C   0  0  0  0  0  0  0  0  0  0  0  0
   10.3700    2.0440   22.1450 C   0  0  0  0  0  0  0  0  0  0  0  0
   10.8190    3.3510   22.7900 C   0  0  0  0  0  0  0  0  0  0  0  0
  1  2  1  0
  2  3  1  0
  3  4  1  0
  3 21  1  0
  4  5  1  0
  5  6  1  0
  6  7  1  0
  6 20  2  0
  7  8  1  0
  8  9  1  0
  8 19  2  0
  9 10  1  0
  9 18  1  0
 10 11  1  0
 11 12  1  0
 12 13  1  0
 13 14  1  0
 13 18  1  0
 14 15  2  0
 14 16  1  0
 16 17  1  0
 19 20  1  0
 20 21  1  0
M  CHG  1   1   1
M  END
