INS-INS-abeb49e4-1
     RDKit          3D

 44 48  0  0  1  0  0  0  0  0999 V2000
    7.5490    5.6160   24.3260 C   0  0  0  0  0  0  0  0  0  0  0  0
    8.2880    6.0860   23.0840 C   0  0  0  0  0  0  0  0  0  0  0  0
    9.4410    5.2080   22.8380 N   0  0  0  0  0  0  0  0  0  0  0  0
   10.3690    5.0030   23.8250 C   0  0  0  0  0  0  0  0  0  0  0  0
   10.2400    5.5410   24.8900 O   0  0  0  0  0  0  0  0  0  0  0  0
   11.5620    4.0950   23.5710 C   0  0  0  0  0  0  0  0  0  0  0  0
   11.2090    2.9010   22.7140 C   0  0  0  0  0  0  0  0  0  0  0  0
   11.1400    1.6210   23.5320 C   0  0  0  0  0  0  0  0  0  0  0  0
   11.9010    1.5620   24.6940 C   0  0  0  0  0  0  0  0  0  0  0  0
   11.8830    0.4200   25.4870 C   0  0  0  0  0  0  0  0  0  0  0  0
   11.0880   -0.6490   25.0900 C   0  0  0  0  0  0  0  0  0  0  0  0
   10.3170   -0.6080   23.9300 C   0  0  0  0  0  0  0  0  0  0  0  0
   10.3490    0.5400   23.1460 C   0  0  0  0  0  0  0  0  0  0  0  0
    9.5030    0.5580   21.8820 C   0  0  0  0  0  0  0  0  0  0  0  0
    8.2260   -0.1400   22.0820 N   0  0  0  0  0  0  0  0  0  0  0  0
    7.1460    0.2100   21.2620 C   0  0  0  0  0  0  0  0  0  0  0  0
    6.0880   -0.3390   21.3950 O   0  0  0  0  0  0  0  0  0  0  0  0
    7.3160    1.2870   20.2020 C   0  0  0  0  0  0  0  0  0  0  0  0
    6.7430    0.6700   18.6340 Cl  0  0  0  0  0  0  0  0  0  0  0  0
    8.1000   -1.1780   23.1200 C   0  0  0  0  0  0  0  0  0  0  0  0
    7.1580   -2.2510   22.5970 C   0  0  0  0  0  0  0  0  0  0  0  0
    6.0760   -2.6420   23.3790 C   0  0  0  0  0  0  0  0  0  0  0  0
    5.2220   -3.6250   22.8910 C   0  0  0  0  0  0  0  0  0  0  0  0
    4.1290   -4.0270   23.6690 N   0  0  0  0  0  0  0  0  0  0  0  0
    3.5150   -5.2260   23.4200 C   0  0  0  0  0  0  0  0  0  0  0  0
    2.4460   -5.6200   24.1820 N   0  0  0  0  0  0  0  0  0  0  0  0
    3.9140   -5.9320   22.5360 O   0  0  0  0  0  0  0  0  0  0  0  0
    5.4640   -4.1640   21.6860 N   0  0  0  0  0  0  0  0  0  0  0  0
    6.5110   -3.7770   20.9440 C   0  0  0  0  0  0  0  0  0  0  0  0
    7.3440   -2.8300   21.4010 N   0  0  0  0  0  0  0  0  0  0  0  0
    9.4400   -1.7770   23.5060 C   0  0  0  0  0  0  0  0  0  0  0  0
    9.1740   -2.7810   24.6160 C   0  0  0  0  0  0  0  0  0  0  0  0
    9.4080   -4.1340   24.3910 C   0  0  0  0  0  0  0  0  0  0  0  0
    9.1630   -5.0500   25.4090 C   0  0  0  0  0  0  0  0  0  0  0  0
    8.6880   -4.6110   26.6400 C   0  0  0  0  0  0  0  0  0  0  0  0
    8.4580   -3.2570   26.8530 C   0  0  0  0  0  0  0  0  0  0  0  0
    8.6990   -2.3320   25.8440 C   0  0  0  0  0  0  0  0  0  0  0  0
   12.5780    3.0910   22.0950 C   0  0  0  0  0  0  0  0  0  0  0  0
   12.4140    4.5590   22.4110 C   0  0  0  0  0  0  0  0  0  0  0  0
   13.5520    5.1300   22.7940 F   0  0  0  0  0  0  0  0  0  0  0  0
   11.7720    5.2540   21.4740 F   0  0  0  0  0  0  0  0  0  0  0  0
    7.3520    6.0390   21.8880 C   0  0  0  0  0  0  0  0  0  0  0  0
    6.5660    4.9360   21.6760 N   0  0  0  0  0  0  0  0  0  0  0  0
    7.2990    6.9680   21.1290 O   0  0  0  0  0  0  0  0  0  0  0  0
  1  2  1  0
  2  3  1  0
  2 42  1  0
  3  4  1  0
  4  5  2  0
  4  6  1  0
  6  7  1  0
  6 39  1  0
  7  8  1  0
  7 38  1  0
  8  9  2  0
  8 13  1  0
  9 10  1  0
 10 11  2  0
 11 12  1  0
 12 13  2  0
 12 31  1  0
 13 14  1  0
 14 15  1  0
 15 16  1  0
 15 20  1  0
 16 17  2  0
 16 18  1  0
 18 19  1  0
 20 21  1  0
 20 31  1  0
 21 22  2  0
 21 30  1  0
 22 23  1  0
 23 24  1  0
 23 28  2  0
 24 25  1  0
 25 26  1  0
 25 27  2  0
 28 29  1  0
 29 30  2  0
 31 32  1  0
 32 33  2  0
 32 37  1  0
 33 34  1  0
 34 35  2  0
 35 36  1  0
 36 37  2  0
 38 39  1  0
 39 40  1  0
 39 41  1  0
 42 43  1  0
 42 44  2  0
M  END
