INS-INS-9a4863b0-1
     RDKit          3D

 44 48  0  0  1  0  0  0  0  0999 V2000
    7.5370    5.6040   24.3080 C   0  0  0  0  0  0  0  0  0  0  0  0
    8.2840    6.0810   23.0730 C   0  0  0  0  0  0  0  0  0  0  0  0
    9.4430    5.2080   22.8340 N   0  0  0  0  0  0  0  0  0  0  0  0
   10.3630    5.0040   23.8290 C   0  0  0  0  0  0  0  0  0  0  0  0
   10.2230    5.5370   24.8950 O   0  0  0  0  0  0  0  0  0  0  0  0
   11.5610    4.1020   23.5820 C   0  0  0  0  0  0  0  0  0  0  0  0
   11.2210    2.9080   22.7190 C   0  0  0  0  0  0  0  0  0  0  0  0
   11.1520    1.6260   23.5350 C   0  0  0  0  0  0  0  0  0  0  0  0
   11.9120    1.5640   24.6970 C   0  0  0  0  0  0  0  0  0  0  0  0
   11.8940    0.4200   25.4870 C   0  0  0  0  0  0  0  0  0  0  0  0
   11.0990   -0.6480   25.0870 C   0  0  0  0  0  0  0  0  0  0  0  0
   10.3290   -0.6040   23.9270 C   0  0  0  0  0  0  0  0  0  0  0  0
   10.3610    0.5460   23.1460 C   0  0  0  0  0  0  0  0  0  0  0  0
    9.5150    0.5670   21.8810 C   0  0  0  0  0  0  0  0  0  0  0  0
    8.2380   -0.1320   22.0800 N   0  0  0  0  0  0  0  0  0  0  0  0
    7.1590    0.2200   21.2600 C   0  0  0  0  0  0  0  0  0  0  0  0
    6.1000   -0.3300   21.3920 O   0  0  0  0  0  0  0  0  0  0  0  0
    7.3280    1.3000   20.2030 C   0  0  0  0  0  0  0  0  0  0  0  0
    6.7480    0.6900   18.6340 Cl  0  0  0  0  0  0  0  0  0  0  0  0
    8.1120   -1.1720   23.1140 C   0  0  0  0  0  0  0  0  0  0  0  0
    7.1700   -2.2440   22.5890 C   0  0  0  0  0  0  0  0  0  0  0  0
    6.0860   -2.6350   23.3680 C   0  0  0  0  0  0  0  0  0  0  0  0
    5.2320   -3.6170   22.8770 C   0  0  0  0  0  0  0  0  0  0  0  0
    4.1370   -4.0180   23.6530 N   0  0  0  0  0  0  0  0  0  0  0  0
    3.5240   -5.2180   23.4040 C   0  0  0  0  0  0  0  0  0  0  0  0
    2.4540   -5.6110   24.1620 N   0  0  0  0  0  0  0  0  0  0  0  0
    3.9250   -5.9250   22.5200 O   0  0  0  0  0  0  0  0  0  0  0  0
    5.4760   -4.1550   21.6730 N   0  0  0  0  0  0  0  0  0  0  0  0
    6.5250   -3.7680   20.9330 C   0  0  0  0  0  0  0  0  0  0  0  0
    7.3580   -2.8220   21.3930 N   0  0  0  0  0  0  0  0  0  0  0  0
    9.4520   -1.7720   23.5000 C   0  0  0  0  0  0  0  0  0  0  0  0
    9.1860   -2.7790   24.6070 C   0  0  0  0  0  0  0  0  0  0  0  0
    9.4090   -4.1320   24.3750 C   0  0  0  0  0  0  0  0  0  0  0  0
    9.1630   -5.0510   25.3910 C   0  0  0  0  0  0  0  0  0  0  0  0
    8.6980   -4.6140   26.6270 C   0  0  0  0  0  0  0  0  0  0  0  0
    8.4790   -3.2600   26.8470 C   0  0  0  0  0  0  0  0  0  0  0  0
    8.7210   -2.3310   25.8390 C   0  0  0  0  0  0  0  0  0  0  0  0
   12.5930    3.1050   22.1110 C   0  0  0  0  0  0  0  0  0  0  0  0
   12.4200    4.5720   22.4290 C   0  0  0  0  0  0  0  0  0  0  0  0
   13.5530    5.1470   22.8210 F   0  0  0  0  0  0  0  0  0  0  0  0
   11.7820    5.2660   21.4890 F   0  0  0  0  0  0  0  0  0  0  0  0
    7.3570    6.0330   21.8700 C   0  0  0  0  0  0  0  0  0  0  0  0
    6.5860    4.9230   21.6430 N   0  0  0  0  0  0  0  0  0  0  0  0
    7.3000    6.9670   21.1180 O   0  0  0  0  0  0  0  0  0  0  0  0
  1  2  1  0
  2  3  1  0
  2 42  1  0
  3  4  1  0
  4  5  2  0
  4  6  1  0
  6  7  1  0
  6 39  1  0
  7  8  1  0
  7 38  1  0
  8  9  2  0
  8 13  1  0
  9 10  1  0
 10 11  2  0
 11 12  1  0
 12 13  2  0
 12 31  1  0
 13 14  1  0
 14 15  1  0
 15 16  1  0
 15 20  1  0
 16 17  2  0
 16 18  1  0
 18 19  1  0
 20 21  1  0
 20 31  1  0
 21 22  2  0
 21 30  1  0
 22 23  1  0
 23 24  1  0
 23 28  2  0
 24 25  1  0
 25 26  1  0
 25 27  2  0
 28 29  1  0
 29 30  2  0
 31 32  1  0
 32 33  2  0
 32 37  1  0
 33 34  1  0
 34 35  2  0
 35 36  1  0
 36 37  2  0
 38 39  1  0
 39 40  1  0
 39 41  1  0
 42 43  1  0
 42 44  2  0
M  END
