JAN-GHE-bf40f168-8
     RDKit          3D

 32 34  0  0  0  0  0  0  0  0999 V2000
   12.5170    7.9950   27.4250 C   0  0  0  0  0  0  0  0  0  0  0  0
   12.4450    7.2160   26.3870 C   0  0  0  0  0  0  0  0  0  0  0  0
   11.1590    6.4630   26.0890 C   0  0  0  0  0  0  0  0  0  0  0  0
   10.2050    6.5980   26.8060 O   0  0  0  0  0  0  0  0  0  0  0  0
   11.0860    5.6130   24.9790 N   0  0  0  0  0  0  0  0  0  0  0  0
   12.0100    5.2140   23.9210 C   0  0  0  0  0  0  0  0  0  0  0  0
   11.2320    3.9160   23.9360 C   0  0  0  0  0  0  0  0  0  0  0  0
   11.0300    3.4130   22.5680 N   0  0  0  0  0  0  0  0  0  0  0  0
    9.9980    2.1530   22.6000 S   0  0  0  0  0  0  0  0  0  0  0  0
    9.1420    2.2040   21.4420 O   0  0  0  0  0  0  0  0  0  0  0  0
    9.1950    2.2190   23.7930 O   0  0  0  0  0  0  0  0  0  0  0  0
   10.8980    0.6640   22.5880 C   0  0  0  0  0  0  0  0  0  0  0  0
   12.2560    0.6700   22.8960 C   0  0  0  0  0  0  0  0  0  0  0  0
   12.8520    1.8200   23.1960 F   0  0  0  0  0  0  0  0  0  0  0  0
   12.9920   -0.5100   22.8920 C   0  0  0  0  0  0  0  0  0  0  0  0
   12.3640   -1.7110   22.5760 C   0  0  0  0  0  0  0  0  0  0  0  0
   11.0070   -1.7260   22.2680 C   0  0  0  0  0  0  0  0  0  0  0  0
   10.2790   -0.5410   22.2750 C   0  0  0  0  0  0  0  0  0  0  0  0
    8.9620   -0.5560   21.9760 O   0  0  0  0  0  0  0  0  0  0  0  0
    8.4370   -1.5700   21.1320 C   0  0  0  0  0  0  0  0  0  0  0  0
    6.9240   -1.4400   21.0650 C   0  0  0  0  0  0  0  0  0  0  0  0
    6.3660   -2.4950   20.1240 C   0  0  0  0  0  0  0  0  0  0  0  0
    6.8980   -3.8140   20.4960 N   0  0  0  0  0  0  0  0  0  0  0  0
    6.2540   -4.5770   21.4770 C   0  0  0  0  0  0  0  0  0  0  0  0
    6.8560   -5.7630   21.8850 C   0  0  0  0  0  0  0  0  0  0  0  0
    6.2290   -6.5330   22.8600 C   0  0  0  0  0  0  0  0  0  0  0  0
    5.0220   -6.1150   23.4110 C   0  0  0  0  0  0  0  0  0  0  0  0
    4.3450   -6.9630   24.4750 C   0  0  0  0  0  0  0  0  0  0  0  0
    3.8380   -7.6000   25.2730 N   0  0  0  0  0  0  0  0  0  0  0  0
    4.4730   -4.9190   22.9590 C   0  0  0  0  0  0  0  0  0  0  0  0
    5.0900   -4.1890   22.0190 N   0  0  0  0  0  0  0  0  0  0  0  0
   10.0660    4.7620   24.3800 C   0  0  0  0  0  0  0  0  0  0  0  0
  1  2  2  0
  2  3  1  0
  3  4  2  0
  3  5  1  0
  5  6  1  0
  5 32  1  0
  6  7  1  0
  7  8  1  0
  7 32  1  0
  8  9  1  0
  9 10  2  0
  9 11  2  0
  9 12  1  0
 12 13  2  0
 12 18  1  0
 13 14  1  0
 13 15  1  0
 15 16  2  0
 16 17  1  0
 17 18  2  0
 18 19  1  0
 19 20  1  0
 20 21  1  0
 21 22  1  0
 22 23  1  0
 23 24  1  0
 24 25  2  0
 24 31  1  0
 25 26  1  0
 26 27  2  0
 27 28  1  0
 27 30  1  0
 28 29  3  0
 30 31  2  0
M  END
