JAN-GHE-6413aaf8-6
     RDKit          3D

 30 33  0  0  1  0  0  0  0  0999 V2000
    9.9610    9.7700   27.1050 C   0  0  0  0  0  0  0  0  0  0  0  0
   10.6330    8.8410   26.4920 C   0  0  0  0  0  0  0  0  0  0  0  0
   10.0260    7.4600   26.3060 C   0  0  0  0  0  0  0  0  0  0  0  0
    8.9250    7.2280   26.7250 O   0  0  0  0  0  0  0  0  0  0  0  0
   10.7500    6.4600   25.6480 N   0  0  0  0  0  0  0  0  0  0  0  0
   12.0980    6.7670   25.1430 C   0  0  0  0  0  0  0  0  0  0  0  0
   12.4130    5.9790   23.8800 C   0  0  0  0  0  0  0  0  0  0  0  0
   12.0300    4.5650   24.0140 N   0  0  0  0  0  0  0  0  0  0  0  0
   12.3450    3.9160   22.7340 C   0  0  0  0  0  0  0  0  0  0  0  0
   12.1270    2.4160   22.8600 C   0  0  0  0  0  0  0  0  0  0  0  0
   13.0960    1.6490   23.4980 C   0  0  0  0  0  0  0  0  0  0  0  0
   12.9040    0.2760   23.6160 C   0  0  0  0  0  0  0  0  0  0  0  0
   11.7480   -0.2970   23.0960 C   0  0  0  0  0  0  0  0  0  0  0  0
   10.7760    0.4680   22.4580 C   0  0  0  0  0  0  0  0  0  0  0  0
    9.5310    0.2330   21.8320 C   0  0  0  0  0  0  0  0  0  0  0  0
    8.8560   -1.1210   21.6900 C   0  0  0  0  0  0  0  0  0  0  0  0
    7.4600   -1.0570   22.2880 C   0  0  0  0  0  0  0  0  0  0  0  0
    6.6710   -2.2040   21.8160 N   0  0  0  0  0  0  0  0  0  0  0  0
    6.1510   -2.2040   20.5490 C   0  0  0  0  0  0  0  0  0  0  0  0
    5.5080   -3.1400   20.1640 O   0  0  0  0  0  0  0  0  0  0  0  0
    6.3890   -1.0170   19.6310 C   0  0  0  0  0  0  0  0  0  0  0  0
    5.7340    0.2340   20.1860 C   0  0  0  0  0  0  0  0  0  0  0  0
    5.6780    1.1460   18.9750 C   0  0  0  0  0  0  0  0  0  0  0  0
    5.5990    0.1930   17.7960 C   0  0  0  0  0  0  0  0  0  0  0  0
    5.6900   -1.1630   18.3510 N   0  0  0  0  0  0  0  0  0  0  0  0
    9.0280    1.4160   21.3750 C   0  0  0  0  0  0  0  0  0  0  0  0
    9.9240    2.3950   21.6920 N   0  0  0  0  0  0  0  0  0  0  0  0
   10.9790    1.8250   22.3470 C   0  0  0  0  0  0  0  0  0  0  0  0
   10.5720    4.4740   24.1900 C   0  0  0  0  0  0  0  0  0  0  0  0
   10.1220    5.1390   25.4820 C   0  0  0  0  0  0  0  0  0  0  0  0
  1  2  2  0
  2  3  1  0
  3  4  2  0
  3  5  1  0
  5  6  1  0
  5 30  1  0
  6  7  1  0
  7  8  1  0
  8  9  1  0
  8 29  1  0
  9 10  1  0
 10 11  2  0
 10 28  1  0
 11 12  1  0
 12 13  2  0
 13 14  1  0
 14 15  1  0
 14 28  2  0
 15 16  1  0
 15 26  2  0
 16 17  1  0
 17 18  1  0
 18 19  1  0
 19 20  2  0
 19 21  1  0
 21 22  1  0
 21 25  1  0
 22 23  1  0
 23 24  1  0
 24 25  1  0
 26 27  1  0
 27 28  1  0
 29 30  1  0
M  END
