JAN-GHE-6413aaf8-2
     RDKit          3D

 29 32  0  0  0  0  0  0  0  0999 V2000
   12.2360    7.4230   28.9750 C   0  0  0  0  0  0  0  0  0  0  0  0
   12.3850    6.9670   27.7670 C   0  0  0  0  0  0  0  0  0  0  0  0
   11.2200    7.0030   26.7920 C   0  0  0  0  0  0  0  0  0  0  0  0
   10.1770    7.4970   27.1210 O   0  0  0  0  0  0  0  0  0  0  0  0
   11.3630    6.4600   25.5090 N   0  0  0  0  0  0  0  0  0  0  0  0
   12.4440    5.8000   24.7820 C   0  0  0  0  0  0  0  0  0  0  0  0
   11.3220    5.0740   24.0720 C   0  0  0  0  0  0  0  0  0  0  0  0
   11.6200    4.9260   22.6390 N   0  0  0  0  0  0  0  0  0  0  0  0
   12.7000    3.9440   22.4620 C   0  0  0  0  0  0  0  0  0  0  0  0
   12.1670    2.5490   22.7460 C   0  0  0  0  0  0  0  0  0  0  0  0
   12.9960    1.6320   23.3820 C   0  0  0  0  0  0  0  0  0  0  0  0
   12.5160    0.3520   23.6450 C   0  0  0  0  0  0  0  0  0  0  0  0
   11.2190    0.0210   23.2670 C   0  0  0  0  0  0  0  0  0  0  0  0
   10.3860    0.9370   22.6320 C   0  0  0  0  0  0  0  0  0  0  0  0
    9.0680    0.9470   22.1230 C   0  0  0  0  0  0  0  0  0  0  0  0
    8.0980   -0.2230   22.1600 C   0  0  0  0  0  0  0  0  0  0  0  0
    8.5170   -1.2610   21.1320 C   0  0  0  0  0  0  0  0  0  0  0  0
    7.5350   -2.3550   21.1120 N   0  0  0  0  0  0  0  0  0  0  0  0
    6.3040   -2.1600   20.5430 C   0  0  0  0  0  0  0  0  0  0  0  0
    5.5030   -3.0530   20.5270 O   0  0  0  0  0  0  0  0  0  0  0  0
    5.9700   -0.8760   19.9630 C   0  0  0  0  0  0  0  0  0  0  0  0
    6.6800   -0.2470   18.9830 C   0  0  0  0  0  0  0  0  0  0  0  0
    6.0050    0.9670   18.7160 C   0  0  0  0  0  0  0  0  0  0  0  0
    4.9170    1.0300   19.5400 C   0  0  0  0  0  0  0  0  0  0  0  0
    4.8980   -0.1030   20.3040 N   0  0  0  0  0  0  0  0  0  0  0  0
    8.8000    2.1760   21.5920 C   0  0  0  0  0  0  0  0  0  0  0  0
    9.9160    2.9440   21.7490 N   0  0  0  0  0  0  0  0  0  0  0  0
   10.8740    2.1990   22.3760 C   0  0  0  0  0  0  0  0  0  0  0  0
   10.5140    6.3190   24.3320 C   0  0  0  0  0  0  0  0  0  0  0  0
  1  2  2  0
  2  3  1  0
  3  4  2  0
  3  5  1  0
  5  6  1  0
  5 29  1  0
  6  7  1  0
  7  8  1  0
  7 29  1  0
  8  9  1  0
  9 10  1  0
 10 11  2  0
 10 28  1  0
 11 12  1  0
 12 13  2  0
 13 14  1  0
 14 15  1  0
 14 28  2  0
 15 16  1  0
 15 26  2  0
 16 17  1  0
 17 18  1  0
 18 19  1  0
 19 20  2  0
 19 21  1  0
 21 22  2  0
 21 25  1  0
 22 23  1  0
 23 24  2  0
 24 25  1  0
 26 27  1  0
 27 28  1  0
M  CHG  1   8   1
M  END
