JAN-GHE-6413aaf8-1
     RDKit          3D

 30 33  0  0  0  0  0  0  0  0999 V2000
    9.8240    9.2040   27.2840 C   0  0  0  0  0  0  0  0  0  0  0  0
   10.5370    8.2380   26.7860 C   0  0  0  0  0  0  0  0  0  0  0  0
    9.8620    6.9620   26.3090 C   0  0  0  0  0  0  0  0  0  0  0  0
    8.6760    6.8270   26.4360 O   0  0  0  0  0  0  0  0  0  0  0  0
   10.6230    5.9450   25.7200 N   0  0  0  0  0  0  0  0  0  0  0  0
   12.0760    6.1320   25.5740 C   0  0  0  0  0  0  0  0  0  0  0  0
   12.6060    5.4290   24.3330 C   0  0  0  0  0  0  0  0  0  0  0  0
   12.0680    4.0640   24.2120 N   0  0  0  0  0  0  0  0  0  0  0  0
   12.6150    3.5000   22.9710 C   0  0  0  0  0  0  0  0  0  0  0  0
   12.2140    2.0380   22.8600 C   0  0  0  0  0  0  0  0  0  0  0  0
   13.0400    1.0710   23.4210 C   0  0  0  0  0  0  0  0  0  0  0  0
   12.6800   -0.2700   23.3230 C   0  0  0  0  0  0  0  0  0  0  0  0
   11.5020   -0.6120   22.6680 C   0  0  0  0  0  0  0  0  0  0  0  0
   10.6710    0.3540   22.1060 C   0  0  0  0  0  0  0  0  0  0  0  0
    9.4510    0.3710   21.3930 C   0  0  0  0  0  0  0  0  0  0  0  0
    8.6310   -0.8530   21.0170 C   0  0  0  0  0  0  0  0  0  0  0  0
    7.7330   -1.2380   22.1810 C   0  0  0  0  0  0  0  0  0  0  0  0
    7.0180   -2.4810   21.8570 N   0  0  0  0  0  0  0  0  0  0  0  0
    6.0850   -2.4930   20.8540 C   0  0  0  0  0  0  0  0  0  0  0  0
    5.5010   -3.5080   20.5900 O   0  0  0  0  0  0  0  0  0  0  0  0
    5.8030   -1.2820   20.1130 C   0  0  0  0  0  0  0  0  0  0  0  0
    6.1010   -1.0780   18.7970 C   0  0  0  0  0  0  0  0  0  0  0  0
    5.6540    0.2280   18.4840 C   0  0  0  0  0  0  0  0  0  0  0  0
    5.1060    0.7640   19.6140 C   0  0  0  0  0  0  0  0  0  0  0  0
    5.1980   -0.1650   20.6120 N   0  0  0  0  0  0  0  0  0  0  0  0
    9.1220    1.6610   21.0950 C   0  0  0  0  0  0  0  0  0  0  0  0
   10.1050    2.4630   21.5980 N   0  0  0  0  0  0  0  0  0  0  0  0
   11.0400    1.6760   22.2090 C   0  0  0  0  0  0  0  0  0  0  0  0
   10.6080    4.1350   24.0410 C   0  0  0  0  0  0  0  0  0  0  0  0
    9.9290    4.7300   25.2650 C   0  0  0  0  0  0  0  0  0  0  0  0
  1  2  2  0
  2  3  1  0
  3  4  2  0
  3  5  1  0
  5  6  1  0
  5 30  1  0
  6  7  1  0
  7  8  1  0
  8  9  1  0
  8 29  1  0
  9 10  1  0
 10 11  2  0
 10 28  1  0
 11 12  1  0
 12 13  2  0
 13 14  1  0
 14 15  1  0
 14 28  2  0
 15 16  1  0
 15 26  2  0
 16 17  1  0
 17 18  1  0
 18 19  1  0
 19 20  2  0
 19 21  1  0
 21 22  2  0
 21 25  1  0
 22 23  1  0
 23 24  2  0
 24 25  1  0
 26 27  1  0
 27 28  1  0
 29 30  1  0
M  END
