JAN-LUN-04aedcc0-1
     RDKit          3D

 33 35  0  0  1  0  0  0  0  0999 V2000
   13.8880    6.3060   21.8670 O   0  0  0  0  0  0  0  0  0  0  0  0
   13.8070    5.4310   22.6840 C   0  0  0  0  0  0  0  0  0  0  0  0
   14.8100    5.1980   23.4950 O   0  0  0  0  0  0  0  0  0  0  0  0
   12.5420    4.5940   22.7800 C   0  0  0  0  0  0  0  0  0  0  0  0
   12.3060    4.1970   24.2280 C   0  0  0  0  0  0  0  0  0  0  0  0
   10.9520    3.5160   24.3520 C   0  0  0  0  0  0  0  0  0  0  0  0
   10.9330    2.2660   23.4870 C   0  0  0  0  0  0  0  0  0  0  0  0
   12.1080    1.5800   23.1910 C   0  0  0  0  0  0  0  0  0  0  0  0
   12.0680    0.4780   22.4260 N   0  0  0  0  0  0  0  0  0  0  0  0
   10.9150    0.0040   21.9290 C   0  0  0  0  0  0  0  0  0  0  0  0
    9.7130    0.6530   22.1940 C   0  0  0  0  0  0  0  0  0  0  0  0
    8.4960    0.1820   21.6890 N   0  0  0  0  0  0  0  0  0  0  0  0
    7.4160    0.0430   22.5210 C   0  0  0  0  0  0  0  0  0  0  0  0
    7.5150    0.3240   23.6830 O   0  0  0  0  0  0  0  0  0  0  0  0
    6.2250   -0.4180   22.0260 N   0  0  0  0  0  0  0  0  0  0  0  0
    6.1100   -0.7470   20.6700 C   0  0  0  0  0  0  0  0  0  0  0  0
    6.0550    0.2610   19.7120 C   0  0  0  0  0  0  0  0  0  0  0  0
    5.9400   -0.0810   18.3690 C   0  0  0  0  0  0  0  0  0  0  0  0
    5.8860    0.8960   17.4380 O   0  0  0  0  0  0  0  0  0  0  0  0
    5.8800   -1.4120   17.9710 C   0  0  0  0  0  0  0  0  0  0  0  0
    5.9360   -2.4150   18.9340 C   0  0  0  0  0  0  0  0  0  0  0  0
    6.0510   -2.0820   20.2800 C   0  0  0  0  0  0  0  0  0  0  0  0
    6.1120   -3.1820   21.3270 C   0  0  0  0  0  0  0  0  0  0  0  0
    7.5150   -3.2000   21.9140 C   0  0  0  0  0  0  0  0  0  0  0  0
    7.7480   -4.4050   22.7260 N   0  0  0  0  0  0  0  0  0  0  0  0
    8.5880   -4.3220   23.8420 C   0  0  0  0  0  0  0  0  0  0  0  0
    8.7890   -5.2950   24.5160 O   0  0  0  0  0  0  0  0  0  0  0  0
    9.2460   -3.0000   24.2020 C   0  0  0  0  0  0  0  0  0  0  0  0
    8.8500   -2.5780   25.8840 Cl  0  0  0  0  0  0  0  0  0  0  0  0
    7.1230   -5.6990   22.4080 C   0  0  0  0  0  0  0  0  0  0  0  0
    5.7470   -5.5180   21.7830 C   0  0  0  0  0  0  0  0  0  0  0  0
    5.7520   -4.4820   20.7360 N   0  0  0  0  0  0  0  0  0  0  0  0
    9.7240    1.7980   22.9830 C   0  0  0  0  0  0  0  0  0  0  0  0
  1  2  2  0
  2  3  1  0
  2  4  1  0
  4  5  1  0
  5  6  1  0
  6  7  1  0
  7  8  2  0
  7 33  1  0
  8  9  1  0
  9 10  2  0
 10 11  1  0
 11 12  1  0
 11 33  2  0
 12 13  1  0
 13 14  2  0
 13 15  1  0
 15 16  1  0
 16 17  2  0
 16 22  1  0
 17 18  1  0
 18 19  1  0
 18 20  2  0
 20 21  1  0
 21 22  2  0
 22 23  1  0
 23 24  1  0
 23 32  1  0
 24 25  1  0
 25 26  1  0
 25 30  1  0
 26 27  2  0
 26 28  1  0
 28 29  1  0
 30 31  1  0
 31 32  1  0
M  END
