JAN-GHE-bf40f168-7
     RDKit          3D

 32 34  0  0  0  0  0  0  0  0999 V2000
    6.9850   -6.1490   21.6930 C   0  0  0  0  0  0  0  0  0  0  0  0
    6.3580   -5.4040   20.8320 C   0  0  0  0  0  0  0  0  0  0  0  0
    6.3990   -3.8910   20.9640 C   0  0  0  0  0  0  0  0  0  0  0  0
    5.7580   -3.2060   20.2160 O   0  0  0  0  0  0  0  0  0  0  0  0
    7.1670   -3.3090   21.9380 N   0  0  0  0  0  0  0  0  0  0  0  0
    7.2060   -1.8420   22.0650 C   0  0  0  0  0  0  0  0  0  0  0  0
    8.6200   -1.3210   22.1120 C   0  0  0  0  0  0  0  0  0  0  0  0
    8.1520   -0.3730   23.1280 N   0  0  0  0  0  0  0  0  0  0  0  0
    9.3670   -0.0870   24.3680 S   0  0  0  0  0  0  0  0  0  0  0  0
    9.1950   -1.0380   25.4360 O   0  0  0  0  0  0  0  0  0  0  0  0
    9.2190    1.2480   24.8850 O   0  0  0  0  0  0  0  0  0  0  0  0
   10.9540   -0.2700   23.6780 C   0  0  0  0  0  0  0  0  0  0  0  0
   11.4130   -1.5330   23.3140 C   0  0  0  0  0  0  0  0  0  0  0  0
   10.6280   -2.5920   23.4980 F   0  0  0  0  0  0  0  0  0  0  0  0
   12.6790   -1.6980   22.7610 C   0  0  0  0  0  0  0  0  0  0  0  0
   13.4960   -0.5890   22.5710 C   0  0  0  0  0  0  0  0  0  0  0  0
   13.0450    0.6770   22.9320 C   0  0  0  0  0  0  0  0  0  0  0  0
   11.7780    0.8330   23.4840 C   0  0  0  0  0  0  0  0  0  0  0  0
   11.3400    2.0620   23.8340 O   0  0  0  0  0  0  0  0  0  0  0  0
   12.1570    3.2000   23.6000 C   0  0  0  0  0  0  0  0  0  0  0  0
   11.4760    4.4360   24.1640 C   0  0  0  0  0  0  0  0  0  0  0  0
   10.1170    4.6100   23.5060 C   0  0  0  0  0  0  0  0  0  0  0  0
    9.4720    5.8240   24.0280 N   0  0  0  0  0  0  0  0  0  0  0  0
    8.4240    6.4210   23.3160 C   0  0  0  0  0  0  0  0  0  0  0  0
    7.8980    7.6140   23.8020 C   0  0  0  0  0  0  0  0  0  0  0  0
    6.8570    8.2200   23.1070 C   0  0  0  0  0  0  0  0  0  0  0  0
    6.3590    7.6370   21.9470 C   0  0  0  0  0  0  0  0  0  0  0  0
    5.2200    8.3080   21.1940 C   0  0  0  0  0  0  0  0  0  0  0  0
    4.3670    8.8110   20.6290 N   0  0  0  0  0  0  0  0  0  0  0  0
    6.9300    6.4440   21.5140 C   0  0  0  0  0  0  0  0  0  0  0  0
    7.9320    5.8720   22.1960 N   0  0  0  0  0  0  0  0  0  0  0  0
    7.1770   -1.3920   23.5110 C   0  0  0  0  0  0  0  0  0  0  0  0
  1  2  2  0
  2  3  1  0
  3  4  2  0
  3  5  1  0
  5  6  1  0
  6  7  1  0
  6 32  1  0
  7  8  1  0
  8  9  1  0
  8 32  1  0
  9 10  2  0
  9 11  2  0
  9 12  1  0
 12 13  2  0
 12 18  1  0
 13 14  1  0
 13 15  1  0
 15 16  2  0
 16 17  1  0
 17 18  2  0
 18 19  1  0
 19 20  1  0
 20 21  1  0
 21 22  1  0
 22 23  1  0
 23 24  1  0
 24 25  2  0
 24 31  1  0
 25 26  1  0
 26 27  2  0
 27 28  1  0
 27 30  1  0
 28 29  3  0
 30 31  2  0
M  END
