JAN-GHE-6413aaf8-8
     RDKit          3D

 31 33  0  0  0  0  0  0  0  0999 V2000
    9.7550    9.7690   26.7270 C   0  0  0  0  0  0  0  0  0  0  0  0
   10.4970    8.8320   26.2140 C   0  0  0  0  0  0  0  0  0  0  0  0
    9.9440    7.4260   26.0550 C   0  0  0  0  0  0  0  0  0  0  0  0
    8.8280    7.1750   26.4190 O   0  0  0  0  0  0  0  0  0  0  0  0
   10.7350    6.4220   25.4840 N   0  0  0  0  0  0  0  0  0  0  0  0
   12.0980    6.7670   25.0490 C   0  0  0  0  0  0  0  0  0  0  0  0
   12.5180    5.9540   23.8330 C   0  0  0  0  0  0  0  0  0  0  0  0
   12.1820    4.5290   23.9820 N   0  0  0  0  0  0  0  0  0  0  0  0
   12.5890    3.8590   22.7380 C   0  0  0  0  0  0  0  0  0  0  0  0
   12.3460    2.3640   22.8650 C   0  0  0  0  0  0  0  0  0  0  0  0
   13.3040    1.5800   23.4980 C   0  0  0  0  0  0  0  0  0  0  0  0
   13.0900    0.2100   23.6170 C   0  0  0  0  0  0  0  0  0  0  0  0
   11.9220   -0.3430   23.1020 C   0  0  0  0  0  0  0  0  0  0  0  0
   10.9600    0.4390   22.4690 C   0  0  0  0  0  0  0  0  0  0  0  0
    9.7080    0.2260   21.8490 C   0  0  0  0  0  0  0  0  0  0  0  0
    9.0080   -1.1170   21.7090 C   0  0  0  0  0  0  0  0  0  0  0  0
    7.5080   -0.8980   21.6050 C   0  0  0  0  0  0  0  0  0  0  0  0
    6.8400   -2.1870   21.3750 N   0  0  0  0  0  0  0  0  0  0  0  0
    6.0460   -2.3600   20.2710 C   0  0  0  0  0  0  0  0  0  0  0  0
    5.5010   -3.4120   20.0840 O   0  0  0  0  0  0  0  0  0  0  0  0
    5.8580   -1.2190   19.2850 C   0  0  0  0  0  0  0  0  0  0  0  0
    5.1320   -0.0720   19.9690 C   0  0  0  0  0  0  0  0  0  0  0  0
    5.2010    1.1660   19.0910 C   0  0  0  0  0  0  0  0  0  0  0  0
    4.6000    2.3040   19.8020 N   0  0  0  0  0  0  0  0  0  0  0  0
    3.1500    2.0950   19.9240 C   0  0  0  0  0  0  0  0  0  0  0  0
    5.1940    2.4150   21.1420 C   0  0  0  0  0  0  0  0  0  0  0  0
    9.2230    1.4180   21.3940 C   0  0  0  0  0  0  0  0  0  0  0  0
   10.1370    2.3810   21.7070 N   0  0  0  0  0  0  0  0  0  0  0  0
   11.1860    1.7920   22.3570 C   0  0  0  0  0  0  0  0  0  0  0  0
   10.7230    4.3680   24.0990 C   0  0  0  0  0  0  0  0  0  0  0  0
   10.1710    5.0720   25.3300 C   0  0  0  0  0  0  0  0  0  0  0  0
  1  2  2  0
  2  3  1  0
  3  4  2  0
  3  5  1  0
  5  6  1  0
  5 31  1  0
  6  7  1  0
  7  8  1  0
  8  9  1  0
  8 30  1  0
  9 10  1  0
 10 11  2  0
 10 29  1  0
 11 12  1  0
 12 13  2  0
 13 14  1  0
 14 15  1  0
 14 29  2  0
 15 16  1  0
 15 27  2  0
 16 17  1  0
 17 18  1  0
 18 19  1  0
 19 20  2  0
 19 21  1  0
 21 22  1  0
 22 23  1  0
 23 24  1  0
 24 25  1  0
 24 26  1  0
 27 28  1  0
 28 29  1  0
 30 31  1  0
M  CHG  2   8   1  24   1
M  END
