JOH-PRI-13a2d501-1
     RDKit          3D

 27 29  0  0  1  0  0  0  0  0999 V2000
    3.9710    1.6240   19.5960 C   0  0  0  0  0  0  0  0  0  0  0  0
    5.3680    1.8980   19.2290 N   0  0  0  0  0  0  0  0  0  0  0  0
    6.1100    0.9400   18.5900 C   0  0  0  0  0  0  0  0  0  0  0  0
    6.3600    1.0560   17.4220 O   0  0  0  0  0  0  0  0  0  0  0  0
    6.6150   -0.2690   19.3600 C   0  0  0  0  0  0  0  0  0  0  0  0
    5.5200   -1.3220   19.4250 C   0  0  0  0  0  0  0  0  0  0  0  0
    6.0200   -2.5250   20.2070 C   0  0  0  0  0  0  0  0  0  0  0  0
    5.5020   -3.7280   20.1590 N   0  0  0  0  0  0  0  0  0  0  0  0
    6.1870   -4.5140   20.9550 N   0  0  0  0  0  0  0  0  0  0  0  0
    5.8970   -5.9390   21.1710 C   0  0  0  0  0  0  0  0  0  0  0  0
    7.2020   -3.8150   21.5380 C   0  0  0  0  0  0  0  0  0  0  0  0
    7.1030   -2.5400   21.1130 C   0  0  0  0  0  0  0  0  0  0  0  0
    8.0900   -1.5220   21.6640 C   0  0  0  0  0  0  0  0  0  0  0  0
    9.3090   -2.2060   22.2590 C   0  0  0  0  0  0  0  0  0  0  0  0
    8.8050   -3.0990   23.3080 N   0  0  0  0  0  0  0  0  0  0  0  0
    9.7510   -3.7850   24.1950 C   0  0  0  0  0  0  0  0  0  0  0  0
    9.0270   -4.8380   25.0080 C   0  0  0  0  0  0  0  0  0  0  0  0
    8.4190   -4.3020   26.2940 C   0  0  0  0  0  0  0  0  0  0  0  0
    8.6300   -3.1700   26.6310 O   0  0  0  0  0  0  0  0  0  0  0  0
    7.6300   -5.1120   27.0680 N   0  0  0  0  0  0  0  0  0  0  0  0
    7.3830   -4.7800   28.3880 N   0  0  0  0  0  0  0  0  0  0  0  0
    6.6340   -5.6130   29.1750 C   0  0  0  0  0  0  0  0  0  0  0  0
    6.4200   -5.3250   30.3200 O   0  0  0  0  0  0  0  0  0  0  0  0
    6.0730   -6.9030   28.5990 C   0  0  0  0  0  0  0  0  0  0  0  0
    4.7810   -6.5210   27.4350 Cl  0  0  0  0  0  0  0  0  0  0  0  0
    7.7560   -5.3200   23.8270 S   0  0  0  0  0  0  0  0  0  0  0  0
    8.3020   -4.2100   22.5150 C   0  0  0  0  0  0  0  0  0  0  0  0
  1  2  1  0
  2  3  1  0
  3  4  2  0
  3  5  1  0
  5  6  1  0
  6  7  1  0
  7  8  2  0
  7 12  1  0
  8  9  1  0
  9 10  1  0
  9 11  1  0
 11 12  2  0
 11 27  1  0
 12 13  1  0
 13 14  1  0
 14 15  1  0
 15 16  1  0
 15 27  1  0
 16 17  1  0
 17 18  1  0
 17 26  1  0
 18 19  2  0
 18 20  1  0
 20 21  1  0
 21 22  1  0
 22 23  2  0
 22 24  1  0
 24 25  1  0
 26 27  1  0
M  CHG  1  15   1
M  END
