JUA-UNI-bc099708-2
     RDKit          3D

 28 30  0  0  0  0  0  0  0  0999 V2000
    5.8810   -5.9330   21.3940 C   0  0  0  0  0  0  0  0  0  0  0  0
    6.7390   -4.9960   21.6670 C   0  0  0  0  0  0  0  0  0  0  0  0
    6.6470   -3.6520   20.9620 C   0  0  0  0  0  0  0  0  0  0  0  0
    5.7960   -3.4640   20.1380 O   0  0  0  0  0  0  0  0  0  0  0  0
    7.5370   -2.6560   21.2680 N   0  0  0  0  0  0  0  0  0  0  0  0
    7.4480   -1.3570   20.5860 C   0  0  0  0  0  0  0  0  0  0  0  0
    8.4830   -0.4070   21.1690 C   0  0  0  0  0  0  0  0  0  0  0  0
    9.6250   -0.9260   21.7700 C   0  0  0  0  0  0  0  0  0  0  0  0
   10.5760   -0.0620   22.3030 C   0  0  0  0  0  0  0  0  0  0  0  0
   10.3710    1.3120   22.2270 C   0  0  0  0  0  0  0  0  0  0  0  0
   11.3600    2.2170   22.7800 C   0  0  0  0  0  0  0  0  0  0  0  0
   12.2170    1.7980   23.5080 O   0  0  0  0  0  0  0  0  0  0  0  0
   11.3150    3.5510   22.4720 N   0  0  0  0  0  0  0  0  0  0  0  0
   12.3170    4.4690   23.0320 C   0  0  0  0  0  0  0  0  0  0  0  0
   11.6400    5.4290   23.9980 C   0  0  0  0  0  0  0  0  0  0  0  0
   12.2910    5.7730   25.1790 C   0  0  0  0  0  0  0  0  0  0  0  0
   11.6830    6.6530   26.0680 C   0  0  0  0  0  0  0  0  0  0  0  0
   12.3990    7.0260   27.3570 C   0  0  0  0  0  0  0  0  0  0  0  0
   10.4310    7.1690   25.7510 C   0  0  0  0  0  0  0  0  0  0  0  0
    9.7740    6.8320   24.5720 C   0  0  0  0  0  0  0  0  0  0  0  0
    8.5480    7.1440   23.9370 C   0  0  0  0  0  0  0  0  0  0  0  0
    7.4860    8.0800   24.4910 C   0  0  0  0  0  0  0  0  0  0  0  0
    8.4650    6.4780   22.7500 C   0  0  0  0  0  0  0  0  0  0  0  0
    7.3100    6.5470   21.7620 C   0  0  0  0  0  0  0  0  0  0  0  0
    9.6040    5.7480   22.6050 N   0  0  0  0  0  0  0  0  0  0  0  0
   10.3900    5.9600   23.7030 C   0  0  0  0  0  0  0  0  0  0  0  0
    9.2290    1.8310   21.6270 C   0  0  0  0  0  0  0  0  0  0  0  0
    8.2780    0.9670   21.0950 C   0  0  0  0  0  0  0  0  0  0  0  0
  1  2  2  0
  2  3  1  0
  3  4  2  0
  3  5  1  0
  5  6  1  0
  6  7  1  0
  7  8  2  0
  7 28  1  0
  8  9  1  0
  9 10  2  0
 10 11  1  0
 10 27  1  0
 11 12  2  0
 11 13  1  0
 13 14  1  0
 14 15  1  0
 15 16  2  0
 15 26  1  0
 16 17  1  0
 17 18  1  0
 17 19  2  0
 19 20  1  0
 20 21  1  0
 20 26  2  0
 21 22  1  0
 21 23  2  0
 23 24  1  0
 23 25  1  0
 25 26  1  0
 27 28  2  0
M  END
