MAK-UNK-af83ef51-17
     RDKit          3D

 32 34  0  0  1  0  0  0  0  0999 V2000
   13.9030    6.2710   21.9940 C   0  0  0  0  0  0  0  0  0  0  0  0
   12.9560    5.3010   22.6840 C   0  0  0  0  0  0  0  0  0  0  0  0
   11.8490    5.7930   23.3660 C   0  0  0  0  0  0  0  0  0  0  0  0
   10.9930    4.8930   23.9910 C   0  0  0  0  0  0  0  0  0  0  0  0
    9.7800    5.4160   24.7410 C   0  0  0  0  0  0  0  0  0  0  0  0
    9.1340    6.4750   23.9510 N   0  0  0  0  0  0  0  0  0  0  0  0
    8.3580    5.8090   22.8920 C   0  0  0  0  0  0  0  0  0  0  0  0
    7.6010    6.8080   22.0290 C   0  0  0  0  0  0  0  0  0  0  0  0
    6.9180    7.8200   22.8500 N   0  0  0  0  0  0  0  0  0  0  0  0
    5.7060    8.3460   22.3880 C   0  0  0  0  0  0  0  0  0  0  0  0
    5.1250    9.1730   23.0350 O   0  0  0  0  0  0  0  0  0  0  0  0
    5.1250    7.8700   21.0660 C   0  0  0  0  0  0  0  0  0  0  0  0
    4.9010    9.2620   19.9800 Cl  0  0  0  0  0  0  0  0  0  0  0  0
    7.4520    8.2890   24.1390 C   0  0  0  0  0  0  0  0  0  0  0  0
    8.2250    7.1950   24.8590 C   0  0  0  0  0  0  0  0  0  0  0  0
   11.2270    3.5220   23.9410 C   0  0  0  0  0  0  0  0  0  0  0  0
   12.3420    3.0570   23.2510 C   0  0  0  0  0  0  0  0  0  0  0  0
   12.5890    1.6800   23.1950 N   0  0  0  0  0  0  0  0  0  0  0  0
   11.4800    0.7270   23.3470 C   0  0  0  0  0  0  0  0  0  0  0  0
   11.4800   -0.2420   22.1760 C   0  0  0  0  0  0  0  0  0  0  0  0
   12.6390   -1.2140   22.3230 C   0  0  0  0  0  0  0  0  0  0  0  0
   10.1710   -1.0130   22.1560 C   0  0  0  0  0  0  0  0  0  0  0  0
    9.1080   -0.5370   21.3970 C   0  0  0  0  0  0  0  0  0  0  0  0
    7.9120   -1.2470   21.3810 C   0  0  0  0  0  0  0  0  0  0  0  0
    7.7900   -2.4190   22.1200 C   0  0  0  0  0  0  0  0  0  0  0  0
    6.2930   -3.3050   22.0980 S   0  0  0  0  0  0  0  0  0  0  0  0
    5.2660   -2.6630   23.1890 N   0  0  0  0  0  0  0  0  0  0  0  0
    5.7080   -3.2280   20.7850 O   0  0  0  0  0  0  0  0  0  0  0  0
    6.5460   -4.6830   22.4310 O   0  0  0  0  0  0  0  0  0  0  0  0
    8.8540   -2.8960   22.8800 C   0  0  0  0  0  0  0  0  0  0  0  0
   10.0490   -2.1860   22.8950 C   0  0  0  0  0  0  0  0  0  0  0  0
   13.2140    3.9360   22.6180 C   0  0  0  0  0  0  0  0  0  0  0  0
  1  2  1  0
  2  3  2  0
  2 32  1  0
  3  4  1  0
  4  5  1  0
  4 16  2  0
  5  6  1  0
  6  7  1  0
  6 15  1  0
  7  8  1  0
  8  9  1  0
  9 10  1  0
  9 14  1  0
 10 11  2  0
 10 12  1  0
 12 13  1  0
 14 15  1  0
 16 17  1  0
 17 18  1  0
 17 32  2  0
 18 19  1  0
 19 20  1  0
 20 21  1  0
 20 22  1  0
 22 23  2  0
 22 31  1  0
 23 24  1  0
 24 25  2  0
 25 26  1  0
 25 30  1  0
 26 27  1  0
 26 28  2  0
 26 29  2  0
 30 31  2  0
M  CHG  1   6   1
M  END
