MAK-UNK-af83ef51-26
     RDKit          3D

 31 33  0  0  1  0  0  0  0  0999 V2000
   12.9540   -1.4060   22.2950 C   0  0  0  0  0  0  0  0  0  0  0  0
   12.6210   -0.2120   22.9880 O   0  0  0  0  0  0  0  0  0  0  0  0
   11.7850    0.5930   22.1690 C   0  0  0  0  0  0  0  0  0  0  0  0
   10.4590   -0.0850   21.8840 C   0  0  0  0  0  0  0  0  0  0  0  0
    9.4880    1.0100   21.8200 N   0  0  0  0  0  0  0  0  0  0  0  0
    8.1140    0.8660   21.5890 C   0  0  0  0  0  0  0  0  0  0  0  0
    7.3260    1.4720   22.2620 O   0  0  0  0  0  0  0  0  0  0  0  0
    7.6200   -0.0560   20.4860 C   0  0  0  0  0  0  0  0  0  0  0  0
    6.1440   -0.3510   20.6950 C   0  0  0  0  0  0  0  0  0  0  0  0
    5.8010   -1.6220   20.0410 N   0  0  0  0  0  0  0  0  0  0  0  0
    6.2300   -2.8330   20.5970 C   0  0  0  0  0  0  0  0  0  0  0  0
    7.1230   -2.7860   21.6630 C   0  0  0  0  0  0  0  0  0  0  0  0
    7.5580   -3.9810   22.2270 C   0  0  0  0  0  0  0  0  0  0  0  0
    7.1020   -5.1960   21.7280 C   0  0  0  0  0  0  0  0  0  0  0  0
    7.5840   -6.4960   22.3510 C   0  0  0  0  0  0  0  0  0  0  0  0
    7.9460   -7.4700   22.8190 N   0  0  0  0  0  0  0  0  0  0  0  0
    6.2100   -5.1740   20.6600 C   0  0  0  0  0  0  0  0  0  0  0  0
    5.8000   -4.0140   20.1280 N   0  0  0  0  0  0  0  0  0  0  0  0
   10.1820    2.2760   22.0440 C   0  0  0  0  0  0  0  0  0  0  0  0
   11.3770    1.8660   22.8790 C   0  0  0  0  0  0  0  0  0  0  0  0
   12.4920    2.8980   22.8520 C   0  0  0  0  0  0  0  0  0  0  0  0
   11.9750    4.1910   23.3220 N   0  0  0  0  0  0  0  0  0  0  0  0
   11.4460    3.9740   24.6790 C   0  0  0  0  0  0  0  0  0  0  0  0
   10.9210    5.2620   25.2960 C   0  0  0  0  0  0  0  0  0  0  0  0
   11.8570    6.3790   25.0930 N   0  0  0  0  0  0  0  0  0  0  0  0
   11.9370    7.3700   26.0780 C   0  0  0  0  0  0  0  0  0  0  0  0
   12.6910    8.2930   25.9410 O   0  0  0  0  0  0  0  0  0  0  0  0
   11.0690    7.2770   27.3220 C   0  0  0  0  0  0  0  0  0  0  0  0
   12.0980    6.9720   28.7420 Cl  0  0  0  0  0  0  0  0  0  0  0  0
   12.7180    6.4860   23.9040 C   0  0  0  0  0  0  0  0  0  0  0  0
   13.1190    5.1180   23.3740 C   0  0  0  0  0  0  0  0  0  0  0  0
  1  2  1  0
  2  3  1  0
  3  4  1  0
  3 20  1  0
  4  5  1  0
  5  6  1  0
  5 19  1  0
  6  7  2  0
  6  8  1  0
  8  9  1  0
  9 10  1  0
 10 11  1  0
 11 12  2  0
 11 18  1  0
 12 13  1  0
 13 14  2  0
 14 15  1  0
 14 17  1  0
 15 16  3  0
 17 18  2  0
 19 20  1  0
 20 21  1  0
 21 22  1  0
 22 23  1  0
 22 31  1  0
 23 24  1  0
 24 25  1  0
 25 26  1  0
 25 30  1  0
 26 27  2  0
 26 28  1  0
 28 29  1  0
 30 31  1  0
M  CHG  1  22   1
M  END
