MAK-UNK-702fb7d3-6
     RDKit          3D

 43 48  0  0  1  0  0  0  0  0999 V2000
    8.9770    7.7770   28.0170 O   0  0  0  0  0  0  0  0  0  0  0  0
    8.8990    6.6480   27.6200 C   0  0  0  0  0  0  0  0  0  0  0  0
    8.9140    5.4920   28.6070 C   0  0  0  0  0  0  0  0  0  0  0  0
    7.4240    4.5360   28.4250 Cl  0  0  0  0  0  0  0  0  0  0  0  0
    8.7940    6.3940   26.2470 N   0  0  0  0  0  0  0  0  0  0  0  0
    8.7820    7.5340   25.3160 C   0  0  0  0  0  0  0  0  0  0  0  0
    8.1150    7.0930   24.0220 C   0  0  0  0  0  0  0  0  0  0  0  0
    7.3430    8.0040   23.3090 C   0  0  0  0  0  0  0  0  0  0  0  0
    6.7410    7.5940   22.1240 C   0  0  0  0  0  0  0  0  0  0  0  0
    6.8950    6.2990   21.6410 C   0  0  0  0  0  0  0  0  0  0  0  0
    7.6640    5.3960   22.3660 C   0  0  0  0  0  0  0  0  0  0  0  0
    8.2680    5.7930   23.5540 C   0  0  0  0  0  0  0  0  0  0  0  0
    9.0900    4.7820   24.3360 C   0  0  0  0  0  0  0  0  0  0  0  0
    8.7300    3.3890   24.0240 N   0  0  0  0  0  0  0  0  0  0  0  0
    9.5260    2.4780   24.8610 C   0  0  0  0  0  0  0  0  0  0  0  0
    9.2650    1.0370   24.4330 C   0  0  0  0  0  0  0  0  0  0  0  0
    9.3230   -0.0850   25.2940 C   0  0  0  0  0  0  0  0  0  0  0  0
    9.0360   -1.1750   24.5260 C   0  0  0  0  0  0  0  0  0  0  0  0
    8.9930   -2.5430   25.0060 C   0  0  0  0  0  0  0  0  0  0  0  0
    9.3890   -3.5840   24.1730 C   0  0  0  0  0  0  0  0  0  0  0  0
    9.3480   -4.8960   24.6330 C   0  0  0  0  0  0  0  0  0  0  0  0
    8.9100   -5.1670   25.9260 C   0  0  0  0  0  0  0  0  0  0  0  0
    8.5130   -4.1260   26.7580 C   0  0  0  0  0  0  0  0  0  0  0  0
    8.5540   -2.8140   26.2980 C   0  0  0  0  0  0  0  0  0  0  0  0
    8.1750   -1.8180   27.0950 F   0  0  0  0  0  0  0  0  0  0  0  0
    8.7970   -0.7450   23.2500 N   0  0  0  0  0  0  0  0  0  0  0  0
    8.3930   -1.7450   21.9480 S   0  0  0  0  0  0  0  0  0  0  0  0
    8.1240   -0.9370   20.7870 O   0  0  0  0  0  0  0  0  0  0  0  0
    9.4900   -2.6350   21.6680 O   0  0  0  0  0  0  0  0  0  0  0  0
    6.9790   -2.6760   22.3480 C   0  0  0  0  0  0  0  0  0  0  0  0
    6.3550   -2.4890   23.5760 C   0  0  0  0  0  0  0  0  0  0  0  0
    5.2250   -3.2330   23.8950 C   0  0  0  0  0  0  0  0  0  0  0  0
    4.7410   -4.1540   22.9700 C   0  0  0  0  0  0  0  0  0  0  0  0
    5.3560   -4.3200   21.7900 N   0  0  0  0  0  0  0  0  0  0  0  0
    6.4480   -3.6110   21.4650 C   0  0  0  0  0  0  0  0  0  0  0  0
    8.9360    0.6110   23.1710 C   0  0  0  0  0  0  0  0  0  0  0  0
   10.5810    4.9340   24.0800 C   0  0  0  0  0  0  0  0  0  0  0  0
   11.3340    5.7890   24.8780 C   0  0  0  0  0  0  0  0  0  0  0  0
   12.6980    5.9260   24.6390 C   0  0  0  0  0  0  0  0  0  0  0  0
   13.2980    5.2100   23.6090 C   0  0  0  0  0  0  0  0  0  0  0  0
   12.5360    4.3580   22.8180 C   0  0  0  0  0  0  0  0  0  0  0  0
   11.1720    4.2130   23.0470 C   0  0  0  0  0  0  0  0  0  0  0  0
    8.6990    4.9980   25.7880 C   0  0  0  0  0  0  0  0  0  0  0  0
  1  2  2  0
  2  3  1  0
  2  5  1  0
  3  4  1  0
  5  6  1  0
  5 43  1  0
  6  7  1  0
  7  8  1  0
  7 12  2  0
  8  9  2  0
  9 10  1  0
 10 11  2  0
 11 12  1  0
 12 13  1  0
 13 14  1  0
 13 37  1  0
 13 43  1  0
 14 15  1  0
 15 16  1  0
 16 17  1  0
 16 36  2  0
 17 18  2  0
 18 19  1  0
 18 26  1  0
 19 20  2  0
 19 24  1  0
 20 21  1  0
 21 22  2  0
 22 23  1  0
 23 24  2  0
 24 25  1  0
 26 27  1  0
 26 36  1  0
 27 28  2  0
 27 29  2  0
 27 30  1  0
 30 31  2  0
 30 35  1  0
 31 32  1  0
 32 33  2  0
 33 34  1  0
 34 35  2  0
 37 38  2  0
 37 42  1  0
 38 39  1  0
 39 40  2  0
 40 41  1  0
 41 42  2  0
M  CHG  1  14   1
M  END
