MAK-UNK-8fdbca50-40
     RDKit          3D

 40 43  0  0  1  0  0  0  0  0999 V2000
   11.8850    0.6680   25.2690 C   0  0  0  0  0  0  0  0  0  0  0  0
   10.9430    0.1360   24.2020 C   0  0  0  0  0  0  0  0  0  0  0  0
    9.6190    0.8780   24.2790 C   0  0  0  0  0  0  0  0  0  0  0  0
   11.5620    0.3460   22.8300 C   0  0  0  0  0  0  0  0  0  0  0  0
   13.0320   -0.0400   22.8720 C   0  0  0  0  0  0  0  0  0  0  0  0
   10.8640   -0.4920   21.8440 N   0  0  0  0  0  0  0  0  0  0  0  0
   10.8650   -1.8890   22.3000 C   0  0  0  0  0  0  0  0  0  0  0  0
    9.4710   -2.4830   22.1210 C   0  0  0  0  0  0  0  0  0  0  0  0
    8.9080   -3.4880   22.9440 C   0  0  0  0  0  0  0  0  0  0  0  0
    7.6630   -3.7400   22.4480 C   0  0  0  0  0  0  0  0  0  0  0  0
    6.7330   -4.7140   22.9880 C   0  0  0  0  0  0  0  0  0  0  0  0
    5.8960   -5.4220   22.1340 C   0  0  0  0  0  0  0  0  0  0  0  0
    5.0040   -6.3570   22.6510 C   0  0  0  0  0  0  0  0  0  0  0  0
    4.9500   -6.5810   24.0230 C   0  0  0  0  0  0  0  0  0  0  0  0
    5.7870   -5.8720   24.8770 C   0  0  0  0  0  0  0  0  0  0  0  0
    6.6790   -4.9380   24.3600 C   0  0  0  0  0  0  0  0  0  0  0  0
    7.4800   -4.2590   25.1770 F   0  0  0  0  0  0  0  0  0  0  0  0
    7.4590   -2.9180   21.3740 N   0  0  0  0  0  0  0  0  0  0  0  0
    6.0500   -2.8720   20.4400 S   0  0  0  0  0  0  0  0  0  0  0  0
    6.0640   -3.9580   19.4950 O   0  0  0  0  0  0  0  0  0  0  0  0
    4.9010   -2.9980   21.2990 O   0  0  0  0  0  0  0  0  0  0  0  0
    5.9700   -1.3590   19.5840 C   0  0  0  0  0  0  0  0  0  0  0  0
    5.9570   -0.1650   20.2960 C   0  0  0  0  0  0  0  0  0  0  0  0
    5.8940    1.0440   19.6110 C   0  0  0  0  0  0  0  0  0  0  0  0
    5.8450    1.0280   18.2210 C   0  0  0  0  0  0  0  0  0  0  0  0
    5.8580   -0.1340   17.5520 N   0  0  0  0  0  0  0  0  0  0  0  0
    5.9190   -1.3100   18.1950 C   0  0  0  0  0  0  0  0  0  0  0  0
    8.5600   -2.1400   21.1540 C   0  0  0  0  0  0  0  0  0  0  0  0
   11.4330    1.8080   22.4340 C   0  0  0  0  0  0  0  0  0  0  0  0
   10.7880    2.1140   21.4700 O   0  0  0  0  0  0  0  0  0  0  0  0
   12.1220    2.8820   23.2600 C   0  0  0  0  0  0  0  0  0  0  0  0
   12.6100    3.9620   22.3040 C   0  0  0  0  0  0  0  0  0  0  0  0
   13.2480    5.1350   23.0360 C   0  0  0  0  0  0  0  0  0  0  0  0
   12.4400    5.5710   24.1860 N   0  0  0  0  0  0  0  0  0  0  0  0
   12.4530    6.9260   24.5280 C   0  0  0  0  0  0  0  0  0  0  0  0
   13.1100    7.7000   23.8880 O   0  0  0  0  0  0  0  0  0  0  0  0
   11.6340    7.4200   25.7090 C   0  0  0  0  0  0  0  0  0  0  0  0
   12.5950    7.2750   27.2000 Cl  0  0  0  0  0  0  0  0  0  0  0  0
   11.6180    4.6540   24.9930 C   0  0  0  0  0  0  0  0  0  0  0  0
   11.0650    3.5030   24.1630 C   0  0  0  0  0  0  0  0  0  0  0  0
  1  2  1  0
  2  3  1  0
  2  4  1  0
  4  5  1  0
  4  6  1  0
  4 29  1  0
  6  7  1  0
  7  8  1  0
  8  9  1  0
  8 28  2  0
  9 10  2  0
 10 11  1  0
 10 18  1  0
 11 12  2  0
 11 16  1  0
 12 13  1  0
 13 14  2  0
 14 15  1  0
 15 16  2  0
 16 17  1  0
 18 19  1  0
 18 28  1  0
 19 20  2  0
 19 21  2  0
 19 22  1  0
 22 23  2  0
 22 27  1  0
 23 24  1  0
 24 25  2  0
 25 26  1  0
 26 27  2  0
 29 30  2  0
 29 31  1  0
 31 32  1  0
 31 40  1  0
 32 33  1  0
 33 34  1  0
 34 35  1  0
 34 39  1  0
 35 36  2  0
 35 37  1  0
 37 38  1  0
 39 40  1  0
M  CHG  1   6   1
M  END
