MAK-UNK-af83ef51-16
     RDKit          3D

 37 39  0  0  1  0  0  0  0  0999 V2000
    6.1460   -1.5060   24.8940 C   0  0  0  0  0  0  0  0  0  0  0  0
    5.0470   -2.0940   24.1150 N   0  0  0  0  0  0  0  0  0  0  0  0
    5.5710   -3.1760   23.2670 C   0  0  0  0  0  0  0  0  0  0  0  0
    6.4860   -4.1180   24.0360 C   0  0  0  0  0  0  0  0  0  0  0  0
    5.7750   -4.6320   25.1520 O   0  0  0  0  0  0  0  0  0  0  0  0
    6.9760   -5.1760   23.2190 O   0  0  0  0  0  0  0  0  0  0  0  0
    7.6560   -4.7080   22.0630 C   0  0  0  0  0  0  0  0  0  0  0  0
    6.7910   -3.7830   21.2180 C   0  0  0  0  0  0  0  0  0  0  0  0
    5.7100   -4.5420   20.6930 O   0  0  0  0  0  0  0  0  0  0  0  0
    6.2910   -2.6130   22.0510 C   0  0  0  0  0  0  0  0  0  0  0  0
    7.3700   -1.7770   22.4460 O   0  0  0  0  0  0  0  0  0  0  0  0
    8.0130   -1.2560   21.2920 C   0  0  0  0  0  0  0  0  0  0  0  0
    7.0040   -0.4880   20.4530 C   0  0  0  0  0  0  0  0  0  0  0  0
    5.9770   -0.1110   20.9460 O   0  0  0  0  0  0  0  0  0  0  0  0
    7.2680   -0.2270   19.1340 N   0  0  0  0  0  0  0  0  0  0  0  0
    6.1540    0.5280   18.2150 S   0  0  0  0  0  0  0  0  0  0  0  0
    5.2010   -0.5810   17.4950 N   0  0  0  0  0  0  0  0  0  0  0  0
    5.3480    1.3870   19.0450 O   0  0  0  0  0  0  0  0  0  0  0  0
    6.8160    1.3180   17.2090 O   0  0  0  0  0  0  0  0  0  0  0  0
    9.1360   -0.3230   21.7140 C   0  0  0  0  0  0  0  0  0  0  0  0
    9.0100    1.0480   21.5220 C   0  0  0  0  0  0  0  0  0  0  0  0
   10.0310    1.9120   21.9040 C   0  0  0  0  0  0  0  0  0  0  0  0
   11.1810    1.3830   22.4810 C   0  0  0  0  0  0  0  0  0  0  0  0
   12.3050    2.3140   22.9030 C   0  0  0  0  0  0  0  0  0  0  0  0
   11.7440    3.6150   23.2940 N   0  0  0  0  0  0  0  0  0  0  0  0
   10.9170    3.3840   24.4910 C   0  0  0  0  0  0  0  0  0  0  0  0
   10.3150    4.6760   25.0220 C   0  0  0  0  0  0  0  0  0  0  0  0
   11.3120    5.7560   25.0730 N   0  0  0  0  0  0  0  0  0  0  0  0
   11.2060    6.7150   26.0870 C   0  0  0  0  0  0  0  0  0  0  0  0
   10.3170    6.6440   26.8890 O   0  0  0  0  0  0  0  0  0  0  0  0
   12.2180    7.8460   26.1720 C   0  0  0  0  0  0  0  0  0  0  0  0
   13.0780    7.7580   27.7280 Cl  0  0  0  0  0  0  0  0  0  0  0  0
   12.4200    5.8590   24.1090 C   0  0  0  0  0  0  0  0  0  0  0  0
   12.8790    4.4890   23.6320 C   0  0  0  0  0  0  0  0  0  0  0  0
   11.3190    0.0120   22.6790 C   0  0  0  0  0  0  0  0  0  0  0  0
   10.2910   -0.8420   22.2930 C   0  0  0  0  0  0  0  0  0  0  0  0
   10.4640   -2.3350   22.5180 C   0  0  0  0  0  0  0  0  0  0  0  0
  1  2  1  0
  2  3  1  0
  3  4  1  0
  3 10  1  0
  4  5  1  0
  4  6  1  0
  6  7  1  0
  7  8  1  0
  8  9  1  0
  8 10  1  0
 10 11  1  0
 11 12  1  0
 12 13  1  0
 12 20  1  0
 13 14  2  0
 13 15  1  0
 15 16  1  0
 16 17  1  0
 16 18  2  0
 16 19  2  0
 20 21  2  0
 20 36  1  0
 21 22  1  0
 22 23  2  0
 23 24  1  0
 23 35  1  0
 24 25  1  0
 25 26  1  0
 25 34  1  0
 26 27  1  0
 27 28  1  0
 28 29  1  0
 28 33  1  0
 29 30  2  0
 29 31  1  0
 31 32  1  0
 33 34  1  0
 35 36  2  0
 36 37  1  0
M  CHG  2   2   1  25   1
M  END
