MAK-UNK-af83ef51-29
     RDKit          3D

 30 33  0  0  1  0  0  0  0  0999 V2000
    5.1910   -6.5520   24.0580 C   0  0  0  0  0  0  0  0  0  0  0  0
    5.7860   -7.0580   22.7540 C   0  0  0  0  0  0  0  0  0  0  0  0
    5.5020   -6.0970   21.6800 N   0  0  0  0  0  0  0  0  0  0  0  0
    6.2020   -4.8860   21.6200 C   0  0  0  0  0  0  0  0  0  0  0  0
    7.3810   -4.7700   22.3500 C   0  0  0  0  0  0  0  0  0  0  0  0
    8.0890   -3.5730   22.3000 C   0  0  0  0  0  0  0  0  0  0  0  0
    7.6140   -2.5160   21.5300 C   0  0  0  0  0  0  0  0  0  0  0  0
    8.3520   -1.2670   21.4780 C   0  0  0  0  0  0  0  0  0  0  0  0
    7.8840   -0.0980   20.9540 N   0  0  0  0  0  0  0  0  0  0  0  0
    8.8280    0.8060   21.0840 C   0  0  0  0  0  0  0  0  0  0  0  0
    9.9060    0.2250   21.6910 N   0  0  0  0  0  0  0  0  0  0  0  0
   11.1380    0.7110   22.0550 C   0  0  0  0  0  0  0  0  0  0  0  0
   11.5110    2.1610   21.7950 C   0  0  0  0  0  0  0  0  0  0  0  0
   11.6950    2.8580   23.0770 N   0  0  0  0  0  0  0  0  0  0  0  0
   12.3920    4.1210   22.7840 C   0  0  0  0  0  0  0  0  0  0  0  0
   12.6000    4.9580   24.0370 C   0  0  0  0  0  0  0  0  0  0  0  0
   11.3770    5.0210   24.8530 N   0  0  0  0  0  0  0  0  0  0  0  0
   11.1230    6.1860   25.5860 C   0  0  0  0  0  0  0  0  0  0  0  0
   10.1340    6.2670   26.2610 O   0  0  0  0  0  0  0  0  0  0  0  0
   12.1000    7.3490   25.5280 C   0  0  0  0  0  0  0  0  0  0  0  0
   12.7000    7.7030   27.1660 Cl  0  0  0  0  0  0  0  0  0  0  0  0
   10.4080    3.9140   24.9170 C   0  0  0  0  0  0  0  0  0  0  0  0
   10.3510    3.1410   23.6080 C   0  0  0  0  0  0  0  0  0  0  0  0
   12.0660   -0.0970   22.6640 C   0  0  0  0  0  0  0  0  0  0  0  0
   13.4360    0.4150   23.0770 C   0  0  0  0  0  0  0  0  0  0  0  0
   11.7280   -1.4540   22.9120 C   0  0  0  0  0  0  0  0  0  0  0  0
   10.5360   -1.8960   22.5510 N   0  0  0  0  0  0  0  0  0  0  0  0
    9.6200   -1.0750   21.9440 C   0  0  0  0  0  0  0  0  0  0  0  0
    6.4290   -2.6960   20.8240 C   0  0  0  0  0  0  0  0  0  0  0  0
    5.7590   -3.8570   20.8820 N   0  0  0  0  0  0  0  0  0  0  0  0
  1  2  1  0
  2  3  1  0
  3  4  1  0
  4  5  2  0
  4 30  1  0
  5  6  1  0
  6  7  2  0
  7  8  1  0
  7 29  1  0
  8  9  1  0
  8 28  1  0
  9 10  2  0
 10 11  1  0
 11 12  1  0
 11 28  2  0
 12 13  1  0
 12 24  2  0
 13 14  1  0
 14 15  1  0
 14 23  1  0
 15 16  1  0
 16 17  1  0
 17 18  1  0
 17 22  1  0
 18 19  2  0
 18 20  1  0
 20 21  1  0
 22 23  1  0
 24 25  1  0
 24 26  1  0
 26 27  2  0
 27 28  1  0
 29 30  2  0
M  CHG  2  11   1  14   1
M  END
