MAK-UNK-af83ef51-33
     RDKit          3D

 37 40  0  0  1  0  0  0  0  0999 V2000
    5.3740    8.3100   20.7250 C   0  0  0  0  0  0  0  0  0  0  0  0
    6.4060    7.8440   21.7400 C   0  0  0  0  0  0  0  0  0  0  0  0
    6.4860    8.4790   22.9740 C   0  0  0  0  0  0  0  0  0  0  0  0
    7.4280    8.0560   23.9060 C   0  0  0  0  0  0  0  0  0  0  0  0
    8.2780    7.0010   23.5900 C   0  0  0  0  0  0  0  0  0  0  0  0
    9.1940    6.5870   24.4910 O   0  0  0  0  0  0  0  0  0  0  0  0
    9.2380    7.1780   25.7820 C   0  0  0  0  0  0  0  0  0  0  0  0
   10.3000    6.4850   26.6200 C   0  0  0  0  0  0  0  0  0  0  0  0
   11.6770    6.9720   26.1990 C   0  0  0  0  0  0  0  0  0  0  0  0
   11.9340    6.5750   24.7540 C   0  0  0  0  0  0  0  0  0  0  0  0
   12.0980    5.0680   24.6650 C   0  0  0  0  0  0  0  0  0  0  0  0
   10.7950    4.4040   24.5160 N   0  0  0  0  0  0  0  0  0  0  0  0
   10.9080    2.9360   24.5870 C   0  0  0  0  0  0  0  0  0  0  0  0
   12.2570    2.4420   24.0850 C   0  0  0  0  0  0  0  0  0  0  0  0
   12.1420    0.9780   23.6920 C   0  0  0  0  0  0  0  0  0  0  0  0
   13.0360    0.4440   22.7700 C   0  0  0  0  0  0  0  0  0  0  0  0
   12.9180   -0.8960   22.4180 C   0  0  0  0  0  0  0  0  0  0  0  0
   13.8900   -1.4900   21.4120 C   0  0  0  0  0  0  0  0  0  0  0  0
   11.9290   -1.7020   22.9730 C   0  0  0  0  0  0  0  0  0  0  0  0
   11.0480   -1.1430   23.8930 C   0  0  0  0  0  0  0  0  0  0  0  0
    9.9620   -2.0110   24.5060 C   0  0  0  0  0  0  0  0  0  0  0  0
    9.4700   -2.9630   23.5000 N   0  0  0  0  0  0  0  0  0  0  0  0
    8.5190   -3.8570   24.1820 C   0  0  0  0  0  0  0  0  0  0  0  0
    7.9020   -4.8650   23.2240 C   0  0  0  0  0  0  0  0  0  0  0  0
    7.4680   -4.2260   21.9720 N   0  0  0  0  0  0  0  0  0  0  0  0
    6.3440   -4.7400   21.3140 C   0  0  0  0  0  0  0  0  0  0  0  0
    5.9670   -4.2400   20.2910 O   0  0  0  0  0  0  0  0  0  0  0  0
    5.6020   -5.9320   21.8970 C   0  0  0  0  0  0  0  0  0  0  0  0
    4.3990   -5.3620   23.0780 Cl  0  0  0  0  0  0  0  0  0  0  0  0
    8.1610   -3.0640   21.3940 C   0  0  0  0  0  0  0  0  0  0  0  0
    8.7680   -2.1770   22.4720 C   0  0  0  0  0  0  0  0  0  0  0  0
   11.1430    0.1950   24.2610 C   0  0  0  0  0  0  0  0  0  0  0  0
   12.6630    3.2950   22.8970 C   0  0  0  0  0  0  0  0  0  0  0  0
   12.9300    4.6800   23.4550 C   0  0  0  0  0  0  0  0  0  0  0  0
   13.7600    5.4230   22.9570 O   0  0  0  0  0  0  0  0  0  0  0  0
    8.2020    6.3620   22.3560 C   0  0  0  0  0  0  0  0  0  0  0  0
    7.2580    6.7900   21.4290 C   0  0  0  0  0  0  0  0  0  0  0  0
  1  2  1  0
  2  3  2  0
  2 37  1  0
  3  4  1  0
  4  5  2  0
  5  6  1  0
  5 36  1  0
  6  7  1  0
  7  8  1  0
  8  9  1  0
  9 10  1  0
 10 11  1  0
 11 12  1  0
 11 34  1  0
 12 13  1  0
 13 14  1  0
 14 15  1  0
 14 33  1  0
 15 16  2  0
 15 32  1  0
 16 17  1  0
 17 18  1  0
 17 19  2  0
 19 20  1  0
 20 21  1  0
 20 32  2  0
 21 22  1  0
 22 23  1  0
 22 31  1  0
 23 24  1  0
 24 25  1  0
 25 26  1  0
 25 30  1  0
 26 27  2  0
 26 28  1  0
 28 29  1  0
 30 31  1  0
 33 34  1  0
 34 35  2  0
 36 37  2  0
M  CHG  2  12   1  22   1
M  END
