MAK-UNK-8fdbca50-26
     RDKit          3D

 40 43  0  0  0  0  0  0  0  0999 V2000
    3.7790    2.1930   19.8920 C   0  0  0  0  0  0  0  0  0  0  0  0
    4.3000    0.9100   20.3840 N   0  0  0  0  0  0  0  0  0  0  0  0
    5.7660    0.9000   20.2680 C   0  0  0  0  0  0  0  0  0  0  0  0
    6.3080   -0.4280   20.7880 C   0  0  0  0  0  0  0  0  0  0  0  0
    7.3020   -0.5610   21.7870 C   0  0  0  0  0  0  0  0  0  0  0  0
    7.5040   -1.8990   21.9550 C   0  0  0  0  0  0  0  0  0  0  0  0
    8.4490   -2.4880   22.8810 C   0  0  0  0  0  0  0  0  0  0  0  0
    8.0190   -3.5300   23.6950 C   0  0  0  0  0  0  0  0  0  0  0  0
    8.9020   -4.1180   24.5960 C   0  0  0  0  0  0  0  0  0  0  0  0
   10.2130   -3.6630   24.6830 C   0  0  0  0  0  0  0  0  0  0  0  0
   10.6430   -2.6210   23.8680 C   0  0  0  0  0  0  0  0  0  0  0  0
    9.7610   -2.0340   22.9670 C   0  0  0  0  0  0  0  0  0  0  0  0
   10.2670   -0.8980   22.0930 C   0  0  0  0  0  0  0  0  0  0  0  0
   11.6730   -0.6170   22.4190 N   0  0  0  0  0  0  0  0  0  0  0  0
   12.0010    0.5140   23.1200 C   0  0  0  0  0  0  0  0  0  0  0  0
   13.1480    0.7430   23.3860 O   0  0  0  0  0  0  0  0  0  0  0  0
   10.9110    1.4790   23.5590 C   0  0  0  0  0  0  0  0  0  0  0  0
   11.5720    2.5940   24.3570 C   0  0  0  0  0  0  0  0  0  0  0  0
   10.5790    3.6670   24.7810 C   0  0  0  0  0  0  0  0  0  0  0  0
    9.6930    4.0650   23.6750 N   0  0  0  0  0  0  0  0  0  0  0  0
    9.2440    5.3880   23.6310 C   0  0  0  0  0  0  0  0  0  0  0  0
    9.5810    6.1650   24.4810 O   0  0  0  0  0  0  0  0  0  0  0  0
    8.3270    5.8420   22.5060 C   0  0  0  0  0  0  0  0  0  0  0  0
    7.4060    7.2710   23.0320 Cl  0  0  0  0  0  0  0  0  0  0  0  0
    9.2610    3.1440   22.6110 C   0  0  0  0  0  0  0  0  0  0  0  0
   10.3200    2.0950   22.2990 C   0  0  0  0  0  0  0  0  0  0  0  0
   12.7270   -1.5500   21.9940 C   0  0  0  0  0  0  0  0  0  0  0  0
   13.6350   -0.8630   20.9870 C   0  0  0  0  0  0  0  0  0  0  0  0
   13.5430   -1.9770   23.2030 C   0  0  0  0  0  0  0  0  0  0  0  0
    6.6620   -2.5660   21.1070 N   0  0  0  0  0  0  0  0  0  0  0  0
    6.5550   -4.2480   20.9690 S   0  0  0  0  0  0  0  0  0  0  0  0
    5.8640   -4.5860   19.7520 O   0  0  0  0  0  0  0  0  0  0  0  0
    7.8790   -4.8120   20.9420 O   0  0  0  0  0  0  0  0  0  0  0  0
    5.6800   -4.8860   22.3300 C   0  0  0  0  0  0  0  0  0  0  0  0
    5.9020   -6.1970   22.7380 C   0  0  0  0  0  0  0  0  0  0  0  0
    5.2020   -6.7070   23.8260 C   0  0  0  0  0  0  0  0  0  0  0  0
    4.2900   -5.8880   24.4850 C   0  0  0  0  0  0  0  0  0  0  0  0
    4.0900   -4.6260   24.0760 N   0  0  0  0  0  0  0  0  0  0  0  0
    4.7550   -4.1170   23.0290 C   0  0  0  0  0  0  0  0  0  0  0  0
    5.9210   -1.6790   20.3790 C   0  0  0  0  0  0  0  0  0  0  0  0
  1  2  1  0
  2  3  1  0
  3  4  1  0
  4  5  1  0
  4 40  2  0
  5  6  2  0
  6  7  1  0
  6 30  1  0
  7  8  2  0
  7 12  1  0
  8  9  1  0
  9 10  2  0
 10 11  1  0
 11 12  2  0
 12 13  1  0
 13 14  1  0
 14 15  1  0
 14 27  1  0
 15 16  2  0
 15 17  1  0
 17 18  1  0
 17 26  1  0
 18 19  1  0
 19 20  1  0
 20 21  1  0
 20 25  1  0
 21 22  2  0
 21 23  1  0
 23 24  1  0
 25 26  1  0
 27 28  1  0
 27 29  1  0
 30 31  1  0
 30 40  1  0
 31 32  2  0
 31 33  2  0
 31 34  1  0
 34 35  2  0
 34 39  1  0
 35 36  1  0
 36 37  2  0
 37 38  1  0
 38 39  2  0
M  CHG  1   2   1
M  END
