MAK-UNK-e05327b2-1
     RDKit          3D

 52 58  0  0  0  0  0  0  0  0999 V2000
    6.4600   -6.1450   27.2280 O   0  0  0  0  0  0  0  0  0  0  0  0
    7.2210   -5.3320   26.7800 C   0  0  0  0  0  0  0  0  0  0  0  0
    8.5000   -4.9960   27.5280 C   0  0  0  0  0  0  0  0  0  0  0  0
    9.8750   -5.0330   26.3980 Cl  0  0  0  0  0  0  0  0  0  0  0  0
    6.9290   -4.6940   25.5680 N   0  0  0  0  0  0  0  0  0  0  0  0
    7.8770   -3.7010   25.0370 C   0  0  0  0  0  0  0  0  0  0  0  0
    7.8940   -3.6910   23.5160 C   0  0  0  0  0  0  0  0  0  0  0  0
    6.5390   -3.7370   22.9410 N   0  0  0  0  0  0  0  0  0  0  0  0
    6.7300   -3.8030   21.1920 S   0  0  0  0  0  0  0  0  0  0  0  0
    5.6070   -4.4910   20.6120 O   0  0  0  0  0  0  0  0  0  0  0  0
    7.9440   -4.5070   20.8690 O   0  0  0  0  0  0  0  0  0  0  0  0
    6.8120   -2.1850   20.5560 C   0  0  0  0  0  0  0  0  0  0  0  0
    7.9020   -1.3670   20.4880 C   0  0  0  0  0  0  0  0  0  0  0  0
    7.6110   -0.1070   19.9030 C   0  0  0  0  0  0  0  0  0  0  0  0
    6.3160    0.0790   19.5150 C   0  0  0  0  0  0  0  0  0  0  0  0
    5.7260    1.3210   18.8700 C   0  0  0  0  0  0  0  0  0  0  0  0
    5.2700    2.2510   19.9200 N   0  0  0  0  0  0  0  0  0  0  0  0
    3.9980    1.7920   20.4970 C   0  0  0  0  0  0  0  0  0  0  0  0
    3.5120    2.7670   21.5580 C   0  0  0  0  0  0  0  0  0  0  0  0
    4.5270    2.9290   22.6100 N   0  0  0  0  0  0  0  0  0  0  0  0
    3.9810    4.0350   23.8660 S   0  0  0  0  0  0  0  0  0  0  0  0
    3.8760    5.3640   23.3220 O   0  0  0  0  0  0  0  0  0  0  0  0
    2.6930    3.6120   24.3520 O   0  0  0  0  0  0  0  0  0  0  0  0
    5.1250    4.0340   25.1780 C   0  0  0  0  0  0  0  0  0  0  0  0
    4.8020    3.3080   26.3190 C   0  0  0  0  0  0  0  0  0  0  0  0
    5.6820    3.2740   27.3950 C   0  0  0  0  0  0  0  0  0  0  0  0
    6.8910    3.9620   27.3480 C   0  0  0  0  0  0  0  0  0  0  0  0
    7.2100    4.6870   26.2040 C   0  0  0  0  0  0  0  0  0  0  0  0
    8.4220    5.3690   26.1710 C   0  0  0  0  0  0  0  0  0  0  0  0
    8.7630    6.1010   25.0380 C   0  0  0  0  0  0  0  0  0  0  0  0
   10.0920    6.8390   25.0230 C   0  0  0  0  0  0  0  0  0  0  0  0
   11.1910    5.9140   25.5220 C   0  0  0  0  0  0  0  0  0  0  0  0
   11.4510    4.8340   24.4880 C   0  0  0  0  0  0  0  0  0  0  0  0
   12.6130    4.6180   23.8070 C   0  0  0  0  0  0  0  0  0  0  0  0
   12.5930    3.5270   22.8960 C   0  0  0  0  0  0  0  0  0  0  0  0
   11.3900    2.8870   22.8630 C   0  0  0  0  0  0  0  0  0  0  0  0
   10.9130    1.4840   21.8780 Cl  0  0  0  0  0  0  0  0  0  0  0  0
   10.3370    3.6590   23.9570 S   0  0  0  0  0  0  0  0  0  0  0  0
    7.9050    6.1560   23.9440 C   0  0  0  0  0  0  0  0  0  0  0  0
    8.2480    6.9460   22.6920 C   0  0  0  0  0  0  0  0  0  0  0  0
    7.0120    7.6900   22.2080 C   0  0  0  0  0  0  0  0  0  0  0  0
    6.4010    7.5680   20.9980 C   0  0  0  0  0  0  0  0  0  0  0  0
    5.2580    8.4040   20.8640 C   0  0  0  0  0  0  0  0  0  0  0  0
    4.9510    9.1890   21.9350 C   0  0  0  0  0  0  0  0  0  0  0  0
    6.1410    8.8450   23.1030 S   0  0  0  0  0  0  0  0  0  0  0  0
    6.7000    5.4650   24.0010 C   0  0  0  0  0  0  0  0  0  0  0  0
    6.3340    4.7250   25.1220 C   0  0  0  0  0  0  0  0  0  0  0  0
    5.8010    3.3840   22.0340 C   0  0  0  0  0  0  0  0  0  0  0  0
    6.2840    2.4060   20.9740 C   0  0  0  0  0  0  0  0  0  0  0  0
    5.4820   -1.3580   19.8950 S   0  0  0  0  0  0  0  0  0  0  0  0
    5.8560   -4.9720   23.3580 C   0  0  0  0  0  0  0  0  0  0  0  0
    5.6850   -5.0540   24.8680 C   0  0  0  0  0  0  0  0  0  0  0  0
  1  2  2  0
  2  3  1  0
  2  5  1  0
  3  4  1  0
  5  6  1  0
  5 52  1  0
  6  7  1  0
  7  8  1  0
  8  9  1  0
  8 51  1  0
  9 10  2  0
  9 11  2  0
  9 12  1  0
 12 13  2  0
 12 50  1  0
 13 14  1  0
 14 15  2  0
 15 16  1  0
 15 50  1  0
 16 17  1  0
 17 18  1  0
 17 49  1  0
 18 19  1  0
 19 20  1  0
 20 21  1  0
 20 48  1  0
 21 22  2  0
 21 23  2  0
 21 24  1  0
 24 25  2  0
 24 47  1  0
 25 26  1  0
 26 27  2  0
 27 28  1  0
 28 29  1  0
 28 47  2  0
 29 30  2  0
 30 31  1  0
 30 39  1  0
 31 32  1  0
 32 33  1  0
 33 34  2  0
 33 38  1  0
 34 35  1  0
 35 36  2  0
 36 37  1  0
 36 38  1  0
 39 40  1  0
 39 46  2  0
 40 41  1  0
 41 42  2  0
 41 45  1  0
 42 43  1  0
 43 44  2  0
 44 45  1  0
 46 47  1  0
 48 49  1  0
 51 52  1  0
M  CHG  1  17   1
M  END
