MAK-UNK-8fdbca50-36
     RDKit          3D

 40 43  0  0  1  0  0  0  0  0999 V2000
    6.6080    7.5690   21.4430 C   0  0  0  0  0  0  0  0  0  0  0  0
    7.3430    7.3670   22.7580 C   0  0  0  0  0  0  0  0  0  0  0  0
    6.4690    7.8450   23.9060 C   0  0  0  0  0  0  0  0  0  0  0  0
    7.6470    5.9400   22.9350 N   0  0  0  0  0  0  0  0  0  0  0  0
    6.5900    4.9350   22.7510 C   0  0  0  0  0  0  0  0  0  0  0  0
    8.9150    5.5460   23.2720 C   0  0  0  0  0  0  0  0  0  0  0  0
    9.7780    6.3660   23.4220 O   0  0  0  0  0  0  0  0  0  0  0  0
    9.2300    4.0700   23.4550 C   0  0  0  0  0  0  0  0  0  0  0  0
   10.7010    3.9670   23.8320 C   0  0  0  0  0  0  0  0  0  0  0  0
   11.1630    2.5270   24.0070 C   0  0  0  0  0  0  0  0  0  0  0  0
   10.6460    1.6340   22.9550 N   0  0  0  0  0  0  0  0  0  0  0  0
   11.4320    0.5460   22.5520 C   0  0  0  0  0  0  0  0  0  0  0  0
   11.0350   -0.1970   21.6980 O   0  0  0  0  0  0  0  0  0  0  0  0
   12.7870    0.3070   23.1970 C   0  0  0  0  0  0  0  0  0  0  0  0
   13.6060   -1.0430   22.3760 Cl  0  0  0  0  0  0  0  0  0  0  0  0
    9.3370    1.8380   22.3110 C   0  0  0  0  0  0  0  0  0  0  0  0
    9.2580    1.2130   20.9820 N   0  0  0  0  0  0  0  0  0  0  0  0
    7.9040    0.6820   20.7700 C   0  0  0  0  0  0  0  0  0  0  0  0
    7.8020   -0.7110   21.3810 C   0  0  0  0  0  0  0  0  0  0  0  0
    8.3620   -1.0930   22.6240 C   0  0  0  0  0  0  0  0  0  0  0  0
    8.0530   -2.4100   22.7980 C   0  0  0  0  0  0  0  0  0  0  0  0
    8.4400   -3.2110   23.9430 C   0  0  0  0  0  0  0  0  0  0  0  0
    8.7280   -4.5620   23.7800 C   0  0  0  0  0  0  0  0  0  0  0  0
    9.1000   -5.3310   24.8780 C   0  0  0  0  0  0  0  0  0  0  0  0
    9.1830   -4.7480   26.1390 C   0  0  0  0  0  0  0  0  0  0  0  0
    8.8950   -3.3980   26.3020 C   0  0  0  0  0  0  0  0  0  0  0  0
    8.5230   -2.6290   25.2040 C   0  0  0  0  0  0  0  0  0  0  0  0
    8.2480   -1.3370   25.3600 F   0  0  0  0  0  0  0  0  0  0  0  0
    7.3210   -2.8210   21.7180 N   0  0  0  0  0  0  0  0  0  0  0  0
    6.7090   -4.3820   21.4980 S   0  0  0  0  0  0  0  0  0  0  0  0
    5.8010   -4.3880   20.3800 O   0  0  0  0  0  0  0  0  0  0  0  0
    7.7940   -5.2920   21.2390 O   0  0  0  0  0  0  0  0  0  0  0  0
    5.8640   -4.8810   22.9350 C   0  0  0  0  0  0  0  0  0  0  0  0
    5.6940   -6.2360   23.1980 C   0  0  0  0  0  0  0  0  0  0  0  0
    5.0190   -6.6350   24.3470 C   0  0  0  0  0  0  0  0  0  0  0  0
    4.5260   -5.6610   25.2110 C   0  0  0  0  0  0  0  0  0  0  0  0
    4.7000   -4.3590   24.9390 N   0  0  0  0  0  0  0  0  0  0  0  0
    5.3480   -3.9560   23.8360 C   0  0  0  0  0  0  0  0  0  0  0  0
    7.1590   -1.7930   20.8340 C   0  0  0  0  0  0  0  0  0  0  0  0
    9.0460    3.3220   22.1440 C   0  0  0  0  0  0  0  0  0  0  0  0
  1  2  1  0
  2  3  1  0
  2  4  1  0
  4  5  1  0
  4  6  1  0
  6  7  2  0
  6  8  1  0
  8  9  1  0
  8 40  1  0
  9 10  1  0
 10 11  1  0
 11 12  1  0
 11 16  1  0
 12 13  2  0
 12 14  1  0
 14 15  1  0
 16 17  1  0
 16 40  1  0
 17 18  1  0
 18 19  1  0
 19 20  1  0
 19 39  2  0
 20 21  2  0
 21 22  1  0
 21 29  1  0
 22 23  2  0
 22 27  1  0
 23 24  1  0
 24 25  2  0
 25 26  1  0
 26 27  2  0
 27 28  1  0
 29 30  1  0
 29 39  1  0
 30 31  2  0
 30 32  2  0
 30 33  1  0
 33 34  2  0
 33 38  1  0
 34 35  1  0
 35 36  2  0
 36 37  1  0
 37 38  2  0
M  END
