MAK-UNK-8fdbca50-38
     RDKit          3D

 40 43  0  0  0  0  0  0  0  0999 V2000
   11.7020    0.6660   25.0720 C   0  0  0  0  0  0  0  0  0  0  0  0
   12.4020    1.6890   24.1920 C   0  0  0  0  0  0  0  0  0  0  0  0
   13.2960    0.9720   23.1940 C   0  0  0  0  0  0  0  0  0  0  0  0
   11.3960    2.4810   23.4680 N   0  0  0  0  0  0  0  0  0  0  0  0
   11.0850    2.1670   22.0660 C   0  0  0  0  0  0  0  0  0  0  0  0
   10.7510    3.5100   24.1000 C   0  0  0  0  0  0  0  0  0  0  0  0
   11.3520    4.5080   24.3900 O   0  0  0  0  0  0  0  0  0  0  0  0
    9.2720    3.3900   24.4330 C   0  0  0  0  0  0  0  0  0  0  0  0
    9.0820    2.1240   25.1560 N   0  0  0  0  0  0  0  0  0  0  0  0
    7.6490    1.9120   25.4030 C   0  0  0  0  0  0  0  0  0  0  0  0
    7.3720    0.4180   25.5370 C   0  0  0  0  0  0  0  0  0  0  0  0
    8.3540   -0.5670   25.7970 C   0  0  0  0  0  0  0  0  0  0  0  0
    7.7010   -1.7640   25.8340 C   0  0  0  0  0  0  0  0  0  0  0  0
    8.3310   -3.0490   26.0670 C   0  0  0  0  0  0  0  0  0  0  0  0
    7.9400   -3.8290   27.1500 C   0  0  0  0  0  0  0  0  0  0  0  0
    8.5430   -5.0620   27.3730 C   0  0  0  0  0  0  0  0  0  0  0  0
    9.5390   -5.5150   26.5130 C   0  0  0  0  0  0  0  0  0  0  0  0
    9.9300   -4.7360   25.4300 C   0  0  0  0  0  0  0  0  0  0  0  0
    9.3270   -3.5020   25.2060 C   0  0  0  0  0  0  0  0  0  0  0  0
    9.7010   -2.7570   24.1700 F   0  0  0  0  0  0  0  0  0  0  0  0
    6.3710   -1.5280   25.6200 N   0  0  0  0  0  0  0  0  0  0  0  0
    5.1690   -2.7160   25.5850 S   0  0  0  0  0  0  0  0  0  0  0  0
    5.2330   -3.5000   26.7910 O   0  0  0  0  0  0  0  0  0  0  0  0
    3.8760   -2.0880   25.4890 O   0  0  0  0  0  0  0  0  0  0  0  0
    5.4150   -3.7490   24.2070 C   0  0  0  0  0  0  0  0  0  0  0  0
    5.9550   -5.0180   24.3860 C   0  0  0  0  0  0  0  0  0  0  0  0
    6.1510   -5.8440   23.2840 C   0  0  0  0  0  0  0  0  0  0  0  0
    5.8000   -5.3770   22.0210 C   0  0  0  0  0  0  0  0  0  0  0  0
    5.2800   -4.1500   21.8690 N   0  0  0  0  0  0  0  0  0  0  0  0
    5.0830   -3.3390   22.9200 C   0  0  0  0  0  0  0  0  0  0  0  0
    6.1480   -0.1940   25.4320 C   0  0  0  0  0  0  0  0  0  0  0  0
    8.4090    3.3440   23.1790 C   0  0  0  0  0  0  0  0  0  0  0  0
    8.4130    4.6530   22.3990 C   0  0  0  0  0  0  0  0  0  0  0  0
    8.2870    5.8230   23.2850 N   0  0  0  0  0  0  0  0  0  0  0  0
    7.6060    6.9450   22.7980 C   0  0  0  0  0  0  0  0  0  0  0  0
    7.4830    7.9190   23.4900 O   0  0  0  0  0  0  0  0  0  0  0  0
    7.0220    6.9310   21.3950 C   0  0  0  0  0  0  0  0  0  0  0  0
    6.0700    8.4120   21.1330 Cl  0  0  0  0  0  0  0  0  0  0  0  0
    8.8150    5.8820   24.6580 C   0  0  0  0  0  0  0  0  0  0  0  0
    8.8010    4.5200   25.3400 C   0  0  0  0  0  0  0  0  0  0  0  0
  1  2  1  0
  2  3  1  0
  2  4  1  0
  4  5  1  0
  4  6  1  0
  6  7  2  0
  6  8  1  0
  8  9  1  0
  8 32  1  0
  8 40  1  0
  9 10  1  0
 10 11  1  0
 11 12  1  0
 11 31  2  0
 12 13  2  0
 13 14  1  0
 13 21  1  0
 14 15  2  0
 14 19  1  0
 15 16  1  0
 16 17  2  0
 17 18  1  0
 18 19  2  0
 19 20  1  0
 21 22  1  0
 21 31  1  0
 22 23  2  0
 22 24  2  0
 22 25  1  0
 25 26  2  0
 25 30  1  0
 26 27  1  0
 27 28  2  0
 28 29  1  0
 29 30  2  0
 32 33  1  0
 33 34  1  0
 34 35  1  0
 34 39  1  0
 35 36  2  0
 35 37  1  0
 37 38  1  0
 39 40  1  0
M  CHG  1   9   1
M  END
