MAK-UNK-8fdbca50-13
     RDKit          3D

 40 43  0  0  1  0  0  0  0  0999 V2000
    0.9930    4.2060   18.4960 C   0  0  0  0  0  0  0  0  0  0  0  0
    2.2990    3.5380   18.6000 N   0  0  0  0  0  0  0  0  0  0  0  0
    2.3150    2.6780   19.7920 C   0  0  0  0  0  0  0  0  0  0  0  0
    3.7320    2.1630   20.0280 C   0  0  0  0  0  0  0  0  0  0  0  0
    4.5730    2.5680   21.0920 C   0  0  0  0  0  0  0  0  0  0  0  0
    5.7430    1.8850   20.9400 C   0  0  0  0  0  0  0  0  0  0  0  0
    6.8940    2.0030   21.8110 C   0  0  0  0  0  0  0  0  0  0  0  0
    7.5500    0.8510   22.2340 C   0  0  0  0  0  0  0  0  0  0  0  0
    8.6570    0.9480   23.0710 C   0  0  0  0  0  0  0  0  0  0  0  0
    9.1020    2.2000   23.4810 C   0  0  0  0  0  0  0  0  0  0  0  0
   10.3100    2.3150   24.3950 C   0  0  0  0  0  0  0  0  0  0  0  0
   11.4070    1.3840   23.9040 C   0  0  0  0  0  0  0  0  0  0  0  0
   10.8030    3.7000   24.3850 N   0  0  0  0  0  0  0  0  0  0  0  0
   11.9380    4.0700   23.5280 C   0  0  0  0  0  0  0  0  0  0  0  0
   10.2030    4.6460   25.1750 C   0  0  0  0  0  0  0  0  0  0  0  0
    9.2760    4.3440   25.8740 O   0  0  0  0  0  0  0  0  0  0  0  0
   10.7130    6.0780   25.1640 C   0  0  0  0  0  0  0  0  0  0  0  0
    9.8030    6.9010   26.0670 C   0  0  0  0  0  0  0  0  0  0  0  0
   10.2710    8.3440   26.1960 C   0  0  0  0  0  0  0  0  0  0  0  0
   11.7200    8.4330   26.4400 N   0  0  0  0  0  0  0  0  0  0  0  0
   12.1960    9.4890   27.2220 C   0  0  0  0  0  0  0  0  0  0  0  0
   11.4280   10.2930   27.6750 O   0  0  0  0  0  0  0  0  0  0  0  0
   13.6840    9.6190   27.4990 C   0  0  0  0  0  0  0  0  0  0  0  0
   14.2000    8.3150   28.5960 Cl  0  0  0  0  0  0  0  0  0  0  0  0
   12.6930    7.4650   25.9060 C   0  0  0  0  0  0  0  0  0  0  0  0
   12.1010    6.0680   25.7880 C   0  0  0  0  0  0  0  0  0  0  0  0
    8.4520    3.3570   23.0620 C   0  0  0  0  0  0  0  0  0  0  0  0
    7.3460    3.2510   22.2250 C   0  0  0  0  0  0  0  0  0  0  0  0
    6.7240    4.3560   21.8230 F   0  0  0  0  0  0  0  0  0  0  0  0
    5.6270    1.0820   19.8390 N   0  0  0  0  0  0  0  0  0  0  0  0
    6.8300    0.0430   19.2620 S   0  0  0  0  0  0  0  0  0  0  0  0
    6.6870   -0.1140   17.8380 O   0  0  0  0  0  0  0  0  0  0  0  0
    8.1250    0.6000   19.5560 O   0  0  0  0  0  0  0  0  0  0  0  0
    6.6760   -1.5080   20.0350 C   0  0  0  0  0  0  0  0  0  0  0  0
    7.6080   -1.8960   20.9920 C   0  0  0  0  0  0  0  0  0  0  0  0
    7.4840   -3.1360   21.6100 C   0  0  0  0  0  0  0  0  0  0  0  0
    6.4240   -3.9640   21.2520 C   0  0  0  0  0  0  0  0  0  0  0  0
    5.5360   -3.5720   20.3270 N   0  0  0  0  0  0  0  0  0  0  0  0
    5.6390   -2.3800   19.7210 C   0  0  0  0  0  0  0  0  0  0  0  0
    4.3990    1.2410   19.2620 C   0  0  0  0  0  0  0  0  0  0  0  0
  1  2  1  0
  2  3  1  0
  3  4  1  0
  4  5  1  0
  4 40  2  0
  5  6  2  0
  6  7  1  0
  6 30  1  0
  7  8  2  0
  7 28  1  0
  8  9  1  0
  9 10  2  0
 10 11  1  0
 10 27  1  0
 11 12  1  0
 11 13  1  0
 13 14  1  0
 13 15  1  0
 15 16  2  0
 15 17  1  0
 17 18  1  0
 17 26  1  0
 18 19  1  0
 19 20  1  0
 20 21  1  0
 20 25  1  0
 21 22  2  0
 21 23  1  0
 23 24  1  0
 25 26  1  0
 27 28  2  0
 28 29  1  0
 30 31  1  0
 30 40  1  0
 31 32  2  0
 31 33  2  0
 31 34  1  0
 34 35  2  0
 34 39  1  0
 35 36  1  0
 36 37  2  0
 37 38  1  0
 38 39  2  0
M  CHG  1   2   1
M  END
