MAK-UNK-af83ef51-30
     RDKit          3D

 30 32  0  0  1  0  0  0  0  0999 V2000
   12.8350    4.2220   22.8130 C   0  0  0  0  0  0  0  0  0  0  0  0
   12.3770    2.7760   22.7240 C   0  0  0  0  0  0  0  0  0  0  0  0
   11.3240    2.6570   21.7050 N   0  0  0  0  0  0  0  0  0  0  0  0
   10.4500    1.5640   21.7260 C   0  0  0  0  0  0  0  0  0  0  0  0
   10.7270    0.5190   22.6030 C   0  0  0  0  0  0  0  0  0  0  0  0
    9.8670   -0.5740   22.6360 C   0  0  0  0  0  0  0  0  0  0  0  0
    8.7530   -0.6120   21.8050 C   0  0  0  0  0  0  0  0  0  0  0  0
    7.8200   -1.8120   21.8500 C   0  0  0  0  0  0  0  0  0  0  0  0
    7.9520   -2.5350   23.0700 O   0  0  0  0  0  0  0  0  0  0  0  0
    7.0690   -3.6480   23.1650 C   0  0  0  0  0  0  0  0  0  0  0  0
    7.1820   -4.3140   24.4140 O   0  0  0  0  0  0  0  0  0  0  0  0
    5.6100   -3.2630   22.9820 C   0  0  0  0  0  0  0  0  0  0  0  0
    5.2060   -2.4610   24.1480 N   0  0  0  0  0  0  0  0  0  0  0  0
    4.2030   -3.2010   24.9280 C   0  0  0  0  0  0  0  0  0  0  0  0
    3.9900   -4.5220   24.3230 N   0  0  0  0  0  0  0  0  0  0  0  0
    4.2660   -5.5210   25.3690 C   0  0  0  0  0  0  0  0  0  0  0  0
    4.0420   -6.9380   24.8640 C   0  0  0  0  0  0  0  0  0  0  0  0
    2.7790   -7.0500   24.1160 N   0  0  0  0  0  0  0  0  0  0  0  0
    2.0700   -8.2550   24.1570 C   0  0  0  0  0  0  0  0  0  0  0  0
    2.4930   -9.1790   24.7950 O   0  0  0  0  0  0  0  0  0  0  0  0
    0.7630   -8.3940   23.3930 C   0  0  0  0  0  0  0  0  0  0  0  0
    0.9990   -7.8610   21.7110 Cl  0  0  0  0  0  0  0  0  0  0  0  0
    2.2210   -5.9400   23.3280 C   0  0  0  0  0  0  0  0  0  0  0  0
    2.5680   -4.5950   23.9510 C   0  0  0  0  0  0  0  0  0  0  0  0
    5.4670   -2.5130   21.6640 C   0  0  0  0  0  0  0  0  0  0  0  0
    5.7260   -3.4060   20.5880 O   0  0  0  0  0  0  0  0  0  0  0  0
    6.4060   -1.3170   21.5890 C   0  0  0  0  0  0  0  0  0  0  0  0
    6.0940   -0.3010   22.5300 O   0  0  0  0  0  0  0  0  0  0  0  0
    8.5320    0.4650   20.9520 C   0  0  0  0  0  0  0  0  0  0  0  0
    9.3700    1.5110   20.9320 N   0  0  0  0  0  0  0  0  0  0  0  0
  1  2  1  0
  2  3  1  0
  3  4  1  0
  4  5  2  0
  4 30  1  0
  5  6  1  0
  6  7  2  0
  7  8  1  0
  7 29  1  0
  8  9  1  0
  8 27  1  0
  9 10  1  0
 10 11  1  0
 10 12  1  0
 12 13  1  0
 12 25  1  0
 13 14  1  0
 14 15  1  0
 15 16  1  0
 15 24  1  0
 16 17  1  0
 17 18  1  0
 18 19  1  0
 18 23  1  0
 19 20  2  0
 19 21  1  0
 21 22  1  0
 23 24  1  0
 25 26  1  0
 25 27  1  0
 27 28  1  0
 29 30  2  0
M  END
