MAK-UNK-8fdbca50-37
     RDKit          3D

 40 43  0  0  1  0  0  0  0  0999 V2000
   12.3700    1.8300   22.8930 C   0  0  0  0  0  0  0  0  0  0  0  0
   12.6170    0.5810   23.7240 C   0  0  0  0  0  0  0  0  0  0  0  0
   12.0860    0.7970   25.1320 C   0  0  0  0  0  0  0  0  0  0  0  0
   11.9260   -0.5610   23.1090 N   0  0  0  0  0  0  0  0  0  0  0  0
   12.7010   -1.7000   22.5960 C   0  0  0  0  0  0  0  0  0  0  0  0
   10.5590   -0.5640   23.0130 C   0  0  0  0  0  0  0  0  0  0  0  0
    9.9260    0.3650   23.4320 O   0  0  0  0  0  0  0  0  0  0  0  0
    9.8440   -1.7460   22.3770 C   0  0  0  0  0  0  0  0  0  0  0  0
    9.3010   -2.6080   23.5090 C   0  0  0  0  0  0  0  0  0  0  0  0
    8.4750   -3.7820   23.0020 C   0  0  0  0  0  0  0  0  0  0  0  0
    7.5260   -3.3790   21.9510 N   0  0  0  0  0  0  0  0  0  0  0  0
    6.2990   -4.0470   21.8750 C   0  0  0  0  0  0  0  0  0  0  0  0
    5.5000   -3.7400   21.0330 O   0  0  0  0  0  0  0  0  0  0  0  0
    5.9780   -5.1610   22.8570 C   0  0  0  0  0  0  0  0  0  0  0  0
    6.7180   -6.6790   22.2950 Cl  0  0  0  0  0  0  0  0  0  0  0  0
    7.8060   -2.3040   20.9850 C   0  0  0  0  0  0  0  0  0  0  0  0
    8.6650   -1.1990   21.5840 C   0  0  0  0  0  0  0  0  0  0  0  0
    9.1230   -0.3290   20.4920 N   0  0  0  0  0  0  0  0  0  0  0  0
    7.9670    0.1130   19.7000 C   0  0  0  0  0  0  0  0  0  0  0  0
    7.1570    1.1260   20.5030 C   0  0  0  0  0  0  0  0  0  0  0  0
    5.7480    1.2600   20.4500 C   0  0  0  0  0  0  0  0  0  0  0  0
    5.4250    2.2720   21.3050 C   0  0  0  0  0  0  0  0  0  0  0  0
    4.0800    2.7540   21.5550 C   0  0  0  0  0  0  0  0  0  0  0  0
    3.7550    3.2950   22.7940 C   0  0  0  0  0  0  0  0  0  0  0  0
    2.4650    3.7570   23.0340 C   0  0  0  0  0  0  0  0  0  0  0  0
    1.5000    3.6760   22.0350 C   0  0  0  0  0  0  0  0  0  0  0  0
    1.8250    3.1350   20.7960 C   0  0  0  0  0  0  0  0  0  0  0  0
    3.1150    2.6730   20.5560 C   0  0  0  0  0  0  0  0  0  0  0  0
    3.4260    2.1550   19.3710 F   0  0  0  0  0  0  0  0  0  0  0  0
    6.5810    2.7350   21.8720 N   0  0  0  0  0  0  0  0  0  0  0  0
    6.6730    3.9880   23.0050 S   0  0  0  0  0  0  0  0  0  0  0  0
    5.9680    5.1390   22.5050 O   0  0  0  0  0  0  0  0  0  0  0  0
    6.0770    3.5600   24.2440 O   0  0  0  0  0  0  0  0  0  0  0  0
    8.3410    4.4020   23.2760 C   0  0  0  0  0  0  0  0  0  0  0  0
    8.7280    5.7380   23.2740 C   0  0  0  0  0  0  0  0  0  0  0  0
   10.0610    6.0680   23.4920 C   0  0  0  0  0  0  0  0  0  0  0  0
   10.9820    5.0480   23.7070 C   0  0  0  0  0  0  0  0  0  0  0  0
   10.5890    3.7650   23.7060 N   0  0  0  0  0  0  0  0  0  0  0  0
    9.3080    3.4270   23.4980 C   0  0  0  0  0  0  0  0  0  0  0  0
    7.6570    2.0450   21.3900 C   0  0  0  0  0  0  0  0  0  0  0  0
  1  2  1  0
  2  3  1  0
  2  4  1  0
  4  5  1  0
  4  6  1  0
  6  7  2  0
  6  8  1  0
  8  9  1  0
  8 17  1  0
  9 10  1  0
 10 11  1  0
 11 12  1  0
 11 16  1  0
 12 13  2  0
 12 14  1  0
 14 15  1  0
 16 17  1  0
 17 18  1  0
 18 19  1  0
 19 20  1  0
 20 21  1  0
 20 40  2  0
 21 22  2  0
 22 23  1  0
 22 30  1  0
 23 24  2  0
 23 28  1  0
 24 25  1  0
 25 26  2  0
 26 27  1  0
 27 28  2  0
 28 29  1  0
 30 31  1  0
 30 40  1  0
 31 32  2  0
 31 33  2  0
 31 34  1  0
 34 35  2  0
 34 39  1  0
 35 36  1  0
 36 37  2  0
 37 38  1  0
 38 39  2  0
M  CHG  1  18   1
M  END
