MAK-UNK-af83ef51-19
     RDKit          3D

 30 32  0  0  1  0  0  0  0  0999 V2000
   12.4120    8.1070   26.5180 C   0  0  0  0  0  0  0  0  0  0  0  0
   12.0650    6.6690   26.1700 C   0  0  0  0  0  0  0  0  0  0  0  0
   11.2600    6.6430   24.9400 N   0  0  0  0  0  0  0  0  0  0  0  0
   10.8060    5.2690   24.6800 C   0  0  0  0  0  0  0  0  0  0  0  0
   12.0020    4.3720   24.4050 C   0  0  0  0  0  0  0  0  0  0  0  0
   11.5380    2.9500   24.1330 C   0  0  0  0  0  0  0  0  0  0  0  0
   12.6560    2.1140   23.8730 O   0  0  0  0  0  0  0  0  0  0  0  0
   12.4680    0.8150   23.5580 C   0  0  0  0  0  0  0  0  0  0  0  0
   13.3580    0.1820   22.6950 C   0  0  0  0  0  0  0  0  0  0  0  0
   13.1710   -1.1560   22.3620 C   0  0  0  0  0  0  0  0  0  0  0  0
   12.0970   -1.8620   22.8930 C   0  0  0  0  0  0  0  0  0  0  0  0
   11.2140   -1.2170   23.7540 C   0  0  0  0  0  0  0  0  0  0  0  0
   10.0360   -1.9780   24.3400 C   0  0  0  0  0  0  0  0  0  0  0  0
    9.5220   -2.9280   23.3430 N   0  0  0  0  0  0  0  0  0  0  0  0
    8.6030   -3.8370   24.0480 C   0  0  0  0  0  0  0  0  0  0  0  0
    7.9650   -4.8440   23.1040 C   0  0  0  0  0  0  0  0  0  0  0  0
    7.4840   -4.2000   21.8720 N   0  0  0  0  0  0  0  0  0  0  0  0
    6.3450   -4.7210   21.2470 C   0  0  0  0  0  0  0  0  0  0  0  0
    5.9280   -4.2160   20.2410 O   0  0  0  0  0  0  0  0  0  0  0  0
    5.6350   -5.9260   21.8430 C   0  0  0  0  0  0  0  0  0  0  0  0
    4.4190   -5.3750   23.0220 Cl  0  0  0  0  0  0  0  0  0  0  0  0
    8.1450   -3.0250   21.2810 C   0  0  0  0  0  0  0  0  0  0  0  0
    8.7770   -2.1410   22.3460 C   0  0  0  0  0  0  0  0  0  0  0  0
   11.3900    0.1200   24.0940 C   0  0  0  0  0  0  0  0  0  0  0  0
   10.5910    2.9300   22.9440 C   0  0  0  0  0  0  0  0  0  0  0  0
    9.3940    3.8260   23.2240 C   0  0  0  0  0  0  0  0  0  0  0  0
    9.8560    5.2490   23.4940 C   0  0  0  0  0  0  0  0  0  0  0  0
    8.7380    6.0850   23.7540 O   0  0  0  0  0  0  0  0  0  0  0  0
    7.8940    6.1160   22.6130 C   0  0  0  0  0  0  0  0  0  0  0  0
    7.2160    6.1400   21.6960 N   0  0  0  0  0  0  0  0  0  0  0  0
  1  2  1  0
  2  3  1  0
  3  4  1  0
  4  5  1  0
  4 27  1  0
  5  6  1  0
  6  7  1  0
  6 25  1  0
  7  8  1  0
  8  9  2  0
  8 24  1  0
  9 10  1  0
 10 11  2  0
 11 12  1  0
 12 13  1  0
 12 24  2  0
 13 14  1  0
 14 15  1  0
 14 23  1  0
 15 16  1  0
 16 17  1  0
 17 18  1  0
 17 22  1  0
 18 19  2  0
 18 20  1  0
 20 21  1  0
 22 23  1  0
 25 26  1  0
 26 27  1  0
 27 28  1  0
 28 29  1  0
 29 30  3  0
M  CHG  2   3   1  14   1
M  END
