MAK-UNK-702fb7d3-16
     RDKit          3D

 43 48  0  0  1  0  0  0  0  0999 V2000
    8.4300    5.6720   25.5020 O   0  0  0  0  0  0  0  0  0  0  0  0
    8.8360    4.5670   25.2690 C   0  0  0  0  0  0  0  0  0  0  0  0
    7.8720    3.3920   25.2500 C   0  0  0  0  0  0  0  0  0  0  0  0
    6.9980    3.3160   26.7980 Cl  0  0  0  0  0  0  0  0  0  0  0  0
   10.1960    4.3600   25.0160 N   0  0  0  0  0  0  0  0  0  0  0  0
   11.1990    5.4320   25.0140 C   0  0  0  0  0  0  0  0  0  0  0  0
   12.0130    5.2840   23.7370 C   0  0  0  0  0  0  0  0  0  0  0  0
   12.8800    6.3200   23.4240 C   0  0  0  0  0  0  0  0  0  0  0  0
   13.6740    6.2670   22.2840 C   0  0  0  0  0  0  0  0  0  0  0  0
   13.5980    5.1600   21.4440 C   0  0  0  0  0  0  0  0  0  0  0  0
   12.7280    4.1210   21.7570 C   0  0  0  0  0  0  0  0  0  0  0  0
   11.9340    4.1690   22.8970 C   0  0  0  0  0  0  0  0  0  0  0  0
   10.9980    3.0130   23.2150 C   0  0  0  0  0  0  0  0  0  0  0  0
   11.6500    1.6730   22.9080 C   0  0  0  0  0  0  0  0  0  0  0  0
   12.9920    1.4690   23.2090 C   0  0  0  0  0  0  0  0  0  0  0  0
   13.5900    0.2440   22.9270 C   0  0  0  0  0  0  0  0  0  0  0  0
   12.8440   -0.7750   22.3460 C   0  0  0  0  0  0  0  0  0  0  0  0
   11.5010   -0.5710   22.0460 C   0  0  0  0  0  0  0  0  0  0  0  0
   10.9050    0.6530   22.3270 C   0  0  0  0  0  0  0  0  0  0  0  0
    9.5510    0.8370   22.0170 N   0  0  0  0  0  0  0  0  0  0  0  0
    8.8990   -0.0340   21.0290 C   0  0  0  0  0  0  0  0  0  0  0  0
    8.4220   -1.3110   21.7140 C   0  0  0  0  0  0  0  0  0  0  0  0
    8.9170   -1.8020   22.9460 C   0  0  0  0  0  0  0  0  0  0  0  0
    8.2400   -2.9580   23.2010 C   0  0  0  0  0  0  0  0  0  0  0  0
    8.4390   -3.8000   24.3650 C   0  0  0  0  0  0  0  0  0  0  0  0
    7.3630   -4.4840   24.9200 C   0  0  0  0  0  0  0  0  0  0  0  0
    7.5540   -5.2930   26.0350 C   0  0  0  0  0  0  0  0  0  0  0  0
    8.8210   -5.4160   26.5970 C   0  0  0  0  0  0  0  0  0  0  0  0
    9.8970   -4.7320   26.0420 C   0  0  0  0  0  0  0  0  0  0  0  0
    9.7060   -3.9230   24.9260 C   0  0  0  0  0  0  0  0  0  0  0  0
   10.7350   -3.2690   24.3950 F   0  0  0  0  0  0  0  0  0  0  0  0
    7.3540   -3.1660   22.1800 N   0  0  0  0  0  0  0  0  0  0  0  0
    6.2900   -4.4760   22.0680 S   0  0  0  0  0  0  0  0  0  0  0  0
    5.8050   -4.5860   20.7170 O   0  0  0  0  0  0  0  0  0  0  0  0
    6.9800   -5.6860   22.4310 O   0  0  0  0  0  0  0  0  0  0  0  0
    4.9480   -4.2270   23.1470 C   0  0  0  0  0  0  0  0  0  0  0  0
    3.9220   -5.1640   23.1980 C   0  0  0  0  0  0  0  0  0  0  0  0
    2.8500   -4.9640   24.0610 C   0  0  0  0  0  0  0  0  0  0  0  0
    2.8310   -3.8240   24.8590 C   0  0  0  0  0  0  0  0  0  0  0  0
    3.8300   -2.9320   24.7960 N   0  0  0  0  0  0  0  0  0  0  0  0
    4.8720   -3.1070   23.9700 C   0  0  0  0  0  0  0  0  0  0  0  0
    7.4530   -2.1660   21.2540 C   0  0  0  0  0  0  0  0  0  0  0  0
   10.7760    3.0470   24.7160 C   0  0  0  0  0  0  0  0  0  0  0  0
  1  2  2  0
  2  3  1  0
  2  5  1  0
  3  4  1  0
  5  6  1  0
  5 43  1  0
  6  7  1  0
  7  8  1  0
  7 12  2  0
  8  9  2  0
  9 10  1  0
 10 11  2  0
 11 12  1  0
 12 13  1  0
 13 14  1  0
 13 43  1  0
 14 15  2  0
 14 19  1  0
 15 16  1  0
 16 17  2  0
 17 18  1  0
 18 19  2  0
 19 20  1  0
 20 21  1  0
 21 22  1  0
 22 23  1  0
 22 42  2  0
 23 24  2  0
 24 25  1  0
 24 32  1  0
 25 26  2  0
 25 30  1  0
 26 27  1  0
 27 28  2  0
 28 29  1  0
 29 30  2  0
 30 31  1  0
 32 33  1  0
 32 42  1  0
 33 34  2  0
 33 35  2  0
 33 36  1  0
 36 37  2  0
 36 41  1  0
 37 38  1  0
 38 39  2  0
 39 40  1  0
 40 41  2  0
M  END
