MAK-UNK-e05327b2-2
     RDKit          3D

 52 58  0  0  0  0  0  0  0  0999 V2000
    6.5370   -6.1690   27.2090 O   0  0  0  0  0  0  0  0  0  0  0  0
    7.2700   -5.3310   26.7610 C   0  0  0  0  0  0  0  0  0  0  0  0
    8.5390   -4.9540   27.5080 C   0  0  0  0  0  0  0  0  0  0  0  0
    9.9270   -5.0310   26.3960 Cl  0  0  0  0  0  0  0  0  0  0  0  0
    6.9570   -4.7020   25.5500 N   0  0  0  0  0  0  0  0  0  0  0  0
    7.8710   -3.6770   25.0190 C   0  0  0  0  0  0  0  0  0  0  0  0
    7.8850   -3.6640   23.4980 C   0  0  0  0  0  0  0  0  0  0  0  0
    6.5320   -3.7530   22.9240 N   0  0  0  0  0  0  0  0  0  0  0  0
    6.7230   -3.8110   21.1760 S   0  0  0  0  0  0  0  0  0  0  0  0
    5.5920   -4.4830   20.5910 O   0  0  0  0  0  0  0  0  0  0  0  0
    7.9290   -4.5260   20.8480 O   0  0  0  0  0  0  0  0  0  0  0  0
    6.8220   -2.1900   20.5500 C   0  0  0  0  0  0  0  0  0  0  0  0
    7.9220   -1.3850   20.4830 C   0  0  0  0  0  0  0  0  0  0  0  0
    7.6450   -0.1180   19.9060 C   0  0  0  0  0  0  0  0  0  0  0  0
    6.3500    0.0860   19.5250 C   0  0  0  0  0  0  0  0  0  0  0  0
    5.7740    1.3400   18.8900 C   0  0  0  0  0  0  0  0  0  0  0  0
    5.3170    2.2610   19.9480 N   0  0  0  0  0  0  0  0  0  0  0  0
    4.0300    1.8120   20.5000 C   0  0  0  0  0  0  0  0  0  0  0  0
    3.5440    2.7780   21.5680 C   0  0  0  0  0  0  0  0  0  0  0  0
    4.5450    2.9100   22.6370 N   0  0  0  0  0  0  0  0  0  0  0  0
    3.9980    4.0050   23.9010 S   0  0  0  0  0  0  0  0  0  0  0  0
    3.8980    5.3400   23.3700 O   0  0  0  0  0  0  0  0  0  0  0  0
    2.7070    3.5810   24.3780 O   0  0  0  0  0  0  0  0  0  0  0  0
    5.1370    3.9880   25.2170 C   0  0  0  0  0  0  0  0  0  0  0  0
    4.8140    3.2390   26.3430 C   0  0  0  0  0  0  0  0  0  0  0  0
    5.6900    3.1920   27.4220 C   0  0  0  0  0  0  0  0  0  0  0  0
    6.8940    3.8880   27.3920 C   0  0  0  0  0  0  0  0  0  0  0  0
    7.2130    4.6350   26.2630 C   0  0  0  0  0  0  0  0  0  0  0  0
    8.4200    5.3260   26.2470 C   0  0  0  0  0  0  0  0  0  0  0  0
    8.7620    6.0810   25.1290 C   0  0  0  0  0  0  0  0  0  0  0  0
   10.0860    6.8270   25.1330 C   0  0  0  0  0  0  0  0  0  0  0  0
   11.1940    5.8920   25.5890 C   0  0  0  0  0  0  0  0  0  0  0  0
   11.4490    4.8480   24.5160 C   0  0  0  0  0  0  0  0  0  0  0  0
   12.6220    4.6220   23.8580 C   0  0  0  0  0  0  0  0  0  0  0  0
   12.5920    3.5740   22.9000 C   0  0  0  0  0  0  0  0  0  0  0  0
   11.3720    2.9760   22.8060 C   0  0  0  0  0  0  0  0  0  0  0  0
   10.8780    1.6330   21.7480 Cl  0  0  0  0  0  0  0  0  0  0  0  0
   10.3130    3.7360   23.9040 S   0  0  0  0  0  0  0  0  0  0  0  0
    7.9080    6.1490   24.0330 C   0  0  0  0  0  0  0  0  0  0  0  0
    8.2500    6.9640   22.7970 C   0  0  0  0  0  0  0  0  0  0  0  0
    7.0130    7.7110   22.3230 C   0  0  0  0  0  0  0  0  0  0  0  0
    6.3950    7.5660   21.0520 C   0  0  0  0  0  0  0  0  0  0  0  0
    5.2920    8.3340   20.8290 C   0  0  0  0  0  0  0  0  0  0  0  0
    5.0820    9.2120   22.2760 S   0  0  0  0  0  0  0  0  0  0  0  0
    6.4040    8.6000   23.1570 C   0  0  0  0  0  0  0  0  0  0  0  0
    6.7060    5.4500   24.0730 C   0  0  0  0  0  0  0  0  0  0  0  0
    6.3410    4.6880   25.1790 C   0  0  0  0  0  0  0  0  0  0  0  0
    5.8340    3.3540   22.0850 C   0  0  0  0  0  0  0  0  0  0  0  0
    6.3170    2.3860   21.0180 C   0  0  0  0  0  0  0  0  0  0  0  0
    5.5010   -1.3420   19.8980 S   0  0  0  0  0  0  0  0  0  0  0  0
    5.8900   -5.0110   23.3410 C   0  0  0  0  0  0  0  0  0  0  0  0
    5.7240   -5.1000   24.8510 C   0  0  0  0  0  0  0  0  0  0  0  0
  1  2  2  0
  2  3  1  0
  2  5  1  0
  3  4  1  0
  5  6  1  0
  5 52  1  0
  6  7  1  0
  7  8  1  0
  8  9  1  0
  8 51  1  0
  9 10  2  0
  9 11  2  0
  9 12  1  0
 12 13  2  0
 12 50  1  0
 13 14  1  0
 14 15  2  0
 15 16  1  0
 15 50  1  0
 16 17  1  0
 17 18  1  0
 17 49  1  0
 18 19  1  0
 19 20  1  0
 20 21  1  0
 20 48  1  0
 21 22  2  0
 21 23  2  0
 21 24  1  0
 24 25  2  0
 24 47  1  0
 25 26  1  0
 26 27  2  0
 27 28  1  0
 28 29  1  0
 28 47  2  0
 29 30  2  0
 30 31  1  0
 30 39  1  0
 31 32  1  0
 32 33  1  0
 33 34  2  0
 33 38  1  0
 34 35  1  0
 35 36  2  0
 36 37  1  0
 36 38  1  0
 39 40  1  0
 39 46  2  0
 40 41  1  0
 41 42  1  0
 41 45  2  0
 42 43  2  0
 43 44  1  0
 44 45  1  0
 46 47  1  0
 48 49  1  0
 51 52  1  0
M  CHG  1  17   1
M  END
