MAK-UNK-c44f4be0-5
     RDKit          3D

 32 33  0  0  1  0  0  0  0  0999 V2000
    6.6890   -5.5250   20.8040 C   0  0  0  0  0  0  0  0  0  0  0  0
    6.4000   -4.1260   21.3230 C   0  0  0  0  0  0  0  0  0  0  0  0
    5.5110   -3.4790   20.8410 O   0  0  0  0  0  0  0  0  0  0  0  0
    7.1530   -3.6040   22.3410 N   0  0  0  0  0  0  0  0  0  0  0  0
    6.8730   -2.2510   22.8430 C   0  0  0  0  0  0  0  0  0  0  0  0
    7.0120   -1.2500   21.7070 C   0  0  0  0  0  0  0  0  0  0  0  0
    8.0370   -1.1840   21.0870 O   0  0  0  0  0  0  0  0  0  0  0  0
    5.9660   -0.4240   21.3910 N   0  0  0  0  0  0  0  0  0  0  0  0
    6.0990    0.5440   20.2930 C   0  0  0  0  0  0  0  0  0  0  0  0
    4.7760    1.2620   20.0860 C   0  0  0  0  0  0  0  0  0  0  0  0
    3.7390    1.8250   19.9250 C   0  0  0  0  0  0  0  0  0  0  0  0
    2.0330    2.7510   19.6590 Br  0  0  0  0  0  0  0  0  0  0  0  0
    7.8610   -1.9050   23.9460 C   0  0  0  0  0  0  0  0  0  0  0  0
    7.9690   -3.0730   24.9130 C   0  0  0  0  0  0  0  0  0  0  0  0
    9.0770   -3.9120   24.8520 C   0  0  0  0  0  0  0  0  0  0  0  0
    9.1800   -4.9810   25.7360 C   0  0  0  0  0  0  0  0  0  0  0  0
    8.1730   -5.1970   26.6710 C   0  0  0  0  0  0  0  0  0  0  0  0
    8.2690   -6.2340   27.5300 O   0  0  0  0  0  0  0  0  0  0  0  0
    7.0630   -4.3610   26.7360 C   0  0  0  0  0  0  0  0  0  0  0  0
    6.9640   -3.2940   25.8500 C   0  0  0  0  0  0  0  0  0  0  0  0
    7.2840   -0.4370   24.8340 S   0  0  0  0  0  0  0  0  0  0  0  0
    7.1960    0.6720   23.9200 O   0  0  0  0  0  0  0  0  0  0  0  0
    5.9860   -0.6980   25.4000 O   0  0  0  0  0  0  0  0  0  0  0  0
    8.3350   -0.0760   26.0270 N   0  0  0  0  0  0  0  0  0  0  0  0
    9.7080   -0.3140   25.5590 C   0  0  0  0  0  0  0  0  0  0  0  0
   10.0160    0.6150   24.3970 C   0  0  0  0  0  0  0  0  0  0  0  0
   11.2840    0.1510   23.6980 C   0  0  0  0  0  0  0  0  0  0  0  0
   11.2640   -1.0110   22.9340 C   0  0  0  0  0  0  0  0  0  0  0  0
   12.4260   -1.4320   22.2970 C   0  0  0  0  0  0  0  0  0  0  0  0
   13.5970   -0.6930   22.4270 C   0  0  0  0  0  0  0  0  0  0  0  0
   13.6060    0.4660   23.1920 C   0  0  0  0  0  0  0  0  0  0  0  0
   12.4500    0.8980   23.8340 C   0  0  0  0  0  0  0  0  0  0  0  0
  1  2  1  0
  2  3  2  0
  2  4  1  0
  4  5  1  0
  5  6  1  0
  5 13  1  0
  6  7  2  0
  6  8  1  0
  8  9  1  0
  9 10  1  0
 10 11  3  0
 11 12  1  0
 13 14  1  0
 13 21  1  0
 14 15  2  0
 14 20  1  0
 15 16  1  0
 16 17  2  0
 17 18  1  0
 17 19  1  0
 19 20  2  0
 21 22  2  0
 21 23  2  0
 21 24  1  0
 24 25  1  0
 25 26  1  0
 26 27  1  0
 27 28  2  0
 27 32  1  0
 28 29  1  0
 29 30  2  0
 30 31  1  0
 31 32  2  0
M  END
