MAK-UNK-8fdbca50-39
     RDKit          3D

 40 43  0  0  1  0  0  0  0  0999 V2000
   12.9970    4.5300   22.3260 C   0  0  0  0  0  0  0  0  0  0  0  0
   11.9730    4.2640   23.4180 C   0  0  0  0  0  0  0  0  0  0  0  0
   11.8880    5.4710   24.3370 C   0  0  0  0  0  0  0  0  0  0  0  0
   10.6580    4.0180   22.8070 N   0  0  0  0  0  0  0  0  0  0  0  0
   10.7150    2.7940   21.9960 C   0  0  0  0  0  0  0  0  0  0  0  0
    9.7180    3.8710   23.7920 C   0  0  0  0  0  0  0  0  0  0  0  0
    9.8600    2.9450   24.6940 C   0  0  0  0  0  0  0  0  0  0  0  0
    8.9200    2.7970   25.6790 N   0  0  0  0  0  0  0  0  0  0  0  0
    7.7050    2.1970   25.1100 C   0  0  0  0  0  0  0  0  0  0  0  0
    8.0010    0.7670   24.6720 C   0  0  0  0  0  0  0  0  0  0  0  0
    8.1900   -0.3260   25.5520 C   0  0  0  0  0  0  0  0  0  0  0  0
    8.4360   -1.4150   24.7680 C   0  0  0  0  0  0  0  0  0  0  0  0
    8.6960   -2.7540   25.2600 C   0  0  0  0  0  0  0  0  0  0  0  0
    9.7430   -3.4980   24.7290 C   0  0  0  0  0  0  0  0  0  0  0  0
    9.9930   -4.7820   25.2020 C   0  0  0  0  0  0  0  0  0  0  0  0
    9.1940   -5.3220   26.2050 C   0  0  0  0  0  0  0  0  0  0  0  0
    8.1460   -4.5780   26.7360 C   0  0  0  0  0  0  0  0  0  0  0  0
    7.8960   -3.2940   26.2640 C   0  0  0  0  0  0  0  0  0  0  0  0
    6.8940   -2.5820   26.7720 F   0  0  0  0  0  0  0  0  0  0  0  0
    8.3870   -1.0160   23.4600 N   0  0  0  0  0  0  0  0  0  0  0  0
    8.6250   -2.0290   22.1270 S   0  0  0  0  0  0  0  0  0  0  0  0
    8.4290   -1.2790   20.9140 O   0  0  0  0  0  0  0  0  0  0  0  0
    9.9660   -2.5540   22.1560 O   0  0  0  0  0  0  0  0  0  0  0  0
    7.4860   -3.3440   22.1870 C   0  0  0  0  0  0  0  0  0  0  0  0
    7.9010   -4.5950   22.6300 C   0  0  0  0  0  0  0  0  0  0  0  0
    6.9910   -5.6450   22.6770 C   0  0  0  0  0  0  0  0  0  0  0  0
    5.6780   -5.4160   22.2780 C   0  0  0  0  0  0  0  0  0  0  0  0
    5.2960   -4.2020   21.8540 N   0  0  0  0  0  0  0  0  0  0  0  0
    6.1600   -3.1770   21.8010 C   0  0  0  0  0  0  0  0  0  0  0  0
    8.1240    0.3220   23.3800 C   0  0  0  0  0  0  0  0  0  0  0  0
    8.5070    4.7900   23.8320 C   0  0  0  0  0  0  0  0  0  0  0  0
    9.0150    6.2230   23.9080 C   0  0  0  0  0  0  0  0  0  0  0  0
    7.8820    7.2390   23.8700 C   0  0  0  0  0  0  0  0  0  0  0  0
    6.8990    6.9290   22.8190 N   0  0  0  0  0  0  0  0  0  0  0  0
    6.2430    7.9910   22.1920 C   0  0  0  0  0  0  0  0  0  0  0  0
    6.4860    9.1210   22.5150 O   0  0  0  0  0  0  0  0  0  0  0  0
    5.2200    7.7160   21.1020 C   0  0  0  0  0  0  0  0  0  0  0  0
    5.2000    9.0740   19.9510 Cl  0  0  0  0  0  0  0  0  0  0  0  0
    6.5750    5.5570   22.3920 C   0  0  0  0  0  0  0  0  0  0  0  0
    7.7740    4.6260   22.5080 C   0  0  0  0  0  0  0  0  0  0  0  0
  1  2  1  0
  2  3  1  0
  2  4  1  0
  4  5  1  0
  4  6  1  0
  6  7  2  0
  6 31  1  0
  7  8  1  0
  8  9  1  0
  9 10  1  0
 10 11  1  0
 10 30  2  0
 11 12  2  0
 12 13  1  0
 12 20  1  0
 13 14  2  0
 13 18  1  0
 14 15  1  0
 15 16  2  0
 16 17  1  0
 17 18  2  0
 18 19  1  0
 20 21  1  0
 20 30  1  0
 21 22  2  0
 21 23  2  0
 21 24  1  0
 24 25  2  0
 24 29  1  0
 25 26  1  0
 26 27  2  0
 27 28  1  0
 28 29  2  0
 31 32  1  0
 31 40  1  0
 32 33  1  0
 33 34  1  0
 34 35  1  0
 34 39  1  0
 35 36  2  0
 35 37  1  0
 37 38  1  0
 39 40  1  0
M  CHG  2   4   1   8   1
M  END
