MAK-UNK-8fdbca50-12
     RDKit          3D

 40 43  0  0  1  0  0  0  0  0999 V2000
    4.7020    2.4510   21.6520 C   0  0  0  0  0  0  0  0  0  0  0  0
    5.2270    2.4720   20.2790 N   0  0  0  0  0  0  0  0  0  0  0  0
    4.9190    1.1960   19.6170 C   0  0  0  0  0  0  0  0  0  0  0  0
    5.7650    0.0860   20.2340 C   0  0  0  0  0  0  0  0  0  0  0  0
    6.9630    0.2900   20.9600 C   0  0  0  0  0  0  0  0  0  0  0  0
    7.4060   -0.9450   21.3290 C   0  0  0  0  0  0  0  0  0  0  0  0
    8.6120   -1.2040   22.0860 C   0  0  0  0  0  0  0  0  0  0  0  0
    8.6440   -2.2840   22.9630 C   0  0  0  0  0  0  0  0  0  0  0  0
    9.7990   -2.5390   23.6960 C   0  0  0  0  0  0  0  0  0  0  0  0
   10.9120   -1.7170   23.5500 C   0  0  0  0  0  0  0  0  0  0  0  0
   10.8710   -0.6410   22.6710 C   0  0  0  0  0  0  0  0  0  0  0  0
   12.0920    0.2510   22.5180 C   0  0  0  0  0  0  0  0  0  0  0  0
   13.3520   -0.5950   22.6100 C   0  0  0  0  0  0  0  0  0  0  0  0
   12.1000    1.2590   23.5880 N   0  0  0  0  0  0  0  0  0  0  0  0
   12.4020    0.8610   24.9700 C   0  0  0  0  0  0  0  0  0  0  0  0
   11.8260    2.5690   23.2960 C   0  0  0  0  0  0  0  0  0  0  0  0
   11.5800    2.8940   22.1680 O   0  0  0  0  0  0  0  0  0  0  0  0
   11.8350    3.6120   24.4030 C   0  0  0  0  0  0  0  0  0  0  0  0
   12.6890    4.7800   23.9330 C   0  0  0  0  0  0  0  0  0  0  0  0
   12.7010    5.9260   24.9360 C   0  0  0  0  0  0  0  0  0  0  0  0
   11.3510    6.2370   25.4330 N   0  0  0  0  0  0  0  0  0  0  0  0
   11.0580    7.5620   25.7650 C   0  0  0  0  0  0  0  0  0  0  0  0
   11.8960    8.4120   25.6420 O   0  0  0  0  0  0  0  0  0  0  0  0
    9.6760    7.9280   26.2820 C   0  0  0  0  0  0  0  0  0  0  0  0
    8.4610    7.5790   25.0280 Cl  0  0  0  0  0  0  0  0  0  0  0  0
   10.2940    5.2250   25.5940 C   0  0  0  0  0  0  0  0  0  0  0  0
   10.4060    4.1130   24.5600 C   0  0  0  0  0  0  0  0  0  0  0  0
    9.7200   -0.3770   21.9340 C   0  0  0  0  0  0  0  0  0  0  0  0
    9.6890    0.6560   21.0960 F   0  0  0  0  0  0  0  0  0  0  0  0
    6.5140   -1.8730   20.8640 N   0  0  0  0  0  0  0  0  0  0  0  0
    6.6460   -3.5440   21.0870 S   0  0  0  0  0  0  0  0  0  0  0  0
    5.7920   -4.2220   20.1460 O   0  0  0  0  0  0  0  0  0  0  0  0
    8.0120   -3.9500   20.8750 O   0  0  0  0  0  0  0  0  0  0  0  0
    6.1640   -3.9530   22.7080 C   0  0  0  0  0  0  0  0  0  0  0  0
    6.7700   -5.0230   23.3580 C   0  0  0  0  0  0  0  0  0  0  0  0
    6.3850   -5.3480   24.6540 C   0  0  0  0  0  0  0  0  0  0  0  0
    5.3950   -4.5910   25.2720 C   0  0  0  0  0  0  0  0  0  0  0  0
    4.8220   -3.5630   24.6290 N   0  0  0  0  0  0  0  0  0  0  0  0
    5.1810   -3.2330   23.3790 C   0  0  0  0  0  0  0  0  0  0  0  0
    5.5000   -1.2590   20.1850 C   0  0  0  0  0  0  0  0  0  0  0  0
  1  2  1  0
  2  3  1  0
  3  4  1  0
  4  5  1  0
  4 40  2  0
  5  6  2  0
  6  7  1  0
  6 30  1  0
  7  8  2  0
  7 28  1  0
  8  9  1  0
  9 10  2  0
 10 11  1  0
 11 12  1  0
 11 28  2  0
 12 13  1  0
 12 14  1  0
 14 15  1  0
 14 16  1  0
 16 17  2  0
 16 18  1  0
 18 19  1  0
 18 27  1  0
 19 20  1  0
 20 21  1  0
 21 22  1  0
 21 26  1  0
 22 23  2  0
 22 24  1  0
 24 25  1  0
 26 27  1  0
 28 29  1  0
 30 31  1  0
 30 40  1  0
 31 32  2  0
 31 33  2  0
 31 34  1  0
 34 35  2  0
 34 39  1  0
 35 36  1  0
 36 37  2  0
 37 38  1  0
 38 39  2  0
M  CHG  1   2   1
M  END
