MAK-UNK-cd94b63c-1
     RDKit          3D

 24 25  0  0  0  0  0  0  0  0999 V2000
   12.1480    7.4720   26.5430 C   0  0  0  0  0  0  0  0  0  0  0  0
   12.4720    7.2050   25.1340 N   0  0  0  0  0  0  0  0  0  0  0  0
   12.4250    5.7570   24.8870 C   0  0  0  0  0  0  0  0  0  0  0  0
   12.8110    5.4760   23.4440 C   0  0  0  0  0  0  0  0  0  0  0  0
   13.0010    3.6920   23.2060 S   0  0  0  0  0  0  0  0  0  0  0  0
   11.8160    2.5480   23.9560 C   0  0  0  0  0  0  0  0  0  0  0  0
   10.9660    2.9630   24.6950 O   0  0  0  0  0  0  0  0  0  0  0  0
   11.8930    1.1300   23.6650 C   0  0  0  0  0  0  0  0  0  0  0  0
   12.9230    0.6520   22.8610 C   0  0  0  0  0  0  0  0  0  0  0  0
   12.9870   -0.7100   22.5870 C   0  0  0  0  0  0  0  0  0  0  0  0
   12.0420   -1.5900   23.1040 C   0  0  0  0  0  0  0  0  0  0  0  0
   11.0220   -1.0890   23.9060 C   0  0  0  0  0  0  0  0  0  0  0  0
    9.9810   -2.0370   24.4800 C   0  0  0  0  0  0  0  0  0  0  0  0
    9.5020   -2.9370   23.4210 N   0  0  0  0  0  0  0  0  0  0  0  0
    8.5970   -3.9080   24.0580 C   0  0  0  0  0  0  0  0  0  0  0  0
    7.9960   -4.8730   23.0480 C   0  0  0  0  0  0  0  0  0  0  0  0
    7.5140   -4.1680   21.8490 N   0  0  0  0  0  0  0  0  0  0  0  0
    6.3950   -4.6780   21.1790 C   0  0  0  0  0  0  0  0  0  0  0  0
    5.9790   -4.1240   20.1990 O   0  0  0  0  0  0  0  0  0  0  0  0
    5.7080   -5.9320   21.6930 C   0  0  0  0  0  0  0  0  0  0  0  0
    4.4760   -5.4830   22.8970 Cl  0  0  0  0  0  0  0  0  0  0  0  0
    8.1530   -2.9450   21.3380 C   0  0  0  0  0  0  0  0  0  0  0  0
    8.7500   -2.1100   22.4620 C   0  0  0  0  0  0  0  0  0  0  0  0
   10.9360    0.2690   24.1930 C   0  0  0  0  0  0  0  0  0  0  0  0
  1  2  1  0
  2  3  1  0
  3  4  1  0
  4  5  1  0
  5  6  1  0
  6  7  2  0
  6  8  1  0
  8  9  2  0
  8 24  1  0
  9 10  1  0
 10 11  2  0
 11 12  1  0
 12 13  1  0
 12 24  2  0
 13 14  1  0
 14 15  1  0
 14 23  1  0
 15 16  1  0
 16 17  1  0
 17 18  1  0
 17 22  1  0
 18 19  2  0
 18 20  1  0
 20 21  1  0
 22 23  1  0
M  CHG  2   2   1  14   1
M  END
