MAK-UNK-b2c98f02-5
     RDKit          3D

 28 30  0  0  1  0  0  0  0  0999 V2000
    5.6380   -3.5750   20.3080 O   0  0  0  0  0  0  0  0  0  0  0  0
    5.6930   -2.6540   21.0760 C   0  0  0  0  0  0  0  0  0  0  0  0
    5.0340   -1.4870   20.7930 N   0  0  0  0  0  0  0  0  0  0  0  0
    5.5910   -0.5690   19.8940 C   0  0  0  0  0  0  0  0  0  0  0  0
    4.9320    0.6240   19.6190 C   0  0  0  0  0  0  0  0  0  0  0  0
    5.4860    1.5340   18.7260 C   0  0  0  0  0  0  0  0  0  0  0  0
    6.6990    1.2220   18.1220 C   0  0  0  0  0  0  0  0  0  0  0  0
    7.3230    0.0670   18.3970 N   0  0  0  0  0  0  0  0  0  0  0  0
    6.8010   -0.8210   19.2570 C   0  0  0  0  0  0  0  0  0  0  0  0
    6.4940   -2.7840   22.3620 C   0  0  0  0  0  0  0  0  0  0  0  0
    5.8720   -3.8570   23.2400 C   0  0  0  0  0  0  0  0  0  0  0  0
    4.4010   -3.5490   23.4730 C   0  0  0  0  0  0  0  0  0  0  0  0
    3.7770   -4.6220   24.3510 C   0  0  0  0  0  0  0  0  0  0  0  0
    3.9260   -5.9850   23.6960 C   0  0  0  0  0  0  0  0  0  0  0  0
    5.3960   -6.2940   23.4630 C   0  0  0  0  0  0  0  0  0  0  0  0
    6.0200   -5.2210   22.5850 C   0  0  0  0  0  0  0  0  0  0  0  0
    8.2000   -3.2410   21.9670 S   0  0  0  0  0  0  0  0  0  0  0  0
    8.8520   -2.1380   21.3100 O   0  0  0  0  0  0  0  0  0  0  0  0
    8.2000   -4.3870   21.0960 O   0  0  0  0  0  0  0  0  0  0  0  0
    8.9970   -3.6030   23.3420 N   0  0  0  0  0  0  0  0  0  0  0  0
    9.6770   -2.4000   23.8450 C   0  0  0  0  0  0  0  0  0  0  0  0
   10.9660   -2.1850   23.0690 C   0  0  0  0  0  0  0  0  0  0  0  0
   11.5800   -0.8520   23.4650 C   0  0  0  0  0  0  0  0  0  0  0  0
   11.1520   -0.2140   24.6250 C   0  0  0  0  0  0  0  0  0  0  0  0
   11.7150    1.0060   24.9840 C   0  0  0  0  0  0  0  0  0  0  0  0
   12.7000    1.5790   24.1850 C   0  0  0  0  0  0  0  0  0  0  0  0
   13.1200    0.9330   23.0290 C   0  0  0  0  0  0  0  0  0  0  0  0
   12.5640   -0.2880   22.6600 C   0  0  0  0  0  0  0  0  0  0  0  0
  1  2  2  0
  2  3  1  0
  2 10  1  0
  3  4  1  0
  4  5  2  0
  4  9  1  0
  5  6  1  0
  6  7  2  0
  7  8  1  0
  8  9  2  0
 10 11  1  0
 10 17  1  0
 11 12  1  0
 11 16  1  0
 12 13  1  0
 13 14  1  0
 14 15  1  0
 15 16  1  0
 17 18  2  0
 17 19  2  0
 17 20  1  0
 20 21  1  0
 21 22  1  0
 22 23  1  0
 23 24  2  0
 23 28  1  0
 24 25  1  0
 25 26  2  0
 26 27  1  0
 27 28  2  0
M  END
