MAK-UNK-8fdbca50-3
     RDKit          3D

 40 43  0  0  1  0  0  0  0  0999 V2000
   13.9830   -1.3220   20.6720 C   0  0  0  0  0  0  0  0  0  0  0  0
   13.0740   -1.7500   21.7450 N   0  0  0  0  0  0  0  0  0  0  0  0
   12.0820   -0.6950   21.9970 C   0  0  0  0  0  0  0  0  0  0  0  0
   10.8880   -1.2860   22.7400 C   0  0  0  0  0  0  0  0  0  0  0  0
   10.9780   -2.1630   23.8470 C   0  0  0  0  0  0  0  0  0  0  0  0
    9.6970   -2.4610   24.2080 C   0  0  0  0  0  0  0  0  0  0  0  0
    9.3220   -3.3390   25.3000 C   0  0  0  0  0  0  0  0  0  0  0  0
    9.7580   -4.6600   25.3100 C   0  0  0  0  0  0  0  0  0  0  0  0
    9.4000   -5.5020   26.3580 C   0  0  0  0  0  0  0  0  0  0  0  0
    8.6040   -5.0240   27.3940 C   0  0  0  0  0  0  0  0  0  0  0  0
    8.1670   -3.7030   27.3830 C   0  0  0  0  0  0  0  0  0  0  0  0
    8.5260   -2.8610   26.3360 C   0  0  0  0  0  0  0  0  0  0  0  0
    8.1090   -1.5980   26.3260 F   0  0  0  0  0  0  0  0  0  0  0  0
    8.8520   -1.7870   23.3700 N   0  0  0  0  0  0  0  0  0  0  0  0
    7.1630   -1.8450   23.4420 S   0  0  0  0  0  0  0  0  0  0  0  0
    6.7550   -2.9760   24.2340 O   0  0  0  0  0  0  0  0  0  0  0  0
    6.6670   -0.6340   24.0430 O   0  0  0  0  0  0  0  0  0  0  0  0
    6.5190   -2.0010   21.8330 C   0  0  0  0  0  0  0  0  0  0  0  0
    6.3280   -0.8640   21.0550 C   0  0  0  0  0  0  0  0  0  0  0  0
    5.8140   -0.9900   19.7680 C   0  0  0  0  0  0  0  0  0  0  0  0
    5.5010   -2.2580   19.2890 C   0  0  0  0  0  0  0  0  0  0  0  0
    5.6920   -3.3420   20.0550 N   0  0  0  0  0  0  0  0  0  0  0  0
    6.1880   -3.2410   21.2980 C   0  0  0  0  0  0  0  0  0  0  0  0
    9.5640   -1.0620   22.4580 C   0  0  0  0  0  0  0  0  0  0  0  0
   12.7120    0.4010   22.8410 C   0  0  0  0  0  0  0  0  0  0  0  0
   13.4720   -0.2250   23.9990 C   0  0  0  0  0  0  0  0  0  0  0  0
   11.6580    1.2820   23.3650 N   0  0  0  0  0  0  0  0  0  0  0  0
   11.5590    1.5290   24.8110 C   0  0  0  0  0  0  0  0  0  0  0  0
   10.7690    1.8730   22.5060 C   0  0  0  0  0  0  0  0  0  0  0  0
   10.8500    1.6710   21.3260 O   0  0  0  0  0  0  0  0  0  0  0  0
    9.6800    2.7840   23.0490 C   0  0  0  0  0  0  0  0  0  0  0  0
   10.3260    4.1110   23.4200 C   0  0  0  0  0  0  0  0  0  0  0  0
    9.3070    5.1340   23.9020 C   0  0  0  0  0  0  0  0  0  0  0  0
    8.1230    5.1840   23.0300 N   0  0  0  0  0  0  0  0  0  0  0  0
    7.4660    6.4080   22.8750 C   0  0  0  0  0  0  0  0  0  0  0  0
    7.8720    7.3830   23.4460 O   0  0  0  0  0  0  0  0  0  0  0  0
    6.2390    6.5050   21.9840 C   0  0  0  0  0  0  0  0  0  0  0  0
    6.2720    8.0460   21.0940 Cl  0  0  0  0  0  0  0  0  0  0  0  0
    7.5970    4.0130   22.3090 C   0  0  0  0  0  0  0  0  0  0  0  0
    8.7020    3.0450   21.9110 C   0  0  0  0  0  0  0  0  0  0  0  0
  1  2  1  0
  2  3  1  0
  3  4  1  0
  3 25  1  0
  4  5  1  0
  4 24  2  0
  5  6  2  0
  6  7  1  0
  6 14  1  0
  7  8  2  0
  7 12  1  0
  8  9  1  0
  9 10  2  0
 10 11  1  0
 11 12  2  0
 12 13  1  0
 14 15  1  0
 14 24  1  0
 15 16  2  0
 15 17  2  0
 15 18  1  0
 18 19  2  0
 18 23  1  0
 19 20  1  0
 20 21  2  0
 21 22  1  0
 22 23  2  0
 25 26  1  0
 25 27  1  0
 27 28  1  0
 27 29  1  0
 29 30  2  0
 29 31  1  0
 31 32  1  0
 31 40  1  0
 32 33  1  0
 33 34  1  0
 34 35  1  0
 34 39  1  0
 35 36  2  0
 35 37  1  0
 37 38  1  0
 39 40  1  0
M  CHG  1   2   1
M  END
