MAK-UNK-702fb7d3-13
     RDKit          3D

 43 48  0  0  1  0  0  0  0  0999 V2000
    5.2480   -3.8260   21.0380 O   0  0  0  0  0  0  0  0  0  0  0  0
    6.1840   -3.0830   20.9320 C   0  0  0  0  0  0  0  0  0  0  0  0
    6.0220   -1.7530   20.2150 C   0  0  0  0  0  0  0  0  0  0  0  0
    6.4220   -0.4250   21.3310 Cl  0  0  0  0  0  0  0  0  0  0  0  0
    7.4240   -3.4420   21.4700 N   0  0  0  0  0  0  0  0  0  0  0  0
    7.6740   -4.7040   22.1780 C   0  0  0  0  0  0  0  0  0  0  0  0
    8.3890   -4.3590   23.4750 C   0  0  0  0  0  0  0  0  0  0  0  0
    8.5340   -5.3800   24.4020 C   0  0  0  0  0  0  0  0  0  0  0  0
    9.1860   -5.1610   25.6110 C   0  0  0  0  0  0  0  0  0  0  0  0
    9.7000   -3.9000   25.8960 C   0  0  0  0  0  0  0  0  0  0  0  0
    9.5550   -2.8750   24.9680 C   0  0  0  0  0  0  0  0  0  0  0  0
    8.9060   -3.0890   23.7570 C   0  0  0  0  0  0  0  0  0  0  0  0
    8.7690   -1.9490   22.7600 C   0  0  0  0  0  0  0  0  0  0  0  0
   10.0380   -1.1120   22.7010 C   0  0  0  0  0  0  0  0  0  0  0  0
   11.2800   -1.7390   22.6860 C   0  0  0  0  0  0  0  0  0  0  0  0
   12.4300   -0.9580   22.6330 C   0  0  0  0  0  0  0  0  0  0  0  0
   12.3530    0.4300   22.5950 C   0  0  0  0  0  0  0  0  0  0  0  0
   11.1010    1.0350   22.6120 C   0  0  0  0  0  0  0  0  0  0  0  0
   11.0130    2.4310   22.5740 N   0  0  0  0  0  0  0  0  0  0  0  0
   12.1600    3.2520   22.9870 C   0  0  0  0  0  0  0  0  0  0  0  0
   11.6620    4.4820   23.7390 C   0  0  0  0  0  0  0  0  0  0  0  0
   12.4940    5.4290   24.3820 C   0  0  0  0  0  0  0  0  0  0  0  0
   11.6640    6.3600   24.9340 C   0  0  0  0  0  0  0  0  0  0  0  0
   12.0970    7.5130   25.6990 C   0  0  0  0  0  0  0  0  0  0  0  0
   12.8640    8.5010   25.0920 C   0  0  0  0  0  0  0  0  0  0  0  0
   13.2790    9.6080   25.8260 C   0  0  0  0  0  0  0  0  0  0  0  0
   12.9280    9.7250   27.1670 C   0  0  0  0  0  0  0  0  0  0  0  0
   12.1610    8.7370   27.7740 C   0  0  0  0  0  0  0  0  0  0  0  0
   11.7460    7.6300   27.0410 C   0  0  0  0  0  0  0  0  0  0  0  0
   11.0120    6.6850   27.6220 F   0  0  0  0  0  0  0  0  0  0  0  0
   10.3750    6.0110   24.6340 N   0  0  0  0  0  0  0  0  0  0  0  0
    9.0000    6.8760   25.1050 S   0  0  0  0  0  0  0  0  0  0  0  0
    8.2560    6.1070   26.0690 O   0  0  0  0  0  0  0  0  0  0  0  0
    9.3990    8.1280   25.6940 O   0  0  0  0  0  0  0  0  0  0  0  0
    8.0030    7.1820   23.7130 C   0  0  0  0  0  0  0  0  0  0  0  0
    8.1110    6.3640   22.5940 C   0  0  0  0  0  0  0  0  0  0  0  0
    7.3130    6.6090   21.4810 C   0  0  0  0  0  0  0  0  0  0  0  0
    6.4200    7.6750   21.5150 C   0  0  0  0  0  0  0  0  0  0  0  0
    6.3300    8.4540   22.6040 N   0  0  0  0  0  0  0  0  0  0  0  0
    7.0910    8.2320   23.6860 C   0  0  0  0  0  0  0  0  0  0  0  0
   10.3520    4.8580   23.9020 C   0  0  0  0  0  0  0  0  0  0  0  0
    9.9380    0.2750   22.6640 C   0  0  0  0  0  0  0  0  0  0  0  0
    8.6190   -2.5950   21.3950 C   0  0  0  0  0  0  0  0  0  0  0  0
  1  2  2  0
  2  3  1  0
  2  5  1  0
  3  4  1  0
  5  6  1  0
  5 43  1  0
  6  7  1  0
  7  8  1  0
  7 12  2  0
  8  9  2  0
  9 10  1  0
 10 11  2  0
 11 12  1  0
 12 13  1  0
 13 14  1  0
 13 43  1  0
 14 15  2  0
 14 42  1  0
 15 16  1  0
 16 17  2  0
 17 18  1  0
 18 19  1  0
 18 42  2  0
 19 20  1  0
 20 21  1  0
 21 22  1  0
 21 41  2  0
 22 23  2  0
 23 24  1  0
 23 31  1  0
 24 25  2  0
 24 29  1  0
 25 26  1  0
 26 27  2  0
 27 28  1  0
 28 29  2  0
 29 30  1  0
 31 32  1  0
 31 41  1  0
 32 33  2  0
 32 34  2  0
 32 35  1  0
 35 36  2  0
 35 40  1  0
 36 37  1  0
 37 38  2  0
 38 39  1  0
 39 40  2  0
M  END
