MAK-UNK-72b7ba6b-1
     RDKit          3D

 34 37  0  0  0  0  0  0  0  0999 V2000
   12.7590    4.9950   22.4340 O   0  0  0  0  0  0  0  0  0  0  0  0
   11.9080    4.6780   23.2190 C   0  0  0  0  0  0  0  0  0  0  0  0
   10.9650    5.7280   23.7830 C   0  0  0  0  0  0  0  0  0  0  0  0
    9.6890    5.6830   23.0560 N   0  0  0  0  0  0  0  0  0  0  0  0
    8.8140    6.7640   23.5320 C   0  0  0  0  0  0  0  0  0  0  0  0
    7.6040    6.8780   22.6170 C   0  0  0  0  0  0  0  0  0  0  0  0
    7.2290    5.9490   21.6960 C   0  0  0  0  0  0  0  0  0  0  0  0
    6.1060    6.4320   21.0940 N   0  0  0  0  0  0  0  0  0  0  0  0
    5.7710    7.6440   21.6200 C   0  0  0  0  0  0  0  0  0  0  0  0
    4.7160    8.4980   21.3160 C   0  0  0  0  0  0  0  0  0  0  0  0
    4.5730    9.7060   21.9880 C   0  0  0  0  0  0  0  0  0  0  0  0
    5.4990   10.0530   22.9660 C   0  0  0  0  0  0  0  0  0  0  0  0
    5.3600   11.2160   23.6020 F   0  0  0  0  0  0  0  0  0  0  0  0
    6.5420    9.1750   23.2510 C   0  0  0  0  0  0  0  0  0  0  0  0
    6.6940    7.9590   22.5860 C   0  0  0  0  0  0  0  0  0  0  0  0
   11.7870    3.3700   23.6060 N   0  0  0  0  0  0  0  0  0  0  0  0
   12.6980    2.3540   23.0610 C   0  0  0  0  0  0  0  0  0  0  0  0
   12.1560    0.9680   23.3700 C   0  0  0  0  0  0  0  0  0  0  0  0
   12.5390   -0.1090   22.5770 C   0  0  0  0  0  0  0  0  0  0  0  0
   12.0480   -1.3800   22.8560 C   0  0  0  0  0  0  0  0  0  0  0  0
   11.1790   -1.5570   23.9280 C   0  0  0  0  0  0  0  0  0  0  0  0
   10.6390   -2.9440   24.2390 C   0  0  0  0  0  0  0  0  0  0  0  0
    9.2340   -3.0290   23.8170 N   0  0  0  0  0  0  0  0  0  0  0  0
    9.1920   -2.6730   22.3890 C   0  0  0  0  0  0  0  0  0  0  0  0
    7.7840   -2.7700   21.8200 C   0  0  0  0  0  0  0  0  0  0  0  0
    7.1180   -4.0130   22.2390 N   0  0  0  0  0  0  0  0  0  0  0  0
    6.2060   -4.6100   21.3620 C   0  0  0  0  0  0  0  0  0  0  0  0
    5.9830   -4.1070   20.2950 O   0  0  0  0  0  0  0  0  0  0  0  0
    5.4980   -5.8950   21.7590 C   0  0  0  0  0  0  0  0  0  0  0  0
    4.2950   -5.5430   23.0240 Cl  0  0  0  0  0  0  0  0  0  0  0  0
    7.3830   -4.6570   23.5360 C   0  0  0  0  0  0  0  0  0  0  0  0
    8.8160   -4.4290   23.9950 C   0  0  0  0  0  0  0  0  0  0  0  0
   10.7950   -0.4810   24.7220 C   0  0  0  0  0  0  0  0  0  0  0  0
   11.2860    0.7900   24.4410 C   0  0  0  0  0  0  0  0  0  0  0  0
  1  2  2  0
  2  3  1  0
  2 16  1  0
  3  4  1  0
  4  5  1  0
  5  6  1  0
  6  7  2  0
  6 15  1  0
  7  8  1  0
  8  9  1  0
  9 10  1  0
  9 15  2  0
 10 11  2  0
 11 12  1  0
 12 13  1  0
 12 14  2  0
 14 15  1  0
 16 17  1  0
 17 18  1  0
 18 19  2  0
 18 34  1  0
 19 20  1  0
 20 21  2  0
 21 22  1  0
 21 33  1  0
 22 23  1  0
 23 24  1  0
 23 32  1  0
 24 25  1  0
 25 26  1  0
 26 27  1  0
 26 31  1  0
 27 28  2  0
 27 29  1  0
 29 30  1  0
 31 32  1  0
 33 34  2  0
M  CHG  2   4   1  23   1
M  END
