MIH-UNI-e573136b-3
     RDKit          3D

 28 31  0  0  1  0  0  0  0  0999 V2000
    7.4980   -5.9260   27.0990 O   0  0  0  0  0  0  0  0  0  0  0  0
    7.1040   -4.9750   26.4830 C   0  0  0  0  0  0  0  0  0  0  0  0
    5.6130   -4.6930   26.3930 C   0  0  0  0  0  0  0  0  0  0  0  0
    4.7280   -6.2270   26.2100 Cl  0  0  0  0  0  0  0  0  0  0  0  0
    8.0160   -4.1260   25.8460 N   0  0  0  0  0  0  0  0  0  0  0  0
    9.4500   -4.4380   25.9620 C   0  0  0  0  0  0  0  0  0  0  0  0
   10.2230   -4.0110   24.7230 C   0  0  0  0  0  0  0  0  0  0  0  0
    9.8420   -2.6610   24.2760 N   0  0  0  0  0  0  0  0  0  0  0  0
   10.6740   -2.3320   23.1100 C   0  0  0  0  0  0  0  0  0  0  0  0
   10.3190   -0.9390   22.6100 C   0  0  0  0  0  0  0  0  0  0  0  0
    9.2830   -0.8290   21.6890 C   0  0  0  0  0  0  0  0  0  0  0  0
    8.9230    0.4240   21.2030 C   0  0  0  0  0  0  0  0  0  0  0  0
    9.5900    1.5670   21.6300 C   0  0  0  0  0  0  0  0  0  0  0  0
   10.6270    1.4640   22.5520 C   0  0  0  0  0  0  0  0  0  0  0  0
   11.2830    2.6170   22.9710 C   0  0  0  0  0  0  0  0  0  0  0  0
   12.3180    2.5110   23.8930 C   0  0  0  0  0  0  0  0  0  0  0  0
   12.7010    1.2710   24.3950 C   0  0  0  0  0  0  0  0  0  0  0  0
   12.0260    0.1370   23.9560 C   0  0  0  0  0  0  0  0  0  0  0  0
   10.9850    0.2090   23.0360 C   0  0  0  0  0  0  0  0  0  0  0  0
    8.4250   -2.7080   23.8830 C   0  0  0  0  0  0  0  0  0  0  0  0
    7.5340   -2.9590   25.0890 C   0  0  0  0  0  0  0  0  0  0  0  0
    6.1110   -3.1380   24.5850 C   0  0  0  0  0  0  0  0  0  0  0  0
    6.1090   -4.0980   23.4050 C   0  0  0  0  0  0  0  0  0  0  0  0
    6.4260   -5.4380   23.5970 C   0  0  0  0  0  0  0  0  0  0  0  0
    6.4230   -6.3120   22.5150 C   0  0  0  0  0  0  0  0  0  0  0  0
    6.0980   -5.8180   21.2560 C   0  0  0  0  0  0  0  0  0  0  0  0
    5.7960   -4.5220   21.0890 N   0  0  0  0  0  0  0  0  0  0  0  0
    5.7940   -3.6660   22.1210 C   0  0  0  0  0  0  0  0  0  0  0  0
  1  2  2  0
  2  3  1  0
  2  5  1  0
  3  4  1  0
  5  6  1  0
  5 21  1  0
  6  7  1  0
  7  8  1  0
  8  9  1  0
  8 20  1  0
  9 10  1  0
 10 11  2  0
 10 19  1  0
 11 12  1  0
 12 13  2  0
 13 14  1  0
 14 15  1  0
 14 19  2  0
 15 16  2  0
 16 17  1  0
 17 18  2  0
 18 19  1  0
 20 21  1  0
 21 22  1  0
 22 23  1  0
 23 24  2  0
 23 28  1  0
 24 25  1  0
 25 26  2  0
 26 27  1  0
 27 28  2  0
M  CHG  1   8   1
M  END
