MIH-UNI-e573136b-1
     RDKit          3D

 30 34  0  0  1  0  0  0  0  0999 V2000
    5.5000   -3.3980   20.0860 O   0  0  0  0  0  0  0  0  0  0  0  0
    6.0820   -2.3550   20.1970 C   0  0  0  0  0  0  0  0  0  0  0  0
    5.4850   -1.0850   19.6130 C   0  0  0  0  0  0  0  0  0  0  0  0
    6.7230   -0.2320   18.6590 Cl  0  0  0  0  0  0  0  0  0  0  0  0
    7.3120   -2.3080   20.8650 N   0  0  0  0  0  0  0  0  0  0  0  0
    7.9910   -1.0060   20.9750 C   0  0  0  0  0  0  0  0  0  0  0  0
    8.8000   -0.8980   22.2590 C   0  0  0  0  0  0  0  0  0  0  0  0
    9.5880   -2.1150   22.5160 N   0  0  0  0  0  0  0  0  0  0  0  0
   10.3620   -1.8880   23.7460 C   0  0  0  0  0  0  0  0  0  0  0  0
   11.4860   -0.9020   23.4630 C   0  0  0  0  0  0  0  0  0  0  0  0
   12.6420   -1.3950   22.8670 C   0  0  0  0  0  0  0  0  0  0  0  0
   13.6970   -0.5320   22.5910 C   0  0  0  0  0  0  0  0  0  0  0  0
   13.6060    0.8200   22.9060 C   0  0  0  0  0  0  0  0  0  0  0  0
   12.4530    1.3200   23.5020 C   0  0  0  0  0  0  0  0  0  0  0  0
   12.3770    2.6750   23.8100 C   0  0  0  0  0  0  0  0  0  0  0  0
   11.2230    3.1710   24.4050 C   0  0  0  0  0  0  0  0  0  0  0  0
   10.1520    2.3310   24.6940 C   0  0  0  0  0  0  0  0  0  0  0  0
   10.2590    0.9820   24.3750 C   0  0  0  0  0  0  0  0  0  0  0  0
   11.3990    0.4530   23.7780 C   0  0  0  0  0  0  0  0  0  0  0  0
    8.6420   -3.2230   22.7160 C   0  0  0  0  0  0  0  0  0  0  0  0
    7.8920   -3.5370   21.4310 C   0  0  0  0  0  0  0  0  0  0  0  0
    6.8390   -4.5840   21.7540 C   0  0  0  0  0  0  0  0  0  0  0  0
    6.8020   -5.8450   21.2380 C   0  0  0  0  0  0  0  0  0  0  0  0
    5.7110   -6.4650   21.7720 N   0  0  0  0  0  0  0  0  0  0  0  0
    5.0670   -5.6020   22.6160 C   0  0  0  0  0  0  0  0  0  0  0  0
    3.9620   -5.7440   23.3690 N   0  0  0  0  0  0  0  0  0  0  0  0
    3.4800   -4.7620   24.1450 C   0  0  0  0  0  0  0  0  0  0  0  0
    4.1290   -3.5340   24.1950 C   0  0  0  0  0  0  0  0  0  0  0  0
    5.2750   -3.3650   23.4260 C   0  0  0  0  0  0  0  0  0  0  0  0
    5.7450   -4.4070   22.6330 C   0  0  0  0  0  0  0  0  0  0  0  0
  1  2  2  0
  2  3  1  0
  2  5  1  0
  3  4  1  0
  5  6  1  0
  5 21  1  0
  6  7  1  0
  7  8  1  0
  8  9  1  0
  8 20  1  0
  9 10  1  0
 10 11  2  0
 10 19  1  0
 11 12  1  0
 12 13  2  0
 13 14  1  0
 14 15  1  0
 14 19  2  0
 15 16  2  0
 16 17  1  0
 17 18  2  0
 18 19  1  0
 20 21  1  0
 21 22  1  0
 22 23  2  0
 22 30  1  0
 23 24  1  0
 24 25  1  0
 25 26  1  0
 25 30  2  0
 26 27  2  0
 27 28  1  0
 28 29  2  0
 29 30  1  0
M  CHG  1   8   1
M  END
