MIH-UNI-e573136b-2
     RDKit          3D

 27 30  0  0  1  0  0  0  0  0999 V2000
    5.5020   -2.8280   20.1320 O   0  0  0  0  0  0  0  0  0  0  0  0
    6.1100   -1.8030   20.2740 C   0  0  0  0  0  0  0  0  0  0  0  0
    5.5000   -0.4880   19.8140 C   0  0  0  0  0  0  0  0  0  0  0  0
    6.3950    0.1170   18.3990 Cl  0  0  0  0  0  0  0  0  0  0  0  0
    7.3800   -1.8170   20.8630 N   0  0  0  0  0  0  0  0  0  0  0  0
    8.0880   -0.5360   21.0140 C   0  0  0  0  0  0  0  0  0  0  0  0
    8.9780   -0.5240   22.2490 C   0  0  0  0  0  0  0  0  0  0  0  0
    9.7580   -1.7660   22.3740 N   0  0  0  0  0  0  0  0  0  0  0  0
   10.6110   -1.6320   23.5650 C   0  0  0  0  0  0  0  0  0  0  0  0
    9.7400   -1.5940   24.8110 C   0  0  0  0  0  0  0  0  0  0  0  0
    9.2720   -0.3540   25.2330 C   0  0  0  0  0  0  0  0  0  0  0  0
    8.4720   -0.2690   26.3690 C   0  0  0  0  0  0  0  0  0  0  0  0
    8.1360   -1.4130   27.0860 C   0  0  0  0  0  0  0  0  0  0  0  0
    8.6010   -2.6560   26.6690 C   0  0  0  0  0  0  0  0  0  0  0  0
    8.2550   -3.7920   27.3950 C   0  0  0  0  0  0  0  0  0  0  0  0
    8.7200   -5.0330   26.9750 C   0  0  0  0  0  0  0  0  0  0  0  0
    9.5220   -5.1480   25.8440 C   0  0  0  0  0  0  0  0  0  0  0  0
    9.8510   -3.9950   25.1400 C   0  0  0  0  0  0  0  0  0  0  0  0
    9.4010   -2.7380   25.5320 C   0  0  0  0  0  0  0  0  0  0  0  0
    8.8060   -2.8720   22.5620 C   0  0  0  0  0  0  0  0  0  0  0  0
    7.9710   -3.0890   21.3100 C   0  0  0  0  0  0  0  0  0  0  0  0
    6.9210   -4.1410   21.6300 C   0  0  0  0  0  0  0  0  0  0  0  0
    6.8010   -5.2720   20.8310 C   0  0  0  0  0  0  0  0  0  0  0  0
    5.8390   -6.2320   21.1280 C   0  0  0  0  0  0  0  0  0  0  0  0
    5.0120   -6.0320   22.2290 C   0  0  0  0  0  0  0  0  0  0  0  0
    5.1410   -4.9340   22.9880 N   0  0  0  0  0  0  0  0  0  0  0  0
    6.0630   -4.0000   22.7160 C   0  0  0  0  0  0  0  0  0  0  0  0
  1  2  2  0
  2  3  1  0
  2  5  1  0
  3  4  1  0
  5  6  1  0
  5 21  1  0
  6  7  1  0
  7  8  1  0
  8  9  1  0
  8 20  1  0
  9 10  1  0
 10 11  2  0
 10 19  1  0
 11 12  1  0
 12 13  2  0
 13 14  1  0
 14 15  1  0
 14 19  2  0
 15 16  2  0
 16 17  1  0
 17 18  2  0
 18 19  1  0
 20 21  1  0
 21 22  1  0
 22 23  2  0
 22 27  1  0
 23 24  1  0
 24 25  2  0
 25 26  1  0
 26 27  2  0
M  CHG  1   8   1
M  END
