NAU-LAT-f723e322-1
     RDKit          3D

 27 29  0  0  0  0  0  0  0  0999 V2000
   12.8020    5.2490   21.2440 C   0  0  0  0  0  0  0  0  0  0  0  0
   13.5070    6.0710   22.3110 C   0  0  0  0  0  0  0  0  0  0  0  0
   14.2000    6.9980   21.9950 O   0  0  0  0  0  0  0  0  0  0  0  0
   13.3520    5.7520   23.6340 N   0  0  0  0  0  0  0  0  0  0  0  0
   12.5030    4.6160   24.0220 C   0  0  0  0  0  0  0  0  0  0  0  0
   13.1270    3.3240   23.5210 C   0  0  0  0  0  0  0  0  0  0  0  0
   12.2260    2.1530   23.8810 C   0  0  0  0  0  0  0  0  0  0  0  0
   11.1520    2.2100   24.7200 C   0  0  0  0  0  0  0  0  0  0  0  0
   10.6080    0.9600   24.7830 N   0  0  0  0  0  0  0  0  0  0  0  0
   11.3360    0.1210   23.9870 C   0  0  0  0  0  0  0  0  0  0  0  0
   11.1500   -1.2370   23.7480 C   0  0  0  0  0  0  0  0  0  0  0  0
   10.0150   -2.0100   24.3990 C   0  0  0  0  0  0  0  0  0  0  0  0
    9.4720   -2.9840   23.4410 N   0  0  0  0  0  0  0  0  0  0  0  0
    8.5310   -3.8390   24.1830 C   0  0  0  0  0  0  0  0  0  0  0  0
    7.8630   -4.8660   23.2800 C   0  0  0  0  0  0  0  0  0  0  0  0
    7.3960   -4.2570   22.0250 N   0  0  0  0  0  0  0  0  0  0  0  0
    6.2410   -4.7710   21.4230 C   0  0  0  0  0  0  0  0  0  0  0  0
    5.8360   -4.2960   20.3980 O   0  0  0  0  0  0  0  0  0  0  0  0
    5.5010   -5.9320   22.0680 C   0  0  0  0  0  0  0  0  0  0  0  0
    4.2700   -5.3010   23.1880 Cl  0  0  0  0  0  0  0  0  0  0  0  0
    8.0870   -3.1250   21.3860 C   0  0  0  0  0  0  0  0  0  0  0  0
    8.7460   -2.2170   22.4140 C   0  0  0  0  0  0  0  0  0  0  0  0
   12.0170   -1.9120   22.8950 C   0  0  0  0  0  0  0  0  0  0  0  0
   13.0640   -1.2300   22.2850 C   0  0  0  0  0  0  0  0  0  0  0  0
   13.8810   -1.8980   21.4770 F   0  0  0  0  0  0  0  0  0  0  0  0
   13.2150    0.1300   22.5500 C   0  0  0  0  0  0  0  0  0  0  0  0
   12.3620    0.8310   23.4000 C   0  0  0  0  0  0  0  0  0  0  0  0
  1  2  1  0
  2  3  2  0
  2  4  1  0
  4  5  1  0
  5  6  1  0
  6  7  1  0
  7  8  2  0
  7 27  1  0
  8  9  1  0
  9 10  1  0
 10 11  1  0
 10 27  2  0
 11 12  1  0
 11 23  2  0
 12 13  1  0
 13 14  1  0
 13 22  1  0
 14 15  1  0
 15 16  1  0
 16 17  1  0
 16 21  1  0
 17 18  2  0
 17 19  1  0
 19 20  1  0
 21 22  1  0
 23 24  1  0
 24 25  1  0
 24 26  2  0
 26 27  1  0
M  CHG  1  13   1
M  END
