NIM-UNI-594fbbb6-2
     RDKit          3D

 26 28  0  0  1  0  0  0  0  0999 V2000
    5.0050   -3.8180   21.7980 O   0  0  0  0  0  0  0  0  0  0  0  0
    6.1130   -3.9760   21.3650 C   0  0  0  0  0  0  0  0  0  0  0  0
    6.5070   -5.3120   20.7560 C   0  0  0  0  0  0  0  0  0  0  0  0
    6.7000   -6.5190   22.0490 Cl  0  0  0  0  0  0  0  0  0  0  0  0
    7.0220   -2.9530   21.4190 N   0  0  0  0  0  0  0  0  0  0  0  0
    8.3540   -3.1830   21.9960 C   0  0  0  0  0  0  0  0  0  0  0  0
    8.3170   -2.8910   23.4880 C   0  0  0  0  0  0  0  0  0  0  0  0
    7.1980   -2.8160   24.2590 C   0  0  0  0  0  0  0  0  0  0  0  0
    7.6470   -2.5390   25.5130 N   0  0  0  0  0  0  0  0  0  0  0  0
    8.9180   -2.4460   25.4910 N   0  0  0  0  0  0  0  0  0  0  0  0
    9.3950   -2.6540   24.2870 N   0  0  0  0  0  0  0  0  0  0  0  0
   10.8100   -2.6320   23.8880 C   0  0  0  0  0  0  0  0  0  0  0  0
   11.2850   -1.1930   23.7880 C   0  0  0  0  0  0  0  0  0  0  0  0
   12.1130   -0.8160   22.7360 C   0  0  0  0  0  0  0  0  0  0  0  0
   12.5440    0.5050   22.6510 C   0  0  0  0  0  0  0  0  0  0  0  0
   12.1460    1.4290   23.6100 C   0  0  0  0  0  0  0  0  0  0  0  0
   12.7000    3.1170   23.4950 Cl  0  0  0  0  0  0  0  0  0  0  0  0
   11.3180    1.0520   24.6620 C   0  0  0  0  0  0  0  0  0  0  0  0
   10.8870   -0.2680   24.7470 C   0  0  0  0  0  0  0  0  0  0  0  0
    6.6650   -1.6240   20.8990 C   0  0  0  0  0  0  0  0  0  0  0  0
    7.9680   -0.9590   20.4860 C   0  0  0  0  0  0  0  0  0  0  0  0
    7.7140    0.0220   19.3460 C   0  0  0  0  0  0  0  0  0  0  0  0
    5.9650   -0.1750   18.9380 S   0  0  0  0  0  0  0  0  0  0  0  0
    5.7020   -0.1300   17.4520 O   0  0  0  0  0  0  0  0  0  0  0  0
    5.0960    0.7870   19.7130 O   0  0  0  0  0  0  0  0  0  0  0  0
    5.8980   -1.8460   19.6160 C   0  0  0  0  0  0  0  0  0  0  0  0
  1  2  2  0
  2  3  1  0
  2  5  1  0
  3  4  1  0
  5  6  1  0
  5 20  1  0
  6  7  1  0
  7  8  2  0
  7 11  1  0
  8  9  1  0
  9 10  2  0
 10 11  1  0
 11 12  1  0
 12 13  1  0
 13 14  2  0
 13 19  1  0
 14 15  1  0
 15 16  2  0
 16 17  1  0
 16 18  1  0
 18 19  2  0
 20 21  1  0
 20 26  1  0
 21 22  1  0
 22 23  1  0
 23 24  2  0
 23 25  2  0
 23 26  1  0
M  END
