NIM-UNI-ed9fc491-3
     RDKit          3D

 33 35  0  0  1  0  0  0  0  0999 V2000
    3.7010    3.2480   23.2190 C   0  0  0  0  0  0  0  0  0  0  0  0
    5.0140    3.3210   22.4560 C   0  0  0  0  0  0  0  0  0  0  0  0
    5.1270    2.7600   21.4020 O   0  0  0  0  0  0  0  0  0  0  0  0
    6.0680    4.0270   22.9730 N   0  0  0  0  0  0  0  0  0  0  0  0
    7.3370    4.0980   22.2350 C   0  0  0  0  0  0  0  0  0  0  0  0
    8.2410    5.1360   22.8800 C   0  0  0  0  0  0  0  0  0  0  0  0
    7.5830    6.5030   22.7960 C   0  0  0  0  0  0  0  0  0  0  0  0
    6.9630    6.8930   21.6130 C   0  0  0  0  0  0  0  0  0  0  0  0
    6.3580    8.1430   21.5320 C   0  0  0  0  0  0  0  0  0  0  0  0
    6.3810    8.9880   22.6370 C   0  0  0  0  0  0  0  0  0  0  0  0
    5.7960   10.2020   22.5630 O   0  0  0  0  0  0  0  0  0  0  0  0
    7.0000    8.6040   23.8220 C   0  0  0  0  0  0  0  0  0  0  0  0
    7.6020    7.3520   23.8980 C   0  0  0  0  0  0  0  0  0  0  0  0
    8.0200    2.7400   22.2700 C   0  0  0  0  0  0  0  0  0  0  0  0
    7.6930    1.9250   23.0880 O   0  0  0  0  0  0  0  0  0  0  0  0
    9.0080    2.4470   21.3670 N   0  0  0  0  0  0  0  0  0  0  0  0
    9.6680    1.1340   21.4010 C   0  0  0  0  0  0  0  0  0  0  0  0
   10.7400    1.1330   22.4790 C   0  0  0  0  0  0  0  0  0  0  0  0
   10.5620    1.8980   23.6270 C   0  0  0  0  0  0  0  0  0  0  0  0
   11.5460    1.8950   24.6110 C   0  0  0  0  0  0  0  0  0  0  0  0
   12.6950    1.1290   24.4440 C   0  0  0  0  0  0  0  0  0  0  0  0
   12.8610    0.3680   23.2930 C   0  0  0  0  0  0  0  0  0  0  0  0
   11.8850    0.3630   22.3020 C   0  0  0  0  0  0  0  0  0  0  0  0
    8.6740    0.0940   21.6970 N   0  0  0  0  0  0  0  0  0  0  0  0
    7.7020    0.1050   20.5930 C   0  0  0  0  0  0  0  0  0  0  0  0
    6.6350   -0.9640   20.7740 C   0  0  0  0  0  0  0  0  0  0  0  0
    7.2260   -2.2550   21.1620 N   0  0  0  0  0  0  0  0  0  0  0  0
    6.6100   -3.4380   20.7420 C   0  0  0  0  0  0  0  0  0  0  0  0
    5.6140   -3.3920   20.0740 O   0  0  0  0  0  0  0  0  0  0  0  0
    7.2030   -4.7830   21.1300 C   0  0  0  0  0  0  0  0  0  0  0  0
    5.8890   -5.9330   21.4760 Cl  0  0  0  0  0  0  0  0  0  0  0  0
    8.4500   -2.3560   21.9720 C   0  0  0  0  0  0  0  0  0  0  0  0
    9.3900   -1.1920   21.6960 C   0  0  0  0  0  0  0  0  0  0  0  0
  1  2  1  0
  2  3  2  0
  2  4  1  0
  4  5  1  0
  5  6  1  0
  5 14  1  0
  6  7  1  0
  7  8  2  0
  7 13  1  0
  8  9  1  0
  9 10  2  0
 10 11  1  0
 10 12  1  0
 12 13  2  0
 14 15  2  0
 14 16  1  0
 16 17  1  0
 17 18  1  0
 17 24  1  0
 18 19  2  0
 18 23  1  0
 19 20  1  0
 20 21  2  0
 21 22  1  0
 22 23  2  0
 24 25  1  0
 24 33  1  0
 25 26  1  0
 26 27  1  0
 27 28  1  0
 27 32  1  0
 28 29  2  0
 28 30  1  0
 30 31  1  0
 32 33  1  0
M  END
