NIR-THE-0d6461ce-2
     RDKit          3D

 27 29  0  0  0  0  0  0  0  0999 V2000
    9.8190    6.5880   24.9640 C   0  0  0  0  0  0  0  0  0  0  0  0
    9.7440    5.9730   23.5760 C   0  0  0  0  0  0  0  0  0  0  0  0
    8.7710    6.1450   22.8960 O   0  0  0  0  0  0  0  0  0  0  0  0
   10.7880    5.2230   23.1020 N   0  0  0  0  0  0  0  0  0  0  0  0
   11.9800    5.0130   23.9360 C   0  0  0  0  0  0  0  0  0  0  0  0
   12.7000    3.7530   23.4820 C   0  0  0  0  0  0  0  0  0  0  0  0
   11.8790    2.5340   23.8690 C   0  0  0  0  0  0  0  0  0  0  0  0
   10.7940    2.5400   24.6950 C   0  0  0  0  0  0  0  0  0  0  0  0
   10.3380    1.2570   24.7900 N   0  0  0  0  0  0  0  0  0  0  0  0
   11.1320    0.4480   24.0280 C   0  0  0  0  0  0  0  0  0  0  0  0
   11.0440   -0.9270   23.8280 C   0  0  0  0  0  0  0  0  0  0  0  0
    9.9580   -1.7580   24.4910 C   0  0  0  0  0  0  0  0  0  0  0  0
    9.4790   -2.8300   23.5260 C   0  0  0  0  0  0  0  0  0  0  0  0
    8.4740   -3.7040   24.2630 C   0  0  0  0  0  0  0  0  0  0  0  0
    7.8650   -4.7690   23.3620 C   0  0  0  0  0  0  0  0  0  0  0  0
    7.4500   -4.2180   22.0610 N   0  0  0  0  0  0  0  0  0  0  0  0
    6.3370   -4.7820   21.4270 C   0  0  0  0  0  0  0  0  0  0  0  0
    5.9720   -4.3570   20.3660 O   0  0  0  0  0  0  0  0  0  0  0  0
    5.5900   -5.9320   22.0830 C   0  0  0  0  0  0  0  0  0  0  0  0
    4.3370   -5.2840   23.1680 Cl  0  0  0  0  0  0  0  0  0  0  0  0
    8.1440   -3.1020   21.3960 C   0  0  0  0  0  0  0  0  0  0  0  0
    8.7420   -2.1240   22.3970 C   0  0  0  0  0  0  0  0  0  0  0  0
   11.9660   -1.5640   23.0050 C   0  0  0  0  0  0  0  0  0  0  0  0
   12.9700   -0.8280   22.3850 C   0  0  0  0  0  0  0  0  0  0  0  0
   13.8420   -1.4610   21.6050 F   0  0  0  0  0  0  0  0  0  0  0  0
   13.0230    0.5460   22.6100 C   0  0  0  0  0  0  0  0  0  0  0  0
   12.1120    1.2110   23.4300 C   0  0  0  0  0  0  0  0  0  0  0  0
  1  2  1  0
  2  3  2  0
  2  4  1  0
  4  5  1  0
  5  6  1  0
  6  7  1  0
  7  8  2  0
  7 27  1  0
  8  9  1  0
  9 10  1  0
 10 11  1  0
 10 27  2  0
 11 12  1  0
 11 23  2  0
 12 13  1  0
 13 14  1  0
 13 22  1  0
 14 15  1  0
 15 16  1  0
 16 17  1  0
 16 21  1  0
 17 18  2  0
 17 19  1  0
 19 20  1  0
 21 22  1  0
 23 24  1  0
 24 25  1  0
 24 26  2  0
 26 27  1  0
M  END
