NIY-UNK-62612a68-1
     RDKit          3D

 33 36  0  0  0  0  0  0  0  0999 V2000
    1.8800   -7.4460   30.3680 C   0  0  0  0  0  0  0  0  0  0  0  0
    2.8950   -7.0420   29.8970 C   0  0  0  0  0  0  0  0  0  0  0  0
    4.1940   -6.5270   29.2950 C   0  0  0  0  0  0  0  0  0  0  0  0
    4.9020   -5.5200   29.9420 C   0  0  0  0  0  0  0  0  0  0  0  0
    6.0900   -5.0420   29.3990 C   0  0  0  0  0  0  0  0  0  0  0  0
    6.5510   -5.5900   28.2050 C   0  0  0  0  0  0  0  0  0  0  0  0
    7.7480   -5.0980   27.6720 N   0  0  0  0  0  0  0  0  0  0  0  0
    7.9320   -5.0620   26.2940 C   0  0  0  0  0  0  0  0  0  0  0  0
    9.1340   -4.6340   25.8130 C   0  0  0  0  0  0  0  0  0  0  0  0
    8.9700   -4.7240   24.1200 S   0  0  0  0  0  0  0  0  0  0  0  0
    7.3760   -5.3050   24.0500 C   0  0  0  0  0  0  0  0  0  0  0  0
    6.5860   -5.6160   22.7870 C   0  0  0  0  0  0  0  0  0  0  0  0
    6.7900   -4.2650   21.6000 S   0  0  0  0  0  0  0  0  0  0  0  0
    8.1480   -4.2480   21.1210 O   0  0  0  0  0  0  0  0  0  0  0  0
    5.8930   -4.4610   20.4900 O   0  0  0  0  0  0  0  0  0  0  0  0
    6.4160   -2.6890   22.4070 C   0  0  0  0  0  0  0  0  0  0  0  0
    6.6830   -1.5470   21.4390 C   0  0  0  0  0  0  0  0  0  0  0  0
    5.9040   -1.4650   20.2910 C   0  0  0  0  0  0  0  0  0  0  0  0
    6.1030   -0.4340   19.3770 C   0  0  0  0  0  0  0  0  0  0  0  0
    7.0870    0.5250   19.5910 C   0  0  0  0  0  0  0  0  0  0  0  0
    7.8670    0.4220   20.7320 C   0  0  0  0  0  0  0  0  0  0  0  0
    7.6710   -0.5910   21.6650 C   0  0  0  0  0  0  0  0  0  0  0  0
    8.5580   -0.6080   22.9000 C   0  0  0  0  0  0  0  0  0  0  0  0
    9.9200   -0.1780   22.5550 N   0  0  0  0  0  0  0  0  0  0  0  0
   10.9700   -0.6300   23.3640 C   0  0  0  0  0  0  0  0  0  0  0  0
   10.7410   -1.3430   24.3020 O   0  0  0  0  0  0  0  0  0  0  0  0
   12.4000   -0.2170   23.0550 C   0  0  0  0  0  0  0  0  0  0  0  0
   13.1530   -1.4330   21.9950 Cl  0  0  0  0  0  0  0  0  0  0  0  0
   10.1810    0.6960   21.3980 C   0  0  0  0  0  0  0  0  0  0  0  0
    8.9570    1.4620   20.9260 C   0  0  0  0  0  0  0  0  0  0  0  0
    6.9490   -5.4300   25.3400 C   0  0  0  0  0  0  0  0  0  0  0  0
    5.8550   -6.5610   27.5950 N   0  0  0  0  0  0  0  0  0  0  0  0
    4.7080   -7.0320   28.1040 C   0  0  0  0  0  0  0  0  0  0  0  0
  1  2  3  0
  2  3  1  0
  3  4  2  0
  3 33  1  0
  4  5  1  0
  5  6  2  0
  6  7  1  0
  6 32  1  0
  7  8  1  0
  8  9  2  0
  8 31  1  0
  9 10  1  0
 10 11  1  0
 11 12  1  0
 11 31  2  0
 12 13  1  0
 13 14  2  0
 13 15  2  0
 13 16  1  0
 16 17  1  0
 17 18  2  0
 17 22  1  0
 18 19  1  0
 19 20  2  0
 20 21  1  0
 21 22  2  0
 21 30  1  0
 22 23  1  0
 23 24  1  0
 24 25  1  0
 24 29  1  0
 25 26  2  0
 25 27  1  0
 27 28  1  0
 29 30  1  0
 32 33  2  0
M  END
