NIY-UNK-62612a68-2
     RDKit          3D

 33 36  0  0  1  0  0  0  0  0999 V2000
    1.8950   -7.4970   30.3860 C   0  0  0  0  0  0  0  0  0  0  0  0
    2.9040   -7.0780   29.9130 C   0  0  0  0  0  0  0  0  0  0  0  0
    4.1930   -6.5430   29.3080 C   0  0  0  0  0  0  0  0  0  0  0  0
    4.8880   -5.5280   29.9560 C   0  0  0  0  0  0  0  0  0  0  0  0
    6.0690   -5.0320   29.4110 C   0  0  0  0  0  0  0  0  0  0  0  0
    6.5340   -5.5700   28.2150 C   0  0  0  0  0  0  0  0  0  0  0  0
    7.7220   -5.0600   27.6800 N   0  0  0  0  0  0  0  0  0  0  0  0
    7.9020   -5.0170   26.3020 C   0  0  0  0  0  0  0  0  0  0  0  0
    9.0960   -4.5700   25.8180 C   0  0  0  0  0  0  0  0  0  0  0  0
    8.9290   -4.6580   24.1250 S   0  0  0  0  0  0  0  0  0  0  0  0
    7.3430   -5.2620   24.0580 C   0  0  0  0  0  0  0  0  0  0  0  0
    6.5540   -5.5810   22.7970 C   0  0  0  0  0  0  0  0  0  0  0  0
    6.7430   -4.2290   21.6090 S   0  0  0  0  0  0  0  0  0  0  0  0
    8.2040   -4.1710   21.1250 N   0  0  0  0  0  0  0  0  0  0  0  0
    5.8730   -4.4530   20.4840 O   0  0  0  0  0  0  0  0  0  0  0  0
    6.3090   -2.6620   22.4040 C   0  0  0  0  0  0  0  0  0  0  0  0
    6.5760   -1.5140   21.4430 C   0  0  0  0  0  0  0  0  0  0  0  0
    5.7930   -1.4220   20.2980 C   0  0  0  0  0  0  0  0  0  0  0  0
    5.9910   -0.3860   19.3900 C   0  0  0  0  0  0  0  0  0  0  0  0
    6.9780    0.5690   19.6060 C   0  0  0  0  0  0  0  0  0  0  0  0
    7.7620    0.4570   20.7440 C   0  0  0  0  0  0  0  0  0  0  0  0
    7.5670   -0.5620   21.6710 C   0  0  0  0  0  0  0  0  0  0  0  0
    8.4580   -0.5890   22.9020 C   0  0  0  0  0  0  0  0  0  0  0  0
    9.8200   -0.1610   22.5560 N   0  0  0  0  0  0  0  0  0  0  0  0
   10.8720   -0.6200   23.3580 C   0  0  0  0  0  0  0  0  0  0  0  0
   10.6450   -1.3390   24.2920 O   0  0  0  0  0  0  0  0  0  0  0  0
   12.3010   -0.2090   23.0460 C   0  0  0  0  0  0  0  0  0  0  0  0
   13.0560   -1.4320   21.9960 Cl  0  0  0  0  0  0  0  0  0  0  0  0
   10.0790    0.7200   21.4040 C   0  0  0  0  0  0  0  0  0  0  0  0
    8.8550    1.4920   20.9410 C   0  0  0  0  0  0  0  0  0  0  0  0
    6.9220   -5.3980   25.3500 C   0  0  0  0  0  0  0  0  0  0  0  0
    5.8500   -6.5490   27.6040 N   0  0  0  0  0  0  0  0  0  0  0  0
    4.7110   -7.0380   28.1150 C   0  0  0  0  0  0  0  0  0  0  0  0
  1  2  3  0
  2  3  1  0
  3  4  2  0
  3 33  1  0
  4  5  1  0
  5  6  2  0
  6  7  1  0
  6 32  1  0
  7  8  1  0
  8  9  2  0
  8 31  1  0
  9 10  1  0
 10 11  1  0
 11 12  1  0
 11 31  2  0
 12 13  1  0
 13 14  2  0
 13 15  2  0
 13 16  1  0
 16 17  1  0
 17 18  2  0
 17 22  1  0
 18 19  1  0
 19 20  2  0
 20 21  1  0
 21 22  2  0
 21 30  1  0
 22 23  1  0
 23 24  1  0
 24 25  1  0
 24 29  1  0
 25 26  2  0
 25 27  1  0
 27 28  1  0
 29 30  1  0
 32 33  2  0
M  END
