PAU-WEI-f734c343-2
     RDKit          3D

 35 38  0  0  1  0  0  0  0  0999 V2000
   14.4060    3.7450   22.3650 N   0  0  0  0  0  0  0  0  0  0  0  0
   13.5060    3.1900   22.7900 C   0  0  0  0  0  0  0  0  0  0  0  0
   12.3040    2.4510   23.3570 C   0  0  0  0  0  0  0  0  0  0  0  0
   12.4970    1.4720   24.3260 C   0  0  0  0  0  0  0  0  0  0  0  0
   11.3990    0.7950   24.8470 C   0  0  0  0  0  0  0  0  0  0  0  0
   10.1180    1.0970   24.3980 C   0  0  0  0  0  0  0  0  0  0  0  0
    8.9420    0.3370   24.9880 C   0  0  0  0  0  0  0  0  0  0  0  0
    8.3480   -0.5250   23.9560 N   0  0  0  0  0  0  0  0  0  0  0  0
    7.4690   -1.5140   24.3120 C   0  0  0  0  0  0  0  0  0  0  0  0
    7.1840   -1.6760   25.4670 O   0  0  0  0  0  0  0  0  0  0  0  0
    6.9040   -2.3350   23.3300 N   0  0  0  0  0  0  0  0  0  0  0  0
    5.9620   -3.3920   23.7310 C   0  0  0  0  0  0  0  0  0  0  0  0
    4.9030   -3.6140   22.6620 C   0  0  0  0  0  0  0  0  0  0  0  0
    5.4820   -3.6870   21.3650 O   0  0  0  0  0  0  0  0  0  0  0  0
    6.0760   -2.4460   21.0080 C   0  0  0  0  0  0  0  0  0  0  0  0
    7.2470   -2.1060   21.9180 C   0  0  0  0  0  0  0  0  0  0  0  0
    9.9350    2.0780   23.4280 C   0  0  0  0  0  0  0  0  0  0  0  0
    8.5480    2.4320   22.9160 C   0  0  0  0  0  0  0  0  0  0  0  0
    8.2150    1.5660   21.7120 C   0  0  0  0  0  0  0  0  0  0  0  0
    9.0750    0.7730   21.0180 C   0  0  0  0  0  0  0  0  0  0  0  0
    8.5000    0.0670   19.9280 C   0  0  0  0  0  0  0  0  0  0  0  0
    7.1710    0.3010   19.7600 C   0  0  0  0  0  0  0  0  0  0  0  0
    5.9970   -0.4670   18.3930 Br  0  0  0  0  0  0  0  0  0  0  0  0
    6.6930    1.3950   20.9690 S   0  0  0  0  0  0  0  0  0  0  0  0
    8.5160    3.8480   22.5250 N   0  0  0  0  0  0  0  0  0  0  0  0
    7.1420    4.1430   22.0850 C   0  0  0  0  0  0  0  0  0  0  0  0
    6.9710    5.6040   21.6960 C   0  0  0  0  0  0  0  0  0  0  0  0
    7.5840    6.5020   22.6880 N   0  0  0  0  0  0  0  0  0  0  0  0
    6.9950    7.7520   22.9080 C   0  0  0  0  0  0  0  0  0  0  0  0
    6.0140    8.0700   22.2950 O   0  0  0  0  0  0  0  0  0  0  0  0
    7.5990    8.7070   23.9250 C   0  0  0  0  0  0  0  0  0  0  0  0
    6.7010   10.2440   23.9020 Cl  0  0  0  0  0  0  0  0  0  0  0  0
    8.7790    6.1310   23.4620 C   0  0  0  0  0  0  0  0  0  0  0  0
    8.8340    4.6340   23.7290 C   0  0  0  0  0  0  0  0  0  0  0  0
   11.0270    2.7610   22.9020 C   0  0  0  0  0  0  0  0  0  0  0  0
  1  2  3  0
  2  3  1  0
  3  4  2  0
  3 35  1  0
  4  5  1  0
  5  6  2  0
  6  7  1  0
  6 17  1  0
  7  8  1  0
  8  9  1  0
  9 10  2  0
  9 11  1  0
 11 12  1  0
 11 16  1  0
 12 13  1  0
 13 14  1  0
 14 15  1  0
 15 16  1  0
 17 18  1  0
 17 35  2  0
 18 19  1  0
 18 25  1  0
 19 20  2  0
 19 24  1  0
 20 21  1  0
 21 22  2  0
 22 23  1  0
 22 24  1  0
 25 26  1  0
 25 34  1  0
 26 27  1  0
 27 28  1  0
 28 29  1  0
 28 33  1  0
 29 30  2  0
 29 31  1  0
 31 32  1  0
 33 34  1  0
M  CHG  1  25   1
M  END
