PAU-WEI-b9b69149-1
     RDKit          3D

 26 28  0  0  1  0  0  0  0  0999 V2000
    5.3390   -4.5130   21.3550 O   0  0  0  0  0  0  0  0  0  0  0  0
    6.0970   -3.6410   21.0310 C   0  0  0  0  0  0  0  0  0  0  0  0
    5.8020   -2.7930   19.8050 C   0  0  0  0  0  0  0  0  0  0  0  0
    5.8040   -1.0720   20.2590 Cl  0  0  0  0  0  0  0  0  0  0  0  0
    7.2530   -3.4050   21.7820 N   0  0  0  0  0  0  0  0  0  0  0  0
    7.5190   -4.2380   22.9660 C   0  0  0  0  0  0  0  0  0  0  0  0
    8.2580   -3.4570   24.0430 C   0  0  0  0  0  0  0  0  0  0  0  0
    9.3720   -2.6780   23.4800 N   0  0  0  0  0  0  0  0  0  0  0  0
    9.9840   -1.9440   24.5940 C   0  0  0  0  0  0  0  0  0  0  0  0
    8.9530   -1.0180   25.2180 C   0  0  0  0  0  0  0  0  0  0  0  0
    8.8790   -1.2770   26.7140 C   0  0  0  0  0  0  0  0  0  0  0  0
    8.3740   -2.6900   26.9600 C   0  0  0  0  0  0  0  0  0  0  0  0
    9.2570   -3.7620   26.8700 C   0  0  0  0  0  0  0  0  0  0  0  0
    8.7910   -5.0540   27.0940 C   0  0  0  0  0  0  0  0  0  0  0  0
    7.4520   -5.2660   27.4070 C   0  0  0  0  0  0  0  0  0  0  0  0
    6.5800   -4.1870   27.4940 C   0  0  0  0  0  0  0  0  0  0  0  0
    7.0330   -2.8910   27.2720 C   0  0  0  0  0  0  0  0  0  0  0  0
   11.1550   -1.1230   24.0780 C   0  0  0  0  0  0  0  0  0  0  0  0
   11.4820    0.0820   24.6910 C   0  0  0  0  0  0  0  0  0  0  0  0
   12.5560    0.8210   24.2060 C   0  0  0  0  0  0  0  0  0  0  0  0
   13.3000    0.3680   23.1200 C   0  0  0  0  0  0  0  0  0  0  0  0
   12.9560   -0.8390   22.5210 C   0  0  0  0  0  0  0  0  0  0  0  0
   13.9010   -1.4250   21.1320 Cl  0  0  0  0  0  0  0  0  0  0  0  0
   11.8850   -1.5930   22.9910 C   0  0  0  0  0  0  0  0  0  0  0  0
    8.8360   -1.6720   22.5500 C   0  0  0  0  0  0  0  0  0  0  0  0
    8.1520   -2.3220   21.3560 C   0  0  0  0  0  0  0  0  0  0  0  0
  1  2  2  0
  2  3  1  0
  2  5  1  0
  3  4  1  0
  5  6  1  0
  5 26  1  0
  6  7  1  0
  7  8  1  0
  8  9  1  0
  8 25  1  0
  9 10  1  0
  9 18  1  0
 10 11  1  0
 11 12  1  0
 12 13  2  0
 12 17  1  0
 13 14  1  0
 14 15  2  0
 15 16  1  0
 16 17  2  0
 18 19  2  0
 18 24  1  0
 19 20  1  0
 20 21  2  0
 21 22  1  0
 22 23  1  0
 22 24  2  0
 25 26  1  0
M  END
