PAU-WEI-b9b69149-4
     RDKit          3D

 27 29  0  0  1  0  0  0  0  0999 V2000
   14.3040   -1.5190   20.4910 N   0  0  0  0  0  0  0  0  0  0  0  0
   13.6970   -1.1760   21.3930 C   0  0  0  0  0  0  0  0  0  0  0  0
   12.8880   -0.7170   22.5950 C   0  0  0  0  0  0  0  0  0  0  0  0
   13.2160    0.4780   23.2270 C   0  0  0  0  0  0  0  0  0  0  0  0
   12.4700    0.8900   24.3270 C   0  0  0  0  0  0  0  0  0  0  0  0
   11.4080    0.1240   24.7970 C   0  0  0  0  0  0  0  0  0  0  0  0
   11.0970   -1.0680   24.1500 C   0  0  0  0  0  0  0  0  0  0  0  0
    9.9400   -1.9190   24.6490 C   0  0  0  0  0  0  0  0  0  0  0  0
    8.8830   -1.0210   25.2710 C   0  0  0  0  0  0  0  0  0  0  0  0
    8.7980   -1.2980   26.7630 C   0  0  0  0  0  0  0  0  0  0  0  0
    8.3120   -2.7210   26.9880 C   0  0  0  0  0  0  0  0  0  0  0  0
    9.2100   -3.7790   26.8870 C   0  0  0  0  0  0  0  0  0  0  0  0
    8.7610   -5.0790   27.0930 C   0  0  0  0  0  0  0  0  0  0  0  0
    7.4250   -5.3140   27.3980 C   0  0  0  0  0  0  0  0  0  0  0  0
    6.5380   -4.2500   27.4960 C   0  0  0  0  0  0  0  0  0  0  0  0
    6.9730   -2.9440   27.2920 C   0  0  0  0  0  0  0  0  0  0  0  0
    9.3540   -2.6580   23.5220 N   0  0  0  0  0  0  0  0  0  0  0  0
    8.2360   -3.4500   24.0610 C   0  0  0  0  0  0  0  0  0  0  0  0
    7.5150   -4.2290   22.9720 C   0  0  0  0  0  0  0  0  0  0  0  0
    7.2570   -3.3910   21.7900 N   0  0  0  0  0  0  0  0  0  0  0  0
    6.1010   -3.6340   21.0390 C   0  0  0  0  0  0  0  0  0  0  0  0
    5.3470   -4.5100   21.3650 O   0  0  0  0  0  0  0  0  0  0  0  0
    5.8000   -2.7900   19.8120 C   0  0  0  0  0  0  0  0  0  0  0  0
    5.8040   -1.0670   20.2620 Cl  0  0  0  0  0  0  0  0  0  0  0  0
    8.1580   -2.3030   21.3760 C   0  0  0  0  0  0  0  0  0  0  0  0
    8.8420   -1.6560   22.5710 C   0  0  0  0  0  0  0  0  0  0  0  0
   11.8300   -1.4980   23.0490 C   0  0  0  0  0  0  0  0  0  0  0  0
  1  2  3  0
  2  3  1  0
  3  4  2  0
  3 27  1  0
  4  5  1  0
  5  6  2  0
  6  7  1  0
  7  8  1  0
  7 27  2  0
  8  9  1  0
  8 17  1  0
  9 10  1  0
 10 11  1  0
 11 12  2  0
 11 16  1  0
 12 13  1  0
 13 14  2  0
 14 15  1  0
 15 16  2  0
 17 18  1  0
 17 26  1  0
 18 19  1  0
 19 20  1  0
 20 21  1  0
 20 25  1  0
 21 22  2  0
 21 23  1  0
 23 24  1  0
 25 26  1  0
M  CHG  1  17   1
M  END
