PAU-UNI-b6a619a1-1
     RDKit          3D

 31 34  0  0  1  0  0  0  0  0999 V2000
    8.5490   -1.3100   24.9000 C   0  0  0  0  0  0  0  0  0  0  0  0
    8.3390   -2.1060   23.8940 C   0  0  0  0  0  0  0  0  0  0  0  0
    9.5040   -2.5690   23.0350 C   0  0  0  0  0  0  0  0  0  0  0  0
    9.3710   -1.9810   21.6400 C   0  0  0  0  0  0  0  0  0  0  0  0
    9.6820   -0.5430   21.6820 N   0  0  0  0  0  0  0  0  0  0  0  0
    8.8930    0.4470   21.1830 C   0  0  0  0  0  0  0  0  0  0  0  0
    7.5520    0.2550   20.4930 C   0  0  0  0  0  0  0  0  0  0  0  0
    7.7470   -0.0250   19.0080 C   0  0  0  0  0  0  0  0  0  0  0  0
    6.3700   -0.2260   18.3880 C   0  0  0  0  0  0  0  0  0  0  0  0
    5.4800    1.0020   18.5270 C   0  0  0  0  0  0  0  0  0  0  0  0
    5.5080    1.5450   19.8960 N   0  0  0  0  0  0  0  0  0  0  0  0
    4.3390    2.1270   20.4000 C   0  0  0  0  0  0  0  0  0  0  0  0
    3.3520    2.1770   19.7200 O   0  0  0  0  0  0  0  0  0  0  0  0
    4.3200    2.6950   21.8100 C   0  0  0  0  0  0  0  0  0  0  0  0
    5.7540    3.7210   22.0550 Cl  0  0  0  0  0  0  0  0  0  0  0  0
    6.7070    1.4950   20.7500 C   0  0  0  0  0  0  0  0  0  0  0  0
    9.4850    1.5980   21.3950 N   0  0  0  0  0  0  0  0  0  0  0  0
   10.6680    1.3660   22.0370 C   0  0  0  0  0  0  0  0  0  0  0  0
   11.6550    2.2410   22.4790 C   0  0  0  0  0  0  0  0  0  0  0  0
   12.7950    1.7670   23.1190 C   0  0  0  0  0  0  0  0  0  0  0  0
   12.9390    0.3970   23.3130 C   0  0  0  0  0  0  0  0  0  0  0  0
   11.9430   -0.4650   22.8650 C   0  0  0  0  0  0  0  0  0  0  0  0
   10.8020    0.0120   22.2260 C   0  0  0  0  0  0  0  0  0  0  0  0
    7.0670   -2.5260   23.6080 N   0  0  0  0  0  0  0  0  0  0  0  0
    6.8450   -3.4130   22.5460 C   0  0  0  0  0  0  0  0  0  0  0  0
    6.0990   -3.0300   21.4360 C   0  0  0  0  0  0  0  0  0  0  0  0
    5.8980   -3.8960   20.4310 N   0  0  0  0  0  0  0  0  0  0  0  0
    6.4020   -5.1390   20.4620 C   0  0  0  0  0  0  0  0  0  0  0  0
    7.1560   -5.5750   21.5460 C   0  0  0  0  0  0  0  0  0  0  0  0
    7.3780   -4.6970   22.6000 C   0  0  0  0  0  0  0  0  0  0  0  0
    8.2000   -5.1640   23.7900 C   0  0  0  0  0  0  0  0  0  0  0  0
  1  2  2  0
  2  3  1  0
  2 24  1  0
  3  4  1  0
  4  5  1  0
  5  6  1  0
  5 23  1  0
  6  7  1  0
  6 17  2  0
  7  8  1  0
  7 16  1  0
  8  9  1  0
  9 10  1  0
 10 11  1  0
 11 12  1  0
 11 16  1  0
 12 13  2  0
 12 14  1  0
 14 15  1  0
 17 18  1  0
 18 19  2  0
 18 23  1  0
 19 20  1  0
 20 21  2  0
 21 22  1  0
 22 23  2  0
 24 25  1  0
 25 26  2  0
 25 30  1  0
 26 27  1  0
 27 28  2  0
 28 29  1  0
 29 30  2  0
 30 31  1  0
M  END
