PAU-UNI-b33c5197-1
     RDKit          3D

 30 33  0  0  1  0  0  0  0  0999 V2000
    5.6790   -3.0740   20.1640 O   0  0  0  0  0  0  0  0  0  0  0  0
    6.3480   -2.5800   21.0280 C   0  0  0  0  0  0  0  0  0  0  0  0
    6.8420   -3.4320   22.1860 C   0  0  0  0  0  0  0  0  0  0  0  0
    8.3530   -3.3050   22.3010 C   0  0  0  0  0  0  0  0  0  0  0  0
    8.7330   -3.2370   23.7200 N   0  0  0  0  0  0  0  0  0  0  0  0
    9.6750   -2.4050   24.2420 C   0  0  0  0  0  0  0  0  0  0  0  0
   10.5050   -1.3980   23.4630 C   0  0  0  0  0  0  0  0  0  0  0  0
   11.8010   -2.0320   22.9740 C   0  0  0  0  0  0  0  0  0  0  0  0
   12.5680   -0.9770   22.1880 C   0  0  0  0  0  0  0  0  0  0  0  0
   12.9240    0.2390   23.0320 C   0  0  0  0  0  0  0  0  0  0  0  0
   11.7730    0.7160   23.8160 N   0  0  0  0  0  0  0  0  0  0  0  0
   11.6540    2.0910   24.0470 C   0  0  0  0  0  0  0  0  0  0  0  0
   10.7260    2.5160   24.6780 O   0  0  0  0  0  0  0  0  0  0  0  0
   12.7010    3.0470   23.4980 C   0  0  0  0  0  0  0  0  0  0  0  0
   12.3740    4.6920   24.0940 Cl  0  0  0  0  0  0  0  0  0  0  0  0
   10.7460   -0.1900   24.3580 C   0  0  0  0  0  0  0  0  0  0  0  0
    9.7500   -2.6190   25.5350 N   0  0  0  0  0  0  0  0  0  0  0  0
    8.8530   -3.5940   25.8650 C   0  0  0  0  0  0  0  0  0  0  0  0
    8.5480   -4.1780   27.0900 C   0  0  0  0  0  0  0  0  0  0  0  0
    7.5810   -5.1730   27.1860 C   0  0  0  0  0  0  0  0  0  0  0  0
    6.9170   -5.5820   26.0340 C   0  0  0  0  0  0  0  0  0  0  0  0
    7.2350   -4.9880   24.8160 C   0  0  0  0  0  0  0  0  0  0  0  0
    8.2020   -3.9920   24.7230 C   0  0  0  0  0  0  0  0  0  0  0  0
    6.6680   -1.2490   20.9720 N   0  0  0  0  0  0  0  0  0  0  0  0
    6.2130   -0.4640   19.9050 C   0  0  0  0  0  0  0  0  0  0  0  0
    5.6530    0.7840   20.1480 C   0  0  0  0  0  0  0  0  0  0  0  0
    5.2010    1.5620   19.0880 C   0  0  0  0  0  0  0  0  0  0  0  0
    5.3210    1.0620   17.7950 C   0  0  0  0  0  0  0  0  0  0  0  0
    5.8620   -0.1460   17.5770 N   0  0  0  0  0  0  0  0  0  0  0  0
    6.3030   -0.9070   18.5900 C   0  0  0  0  0  0  0  0  0  0  0  0
  1  2  2  0
  2  3  1  0
  2 24  1  0
  3  4  1  0
  4  5  1  0
  5  6  1  0
  5 23  1  0
  6  7  1  0
  6 17  2  0
  7  8  1  0
  7 16  1  0
  8  9  1  0
  9 10  1  0
 10 11  1  0
 11 12  1  0
 11 16  1  0
 12 13  2  0
 12 14  1  0
 14 15  1  0
 17 18  1  0
 18 19  2  0
 18 23  1  0
 19 20  1  0
 20 21  2  0
 21 22  1  0
 22 23  2  0
 24 25  1  0
 25 26  2  0
 25 30  1  0
 26 27  1  0
 27 28  2  0
 28 29  1  0
 29 30  2  0
M  END
