PED-UNI-b79f0f51-1
     RDKit          3D

 40 43  0  0  1  0  0  0  0  0999 V2000
    5.6800   -3.5140   20.0380 O   0  0  0  0  0  0  0  0  0  0  0  0
    5.8010   -2.3320   20.2040 C   0  0  0  0  0  0  0  0  0  0  0  0
    5.6540   -1.3800   19.0280 C   0  0  0  0  0  0  0  0  0  0  0  0
    7.0200   -0.2390   19.0140 Cl  0  0  0  0  0  0  0  0  0  0  0  0
    6.0760   -1.8290   21.4800 N   0  0  0  0  0  0  0  0  0  0  0  0
    6.2140   -2.7690   22.6050 C   0  0  0  0  0  0  0  0  0  0  0  0
    7.2150   -2.2730   23.6380 C   0  0  0  0  0  0  0  0  0  0  0  0
    7.0400   -0.8430   23.9450 N   0  0  0  0  0  0  0  0  0  0  0  0
    8.3120   -0.4080   25.0810 S   0  0  0  0  0  0  0  0  0  0  0  0
    8.2780   -1.3060   26.2060 O   0  0  0  0  0  0  0  0  0  0  0  0
    8.1060    0.9420   25.5380 O   0  0  0  0  0  0  0  0  0  0  0  0
    9.8590   -0.5230   24.2930 C   0  0  0  0  0  0  0  0  0  0  0  0
   10.1800   -1.6660   23.5670 C   0  0  0  0  0  0  0  0  0  0  0  0
   11.4190   -1.7510   22.9400 C   0  0  0  0  0  0  0  0  0  0  0  0
   12.3240   -0.7000   23.0410 C   0  0  0  0  0  0  0  0  0  0  0  0
   13.9020   -0.8320   22.2300 Cl  0  0  0  0  0  0  0  0  0  0  0  0
   11.9950    0.4400   23.7690 C   0  0  0  0  0  0  0  0  0  0  0  0
   12.9880    1.5860   23.8760 C   0  0  0  0  0  0  0  0  0  0  0  0
   12.3490    2.8600   23.3480 C   0  0  0  0  0  0  0  0  0  0  0  0
   11.4790    3.4480   24.4480 C   0  0  0  0  0  0  0  0  0  0  0  0
   11.0460    4.8090   24.0990 N   0  0  0  0  0  0  0  0  0  0  0  0
    9.7930    5.2650   24.5290 C   0  0  0  0  0  0  0  0  0  0  0  0
    9.0830    4.5470   25.1770 O   0  0  0  0  0  0  0  0  0  0  0  0
    9.3780    6.5310   24.2100 N   0  0  0  0  0  0  0  0  0  0  0  0
    8.0640    7.0100   24.6620 C   0  0  0  0  0  0  0  0  0  0  0  0
    7.2890    7.5580   23.4740 C   0  0  0  0  0  0  0  0  0  0  0  0
    7.3710    6.9060   22.2490 C   0  0  0  0  0  0  0  0  0  0  0  0
    6.6610    7.4090   21.1630 C   0  0  0  0  0  0  0  0  0  0  0  0
    5.8820    8.5520   21.3120 C   0  0  0  0  0  0  0  0  0  0  0  0
    5.1680    9.0560   20.2190 N   0  0  0  0  0  0  0  0  0  0  0  0
    4.5260   10.0760   20.3330 O   0  0  0  0  0  0  0  0  0  0  0  0
    5.1930    8.4680   19.1500 O   0  0  0  0  0  0  0  0  0  0  0  0
    5.8020    9.2020   22.5390 C   0  0  0  0  0  0  0  0  0  0  0  0
    6.5110    8.7010   23.6260 C   0  0  0  0  0  0  0  0  0  0  0  0
   11.8960    5.7070   23.3040 C   0  0  0  0  0  0  0  0  0  0  0  0
   12.7350    4.9150   22.3130 C   0  0  0  0  0  0  0  0  0  0  0  0
   13.3420    3.7880   22.9320 O   0  0  0  0  0  0  0  0  0  0  0  0
   10.7580    0.5330   24.3990 C   0  0  0  0  0  0  0  0  0  0  0  0
    7.2400   -0.0400   22.7270 C   0  0  0  0  0  0  0  0  0  0  0  0
    6.2260   -0.3740   21.6430 C   0  0  0  0  0  0  0  0  0  0  0  0
  1  2  2  0
  2  3  1  0
  2  5  1  0
  3  4  1  0
  5  6  1  0
  5 40  1  0
  6  7  1  0
  7  8  1  0
  8  9  1  0
  8 39  1  0
  9 10  2  0
  9 11  2  0
  9 12  1  0
 12 13  2  0
 12 38  1  0
 13 14  1  0
 14 15  2  0
 15 16  1  0
 15 17  1  0
 17 18  1  0
 17 38  2  0
 18 19  1  0
 19 20  1  0
 19 37  1  0
 20 21  1  0
 21 22  1  0
 21 35  1  0
 22 23  2  0
 22 24  1  0
 24 25  1  0
 25 26  1  0
 26 27  2  0
 26 34  1  0
 27 28  1  0
 28 29  2  0
 29 30  1  0
 29 33  1  0
 30 31  2  0
 30 32  1  0
 33 34  2  0
 35 36  1  0
 36 37  1  0
 39 40  1  0
M  CHG  2  30   1  32  -1
M  END
