SAL-INS-1ea6d4ee-4
     RDKit          3D

 29 31  0  0  1  0  0  0  0  0999 V2000
    7.9290   -4.7480   27.9910 O   0  0  0  0  0  0  0  0  0  0  0  0
    6.8990   -4.9320   27.4030 C   0  0  0  0  0  0  0  0  0  0  0  0
    5.8150   -5.7990   28.0230 C   0  0  0  0  0  0  0  0  0  0  0  0
    6.3610   -6.3870   29.6110 Cl  0  0  0  0  0  0  0  0  0  0  0  0
    6.6970   -4.3490   26.1470 N   0  0  0  0  0  0  0  0  0  0  0  0
    5.4290   -4.5940   25.4400 C   0  0  0  0  0  0  0  0  0  0  0  0
    5.6200   -4.6140   23.9310 C   0  0  0  0  0  0  0  0  0  0  0  0
    6.4670   -3.5030   23.4640 N   0  0  0  0  0  0  0  0  0  0  0  0
    6.6130   -3.6570   21.7170 S   0  0  0  0  0  0  0  0  0  0  0  0
    7.9580   -4.0450   21.3800 O   0  0  0  0  0  0  0  0  0  0  0  0
    5.6920   -4.6580   21.2450 O   0  0  0  0  0  0  0  0  0  0  0  0
    6.2450   -2.1300   20.9680 C   0  0  0  0  0  0  0  0  0  0  0  0
    5.8010   -2.1050   19.6500 C   0  0  0  0  0  0  0  0  0  0  0  0
    5.5050   -0.8880   19.0440 C   0  0  0  0  0  0  0  0  0  0  0  0
    5.6580    0.2900   19.7680 C   0  0  0  0  0  0  0  0  0  0  0  0
    5.2820    1.8530   19.0020 Cl  0  0  0  0  0  0  0  0  0  0  0  0
    6.1020    0.2620   21.0860 C   0  0  0  0  0  0  0  0  0  0  0  0
    6.4000   -0.9540   21.6940 C   0  0  0  0  0  0  0  0  0  0  0  0
    7.8080   -3.6230   24.0600 C   0  0  0  0  0  0  0  0  0  0  0  0
    8.7400   -2.5390   23.5440 C   0  0  0  0  0  0  0  0  0  0  0  0
   10.0390   -2.5680   24.3330 C   0  0  0  0  0  0  0  0  0  0  0  0
   10.9450   -1.4430   23.8610 C   0  0  0  0  0  0  0  0  0  0  0  0
   11.7400   -1.6170   22.7330 C   0  0  0  0  0  0  0  0  0  0  0  0
   12.5690   -0.5870   22.3000 C   0  0  0  0  0  0  0  0  0  0  0  0
   12.6040    0.6170   22.9960 C   0  0  0  0  0  0  0  0  0  0  0  0
   11.8090    0.7910   24.1250 C   0  0  0  0  0  0  0  0  0  0  0  0
   10.9800   -0.2390   24.5570 C   0  0  0  0  0  0  0  0  0  0  0  0
   10.2150   -0.0530   25.6540 O   0  0  0  0  0  0  0  0  0  0  0  0
    7.7680   -3.5160   25.5770 C   0  0  0  0  0  0  0  0  0  0  0  0
  1  2  2  0
  2  3  1  0
  2  5  1  0
  3  4  1  0
  5  6  1  0
  5 29  1  0
  6  7  1  0
  7  8  1  0
  8  9  1  0
  8 19  1  0
  9 10  2  0
  9 11  2  0
  9 12  1  0
 12 13  2  0
 12 18  1  0
 13 14  1  0
 14 15  2  0
 15 16  1  0
 15 17  1  0
 17 18  2  0
 19 20  1  0
 19 29  1  0
 20 21  1  0
 21 22  1  0
 22 23  2  0
 22 27  1  0
 23 24  1  0
 24 25  2  0
 25 26  1  0
 26 27  2  0
 27 28  1  0
M  END
