SEA-TRI-fac72a44-1
     RDKit          3D

 30 33  0  0  1  0  0  0  0  0999 V2000
    6.6630    2.5380   21.3840 O   0  0  0  0  0  0  0  0  0  0  0  0
    7.1750    1.4640   21.2280 C   0  0  0  0  0  0  0  0  0  0  0  0
    6.3700    0.3160   20.6400 C   0  0  0  0  0  0  0  0  0  0  0  0
    6.0780    0.6200   18.9110 Cl  0  0  0  0  0  0  0  0  0  0  0  0
    8.5140    1.2680   21.5870 N   0  0  0  0  0  0  0  0  0  0  0  0
    9.0920   -0.0670   21.3750 C   0  0  0  0  0  0  0  0  0  0  0  0
   10.2460   -0.2510   22.3490 C   0  0  0  0  0  0  0  0  0  0  0  0
   10.4850   -1.4880   22.9420 C   0  0  0  0  0  0  0  0  0  0  0  0
    9.7180   -2.5690   22.6840 O   0  0  0  0  0  0  0  0  0  0  0  0
    8.9520   -3.1610   23.7230 C   0  0  0  0  0  0  0  0  0  0  0  0
    8.2870   -4.4260   23.2060 C   0  0  0  0  0  0  0  0  0  0  0  0
    7.6840   -4.1600   21.8900 N   0  0  0  0  0  0  0  0  0  0  0  0
    6.9320   -5.3190   21.3850 C   0  0  0  0  0  0  0  0  0  0  0  0
    6.3340   -5.0110   20.0220 C   0  0  0  0  0  0  0  0  0  0  0  0
    5.5000   -3.8630   20.0950 O   0  0  0  0  0  0  0  0  0  0  0  0
    6.2030   -2.7200   20.5600 C   0  0  0  0  0  0  0  0  0  0  0  0
    6.7970   -2.9880   21.9340 C   0  0  0  0  0  0  0  0  0  0  0  0
   11.5440   -1.6320   23.8300 C   0  0  0  0  0  0  0  0  0  0  0  0
   12.3760   -0.5640   24.1440 C   0  0  0  0  0  0  0  0  0  0  0  0
   12.1220    0.6630   23.5450 C   0  0  0  0  0  0  0  0  0  0  0  0
   11.0670    0.8260   22.6550 C   0  0  0  0  0  0  0  0  0  0  0  0
   10.7910    2.1720   22.0050 C   0  0  0  0  0  0  0  0  0  0  0  0
   11.4560    3.3450   22.7080 C   0  0  0  0  0  0  0  0  0  0  0  0
   11.2510    3.5440   24.0700 C   0  0  0  0  0  0  0  0  0  0  0  0
   11.8670    4.6220   24.6970 C   0  0  0  0  0  0  0  0  0  0  0  0
   12.6780    5.4950   23.9810 C   0  0  0  0  0  0  0  0  0  0  0  0
   12.8690    5.2790   22.6200 C   0  0  0  0  0  0  0  0  0  0  0  0
   13.9040    6.3930   21.6950 Cl  0  0  0  0  0  0  0  0  0  0  0  0
   12.2630    4.2070   21.9730 C   0  0  0  0  0  0  0  0  0  0  0  0
    9.2930    2.3780   22.1580 C   0  0  0  0  0  0  0  0  0  0  0  0
  1  2  2  0
  2  3  1  0
  2  5  1  0
  3  4  1  0
  5  6  1  0
  5 30  1  0
  6  7  1  0
  7  8  1  0
  7 21  2  0
  8  9  1  0
  8 18  2  0
  9 10  1  0
 10 11  1  0
 11 12  1  0
 12 13  1  0
 12 17  1  0
 13 14  1  0
 14 15  1  0
 15 16  1  0
 16 17  1  0
 18 19  1  0
 19 20  2  0
 20 21  1  0
 21 22  1  0
 22 23  1  0
 22 30  1  0
 23 24  2  0
 23 29  1  0
 24 25  1  0
 25 26  2  0
 26 27  1  0
 27 28  1  0
 27 29  2  0
M  END
