SEA-TRI-078a8df3-1
     RDKit          3D

 30 33  0  0  1  0  0  0  0  0999 V2000
   13.8820   -1.3720   21.8730 C   0  0  0  0  0  0  0  0  0  0  0  0
   12.7220   -0.7990   21.9950 C   0  0  0  0  0  0  0  0  0  0  0  0
   12.4030    0.0130   23.2400 C   0  0  0  0  0  0  0  0  0  0  0  0
   13.2700    0.2620   24.0320 O   0  0  0  0  0  0  0  0  0  0  0  0
   11.0990    0.4710   23.4620 N   0  0  0  0  0  0  0  0  0  0  0  0
   10.0330    0.1700   22.4950 C   0  0  0  0  0  0  0  0  0  0  0  0
    9.0450    1.3210   22.3090 C   0  0  0  0  0  0  0  0  0  0  0  0
    8.1300    1.3140   21.2560 C   0  0  0  0  0  0  0  0  0  0  0  0
    8.0910    0.2970   20.3690 O   0  0  0  0  0  0  0  0  0  0  0  0
    6.9170    0.0660   19.6050 C   0  0  0  0  0  0  0  0  0  0  0  0
    5.8200   -0.4700   20.5100 C   0  0  0  0  0  0  0  0  0  0  0  0
    6.1400   -1.8520   20.9030 N   0  0  0  0  0  0  0  0  0  0  0  0
    5.2050   -2.3670   21.9150 C   0  0  0  0  0  0  0  0  0  0  0  0
    5.5740   -3.7900   22.3030 C   0  0  0  0  0  0  0  0  0  0  0  0
    5.5860   -4.6280   21.1560 O   0  0  0  0  0  0  0  0  0  0  0  0
    6.4960   -4.1690   20.1670 C   0  0  0  0  0  0  0  0  0  0  0  0
    6.1420   -2.7530   19.7410 C   0  0  0  0  0  0  0  0  0  0  0  0
    7.2210    2.3520   21.0750 C   0  0  0  0  0  0  0  0  0  0  0  0
    7.2230    3.4230   21.9620 C   0  0  0  0  0  0  0  0  0  0  0  0
    8.1250    3.4560   23.0180 C   0  0  0  0  0  0  0  0  0  0  0  0
    9.0260    2.4080   23.1790 C   0  0  0  0  0  0  0  0  0  0  0  0
    9.9750    2.5170   24.3680 C   0  0  0  0  0  0  0  0  0  0  0  0
   11.0350    3.5500   24.0200 C   0  0  0  0  0  0  0  0  0  0  0  0
   11.9520    3.2890   23.0070 C   0  0  0  0  0  0  0  0  0  0  0  0
   12.9150    4.2460   22.7020 C   0  0  0  0  0  0  0  0  0  0  0  0
   12.9680    5.4510   23.3940 C   0  0  0  0  0  0  0  0  0  0  0  0
   12.0410    5.6920   24.4040 C   0  0  0  0  0  0  0  0  0  0  0  0
   12.1020    7.2310   25.2960 Cl  0  0  0  0  0  0  0  0  0  0  0  0
   11.0700    4.7490   24.7250 C   0  0  0  0  0  0  0  0  0  0  0  0
   10.7900    1.2640   24.6640 C   0  0  0  0  0  0  0  0  0  0  0  0
  1  2  2  0
  2  3  1  0
  3  4  2  0
  3  5  1  0
  5  6  1  0
  5 30  1  0
  6  7  1  0
  7  8  1  0
  7 21  2  0
  8  9  1  0
  8 18  2  0
  9 10  1  0
 10 11  1  0
 11 12  1  0
 12 13  1  0
 12 17  1  0
 13 14  1  0
 14 15  1  0
 15 16  1  0
 16 17  1  0
 18 19  1  0
 19 20  2  0
 20 21  1  0
 21 22  1  0
 22 23  1  0
 22 30  1  0
 23 24  2  0
 23 29  1  0
 24 25  1  0
 25 26  2  0
 26 27  1  0
 27 28  1  0
 27 29  2  0
M  END
