SEA-TRI-38830027-1
     RDKit          3D

 29 32  0  0  1  0  0  0  0  0999 V2000
    5.9680   -3.9100   20.2310 O   0  0  0  0  0  0  0  0  0  0  0  0
    6.4070   -4.4680   21.1980 C   0  0  0  0  0  0  0  0  0  0  0  0
    5.8980   -5.8500   21.5750 C   0  0  0  0  0  0  0  0  0  0  0  0
    4.7010   -5.7040   22.8840 Cl  0  0  0  0  0  0  0  0  0  0  0  0
    7.3890   -3.8470   21.9790 N   0  0  0  0  0  0  0  0  0  0  0  0
    7.8940   -4.5740   23.1530 C   0  0  0  0  0  0  0  0  0  0  0  0
    8.4180   -3.5610   24.1570 C   0  0  0  0  0  0  0  0  0  0  0  0
    8.2480   -3.7600   25.5240 C   0  0  0  0  0  0  0  0  0  0  0  0
    7.6180   -4.8480   26.0190 O   0  0  0  0  0  0  0  0  0  0  0  0
    7.0950   -4.8270   27.3390 C   0  0  0  0  0  0  0  0  0  0  0  0
    6.1240   -5.9820   27.5180 C   0  0  0  0  0  0  0  0  0  0  0  0
    5.6570   -6.0190   28.9140 N   0  0  0  0  0  0  0  0  0  0  0  0
    4.4420   -6.8340   29.0660 C   0  0  0  0  0  0  0  0  0  0  0  0
    3.9840   -6.8380   30.5160 C   0  0  0  0  0  0  0  0  0  0  0  0
    5.0210   -7.3170   31.3610 O   0  0  0  0  0  0  0  0  0  0  0  0
    6.2040   -6.5380   31.2520 C   0  0  0  0  0  0  0  0  0  0  0  0
    6.7010   -6.5300   29.8150 C   0  0  0  0  0  0  0  0  0  0  0  0
    8.7350   -2.8190   26.4230 C   0  0  0  0  0  0  0  0  0  0  0  0
    9.3930   -1.6740   25.9890 C   0  0  0  0  0  0  0  0  0  0  0  0
    9.5530   -1.4910   24.6220 C   0  0  0  0  0  0  0  0  0  0  0  0
    9.0720   -2.4210   23.7070 C   0  0  0  0  0  0  0  0  0  0  0  0
    9.2480   -2.2130   22.2120 C   0  0  0  0  0  0  0  0  0  0  0  0
    9.5800   -0.7820   21.8230 C   0  0  0  0  0  0  0  0  0  0  0  0
    8.7220    0.1100   21.2550 C   0  0  0  0  0  0  0  0  0  0  0  0
    9.3960    1.2220   21.0820 O   0  0  0  0  0  0  0  0  0  0  0  0
   10.6390    1.1090   21.5020 C   0  0  0  0  0  0  0  0  0  0  0  0
   10.8280   -0.1500   21.9940 C   0  0  0  0  0  0  0  0  0  0  0  0
   12.3150   -0.8390   22.6900 Cl  0  0  0  0  0  0  0  0  0  0  0  0
    7.8810   -2.5090   21.6150 C   0  0  0  0  0  0  0  0  0  0  0  0
  1  2  2  0
  2  3  1  0
  2  5  1  0
  3  4  1  0
  5  6  1  0
  5 29  1  0
  6  7  1  0
  7  8  1  0
  7 21  2  0
  8  9  1  0
  8 18  2  0
  9 10  1  0
 10 11  1  0
 11 12  1  0
 12 13  1  0
 12 17  1  0
 13 14  1  0
 14 15  1  0
 15 16  1  0
 16 17  1  0
 18 19  1  0
 19 20  2  0
 20 21  1  0
 21 22  1  0
 22 23  1  0
 22 29  1  0
 23 24  2  0
 23 27  1  0
 24 25  1  0
 25 26  1  0
 26 27  2  0
 27 28  1  0
M  END
