SEA-TRI-6cb4f71a-1
     RDKit          3D

 30 32  0  0  1  0  0  0  0  0999 V2000
    5.2640   -6.2380   23.5760 C   0  0  0  0  0  0  0  0  0  0  0  0
    6.1080   -6.4700   22.6150 C   0  0  0  0  0  0  0  0  0  0  0  0
    6.7100   -5.1510   21.6480 S   0  0  0  0  0  0  0  0  0  0  0  0
    5.6370   -4.6040   20.8600 O   0  0  0  0  0  0  0  0  0  0  0  0
    7.7500   -5.6320   20.7740 O   0  0  0  0  0  0  0  0  0  0  0  0
    7.3620   -3.9000   22.7010 N   0  0  0  0  0  0  0  0  0  0  0  0
    7.9580   -4.5040   23.9020 C   0  0  0  0  0  0  0  0  0  0  0  0
    8.4940   -3.4230   24.8260 C   0  0  0  0  0  0  0  0  0  0  0  0
    9.4810   -2.5880   24.1260 N   0  0  0  0  0  0  0  0  0  0  0  0
   10.0400   -1.5500   25.0070 C   0  0  0  0  0  0  0  0  0  0  0  0
   11.0820   -0.7460   24.2460 C   0  0  0  0  0  0  0  0  0  0  0  0
   11.8680   -1.3810   23.2910 C   0  0  0  0  0  0  0  0  0  0  0  0
   12.8180   -0.6360   22.6000 C   0  0  0  0  0  0  0  0  0  0  0  0
   13.8340   -1.4320   21.3740 Cl  0  0  0  0  0  0  0  0  0  0  0  0
   12.9880    0.7210   22.8500 C   0  0  0  0  0  0  0  0  0  0  0  0
   12.1880    1.3320   23.8100 C   0  0  0  0  0  0  0  0  0  0  0  0
   12.3620    2.8150   24.0950 C   0  0  0  0  0  0  0  0  0  0  0  0
   12.3600    3.5860   22.7850 C   0  0  0  0  0  0  0  0  0  0  0  0
   12.9750    5.2640   23.0710 S   0  0  0  0  0  0  0  0  0  0  0  0
   14.5080    5.1940   23.6210 N   0  0  0  0  0  0  0  0  0  0  0  0
   12.9410    6.0050   21.8370 O   0  0  0  0  0  0  0  0  0  0  0  0
   12.1440    5.9200   24.0470 O   0  0  0  0  0  0  0  0  0  0  0  0
   11.2300    0.6100   24.5150 C   0  0  0  0  0  0  0  0  0  0  0  0
    8.9250   -0.6240   25.4720 C   0  0  0  0  0  0  0  0  0  0  0  0
    8.3000   -0.6340   26.6800 C   0  0  0  0  0  0  0  0  0  0  0  0
    7.3020    0.3720   26.7990 C   0  0  0  0  0  0  0  0  0  0  0  0
    7.1170    1.1760   25.7140 C   0  0  0  0  0  0  0  0  0  0  0  0
    8.2290    0.6240   24.5490 S   0  0  0  0  0  0  0  0  0  0  0  0
    8.8880   -1.9880   22.9210 C   0  0  0  0  0  0  0  0  0  0  0  0
    8.3520   -3.0710   21.9980 C   0  0  0  0  0  0  0  0  0  0  0  0
  1  2  2  0
  2  3  1  0
  3  4  2  0
  3  5  2  0
  3  6  1  0
  6  7  1  0
  6 30  1  0
  7  8  1  0
  8  9  1  0
  9 10  1  0
  9 29  1  0
 10 11  1  0
 10 24  1  0
 11 12  2  0
 11 23  1  0
 12 13  1  0
 13 14  1  0
 13 15  2  0
 15 16  1  0
 16 17  1  0
 16 23  2  0
 17 18  1  0
 18 19  1  0
 19 20  1  0
 19 21  2  0
 19 22  2  0
 24 25  2  0
 24 28  1  0
 25 26  1  0
 26 27  2  0
 27 28  1  0
 29 30  1  0
M  END
