SEL-UNI-49ab05bd-6
     RDKit          3D

 37 40  0  0  1  0  0  0  0  0999 V2000
   12.4380    4.0320   22.5950 C   0  0  0  0  0  0  0  0  0  0  0  0
   12.1170    2.8860   22.6250 C   0  0  0  0  0  0  0  0  0  0  0  0
   11.7060    1.4230   22.6630 C   0  0  0  0  0  0  0  0  0  0  0  0
   12.4390    0.5150   23.3240 N   0  0  0  0  0  0  0  0  0  0  0  0
   12.0620   -0.7720   23.3450 C   0  0  0  0  0  0  0  0  0  0  0  0
   10.9480   -1.1540   22.7040 N   0  0  0  0  0  0  0  0  0  0  0  0
   10.1810   -0.2780   22.0320 C   0  0  0  0  0  0  0  0  0  0  0  0
   10.5530    1.0430   21.9980 C   0  0  0  0  0  0  0  0  0  0  0  0
    9.6390    1.7390   21.2610 N   0  0  0  0  0  0  0  0  0  0  0  0
    8.7290    0.8910   20.8480 C   0  0  0  0  0  0  0  0  0  0  0  0
    7.5230    1.2470   19.9940 C   0  0  0  0  0  0  0  0  0  0  0  0
    7.3660    0.2580   18.8480 C   0  0  0  0  0  0  0  0  0  0  0  0
    6.1790    0.7200   18.0130 C   0  0  0  0  0  0  0  0  0  0  0  0
    4.8780    0.7340   18.8050 C   0  0  0  0  0  0  0  0  0  0  0  0
    5.0440    1.3650   20.1250 N   0  0  0  0  0  0  0  0  0  0  0  0
    3.9630    2.0700   20.6660 C   0  0  0  0  0  0  0  0  0  0  0  0
    4.0670    2.5970   21.7380 O   0  0  0  0  0  0  0  0  0  0  0  0
    2.6570    2.1670   19.8940 C   0  0  0  0  0  0  0  0  0  0  0  0
    1.5200    3.2110   20.7800 Cl  0  0  0  0  0  0  0  0  0  0  0  0
    6.2970    1.2870   20.8950 C   0  0  0  0  0  0  0  0  0  0  0  0
    9.0340   -0.3570   21.3020 N   0  0  0  0  0  0  0  0  0  0  0  0
    8.2550   -1.5780   21.0490 C   0  0  0  0  0  0  0  0  0  0  0  0
    7.2820   -1.8050   22.1940 C   0  0  0  0  0  0  0  0  0  0  0  0
    6.4440   -0.9830   22.4420 O   0  0  0  0  0  0  0  0  0  0  0  0
    7.3710   -3.0740   23.0260 C   0  0  0  0  0  0  0  0  0  0  0  0
    8.6470   -3.0500   23.8520 C   0  0  0  0  0  0  0  0  0  0  0  0
    8.4440   -3.8600   25.1220 C   0  0  0  0  0  0  0  0  0  0  0  0
    9.5490   -4.2400   25.8760 C   0  0  0  0  0  0  0  0  0  0  0  0
    9.3680   -4.9810   27.0390 C   0  0  0  0  0  0  0  0  0  0  0  0
    8.0810   -5.3320   27.4340 C   0  0  0  0  0  0  0  0  0  0  0  0
    7.9010   -6.0520   28.5620 O   0  0  0  0  0  0  0  0  0  0  0  0
    6.9720   -4.9550   26.6840 C   0  0  0  0  0  0  0  0  0  0  0  0
    7.1590   -4.2140   25.5220 C   0  0  0  0  0  0  0  0  0  0  0  0
    7.3850   -4.2440   22.1360 N   0  0  0  0  0  0  0  0  0  0  0  0
    6.3860   -4.4150   21.2140 C   0  0  0  0  0  0  0  0  0  0  0  0
    6.4010   -5.6250   20.2940 C   0  0  0  0  0  0  0  0  0  0  0  0
    5.5000   -3.6100   21.1340 O   0  0  0  0  0  0  0  0  0  0  0  0
  1  2  3  0
  2  3  1  0
  3  4  2  0
  3  8  1  0
  4  5  1  0
  5  6  2  0
  6  7  1  0
  7  8  2  0
  7 21  1  0
  8  9  1  0
  9 10  2  0
 10 11  1  0
 10 21  1  0
 11 12  1  0
 11 20  1  0
 12 13  1  0
 13 14  1  0
 14 15  1  0
 15 16  1  0
 15 20  1  0
 16 17  2  0
 16 18  1  0
 18 19  1  0
 21 22  1  0
 22 23  1  0
 23 24  2  0
 23 25  1  0
 25 26  1  0
 25 34  1  0
 26 27  1  0
 27 28  2  0
 27 33  1  0
 28 29  1  0
 29 30  2  0
 30 31  1  0
 30 32  1  0
 32 33  2  0
 34 35  1  0
 35 36  1  0
 35 37  2  0
M  END
