SEL-UNI-49ab05bd-7
     RDKit          3D

 32 35  0  0  1  0  0  0  0  0999 V2000
    9.0920   -5.0320   27.4080 C   0  0  0  0  0  0  0  0  0  0  0  0
    8.5060   -4.9700   26.3740 C   0  0  0  0  0  0  0  0  0  0  0  0
    7.7580   -4.8900   25.0530 C   0  0  0  0  0  0  0  0  0  0  0  0
    6.6290   -5.5850   24.8540 N   0  0  0  0  0  0  0  0  0  0  0  0
    5.9830   -5.5030   23.6810 C   0  0  0  0  0  0  0  0  0  0  0  0
    6.4660   -4.7230   22.7030 N   0  0  0  0  0  0  0  0  0  0  0  0
    7.5920   -4.0060   22.8600 C   0  0  0  0  0  0  0  0  0  0  0  0
    8.2680   -4.0790   24.0530 C   0  0  0  0  0  0  0  0  0  0  0  0
    9.3730   -3.2810   23.9830 N   0  0  0  0  0  0  0  0  0  0  0  0
    9.3930   -2.7280   22.7950 C   0  0  0  0  0  0  0  0  0  0  0  0
   10.4560   -1.7630   22.2960 C   0  0  0  0  0  0  0  0  0  0  0  0
   11.7900   -2.0320   22.9790 C   0  0  0  0  0  0  0  0  0  0  0  0
   12.8070   -1.0460   22.4190 C   0  0  0  0  0  0  0  0  0  0  0  0
   12.4240    0.4040   22.6810 C   0  0  0  0  0  0  0  0  0  0  0  0
   11.0120    0.6640   22.3530 N   0  0  0  0  0  0  0  0  0  0  0  0
   10.6720    1.9230   21.8470 C   0  0  0  0  0  0  0  0  0  0  0  0
    9.5320    2.1680   21.5650 O   0  0  0  0  0  0  0  0  0  0  0  0
   11.7460    2.9810   21.6550 C   0  0  0  0  0  0  0  0  0  0  0  0
   12.6020    3.2440   23.1940 Cl  0  0  0  0  0  0  0  0  0  0  0  0
    9.9530   -0.3450   22.5300 C   0  0  0  0  0  0  0  0  0  0  0  0
    8.3140   -3.1540   22.0800 N   0  0  0  0  0  0  0  0  0  0  0  0
    7.9860   -2.7590   20.7020 C   0  0  0  0  0  0  0  0  0  0  0  0
    6.4900   -2.5160   20.5870 C   0  0  0  0  0  0  0  0  0  0  0  0
    5.7920   -3.3230   20.0360 O   0  0  0  0  0  0  0  0  0  0  0  0
    5.8780   -1.2530   21.1690 C   0  0  0  0  0  0  0  0  0  0  0  0
    5.9650   -0.1660   20.1820 N   0  0  0  0  0  0  0  0  0  0  0  0
    4.9600    0.8000   20.0760 C   0  0  0  0  0  0  0  0  0  0  0  0
    4.7650    1.4460   18.9420 C   0  0  0  0  0  0  0  0  0  0  0  0
    3.7820    2.4380   18.8340 N   0  0  0  0  0  0  0  0  0  0  0  0
    5.6090    1.1020   17.8120 C   0  0  0  0  0  0  0  0  0  0  0  0
    6.6860    0.4410   17.9600 N   0  0  0  0  0  0  0  0  0  0  0  0
    7.1160   -0.0590   19.2740 C   0  0  0  0  0  0  0  0  0  0  0  0
  1  2  3  0
  2  3  1  0
  3  4  2  0
  3  8  1  0
  4  5  1  0
  5  6  2  0
  6  7  1  0
  7  8  2  0
  7 21  1  0
  8  9  1  0
  9 10  2  0
 10 11  1  0
 10 21  1  0
 11 12  1  0
 11 20  1  0
 12 13  1  0
 13 14  1  0
 14 15  1  0
 15 16  1  0
 15 20  1  0
 16 17  2  0
 16 18  1  0
 18 19  1  0
 21 22  1  0
 22 23  1  0
 23 24  2  0
 23 25  1  0
 25 26  1  0
 26 27  1  0
 26 32  1  0
 27 28  2  0
 28 29  1  0
 28 30  1  0
 30 31  2  0
 31 32  1  0
M  END
