SIM-SYN-7db9eb24-1
     RDKit          3D

 27 29  0  0  1  0  0  0  0  0999 V2000
    5.8000   -3.3890   20.0520 O   0  0  0  0  0  0  0  0  0  0  0  0
    6.0110   -2.3500   20.6130 C   0  0  0  0  0  0  0  0  0  0  0  0
    6.3200   -2.3430   21.9480 N   0  0  0  0  0  0  0  0  0  0  0  0
    6.3930   -3.6090   22.6920 C   0  0  0  0  0  0  0  0  0  0  0  0
    5.0070   -3.8890   23.2550 C   0  0  0  0  0  0  0  0  0  0  0  0
    4.9740   -5.1470   24.1110 C   0  0  0  0  0  0  0  0  0  0  0  0
    6.1090   -5.2080   25.0470 N   0  0  0  0  0  0  0  0  0  0  0  0
    5.9180   -5.8300   26.2850 C   0  0  0  0  0  0  0  0  0  0  0  0
    6.8230   -5.8920   27.0710 O   0  0  0  0  0  0  0  0  0  0  0  0
    4.5640   -6.4260   26.6350 C   0  0  0  0  0  0  0  0  0  0  0  0
    3.9920   -7.4330   25.2830 Cl  0  0  0  0  0  0  0  0  0  0  0  0
    7.4340   -4.6430   24.7460 C   0  0  0  0  0  0  0  0  0  0  0  0
    7.3360   -3.4030   23.8690 C   0  0  0  0  0  0  0  0  0  0  0  0
    8.6890   -3.0640   23.4010 N   0  0  0  0  0  0  0  0  0  0  0  0
    9.4990   -2.6030   24.5380 C   0  0  0  0  0  0  0  0  0  0  0  0
   10.5930   -1.6740   24.0370 C   0  0  0  0  0  0  0  0  0  0  0  0
   11.3440   -2.0310   22.9220 C   0  0  0  0  0  0  0  0  0  0  0  0
   12.3440   -1.1790   22.4680 C   0  0  0  0  0  0  0  0  0  0  0  0
   12.5870    0.0220   23.1260 C   0  0  0  0  0  0  0  0  0  0  0  0
   11.8310    0.3690   24.2390 C   0  0  0  0  0  0  0  0  0  0  0  0
   10.8280   -0.4760   24.7040 C   0  0  0  0  0  0  0  0  0  0  0  0
    5.9390   -1.1010   19.8790 C   0  0  0  0  0  0  0  0  0  0  0  0
    5.9380    0.1060   20.5710 C   0  0  0  0  0  0  0  0  0  0  0  0
    5.8680    1.3010   19.8630 C   0  0  0  0  0  0  0  0  0  0  0  0
    5.8000    1.2840   18.4740 C   0  0  0  0  0  0  0  0  0  0  0  0
    5.8020    0.0730   17.7940 C   0  0  0  0  0  0  0  0  0  0  0  0
    5.8710   -1.1300   18.4900 C   0  0  0  0  0  0  0  0  0  0  0  0
  1  2  2  0
  2  3  1  0
  2 22  1  0
  3  4  1  0
  4  5  1  0
  4 13  1  0
  5  6  1  0
  6  7  1  0
  7  8  1  0
  7 12  1  0
  8  9  2  0
  8 10  1  0
 10 11  1  0
 12 13  1  0
 13 14  1  0
 14 15  1  0
 15 16  1  0
 16 17  2  0
 16 21  1  0
 17 18  1  0
 18 19  2  0
 19 20  1  0
 20 21  2  0
 22 23  2  0
 22 27  1  0
 23 24  1  0
 24 25  2  0
 25 26  1  0
 26 27  2  0
M  CHG  1  14   1
M  END
