STE-KUL-2e0d2e88-6
     RDKit          3D

 24 26  0  0  1  0  0  0  0  0999 V2000
    5.5000   -3.9430   20.1180 O   0  0  0  0  0  0  0  0  0  0  0  0
    6.4020   -3.3720   20.6650 C   0  0  0  0  0  0  0  0  0  0  0  0
    7.3110   -4.1260   21.6220 C   0  0  0  0  0  0  0  0  0  0  0  0
    6.8640   -5.8500   21.6290 Cl  0  0  0  0  0  0  0  0  0  0  0  0
    6.6180   -2.0100   20.4220 N   0  0  0  0  0  0  0  0  0  0  0  0
    5.7190   -1.3150   19.4860 C   0  0  0  0  0  0  0  0  0  0  0  0
    6.4400   -0.2180   18.7150 C   0  0  0  0  0  0  0  0  0  0  0  0
    7.2870    0.6670   19.6200 C   0  0  0  0  0  0  0  0  0  0  0  0
    8.3440   -0.2290   20.2500 C   0  0  0  0  0  0  0  0  0  0  0  0
    9.2480    0.5590   21.1010 N   0  0  0  0  0  0  0  0  0  0  0  0
   10.2810    0.0630   21.8310 C   0  0  0  0  0  0  0  0  0  0  0  0
   10.8170    1.1510   22.4460 C   0  0  0  0  0  0  0  0  0  0  0  0
   12.0070    1.1460   23.3900 C   0  0  0  0  0  0  0  0  0  0  0  0
   12.7470    2.3470   23.2260 O   0  0  0  0  0  0  0  0  0  0  0  0
   11.9720    3.4460   23.6830 C   0  0  0  0  0  0  0  0  0  0  0  0
   12.6550    4.7460   23.2890 C   0  0  0  0  0  0  0  0  0  0  0  0
   12.6530    5.8200   24.1720 C   0  0  0  0  0  0  0  0  0  0  0  0
   13.2780    7.0080   23.8070 C   0  0  0  0  0  0  0  0  0  0  0  0
   13.9000    7.1150   22.5680 C   0  0  0  0  0  0  0  0  0  0  0  0
   13.8960    6.0340   21.6940 C   0  0  0  0  0  0  0  0  0  0  0  0
   13.2740    4.8420   22.0470 C   0  0  0  0  0  0  0  0  0  0  0  0
   10.0980    2.2460   22.0690 N   0  0  0  0  0  0  0  0  0  0  0  0
    9.1890    1.8550   21.2820 N   0  0  0  0  0  0  0  0  0  0  0  0
    7.7320   -1.3310   21.1050 C   0  0  0  0  0  0  0  0  0  0  0  0
  1  2  2  0
  2  3  1  0
  2  5  1  0
  3  4  1  0
  5  6  1  0
  5 24  1  0
  6  7  1  0
  7  8  1  0
  8  9  1  0
  9 10  1  0
  9 24  1  0
 10 11  1  0
 10 23  1  0
 11 12  2  0
 12 13  1  0
 12 22  1  0
 13 14  1  0
 14 15  1  0
 15 16  1  0
 16 17  2  0
 16 21  1  0
 17 18  1  0
 18 19  2  0
 19 20  1  0
 20 21  2  0
 22 23  2  0
M  END
