STU-CHA-0f79177c-1
     RDKit          3D

 25 27  0  0  0  0  0  0  0  0999 V2000
    6.8840   -7.9550   30.1320 N   0  0  0  0  0  0  0  0  0  0  0  0
    5.9810   -6.7120   30.6760 S   0  0  0  0  0  0  0  0  0  0  0  0
    6.8280   -5.7640   31.3540 O   0  0  0  0  0  0  0  0  0  0  0  0
    4.9850   -7.2060   31.5910 O   0  0  0  0  0  0  0  0  0  0  0  0
    5.1670   -5.9010   29.2780 C   0  0  0  0  0  0  0  0  0  0  0  0
    6.1970   -5.5780   28.2090 C   0  0  0  0  0  0  0  0  0  0  0  0
    7.3950   -5.0910   28.4330 N   0  0  0  0  0  0  0  0  0  0  0  0
    8.0240   -4.9380   27.2320 C   0  0  0  0  0  0  0  0  0  0  0  0
    9.2920   -4.4620   26.9120 C   0  0  0  0  0  0  0  0  0  0  0  0
    9.7160   -4.4000   25.5890 C   0  0  0  0  0  0  0  0  0  0  0  0
    8.8540   -4.8210   24.5810 C   0  0  0  0  0  0  0  0  0  0  0  0
    7.5900   -5.2940   24.9150 C   0  0  0  0  0  0  0  0  0  0  0  0
    6.6880   -5.7430   23.7760 C   0  0  0  0  0  0  0  0  0  0  0  0
    6.9560   -4.9230   22.5870 N   0  0  0  0  0  0  0  0  0  0  0  0
    6.1770   -5.5050   21.4830 C   0  0  0  0  0  0  0  0  0  0  0  0
    6.3480   -4.7100   20.1960 C   0  0  0  0  0  0  0  0  0  0  0  0
    6.2330   -3.2630   20.4380 N   0  0  0  0  0  0  0  0  0  0  0  0
    5.6990   -2.4480   19.4350 C   0  0  0  0  0  0  0  0  0  0  0  0
    5.3430   -2.9300   18.3950 O   0  0  0  0  0  0  0  0  0  0  0  0
    5.5700   -0.9500   19.6610 C   0  0  0  0  0  0  0  0  0  0  0  0
    5.8010   -0.0950   18.1170 Cl  0  0  0  0  0  0  0  0  0  0  0  0
    6.6500   -2.6320   21.7000 C   0  0  0  0  0  0  0  0  0  0  0  0
    6.4460   -3.5730   22.8780 C   0  0  0  0  0  0  0  0  0  0  0  0
    7.1700   -5.3530   26.2430 C   0  0  0  0  0  0  0  0  0  0  0  0
    6.0240   -5.7560   26.8680 N   0  0  0  0  0  0  0  0  0  0  0  0
  1  2  1  0
  2  3  2  0
  2  4  2  0
  2  5  1  0
  5  6  1  0
  6  7  2  0
  6 25  1  0
  7  8  1  0
  8  9  2  0
  8 24  1  0
  9 10  1  0
 10 11  2  0
 11 12  1  0
 12 13  1  0
 12 24  2  0
 13 14  1  0
 14 15  1  0
 14 23  1  0
 15 16  1  0
 16 17  1  0
 17 18  1  0
 17 22  1  0
 18 19  2  0
 18 20  1  0
 20 21  1  0
 22 23  1  0
 24 25  1  0
M  END
