STU-CHA-7b3b91d5-1
     RDKit          3D

 28 30  0  0  1  0  0  0  0  0999 V2000
    5.5010   -3.3550   19.7720 O   0  0  0  0  0  0  0  0  0  0  0  0
    6.1600   -2.5890   20.4190 C   0  0  0  0  0  0  0  0  0  0  0  0
    6.6030   -2.9490   21.6640 N   0  0  0  0  0  0  0  0  0  0  0  0
    7.4100   -2.0100   22.4570 C   0  0  0  0  0  0  0  0  0  0  0  0
    8.0870   -2.7580   23.5940 C   0  0  0  0  0  0  0  0  0  0  0  0
    7.2900   -3.4070   24.5300 C   0  0  0  0  0  0  0  0  0  0  0  0
    7.8660   -4.1040   25.5870 C   0  0  0  0  0  0  0  0  0  0  0  0
    9.2520   -4.1430   25.6930 C   0  0  0  0  0  0  0  0  0  0  0  0
   10.0000   -5.0320   27.0420 Cl  0  0  0  0  0  0  0  0  0  0  0  0
   10.0600   -3.4970   24.7630 C   0  0  0  0  0  0  0  0  0  0  0  0
    9.4730   -2.8030   23.7110 C   0  0  0  0  0  0  0  0  0  0  0  0
   10.3760   -2.1060   22.7060 C   0  0  0  0  0  0  0  0  0  0  0  0
   11.1090   -1.0230   23.3760 N   0  0  0  0  0  0  0  0  0  0  0  0
   11.8430   -0.2900   22.3310 C   0  0  0  0  0  0  0  0  0  0  0  0
   12.6100    0.8940   22.9010 C   0  0  0  0  0  0  0  0  0  0  0  0
   11.7840    1.6730   23.8360 N   0  0  0  0  0  0  0  0  0  0  0  0
   11.9920    3.0560   23.9180 C   0  0  0  0  0  0  0  0  0  0  0  0
   11.3330    3.7170   24.6720 O   0  0  0  0  0  0  0  0  0  0  0  0
   13.0510    3.7180   23.0520 C   0  0  0  0  0  0  0  0  0  0  0  0
   13.0020    5.4800   23.2980 Cl  0  0  0  0  0  0  0  0  0  0  0  0
   10.7440    1.0590   24.6770 C   0  0  0  0  0  0  0  0  0  0  0  0
   10.1040   -0.1410   23.9930 C   0  0  0  0  0  0  0  0  0  0  0  0
    6.5020   -1.2170   19.8570 C   0  0  0  0  0  0  0  0  0  0  0  0
    5.8010   -0.1370   20.6640 C   0  0  0  0  0  0  0  0  0  0  0  0
    6.1510    1.2240   20.0810 C   0  0  0  0  0  0  0  0  0  0  0  0
    5.7620    1.2620   18.6110 C   0  0  0  0  0  0  0  0  0  0  0  0
    6.4040    0.2250   17.8810 O   0  0  0  0  0  0  0  0  0  0  0  0
    6.0980   -1.0650   18.3970 C   0  0  0  0  0  0  0  0  0  0  0  0
  1  2  2  0
  2  3  1  0
  2 23  1  0
  3  4  1  0
  4  5  1  0
  5  6  2  0
  5 11  1  0
  6  7  1  0
  7  8  2  0
  8  9  1  0
  8 10  1  0
 10 11  2  0
 11 12  1  0
 12 13  1  0
 13 14  1  0
 13 22  1  0
 14 15  1  0
 15 16  1  0
 16 17  1  0
 16 21  1  0
 17 18  2  0
 17 19  1  0
 19 20  1  0
 21 22  1  0
 23 24  1  0
 23 28  1  0
 24 25  1  0
 25 26  1  0
 26 27  1  0
 27 28  1  0
M  CHG  1  13   1
M  END
