TAM-UNI-d1c3dd9f-4
     RDKit          3D

 28 29  0  0  0  0  0  0  0  0999 V2000
   12.7000    1.8480   24.1470 C   0  0  0  0  0  0  0  0  0  0  0  0
   12.3710    1.0020   22.9900 N   0  0  0  0  0  0  0  0  0  0  0  0
   13.2720   -0.0900   22.5980 C   0  0  0  0  0  0  0  0  0  0  0  0
   11.2230    1.2320   22.2790 C   0  0  0  0  0  0  0  0  0  0  0  0
   10.9680    2.3400   21.8920 O   0  0  0  0  0  0  0  0  0  0  0  0
   10.3160    0.1380   21.9920 C   0  0  0  0  0  0  0  0  0  0  0  0
   10.4290   -1.0380   22.7260 C   0  0  0  0  0  0  0  0  0  0  0  0
    9.5600   -2.0890   22.4520 C   0  0  0  0  0  0  0  0  0  0  0  0
    8.5930   -1.9650   21.4600 C   0  0  0  0  0  0  0  0  0  0  0  0
    7.6660   -3.1410   21.1970 C   0  0  0  0  0  0  0  0  0  0  0  0
    7.3290   -3.7940   22.4700 N   0  0  0  0  0  0  0  0  0  0  0  0
    6.1000   -4.8380   22.2360 S   0  0  0  0  0  0  0  0  0  0  0  0
    6.7310   -6.5340   22.2960 C   0  0  0  0  0  0  0  0  0  0  0  0
    5.1130   -4.6570   23.2680 O   0  0  0  0  0  0  0  0  0  0  0  0
    5.5000   -4.5940   20.9500 O   0  0  0  0  0  0  0  0  0  0  0  0
    8.4900   -0.7830   20.7320 C   0  0  0  0  0  0  0  0  0  0  0  0
    7.4450   -0.6140   19.6410 C   0  0  0  0  0  0  0  0  0  0  0  0
    6.6740    0.6130   19.8870 N   0  0  0  0  0  0  0  0  0  0  0  0
    5.5850    0.6430   18.8970 C   0  0  0  0  0  0  0  0  0  0  0  0
    4.6820    1.8530   19.0820 C   0  0  0  0  0  0  0  0  0  0  0  0
    4.3320    2.0540   20.4970 N   0  0  0  0  0  0  0  0  0  0  0  0
    3.0760    2.5930   20.8040 C   0  0  0  0  0  0  0  0  0  0  0  0
    2.7620    2.7680   21.9480 O   0  0  0  0  0  0  0  0  0  0  0  0
    2.1120    2.9560   19.6860 C   0  0  0  0  0  0  0  0  0  0  0  0
    0.4620    2.4690   20.1450 Cl  0  0  0  0  0  0  0  0  0  0  0  0
    5.2420    1.6990   21.5980 C   0  0  0  0  0  0  0  0  0  0  0  0
    6.1130    0.5030   21.2440 C   0  0  0  0  0  0  0  0  0  0  0  0
    9.3540    0.2750   20.9960 C   0  0  0  0  0  0  0  0  0  0  0  0
  1  2  1  0
  2  3  1  0
  2  4  1  0
  4  5  2  0
  4  6  1  0
  6  7  2  0
  6 28  1  0
  7  8  1  0
  8  9  2  0
  9 10  1  0
  9 16  1  0
 10 11  1  0
 11 12  1  0
 12 13  1  0
 12 14  2  0
 12 15  2  0
 16 17  1  0
 16 28  2  0
 17 18  1  0
 18 19  1  0
 18 27  1  0
 19 20  1  0
 20 21  1  0
 21 22  1  0
 21 26  1  0
 22 23  2  0
 22 24  1  0
 24 25  1  0
 26 27  1  0
M  CHG  1  18   1
M  END
