TAM-UNI-d1c3dd9f-7
     RDKit          3D

 30 33  0  0  1  0  0  0  0  0999 V2000
    5.4920   -3.1730   20.9060 O   0  0  0  0  0  0  0  0  0  0  0  0
    6.4920   -2.5100   20.9160 C   0  0  0  0  0  0  0  0  0  0  0  0
    6.4760   -1.1020   20.3440 C   0  0  0  0  0  0  0  0  0  0  0  0
    5.8010   -1.1380   18.6970 Cl  0  0  0  0  0  0  0  0  0  0  0  0
    7.6720   -3.0320   21.4540 N   0  0  0  0  0  0  0  0  0  0  0  0
    7.7830   -4.3790   22.0270 C   0  0  0  0  0  0  0  0  0  0  0  0
    8.4670   -4.2390   23.3790 C   0  0  0  0  0  0  0  0  0  0  0  0
    8.4840   -5.3610   24.1920 C   0  0  0  0  0  0  0  0  0  0  0  0
    9.0980   -5.3310   25.4390 C   0  0  0  0  0  0  0  0  0  0  0  0
    9.7030   -4.1580   25.8790 C   0  0  0  0  0  0  0  0  0  0  0  0
    9.6860   -3.0310   25.0650 C   0  0  0  0  0  0  0  0  0  0  0  0
    9.0750   -3.0570   23.8160 C   0  0  0  0  0  0  0  0  0  0  0  0
    9.0800   -1.8100   22.9460 C   0  0  0  0  0  0  0  0  0  0  0  0
   10.4160   -1.0870   23.0240 C   0  0  0  0  0  0  0  0  0  0  0  0
   11.5710   -1.7310   22.5910 C   0  0  0  0  0  0  0  0  0  0  0  0
   12.7880   -1.0630   22.6670 C   0  0  0  0  0  0  0  0  0  0  0  0
   12.8620    0.2320   23.1670 C   0  0  0  0  0  0  0  0  0  0  0  0
   11.6960    0.8580   23.5940 C   0  0  0  0  0  0  0  0  0  0  0  0
   11.7560    2.2750   24.1440 C   0  0  0  0  0  0  0  0  0  0  0  0
   10.4540    2.9300   23.9540 N   0  0  0  0  0  0  0  0  0  0  0  0
   10.3950    4.2700   23.6750 C   0  0  0  0  0  0  0  0  0  0  0  0
   11.4060    4.9090   23.5850 O   0  0  0  0  0  0  0  0  0  0  0  0
    9.1540    4.8930   23.4950 N   0  0  0  0  0  0  0  0  0  0  0  0
    9.1110    6.3330   23.1960 C   0  0  0  0  0  0  0  0  0  0  0  0
    7.9330    6.6670   22.2930 C   0  0  0  0  0  0  0  0  0  0  0  0
    6.7400    6.0380   22.7420 O   0  0  0  0  0  0  0  0  0  0  0  0
    6.8520    4.6240   22.6520 C   0  0  0  0  0  0  0  0  0  0  0  0
    7.9270    4.0880   23.5860 C   0  0  0  0  0  0  0  0  0  0  0  0
   10.4680    0.2080   23.5270 C   0  0  0  0  0  0  0  0  0  0  0  0
    8.9360   -2.2910   21.5140 C   0  0  0  0  0  0  0  0  0  0  0  0
  1  2  2  0
  2  3  1  0
  2  5  1  0
  3  4  1  0
  5  6  1  0
  5 30  1  0
  6  7  1  0
  7  8  1  0
  7 12  2  0
  8  9  2  0
  9 10  1  0
 10 11  2  0
 11 12  1  0
 12 13  1  0
 13 14  1  0
 13 30  1  0
 14 15  2  0
 14 29  1  0
 15 16  1  0
 16 17  2  0
 17 18  1  0
 18 19  1  0
 18 29  2  0
 19 20  1  0
 20 21  1  0
 21 22  2  0
 21 23  1  0
 23 24  1  0
 23 28  1  0
 24 25  1  0
 25 26  1  0
 26 27  1  0
 27 28  1  0
M  END
