TAM-UNI-d1c3dd9f-11
     RDKit          3D

 31 34  0  0  1  0  0  0  0  0999 V2000
   10.5140    5.7950   24.5240 C   0  0  0  0  0  0  0  0  0  0  0  0
   11.9000    6.0930   25.0720 C   0  0  0  0  0  0  0  0  0  0  0  0
   12.0280    6.4990   26.1940 O   0  0  0  0  0  0  0  0  0  0  0  0
   13.0050    5.8970   24.2850 N   0  0  0  0  0  0  0  0  0  0  0  0
   12.8490    5.3990   22.9110 C   0  0  0  0  0  0  0  0  0  0  0  0
   12.9960    3.8860   22.9000 C   0  0  0  0  0  0  0  0  0  0  0  0
   11.7620    3.2530   23.5210 C   0  0  0  0  0  0  0  0  0  0  0  0
   11.7710    1.7560   23.2540 C   0  0  0  0  0  0  0  0  0  0  0  0
   12.8560    1.0430   22.8390 C   0  0  0  0  0  0  0  0  0  0  0  0
   12.4500   -0.2510   22.7200 N   0  0  0  0  0  0  0  0  0  0  0  0
   13.3110   -1.3640   22.2950 C   0  0  0  0  0  0  0  0  0  0  0  0
   11.1300   -0.3570   23.0560 C   0  0  0  0  0  0  0  0  0  0  0  0
   10.2960   -1.4680   23.0890 C   0  0  0  0  0  0  0  0  0  0  0  0
    8.9670   -1.3300   23.4710 C   0  0  0  0  0  0  0  0  0  0  0  0
    8.0650   -2.5550   23.5010 C   0  0  0  0  0  0  0  0  0  0  0  0
    8.3140   -3.3020   22.2030 C   0  0  0  0  0  0  0  0  0  0  0  0
    7.4820   -4.5080   22.2580 N   0  0  0  0  0  0  0  0  0  0  0  0
    6.2690   -4.6460   21.5730 C   0  0  0  0  0  0  0  0  0  0  0  0
    5.8600   -3.7480   20.8900 O   0  0  0  0  0  0  0  0  0  0  0  0
    5.4690   -5.9330   21.6940 C   0  0  0  0  0  0  0  0  0  0  0  0
    5.4860   -6.4840   23.3870 Cl  0  0  0  0  0  0  0  0  0  0  0  0
    8.0600   -5.5510   23.1150 C   0  0  0  0  0  0  0  0  0  0  0  0
    8.4480   -4.8900   24.4290 C   0  0  0  0  0  0  0  0  0  0  0  0
    8.8190   -5.7310   25.4670 C   0  0  0  0  0  0  0  0  0  0  0  0
    9.2030   -5.2160   26.7010 C   0  0  0  0  0  0  0  0  0  0  0  0
    9.2140   -3.8390   26.8970 C   0  0  0  0  0  0  0  0  0  0  0  0
    8.8420   -2.9950   25.8570 C   0  0  0  0  0  0  0  0  0  0  0  0
    8.4600   -3.5040   24.6210 C   0  0  0  0  0  0  0  0  0  0  0  0
    8.4760   -0.0770   23.8220 C   0  0  0  0  0  0  0  0  0  0  0  0
    9.3300    1.0210   23.7810 C   0  0  0  0  0  0  0  0  0  0  0  0
   10.6620    0.8900   23.3980 C   0  0  0  0  0  0  0  0  0  0  0  0
  1  2  1  0
  2  3  2  0
  2  4  1  0
  4  5  1  0
  5  6  1  0
  6  7  1  0
  7  8  1  0
  8  9  2  0
  8 31  1  0
  9 10  1  0
 10 11  1  0
 10 12  1  0
 12 13  1  0
 12 31  2  0
 13 14  2  0
 14 15  1  0
 14 29  1  0
 15 16  1  0
 15 28  1  0
 16 17  1  0
 17 18  1  0
 17 22  1  0
 18 19  2  0
 18 20  1  0
 20 21  1  0
 22 23  1  0
 23 24  2  0
 23 28  1  0
 24 25  1  0
 25 26  2  0
 26 27  1  0
 27 28  2  0
 29 30  2  0
 30 31  1  0
M  END
