TAM-UNI-d1c3dd9f-19
     RDKit          3D

 27 29  0  0  0  0  0  0  0  0999 V2000
   12.2060    6.9820   26.5770 C   0  0  0  0  0  0  0  0  0  0  0  0
   12.0020    6.5170   25.1450 C   0  0  0  0  0  0  0  0  0  0  0  0
   10.8990    6.4950   24.6720 O   0  0  0  0  0  0  0  0  0  0  0  0
   13.0770    6.1230   24.3930 N   0  0  0  0  0  0  0  0  0  0  0  0
   12.8800    5.6720   23.0080 C   0  0  0  0  0  0  0  0  0  0  0  0
   13.2570    4.2040   22.8940 C   0  0  0  0  0  0  0  0  0  0  0  0
   12.1180    3.3470   23.4220 C   0  0  0  0  0  0  0  0  0  0  0  0
   10.9860    3.8270   24.0110 C   0  0  0  0  0  0  0  0  0  0  0  0
   10.2260    2.7440   24.3360 N   0  0  0  0  0  0  0  0  0  0  0  0
    8.9120    2.8090   24.9940 C   0  0  0  0  0  0  0  0  0  0  0  0
   10.8650    1.5980   23.9570 C   0  0  0  0  0  0  0  0  0  0  0  0
   10.4760    0.2680   24.0780 C   0  0  0  0  0  0  0  0  0  0  0  0
   11.3040   -0.7440   23.6100 C   0  0  0  0  0  0  0  0  0  0  0  0
   10.8680   -2.1930   23.7510 C   0  0  0  0  0  0  0  0  0  0  0  0
    9.4410   -2.3090   23.4220 N   0  0  0  0  0  0  0  0  0  0  0  0
    9.3230   -2.1340   21.9660 C   0  0  0  0  0  0  0  0  0  0  0  0
    7.8810   -2.2710   21.5000 C   0  0  0  0  0  0  0  0  0  0  0  0
    7.2250   -3.4370   22.1120 N   0  0  0  0  0  0  0  0  0  0  0  0
    6.2430   -4.1220   21.3900 C   0  0  0  0  0  0  0  0  0  0  0  0
    5.9460   -3.7560   20.2860 O   0  0  0  0  0  0  0  0  0  0  0  0
    5.5520   -5.3290   22.0020 C   0  0  0  0  0  0  0  0  0  0  0  0
    6.7500   -6.6120   22.2970 Cl  0  0  0  0  0  0  0  0  0  0  0  0
    7.5650   -3.9230   23.4590 C   0  0  0  0  0  0  0  0  0  0  0  0
    9.0320   -3.6760   23.7790 C   0  0  0  0  0  0  0  0  0  0  0  0
   12.5210   -0.4240   23.0190 C   0  0  0  0  0  0  0  0  0  0  0  0
   12.8900    0.9140   22.9090 C   0  0  0  0  0  0  0  0  0  0  0  0
   12.0660    1.9340   23.3760 C   0  0  0  0  0  0  0  0  0  0  0  0
  1  2  1  0
  2  3  2  0
  2  4  1  0
  4  5  1  0
  5  6  1  0
  6  7  1  0
  7  8  2  0
  7 27  1  0
  8  9  1  0
  9 10  1  0
  9 11  1  0
 11 12  1  0
 11 27  2  0
 12 13  2  0
 13 14  1  0
 13 25  1  0
 14 15  1  0
 15 16  1  0
 15 24  1  0
 16 17  1  0
 17 18  1  0
 18 19  1  0
 18 23  1  0
 19 20  2  0
 19 21  1  0
 21 22  1  0
 23 24  1  0
 25 26  2  0
 26 27  1  0
M  END
