TAM-UNI-d1c3dd9f-12
     RDKit          3D

 27 29  0  0  0  0  0  0  0  0999 V2000
    8.7980    6.9570   23.5970 O   0  0  0  0  0  0  0  0  0  0  0  0
    8.6220    5.8320   23.2160 C   0  0  0  0  0  0  0  0  0  0  0  0
    7.4630    5.5190   22.2840 C   0  0  0  0  0  0  0  0  0  0  0  0
    7.0010    6.9900   21.3960 Cl  0  0  0  0  0  0  0  0  0  0  0  0
    9.4820    4.8110   23.6310 N   0  0  0  0  0  0  0  0  0  0  0  0
   10.5970    5.1380   24.5330 C   0  0  0  0  0  0  0  0  0  0  0  0
   11.8000    4.2400   24.2810 C   0  0  0  0  0  0  0  0  0  0  0  0
   11.4060    2.8280   24.1510 N   0  0  0  0  0  0  0  0  0  0  0  0
   12.6310    2.0670   23.8760 C   0  0  0  0  0  0  0  0  0  0  0  0
   12.2730    0.6180   23.5860 C   0  0  0  0  0  0  0  0  0  0  0  0
   12.9620   -0.0730   22.5950 C   0  0  0  0  0  0  0  0  0  0  0  0
   12.6280   -1.3990   22.3360 C   0  0  0  0  0  0  0  0  0  0  0  0
   11.6190   -2.0330   23.0530 C   0  0  0  0  0  0  0  0  0  0  0  0
   10.9420   -1.3230   24.0390 C   0  0  0  0  0  0  0  0  0  0  0  0
    9.8360   -2.0000   24.8330 C   0  0  0  0  0  0  0  0  0  0  0  0
    8.9500   -2.7300   23.9150 N   0  0  0  0  0  0  0  0  0  0  0  0
    8.0310   -2.0460   23.1630 C   0  0  0  0  0  0  0  0  0  0  0  0
    7.9500   -0.8520   23.2530 O   0  0  0  0  0  0  0  0  0  0  0  0
    7.1870   -2.7410   22.2880 N   0  0  0  0  0  0  0  0  0  0  0  0
    6.2060   -1.9900   21.4880 C   0  0  0  0  0  0  0  0  0  0  0  0
    5.9810   -2.6540   20.1390 C   0  0  0  0  0  0  0  0  0  0  0  0
    5.8030   -4.0590   20.2740 O   0  0  0  0  0  0  0  0  0  0  0  0
    6.9880   -4.6710   20.7650 C   0  0  0  0  0  0  0  0  0  0  0  0
    7.3170   -4.2010   22.1740 C   0  0  0  0  0  0  0  0  0  0  0  0
   11.2610    0.0020   24.3140 C   0  0  0  0  0  0  0  0  0  0  0  0
   10.5370    2.6770   22.9730 C   0  0  0  0  0  0  0  0  0  0  0  0
    9.2350    3.4480   23.1350 C   0  0  0  0  0  0  0  0  0  0  0  0
  1  2  2  0
  2  3  1  0
  2  5  1  0
  3  4  1  0
  5  6  1  0
  5 27  1  0
  6  7  1  0
  7  8  1  0
  8  9  1  0
  8 26  1  0
  9 10  1  0
 10 11  2  0
 10 25  1  0
 11 12  1  0
 12 13  2  0
 13 14  1  0
 14 15  1  0
 14 25  2  0
 15 16  1  0
 16 17  1  0
 17 18  2  0
 17 19  1  0
 19 20  1  0
 19 24  1  0
 20 21  1  0
 21 22  1  0
 22 23  1  0
 23 24  1  0
 26 27  1  0
M  END
