ABI-SAT-897caeb8-2
     RDKit          3D

 12 12  0  0  0  0  0  0  0  0999 V2000
    5.8800   -6.2280   20.3330 C   0  0  0  0  0  0  0  0  0  0  0  0
    5.2790   -5.1080   20.6920 C   0  0  0  0  0  0  0  0  0  0  0  0
    5.2320   -4.1770   19.8910 O   0  0  0  0  0  0  0  0  0  0  0  0
    4.7620   -5.1540   21.9400 C   0  0  0  0  0  0  0  0  0  0  0  0
    3.6860   -5.6650   22.1960 O   0  0  0  0  0  0  0  0  0  0  0  0
    5.5240   -4.6190   22.8270 C   0  0  0  0  0  0  0  0  0  0  0  0
    5.0130   -4.3980   24.1670 C   0  0  0  0  0  0  0  0  0  0  0  0
    6.8040   -4.2220   22.6120 N   0  0  0  0  0  0  0  0  0  0  0  0
    6.2360   -3.6070   25.2240 P   0  0  0  0  0  0  0  0  0  0  0  0
    7.3180   -3.7070   23.6810 C   0  0  0  0  0  0  0  0  0  0  0  0
    8.6290   -3.2580   23.6070 C   0  0  0  0  0  0  0  0  0  0  0  0
    9.0110   -1.9720   23.6490 N   0  0  0  0  0  0  0  0  0  0  0  0
  1  2  1  0
  2  3  2  0
  2  4  1  0
  4  5  2  0
  4  6  1  0
  6  7  2  0
  6  8  1  0
  7  9  1  0
  8 10  1  0
  9 10  2  0
 10 11  1  0
 11 12  3  0
M  END
