ABI-SAT-f7794817-1
     RDKit          3D

  6  6  0  0  0  0  0  0  0  0999 V2000
   13.5870   -1.8560   20.7400 N   0  0  0  0  0  0  0  0  0  0  0  0
   13.0280   -1.5310   21.6610 C   0  0  0  0  0  0  0  0  0  0  0  0
   12.2460   -1.0570   22.8850 C   0  0  0  0  0  0  0  0  0  0  0  0
   11.0150   -0.5230   22.9590 C   0  0  0  0  0  0  0  0  0  0  0  0
   12.5740   -1.0520   24.1530 N   0  0  0  0  0  0  0  0  0  0  0  0
   11.1300   -0.3800   24.6510 S   0  0  0  0  0  0  0  0  0  0  0  0
  1  2  3  0
  2  3  1  0
  3  4  2  0
  3  5  1  0
  4  6  1  0
  5  6  1  0
M  END
