ABI-SAT-897caeb8-4
     RDKit          3D

 13 13  0  0  0  0  0  0  0  0999 V2000
    5.6130   -2.1160   18.7330 C   0  0  0  0  0  0  0  0  0  0  0  0
    6.3960   -1.8550   19.8790 C   0  0  0  0  0  0  0  0  0  0  0  0
    6.4050   -0.6950   20.3060 O   0  0  0  0  0  0  0  0  0  0  0  0
    7.1230   -2.8540   20.5030 C   0  0  0  0  0  0  0  0  0  0  0  0
    6.3750   -4.0230   20.7990 C   0  0  0  0  0  0  0  0  0  0  0  0
    5.6850   -4.6370   19.9660 O   0  0  0  0  0  0  0  0  0  0  0  0
    6.4810   -4.4230   22.2420 C   0  0  0  0  0  0  0  0  0  0  0  0
    7.0630   -4.5210   23.2710 N   0  0  0  0  0  0  0  0  0  0  0  0
    4.8940   -5.0780   22.5480 S   0  0  0  0  0  0  0  0  0  0  0  0
    6.4750   -5.0310   24.4020 N   0  0  0  0  0  0  0  0  0  0  0  0
    5.2910   -5.3670   24.1660 C   0  0  0  0  0  0  0  0  0  0  0  0
    4.5040   -5.8930   25.1770 C   0  0  0  0  0  0  0  0  0  0  0  0
    3.8080   -6.3120   26.0040 N   0  0  0  0  0  0  0  0  0  0  0  0
  1  2  1  0
  2  3  2  0
  2  4  1  0
  4  5  1  0
  5  6  2  0
  5  7  1  0
  7  8  2  0
  7  9  1  0
  8 10  1  0
  9 11  1  0
 10 11  2  0
 11 12  1  0
 12 13  3  0
M  END
