ABI-SAT-f7794817-3
     RDKit          3D

  7  7  0  0  0  0  0  0  0  0999 V2000
   13.5510   -1.7980   20.8520 N   0  0  0  0  0  0  0  0  0  0  0  0
   12.9570   -1.4690   21.7690 C   0  0  0  0  0  0  0  0  0  0  0  0
   12.1130   -0.9940   22.9270 C   0  0  0  0  0  0  0  0  0  0  0  0
   10.9010   -0.9970   23.7370 C   0  0  0  0  0  0  0  0  0  0  0  0
   10.7590   -1.8830   22.7500 C   0  0  0  0  0  0  0  0  0  0  0  0
   10.0950   -0.4120   24.9870 Cl  0  0  0  0  0  0  0  0  0  0  0  0
   10.1420   -2.6870   22.1840 O   0  0  0  0  0  0  0  0  0  0  0  0
  1  2  3  0
  2  3  1  0
  3  4  2  0
  3  5  1  0
  4  5  1  0
  4  6  1  0
  5  7  2  0
M  END
