ABI-SAT-897caeb8-3
     RDKit          3D

 14 14  0  0  0  0  0  0  0  0999 V2000
    1.4470   -7.8800   22.4660 C   0  0  0  0  0  0  0  0  0  0  0  0
    2.0350   -6.9390   23.3660 C   0  0  0  0  0  0  0  0  0  0  0  0
    3.2620   -7.1570   23.9990 C   0  0  0  0  0  0  0  0  0  0  0  0
    3.5420   -8.0340   24.7840 O   0  0  0  0  0  0  0  0  0  0  0  0
    4.5810   -5.9940   23.5710 S   0  0  0  0  0  0  0  0  0  0  0  0
    5.3810   -6.0050   22.0190 C   0  0  0  0  0  0  0  0  0  0  0  0
    5.2420   -4.7360   24.6000 C   0  0  0  0  0  0  0  0  0  0  0  0
    6.3680   -5.0760   21.7870 N   0  0  0  0  0  0  0  0  0  0  0  0
    6.4270   -4.2420   24.1810 C   0  0  0  0  0  0  0  0  0  0  0  0
    6.2890   -4.1630   20.7260 C   0  0  0  0  0  0  0  0  0  0  0  0
    7.2070   -4.6930   22.9480 C   0  0  0  0  0  0  0  0  0  0  0  0
    5.4900   -4.2950   19.7990 O   0  0  0  0  0  0  0  0  0  0  0  0
    7.2140   -2.9760   20.7180 C   0  0  0  0  0  0  0  0  0  0  0  0
    7.9040   -2.0430   20.7310 N   0  0  0  0  0  0  0  0  0  0  0  0
  1  2  1  0
  2  3  1  0
  3  4  2  0
  3  5  1  0
  5  6  2  0
  5  7  1  0
  6  8  1  0
  7  9  2  0
  8 10  1  0
  8 11  1  0
  9 11  1  0
 10 12  2  0
 10 13  1  0
 13 14  3  0
M  END
