ABI-SAT-2adc218e-2
     RDKit          3D

  8  8  0  0  0  0  0  0  0  0999 V2000
    6.5740   -2.4270   22.7840 N   0  0  0  0  0  0  0  0  0  0  0  0
    7.5430   -3.5000   22.9260 C   0  0  1  0  0  0  0  0  0  0  0  0
    8.9220   -3.1590   23.4060 C   0  0  0  0  0  0  0  0  0  0  0  0
    7.9950   -3.9690   24.2720 C   0  0  2  0  0  0  0  0  0  0  0  0
    8.2150   -5.3850   24.5870 C   0  0  0  0  0  0  0  0  0  0  0  0
    7.7910   -6.1470   23.5530 F   0  0  0  0  0  0  0  0  0  0  0  0
    7.4580   -5.6860   25.6740 F   0  0  0  0  0  0  0  0  0  0  0  0
    9.4950   -5.7030   24.8740 F   0  0  0  0  0  0  0  0  0  0  0  0
  2  1  1  1
  2  3  1  0
  2  4  1  0
  3  4  1  0
  4  5  1  6
  5  6  1  0
  5  7  1  0
  5  8  1  0
M  END
