AGN-NEW-95323f67-4
     RDKit          3D

 26 28  0  0  0  0  0  0  0  0999 V2000
   13.4100   -1.2400   21.7700 C   0  0  0  0  0  0  0  0  0  0  0  0
   13.3480   -0.0760   22.5970 O   0  0  0  0  0  0  0  0  0  0  0  0
   12.1630   -0.1750   23.1930 C   0  0  0  0  0  0  0  0  0  0  0  0
   11.8360   -0.0250   24.7250 C   0  0  0  0  0  0  0  0  0  0  0  0
   11.2400   -0.4680   22.2790 N   0  0  0  0  0  0  0  0  0  0  0  0
   10.3040   -0.3080   25.0490 C   0  0  0  0  0  0  0  0  0  0  0  0
    9.8790   -0.6780   22.6550 C   0  0  0  0  0  0  0  0  0  0  0  0
    9.6350   -0.3480   26.4860 C   0  0  0  0  0  0  0  0  0  0  0  0
    9.4540   -0.5920   24.0470 C   0  0  0  0  0  0  0  0  0  0  0  0
    9.1130   -0.9500   21.6090 C   0  0  0  0  0  0  0  0  0  0  0  0
    8.6500   -1.5170   26.3740 C   0  0  0  0  0  0  0  0  0  0  0  0
    9.6270    0.4110   28.0270 S   0  0  0  0  0  0  0  0  0  0  0  0
    8.0300    0.3250   21.6230 S   0  0  0  0  0  0  0  0  0  0  0  0
    7.9010   -1.7130   27.7010 C   0  0  0  0  0  0  0  0  0  0  0  0
    8.4300   -0.6340   28.6620 C   0  0  0  0  0  0  0  0  0  0  0  0
    7.9400    0.7770   22.9650 O   0  0  0  0  0  0  0  0  0  0  0  0
    8.2760    1.3530   20.6160 O   0  0  0  0  0  0  0  0  0  0  0  0
    6.6260   -0.4480   21.1670 N   0  0  0  0  0  0  0  0  0  0  0  0
    6.0870    0.2440   20.0340 C   0  0  0  0  0  0  0  0  0  0  0  0
    5.0310    1.2550   20.2120 C   0  0  0  0  0  0  0  0  0  0  0  0
    6.5690   -0.0140   18.7520 C   0  0  0  0  0  0  0  0  0  0  0  0
    4.5200    1.5290   21.6230 C   0  0  0  0  0  0  0  0  0  0  0  0
    4.4720    2.0110   19.0450 C   0  0  0  0  0  0  0  0  0  0  0  0
    6.1170    0.6530   17.5360 N   0  0  0  0  0  0  0  0  0  0  0  0
    7.5200   -0.9330   18.6060 F   0  0  0  0  0  0  0  0  0  0  0  0
    5.0730    1.6580   17.7170 C   0  0  0  0  0  0  0  0  0  0  0  0
  1  2  1  0
  2  3  1  0
  3  4  2  0
  3  5  1  0
  4  6  1  0
  5  7  2  0
  6  8  1  0
  6  9  2  0
  7  9  1  0
  7 10  1  0
  8 11  2  0
  8 12  1  0
 10 13  1  0
 11 14  1  0
 12 15  1  0
 14 15  2  0
 13 16  2  0
 13 17  2  0
 13 18  1  0
 18 19  1  0
 19 20  2  0
 19 21  1  0
 20 22  1  0
 20 23  1  0
 21 24  2  0
 21 25  1  0
 23 26  2  0
 24 26  1  0
M  END
