AGN-NEW-95323f67-3
     RDKit          3D

 26 28  0  0  0  0  0  0  0  0999 V2000
   13.2860    1.4270   22.7960 C   0  0  0  0  0  0  0  0  0  0  0  0
   12.7870    1.1600   24.0370 O   0  0  0  0  0  0  0  0  0  0  0  0
   11.5430    0.8860   23.8650 C   0  0  0  0  0  0  0  0  0  0  0  0
   10.3610    1.8070   24.1700 C   0  0  0  0  0  0  0  0  0  0  0  0
   11.2770   -0.3290   23.3480 C   0  0  0  0  0  0  0  0  0  0  0  0
    9.0200    1.3040   23.9120 N   0  0  0  0  0  0  0  0  0  0  0  0
   10.0730   -0.7740   23.1070 C   0  0  0  0  0  0  0  0  0  0  0  0
   12.1370   -1.3700   22.9490 C   0  0  0  0  0  0  0  0  0  0  0  0
    9.0250   -0.0220   23.3710 C   0  0  0  0  0  0  0  0  0  0  0  0
   13.0750   -1.9020   23.9490 C   0  0  0  0  0  0  0  0  0  0  0  0
   12.1070   -2.0390   21.3940 S   0  0  0  0  0  0  0  0  0  0  0  0
    7.6420   -0.5070   23.0820 C   0  0  0  0  0  0  0  0  0  0  0  0
   13.8000   -2.9610   23.2750 C   0  0  0  0  0  0  0  0  0  0  0  0
   13.4050   -3.1390   21.9510 C   0  0  0  0  0  0  0  0  0  0  0  0
    7.7390   -0.9820   21.4890 S   0  0  0  0  0  0  0  0  0  0  0  0
    8.3080    0.1510   20.7830 O   0  0  0  0  0  0  0  0  0  0  0  0
    8.3540   -2.2830   21.5160 O   0  0  0  0  0  0  0  0  0  0  0  0
    6.1770   -1.0820   20.9770 N   0  0  0  0  0  0  0  0  0  0  0  0
    5.8560   -0.2070   19.9600 C   0  0  0  0  0  0  0  0  0  0  0  0
    4.7370    0.7860   20.1600 C   0  0  0  0  0  0  0  0  0  0  0  0
    6.5500   -0.2370   18.7650 C   0  0  0  0  0  0  0  0  0  0  0  0
    4.0440    0.7370   21.5280 C   0  0  0  0  0  0  0  0  0  0  0  0
    4.3770    1.7220   19.0710 C   0  0  0  0  0  0  0  0  0  0  0  0
    6.2630    0.6170   17.7080 N   0  0  0  0  0  0  0  0  0  0  0  0
    7.5320   -1.1100   18.6000 F   0  0  0  0  0  0  0  0  0  0  0  0
    5.1780    1.6300   17.7830 C   0  0  0  0  0  0  0  0  0  0  0  0
  1  2  1  0
  2  3  1  0
  3  4  2  0
  3  5  1  0
  4  6  1  0
  5  7  2  0
  5  8  1  0
  6  9  2  0
  7  9  1  0
  8 10  2  0
  8 11  1  0
  9 12  1  0
 10 13  1  0
 11 14  1  0
 13 14  2  0
 12 15  1  0
 15 16  2  0
 15 17  2  0
 15 18  1  0
 18 19  1  0
 19 20  2  0
 19 21  1  0
 20 22  1  0
 20 23  1  0
 21 24  2  0
 21 25  1  0
 23 26  2  0
 24 26  1  0
M  END
