AGN-NEW-891393a6-10
     RDKit          3D

 23 25  0  0  0  0  0  0  0  0999 V2000
    9.2280   -2.8600   22.3720 O   0  0  0  0  0  0  0  0  0  0  0  0
    9.0480   -1.5150   22.8670 S   0  0  0  0  0  0  0  0  0  0  0  0
    8.4380   -1.2330   24.1430 O   0  0  0  0  0  0  0  0  0  0  0  0
    8.2780   -0.5210   21.5850 C   0  0  0  0  0  0  0  0  0  0  0  0
   10.5890   -0.6820   22.8750 C   0  0  0  0  0  0  0  0  0  0  0  0
    6.9350   -0.8550   21.0140 C   0  0  0  0  0  0  0  0  0  0  0  0
   11.7930   -1.3900   22.7630 C   0  0  0  0  0  0  0  0  0  0  0  0
   10.5710    0.7030   22.9900 C   0  0  0  0  0  0  0  0  0  0  0  0
    6.2850   -0.0010   19.9350 C   0  0  0  0  0  0  0  0  0  0  0  0
   13.0820   -0.6890   22.7690 C   0  0  0  0  0  0  0  0  0  0  0  0
   11.7410    1.4860   23.0000 C   0  0  0  0  0  0  0  0  0  0  0  0
    4.9700    0.6250   20.2600 C   0  0  0  0  0  0  0  0  0  0  0  0
    6.8320    0.2330   18.6940 C   0  0  0  0  0  0  0  0  0  0  0  0
   12.9750    0.8300   22.8980 C   0  0  0  0  0  0  0  0  0  0  0  0
   11.7210    2.9990   23.0990 C   0  0  0  0  0  0  0  0  0  0  0  0
    4.4170    1.4110   19.2450 C   0  0  0  0  0  0  0  0  0  0  0  0
    6.2450    1.0220   17.7460 N   0  0  0  0  0  0  0  0  0  0  0  0
   10.7340    3.7170   23.6940 N   0  0  0  0  0  0  0  0  0  0  0  0
   12.8800    3.6090   22.4770 N   0  0  0  0  0  0  0  0  0  0  0  0
    5.0620    1.5880   18.0320 C   0  0  0  0  0  0  0  0  0  0  0  0
   10.8770    5.0610   23.6850 C   0  0  0  0  0  0  0  0  0  0  0  0
   12.9440    4.9500   22.5090 C   0  0  0  0  0  0  0  0  0  0  0  0
   11.9550    5.7190   23.1090 C   0  0  0  0  0  0  0  0  0  0  0  0
  1  2  2  0
  2  3  2  0
  2  4  1  0
  2  5  1  0
  4  6  2  3
  5  7  2  0
  5  8  1  0
  6  9  1  0
  7 10  1  0
  8 11  2  0
  9 12  2  0
  9 13  1  0
 10 14  2  0
 11 14  1  0
 11 15  1  0
 12 16  1  0
 13 17  2  0
 15 18  2  0
 15 19  1  0
 16 20  2  0
 17 20  1  0
 18 21  1  0
 19 22  2  0
 21 23  2  0
 22 23  1  0
M  END
