AGN-NEW-fad6815c-2
     RDKit          3D

 36 39  0  0  0  0  0  0  0  0999 V2000
    5.8900   -2.4010   27.4270 C   0  0  0  0  0  0  0  0  0  0  0  0
    5.2540   -3.2620   26.4710 C   0  0  0  0  0  0  0  0  0  0  0  0
    6.0030   -3.6760   25.1620 C   0  0  0  0  0  0  0  0  0  0  0  0
    5.5950   -5.1540   24.8690 C   0  0  0  0  0  0  0  0  0  0  0  0
    6.8080   -2.8190   24.5210 N   0  0  0  0  0  0  0  0  0  0  0  0
    6.2750   -5.7270   23.5660 C   0  0  0  0  0  0  0  0  0  0  0  0
    7.3680   -3.3350   23.4200 C   0  0  0  0  0  0  0  0  0  0  0  0
    7.2020   -4.7270   22.8410 C   0  0  0  0  0  0  0  0  0  0  0  0
    8.3420   -2.5780   22.4750 C   0  0  0  0  0  0  0  0  0  0  0  0
    8.3090   -1.1610   22.5670 N   0  0  0  0  0  0  0  0  0  0  0  0
    7.8610   -0.3380   21.5850 C   0  0  0  0  0  0  0  0  0  0  0  0
    9.5270   -0.6250   23.0510 C   0  0  0  0  0  0  0  0  0  0  0  0
    8.5130    0.5980   21.1100 O   0  0  0  0  0  0  0  0  0  0  0  0
    6.5780   -0.5640   21.1100 N   0  0  0  0  0  0  0  0  0  0  0  0
    9.4300    0.4540   23.8940 N   0  0  0  0  0  0  0  0  0  0  0  0
   10.6560   -1.2450   22.5720 N   0  0  0  0  0  0  0  0  0  0  0  0
    5.9990    0.1970   20.0120 C   0  0  0  0  0  0  0  0  0  0  0  0
   10.5530    0.9950   24.3130 C   0  0  0  0  0  0  0  0  0  0  0  0
   11.7820   -0.7410   22.9620 C   0  0  0  0  0  0  0  0  0  0  0  0
    5.0580    1.1930   20.1960 C   0  0  0  0  0  0  0  0  0  0  0  0
    6.4360   -0.0900   18.7210 C   0  0  0  0  0  0  0  0  0  0  0  0
   11.8560    0.4440   23.8850 C   0  0  0  0  0  0  0  0  0  0  0  0
   13.0640   -1.2050   22.5810 C   0  0  0  0  0  0  0  0  0  0  0  0
    4.5350    1.5580   21.5440 C   0  0  0  0  0  0  0  0  0  0  0  0
    4.5960    1.8740   19.0730 C   0  0  0  0  0  0  0  0  0  0  0  0
    5.9980    0.5680   17.6370 N   0  0  0  0  0  0  0  0  0  0  0  0
    7.3750   -1.1220   18.5770 C   0  0  0  0  0  0  0  0  0  0  0  0
   13.5420    0.0740   22.7910 C   0  0  0  0  0  0  0  0  0  0  0  0
   13.4700   -2.3000   23.5800 C   0  0  0  0  0  0  0  0  0  0  0  0
    3.2330    2.2540   21.6840 N   0  0  0  0  0  0  0  0  0  0  0  0
    5.0940    1.5320   17.8410 C   0  0  0  0  0  0  0  0  0  0  0  0
    1.9590    1.7530   21.3430 C   0  0  0  0  0  0  0  0  0  0  0  0
    3.2950    3.6640   21.4540 C   0  0  0  0  0  0  0  0  0  0  0  0
    1.2340    2.7190   20.4080 C   0  0  0  0  0  0  0  0  0  0  0  0
    1.9460    4.2930   21.8100 C   0  0  0  0  0  0  0  0  0  0  0  0
    0.9110    3.7590   20.9820 O   0  0  0  0  0  0  0  0  0  0  0  0
  1  2  3  0
  2  3  1  0
  3  4  2  0
  3  5  1  0
  4  6  1  0
  5  7  2  0
  6  8  2  0
  7  8  1  0
  7  9  1  0
  9 10  1  0
 10 11  1  0
 10 12  1  0
 11 13  2  0
 11 14  1  0
 12 15  2  0
 12 16  1  0
 14 17  1  0
 15 18  1  0
 16 19  2  0
 17 20  1  0
 17 21  2  0
 18 22  2  0
 19 22  1  0
 19 23  1  0
 20 24  1  0
 20 25  2  0
 21 26  1  0
 21 27  1  0
 23 28  1  0
 23 29  1  0
 24 30  1  0
 25 31  1  0
 26 31  2  0
 30 32  1  0
 30 33  1  0
 32 34  1  0
 33 35  1  0
 34 36  1  0
 35 36  1  0
M  END
