AGN-NEW-fad6815c-1
     RDKit          3D

 36 39  0  0  0  0  0  0  0  0999 V2000
    5.5190   -5.3080   26.4860 C   0  0  0  0  0  0  0  0  0  0  0  0
    5.2490   -3.9140   26.6900 C   0  0  0  0  0  0  0  0  0  0  0  0
    6.1890   -2.8210   26.0790 C   0  0  0  0  0  0  0  0  0  0  0  0
    6.3420   -1.6830   27.1220 C   0  0  0  0  0  0  0  0  0  0  0  0
    6.7290   -2.9260   24.8630 N   0  0  0  0  0  0  0  0  0  0  0  0
    7.2850   -0.6440   26.4460 C   0  0  0  0  0  0  0  0  0  0  0  0
    7.5220   -1.8940   24.4890 C   0  0  0  0  0  0  0  0  0  0  0  0
    7.8140   -0.7980   25.1950 N   0  0  0  0  0  0  0  0  0  0  0  0
    8.2180   -1.8970   23.1020 C   0  0  0  0  0  0  0  0  0  0  0  0
    8.5520   -0.4570   22.8300 N   0  0  0  0  0  0  0  0  0  0  0  0
    7.9130    0.0760   21.6260 C   0  0  0  0  0  0  0  0  0  0  0  0
    9.9470   -0.1440   23.0440 C   0  0  0  0  0  0  0  0  0  0  0  0
    8.4290    0.9930   20.9800 O   0  0  0  0  0  0  0  0  0  0  0  0
    6.6640   -0.5080   21.2280 N   0  0  0  0  0  0  0  0  0  0  0  0
   10.3590    1.0910   23.4620 N   0  0  0  0  0  0  0  0  0  0  0  0
   10.7470   -1.1960   22.7720 N   0  0  0  0  0  0  0  0  0  0  0  0
    6.0840    0.2410   20.1510 C   0  0  0  0  0  0  0  0  0  0  0  0
   11.6850    1.2670   23.6030 C   0  0  0  0  0  0  0  0  0  0  0  0
   12.0330   -1.0990   22.8980 C   0  0  0  0  0  0  0  0  0  0  0  0
    5.0830    1.3780   20.3030 C   0  0  0  0  0  0  0  0  0  0  0  0
    6.4750   -0.0860   18.7000 C   0  0  0  0  0  0  0  0  0  0  0  0
   12.6740    0.1940   23.3370 C   0  0  0  0  0  0  0  0  0  0  0  0
   12.7100   -2.3720   22.5740 C   0  0  0  0  0  0  0  0  0  0  0  0
    4.5420    1.8910   21.4810 C   0  0  0  0  0  0  0  0  0  0  0  0
    4.6520    1.9890   19.1170 C   0  0  0  0  0  0  0  0  0  0  0  0
    5.9960    0.5770   17.6510 N   0  0  0  0  0  0  0  0  0  0  0  0
    7.4030   -1.1750   18.5180 C   0  0  0  0  0  0  0  0  0  0  0  0
   13.1910   -2.4440   21.1410 C   0  0  0  0  0  0  0  0  0  0  0  0
   13.6650   -2.7050   23.7000 C   0  0  0  0  0  0  0  0  0  0  0  0
    3.2830    2.3590   21.3850 N   0  0  0  0  0  0  0  0  0  0  0  0
    5.1200    1.5730   17.8770 C   0  0  0  0  0  0  0  0  0  0  0  0
    3.0810    3.7420   21.6100 C   0  0  0  0  0  0  0  0  0  0  0  0
    2.0780    1.6310   21.4720 C   0  0  0  0  0  0  0  0  0  0  0  0
    1.9010    4.2870   20.8760 C   0  0  0  0  0  0  0  0  0  0  0  0
    1.1610    2.4120   20.5470 C   0  0  0  0  0  0  0  0  0  0  0  0
    0.9460    3.5220   21.0290 O   0  0  0  0  0  0  0  0  0  0  0  0
  1  2  3  0
  2  3  1  0
  3  4  2  0
  3  5  1  0
  4  6  1  0
  5  7  2  0
  6  8  2  0
  7  8  1  0
  7  9  1  0
  9 10  1  0
 10 11  1  0
 10 12  1  0
 11 13  2  0
 11 14  1  0
 12 15  2  0
 12 16  1  0
 14 17  1  0
 15 18  1  0
 16 19  2  0
 17 20  1  0
 17 21  2  0
 18 22  2  0
 19 22  1  0
 19 23  1  0
 20 24  1  0
 20 25  2  0
 21 26  1  0
 21 27  1  0
 23 28  1  0
 23 29  1  0
 24 30  1  0
 25 31  1  0
 26 31  2  0
 30 32  1  0
 30 33  1  0
 32 34  1  0
 33 35  1  0
 34 36  1  0
 35 36  1  0
M  END
