AGN-NEW-c7b24fe3-2
     RDKit          3D

 19 20  0  0  0  0  0  0  0  0999 V2000
    7.6380   -2.2250   20.2120 C   0  0  0  0  0  0  0  0  0  0  0  0
    7.4460   -1.3050   19.0390 C   0  0  0  0  0  0  0  0  0  0  0  0
    6.5520   -0.2390   19.0530 C   0  0  0  0  0  0  0  0  0  0  0  0
    6.1280    0.2360   17.8550 N   0  0  0  0  0  0  0  0  0  0  0  0
    6.1370    0.2820   20.2690 C   0  0  0  0  0  0  0  0  0  0  0  0
    5.1730    1.3490   17.8520 C   0  0  0  0  0  0  0  0  0  0  0  0
    5.2400    1.3120   20.2330 C   0  0  0  0  0  0  0  0  0  0  0  0
    6.6640   -0.2630   21.4480 N   0  0  0  0  0  0  0  0  0  0  0  0
    4.7390    1.8660   19.0660 C   0  0  0  0  0  0  0  0  0  0  0  0
    7.9740   -0.0590   21.7920 C   0  0  0  0  0  0  0  0  0  0  0  0
    8.6890    0.8350   21.3230 O   0  0  0  0  0  0  0  0  0  0  0  0
    8.5880   -0.9970   22.8280 C   0  0  0  0  0  0  0  0  0  0  0  0
   10.0350   -0.6120   22.9040 C   0  0  0  0  0  0  0  0  0  0  0  0
   10.3890    0.5830   23.7360 C   0  0  0  0  0  0  0  0  0  0  0  0
   11.0250   -1.2580   22.2540 C   0  0  0  0  0  0  0  0  0  0  0  0
   11.8190    1.0340   23.8180 C   0  0  0  0  0  0  0  0  0  0  0  0
   12.3490   -0.8600   22.3200 C   0  0  0  0  0  0  0  0  0  0  0  0
   12.9640    0.3230   23.0870 C   0  0  0  0  0  0  0  0  0  0  0  0
   13.2490   -1.7270   21.5120 C   0  0  0  0  0  0  0  0  0  0  0  0
  1  2  2  3
  2  3  1  0
  3  4  2  0
  3  5  1  0
  4  6  1  0
  5  7  2  0
  5  8  1  0
  6  9  2  0
  7  9  1  0
  8 10  1  0
 10 11  2  0
 10 12  1  0
 12 13  1  0
 13 14  2  0
 13 15  1  0
 14 16  1  0
 15 17  2  0
 16 18  2  0
 17 18  1  0
 17 19  1  0
M  END
