AGN-NEW-817c14da-1
     RDKit          3D

 36 39  0  0  0  0  0  0  0  0999 V2000
    9.2370   -6.5110   23.5640 C   0  0  0  0  0  0  0  0  0  0  0  0
    7.9170   -6.5170   23.0320 C   0  0  0  0  0  0  0  0  0  0  0  0
    7.3180   -5.1460   22.7090 C   0  0  0  0  0  0  0  0  0  0  0  0
    6.2260   -5.3550   21.6250 C   0  0  0  0  0  0  0  0  0  0  0  0
    7.7850   -4.0790   23.3370 N   0  0  0  0  0  0  0  0  0  0  0  0
    5.5690   -3.9840   21.2090 C   0  0  0  0  0  0  0  0  0  0  0  0
    7.2070   -2.9520   22.9630 C   0  0  0  0  0  0  0  0  0  0  0  0
    6.1110   -2.7470   21.9410 C   0  0  0  0  0  0  0  0  0  0  0  0
    7.5880   -1.5770   23.5290 C   0  0  0  0  0  0  0  0  0  0  0  0
    8.4050   -0.9090   22.5860 N   0  0  0  0  0  0  0  0  0  0  0  0
    7.9500   -0.1240   21.5810 C   0  0  0  0  0  0  0  0  0  0  0  0
    9.6700   -0.4440   23.0410 C   0  0  0  0  0  0  0  0  0  0  0  0
    8.5820    0.8150   21.0880 O   0  0  0  0  0  0  0  0  0  0  0  0
    6.6780   -0.4070   21.1080 N   0  0  0  0  0  0  0  0  0  0  0  0
    9.6320    0.6420   23.8690 N   0  0  0  0  0  0  0  0  0  0  0  0
   10.7850   -1.1030   22.5610 N   0  0  0  0  0  0  0  0  0  0  0  0
    6.0780    0.2860   19.9810 C   0  0  0  0  0  0  0  0  0  0  0  0
   10.7790    1.1460   24.2520 C   0  0  0  0  0  0  0  0  0  0  0  0
   11.9470   -0.6210   22.9210 C   0  0  0  0  0  0  0  0  0  0  0  0
    5.1450    1.2980   20.1430 C   0  0  0  0  0  0  0  0  0  0  0  0
    6.4700   -0.0690   18.6890 C   0  0  0  0  0  0  0  0  0  0  0  0
   12.0660    0.5620   23.8130 C   0  0  0  0  0  0  0  0  0  0  0  0
   13.2130   -1.1180   22.4730 C   0  0  0  0  0  0  0  0  0  0  0  0
    4.6530    1.7440   21.4740 C   0  0  0  0  0  0  0  0  0  0  0  0
    4.6520    1.9300   19.0090 C   0  0  0  0  0  0  0  0  0  0  0  0
    5.9970    0.5470   17.5920 N   0  0  0  0  0  0  0  0  0  0  0  0
    7.3960   -1.1200   18.5520 C   0  0  0  0  0  0  0  0  0  0  0  0
   13.6080    0.1260   22.1230 C   0  0  0  0  0  0  0  0  0  0  0  0
   13.1870   -1.8990   21.1740 C   0  0  0  0  0  0  0  0  0  0  0  0
    3.3270    2.4020   21.5720 N   0  0  0  0  0  0  0  0  0  0  0  0
    5.1090    1.5290   17.7820 C   0  0  0  0  0  0  0  0  0  0  0  0
    3.0490    3.7730   21.3620 C   0  0  0  0  0  0  0  0  0  0  0  0
    2.2900    1.6000   21.0050 C   0  0  0  0  0  0  0  0  0  0  0  0
    1.7710    3.9470   20.5370 C   0  0  0  0  0  0  0  0  0  0  0  0
    0.9210    2.1160   21.4550 C   0  0  0  0  0  0  0  0  0  0  0  0
    0.7820    3.4920   21.1090 O   0  0  0  0  0  0  0  0  0  0  0  0
  1  2  3  0
  2  3  1  0
  3  4  2  0
  3  5  1  0
  4  6  1  0
  5  7  2  0
  6  8  2  0
  7  8  1  0
  7  9  1  0
  9 10  1  0
 10 11  1  0
 10 12  1  0
 11 13  2  0
 11 14  1  0
 12 15  2  0
 12 16  1  0
 14 17  1  0
 15 18  1  0
 16 19  2  0
 17 20  1  0
 17 21  2  0
 18 22  2  0
 19 22  1  0
 19 23  1  0
 20 24  1  0
 20 25  2  0
 21 26  1  0
 21 27  1  0
 23 28  1  0
 23 29  1  0
 24 30  1  0
 25 31  1  0
 26 31  2  0
 30 32  1  0
 30 33  1  0
 32 34  1  0
 33 35  1  0
 34 36  1  0
 35 36  1  0
M  END
