AGN-NEW-891393a6-9-nitrile
     RDKit          3D

 20 21  0  0  0  0  0  0  0  0999 V2000
    7.6680   -3.5910   20.0350 C   0  0  0  0  0  0  0  0  0  0  0  0
    6.3780   -3.8730   19.8150 N   0  0  0  0  0  0  0  0  0  0  0  0
    8.3160   -3.3020   21.5190 C   0  0  0  0  0  0  0  0  0  0  0  0
    9.4420   -2.1510   21.9870 C   0  0  0  0  0  0  0  0  0  0  0  0
   10.9490   -2.4270   22.1820 C   0  0  0  0  0  0  0  0  0  0  0  0
    9.0970   -0.8630   22.2530 C   0  0  0  0  0  0  0  0  0  0  0  0
   11.8770   -1.4340   22.5810 C   0  0  0  0  0  0  0  0  0  0  0  0
   10.0530    0.0400   22.6360 C   0  0  0  0  0  0  0  0  0  0  0  0
   11.3980   -0.1920   22.8030 C   0  0  0  0  0  0  0  0  0  0  0  0
    9.4630    1.6420   22.9030 S   0  0  0  0  0  0  0  0  0  0  0  0
   10.4960    2.5640   22.4920 O   0  0  0  0  0  0  0  0  0  0  0  0
    8.6800    1.8530   24.0880 O   0  0  0  0  0  0  0  0  0  0  0  0
    8.3490    1.4400   21.5600 C   0  0  0  0  0  0  0  0  0  0  0  0
    7.3290    0.4500   21.4380 C   0  0  0  0  0  0  0  0  0  0  0  0
    6.5330    0.5300   20.2030 C   0  0  0  0  0  0  0  0  0  0  0  0
    5.2340    1.2990   20.3240 C   0  0  0  0  0  0  0  0  0  0  0  0
    6.9070   -0.0100   18.9900 C   0  0  0  0  0  0  0  0  0  0  0  0
    4.4910    1.4280   19.1830 C   0  0  0  0  0  0  0  0  0  0  0  0
    6.1830    0.1170   17.8700 N   0  0  0  0  0  0  0  0  0  0  0  0
    5.0320    0.8030   17.9460 C   0  0  0  0  0  0  0  0  0  0  0  0
  1  2  2  3
  1  3  1  0
  3  4  1  0
  4  5  2  0
  4  6  1  0
  5  7  1  0
  6  8  2  0
  7  9  2  0
  8  9  1  0
  8 10  1  0
 10 11  2  0
 10 12  2  0
 10 13  1  0
 13 14  2  3
 14 15  1  0
 15 16  2  0
 15 17  1  0
 16 18  1  0
 17 19  2  0
 18 20  2  0
 19 20  1  0
M  END
