AGN-NEW-c7b24fe3-4-vinylsulfonamide
     RDKit          3D

 22 23  0  0  0  0  0  0  0  0999 V2000
    7.3940   -4.3390   20.8730 C   0  0  0  0  0  0  0  0  0  0  0  0
    7.4570   -3.0020   20.1740 C   0  0  0  0  0  0  0  0  0  0  0  0
    6.0150   -2.5800   19.2610 S   0  0  0  0  0  0  0  0  0  0  0  0
    4.8450   -3.1950   19.9540 O   0  0  0  0  0  0  0  0  0  0  0  0
    6.2540   -2.9440   17.8970 O   0  0  0  0  0  0  0  0  0  0  0  0
    5.9030   -0.7950   19.2480 C   0  0  0  0  0  0  0  0  0  0  0  0
    5.3290   -0.3130   18.0940 N   0  0  0  0  0  0  0  0  0  0  0  0
    6.3420   -0.0060   20.3050 C   0  0  0  0  0  0  0  0  0  0  0  0
    5.1240    1.0070   18.0200 C   0  0  0  0  0  0  0  0  0  0  0  0
    6.0880    1.3440   20.1470 C   0  0  0  0  0  0  0  0  0  0  0  0
    6.9930   -0.5050   21.4450 N   0  0  0  0  0  0  0  0  0  0  0  0
    5.4720    1.8710   19.0280 C   0  0  0  0  0  0  0  0  0  0  0  0
    8.2940   -0.1060   21.7090 C   0  0  0  0  0  0  0  0  0  0  0  0
    8.7850    0.9370   21.2840 O   0  0  0  0  0  0  0  0  0  0  0  0
    9.1460   -1.0300   22.5670 C   0  0  0  0  0  0  0  0  0  0  0  0
   10.5090   -0.4020   22.6800 C   0  0  0  0  0  0  0  0  0  0  0  0
   11.6830   -1.1430   22.6250 C   0  0  0  0  0  0  0  0  0  0  0  0
   10.5810    0.9820   22.8290 C   0  0  0  0  0  0  0  0  0  0  0  0
   12.9190   -0.5040   22.7200 C   0  0  0  0  0  0  0  0  0  0  0  0
   11.8070    1.6150   22.9150 C   0  0  0  0  0  0  0  0  0  0  0  0
   12.9730    0.8700   22.8630 C   0  0  0  0  0  0  0  0  0  0  0  0
   11.8350    3.3290   23.0640 Cl  0  0  0  0  0  0  0  0  0  0  0  0
  1  2  1  0
  3  2  1  0
  3  4  2  0
  3  5  2  0
  3  6  1  0
  6  7  2  0
  6  8  1  0
  7  9  1  0
  8 10  2  0
  8 11  1  0
  9 12  2  0
 10 12  1  0
 11 13  1  0
 13 14  2  0
 13 15  1  0
 15 16  1  0
 16 17  2  0
 16 18  1  0
 17 19  1  0
 18 20  2  0
 19 21  2  0
 20 21  1  0
 20 22  1  0
M  END
