AGN-NEW-cce853d0-1-nitrile
     RDKit          3D

 21 22  0  0  0  0  0  0  0  0999 V2000
    7.0150   -3.6640   19.8660 C   0  0  0  0  0  0  0  0  0  0  0  0
    5.9420   -4.4030   19.8760 N   0  0  0  0  0  0  0  0  0  0  0  0
    7.3520   -2.5580   20.6320 N   0  0  0  0  0  0  0  0  0  0  0  0
    6.4580   -1.5300   21.1000 C   0  0  0  0  0  0  0  0  0  0  0  0
    5.2980   -1.3170   20.3790 C   0  0  0  0  0  0  0  0  0  0  0  0
    6.6660   -0.6850   22.2190 C   0  0  0  0  0  0  0  0  0  0  0  0
    5.0730   -2.1330   19.1550 C   0  0  0  0  0  0  0  0  0  0  0  0
    4.3610   -0.3330   20.7760 C   0  0  0  0  0  0  0  0  0  0  0  0
    5.7200    0.2750   22.6150 C   0  0  0  0  0  0  0  0  0  0  0  0
    7.9230   -0.7200   22.9900 C   0  0  0  0  0  0  0  0  0  0  0  0
    4.5600    0.4480   21.8960 C   0  0  0  0  0  0  0  0  0  0  0  0
    8.6340    0.0360   21.8780 C   0  0  0  0  0  0  0  0  0  0  0  0
    9.6650    0.6980   21.9310 O   0  0  0  0  0  0  0  0  0  0  0  0
    7.8600   -0.1670   20.7450 N   0  0  0  0  0  0  0  0  0  0  0  0
    6.8680    0.6100   20.0540 C   0  0  0  0  0  0  0  0  0  0  0  0
    6.1140    1.7030   20.4360 C   0  0  0  0  0  0  0  0  0  0  0  0
    6.6280    0.1780   18.7900 C   0  0  0  0  0  0  0  0  0  0  0  0
    5.2070    2.2520   19.5100 C   0  0  0  0  0  0  0  0  0  0  0  0
    5.8110    0.6440   17.8470 N   0  0  0  0  0  0  0  0  0  0  0  0
    7.4840   -1.1630   18.3550 Cl  0  0  0  0  0  0  0  0  0  0  0  0
    5.0980    1.7000   18.2430 C   0  0  0  0  0  0  0  0  0  0  0  0
  1  2  2  3
  1  3  1  0
  3  4  1  0
  4  5  2  0
  4  6  1  0
  5  7  1  0
  5  8  1  0
  6  9  2  0
  6 10  1  0
  8 11  2  0
  9 11  1  0
 10 12  1  0
 12 13  2  0
 12 14  1  0
 14 15  1  0
 15 16  2  0
 15 17  1  0
 16 18  1  0
 17 19  2  0
 17 20  1  0
 18 21  2  0
 19 21  1  0
M  END
