AGN-NEW-891393a6-11
     RDKit          3D

 25 27  0  0  0  0  0  0  0  0999 V2000
   13.5260   -1.9720   25.3220 C   0  0  0  0  0  0  0  0  0  0  0  0
   13.0740   -0.6090   25.2290 O   0  0  0  0  0  0  0  0  0  0  0  0
   11.8140   -0.6940   24.8290 C   0  0  0  0  0  0  0  0  0  0  0  0
   10.5560   -0.3810   25.6200 C   0  0  0  0  0  0  0  0  0  0  0  0
   11.6120   -1.1630   23.5610 C   0  0  0  0  0  0  0  0  0  0  0  0
    9.2970   -0.6410   24.9590 C   0  0  0  0  0  0  0  0  0  0  0  0
   10.3920   -1.3800   23.0280 C   0  0  0  0  0  0  0  0  0  0  0  0
   12.4140   -1.5090   22.6550 C   0  0  0  0  0  0  0  0  0  0  0  0
    9.2660   -1.1490   23.7030 C   0  0  0  0  0  0  0  0  0  0  0  0
   12.9530   -0.5590   21.9690 N   0  0  0  0  0  0  0  0  0  0  0  0
   12.5040   -2.8250   22.5330 N   0  0  0  0  0  0  0  0  0  0  0  0
    7.7990   -1.5540   22.9430 S   0  0  0  0  0  0  0  0  0  0  0  0
   13.6790   -1.1350   20.8890 C   0  0  0  0  0  0  0  0  0  0  0  0
   13.2070   -3.1910   21.5290 C   0  0  0  0  0  0  0  0  0  0  0  0
    6.7510   -1.2200   23.8760 O   0  0  0  0  0  0  0  0  0  0  0  0
    7.9300   -2.9140   22.4610 O   0  0  0  0  0  0  0  0  0  0  0  0
    7.7120   -0.4890   21.5850 C   0  0  0  0  0  0  0  0  0  0  0  0
   13.7680   -2.4040   20.7000 C   0  0  0  0  0  0  0  0  0  0  0  0
    6.4800   -0.5140   21.0310 C   0  0  0  0  0  0  0  0  0  0  0  0
    5.9590    0.2560   19.9100 C   0  0  0  0  0  0  0  0  0  0  0  0
    4.8050    1.0670   19.9550 C   0  0  0  0  0  0  0  0  0  0  0  0
    6.6530    0.1870   18.7060 C   0  0  0  0  0  0  0  0  0  0  0  0
    4.3730    1.8010   18.7830 C   0  0  0  0  0  0  0  0  0  0  0  0
    6.3210    0.8370   17.5660 N   0  0  0  0  0  0  0  0  0  0  0  0
    5.2260    1.6320   17.5680 C   0  0  0  0  0  0  0  0  0  0  0  0
  1  2  1  0
  2  3  1  0
  3  4  2  0
  3  5  1  0
  4  6  1  0
  5  7  2  0
  5  8  1  0
  6  9  2  0
  7  9  1  0
  8 10  2  0
  8 11  1  0
  9 12  1  0
 10 13  1  0
 11 14  2  0
 12 15  2  0
 12 16  2  0
 12 17  1  0
 13 18  2  0
 14 18  1  0
 17 19  2  3
 19 20  1  0
 20 21  2  0
 20 22  1  0
 21 23  1  0
 22 24  2  0
 23 25  2  0
 24 25  1  0
M  END
