AGN-NEW-95323f67-2
     RDKit          3D

 20 20  0  0  0  0  0  0  0  0999 V2000
    4.5790    1.1210   21.8520 C   0  0  0  0  0  0  0  0  0  0  0  0
    5.0920    0.9170   20.5270 C   0  0  0  0  0  0  0  0  0  0  0  0
    4.3910    1.6060   19.3120 C   0  0  0  0  0  0  0  0  0  0  0  0
    6.2180    0.1120   20.2590 C   0  0  0  0  0  0  0  0  0  0  0  0
    5.0830    1.2710   17.9670 C   0  0  0  0  0  0  0  0  0  0  0  0
    6.6820   -0.0670   18.8360 C   0  0  0  0  0  0  0  0  0  0  0  0
    6.9000   -0.5000   21.3170 N   0  0  0  0  0  0  0  0  0  0  0  0
    6.1340    0.4950   17.7520 N   0  0  0  0  0  0  0  0  0  0  0  0
    7.7240   -0.8500   18.6240 F   0  0  0  0  0  0  0  0  0  0  0  0
    8.4810    0.0870   21.5590 S   0  0  0  0  0  0  0  0  0  0  0  0
    9.3160   -0.8600   20.9230 O   0  0  0  0  0  0  0  0  0  0  0  0
    8.5530    1.4980   21.1510 O   0  0  0  0  0  0  0  0  0  0  0  0
    8.9260   -0.1530   23.2420 C   0  0  0  0  0  0  0  0  0  0  0  0
   10.1530   -1.0520   23.5390 C   0  0  0  0  0  0  0  0  0  0  0  0
   10.9970   -1.7570   22.5810 N   0  0  0  0  0  0  0  0  0  0  0  0
   12.1370   -0.9610   22.3140 C   0  0  0  0  0  0  0  0  0  0  0  0
   13.2280   -1.3090   21.8610 O   0  0  0  0  0  0  0  0  0  0  0  0
   11.9290    0.4860   22.6450 C   0  0  0  0  0  0  0  0  0  0  0  0
   12.8400    1.3830   23.1020 C   0  0  0  0  0  0  0  0  0  0  0  0
   12.0310    0.7590   24.0870 C   0  0  0  0  0  0  0  0  0  0  0  0
  1  2  1  0
  2  3  2  0
  2  4  1  0
  3  5  1  0
  4  6  2  0
  4  7  1  0
  5  8  2  0
  6  8  1  0
  6  9  1  0
  7 10  1  0
 10 11  2  0
 10 12  2  0
 10 13  1  0
 13 14  2  3
 14 15  1  0
 15 16  1  0
 16 17  2  0
 16 18  1  0
 18 19  1  0
 18 20  1  0
M  END
