AGN-NEW-9315dc74-6
     RDKit          3D

 26 28  0  0  0  0  0  0  0  0999 V2000
    6.1400   -5.7260   21.6730 C   0  0  0  0  0  0  0  0  0  0  0  0
    5.8960   -4.3280   21.8450 O   0  0  0  0  0  0  0  0  0  0  0  0
    6.9660   -3.6760   22.4490 C   0  0  0  0  0  0  0  0  0  0  0  0
    7.3460   -4.1640   23.7090 C   0  0  0  0  0  0  0  0  0  0  0  0
    7.5830   -2.6370   21.8410 N   0  0  0  0  0  0  0  0  0  0  0  0
    8.4130   -3.6060   24.4300 C   0  0  0  0  0  0  0  0  0  0  0  0
    8.6330   -2.0680   22.4880 C   0  0  0  0  0  0  0  0  0  0  0  0
    8.7100   -4.1290   25.6750 C   0  0  0  0  0  0  0  0  0  0  0  0
    9.1190   -2.5350   23.8500 C   0  0  0  0  0  0  0  0  0  0  0  0
    9.4000   -0.8860   21.8790 C   0  0  0  0  0  0  0  0  0  0  0  0
    7.7270   -4.1660   26.6570 C   0  0  0  0  0  0  0  0  0  0  0  0
   10.2300   -4.7710   26.1600 S   0  0  0  0  0  0  0  0  0  0  0  0
    8.2530    0.4710   21.9360 S   0  0  0  0  0  0  0  0  0  0  0  0
    8.2190   -4.7310   27.8520 C   0  0  0  0  0  0  0  0  0  0  0  0
    9.6440   -5.1290   27.7260 C   0  0  0  0  0  0  0  0  0  0  0  0
    7.8870    0.7470   23.3060 O   0  0  0  0  0  0  0  0  0  0  0  0
    8.6160    1.5480   21.0230 O   0  0  0  0  0  0  0  0  0  0  0  0
    6.9680   -0.3940   21.1860 N   0  0  0  0  0  0  0  0  0  0  0  0
    6.2960    0.2780   20.1050 C   0  0  0  0  0  0  0  0  0  0  0  0
    5.2950    1.1820   20.3510 C   0  0  0  0  0  0  0  0  0  0  0  0
    6.6700    0.0050   18.7870 C   0  0  0  0  0  0  0  0  0  0  0  0
    4.8410    1.5190   21.7390 C   0  0  0  0  0  0  0  0  0  0  0  0
    4.6890    1.8070   19.2630 C   0  0  0  0  0  0  0  0  0  0  0  0
    6.1470    0.5610   17.6870 N   0  0  0  0  0  0  0  0  0  0  0  0
    7.6330   -0.8910   18.5970 F   0  0  0  0  0  0  0  0  0  0  0  0
    5.1750    1.4500   17.8940 C   0  0  0  0  0  0  0  0  0  0  0  0
  1  2  1  0
  2  3  1  0
  3  4  2  0
  3  5  1  0
  4  6  1  0
  5  7  2  0
  6  8  1  0
  6  9  2  0
  7  9  1  0
  7 10  1  0
  8 11  2  0
  8 12  1  0
 10 13  1  0
 11 14  1  0
 12 15  1  0
 14 15  2  0
 13 16  2  0
 13 17  2  0
 13 18  1  0
 18 19  1  0
 19 20  2  0
 19 21  1  0
 20 22  1  0
 20 23  1  0
 21 24  2  0
 21 25  1  0
 23 26  2  0
 24 26  1  0
M  END
