AGN-NEW-9d245c51-4
     RDKit          3D

 41 44  0  0  0  0  0  0  0  0999 V2000
    7.2280   -2.4230   18.1570 C   0  0  0  0  0  0  0  0  0  0  0  0
    7.4430   -1.0840   18.3470 C   0  0  0  0  0  0  0  0  0  0  0  0
    6.4480   -0.1630   18.9530 C   0  0  0  0  0  0  0  0  0  0  0  0
    5.8730    0.6190   17.8610 N   0  0  0  0  0  0  0  0  0  0  0  0
    6.1850   -0.1410   20.2930 C   0  0  0  0  0  0  0  0  0  0  0  0
    4.8440    1.5730   18.2320 C   0  0  0  0  0  0  0  0  0  0  0  0
    5.2080    0.7210   20.7020 C   0  0  0  0  0  0  0  0  0  0  0  0
    6.8430   -0.9440   21.2220 N   0  0  0  0  0  0  0  0  0  0  0  0
    4.5490    1.5500   19.7610 C   0  0  0  0  0  0  0  0  0  0  0  0
    4.8790    0.7370   22.1930 C   0  0  0  0  0  0  0  0  0  0  0  0
    8.0880   -0.4670   21.5980 C   0  0  0  0  0  0  0  0  0  0  0  0
    3.4410    2.5830   19.9790 C   0  0  0  0  0  0  0  0  0  0  0  0
    5.1730    2.0240   22.9670 C   0  0  0  0  0  0  0  0  0  0  0  0
    8.4070    0.6120   21.0880 O   0  0  0  0  0  0  0  0  0  0  0  0
    8.8980   -1.1360   22.4850 N   0  0  0  0  0  0  0  0  0  0  0  0
    4.0620    2.8450   23.1390 N   0  0  0  0  0  0  0  0  0  0  0  0
    8.6690   -2.4610   22.7330 C   0  0  0  0  0  0  0  0  0  0  0  0
   10.2800   -0.5780   22.6530 C   0  0  0  0  0  0  0  0  0  0  0  0
    2.6780    2.5010   23.4670 C   0  0  0  0  0  0  0  0  0  0  0  0
    7.6950   -2.9650   23.6810 C   0  0  0  0  0  0  0  0  0  0  0  0
   10.4610    0.9280   22.7980 C   0  0  0  0  0  0  0  0  0  0  0  0
   11.3450   -1.4220   22.6590 N   0  0  0  0  0  0  0  0  0  0  0  0
    2.3060    1.6010   24.2130 O   0  0  0  0  0  0  0  0  0  0  0  0
    1.6040    3.1960   22.9280 C   0  0  0  0  0  0  0  0  0  0  0  0
    7.1200   -4.1740   23.4490 N   0  0  0  0  0  0  0  0  0  0  0  0
    7.4110   -2.2000   24.7530 N   0  0  0  0  0  0  0  0  0  0  0  0
   11.7540    1.4850   22.9300 C   0  0  0  0  0  0  0  0  0  0  0  0
   12.5910   -0.9290   22.7930 C   0  0  0  0  0  0  0  0  0  0  0  0
    0.5580    3.3170   23.8220 N   0  0  0  0  0  0  0  0  0  0  0  0
    6.2160   -4.6410   24.3360 C   0  0  0  0  0  0  0  0  0  0  0  0
    6.5090   -2.7060   25.6080 C   0  0  0  0  0  0  0  0  0  0  0  0
   12.0490    2.8370   23.0360 C   0  0  0  0  0  0  0  0  0  0  0  0
   12.9310    0.5390   22.9380 C   0  0  0  0  0  0  0  0  0  0  0  0
   -0.5440    2.9340   23.2060 C   0  0  0  0  0  0  0  0  0  0  0  0
    0.4890    4.6390   24.3860 C   0  0  0  0  0  0  0  0  0  0  0  0
    5.8240   -4.0170   25.4450 N   0  0  0  0  0  0  0  0  0  0  0  0
    6.1930   -2.0750   26.6190 O   0  0  0  0  0  0  0  0  0  0  0  0
   -1.9130    3.2020   23.7220 C   0  0  0  0  0  0  0  0  0  0  0  0
   -0.7990    4.9240   25.1570 C   0  0  0  0  0  0  0  0  0  0  0  0
    6.3750   -2.7880   27.8430 C   0  0  0  0  0  0  0  0  0  0  0  0
   -2.0310    4.5900   24.3390 C   0  0  0  0  0  0  0  0  0  0  0  0
  1  2  2  3
  2  3  1  0
  3  4  2  0
  3  5  1  0
  4  6  1  0
  5  7  2  0
  5  8  1  0
  6  9  2  0
  7  9  1  0
  7 10  1  0
  8 11  1  0
  9 12  1  0
 10 13  1  0
 11 14  2  0
 11 15  1  0
 13 16  1  0
 15 17  1  0
 15 18  1  0
 16 19  1  0
 17 20  1  0
 18 21  2  0
 18 22  1  0
 19 23  2  0
 19 24  1  0
 20 25  2  0
 20 26  1  0
 21 27  1  0
 22 28  2  0
 24 29  1  0
 25 30  1  0
 26 31  2  0
 27 32  1  0
 27 33  2  0
 28 33  1  0
 29 34  1  0
 29 35  1  0
 30 36  2  0
 31 36  1  0
 31 37  1  0
 34 38  1  0
 35 39  1  0
 37 40  1  0
 38 41  1  0
 39 41  1  0
M  END
