AGN-NEW-891393a6-1
     RDKit          3D

 19 20  0  0  0  0  0  0  0  0999 V2000
   12.4120    3.5280   22.7430 C   0  0  0  0  0  0  0  0  0  0  0  0
   11.7460    2.6930   23.6890 O   0  0  0  0  0  0  0  0  0  0  0  0
   11.6270    1.3680   23.4030 C   0  0  0  0  0  0  0  0  0  0  0  0
   12.7200    0.2980   23.3510 C   0  0  0  0  0  0  0  0  0  0  0  0
   10.3310    0.9800   23.1250 C   0  0  0  0  0  0  0  0  0  0  0  0
   12.3410   -1.1060   23.0050 C   0  0  0  0  0  0  0  0  0  0  0  0
   10.0390   -0.4860   22.7650 C   0  0  0  0  0  0  0  0  0  0  0  0
   13.4420   -2.3860   22.9470 Cl  0  0  0  0  0  0  0  0  0  0  0  0
   11.0300   -1.4210   22.7220 C   0  0  0  0  0  0  0  0  0  0  0  0
    8.7400   -0.8280   22.4790 O   0  0  0  0  0  0  0  0  0  0  0  0
    8.2660   -0.0080   21.4870 C   0  0  0  0  0  0  0  0  0  0  0  0
    8.7750    1.0840   21.1900 O   0  0  0  0  0  0  0  0  0  0  0  0
    7.1710   -0.5870   20.9380 N   0  0  0  0  0  0  0  0  0  0  0  0
    6.4100    0.0810   20.0000 C   0  0  0  0  0  0  0  0  0  0  0  0
    5.1970    0.7620   20.2430 C   0  0  0  0  0  0  0  0  0  0  0  0
    6.8810    0.0950   18.7140 C   0  0  0  0  0  0  0  0  0  0  0  0
    4.4730    1.4730   19.1620 C   0  0  0  0  0  0  0  0  0  0  0  0
    6.3090    0.7070   17.6640 N   0  0  0  0  0  0  0  0  0  0  0  0
    5.1500    1.3970   17.7970 C   0  0  0  0  0  0  0  0  0  0  0  0
  1  2  1  0
  2  3  1  0
  3  4  2  0
  3  5  1  0
  4  6  1  0
  5  7  2  0
  6  8  1  0
  6  9  2  0
  7  9  1  0
  7 10  1  0
 10 11  1  0
 11 12  2  0
 11 13  1  0
 13 14  1  0
 14 15  2  0
 14 16  1  0
 15 17  1  0
 16 18  2  0
 17 19  2  0
 18 19  1  0
M  END
