AGN-NEW-9d245c51-1
     RDKit          3D

 36 38  0  0  0  0  0  0  0  0999 V2000
    7.2070   -2.2720   18.0480 C   0  0  0  0  0  0  0  0  0  0  0  0
    7.3700   -0.9130   18.2550 C   0  0  0  0  0  0  0  0  0  0  0  0
    6.3520   -0.0440   18.9220 C   0  0  0  0  0  0  0  0  0  0  0  0
    5.6470    0.7170   17.9060 N   0  0  0  0  0  0  0  0  0  0  0  0
    6.1880   -0.0460   20.2510 C   0  0  0  0  0  0  0  0  0  0  0  0
    4.6040    1.6000   18.3810 C   0  0  0  0  0  0  0  0  0  0  0  0
    5.1880    0.7480   20.7830 C   0  0  0  0  0  0  0  0  0  0  0  0
    7.0760   -0.8760   21.0950 N   0  0  0  0  0  0  0  0  0  0  0  0
    4.4160    1.5390   19.9180 C   0  0  0  0  0  0  0  0  0  0  0  0
    4.9760    0.7340   22.2880 C   0  0  0  0  0  0  0  0  0  0  0  0
    8.3220   -0.3710   21.5650 C   0  0  0  0  0  0  0  0  0  0  0  0
    3.2670    2.4930   20.2360 C   0  0  0  0  0  0  0  0  0  0  0  0
    5.2480    2.0390   23.0370 C   0  0  0  0  0  0  0  0  0  0  0  0
    8.7190    0.7370   21.2010 O   0  0  0  0  0  0  0  0  0  0  0  0
    9.1130   -1.0920   22.4420 N   0  0  0  0  0  0  0  0  0  0  0  0
    4.1220    2.8380   23.1950 N   0  0  0  0  0  0  0  0  0  0  0  0
    8.3710   -1.5150   23.5150 C   0  0  0  0  0  0  0  0  0  0  0  0
   10.3590   -0.5830   22.6290 C   0  0  0  0  0  0  0  0  0  0  0  0
    2.7810    2.4890   23.6680 C   0  0  0  0  0  0  0  0  0  0  0  0
    7.6610   -2.8760   23.5360 C   0  0  0  0  0  0  0  0  0  0  0  0
   10.5390    0.8370   22.7820 C   0  0  0  0  0  0  0  0  0  0  0  0
   11.4300   -1.4110   22.6500 N   0  0  0  0  0  0  0  0  0  0  0  0
    1.7170    3.2200   23.1730 C   0  0  0  0  0  0  0  0  0  0  0  0
    2.5830    1.5830   24.4800 O   0  0  0  0  0  0  0  0  0  0  0  0
    6.3250   -2.7920   23.3600 N   0  0  0  0  0  0  0  0  0  0  0  0
    8.3210   -4.0270   23.7140 N   0  0  0  0  0  0  0  0  0  0  0  0
   11.7530    1.4880   22.9450 C   0  0  0  0  0  0  0  0  0  0  0  0
   12.6700   -0.8970   22.8130 C   0  0  0  0  0  0  0  0  0  0  0  0
    5.6150   -3.9450   23.3630 C   0  0  0  0  0  0  0  0  0  0  0  0
    7.5510   -5.1200   23.7060 C   0  0  0  0  0  0  0  0  0  0  0  0
   11.9350    2.9800   23.0680 C   0  0  0  0  0  0  0  0  0  0  0  0
   12.9460    0.5790   22.9700 C   0  0  0  0  0  0  0  0  0  0  0  0
    4.2860   -3.8830   23.1870 F   0  0  0  0  0  0  0  0  0  0  0  0
    6.1910   -5.1420   23.5350 N   0  0  0  0  0  0  0  0  0  0  0  0
    8.2390   -6.2620   23.8930 O   0  0  0  0  0  0  0  0  0  0  0  0
    8.3860   -7.0240   22.7140 C   0  0  0  0  0  0  0  0  0  0  0  0
  1  2  2  3
  2  3  1  0
  3  4  2  0
  3  5  1  0
  4  6  1  0
  5  7  2  0
  5  8  1  0
  6  9  2  0
  7  9  1  0
  7 10  1  0
  8 11  1  0
  9 12  1  0
 10 13  1  0
 11 14  2  0
 11 15  1  0
 13 16  1  0
 15 17  1  0
 15 18  1  0
 16 19  1  0
 17 20  1  0
 18 21  2  0
 18 22  1  0
 19 23  1  0
 19 24  2  0
 20 25  2  0
 20 26  1  0
 21 27  1  0
 22 28  2  0
 25 29  1  0
 26 30  2  0
 27 31  1  0
 27 32  2  0
 28 32  1  0
 29 33  1  0
 29 34  2  0
 30 34  1  0
 30 35  1  0
 35 36  1  0
M  END
