AGN-NEW-63f62ae9-1-vinylsulfonamide
     RDKit          3D

 28 30  0  0  0  0  0  0  0  0999 V2000
    8.2740   -3.6230   20.2300 C   0  0  0  0  0  0  0  0  0  0  0  0
    7.3100   -2.4830   20.2590 C   0  0  0  0  0  0  0  0  0  0  0  0
    5.9190   -3.1150   21.1150 S   0  0  0  0  0  0  0  0  0  0  0  0
    4.8790   -3.1730   20.1510 O   0  0  0  0  0  0  0  0  0  0  0  0
    6.3050   -4.2770   21.8760 O   0  0  0  0  0  0  0  0  0  0  0  0
    5.5730   -1.9200   22.2410 N   0  0  0  0  0  0  0  0  0  0  0  0
    6.5010   -1.6530   23.3800 C   0  0  2  0  0  0  0  0  0  0  0  0
    7.9340   -2.1440   23.1360 C   0  0  0  0  0  0  0  0  0  0  0  0
    6.0810   -2.3380   24.6720 C   0  0  0  0  0  0  0  0  0  0  0  0
    8.8110   -1.6140   24.1840 N   0  0  0  0  0  0  0  0  0  0  0  0
    7.1080   -2.0720   25.6740 N   0  0  0  0  0  0  0  0  0  0  0  0
    9.9710   -0.9350   23.6590 C   0  0  0  0  0  0  0  0  0  0  0  0
    8.0900   -1.1450   25.2790 C   0  0  0  0  0  0  0  0  0  0  0  0
    7.4830   -3.2400   26.4480 C   0  0  0  0  0  0  0  0  0  0  0  0
   10.9190   -1.7090   22.9780 C   0  0  0  0  0  0  0  0  0  0  0  0
   10.1570    0.4400   23.7810 C   0  0  0  0  0  0  0  0  0  0  0  0
    8.2440   -0.0450   25.8090 O   0  0  0  0  0  0  0  0  0  0  0  0
    6.6060   -3.7080   27.4340 C   0  0  0  0  0  0  0  0  0  0  0  0
    8.7020   -3.9670   26.2830 C   0  0  0  0  0  0  0  0  0  0  0  0
   12.0090   -1.1470   22.4240 C   0  0  0  0  0  0  0  0  0  0  0  0
   11.2570    0.9930   23.2090 C   0  0  0  0  0  0  0  0  0  0  0  0
    6.8210   -4.7830   28.2320 N   0  0  0  0  0  0  0  0  0  0  0  0
    8.9270   -5.0850   27.1110 C   0  0  0  0  0  0  0  0  0  0  0  0
    9.7950   -3.6540   25.2950 C   0  0  0  0  0  0  0  0  0  0  0  0
   13.0150   -1.9600   21.6840 C   0  0  0  0  0  0  0  0  0  0  0  0
   12.1440    0.1940   22.5560 C   0  0  0  0  0  0  0  0  0  0  0  0
   11.5900    2.6760   23.2370 Cl  0  0  0  0  0  0  0  0  0  0  0  0
    7.9780   -5.4430   28.0450 C   0  0  0  0  0  0  0  0  0  0  0  0
  1  2  1  0
  2  3  1  0
  3  4  2  0
  3  5  2  0
  3  6  1  0
  7  6  1  6
  7  8  1  0
  7  9  1  0
  8 10  1  0
  9 11  1  0
 10 12  1  0
 10 13  1  0
 11 13  1  0
 11 14  1  0
 12 15  2  0
 12 16  1  0
 13 17  2  0
 14 18  2  0
 14 19  1  0
 15 20  1  0
 16 21  2  0
 18 22  1  0
 19 23  2  0
 19 24  1  0
 20 25  1  0
 20 26  2  0
 21 26  1  0
 21 27  1  0
 22 28  2  0
 23 28  1  0
M  END
