AGN-NEW-cce853d0-3-acrylamide
     RDKit          3D

 24 25  0  0  0  0  0  0  0  0999 V2000
    6.8500   -2.9820   18.8610 C   0  0  0  0  0  0  0  0  0  0  0  0
    6.8200   -1.8730   19.8760 C   0  0  0  0  0  0  0  0  0  0  0  0
    6.3310   -2.4570   21.1720 C   0  0  0  0  0  0  0  0  0  0  0  0
    5.0650   -3.2050   21.1140 O   0  0  0  0  0  0  0  0  0  0  0  0
    7.3800   -2.1130   22.2540 N   0  0  0  0  0  0  0  0  0  0  0  0
    8.7280   -1.2970   22.3860 C   0  0  0  0  0  0  0  0  0  0  0  0
   10.1560   -1.9740   22.1150 C   0  0  0  0  0  0  0  0  0  0  0  0
    8.6120    0.0980   22.7890 C   0  0  0  0  0  0  0  0  0  0  0  0
   11.6040   -2.3410   21.9300 C   0  0  0  0  0  0  0  0  0  0  0  0
   11.1210   -0.9140   22.3860 C   0  0  0  0  0  0  0  0  0  0  0  0
    9.7480    0.9390   22.9760 C   0  0  0  0  0  0  0  0  0  0  0  0
    7.2070    0.6820   23.0130 C   0  0  0  0  0  0  0  0  0  0  0  0
   10.9840    0.4090   22.7780 C   0  0  0  0  0  0  0  0  0  0  0  0
    9.6310    2.2820   23.3400 C   0  0  0  0  0  0  0  0  0  0  0  0
    7.1030    1.9480   23.8850 C   0  0  0  0  0  0  0  0  0  0  0  0
    7.3660    1.9450   25.0820 O   0  0  0  0  0  0  0  0  0  0  0  0
    6.6640    3.0630   23.1790 N   0  0  0  0  0  0  0  0  0  0  0  0
    7.1290    4.4110   23.2630 C   0  0  0  0  0  0  0  0  0  0  0  0
    7.6640    5.0990   22.1800 C   0  0  0  0  0  0  0  0  0  0  0  0
    7.0680    5.1300   24.4670 C   0  0  0  0  0  0  0  0  0  0  0  0
    8.1030    6.4190   22.3150 C   0  0  0  0  0  0  0  0  0  0  0  0
    7.4860    6.4140   24.6390 N   0  0  0  0  0  0  0  0  0  0  0  0
    6.4360    4.4380   25.9160 Cl  0  0  0  0  0  0  0  0  0  0  0  0
    7.9960    7.0300   23.5500 C   0  0  0  0  0  0  0  0  0  0  0  0
  1  2  1  0
  2  3  1  0
  3  4  2  0
  3  5  1  0
  5  6  1  0
  6  7  2  0
  6  8  1  0
  7  9  1  0
  7 10  1  0
  8 11  2  0
  8 12  1  0
 10 13  2  0
 11 13  1  0
 11 14  1  0
 12 15  1  0
 15 16  2  0
 15 17  1  0
 17 18  1  0
 18 19  2  0
 18 20  1  0
 19 21  1  0
 20 22  2  0
 20 23  1  0
 21 24  2  0
 22 24  1  0
M  END
