AGN-NEW-891393a6-4
     RDKit          3D

 20 21  0  0  0  0  0  0  0  0999 V2000
   13.6840    0.7050   22.7140 C   0  0  0  0  0  0  0  0  0  0  0  0
   13.6070   -0.6770   22.8800 O   0  0  0  0  0  0  0  0  0  0  0  0
   12.3380   -0.5070   22.9630 C   0  0  0  0  0  0  0  0  0  0  0  0
   11.8840    0.7880   23.6400 C   0  0  0  0  0  0  0  0  0  0  0  0
   11.4540   -1.4110   22.4450 C   0  0  0  0  0  0  0  0  0  0  0  0
   10.4480    1.0840   23.7410 C   0  0  0  0  0  0  0  0  0  0  0  0
    9.9940   -0.9980   22.6100 C   0  0  0  0  0  0  0  0  0  0  0  0
    9.7800    2.4980   24.4320 Cl  0  0  0  0  0  0  0  0  0  0  0  0
    9.5830    0.1670   23.2240 C   0  0  0  0  0  0  0  0  0  0  0  0
    9.0630   -1.8410   22.0940 C   0  0  0  0  0  0  0  0  0  0  0  0
    7.8380   -0.5950   21.7460 S   0  0  0  0  0  0  0  0  0  0  0  0
    8.4790    0.5880   21.2110 O   0  0  0  0  0  0  0  0  0  0  0  0
    6.9010   -0.5220   22.8530 O   0  0  0  0  0  0  0  0  0  0  0  0
    6.9280   -1.1850   20.5030 N   0  0  0  0  0  0  0  0  0  0  0  0
    6.2100   -0.2570   19.7620 C   0  0  0  0  0  0  0  0  0  0  0  0
    4.9630    0.3070   20.1350 C   0  0  0  0  0  0  0  0  0  0  0  0
    6.7540    0.1650   18.5560 C   0  0  0  0  0  0  0  0  0  0  0  0
    4.3070    1.2920   19.2540 C   0  0  0  0  0  0  0  0  0  0  0  0
    6.2130    1.0670   17.6940 N   0  0  0  0  0  0  0  0  0  0  0  0
    5.0340    1.6420   17.9780 C   0  0  0  0  0  0  0  0  0  0  0  0
  1  2  1  0
  2  3  1  0
  3  4  2  0
  3  5  1  0
  4  6  1  0
  5  7  2  0
  6  8  1  0
  6  9  2  0
  7  9  1  0
  7 10  1  0
 10 11  1  0
 11 12  2  0
 11 13  2  0
 11 14  1  0
 14 15  1  0
 15 16  2  0
 15 17  1  0
 16 18  1  0
 17 19  2  0
 18 20  2  0
 19 20  1  0
M  END
