AGN-NEW-63f62ae9-2-acrylamide
     RDKit          3D

 27 29  0  0  0  0  0  0  0  0999 V2000
    7.7640   -3.5870   20.0380 C   0  0  0  0  0  0  0  0  0  0  0  0
    7.2890   -3.1570   21.4090 C   0  0  0  0  0  0  0  0  0  0  0  0
    6.0000   -2.3970   21.2810 C   0  0  0  0  0  0  0  0  0  0  0  0
    4.9000   -3.0300   21.0170 O   0  0  0  0  0  0  0  0  0  0  0  0
    6.1610   -1.0230   21.4850 N   0  0  0  0  0  0  0  0  0  0  0  0
    6.1140   -0.0660   20.3740 C   0  0  1  0  0  0  0  0  0  0  0  0
    5.4300   -0.6870   19.1950 C   0  0  0  0  0  0  0  0  0  0  0  0
    5.2760    1.1820   20.6860 C   0  0  0  0  0  0  0  0  0  0  0  0
    5.4630    0.1860   18.0590 N   0  0  0  0  0  0  0  0  0  0  0  0
    4.5700    1.7450   19.5200 N   0  0  0  0  0  0  0  0  0  0  0  0
    6.5500   -0.1320   17.2580 C   0  0  0  0  0  0  0  0  0  0  0  0
    5.0100    1.4780   18.2220 C   0  0  0  0  0  0  0  0  0  0  0  0
    3.2220    2.2580   19.6900 C   0  0  0  0  0  0  0  0  0  0  0  0
    7.1310    0.7970   16.4140 C   0  0  0  0  0  0  0  0  0  0  0  0
    7.0260   -1.3630   17.3190 C   0  0  0  0  0  0  0  0  0  0  0  0
    4.9860    2.3240   17.3380 O   0  0  0  0  0  0  0  0  0  0  0  0
    2.2960    1.5820   20.4910 C   0  0  0  0  0  0  0  0  0  0  0  0
    2.6900    3.4710   19.0820 C   0  0  0  0  0  0  0  0  0  0  0  0
    8.2270    0.7340   15.5030 C   0  0  0  0  0  0  0  0  0  0  0  0
    8.0450   -1.5630   16.5490 C   0  0  0  0  0  0  0  0  0  0  0  0
    1.7520    2.6550   19.9790 N   0  0  0  0  0  0  0  0  0  0  0  0
    1.3190    3.8980   19.3090 C   0  0  0  0  0  0  0  0  0  0  0  0
    3.5030    4.3630   18.1850 C   0  0  0  0  0  0  0  0  0  0  0  0
    9.4020    0.3280   14.6540 C   0  0  0  0  0  0  0  0  0  0  0  0
    8.5640   -0.5890   15.7460 C   0  0  0  0  0  0  0  0  0  0  0  0
    8.5870   -2.7460   16.5570 F   0  0  0  0  0  0  0  0  0  0  0  0
    0.5470    3.1010   20.1300 C   0  0  0  0  0  0  0  0  0  0  0  0
  1  2  1  0
  2  3  1  0
  3  4  2  0
  3  5  1  0
  6  5  1  1
  6  7  1  0
  6  8  1  0
  7  9  1  0
  8 10  1  0
  9 11  1  0
  9 12  1  0
 10 12  1  0
 10 13  1  0
 11 14  2  0
 11 15  1  0
 12 16  2  0
 13 17  2  0
 13 18  1  0
 14 19  1  0
 15 20  2  0
 17 21  1  0
 18 22  2  0
 18 23  1  0
 19 24  1  0
 19 25  2  0
 20 25  1  0
 20 26  1  0
 21 27  2  0
 22 27  1  0
M  END
