AGN-NEW-891393a6-7
     RDKit          3D

 25 27  0  0  0  0  0  0  0  0999 V2000
    8.4440   -1.1860   24.1670 O   0  0  0  0  0  0  0  0  0  0  0  0
    9.0800   -1.4900   22.9050 S   0  0  0  0  0  0  0  0  0  0  0  0
    9.3030   -2.8430   22.4520 O   0  0  0  0  0  0  0  0  0  0  0  0
    8.2940   -0.5620   21.5940 C   0  0  0  0  0  0  0  0  0  0  0  0
   10.5850   -0.5890   22.8880 C   0  0  0  0  0  0  0  0  0  0  0  0
    6.9200   -0.8690   21.1000 C   0  0  0  0  0  0  0  0  0  0  0  0
   11.8250   -1.2310   22.7520 C   0  0  0  0  0  0  0  0  0  0  0  0
   10.4990    0.7940   23.0100 C   0  0  0  0  0  0  0  0  0  0  0  0
    6.2920   -0.0680   19.9750 C   0  0  0  0  0  0  0  0  0  0  0  0
   13.0810   -0.4630   22.7400 C   0  0  0  0  0  0  0  0  0  0  0  0
   11.6340    1.6260   23.0070 C   0  0  0  0  0  0  0  0  0  0  0  0
    5.0280    0.6800   20.2360 C   0  0  0  0  0  0  0  0  0  0  0  0
    6.8530   -0.0040   18.7260 C   0  0  0  0  0  0  0  0  0  0  0  0
   12.8990    1.0520   22.8830 C   0  0  0  0  0  0  0  0  0  0  0  0
   11.4320    3.1350   23.1350 C   0  0  0  0  0  0  0  0  0  0  0  0
    4.5340    1.3990   19.1400 C   0  0  0  0  0  0  0  0  0  0  0  0
    6.3350    0.7120   17.6900 N   0  0  0  0  0  0  0  0  0  0  0  0
   10.2480    3.5050   23.7680 C   0  0  0  0  0  0  0  0  0  0  0  0
   12.2760    4.1760   22.6990 C   0  0  0  0  0  0  0  0  0  0  0  0
    5.1910    1.3980   17.9160 C   0  0  0  0  0  0  0  0  0  0  0  0
    9.9080    4.8360   23.9690 C   0  0  0  0  0  0  0  0  0  0  0  0
   11.9530    5.5300   22.8900 C   0  0  0  0  0  0  0  0  0  0  0  0
   13.4260    3.9310   22.0810 F   0  0  0  0  0  0  0  0  0  0  0  0
   10.7530    5.8520   23.5340 C   0  0  0  0  0  0  0  0  0  0  0  0
   10.4180    7.1320   23.7330 F   0  0  0  0  0  0  0  0  0  0  0  0
  1  2  2  0
  2  3  2  0
  2  4  1  0
  2  5  1  0
  4  6  2  3
  5  7  2  0
  5  8  1  0
  6  9  1  0
  7 10  1  0
  8 11  2  0
  9 12  2  0
  9 13  1  0
 10 14  2  0
 11 14  1  0
 11 15  1  0
 12 16  1  0
 13 17  2  0
 15 18  2  0
 15 19  1  0
 16 20  2  0
 17 20  1  0
 18 21  1  0
 19 22  2  0
 19 23  1  0
 21 24  2  0
 22 24  1  0
 24 25  1  0
M  END
