AGN-NEW-63f62ae9-2-chloroacetamide
     RDKit          3D

 26 28  0  0  0  0  0  0  0  0999 V2000
    8.1130   -3.7160   20.2190 C   0  0  0  0  0  0  0  0  0  0  0  0
    6.8000   -2.9490   20.1010 C   0  0  0  0  0  0  0  0  0  0  0  0
    5.8800   -3.4470   19.4110 O   0  0  0  0  0  0  0  0  0  0  0  0
    6.7190   -1.7210   20.7780 N   0  0  0  0  0  0  0  0  0  0  0  0
    6.4700   -0.4970   20.0230 C   0  0  2  0  0  0  0  0  0  0  0  0
    6.0420    0.7060   20.8470 C   0  0  0  0  0  0  0  0  0  0  0  0
    5.3260   -0.6850   19.0560 C   0  0  0  0  0  0  0  0  0  0  0  0
    5.0060    1.5030   20.1760 N   0  0  0  0  0  0  0  0  0  0  0  0
    5.3520    0.4030   18.1290 N   0  0  0  0  0  0  0  0  0  0  0  0
    3.7340    1.5260   20.8700 C   0  0  0  0  0  0  0  0  0  0  0  0
    5.0230    1.6030   18.7500 C   0  0  0  0  0  0  0  0  0  0  0  0
    6.4480    0.2410   17.2280 C   0  0  0  0  0  0  0  0  0  0  0  0
    2.5460    1.9090   20.2170 C   0  0  0  0  0  0  0  0  0  0  0  0
    3.6310    1.1660   22.2250 C   0  0  0  0  0  0  0  0  0  0  0  0
    4.7540    2.6120   18.1390 O   0  0  0  0  0  0  0  0  0  0  0  0
    6.9760    1.1760   16.4040 C   0  0  0  0  0  0  0  0  0  0  0  0
    7.0310   -0.9700   17.1640 C   0  0  0  0  0  0  0  0  0  0  0  0
    1.3060    1.9320   20.8850 C   0  0  0  0  0  0  0  0  0  0  0  0
    2.4040    1.1920   22.8830 C   0  0  0  0  0  0  0  0  0  0  0  0
    8.0160    1.0070   15.5800 N   0  0  0  0  0  0  0  0  0  0  0  0
    8.1040   -1.2230   16.3240 C   0  0  0  0  0  0  0  0  0  0  0  0
    6.5030   -2.0200   18.0040 C   0  0  0  0  0  0  0  0  0  0  0  0
    0.0700    2.3400   20.1540 C   0  0  0  0  0  0  0  0  0  0  0  0
    1.2450    1.5700   22.2280 C   0  0  0  0  0  0  0  0  0  0  0  0
    2.3390    0.8450   24.1770 F   0  0  0  0  0  0  0  0  0  0  0  0
    8.5660   -0.1910   15.5530 C   0  0  0  0  0  0  0  0  0  0  0  0
  1  2  1  0
  2  3  2  0
  2  4  1  0
  5  4  1  1
  5  6  1  0
  5  7  1  0
  6  8  1  0
  7  9  1  0
  8 10  1  0
  8 11  1  0
  9 11  1  0
  9 12  1  0
 10 13  2  0
 10 14  1  0
 11 15  2  0
 12 16  2  0
 12 17  1  0
 13 18  1  0
 14 19  2  0
 16 20  1  0
 17 21  2  0
 17 22  1  0
 18 23  1  0
 18 24  2  0
 19 24  1  0
 19 25  1  0
 20 26  2  0
 21 26  1  0
M  END
