AGN-NEW-9d245c51-3
     RDKit          3D

 35 37  0  0  0  0  0  0  0  0999 V2000
    7.2240   -2.3960   18.1230 C   0  0  0  0  0  0  0  0  0  0  0  0
    7.4270   -1.0520   18.3200 C   0  0  0  0  0  0  0  0  0  0  0  0
    6.4100   -0.1440   18.9150 C   0  0  0  0  0  0  0  0  0  0  0  0
    5.7780    0.5950   17.8380 N   0  0  0  0  0  0  0  0  0  0  0  0
    6.1960   -0.1100   20.2390 C   0  0  0  0  0  0  0  0  0  0  0  0
    4.7310    1.5140   18.2490 C   0  0  0  0  0  0  0  0  0  0  0  0
    5.1910    0.7160   20.7070 C   0  0  0  0  0  0  0  0  0  0  0  0
    7.0450   -0.9370   21.1360 N   0  0  0  0  0  0  0  0  0  0  0  0
    4.4740    1.4990   19.7860 C   0  0  0  0  0  0  0  0  0  0  0  0
    4.9200    0.7400   22.2060 C   0  0  0  0  0  0  0  0  0  0  0  0
    8.2990   -0.4130   21.5850 C   0  0  0  0  0  0  0  0  0  0  0  0
    3.3330    2.4850   20.0300 C   0  0  0  0  0  0  0  0  0  0  0  0
    5.2350    2.0400   22.9480 C   0  0  0  0  0  0  0  0  0  0  0  0
    8.6640    0.6920   21.1850 O   0  0  0  0  0  0  0  0  0  0  0  0
    9.1390   -1.0710   22.4750 N   0  0  0  0  0  0  0  0  0  0  0  0
    4.1210    2.8430   23.1530 N   0  0  0  0  0  0  0  0  0  0  0  0
    8.9070   -2.4210   22.5840 C   0  0  0  0  0  0  0  0  0  0  0  0
   10.3850   -0.5470   22.6060 C   0  0  0  0  0  0  0  0  0  0  0  0
    2.7840    2.4920   23.6340 C   0  0  0  0  0  0  0  0  0  0  0  0
    8.5750   -3.0570   23.9440 C   0  0  0  0  0  0  0  0  0  0  0  0
   10.5290    0.8660   22.8180 C   0  0  0  0  0  0  0  0  0  0  0  0
   11.4710   -1.3470   22.5210 N   0  0  0  0  0  0  0  0  0  0  0  0
    1.7120    3.2090   23.1340 C   0  0  0  0  0  0  0  0  0  0  0  0
    2.5960    1.5950   24.4620 O   0  0  0  0  0  0  0  0  0  0  0  0
    8.8900   -4.3600   23.9960 N   0  0  0  0  0  0  0  0  0  0  0  0
    8.0290   -2.3800   24.9760 N   0  0  0  0  0  0  0  0  0  0  0  0
   11.7470    1.5160   22.9410 C   0  0  0  0  0  0  0  0  0  0  0  0
   12.7240   -0.8400   22.6380 C   0  0  0  0  0  0  0  0  0  0  0  0
    8.6540   -5.0310   25.1430 C   0  0  0  0  0  0  0  0  0  0  0  0
    7.8200   -3.1150   26.0830 C   0  0  0  0  0  0  0  0  0  0  0  0
   11.9130    3.0030   23.1200 C   0  0  0  0  0  0  0  0  0  0  0  0
   12.9600    0.6350   22.8600 C   0  0  0  0  0  0  0  0  0  0  0  0
    8.1150   -4.4500   26.2220 N   0  0  0  0  0  0  0  0  0  0  0  0
    7.2700   -2.4190   27.1160 O   0  0  0  0  0  0  0  0  0  0  0  0
    7.6930   -2.9010   28.3790 C   0  0  0  0  0  0  0  0  0  0  0  0
  1  2  2  3
  2  3  1  0
  3  4  2  0
  3  5  1  0
  4  6  1  0
  5  7  2  0
  5  8  1  0
  6  9  2  0
  7  9  1  0
  7 10  1  0
  8 11  1  0
  9 12  1  0
 10 13  1  0
 11 14  2  0
 11 15  1  0
 13 16  1  0
 15 17  1  0
 15 18  1  0
 16 19  1  0
 17 20  1  0
 18 21  2  0
 18 22  1  0
 19 23  1  0
 19 24  2  0
 20 25  2  0
 20 26  1  0
 21 27  1  0
 22 28  2  0
 25 29  1  0
 26 30  2  0
 27 31  1  0
 27 32  2  0
 28 32  1  0
 29 33  2  0
 30 33  1  0
 30 34  1  0
 34 35  1  0
M  END
