AGN-NEW-95323f67-6
     RDKit          3D

 22 23  0  0  0  0  0  0  0  0999 V2000
    4.7590    1.3290   21.6980 C   0  0  0  0  0  0  0  0  0  0  0  0
    5.1940    1.0900   20.3580 C   0  0  0  0  0  0  0  0  0  0  0  0
    4.5400    1.8690   19.1810 C   0  0  0  0  0  0  0  0  0  0  0  0
    6.2080    0.1730   20.0450 C   0  0  0  0  0  0  0  0  0  0  0  0
    5.1570    1.4750   17.8210 C   0  0  0  0  0  0  0  0  0  0  0  0
    6.6300   -0.0430   18.6360 C   0  0  0  0  0  0  0  0  0  0  0  0
    6.8140   -0.5150   21.0670 N   0  0  0  0  0  0  0  0  0  0  0  0
    6.1200    0.5890   17.5750 N   0  0  0  0  0  0  0  0  0  0  0  0
    7.5910   -0.9380   18.4300 F   0  0  0  0  0  0  0  0  0  0  0  0
    7.9970    0.3150   21.9340 S   0  0  0  0  0  0  0  0  0  0  0  0
    8.6000    1.3340   21.0610 O   0  0  0  0  0  0  0  0  0  0  0  0
    7.4470    0.7150   23.2200 O   0  0  0  0  0  0  0  0  0  0  0  0
    9.1990   -0.9330   22.1490 C   0  0  0  0  0  0  0  0  0  0  0  0
   10.4170   -0.4580   22.9090 C   0  0  0  0  0  0  0  0  0  0  0  0
   10.5890    0.8820   23.4220 N   0  0  0  0  0  0  0  0  0  0  0  0
   11.9920    1.0220   23.4240 C   0  0  0  0  0  0  0  0  0  0  0  0
   12.6700    2.0360   23.3420 O   0  0  0  0  0  0  0  0  0  0  0  0
   12.6170   -0.3410   23.5070 C   0  0  0  0  0  0  0  0  0  0  0  0
   13.1230   -1.2130   22.5730 C   0  0  0  0  0  0  0  0  0  0  0  0
   12.6800   -0.9940   25.0960 S   0  0  0  0  0  0  0  0  0  0  0  0
   13.5710   -2.4760   23.1500 C   0  0  0  0  0  0  0  0  0  0  0  0
   13.4050   -2.5460   24.5930 C   0  0  0  0  0  0  0  0  0  0  0  0
  1  2  1  0
  2  3  2  0
  2  4  1  0
  3  5  1  0
  4  6  2  0
  4  7  1  0
  5  8  2  0
  6  8  1  0
  6  9  1  0
  7 10  1  0
 10 11  2  0
 10 12  2  0
 10 13  1  0
 13 14  2  3
 14 15  1  0
 15 16  1  0
 16 17  2  0
 16 18  1  0
 18 19  2  0
 18 20  1  0
 19 21  1  0
 20 22  1  0
 21 22  2  0
M  END
