AGN-NEW-95323f67-5
     RDKit          3D

 22 23  0  0  0  0  0  0  0  0999 V2000
    4.2170    1.0040   21.5130 C   0  0  0  0  0  0  0  0  0  0  0  0
    4.8500    0.8960   20.2400 C   0  0  0  0  0  0  0  0  0  0  0  0
    4.2860    1.7020   19.0380 C   0  0  0  0  0  0  0  0  0  0  0  0
    5.9740    0.0960   20.0120 C   0  0  0  0  0  0  0  0  0  0  0  0
    5.1040    1.4650   17.7440 C   0  0  0  0  0  0  0  0  0  0  0  0
    6.5890    0.0150   18.6400 C   0  0  0  0  0  0  0  0  0  0  0  0
    6.5400   -0.6110   21.0550 N   0  0  0  0  0  0  0  0  0  0  0  0
    6.1620    0.6810   17.5640 N   0  0  0  0  0  0  0  0  0  0  0  0
    7.6430   -0.7790   18.4820 F   0  0  0  0  0  0  0  0  0  0  0  0
    8.0950   -0.0020   21.2800 S   0  0  0  0  0  0  0  0  0  0  0  0
    9.0030   -1.0010   20.8410 O   0  0  0  0  0  0  0  0  0  0  0  0
    8.1480    1.3420   20.6870 O   0  0  0  0  0  0  0  0  0  0  0  0
    8.4150    0.1230   22.9770 C   0  0  0  0  0  0  0  0  0  0  0  0
    9.8950   -0.0350   23.2520 C   0  0  0  0  0  0  0  0  0  0  0  0
   10.5110    0.0940   24.4970 N   0  0  0  0  0  0  0  0  0  0  0  0
   11.7620    0.6140   24.1060 C   0  0  0  0  0  0  0  0  0  0  0  0
   12.0240    1.7980   23.9330 O   0  0  0  0  0  0  0  0  0  0  0  0
   12.8310   -0.3850   23.7740 C   0  0  0  0  0  0  0  0  0  0  0  0
   12.7870   -0.9560   22.5130 C   0  0  0  0  0  0  0  0  0  0  0  0
   12.7480   -1.4460   24.7100 C   0  0  0  0  0  0  0  0  0  0  0  0
   12.7170   -2.4120   22.6420 C   0  0  0  0  0  0  0  0  0  0  0  0
   12.7710   -2.6770   24.0790 C   0  0  0  0  0  0  0  0  0  0  0  0
  1  2  1  0
  2  3  2  0
  2  4  1  0
  3  5  1  0
  4  6  2  0
  4  7  1  0
  5  8  2  0
  6  8  1  0
  6  9  1  0
  7 10  1  0
 10 11  2  0
 10 12  2  0
 10 13  1  0
 13 14  2  3
 14 15  1  0
 15 16  1  0
 16 17  2  0
 16 18  1  0
 18 19  1  0
 18 20  1  0
 19 21  1  0
 20 22  1  0
 21 22  1  0
M  END
