AGN-NEW-891393a6-5
     RDKit          3D

 21 22  0  0  0  0  0  0  0  0999 V2000
   12.6460    3.6380   22.7850 C   0  0  0  0  0  0  0  0  0  0  0  0
   11.3810    3.0240   23.3400 C   0  0  0  0  0  0  0  0  0  0  0  0
   10.0450    3.5810   22.8360 C   0  0  0  0  0  0  0  0  0  0  0  0
   11.3670    1.5250   23.1190 C   0  0  0  0  0  0  0  0  0  0  0  0
   12.5040    0.7520   22.7730 C   0  0  0  0  0  0  0  0  0  0  0  0
   10.1280    0.8870   23.2360 C   0  0  0  0  0  0  0  0  0  0  0  0
   12.3290   -0.6010   22.5310 C   0  0  0  0  0  0  0  0  0  0  0  0
   10.0320   -0.4700   22.9880 C   0  0  0  0  0  0  0  0  0  0  0  0
   13.4860   -1.6850   22.0660 Cl  0  0  0  0  0  0  0  0  0  0  0  0
   11.1290   -1.1630   22.6410 C   0  0  0  0  0  0  0  0  0  0  0  0
    8.5250   -1.3330   23.0680 S   0  0  0  0  0  0  0  0  0  0  0  0
    8.7800   -2.7290   22.7870 O   0  0  0  0  0  0  0  0  0  0  0  0
    7.8080   -0.8940   24.2420 O   0  0  0  0  0  0  0  0  0  0  0  0
    7.9590   -0.4930   21.6830 C   0  0  0  0  0  0  0  0  0  0  0  0
    6.6170   -0.7990   21.1540 C   0  0  0  0  0  0  0  0  0  0  0  0
    6.1260   -0.0220   19.9610 C   0  0  0  0  0  0  0  0  0  0  0  0
    4.9650    0.7280   20.1060 C   0  0  0  0  0  0  0  0  0  0  0  0
    6.7870   -0.0200   18.7490 C   0  0  0  0  0  0  0  0  0  0  0  0
    4.4290    1.5390   18.9680 C   0  0  0  0  0  0  0  0  0  0  0  0
    6.3870    0.6720   17.6700 N   0  0  0  0  0  0  0  0  0  0  0  0
    5.1710    1.4710   17.8090 C   0  0  0  0  0  0  0  0  0  0  0  0
  1  2  1  0
  2  3  1  0
  2  4  1  0
  4  5  2  0
  4  6  1  0
  5  7  1  0
  6  8  2  0
  7  9  1  0
  7 10  2  0
  8 10  1  0
  8 11  1  0
 11 12  2  0
 11 13  2  0
 11 14  1  0
 14 15  2  3
 15 16  1  0
 16 17  2  0
 16 18  1  0
 17 19  1  0
 18 20  2  0
 19 21  2  0
 20 21  1  0
M  END
