AHN-SAT-de2502ba-6-vinylsulfonamide
     RDKit          3D

 20 21  0  0  0  0  0  0  0  0999 V2000
    8.8960   -4.0570   20.4920 C   0  0  0  0  0  0  0  0  0  0  0  0
    7.7220   -3.1280   20.1100 C   0  0  0  0  0  0  0  0  0  0  0  0
    6.1610   -3.4360   20.9550 S   0  0  0  0  0  0  0  0  0  0  0  0
    5.2510   -4.2110   20.0980 O   0  0  0  0  0  0  0  0  0  0  0  0
    5.7030   -2.1420   21.4170 O   0  0  0  0  0  0  0  0  0  0  0  0
    6.5570   -4.2860   22.4530 N   0  0  0  0  0  0  0  0  0  0  0  0
    6.9980   -5.6360   22.3590 C   0  0  0  0  0  0  0  0  0  0  0  0
    6.1540   -6.4340   21.7260 C   0  0  0  0  0  0  0  0  0  0  0  0
    8.2120   -5.9850   22.8940 C   0  0  0  0  0  0  0  0  0  0  0  0
    5.7280   -5.1790   21.9070 C   0  0  0  0  0  0  0  0  0  0  0  0
    7.9050   -4.6710   23.1610 C   0  0  0  0  0  0  0  0  0  0  0  0
    6.6500   -4.2130   22.6770 C   0  0  0  0  0  0  0  0  0  0  0  0
    9.0230   -3.6700   24.0960 S   0  0  0  0  0  0  0  0  0  0  0  0
    8.5310   -2.3080   24.1100 O   0  0  0  0  0  0  0  0  0  0  0  0
   10.3900   -3.9920   23.7600 O   0  0  0  0  0  0  0  0  0  0  0  0
    8.6830   -4.3820   25.5950 N   0  0  0  0  0  0  0  0  0  0  0  0
    7.5520   -3.9410   26.4480 C   0  0  0  0  0  0  0  0  0  0  0  0
    9.7820   -4.9100   26.4310 C   0  0  0  0  0  0  0  0  0  0  0  0
    7.8640   -4.5580   27.6710 C   0  0  0  0  0  0  0  0  0  0  0  0
    9.1510   -5.0770   27.8090 C   0  0  0  0  0  0  0  0  0  0  0  0
  1  2  1  0
  2  3  1  0
  3  4  2  0
  3  5  2  0
  3  6  1  0
  6  7  1  0
  7  8  2  0
  7  9  1  0
  8 10  1  0
  9 11  2  0
 10 12  2  0
 11 12  1  0
 13 11  1  0
 13 14  2  0
 13 15  2  0
 13 16  1  0
 16 17  1  0
 16 18  1  0
 17 19  1  0
 18 20  1  0
 19 20  1  0
M  END
