AHN-SAT-02ef6d10-8-bromoalkyne
     RDKit          3D

 17 18  0  0  0  0  0  0  0  0999 V2000
    6.5100   -2.9940   20.1800 C   0  0  0  0  0  0  0  0  0  0  0  0
    5.3120   -3.7120   19.6880 C   0  0  0  0  0  0  0  0  0  0  0  0
    6.2660   -1.5350   20.6460 N   0  0  0  0  0  0  0  0  0  0  0  0
    5.7300   -1.0390   22.0660 C   0  0  0  0  0  0  0  0  0  0  0  0
    4.8310    0.1130   22.4260 C   0  0  0  0  0  0  0  0  0  0  0  0
    3.5170   -0.1310   22.6660 C   0  0  0  0  0  0  0  0  0  0  0  0
    5.1320    1.5530   22.6260 C   0  0  0  0  0  0  0  0  0  0  0  0
    2.6200    0.8260   23.0310 C   0  0  0  0  0  0  0  0  0  0  0  0
    4.3200    2.7460   23.0180 C   0  0  0  0  0  0  0  0  0  0  0  0
    3.0310    2.0780   23.1690 N   0  0  0  0  0  0  0  0  0  0  0  0
    5.7280    3.1250   22.7880 N   0  0  0  0  0  0  0  0  0  0  0  0
    6.5050    3.0820   24.0580 C   0  0  0  0  0  0  0  0  0  0  0  0
    5.8940    4.2730   22.0320 C   0  0  0  0  0  0  0  0  0  0  0  0
    7.2070    4.4080   24.4180 C   0  0  0  0  0  0  0  0  0  0  0  0
    7.1500    5.0760   22.4640 C   0  0  2  0  0  0  0  0  0  0  0  0
    7.1590    5.3710   23.6560 O   0  0  0  0  0  0  0  0  0  0  0  0
    7.3280    6.3680   21.6470 C   0  0  0  0  0  0  0  0  0  0  0  0
  1  2  2  3
  1  3  1  0
  3  4  1  0
  4  5  1  0
  5  6  2  0
  5  7  1  0
  6  8  1  0
  7  9  2  0
  8 10  2  0
  9 10  1  0
  9 11  1  0
 11 12  1  0
 11 13  1  0
 12 14  1  0
 13 15  1  0
 14 16  1  0
 15 16  1  0
 15 17  1  6
M  END
