AHN-SAT-de2502ba-9-acrylamide
     RDKit          3D

 21 22  0  0  0  0  0  0  0  0999 V2000
    7.4540   -2.5130   20.0870 C   0  0  0  0  0  0  0  0  0  0  0  0
    6.7810   -1.7680   21.2080 C   0  0  0  0  0  0  0  0  0  0  0  0
    5.3750   -2.2730   21.3750 C   0  0  0  0  0  0  0  0  0  0  0  0
    4.8250   -2.9760   20.5100 O   0  0  0  0  0  0  0  0  0  0  0  0
    4.7970   -1.9600   22.5850 N   0  0  0  0  0  0  0  0  0  0  0  0
    5.2640   -2.8830   23.4830 C   0  0  0  0  0  0  0  0  0  0  0  0
    5.5290   -4.1650   22.7460 C   0  0  0  0  0  0  0  0  0  0  0  0
    5.4920   -2.6960   24.8640 C   0  0  0  0  0  0  0  0  0  0  0  0
    6.0750   -5.3190   23.4880 C   0  0  0  0  0  0  0  0  0  0  0  0
    5.9970   -3.7940   25.5620 C   0  0  0  0  0  0  0  0  0  0  0  0
    5.2110   -1.3580   25.5720 C   0  0  0  0  0  0  0  0  0  0  0  0
    6.3700   -6.7190   22.5850 S   0  0  0  0  0  0  0  0  0  0  0  0
    6.3050   -5.1360   24.8820 C   0  0  0  0  0  0  0  0  0  0  0  0
    5.8930   -6.4410   21.2440 O   0  0  0  0  0  0  0  0  0  0  0  0
    5.7440   -7.7570   23.3140 O   0  0  0  0  0  0  0  0  0  0  0  0
    8.0900   -6.7880   22.4990 N   0  0  0  0  0  0  0  0  0  0  0  0
    8.8910   -7.8380   22.6250 C   0  0  0  0  0  0  0  0  0  0  0  0
    8.5920   -6.8490   21.3110 C   0  0  0  0  0  0  0  0  0  0  0  0
   10.1450   -7.8140   21.7880 C   0  0  0  0  0  0  0  0  0  0  0  0
   10.1350   -6.3300   20.8550 C   0  0  0  0  0  0  0  0  0  0  0  0
   11.0270   -7.1030   21.6030 O   0  0  0  0  0  0  0  0  0  0  0  0
  1  2  1  0
  2  3  1  0
  3  4  2  0
  3  5  1  0
  5  6  1  0
  6  7  2  0
  6  8  1  0
  7  9  1  0
  8 10  2  0
  8 11  1  0
 12  9  1  0
  9 13  2  0
 10 13  1  0
 12 14  2  0
 12 15  2  0
 12 16  1  0
 16 17  1  0
 16 18  1  0
 17 19  1  0
 18 20  1  0
 19 21  1  0
 20 21  1  0
M  END
