AHN-SAT-de2502ba-5-bromoalkyne
     RDKit          3D

 18 19  0  0  0  0  0  0  0  0999 V2000
    6.8090   -3.9130   19.8260 C   0  0  0  0  0  0  0  0  0  0  0  0
    5.8180   -3.3130   19.1930 C   0  0  0  0  0  0  0  0  0  0  0  0
    6.8070   -4.5770   21.0110 N   0  0  0  0  0  0  0  0  0  0  0  0
    6.9520   -3.8630   22.1690 C   0  0  0  0  0  0  0  0  0  0  0  0
    7.9630   -2.8850   22.2290 C   0  0  0  0  0  0  0  0  0  0  0  0
    6.1280   -4.0910   23.2620 C   0  0  0  0  0  0  0  0  0  0  0  0
    8.0950   -2.1480   23.4490 C   0  0  0  0  0  0  0  0  0  0  0  0
    6.3170   -3.3300   24.4180 C   0  0  0  0  0  0  0  0  0  0  0  0
    7.3020   -2.3480   24.5310 C   0  0  0  0  0  0  0  0  0  0  0  0
    5.2790   -3.6110   25.7850 S   0  0  0  0  0  0  0  0  0  0  0  0
    4.3460   -2.5140   25.8010 O   0  0  0  0  0  0  0  0  0  0  0  0
    4.8450   -4.9940   25.7860 O   0  0  0  0  0  0  0  0  0  0  0  0
    6.4440   -3.3930   26.9980 N   0  0  0  0  0  0  0  0  0  0  0  0
    7.6460   -4.2210   26.8400 C   0  0  0  0  0  0  0  0  0  0  0  0
    5.8740   -3.3210   28.3620 C   0  0  0  0  0  0  0  0  0  0  0  0
    7.5460   -5.4340   27.5280 C   0  0  0  0  0  0  0  0  0  0  0  0
    5.7880   -4.6270   28.8200 C   0  0  0  0  0  0  0  0  0  0  0  0
    6.9560   -5.3890   28.7770 C   0  0  0  0  0  0  0  0  0  0  0  0
  1  2  2  3
  1  3  1  0
  3  4  1  0
  4  5  2  0
  4  6  1  0
  5  7  1  0
  6  8  2  0
  7  9  2  0
  8  9  1  0
 10  8  1  0
 10 11  2  0
 10 12  2  0
 10 13  1  0
 13 14  1  0
 13 15  1  0
 14 16  1  0
 15 17  1  0
 16 18  1  0
 17 18  1  0
M  END
