AHN-SAT-02ef6d10-6-bromoalkyne
     RDKit          3D

 14 15  0  0  0  0  0  0  0  0999 V2000
    7.1060   -3.8860   20.2800 C   0  0  0  0  0  0  0  0  0  0  0  0
    5.9390   -4.7650   20.0220 C   0  0  0  0  0  0  0  0  0  0  0  0
    7.2080   -3.2730   21.5630 N   0  0  0  0  0  0  0  0  0  0  0  0
    6.4440   -3.8760   22.6560 C   0  0  0  0  0  0  0  0  0  0  0  0
    8.2500   -3.0120   22.3780 C   0  0  0  0  0  0  0  0  0  0  0  0
    5.6450   -2.9350   23.2440 C   0  0  0  0  0  0  0  0  0  0  0  0
    7.9110   -1.9510   23.2840 C   0  0  0  0  0  0  0  0  0  0  0  0
    6.5600   -2.0430   23.9120 N   0  0  0  0  0  0  0  0  0  0  0  0
    6.5660   -2.0360   25.2730 C   0  0  0  0  0  0  0  0  0  0  0  0
    5.3090   -2.1850   25.9260 C   0  0  0  0  0  0  0  0  0  0  0  0
    5.1060   -3.0660   26.9980 C   0  0  0  0  0  0  0  0  0  0  0  0
    3.7750   -1.3190   25.5440 S   0  0  0  0  0  0  0  0  0  0  0  0
    3.7630   -3.1270   27.5860 N   0  0  0  0  0  0  0  0  0  0  0  0
    2.9640   -2.1640   26.8100 C   0  0  0  0  0  0  0  0  0  0  0  0
  1  2  2  3
  1  3  1  0
  3  4  1  0
  3  5  1  0
  4  6  1  0
  5  7  1  0
  6  8  1  0
  7  8  1  0
  8  9  1  0
  9 10  1  0
 10 11  2  0
 10 12  1  0
 11 13  1  0
 12 14  1  0
 13 14  2  0
M  END
