AHN-SAT-de2502ba-19-vinylsulfonamide
     RDKit          3D

 21 22  0  0  0  0  0  0  0  0999 V2000
    9.0250   -3.9340   20.0970 C   0  0  0  0  0  0  0  0  0  0  0  0
    8.0160   -4.4470   21.1180 C   0  0  0  0  0  0  0  0  0  0  0  0
    6.4780   -3.5470   20.9870 S   0  0  0  0  0  0  0  0  0  0  0  0
    5.3420   -4.4620   20.7940 O   0  0  0  0  0  0  0  0  0  0  0  0
    6.6800   -2.3980   20.1350 O   0  0  0  0  0  0  0  0  0  0  0  0
    6.3680   -3.0740   22.6150 N   0  0  0  0  0  0  0  0  0  0  0  0
    6.5220   -4.1720   23.5400 C   0  0  0  0  0  0  0  0  0  0  0  0
    6.2050   -3.5500   24.6080 C   0  0  0  0  0  0  0  0  0  0  0  0
    6.4230   -4.5650   24.9070 C   0  0  0  0  0  0  0  0  0  0  0  0
    5.9900   -2.3960   24.0670 C   0  0  0  0  0  0  0  0  0  0  0  0
    6.0340   -3.0320   24.8540 C   0  0  0  0  0  0  0  0  0  0  0  0
    6.1700   -4.5770   26.6300 Cl  0  0  0  0  0  0  0  0  0  0  0  0
    5.6820   -2.2700   25.8430 S   0  0  0  0  0  0  0  0  0  0  0  0
    5.6460   -1.4990   24.8010 C   0  0  0  0  0  0  0  0  0  0  0  0
    5.3240   -0.8800   26.0610 O   0  0  0  0  0  0  0  0  0  0  0  0
    6.8120   -2.8090   26.5840 O   0  0  0  0  0  0  0  0  0  0  0  0
    4.2520   -3.1410   26.1170 N   0  0  0  0  0  0  0  0  0  0  0  0
    3.3070   -2.6790   27.1530 C   0  0  0  0  0  0  0  0  0  0  0  0
    3.4910   -3.6630   24.9580 C   0  0  0  0  0  0  0  0  0  0  0  0
    1.9620   -2.6270   26.4370 C   0  0  0  0  0  0  0  0  0  0  0  0
    2.0610   -3.7880   25.4680 C   0  0  0  0  0  0  0  0  0  0  0  0
  1  2  1  0
  2  3  1  0
  3  4  2  0
  3  5  2  0
  3  6  1  0
  6  7  1  0
  7  8  2  0
  7  9  1  0
  8 10  1  0
  9 11  2  0
  9 12  1  0
 13 10  1  0
 10 14  2  0
 11 14  1  0
 13 15  2  0
 13 16  2  0
 13 17  1  0
 17 18  1  0
 17 19  1  0
 18 20  1  0
 19 21  1  0
 20 21  1  0
M  END
