AHN-SAT-de2502ba-6-chloroacetamide
     RDKit          3D

 18 19  0  0  0  0  0  0  0  0999 V2000
    7.0760   -3.1930   19.3140 C   0  0  0  0  0  0  0  0  0  0  0  0
    6.1810   -4.1260   20.0680 C   0  0  0  0  0  0  0  0  0  0  0  0
    5.0320   -4.3010   19.7650 O   0  0  0  0  0  0  0  0  0  0  0  0
    6.7120   -4.9220   21.0580 N   0  0  0  0  0  0  0  0  0  0  0  0
    6.7990   -4.6780   22.3970 C   0  0  0  0  0  0  0  0  0  0  0  0
    7.5170   -5.6450   23.0740 C   0  0  0  0  0  0  0  0  0  0  0  0
    6.2210   -3.5910   23.0620 C   0  0  0  0  0  0  0  0  0  0  0  0
    7.6960   -5.6000   24.3680 C   0  0  0  0  0  0  0  0  0  0  0  0
    6.3960   -3.5530   24.4460 C   0  0  0  0  0  0  0  0  0  0  0  0
    7.1070   -4.5190   25.0840 C   0  0  0  0  0  0  0  0  0  0  0  0
    5.7460   -2.3160   25.5050 S   0  0  0  0  0  0  0  0  0  0  0  0
    4.3220   -2.5230   25.5520 O   0  0  0  0  0  0  0  0  0  0  0  0
    6.3270   -1.0520   25.1280 O   0  0  0  0  0  0  0  0  0  0  0  0
    6.3690   -2.7980   26.9890 N   0  0  0  0  0  0  0  0  0  0  0  0
    7.7780   -3.2320   27.1510 C   0  0  0  0  0  0  0  0  0  0  0  0
    5.5650   -3.5710   27.9680 C   0  0  0  0  0  0  0  0  0  0  0  0
    7.6530   -4.5040   27.7520 C   0  0  0  0  0  0  0  0  0  0  0  0
    6.4290   -4.7710   28.3820 C   0  0  0  0  0  0  0  0  0  0  0  0
  1  2  1  0
  2  3  2  0
  2  4  1  0
  4  5  1  0
  5  6  2  0
  5  7  1  0
  6  8  1  0
  7  9  2  0
  8 10  2  0
  9 10  1  0
 11  9  1  0
 11 12  2  0
 11 13  2  0
 11 14  1  0
 14 15  1  0
 14 16  1  0
 15 17  1  0
 16 18  1  0
 17 18  1  0
M  END
