AHN-SAT-de2502ba-6-bromoalkyne
     RDKit          3D

 17 18  0  0  0  0  0  0  0  0999 V2000
    6.9880   -3.9720   20.1700 C   0  0  0  0  0  0  0  0  0  0  0  0
    5.7390   -4.1110   19.7800 C   0  0  0  0  0  0  0  0  0  0  0  0
    7.4590   -4.5130   21.3300 N   0  0  0  0  0  0  0  0  0  0  0  0
    6.6420   -4.7720   22.4000 C   0  0  0  0  0  0  0  0  0  0  0  0
    6.0410   -6.0360   22.4800 C   0  0  0  0  0  0  0  0  0  0  0  0
    6.4010   -3.8230   23.3970 C   0  0  0  0  0  0  0  0  0  0  0  0
    5.2120   -6.3680   23.5240 C   0  0  0  0  0  0  0  0  0  0  0  0
    5.5590   -4.1690   24.4480 C   0  0  0  0  0  0  0  0  0  0  0  0
    4.9790   -5.4280   24.5000 C   0  0  0  0  0  0  0  0  0  0  0  0
    5.1910   -3.0210   25.7320 S   0  0  0  0  0  0  0  0  0  0  0  0
    3.9420   -3.4650   26.3210 O   0  0  0  0  0  0  0  0  0  0  0  0
    5.3050   -1.7070   25.1780 O   0  0  0  0  0  0  0  0  0  0  0  0
    6.3850   -3.2170   26.9190 N   0  0  0  0  0  0  0  0  0  0  0  0
    5.9130   -3.5690   28.1630 C   0  0  0  0  0  0  0  0  0  0  0  0
    7.5670   -4.1370   26.5930 C   0  0  0  0  0  0  0  0  0  0  0  0
    6.6140   -4.7960   28.5110 C   0  0  0  0  0  0  0  0  0  0  0  0
    7.6380   -5.0920   27.6650 C   0  0  0  0  0  0  0  0  0  0  0  0
  1  2  2  3
  1  3  1  0
  3  4  1  0
  4  5  2  0
  4  6  1  0
  5  7  1  0
  6  8  2  0
  7  9  2  0
  8  9  1  0
 10  8  1  0
 10 11  2  0
 10 12  2  0
 10 13  1  0
 13 14  1  0
 13 15  1  0
 14 16  1  0
 15 17  1  0
 16 17  1  0
M  END
