AHN-SAT-de2502ba-5-chloroacetamide
     RDKit          3D

 19 20  0  0  0  0  0  0  0  0999 V2000
    7.5130   -4.5710   20.6840 C   0  0  0  0  0  0  0  0  0  0  0  0
    6.6270   -3.4090   20.3640 C   0  0  0  0  0  0  0  0  0  0  0  0
    5.8490   -3.4350   19.3970 O   0  0  0  0  0  0  0  0  0  0  0  0
    6.8240   -2.4240   21.2900 N   0  0  0  0  0  0  0  0  0  0  0  0
    6.1670   -2.4080   22.5100 C   0  0  0  0  0  0  0  0  0  0  0  0
    4.8230   -2.7420   22.5960 C   0  0  0  0  0  0  0  0  0  0  0  0
    6.8680   -2.0600   23.6610 C   0  0  0  0  0  0  0  0  0  0  0  0
    4.1480   -2.7290   23.8080 C   0  0  0  0  0  0  0  0  0  0  0  0
    6.1820   -2.0560   24.8720 C   0  0  0  0  0  0  0  0  0  0  0  0
    4.8280   -2.3810   24.9540 C   0  0  0  0  0  0  0  0  0  0  0  0
    7.0000   -1.6560   26.3750 S   0  0  0  0  0  0  0  0  0  0  0  0
    8.4270   -1.5370   26.1380 O   0  0  0  0  0  0  0  0  0  0  0  0
    6.2390   -0.6270   27.0470 O   0  0  0  0  0  0  0  0  0  0  0  0
    6.7060   -3.1670   27.1200 N   0  0  0  0  0  0  0  0  0  0  0  0
    7.9140   -3.9890   27.3560 C   0  0  0  0  0  0  0  0  0  0  0  0
    5.8270   -3.1020   28.3110 C   0  0  0  0  0  0  0  0  0  0  0  0
    7.5150   -5.4190   27.6690 C   0  0  0  0  0  0  0  0  0  0  0  0
    5.3540   -4.5100   28.6440 C   0  0  0  0  0  0  0  0  0  0  0  0
    6.5260   -5.4670   28.8220 C   0  0  0  0  0  0  0  0  0  0  0  0
  1  2  1  0
  2  3  2  0
  2  4  1  0
  4  5  1  0
  5  6  2  0
  5  7  1  0
  6  8  1  0
  7  9  2  0
  8 10  2  0
  9 10  1  0
 11  9  1  0
 11 12  2  0
 11 13  2  0
 11 14  1  0
 14 15  1  0
 14 16  1  0
 15 17  1  0
 16 18  1  0
 17 19  1  0
 18 19  1  0
M  END
