AHN-SAT-02ef6d10-9-bromoalkyne
     RDKit          3D

 12 13  0  0  0  0  0  0  0  0999 V2000
    8.8980   -8.9190   17.1410 C   0  0  0  0  0  0  0  0  0  0  0  0
    7.4030   -8.4960   16.7970 C   0  0  0  0  0  0  0  0  0  0  0  0
   10.1530  -10.3120   15.2700 N   0  0  0  0  0  0  0  0  0  0  0  0
    9.7020  -10.7530   13.6890 C   0  0  0  0  0  0  0  0  0  0  0  0
   11.3150  -10.0800   13.8400 C   0  0  0  0  0  0  0  0  0  0  0  0
   10.7160  -10.6230   12.8630 C   0  0  0  0  0  0  0  0  0  0  0  0
   10.6930  -10.2020   11.4060 C   0  0  0  0  0  0  0  0  0  0  0  0
    9.5050  -10.8420   10.8340 C   0  0  0  0  0  0  0  0  0  0  0  0
    8.4520  -11.5080   11.1880 C   0  0  0  0  0  0  0  0  0  0  0  0
    8.6220  -11.3280    9.9430 C   0  0  0  0  0  0  0  0  0  0  0  0
    7.6990  -11.9990    9.9070 C   0  0  0  0  0  0  0  0  0  0  0  0
    8.2840  -11.5230    8.4070 S   0  0  0  0  0  0  0  0  0  0  0  0
  1  2  2  3
  1  3  1  0
  3  4  1  0
  3  5  1  0
  4  6  1  0
  5  6  1  0
  6  7  1  0
  7  8  1  0
  8  9  1  0
  8 10  2  0
  9 11  2  0
 10 12  1  0
 11 12  1  0
M  END
