AHN-SAT-02ef6d10-10-nitrile
     RDKit          3D

 16 17  0  0  0  0  0  0  0  0999 V2000
    6.9560   -3.9290   20.1170 C   0  0  0  0  0  0  0  0  0  0  0  0
    6.4910   -3.2160   19.1520 N   0  0  0  0  0  0  0  0  0  0  0  0
    7.0010   -3.4950   21.4610 N   0  0  0  0  0  0  0  0  0  0  0  0
    5.9440   -3.9360   22.3780 C   0  0  0  0  0  0  0  0  0  0  0  0
    7.8830   -2.5800   21.9580 C   0  0  0  0  0  0  0  0  0  0  0  0
    5.4600   -2.7810   23.2020 C   0  0  0  0  0  0  0  0  0  0  0  0
    7.8660   -2.4690   23.3650 C   0  0  0  0  0  0  0  0  0  0  0  0
    6.5630   -2.0970   23.9210 N   0  0  0  0  0  0  0  0  0  0  0  0
    6.5150   -2.3270   25.3860 C   0  0  0  0  0  0  0  0  0  0  0  0
    5.2060   -2.2890   25.9390 C   0  0  0  0  0  0  0  0  0  0  0  0
    4.1920   -1.4280   25.4470 C   0  0  0  0  0  0  0  0  0  0  0  0
    4.9030   -3.1570   27.0300 C   0  0  0  0  0  0  0  0  0  0  0  0
    2.9360   -1.4660   26.0510 C   0  0  0  0  0  0  0  0  0  0  0  0
    3.6170   -3.1630   27.6120 C   0  0  0  0  0  0  0  0  0  0  0  0
    2.6650   -2.3080   27.0980 C   0  0  0  0  0  0  0  0  0  0  0  0
    3.3290   -3.9760   28.6360 F   0  0  0  0  0  0  0  0  0  0  0  0
  1  2  2  3
  1  3  1  0
  3  4  1  0
  3  5  1  0
  4  6  1  0
  5  7  1  0
  6  8  1  0
  7  8  1  0
  8  9  1  0
  9 10  1  0
 10 11  2  0
 10 12  1  0
 11 13  1  0
 12 14  2  0
 13 15  2  0
 14 15  1  0
 14 16  1  0
M  END
