AHN-SAT-02ef6d10-6-nitrile
     RDKit          3D

 14 15  0  0  0  0  0  0  0  0999 V2000
    6.9080   -3.5680   20.0380 C   0  0  0  0  0  0  0  0  0  0  0  0
    5.8330   -3.5000   19.3760 N   0  0  0  0  0  0  0  0  0  0  0  0
    6.8960   -3.1910   21.4150 N   0  0  0  0  0  0  0  0  0  0  0  0
    6.2850   -4.1080   22.3750 C   0  0  0  0  0  0  0  0  0  0  0  0
    8.0400   -2.9520   22.2580 C   0  0  0  0  0  0  0  0  0  0  0  0
    5.6700   -3.3370   23.4980 C   0  0  0  0  0  0  0  0  0  0  0  0
    7.7620   -2.1260   23.3790 C   0  0  0  0  0  0  0  0  0  0  0  0
    6.4290   -2.1180   23.8530 N   0  0  0  0  0  0  0  0  0  0  0  0
    6.3280   -1.7260   25.2960 C   0  0  0  0  0  0  0  0  0  0  0  0
    5.1310   -2.1180   25.9910 C   0  0  0  0  0  0  0  0  0  0  0  0
    5.0690   -3.1230   26.9750 C   0  0  0  0  0  0  0  0  0  0  0  0
    3.5060   -1.3840   25.7410 S   0  0  0  0  0  0  0  0  0  0  0  0
    3.8140   -3.3270   27.5280 N   0  0  0  0  0  0  0  0  0  0  0  0
    2.8290   -2.4220   26.9380 C   0  0  0  0  0  0  0  0  0  0  0  0
  1  2  2  3
  1  3  1  0
  3  4  1  0
  3  5  1  0
  4  6  1  0
  5  7  1  0
  6  8  1  0
  7  8  1  0
  8  9  1  0
  9 10  1  0
 10 11  2  0
 10 12  1  0
 11 13  1  0
 12 14  1  0
 13 14  2  0
M  END
