AHN-SAT-324b361c-1-bromoalkyne
     RDKit          3D

 18 20  0  0  0  0  0  0  0  0999 V2000
   11.2640  -10.2950   19.4070 C   0  0  0  0  0  0  0  0  0  0  0  0
    9.3430   -9.1370   17.8490 C   0  0  0  0  0  0  0  0  0  0  0  0
   13.5460  -12.4080   20.6280 N   0  0  0  0  0  0  0  0  0  0  0  0
   15.2710  -15.0650   21.4640 C   0  0  0  0  0  0  0  0  0  0  0  0
   17.7250  -16.0970   22.4980 C   0  0  0  0  0  0  0  0  0  0  0  0
   19.2130  -16.7420   23.1210 C   0  0  0  0  0  0  0  0  0  0  0  0
   19.1080  -17.6640   22.8180 O   0  0  0  0  0  0  0  0  0  0  0  0
   19.6690  -18.2500   22.9630 C   0  0  0  0  0  0  0  0  0  0  0  0
   20.6460  -19.1800   23.2470 C   0  0  0  0  0  0  0  0  0  0  0  0
   21.0970  -21.2380   22.7650 C   0  0  0  0  0  0  0  0  0  0  0  0
   21.3230  -21.9630   21.5590 N   0  0  0  0  0  0  0  0  0  0  0  0
   21.5070  -23.1090   22.3280 S   0  0  0  0  0  0  0  0  0  0  0  0
   21.5250  -22.6120   20.4730 C   0  0  0  0  0  0  0  0  0  0  0  0
   21.6890  -23.5600   20.2960 C   0  0  0  0  0  0  0  0  0  0  0  0
   21.7390  -23.9570   20.8930 C   0  0  0  0  0  0  0  0  0  0  0  0
   21.8910  -24.9100   20.5550 C   0  0  0  0  0  0  0  0  0  0  0  0
   21.8310  -24.4900   19.3590 C   0  0  0  0  0  0  0  0  0  0  0  0
   22.0670  -25.8660   19.8220 C   0  0  0  0  0  0  0  0  0  0  0  0
  1  2  2  3
  1  3  1  0
  3  4  1  0
  4  5  1  0
  5  6  2  0
  5  7  1  0
  6  8  1  0
  7  9  1  0
  8  9  2  0
  9 10  1  0
 10 11  2  0
 10 12  1  0
 11 13  1  0
 12 14  1  0
 13 14  2  0
 13 15  1  0
 14 16  1  0
 15 17  2  0
 16 18  2  0
 17 18  1  0
M  END
