AHN-SAT-de2502ba-12-vinylsulfonamide
     RDKit          3D

 22 23  0  0  0  0  0  0  0  0999 V2000
    6.6310   -3.9980   20.2910 C   0  0  0  0  0  0  0  0  0  0  0  0
    6.8630   -3.0780   21.4920 C   0  0  0  0  0  0  0  0  0  0  0  0
    5.2820   -2.6590   22.2060 S   0  0  0  0  0  0  0  0  0  0  0  0
    4.5290   -3.8800   22.2950 O   0  0  0  0  0  0  0  0  0  0  0  0
    4.8300   -1.6070   21.3610 O   0  0  0  0  0  0  0  0  0  0  0  0
    5.3590   -2.0700   23.8290 N   0  0  0  0  0  0  0  0  0  0  0  0
    5.3040   -3.1120   24.9030 C   0  0  0  0  0  0  0  0  0  0  0  0
    5.8610   -4.2070   24.1210 C   0  0  0  0  0  0  0  0  0  0  0  0
    7.0390   -3.7640   23.5630 C   0  0  0  0  0  0  0  0  0  0  0  0
    5.3780   -5.5100   23.8680 C   0  0  0  0  0  0  0  0  0  0  0  0
    7.7530   -4.5490   22.7450 C   0  0  0  0  0  0  0  0  0  0  0  0
    6.1340   -6.3160   23.0110 C   0  0  0  0  0  0  0  0  0  0  0  0
    3.8720   -6.2560   24.5170 S   0  0  0  0  0  0  0  0  0  0  0  0
    7.3030   -5.8280   22.4570 C   0  0  0  0  0  0  0  0  0  0  0  0
    4.0470   -7.7020   24.5160 O   0  0  0  0  0  0  0  0  0  0  0  0
    2.7160   -5.6640   23.8750 O   0  0  0  0  0  0  0  0  0  0  0  0
    3.7990   -5.7460   26.1550 N   0  0  0  0  0  0  0  0  0  0  0  0
    2.5360   -5.0280   26.5460 C   0  0  0  0  0  0  0  0  0  0  0  0
    4.1550   -6.8420   27.1320 C   0  0  0  0  0  0  0  0  0  0  0  0
    1.8640   -5.7280   27.7320 C   0  0  0  0  0  0  0  0  0  0  0  0
    3.9910   -6.4050   28.5950 C   0  0  0  0  0  0  0  0  0  0  0  0
    2.7170   -5.8000   28.8770 O   0  0  0  0  0  0  0  0  0  0  0  0
  1  2  1  0
  2  3  1  0
  3  4  2  0
  3  5  2  0
  3  6  1  0
  6  7  1  0
  7  8  1  0
  8  9  2  0
  8 10  1  0
  9 11  1  0
 10 12  2  0
 13 10  1  0
 11 14  2  0
 12 14  1  0
 13 15  2  0
 13 16  2  0
 13 17  1  0
 17 18  1  0
 17 19  1  0
 18 20  1  0
 19 21  1  0
 20 22  1  0
 21 22  1  0
M  END
