AHN-SAT-02ef6d10-10-vinylsulfonamide
     RDKit          3D

 19 20  0  0  0  0  0  0  0  0999 V2000
    8.3080   -3.9850   20.0790 C   0  0  0  0  0  0  0  0  0  0  0  0
    7.5100   -2.8470   19.5240 C   0  0  0  0  0  0  0  0  0  0  0  0
    6.0260   -2.9530   20.4370 S   0  0  0  0  0  0  0  0  0  0  0  0
    5.1410   -3.9850   19.8970 O   0  0  0  0  0  0  0  0  0  0  0  0
    5.5530   -1.6190   20.5110 O   0  0  0  0  0  0  0  0  0  0  0  0
    6.6810   -3.4230   21.9540 N   0  0  0  0  0  0  0  0  0  0  0  0
    7.8780   -2.7260   22.4560 C   0  0  0  0  0  0  0  0  0  0  0  0
    5.6430   -3.7050   22.9580 C   0  0  0  0  0  0  0  0  0  0  0  0
    7.6570   -1.7870   23.4660 C   0  0  0  0  0  0  0  0  0  0  0  0
    5.3400   -2.4690   23.5300 C   0  0  0  0  0  0  0  0  0  0  0  0
    6.4000   -1.9480   24.2090 N   0  0  0  0  0  0  0  0  0  0  0  0
    6.4650   -2.2740   25.5070 C   0  0  0  0  0  0  0  0  0  0  0  0
    5.1990   -2.2950   26.1220 C   0  0  0  0  0  0  0  0  0  0  0  0
    4.9050   -3.2710   27.0980 C   0  0  0  0  0  0  0  0  0  0  0  0
    4.2110   -1.3450   25.7630 C   0  0  0  0  0  0  0  0  0  0  0  0
    3.6580   -3.3340   27.7220 C   0  0  0  0  0  0  0  0  0  0  0  0
    2.8140   -1.3460   26.4040 C   0  0  0  0  0  0  0  0  0  0  0  0
    2.5630   -2.3180   27.3500 C   0  0  0  0  0  0  0  0  0  0  0  0
    1.8370   -0.4100   26.0560 F   0  0  0  0  0  0  0  0  0  0  0  0
  1  2  1  0
  3  2  1  0
  3  4  2  0
  3  5  2  0
  3  6  1  0
  6  7  1  0
  6  8  1  0
  7  9  1  0
  8 10  1  0
  9 11  1  0
 10 11  1  0
 11 12  1  0
 12 13  1  0
 13 14  2  0
 13 15  1  0
 14 16  1  0
 15 17  2  0
 16 18  2  0
 17 18  1  0
 17 19  1  0
M  END
