AHN-SAT-de2502ba-17-chloroacetamide
     RDKit          3D

 21 22  0  0  0  0  0  0  0  0999 V2000
    7.2870   -3.3620   19.3840 C   0  0  0  0  0  0  0  0  0  0  0  0
    6.6500   -4.1590   20.2300 C   0  0  0  0  0  0  0  0  0  0  0  0
    5.5220   -4.5900   19.9550 O   0  0  0  0  0  0  0  0  0  0  0  0
    7.3490   -4.5640   21.3640 N   0  0  0  0  0  0  0  0  0  0  0  0
    7.5530   -3.6500   22.4760 C   0  0  0  0  0  0  0  0  0  0  0  0
    6.4240   -3.6690   23.4950 C   0  0  0  0  0  0  0  0  0  0  0  0
    8.6770   -2.7650   22.6860 C   0  0  0  0  0  0  0  0  0  0  0  0
    6.4280   -2.8680   24.6200 C   0  0  0  0  0  0  0  0  0  0  0  0
    8.6320   -1.9920   23.8070 C   0  0  0  0  0  0  0  0  0  0  0  0
   10.0880   -2.5440   21.7110 Cl  0  0  0  0  0  0  0  0  0  0  0  0
    5.2340   -2.8530   25.7790 S   0  0  0  0  0  0  0  0  0  0  0  0
    7.4860   -2.0430   24.7900 C   0  0  0  0  0  0  0  0  0  0  0  0
    5.2140   -1.4970   26.2770 O   0  0  0  0  0  0  0  0  0  0  0  0
    4.0470   -3.4590   25.2570 O   0  0  0  0  0  0  0  0  0  0  0  0
    5.9520   -3.7330   27.0430 N   0  0  0  0  0  0  0  0  0  0  0  0
    7.3540   -4.0720   26.6730 C   0  0  0  0  0  0  0  0  0  0  0  0
    5.5150   -3.3760   28.2700 C   0  0  0  0  0  0  0  0  0  0  0  0
    7.8120   -5.0310   27.5860 C   0  0  0  0  0  0  0  0  0  0  0  0
    5.2220   -4.4680   29.0670 C   0  0  0  0  0  0  0  0  0  0  0  0
    6.7480   -5.7840   28.0670 C   0  0  0  0  0  0  0  0  0  0  0  0
    6.3610   -5.2400   29.2530 C   0  0  0  0  0  0  0  0  0  0  0  0
  1  2  1  0
  2  3  2  0
  2  4  1  0
  4  5  1  0
  5  6  2  0
  5  7  1  0
  6  8  1  0
  7  9  2  0
  7 10  1  0
 11  8  1  0
  8 12  2  0
  9 12  1  0
 11 13  2  0
 11 14  2  0
 11 15  1  0
 15 16  1  0
 15 17  1  0
 16 18  1  0
 17 19  1  0
 18 20  1  0
 19 21  1  0
 20 21  1  0
M  END
