AHN-SAT-02ef6d10-6-vinylsulfonamide
     RDKit          3D

 17 18  0  0  0  0  0  0  0  0999 V2000
    7.4560   -3.1460   18.7940 C   0  0  0  0  0  0  0  0  0  0  0  0
    7.4100   -2.1300   19.8810 C   0  0  0  0  0  0  0  0  0  0  0  0
    6.0440   -2.6010   20.9190 S   0  0  0  0  0  0  0  0  0  0  0  0
    5.1210   -3.5210   20.2370 O   0  0  0  0  0  0  0  0  0  0  0  0
    5.5340   -1.3690   21.4760 O   0  0  0  0  0  0  0  0  0  0  0  0
    6.8560   -3.4700   22.1400 N   0  0  0  0  0  0  0  0  0  0  0  0
    7.9610   -2.8350   22.8680 C   0  0  0  0  0  0  0  0  0  0  0  0
    6.2500   -3.9850   23.1840 C   0  0  0  0  0  0  0  0  0  0  0  0
    7.5840   -1.7180   23.5960 C   0  0  0  0  0  0  0  0  0  0  0  0
    5.4640   -2.9440   23.6740 C   0  0  0  0  0  0  0  0  0  0  0  0
    6.2930   -1.8960   24.2670 N   0  0  0  0  0  0  0  0  0  0  0  0
    6.3320   -1.9990   25.6050 C   0  0  0  0  0  0  0  0  0  0  0  0
    5.0960   -2.2520   26.2580 C   0  0  0  0  0  0  0  0  0  0  0  0
    4.9540   -3.1720   27.2970 C   0  0  0  0  0  0  0  0  0  0  0  0
    3.5360   -1.4570   25.8750 S   0  0  0  0  0  0  0  0  0  0  0  0
    3.6010   -3.2960   27.8460 N   0  0  0  0  0  0  0  0  0  0  0  0
    2.7300   -2.3620   27.1040 C   0  0  0  0  0  0  0  0  0  0  0  0
  1  2  1  0
  3  2  1  0
  3  4  2  0
  3  5  2  0
  3  6  1  0
  6  7  1  0
  6  8  1  0
  7  9  1  0
  8 10  1  0
  9 11  1  0
 10 11  1  0
 11 12  1  0
 12 13  1  0
 13 14  2  0
 13 15  1  0
 14 16  1  0
 15 17  1  0
 16 17  2  0
M  END
