ALE-SYG-bac15da4-2-chloroacetamide
     RDKit          3D

 22 24  0  0  0  0  0  0  0  0999 V2000
    7.8710   -2.8840   18.4300 C   0  0  0  0  0  0  0  0  0  0  0  0
    6.4810   -3.1290   18.8490 C   0  0  0  0  0  0  0  0  0  0  0  0
    5.5140   -3.2540   18.1270 O   0  0  0  0  0  0  0  0  0  0  0  0
    6.3960   -3.0690   20.1570 N   0  0  0  0  0  0  0  0  0  0  0  0
    7.1030   -1.9100   20.7470 C   0  0  0  0  0  0  0  0  0  0  0  0
    6.5560   -4.3510   20.8630 C   0  0  0  0  0  0  0  0  0  0  0  0
    7.9870   -2.3630   21.8820 C   0  0  0  0  0  0  0  0  0  0  0  0
    6.2880   -4.1010   22.1360 C   0  0  0  0  0  0  0  0  0  0  0  0
    6.9860   -3.0570   22.7490 C   0  0  0  0  0  0  0  0  0  0  0  0
    5.3520   -4.8220   22.8030 C   0  0  0  0  0  0  0  0  0  0  0  0
    6.6530   -2.7490   24.0910 C   0  0  0  0  0  0  0  0  0  0  0  0
    5.0090   -4.5500   24.0880 C   0  0  0  0  0  0  0  0  0  0  0  0
    5.6300   -3.5030   24.7590 C   0  0  0  0  0  0  0  0  0  0  0  0
    5.1870   -3.2360   26.0420 C   0  0  0  0  0  0  0  0  0  0  0  0
    4.4890   -2.0870   26.0530 O   0  0  0  0  0  0  0  0  0  0  0  0
    5.4310   -4.0810   27.1930 N   0  0  0  0  0  0  0  0  0  0  0  0
    6.6760   -3.7950   27.8140 C   0  0  0  0  0  0  0  0  0  0  0  0
    4.4090   -4.2130   28.1980 C   0  0  0  0  0  0  0  0  0  0  0  0
    7.1260   -4.9120   28.4980 C   0  0  0  0  0  0  0  0  0  0  0  0
    5.0070   -4.4880   29.5760 C   0  0  0  0  0  0  0  0  0  0  0  0
    6.2520   -5.3090   29.5980 N   0  0  0  0  0  0  0  0  0  0  0  0
    5.9900   -6.7430   29.5690 C   0  0  0  0  0  0  0  0  0  0  0  0
  1  2  1  0
  2  3  2  0
  2  4  1  0
  4  5  1  0
  4  6  1  0
  5  7  1  0
  6  8  1  0
  7  9  1  0
  8  9  2  0
  8 10  1  0
  9 11  1  0
 10 12  2  0
 11 13  2  0
 12 13  1  0
 13 14  1  0
 14 15  2  0
 14 16  1  0
 16 17  1  0
 16 18  1  0
 17 19  1  0
 18 20  1  0
 19 21  1  0
 20 21  1  0
 21 22  1  0
M  END
