ALE-SYG-bac15da4-2-acrylamide
     RDKit          3D

 23 25  0  0  0  0  0  0  0  0999 V2000
    8.9240   -4.7840   20.6020 C   0  0  0  0  0  0  0  0  0  0  0  0
    7.7610   -3.8310   20.5930 C   0  0  0  0  0  0  0  0  0  0  0  0
    6.4100   -4.4920   20.4760 C   0  0  0  0  0  0  0  0  0  0  0  0
    5.2280   -4.7090   20.0820 O   0  0  0  0  0  0  0  0  0  0  0  0
    6.3140   -3.4340   19.5890 N   0  0  0  0  0  0  0  0  0  0  0  0
    7.3710   -2.4130   19.5520 C   0  0  0  0  0  0  0  0  0  0  0  0
    5.2580   -2.7330   20.1040 C   0  0  0  0  0  0  0  0  0  0  0  0
    7.5330   -1.8120   20.9630 C   0  0  0  0  0  0  0  0  0  0  0  0
    5.4620   -2.7170   21.5990 C   0  0  0  0  0  0  0  0  0  0  0  0
    6.6770   -2.2140   22.0700 C   0  0  0  0  0  0  0  0  0  0  0  0
    4.5080   -3.1740   22.5020 C   0  0  0  0  0  0  0  0  0  0  0  0
    6.8640   -2.1750   23.5170 C   0  0  0  0  0  0  0  0  0  0  0  0
    4.6920   -3.1330   23.8560 C   0  0  0  0  0  0  0  0  0  0  0  0
    5.8410   -2.6330   24.3760 C   0  0  0  0  0  0  0  0  0  0  0  0
    6.1060   -2.5100   25.7000 C   0  0  0  0  0  0  0  0  0  0  0  0
    6.2870   -1.2530   26.1550 O   0  0  0  0  0  0  0  0  0  0  0  0
    6.1410   -3.6630   26.5620 N   0  0  0  0  0  0  0  0  0  0  0  0
    5.8510   -3.5080   27.9930 C   0  0  0  0  0  0  0  0  0  0  0  0
    7.1630   -4.6870   26.1710 C   0  0  0  0  0  0  0  0  0  0  0  0
    6.8660   -4.3560   28.5610 C   0  0  0  0  0  0  0  0  0  0  0  0
    7.4700   -5.8450   27.1680 C   0  0  0  0  0  0  0  0  0  0  0  0
    7.8520   -5.3990   28.4510 N   0  0  0  0  0  0  0  0  0  0  0  0
    9.1770   -4.8140   28.2710 C   0  0  0  0  0  0  0  0  0  0  0  0
  1  2  1  0
  2  3  1  0
  3  4  2  0
  3  5  1  0
  5  6  1  0
  5  7  1  0
  6  8  1  0
  7  9  1  0
  8 10  1  0
  9 10  2  0
  9 11  1  0
 10 12  1  0
 11 13  2  0
 12 14  2  0
 13 14  1  0
 14 15  1  0
 15 16  2  0
 15 17  1  0
 17 18  1  0
 17 19  1  0
 18 20  1  0
 19 21  1  0
 20 22  1  0
 21 22  1  0
 22 23  1  0
M  END
