ALE-SYG-bac15da4-2-bromoalkyne
     RDKit          3D

 21 23  0  0  0  0  0  0  0  0999 V2000
    7.3030   -4.1300   19.6380 C   0  0  0  0  0  0  0  0  0  0  0  0
    6.5750   -5.4450   19.9970 C   0  0  0  0  0  0  0  0  0  0  0  0
    6.5540   -3.0730   19.4940 N   0  0  0  0  0  0  0  0  0  0  0  0
    6.9640   -1.7020   19.8100 C   0  0  0  0  0  0  0  0  0  0  0  0
    5.4620   -3.5250   20.2160 C   0  0  0  0  0  0  0  0  0  0  0  0
    7.4500   -1.6130   21.2500 C   0  0  0  0  0  0  0  0  0  0  0  0
    5.6900   -3.4310   21.5810 C   0  0  0  0  0  0  0  0  0  0  0  0
    6.6130   -2.5100   22.1700 C   0  0  0  0  0  0  0  0  0  0  0  0
    4.9640   -4.2590   22.3960 C   0  0  0  0  0  0  0  0  0  0  0  0
    6.6520   -2.4870   23.6290 C   0  0  0  0  0  0  0  0  0  0  0  0
    4.9930   -4.2480   23.7480 C   0  0  0  0  0  0  0  0  0  0  0  0
    5.7990   -3.3620   24.4220 C   0  0  0  0  0  0  0  0  0  0  0  0
    5.6260   -3.4320   25.8100 C   0  0  0  0  0  0  0  0  0  0  0  0
    4.4920   -3.1220   26.1540 O   0  0  0  0  0  0  0  0  0  0  0  0
    6.6330   -3.8020   26.8010 N   0  0  0  0  0  0  0  0  0  0  0  0
    6.2370   -3.3110   28.1280 C   0  0  0  0  0  0  0  0  0  0  0  0
    7.1530   -5.1650   26.8300 C   0  0  0  0  0  0  0  0  0  0  0  0
    5.6310   -4.3130   28.8810 C   0  0  0  0  0  0  0  0  0  0  0  0
    7.5410   -5.6540   28.2390 C   0  0  0  0  0  0  0  0  0  0  0  0
    6.5540   -5.3710   29.3150 N   0  0  0  0  0  0  0  0  0  0  0  0
    5.8670   -6.5920   29.7310 C   0  0  0  0  0  0  0  0  0  0  0  0
  1  2  2  3
  1  3  1  0
  3  4  1  0
  3  5  1  0
  4  6  1  0
  5  7  1  0
  6  8  1  0
  7  8  2  0
  7  9  1  0
  8 10  1  0
  9 11  2  0
 10 12  2  0
 11 12  1  0
 12 13  1  0
 13 14  2  0
 13 15  1  0
 15 16  1  0
 15 17  1  0
 16 18  1  0
 17 19  1  0
 18 20  1  0
 19 20  1  0
 20 21  1  0
M  END
