ALI-DIA-59c2fdb0-4
     RDKit          3D

 29 31  0  0  0  0  0  0  0  0999 V2000
    6.8760   -6.6120   22.3500 C   0  0  0  0  0  0  0  0  0  0  0  0
    5.4250   -6.5930   22.4040 C   0  0  0  0  0  0  0  0  0  0  0  0
    4.6210   -6.8240   23.5320 C   0  0  0  0  0  0  0  0  0  0  0  0
    4.9430   -5.8440   24.5700 N   0  0  0  0  0  0  0  0  0  0  0  0
    5.6250   -4.6890   23.9980 C   0  0  1  0  0  0  0  0  0  0  0  0
    6.5780   -4.9390   23.2150 C   0  0  0  0  0  0  0  0  0  0  0  0
    5.6570   -4.3550   22.3810 C   0  0  2  0  0  0  0  0  0  0  0  0
    6.0250   -3.0090   21.8850 N   0  0  0  0  0  0  0  0  0  0  0  0
    6.1130   -2.8510   20.4910 C   0  0  0  0  0  0  0  0  0  0  0  0
    5.5130   -3.6160   19.7110 O   0  0  0  0  0  0  0  0  0  0  0  0
    6.9220   -1.7970   20.0720 N   0  0  0  0  0  0  0  0  0  0  0  0
    7.7340   -1.0930   21.0680 C   0  0  0  0  0  0  0  0  0  0  0  0
    6.9270   -1.3190   18.7850 C   0  0  0  0  0  0  0  0  0  0  0  0
    9.0000   -1.7840   21.3360 N   0  0  0  0  0  0  0  0  0  0  0  0
    6.1370   -0.1740   18.6930 C   0  0  0  0  0  0  0  0  0  0  0  0
   10.1810   -0.8850   22.1480 S   0  0  0  0  0  0  0  0  0  0  0  0
    5.0050    0.0630   19.4270 C   0  0  0  0  0  0  0  0  0  0  0  0
    6.3660    0.8660   17.8720 N   0  0  0  0  0  0  0  0  0  0  0  0
    9.8630    0.5180   21.9840 O   0  0  0  0  0  0  0  0  0  0  0  0
   11.4450   -1.4190   21.7130 O   0  0  0  0  0  0  0  0  0  0  0  0
   10.0370   -1.2540   23.9100 C   0  0  0  0  0  0  0  0  0  0  0  0
    4.5320    1.2840   19.0440 C   0  0  0  0  0  0  0  0  0  0  0  0
    5.3470    1.7890   18.0940 O   0  0  0  0  0  0  0  0  0  0  0  0
   10.5870   -2.5120   24.1230 C   0  0  0  0  0  0  0  0  0  0  0  0
   10.7170   -0.2510   24.5960 C   0  0  0  0  0  0  0  0  0  0  0  0
    3.4110    1.9330   19.5230 C   0  0  0  0  0  0  0  0  0  0  0  0
   11.9540   -2.6260   23.8310 C   0  0  0  0  0  0  0  0  0  0  0  0
   12.2220   -0.4420   24.7060 C   0  0  0  0  0  0  0  0  0  0  0  0
   12.7700   -1.6470   24.2620 C   0  0  0  0  0  0  0  0  0  0  0  0
  1  2  2  3
  2  3  1  0
  3  4  1  0
  5  4  1  6
  5  6  1  0
  5  7  1  0
  6  7  1  0
  7  8  1  1
  8  9  1  0
  9 10  2  0
  9 11  1  0
 11 12  1  0
 11 13  1  0
 12 14  1  0
 13 15  1  0
 16 14  1  0
 15 17  1  0
 15 18  2  0
 16 19  2  0
 16 20  2  0
 16 21  1  0
 17 22  2  0
 18 23  1  0
 22 23  1  0
 21 24  1  0
 21 25  1  0
 22 26  1  0
 24 27  1  0
 25 28  1  0
 27 29  1  0
 28 29  1  0
M  END
