ALV-UNI-7ff1a6f9-46
     RDKit          3D

 24 26  0  0  0  0  0  0  0  0999 V2000
    2.3390    1.3630   24.9480 O   0  0  0  0  0  0  0  0  0  0  0  0
    2.6600    2.2250   24.1480 C   0  0  0  0  0  0  0  0  0  0  0  0
    4.1390    2.1860   23.8520 C   0  0  0  0  0  0  0  0  0  0  0  0
    1.9050    3.1740   23.4750 N   0  0  0  0  0  0  0  0  0  0  0  0
    4.4370    1.9290   22.3690 C   0  0  0  0  0  0  0  0  0  0  0  0
    0.5920    3.7070   23.9030 C   0  0  0  0  0  0  0  0  0  0  0  0
    3.9080    3.0330   21.4060 C   0  0  0  0  0  0  0  0  0  0  0  0
    5.1100    0.8100   21.9020 C   0  0  0  0  0  0  0  0  0  0  0  0
   -0.5610    2.9790   23.2730 C   0  0  0  0  0  0  0  0  0  0  0  0
    0.4360    4.5930   24.6410 N   0  0  0  0  0  0  0  0  0  0  0  0
    4.1620    2.8200   19.9630 C   0  0  0  0  0  0  0  0  0  0  0  0
    5.3320    0.6740   20.4080 C   0  0  0  0  0  0  0  0  0  0  0  0
   -1.8580    3.3170   23.5330 C   0  0  0  0  0  0  0  0  0  0  0  0
   -0.8620    4.9850   24.9460 C   0  0  0  0  0  0  0  0  0  0  0  0
    4.8420    1.6850   19.5340 C   0  0  0  0  0  0  0  0  0  0  0  0
    6.0080   -0.4240   19.8990 C   0  0  0  0  0  0  0  0  0  0  0  0
   -2.9160    2.6180   22.9310 C   0  0  0  0  0  0  0  0  0  0  0  0
   -2.0250    4.3810   24.4200 C   0  0  0  0  0  0  0  0  0  0  0  0
    5.0410    1.5580   18.1910 C   0  0  0  0  0  0  0  0  0  0  0  0
    6.1810   -0.4960   18.5490 C   0  0  0  0  0  0  0  0  0  0  0  0
   -3.5340    3.3500   21.9660 F   0  0  0  0  0  0  0  0  0  0  0  0
   -3.8890    2.2610   23.8120 F   0  0  0  0  0  0  0  0  0  0  0  0
   -2.5270    1.4610   22.3250 F   0  0  0  0  0  0  0  0  0  0  0  0
    5.7030    0.4840   17.6930 C   0  0  0  0  0  0  0  0  0  0  0  0
  1  2  2  0
  2  3  1  0
  2  4  1  0
  3  5  1  0
  4  6  1  0
  5  7  2  0
  5  8  1  0
  6  9  2  0
  6 10  1  0
  7 11  1  0
  8 12  2  0
  9 13  1  0
 10 14  2  0
 11 15  2  0
 12 15  1  0
 12 16  1  0
 13 17  1  0
 13 18  2  0
 14 18  1  0
 15 19  1  0
 16 20  2  0
 17 21  1  0
 17 22  1  0
 17 23  1  0
 19 24  2  0
 20 24  1  0
M  END
