ALV-UNI-7ff1a6f9-35
     RDKit          3D

 24 27  0  0  0  0  0  0  0  0999 V2000
   14.1680   -4.2460   20.6250 C   0  0  0  0  0  0  0  0  0  0  0  0
   13.2390   -3.2730   21.3570 C   0  0  0  0  0  0  0  0  0  0  0  0
   11.9210   -3.3550   20.6470 C   0  0  0  0  0  0  0  0  0  0  0  0
   13.4790   -2.5080   22.4660 N   0  0  0  0  0  0  0  0  0  0  0  0
   10.8060   -2.6080   21.2880 C   0  0  0  0  0  0  0  0  0  0  0  0
   12.4040   -1.7390   22.8910 N   0  0  0  0  0  0  0  0  0  0  0  0
   11.2040   -1.8180   22.3430 C   0  0  0  0  0  0  0  0  0  0  0  0
   12.3330   -0.7570   23.8940 N   0  0  0  0  0  0  0  0  0  0  0  0
   10.3920   -1.0200   22.8680 C   0  0  0  0  0  0  0  0  0  0  0  0
   11.0010   -0.3060   23.8120 C   0  0  0  0  0  0  0  0  0  0  0  0
    9.1210   -1.0770   22.3120 C   0  0  0  0  0  0  0  0  0  0  0  0
   10.1800    0.7300   24.4380 C   0  0  0  0  0  0  0  0  0  0  0  0
    8.3890   -2.2400   22.6270 C   0  0  0  0  0  0  0  0  0  0  0  0
    8.5140   -0.1580   21.4610 C   0  0  0  0  0  0  0  0  0  0  0  0
   10.6810    1.9980   23.8190 C   0  0  0  0  0  0  0  0  0  0  0  0
    9.1680    0.4600   25.3500 C   0  0  0  0  0  0  0  0  0  0  0  0
    7.1210   -2.5410   22.1180 N   0  0  0  0  0  0  0  0  0  0  0  0
    7.2020   -0.3620   20.8640 N   0  0  0  0  0  0  0  0  0  0  0  0
    9.7830    3.0370   24.4100 C   0  0  0  0  0  0  0  0  0  0  0  0
    8.4260    1.5430   25.8050 C   0  0  0  0  0  0  0  0  0  0  0  0
    6.5620   -1.5620   21.2010 C   0  0  0  0  0  0  0  0  0  0  0  0
    8.7500    2.8260   25.3140 C   0  0  0  0  0  0  0  0  0  0  0  0
    5.3400   -1.8410   20.6090 N   0  0  0  0  0  0  0  0  0  0  0  0
    8.0790    3.9460   25.6890 F   0  0  0  0  0  0  0  0  0  0  0  0
  1  2  1  0
  2  3  1  0
  2  4  2  0
  3  5  2  0
  4  6  1  0
  5  7  1  0
  6  7  1  0
  6  8  1  0
  7  9  2  0
  8 10  2  0
  9 10  1  0
  9 11  1  0
 10 12  1  0
 11 13  2  0
 11 14  1  0
 12 15  2  0
 12 16  1  0
 13 17  1  0
 14 18  2  0
 15 19  1  0
 16 20  2  0
 17 21  2  0
 18 21  1  0
 19 22  2  0
 20 22  1  0
 21 23  1  0
 22 24  1  0
M  END
