ALV-UNI-7ff1a6f9-42
     RDKit          3D

 22 25  0  0  0  0  0  0  0  0999 V2000
   10.2920    2.6650   22.9060 C   0  0  0  0  0  0  0  0  0  0  0  0
    8.8300    2.7760   23.3370 C   0  0  0  0  0  0  0  0  0  0  0  0
    7.6340    2.3710   22.4400 C   0  0  0  0  0  0  0  0  0  0  0  0
    8.2160    3.3770   24.9020 S   0  0  0  0  0  0  0  0  0  0  0  0
    6.4280    2.5880   23.0410 N   0  0  0  0  0  0  0  0  0  0  0  0
    6.5460    3.1360   24.3800 C   0  0  0  0  0  0  0  0  0  0  0  0
    4.9920    2.4580   22.7770 C   0  0  0  0  0  0  0  0  0  0  0  0
    5.2270    3.3550   24.9540 N   0  0  0  0  0  0  0  0  0  0  0  0
    4.9080    1.8850   21.3580 C   0  0  0  0  0  0  0  0  0  0  0  0
    4.3070    2.9510   23.9690 C   0  0  0  0  0  0  0  0  0  0  0  0
    5.8660    1.1380   20.5890 C   0  0  0  0  0  0  0  0  0  0  0  0
    3.5650    2.2180   20.7000 C   0  0  0  0  0  0  0  0  0  0  0  0
    2.8340    3.1490   24.4180 C   0  0  0  0  0  0  0  0  0  0  0  0
    5.6990    0.6950   19.2760 C   0  0  0  0  0  0  0  0  0  0  0  0
    3.3890    1.7830   19.3880 C   0  0  0  0  0  0  0  0  0  0  0  0
    2.0360    1.9780   23.9410 C   0  0  0  0  0  0  0  0  0  0  0  0
    2.3940    4.2780   25.1540 C   0  0  0  0  0  0  0  0  0  0  0  0
    4.4050    1.0400   18.6550 N   0  0  0  0  0  0  0  0  0  0  0  0
    0.6030    2.0820   24.3370 C   0  0  0  0  0  0  0  0  0  0  0  0
    1.1110    4.3690   25.5090 C   0  0  0  0  0  0  0  0  0  0  0  0
    0.3220    3.3540   25.1200 C   0  0  0  0  0  0  0  0  0  0  0  0
   -0.8980    3.5350   25.5110 F   0  0  0  0  0  0  0  0  0  0  0  0
  1  2  1  0
  2  3  2  0
  2  4  1  0
  3  5  1  0
  4  6  1  0
  5  6  1  0
  5  7  1  0
  6  8  2  0
  7  9  1  0
  7 10  2  0
  8 10  1  0
  9 11  2  0
  9 12  1  0
 10 13  1  0
 11 14  1  0
 12 15  2  0
 13 16  2  0
 13 17  1  0
 14 18  2  0
 15 18  1  0
 16 19  1  0
 17 20  2  0
 19 21  2  0
 20 21  1  0
 21 22  1  0
M  END
