ALV-UNI-7ff1a6f9-38
     RDKit          3D

 23 26  0  0  0  0  0  0  0  0999 V2000
   -4.4720    1.0190   21.6180 C   0  0  0  0  0  0  0  0  0  0  0  0
   -2.9590    1.1670   21.5670 C   0  0  0  0  0  0  0  0  0  0  0  0
   -2.1840    0.8140   20.3020 C   0  0  0  0  0  0  0  0  0  0  0  0
   -2.3050    1.6100   22.5790 N   0  0  0  0  0  0  0  0  0  0  0  0
   -0.6430    1.0140   20.3990 C   0  0  0  0  0  0  0  0  0  0  0  0
   -0.9200    1.7190   22.5070 C   0  0  0  0  0  0  0  0  0  0  0  0
   -0.0620    1.4000   21.4410 N   0  0  0  0  0  0  0  0  0  0  0  0
   -0.3190    2.0870   23.3100 N   0  0  0  0  0  0  0  0  0  0  0  0
    1.3670    1.5590   21.6690 C   0  0  0  0  0  0  0  0  0  0  0  0
    0.9770    2.0700   22.9560 C   0  0  0  0  0  0  0  0  0  0  0  0
    2.6720    1.3130   20.8150 C   0  0  0  0  0  0  0  0  0  0  0  0
    1.5690    2.6430   24.0970 C   0  0  0  0  0  0  0  0  0  0  0  0
    2.9180    2.2240   19.8420 C   0  0  0  0  0  0  0  0  0  0  0  0
    3.7230    0.2940   20.8100 C   0  0  0  0  0  0  0  0  0  0  0  0
    2.6810    1.8390   24.5210 C   0  0  0  0  0  0  0  0  0  0  0  0
    0.9480    3.8320   24.5400 C   0  0  0  0  0  0  0  0  0  0  0  0
    3.9700    2.1720   18.9780 C   0  0  0  0  0  0  0  0  0  0  0  0
    4.6770    0.2100   20.0560 N   0  0  0  0  0  0  0  0  0  0  0  0
    3.1160    2.6420   25.6680 C   0  0  0  0  0  0  0  0  0  0  0  0
    1.4760    4.4510   25.6260 C   0  0  0  0  0  0  0  0  0  0  0  0
    4.8530    1.1650   19.0640 C   0  0  0  0  0  0  0  0  0  0  0  0
    2.5800    3.8260   26.1710 C   0  0  0  0  0  0  0  0  0  0  0  0
    3.2180    4.3320   27.2300 F   0  0  0  0  0  0  0  0  0  0  0  0
  1  2  1  0
  2  3  1  0
  2  4  2  0
  3  5  2  0
  4  6  1  0
  5  7  1  0
  6  7  1  0
  6  8  2  0
  7  9  1  0
  8 10  1  0
  9 10  2  0
  9 11  1  0
 10 12  1  0
 11 13  2  0
 11 14  1  0
 12 15  2  0
 12 16  1  0
 13 17  1  0
 14 18  2  0
 15 19  1  0
 16 20  2  0
 17 21  2  0
 18 21  1  0
 19 22  2  0
 20 22  1  0
 22 23  1  0
M  END
