ALV-UNI-7ff1a6f9-41
     RDKit          3D

 23 26  0  0  0  0  0  0  0  0999 V2000
   13.1460   -2.8550   21.5320 C   0  0  0  0  0  0  0  0  0  0  0  0
   12.2580   -1.7360   21.9560 C   0  0  0  0  0  0  0  0  0  0  0  0
   10.7600   -1.9200   21.6700 C   0  0  0  0  0  0  0  0  0  0  0  0
   12.7490   -0.6490   22.5050 N   0  0  0  0  0  0  0  0  0  0  0  0
    9.9360   -0.7110   22.0050 C   0  0  0  0  0  0  0  0  0  0  0  0
   11.8690    0.4010   22.7570 C   0  0  0  0  0  0  0  0  0  0  0  0
   10.5040    0.3660   22.4950 N   0  0  0  0  0  0  0  0  0  0  0  0
   12.0980    1.7430   23.2850 N   0  0  0  0  0  0  0  0  0  0  0  0
    9.8690    1.5030   22.7700 C   0  0  0  0  0  0  0  0  0  0  0  0
   10.8920    2.3460   23.2670 C   0  0  0  0  0  0  0  0  0  0  0  0
    8.5100    1.6780   22.5570 C   0  0  0  0  0  0  0  0  0  0  0  0
   10.5430    3.7530   23.6810 C   0  0  0  0  0  0  0  0  0  0  0  0
    7.9100    2.8350   22.0460 C   0  0  0  0  0  0  0  0  0  0  0  0
    7.4860    0.7820   22.7820 C   0  0  0  0  0  0  0  0  0  0  0  0
    9.7850    2.4630   24.1190 C   0  0  0  0  0  0  0  0  0  0  0  0
    9.8400    4.8500   24.3110 C   0  0  0  0  0  0  0  0  0  0  0  0
    6.4230    2.6510   21.9420 N   0  0  0  0  0  0  0  0  0  0  0  0
    6.2560    1.3970   22.4000 N   0  0  0  0  0  0  0  0  0  0  0  0
    8.5590    2.3920   25.0120 C   0  0  0  0  0  0  0  0  0  0  0  0
    8.7070    4.8480   25.1310 C   0  0  0  0  0  0  0  0  0  0  0  0
    5.0080    0.8090   22.4720 C   0  0  0  0  0  0  0  0  0  0  0  0
    8.0940    3.6960   25.4660 C   0  0  0  0  0  0  0  0  0  0  0  0
    7.0100    3.7410   26.2540 F   0  0  0  0  0  0  0  0  0  0  0  0
  1  2  1  0
  2  3  1  0
  2  4  2  0
  3  5  2  0
  4  6  1  0
  5  7  1  0
  6  7  1  0
  6  8  2  0
  7  9  1  0
  8 10  1  0
  9 10  2  0
  9 11  1  0
 10 12  1  0
 11 13  1  0
 11 14  2  0
 12 15  2  0
 12 16  1  0
 13 17  2  0
 14 18  1  0
 17 18  1  0
 15 19  1  0
 16 20  2  0
 18 21  1  0
 19 22  2  0
 20 22  1  0
 22 23  1  0
M  END
