ALV-UNI-7ff1a6f9-7
     RDKit          3D

 23 26  0  0  0  0  0  0  0  0999 V2000
    5.4050   -0.1800   17.7720 C   0  0  0  0  0  0  0  0  0  0  0  0
    5.7720    0.1800   19.0840 C   0  0  0  0  0  0  0  0  0  0  0  0
    7.1740   -0.0750   19.5440 C   0  0  0  0  0  0  0  0  0  0  0  0
    4.9510    0.7430   19.9340 C   0  0  0  0  0  0  0  0  0  0  0  0
    7.5990    0.3540   20.9400 C   0  0  0  0  0  0  0  0  0  0  0  0
    5.3590    1.1110   21.2480 C   0  0  0  0  0  0  0  0  0  0  0  0
    6.6540    0.9490   21.7850 N   0  0  0  0  0  0  0  0  0  0  0  0
    4.6070    1.6150   22.0460 N   0  0  0  0  0  0  0  0  0  0  0  0
    6.8520    1.4130   23.1590 C   0  0  0  0  0  0  0  0  0  0  0  0
    5.2850    1.8250   23.1650 C   0  0  0  0  0  0  0  0  0  0  0  0
    8.3800    0.9480   22.9730 C   0  0  0  0  0  0  0  0  0  0  0  0
    4.0360    2.4620   24.0300 C   0  0  0  0  0  0  0  0  0  0  0  0
    9.3870    1.9210   23.1520 C   0  0  0  0  0  0  0  0  0  0  0  0
    8.9950   -0.3630   22.6260 C   0  0  0  0  0  0  0  0  0  0  0  0
    2.6730    1.7460   23.8090 C   0  0  0  0  0  0  0  0  0  0  0  0
    4.0360    3.5920   24.9070 C   0  0  0  0  0  0  0  0  0  0  0  0
   10.7480    1.6040   23.0090 C   0  0  0  0  0  0  0  0  0  0  0  0
   10.3820   -0.5530   22.5210 C   0  0  0  0  0  0  0  0  0  0  0  0
    1.4210    2.2430   24.4960 C   0  0  0  0  0  0  0  0  0  0  0  0
    2.7840    4.1160   25.6140 C   0  0  0  0  0  0  0  0  0  0  0  0
   11.2520    0.4050   22.7120 N   0  0  0  0  0  0  0  0  0  0  0  0
    1.5020    3.4130   25.3760 C   0  0  0  0  0  0  0  0  0  0  0  0
    0.4420    3.8850   25.9880 F   0  0  0  0  0  0  0  0  0  0  0  0
  1  2  1  0
  2  3  1  0
  2  4  2  0
  3  5  2  0
  4  6  1  0
  5  7  1  0
  6  7  1  0
  6  8  2  0
  7  9  1  0
  8 10  1  0
  9 10  2  0
  9 11  1  0
 10 12  1  0
 11 13  2  0
 11 14  1  0
 12 15  2  0
 12 16  1  0
 13 17  1  0
 14 18  2  0
 15 19  1  0
 16 20  2  0
 17 21  2  0
 18 21  1  0
 19 22  2  0
 20 22  1  0
 22 23  1  0
M  END
