ALV-UNI-7ff1a6f9-44
     RDKit          3D

 25 29  0  0  0  0  0  0  0  0999 V2000
    7.4590   -1.7110   17.9560 C   0  0  0  0  0  0  0  0  0  0  0  0
    7.2630   -2.0220   19.3780 C   0  0  0  0  0  0  0  0  0  0  0  0
    8.2530   -1.6260   20.4730 C   0  0  0  0  0  0  0  0  0  0  0  0
    5.8930   -2.8500   20.0350 S   0  0  0  0  0  0  0  0  0  0  0  0
    8.0100   -2.0210   21.6480 N   0  0  0  0  0  0  0  0  0  0  0  0
    6.7190   -2.6970   21.5500 C   0  0  0  0  0  0  0  0  0  0  0  0
    8.5480   -2.0460   23.0060 C   0  0  0  0  0  0  0  0  0  0  0  0
    6.3680   -3.1290   22.7790 N   0  0  0  0  0  0  0  0  0  0  0  0
    9.9410   -1.3380   23.0910 C   0  0  0  0  0  0  0  0  0  0  0  0
    7.3210   -2.7900   23.6320 C   0  0  0  0  0  0  0  0  0  0  0  0
   11.1700   -1.8540   22.5690 C   0  0  0  0  0  0  0  0  0  0  0  0
    9.9910   -0.1000   23.6830 C   0  0  0  0  0  0  0  0  0  0  0  0
    6.8250   -3.2430   24.8990 C   0  0  0  0  0  0  0  0  0  0  0  0
   12.4550   -1.2140   22.5890 C   0  0  0  0  0  0  0  0  0  0  0  0
   11.2200    0.5830   23.7190 C   0  0  0  0  0  0  0  0  0  0  0  0
    9.0510    0.7270   24.3000 C   0  0  0  0  0  0  0  0  0  0  0  0
    6.3120   -4.6430   24.8900 C   0  0  0  0  0  0  0  0  0  0  0  0
    6.8090   -2.4050   25.9520 C   0  0  0  0  0  0  0  0  0  0  0  0
   12.5020    0.1490   23.2170 N   0  0  0  0  0  0  0  0  0  0  0  0
   10.8940    1.7800   24.3450 N   0  0  0  0  0  0  0  0  0  0  0  0
    9.5640    1.9030   24.7220 C   0  0  0  0  0  0  0  0  0  0  0  0
    5.7750   -5.1650   26.0380 C   0  0  0  0  0  0  0  0  0  0  0  0
    6.2580   -2.9380   27.1410 C   0  0  0  0  0  0  0  0  0  0  0  0
    5.7640   -4.2820   27.1500 C   0  0  0  0  0  0  0  0  0  0  0  0
    5.2250   -4.8270   28.2730 F   0  0  0  0  0  0  0  0  0  0  0  0
  1  2  1  0
  2  3  2  0
  2  4  1  0
  3  5  1  0
  4  6  1  0
  5  6  1  0
  5  7  1  0
  6  8  2  0
  7  9  1  0
  7 10  2  0
  8 10  1  0
  9 11  2  0
  9 12  1  0
 10 13  1  0
 11 14  1  0
 12 15  2  0
 12 16  1  0
 13 17  2  0
 13 18  1  0
 14 19  2  0
 15 19  1  0
 15 20  1  0
 16 21  2  0
 20 21  1  0
 17 22  1  0
 18 23  2  0
 22 24  2  0
 23 24  1  0
 24 25  1  0
M  END
