ALV-UNI-7ff1a6f9-47
     RDKit          3D

 22 24  0  0  0  0  0  0  0  0999 V2000
   -1.8240    6.7620   26.3970 C   0  0  0  0  0  0  0  0  0  0  0  0
   -0.6380    6.0090   26.1700 O   0  0  0  0  0  0  0  0  0  0  0  0
   -0.6890    5.0450   25.2000 C   0  0  0  0  0  0  0  0  0  0  0  0
   -1.9590    4.3330   24.6240 C   0  0  0  0  0  0  0  0  0  0  0  0
    0.5400    4.6480   24.6550 C   0  0  0  0  0  0  0  0  0  0  0  0
   -1.7590    3.2530   23.5100 C   0  0  0  0  0  0  0  0  0  0  0  0
    0.5190    3.5230   23.5150 C   0  0  0  0  0  0  0  0  0  0  0  0
   -0.5780    2.8800   22.9900 N   0  0  0  0  0  0  0  0  0  0  0  0
    1.9540    3.3270   23.1250 N   0  0  0  0  0  0  0  0  0  0  0  0
    2.6810    2.2820   23.9080 C   0  0  0  0  0  0  0  0  0  0  0  0
    2.0470    1.5460   24.6720 O   0  0  0  0  0  0  0  0  0  0  0  0
    4.0700    2.2110   23.7040 C   0  0  0  0  0  0  0  0  0  0  0  0
    4.3350    2.0120   22.3720 C   0  0  0  0  0  0  0  0  0  0  0  0
    3.8610    2.9950   21.4830 C   0  0  0  0  0  0  0  0  0  0  0  0
    5.0440    0.8700   21.9140 C   0  0  0  0  0  0  0  0  0  0  0  0
    4.0720    2.8690   20.0930 C   0  0  0  0  0  0  0  0  0  0  0  0
    5.2870    0.6900   20.5570 C   0  0  0  0  0  0  0  0  0  0  0  0
    4.8130    1.6520   19.7010 C   0  0  0  0  0  0  0  0  0  0  0  0
    5.9740   -0.3950   20.0360 C   0  0  0  0  0  0  0  0  0  0  0  0
    4.9360    1.6830   18.2480 C   0  0  0  0  0  0  0  0  0  0  0  0
    6.1590   -0.4750   18.6540 C   0  0  0  0  0  0  0  0  0  0  0  0
    5.6760    0.4970   17.7510 C   0  0  0  0  0  0  0  0  0  0  0  0
  1  2  1  0
  2  3  1  0
  3  4  2  0
  3  5  1  0
  4  6  1  0
  5  7  2  0
  6  8  2  0
  7  8  1  0
  7  9  1  0
  9 10  1  0
 10 11  2  0
 10 12  1  0
 12 13  1  0
 13 14  2  0
 13 15  1  0
 14 16  1  0
 15 17  2  0
 16 18  2  0
 17 18  1  0
 17 19  1  0
 18 20  1  0
 19 21  2  0
 20 22  2  0
 21 22  1  0
M  END
