AND-UNI-23ac02e4-1
     RDKit          3D

 33 34  0  0  0  0  0  0  0  0999 V2000
   13.4980   -2.4270   24.4870 C   0  0  0  0  0  0  0  0  0  0  0  0
   12.8630   -1.1620   24.6080 O   0  0  0  0  0  0  0  0  0  0  0  0
   12.8150   -0.3680   23.4170 C   0  0  0  0  0  0  0  0  0  0  0  0
   13.3640   -0.7240   22.3890 O   0  0  0  0  0  0  0  0  0  0  0  0
   12.0680    0.9650   23.4870 C   0  0  0  0  0  0  0  0  0  0  0  0
   12.8750    2.1390   22.9700 C   0  0  0  0  0  0  0  0  0  0  0  0
   10.7640    1.1760   23.9790 C   0  0  0  0  0  0  0  0  0  0  0  0
   12.2670    3.5420   23.0060 C   0  0  0  0  0  0  0  0  0  0  0  0
   10.1980    2.4730   24.0230 C   0  0  0  0  0  0  0  0  0  0  0  0
   10.0100    0.0770   24.4400 C   0  0  0  0  0  0  0  0  0  0  0  0
   10.8650    3.6320   23.5860 C   0  0  0  0  0  0  0  0  0  0  0  0
    9.0430    0.4930   25.3520 C   0  0  0  0  0  0  0  0  0  0  0  0
   10.0380    5.1430   23.7440 S   0  0  0  0  0  0  0  0  0  0  0  0
    7.7210    0.2480   24.9260 C   0  0  0  0  0  0  0  0  0  0  0  0
    8.8180    5.0290   22.5760 N   0  0  0  0  0  0  0  0  0  0  0  0
   10.9430    6.1730   23.2730 O   0  0  0  0  0  0  0  0  0  0  0  0
    9.3800    5.2540   25.0350 O   0  0  0  0  0  0  0  0  0  0  0  0
    7.3070   -1.0580   25.1840 C   0  0  0  0  0  0  0  0  0  0  0  0
    6.3130   -1.2020   26.1690 C   0  0  0  0  0  0  0  0  0  0  0  0
    5.7080   -2.6210   26.0590 C   0  0  0  0  0  0  0  0  0  0  0  0
    5.6510   -3.3230   27.4430 C   0  0  0  0  0  0  0  0  0  0  0  0
    6.7430   -4.7070   27.6310 S   0  0  0  0  0  0  0  0  0  0  0  0
    5.9330   -5.8700   27.3010 O   0  0  0  0  0  0  0  0  0  0  0  0
    7.1930   -4.5350   28.9850 O   0  0  0  0  0  0  0  0  0  0  0  0
    8.0950   -4.6740   26.6290 N   0  0  0  0  0  0  0  0  0  0  0  0
    9.0830   -5.7420   26.5900 C   0  0  0  0  0  0  0  0  0  0  0  0
    8.6010   -3.4600   26.1180 C   0  0  0  0  0  0  0  0  0  0  0  0
    9.6460   -5.6960   25.1600 C   0  0  0  0  0  0  0  0  0  0  0  0
    8.7250   -3.4660   24.7410 C   0  0  0  0  0  0  0  0  0  0  0  0
    8.7690   -4.8610   24.2890 N   0  0  0  0  0  0  0  0  0  0  0  0
    7.7320   -5.3900   23.4480 C   0  0  0  0  0  0  0  0  0  0  0  0
    8.0160   -6.5040   22.7260 C   0  0  0  0  0  0  0  0  0  0  0  0
    6.6210   -4.8740   23.3500 O   0  0  0  0  0  0  0  0  0  0  0  0
  1  2  1  0
  2  3  1  0
  3  4  2  0
  3  5  1  0
  5  6  2  0
  5  7  1  0
  6  8  1  0
  7  9  2  0
  7 10  1  0
  8 11  2  0
  9 11  1  0
 10 12  1  0
 11 13  1  0
 12 14  1  0
 13 15  1  0
 13 16  2  0
 13 17  2  0
 14 18  1  0
 18 19  1  0
 19 20  1  0
 20 21  1  0
 21 22  1  0
 22 23  1  0
 22 24  1  0
 22 25  1  0
 25 26  1  0
 25 27  1  0
 26 28  1  0
 27 29  1  0
 28 30  1  0
 29 30  1  0
 30 31  1  0
 31 32  1  0
 31 33  2  0
M  END
