AND-WAB-7d3788f1-1
     RDKit          3D

 27 29  0  0  0  0  0  0  0  0999 V2000
    6.7440   -4.8670   26.0250 C   0  0  0  0  0  0  0  0  0  0  0  0
    8.2610   -4.1200   25.4500 S   0  0  0  0  0  0  0  0  0  0  0  0
    8.6040   -3.1940   26.4840 O   0  0  0  0  0  0  0  0  0  0  0  0
    9.1300   -5.2390   25.1570 O   0  0  0  0  0  0  0  0  0  0  0  0
    7.8590   -3.2940   23.9820 N   0  0  0  0  0  0  0  0  0  0  0  0
    8.8940   -2.8440   23.1590 C   0  0  0  0  0  0  0  0  0  0  0  0
    6.7720   -3.8620   23.1160 C   0  0  0  0  0  0  0  0  0  0  0  0
    9.0560   -1.3660   22.8230 N   0  0  0  0  0  0  0  0  0  0  0  0
    7.1170   -5.1360   22.5760 C   0  0  0  0  0  0  0  0  0  0  0  0
    5.5000   -4.0130   23.7460 C   0  0  0  0  0  0  0  0  0  0  0  0
    8.3760   -0.6510   21.7780 C   0  0  0  0  0  0  0  0  0  0  0  0
   10.4290   -0.8300   23.0100 C   0  0  0  0  0  0  0  0  0  0  0  0
    6.0400   -6.1510   22.8460 C   0  0  0  0  0  0  0  0  0  0  0  0
    5.0310   -5.3250   23.6120 C   0  0  0  0  0  0  0  0  0  0  0  0
    8.9020    0.3640   21.3220 O   0  0  0  0  0  0  0  0  0  0  0  0
    7.1800   -0.9600   21.2450 N   0  0  0  0  0  0  0  0  0  0  0  0
   11.4630   -1.5890   22.1260 C   0  0  0  0  0  0  0  0  0  0  0  0
   10.7230   -0.5210   24.3240 C   0  0  0  0  0  0  0  0  0  0  0  0
    6.6050    0.0540   20.3140 C   0  0  1  0  0  0  0  0  0  0  0  0
   12.8280   -0.9500   22.3890 C   0  0  0  0  0  0  0  0  0  0  0  0
   11.8790    0.2180   24.4050 C   0  0  0  0  0  0  0  0  0  0  0  0
    7.0230   -0.2480   19.0100 C   0  0  0  0  0  0  0  0  0  0  0  0
    5.0860    0.0500   20.2480 C   0  0  0  0  0  0  0  0  0  0  0  0
   12.8940    0.0950   23.4810 C   0  0  0  0  0  0  0  0  0  0  0  0
    6.3850    0.2280   17.9860 N   0  0  0  0  0  0  0  0  0  0  0  0
    4.7370    1.3300   19.5070 C   0  0  0  0  0  0  0  0  0  0  0  0
    5.1980    1.0720   18.0920 C   0  0  0  0  0  0  0  0  0  0  0  0
  1  2  1  0
  2  3  2  0
  2  4  2  0
  2  5  1  0
  5  6  1  0
  5  7  1  0
  6  8  1  0
  7  9  1  0
  7 10  1  0
  8 11  1  0
  8 12  1  0
  9 13  2  0
 10 14  2  0
 13 14  1  0
 11 15  2  0
 11 16  1  0
 12 17  1  0
 12 18  1  0
 19 16  1  1
 17 20  1  0
 18 21  1  0
 19 22  1  0
 19 23  1  0
 20 24  1  0
 21 24  1  0
 22 25  2  0
 23 26  1  0
 25 27  1  0
 26 27  1  0
M  END
