AND-WAB-6ed53ced-1
     RDKit          3D

 23 24  0  0  0  0  0  0  0  0999 V2000
    6.0900   -1.1900   18.4510 C   0  0  0  0  0  0  0  0  0  0  0  0
    5.5620   -1.3990   20.1380 S   0  0  0  0  0  0  0  0  0  0  0  0
    5.1690   -2.7800   20.3400 O   0  0  0  0  0  0  0  0  0  0  0  0
    4.6830   -0.2990   20.4510 O   0  0  0  0  0  0  0  0  0  0  0  0
    6.9590   -1.1060   21.0130 N   0  0  0  0  0  0  0  0  0  0  0  0
    7.3110   -2.0030   22.1290 C   0  0  0  0  0  0  0  0  0  0  0  0
    8.8310   -2.2540   22.1070 C   0  0  0  0  0  0  0  0  0  0  0  0
    9.2550   -1.9650   23.5520 C   0  0  2  0  0  0  0  0  0  0  0  0
   10.6030   -1.2910   23.3270 C   0  0  0  0  0  0  0  0  0  0  0  0
    9.3350   -3.1960   24.4320 C   0  0  1  0  0  0  0  0  0  0  0  0
   10.9390    0.0100   23.9880 C   0  0  0  0  0  0  0  0  0  0  0  0
   11.5870   -1.8470   22.5000 C   0  0  0  0  0  0  0  0  0  0  0  0
   10.0550   -2.9090   25.6230 O   0  0  0  0  0  0  0  0  0  0  0  0
    8.0460   -3.6760   24.8760 N   0  0  0  0  0  0  0  0  0  0  0  0
   12.1540    0.6300   23.7850 C   0  0  0  0  0  0  0  0  0  0  0  0
   12.8130   -1.1960   22.3160 C   0  0  0  0  0  0  0  0  0  0  0  0
    7.1710   -2.6670   25.5370 C   0  0  0  0  0  0  0  0  0  0  0  0
   13.0900    0.0250   22.9470 C   0  0  0  0  0  0  0  0  0  0  0  0
    5.8010   -3.2520   25.8830 C   0  0  0  0  0  0  0  0  0  0  0  0
    7.5060   -1.3900   25.8060 N   0  0  0  0  0  0  0  0  0  0  0  0
    4.8230   -2.2960   26.5610 C   0  0  0  0  0  0  0  0  0  0  0  0
    6.5980   -0.5630   26.4130 C   0  0  0  0  0  0  0  0  0  0  0  0
    5.2890   -0.8530   26.8300 C   0  0  0  0  0  0  0  0  0  0  0  0
  1  2  1  0
  2  3  2  0
  2  4  2  0
  2  5  1  0
  5  6  1  0
  6  7  1  0
  8  7  1  6
  8  9  1  0
  8 10  1  0
  9 11  2  0
  9 12  1  0
 10 13  1  1
 10 14  1  0
 11 15  1  0
 12 16  2  0
 14 17  1  0
 15 18  2  0
 16 18  1  0
 17 19  2  0
 17 20  1  0
 19 21  1  0
 20 22  2  0
 21 23  2  0
 22 23  1  0
M  END
