AND-WAB-a9ec64bd-1
     RDKit          3D

 29 31  0  0  0  0  0  0  0  0999 V2000
    9.7070   -5.4860   25.7410 N   0  0  0  0  0  0  0  0  0  0  0  0
    8.5500   -5.0170   26.2210 C   0  0  0  0  0  0  0  0  0  0  0  0
    8.1580   -5.3840   27.4410 N   0  0  0  0  0  0  0  0  0  0  0  0
    7.7370   -4.0960   25.3770 C   0  0  0  0  0  0  0  0  0  0  0  0
    8.0940   -3.8580   24.0580 C   0  0  2  0  0  0  0  0  0  0  0  0
    8.3320   -2.5660   23.6650 C   0  0  0  0  0  0  0  0  0  0  0  0
    7.2950   -4.3880   23.0110 C   0  0  0  0  0  0  0  0  0  0  0  0
    8.9170   -2.2030   22.4620 C   0  0  0  0  0  0  0  0  0  0  0  0
    7.0070   -5.7360   23.0020 C   0  0  0  0  0  0  0  0  0  0  0  0
    6.7820   -3.5810   21.9830 C   0  0  0  0  0  0  0  0  0  0  0  0
    9.0960   -0.8570   22.2270 N   0  0  0  0  0  0  0  0  0  0  0  0
    6.2420   -6.3260   22.0310 C   0  0  0  0  0  0  0  0  0  0  0  0
    5.9980   -4.1070   20.9580 C   0  0  0  0  0  0  0  0  0  0  0  0
    8.2200    0.0090   21.4230 C   0  0  0  0  0  0  0  0  0  0  0  0
   10.4010   -0.4330   22.4110 C   0  0  0  0  0  0  0  0  0  0  0  0
    5.6860   -5.4750   20.9150 C   0  0  0  0  0  0  0  0  0  0  0  0
    8.5490    1.2760   20.9610 O   0  0  0  0  0  0  0  0  0  0  0  0
    7.0040   -0.5760   21.1750 N   0  0  0  0  0  0  0  0  0  0  0  0
   11.5800   -1.4100   22.1490 C   0  0  0  0  0  0  0  0  0  0  0  0
   10.5680    0.2350   23.7760 C   0  0  0  0  0  0  0  0  0  0  0  0
    6.0570   -0.1680   20.1480 C   0  0  2  0  0  0  0  0  0  0  0  0
   12.9550   -0.8270   22.4950 C   0  0  0  0  0  0  0  0  0  0  0  0
   11.6670    1.0560   23.6310 C   0  0  0  0  0  0  0  0  0  0  0  0
    6.7980   -0.0820   18.8150 C   0  0  0  0  0  0  0  0  0  0  0  0
    5.6170    1.2950   20.3030 C   0  0  0  0  0  0  0  0  0  0  0  0
   12.8910    0.4470   23.3620 C   0  0  0  0  0  0  0  0  0  0  0  0
    6.3710    0.5570   17.8030 N   0  0  0  0  0  0  0  0  0  0  0  0
    4.5800    1.4350   19.3560 C   0  0  0  0  0  0  0  0  0  0  0  0
    5.0910    1.2280   17.9390 C   0  0  0  0  0  0  0  0  0  0  0  0
  1  2  2  3
  2  3  1  0
  2  4  1  0
  5  4  1  1
  5  6  1  0
  5  7  1  0
  6  8  2  3
  7  9  2  0
  7 10  1  0
  8 11  1  0
  9 12  1  0
 10 13  2  0
 11 14  1  0
 11 15  1  0
 12 16  2  0
 13 16  1  0
 14 17  2  0
 14 18  1  0
 15 19  1  0
 15 20  1  0
 21 18  1  1
 19 22  1  0
 20 23  1  0
 21 24  1  0
 21 25  1  0
 22 26  1  0
 23 26  1  0
 24 27  2  0
 25 28  1  0
 27 29  1  0
 28 29  1  0
M  END
