AND-WAB-bfd3647f-2
     RDKit          3D

 16 17  0  0  0  0  0  0  0  0999 V2000
   13.3610   -1.8400   23.6070 C   0  0  0  0  0  0  0  0  0  0  0  0
   12.1460   -1.2250   23.7110 N   0  0  0  0  0  0  0  0  0  0  0  0
   12.0630    0.1740   23.4110 C   0  0  0  0  0  0  0  0  0  0  0  0
   11.1370   -1.9960   22.9590 C   0  0  0  0  0  0  0  0  0  0  0  0
   10.8060    0.7760   23.2710 C   0  0  0  0  0  0  0  0  0  0  0  0
    9.9150   -1.3450   23.0770 C   0  0  0  0  0  0  0  0  0  0  0  0
    9.9230   -0.0210   22.5690 N   0  0  0  0  0  0  0  0  0  0  0  0
    8.6900    0.3440   21.9990 C   0  0  1  0  0  0  0  0  0  0  0  0
    8.8640    1.6100   21.3020 O   0  0  0  0  0  0  0  0  0  0  0  0
    7.9830   -0.5150   21.1450 C   0  0  0  0  0  0  0  0  0  0  0  0
    6.9750    0.0320   20.3500 C   0  0  0  0  0  0  0  0  0  0  0  0
    6.8070   -0.0040   18.8990 C   0  0  0  0  0  0  0  0  0  0  0  0
    5.8870    0.7510   20.7970 C   0  0  0  0  0  0  0  0  0  0  0  0
    6.2250    0.2710   17.9870 N   0  0  0  0  0  0  0  0  0  0  0  0
    4.8640    1.2890   19.8160 N   0  0  0  0  0  0  0  0  0  0  0  0
    5.0810    1.0300   18.4800 C   0  0  0  0  0  0  0  0  0  0  0  0
  1  2  1  0
  2  3  1  0
  2  4  1  0
  3  5  1  0
  4  6  1  0
  5  7  1  0
  6  7  1  0
  7  8  1  0
  8  9  1  6
  8 10  1  0
 10 11  1  0
 11 12  2  0
 11 13  1  0
 12 14  1  0
 13 15  2  0
 14 16  2  0
 15 16  1  0
M  END
