AND-WAB-34fc5141-1
     RDKit          3D

 27 29  0  0  0  0  0  0  0  0999 V2000
   10.1160   -5.3850   25.5880 N   0  0  0  0  0  0  0  0  0  0  0  0
    8.7660   -5.3880   25.6920 C   0  0  0  0  0  0  0  0  0  0  0  0
    8.1750   -5.8040   26.8330 N   0  0  0  0  0  0  0  0  0  0  0  0
    7.9720   -4.8940   24.5220 C   0  0  0  0  0  0  0  0  0  0  0  0
    7.7420   -3.5170   24.4740 C   0  0  1  0  0  0  0  0  0  0  0  0
    8.1970   -2.8130   23.3840 C   0  0  0  0  0  0  0  0  0  0  0  0
    6.4590   -2.8870   24.7300 C   0  0  0  0  0  0  0  0  0  0  0  0
    8.6960   -1.5180   23.4660 C   0  0  0  0  0  0  0  0  0  0  0  0
    5.4880   -3.8710   25.3730 C   0  0  0  0  0  0  0  0  0  0  0  0
    6.5000   -1.8460   25.7150 C   0  0  0  0  0  0  0  0  0  0  0  0
    9.1250   -0.8910   22.3070 N   0  0  0  0  0  0  0  0  0  0  0  0
    5.0690   -3.3800   26.5800 C   0  0  0  0  0  0  0  0  0  0  0  0
    5.6710   -2.1630   26.7980 C   0  0  0  0  0  0  0  0  0  0  0  0
    8.2460   -0.1150   21.4180 C   0  0  0  0  0  0  0  0  0  0  0  0
   10.3890   -0.3170   22.4350 C   0  0  0  0  0  0  0  0  0  0  0  0
    8.5300    1.1650   20.9490 O   0  0  0  0  0  0  0  0  0  0  0  0
    7.0860   -0.7720   21.0820 N   0  0  0  0  0  0  0  0  0  0  0  0
   10.8680    0.3850   23.7040 C   0  0  0  0  0  0  0  0  0  0  0  0
   11.5070   -1.1660   22.0640 C   0  0  0  0  0  0  0  0  0  0  0  0
    6.1030   -0.3010   20.1220 C   0  0  2  0  0  0  0  0  0  0  0  0
   12.2810    0.0090   24.0130 C   0  0  0  0  0  0  0  0  0  0  0  0
   12.6300   -1.0000   22.9100 C   0  0  0  0  0  0  0  0  0  0  0  0
    6.8170   -0.1250   18.7840 C   0  0  0  0  0  0  0  0  0  0  0  0
    5.6500    1.1490   20.3670 C   0  0  0  0  0  0  0  0  0  0  0  0
    6.3700    0.5630   17.8160 N   0  0  0  0  0  0  0  0  0  0  0  0
    4.5990    1.3390   19.4400 C   0  0  0  0  0  0  0  0  0  0  0  0
    5.0840    1.2120   18.0030 C   0  0  0  0  0  0  0  0  0  0  0  0
  1  2  2  3
  2  3  1  0
  2  4  1  0
  5  4  1  6
  5  6  1  0
  5  7  1  0
  6  8  2  3
  7  9  1  0
  7 10  1  0
  8 11  1  0
  9 12  2  0
 10 13  2  0
 12 13  1  0
 11 14  1  0
 11 15  1  0
 14 16  2  0
 14 17  1  0
 15 18  1  0
 15 19  1  0
 20 17  1  1
 18 21  2  0
 19 22  2  0
 21 22  1  0
 20 23  1  0
 20 24  1  0
 23 25  2  0
 24 26  1  0
 25 27  1  0
 26 27  1  0
M  END
