AND-WAB-9085730e-1
     RDKit          3D

 16 17  0  0  0  0  0  0  0  0999 V2000
   13.1810   -1.4390   23.9300 C   0  0  0  0  0  0  0  0  0  0  0  0
   11.9600   -1.0350   23.4410 N   0  0  0  0  0  0  0  0  0  0  0  0
   11.7550    0.3280   23.2590 C   0  0  0  0  0  0  0  0  0  0  0  0
   11.1180   -1.9520   22.8560 C   0  0  0  0  0  0  0  0  0  0  0  0
   10.2600    0.6300   23.0540 C   0  0  0  0  0  0  0  0  0  0  0  0
    9.8140   -1.4830   22.6980 C   0  0  0  0  0  0  0  0  0  0  0  0
    9.7760   -0.2130   22.1690 N   0  0  0  0  0  0  0  0  0  0  0  0
    8.5330    0.2580   21.7210 C   0  0  1  0  0  0  0  0  0  0  0  0
    8.5670    1.5410   21.0460 O   0  0  0  0  0  0  0  0  0  0  0  0
    7.7950   -0.9580   21.1270 C   0  0  0  0  0  0  0  0  0  0  0  0
    7.0730    0.1340   20.3400 C   0  0  0  0  0  0  0  0  0  0  0  0
    7.2360    0.0150   18.9580 C   0  0  0  0  0  0  0  0  0  0  0  0
    5.7020    0.3440   20.5170 C   0  0  0  0  0  0  0  0  0  0  0  0
    6.1330   -0.0810   18.1390 N   0  0  0  0  0  0  0  0  0  0  0  0
    5.1260    1.2490   19.6140 N   0  0  0  0  0  0  0  0  0  0  0  0
    5.0690    0.7570   18.2970 C   0  0  0  0  0  0  0  0  0  0  0  0
  1  2  1  0
  2  3  1  0
  2  4  1  0
  3  5  1  0
  4  6  1  0
  5  7  1  0
  6  7  1  0
  7  8  1  0
  8  9  1  6
  8 10  1  0
 10 11  1  0
 11 12  1  0
 11 13  1  0
 12 14  1  0
 13 15  1  0
 14 16  1  0
 15 16  1  0
M  END
