ANN-UNI-26382800-3-acrylamide
     RDKit          3D

 20 21  0  0  0  0  0  0  0  0999 V2000
    8.2230   -3.2990   19.8030 C   0  0  0  0  0  0  0  0  0  0  0  0
    8.7680   -3.2930   21.1980 C   0  0  0  0  0  0  0  0  0  0  0  0
    6.9470   -3.5040   21.1450 C   0  0  0  0  0  0  0  0  0  0  0  0
    5.4070   -3.6820   21.1000 O   0  0  0  0  0  0  0  0  0  0  0  0
    8.1350   -2.0650   21.3660 C   0  0  0  0  0  0  0  0  0  0  0  0
    8.0080   -2.3200   22.7650 C   0  0  0  0  0  0  0  0  0  0  0  0
    9.1340   -0.8560   21.6100 C   0  0  0  0  0  0  0  0  0  0  0  0
    8.5310   -1.5650   23.9520 C   0  0  0  0  0  0  0  0  0  0  0  0
    9.6640   -0.1400   22.6740 C   0  0  0  0  0  0  0  0  0  0  0  0
    9.2940   -0.4810   23.9250 C   0  0  0  0  0  0  0  0  0  0  0  0
    9.6220    0.1390   25.0240 N   0  0  0  0  0  0  0  0  0  0  0  0
    8.4700    0.7830   25.4300 C   0  0  0  0  0  0  0  0  0  0  0  0
    8.0420    0.8840   26.6090 O   0  0  0  0  0  0  0  0  0  0  0  0
    7.8060    1.2710   24.2550 N   0  0  0  0  0  0  0  0  0  0  0  0
    6.3760    1.0790   24.0630 C   0  0  0  0  0  0  0  0  0  0  0  0
    5.6900    0.6290   25.1850 C   0  0  0  0  0  0  0  0  0  0  0  0
    5.6800    1.3320   22.8740 C   0  0  0  0  0  0  0  0  0  0  0  0
    4.3590    0.4740   25.0820 C   0  0  0  0  0  0  0  0  0  0  0  0
    4.3440    1.1030   22.7660 N   0  0  0  0  0  0  0  0  0  0  0  0
    3.7040    0.7090   23.8420 C   0  0  0  0  0  0  0  0  0  0  0  0
  1  2  1  0
  2  3  1  0
  3  4  2  0
  3  5  1  0
  5  6  2  0
  5  7  1  0
  6  8  1  0
  7  9  2  0
  8 10  2  0
  9 10  1  0
 10 11  1  0
 11 12  1  0
 12 13  2  0
 12 14  1  0
 14 15  1  0
 15 16  2  0
 15 17  1  0
 16 18  1  0
 17 19  2  0
 18 20  2  0
 19 20  1  0
M  END
