ANT-DIA-b7f58f21-8-acrylamide
     RDKit          3D

 20 20  0  0  0  0  0  0  0  0999 V2000
    8.0310   -3.4100   19.1400 C   0  0  0  0  0  0  0  0  0  0  0  0
    8.4480   -2.7230   20.3670 C   0  0  0  0  0  0  0  0  0  0  0  0
    7.1680   -2.9220   21.3060 C   0  0  0  0  0  0  0  0  0  0  0  0
    5.3770   -3.5680   21.0530 O   0  0  0  0  0  0  0  0  0  0  0  0
    7.9640   -2.2900   22.7210 C   0  0  0  0  0  0  0  0  0  0  0  0
    8.6740   -1.7250   23.9810 C   0  0  0  0  0  0  0  0  0  0  0  0
    9.0210   -1.6230   21.8360 C   0  0  0  0  0  0  0  0  0  0  0  0
    9.7070   -0.9510   24.9400 C   0  0  0  0  0  0  0  0  0  0  0  0
    9.3000   -1.3530   23.0550 C   0  0  0  0  0  0  0  0  0  0  0  0
   10.1760   -0.6440   23.8000 C   0  0  0  0  0  0  0  0  0  0  0  0
    8.4490   -1.9920   23.8980 C   0  0  0  0  0  0  0  0  0  0  0  0
   11.2240    0.1950   24.1740 N   0  0  0  0  0  0  0  0  0  0  0  0
    9.0100   -2.9530   24.6260 C   0  0  0  0  0  0  0  0  0  0  0  0
   10.7900   -0.0090   25.6290 C   0  0  0  0  0  0  0  0  0  0  0  0
    8.0860   -4.0430   24.8260 N   0  0  0  0  0  0  0  0  0  0  0  0
    9.6870    0.6960   26.2350 C   0  0  0  0  0  0  0  0  0  0  0  0
    8.1430   -4.7200   26.4170 S   0  0  0  0  0  0  0  0  0  0  0  0
    6.4610   -5.2570   26.6380 C   0  0  0  0  0  0  0  0  0  0  0  0
    9.0290   -5.8470   26.2960 O   0  0  0  0  0  0  0  0  0  0  0  0
    8.4170   -3.6850   27.3820 O   0  0  0  0  0  0  0  0  0  0  0  0
  1  2  1  0
  2  3  1  0
  3  4  2  0
  3  5  1  0
  5  6  2  0
  5  7  1  0
  6  8  1  0
  7  9  2  0
  8 10  2  0
  9 10  1  0
  9 11  1  0
 10 12  1  0
 11 13  1  0
 12 14  1  0
 13 15  1  0
 14 16  1  0
 17 15  1  0
 17 18  1  0
 17 19  2  0
 17 20  2  0
M  END
