ANT-OPE-47f3bb65-4
     RDKit          3D

 18 19  0  0  0  0  0  0  0  0999 V2000
   11.8150    6.0110   21.8530 C   0  0  0  0  0  0  0  0  0  0  0  0
   11.6680    5.8500   23.1560 N   0  0  0  0  0  0  0  0  0  0  0  0
   10.4160    5.7460   23.7880 C   0  0  0  0  0  0  0  0  0  0  0  0
   12.7770    5.0440   23.4860 C   0  0  0  0  0  0  0  0  0  0  0  0
   12.6320    3.6540   22.8460 C   0  0  0  0  0  0  0  0  0  0  0  0
   11.6390    2.5910   23.2510 C   0  0  0  0  0  0  0  0  0  0  0  0
   10.3530    2.9040   23.9560 C   0  0  0  0  0  0  0  0  0  0  0  0
   11.6180    1.2090   23.1020 C   0  0  0  0  0  0  0  0  0  0  0  0
    9.7180    1.7210   24.1790 N   0  0  0  0  0  0  0  0  0  0  0  0
   10.4400    0.7750   23.6880 C   0  0  0  0  0  0  0  0  0  0  0  0
   12.4090    0.2430   22.5570 C   0  0  0  0  0  0  0  0  0  0  0  0
   10.0060   -0.6330   23.7580 C   0  0  0  0  0  0  0  0  0  0  0  0
   12.0460   -1.0810   22.5580 C   0  0  0  0  0  0  0  0  0  0  0  0
   10.8840   -1.5020   23.1500 C   0  0  0  0  0  0  0  0  0  0  0  0
   13.0630   -2.2120   21.7820 S   0  0  0  0  0  0  0  0  0  0  0  0
   13.7510   -2.8630   23.1710 N   0  0  0  0  0  0  0  0  0  0  0  0
   13.9240   -1.3880   21.0080 O   0  0  0  0  0  0  0  0  0  0  0  0
   12.1760   -3.1160   21.1480 O   0  0  0  0  0  0  0  0  0  0  0  0
  1  2  1  0
  2  3  1  0
  2  4  1  0
  4  5  1  0
  5  6  1  0
  6  7  2  0
  6  8  1  0
  7  9  1  0
  8 10  2  0
  9 10  1  0
  8 11  1  0
 10 12  1  0
 11 13  2  0
 12 14  2  0
 13 14  1  0
 13 15  1  0
 15 16  1  0
 15 17  2  0
 15 18  2  0
M  END
