ANT-DIA-b7f58f21-2
     RDKit          3D

 14 14  0  0  0  0  0  0  0  0999 V2000
    6.6170   -5.2110   26.5870 C   0  0  0  0  0  0  0  0  0  0  0  0
    8.2480   -4.5780   26.2710 S   0  0  0  0  0  0  0  0  0  0  0  0
    8.5990   -3.7270   27.3710 O   0  0  0  0  0  0  0  0  0  0  0  0
    9.1160   -5.6450   25.8500 O   0  0  0  0  0  0  0  0  0  0  0  0
    7.9860   -3.5480   24.9640 N   0  0  0  0  0  0  0  0  0  0  0  0
    9.1210   -3.3000   24.0620 C   0  0  0  0  0  0  0  0  0  0  0  0
    9.0550   -1.8770   23.5300 C   0  0  0  0  0  0  0  0  0  0  0  0
   10.4510   -1.2590   23.3550 C   0  0  0  0  0  0  0  0  0  0  0  0
   10.8110   -0.1580   24.1250 C   0  0  0  0  0  0  0  0  0  0  0  0
   11.3620   -1.7890   22.4270 C   0  0  0  0  0  0  0  0  0  0  0  0
   12.1930    0.4520   23.9270 C   0  0  0  0  0  0  0  0  0  0  0  0
   12.6250   -1.2290   22.2590 C   0  0  0  0  0  0  0  0  0  0  0  0
   13.0380   -0.1290   22.9880 C   0  0  0  0  0  0  0  0  0  0  0  0
   13.4920   -1.7420   21.3530 O   0  0  0  0  0  0  0  0  0  0  0  0
  1  2  1  0
  2  3  2  0
  2  4  2  0
  2  5  1  0
  5  6  1  0
  6  7  1  0
  7  8  1  0
  8  9  2  0
  8 10  1  0
  9 11  1  0
 10 12  2  0
 11 13  2  0
 12 13  1  0
 12 14  1  0
M  END
