ANT-OPE-7c194559-1
     RDKit          3D

 16 17  0  0  0  0  0  0  0  0999 V2000
    7.9590    6.1520   22.1180 C   0  0  0  0  0  0  0  0  0  0  0  0
    9.1630    6.8950   22.6330 C   0  0  0  0  0  0  0  0  0  0  0  0
   10.2300    6.1360   23.4460 C   0  0  0  0  0  0  0  0  0  0  0  0
   10.1760    6.0290   24.6780 O   0  0  0  0  0  0  0  0  0  0  0  0
   11.2120    5.6250   22.6500 N   0  0  0  0  0  0  0  0  0  0  0  0
   12.3010    4.8890   23.3040 C   0  0  0  0  0  0  0  0  0  0  0  0
   12.4900    3.4620   22.7610 C   0  0  0  0  0  0  0  0  0  0  0  0
   11.3590    2.4420   22.8500 C   0  0  2  0  0  0  0  0  0  0  0  0
   10.4130    2.3720   23.8950 C   0  0  0  0  0  0  0  0  0  0  0  0
   11.6200    0.9590   23.0570 C   0  0  0  0  0  0  0  0  0  0  0  0
    9.6910    1.1620   24.0120 C   0  0  0  0  0  0  0  0  0  0  0  0
   10.6310    0.2710   23.6850 C   0  0  0  0  0  0  0  0  0  0  0  0
   12.9270    0.3220   22.5470 C   0  0  0  0  0  0  0  0  0  0  0  0
   10.7390   -1.1090   23.8820 C   0  0  0  0  0  0  0  0  0  0  0  0
   12.9470   -1.2000   22.7920 C   0  0  0  0  0  0  0  0  0  0  0  0
   11.8740   -1.8280   23.4330 C   0  0  0  0  0  0  0  0  0  0  0  0
  1  2  1  0
  2  3  1  0
  3  4  2  0
  3  5  1  0
  5  6  1  0
  6  7  1  0
  8  7  1  1
  8  9  1  0
  8 10  1  0
  9 11  1  0
 10 12  2  0
 11 12  1  0
 10 13  1  0
 12 14  1  0
 13 15  2  0
 14 16  2  0
 15 16  1  0
M  END
