ANT-OPE-d972fbad-1-chloroacetamide
     RDKit          3D

 17 18  0  0  0  0  0  0  0  0999 V2000
    7.0470   -2.9970   18.9970 C   0  0  0  0  0  0  0  0  0  0  0  0
    6.2670   -3.4420   19.9840 C   0  0  0  0  0  0  0  0  0  0  0  0
    5.3660   -4.2620   19.7860 O   0  0  0  0  0  0  0  0  0  0  0  0
    6.5000   -2.9700   21.2880 N   0  0  0  0  0  0  0  0  0  0  0  0
    6.9560   -1.5750   21.5050 C   0  0  0  0  0  0  0  0  0  0  0  0
    7.0190   -3.9070   22.3260 C   0  0  0  0  0  0  0  0  0  0  0  0
    8.4330   -1.5760   21.9290 C   0  0  0  0  0  0  0  0  0  0  0  0
    7.6340   -3.2030   23.5740 C   0  0  0  0  0  0  0  0  0  0  0  0
    8.5900   -2.1010   23.2910 N   0  0  0  0  0  0  0  0  0  0  0  0
    9.9950   -2.3570   23.6530 C   0  0  0  0  0  0  0  0  0  0  0  0
   10.7620   -1.0550   23.5570 C   0  0  0  0  0  0  0  0  0  0  0  0
   12.0100   -0.9810   22.9230 C   0  0  0  0  0  0  0  0  0  0  0  0
   10.2020    0.1050   24.1050 C   0  0  0  0  0  0  0  0  0  0  0  0
   12.6710    0.2420   22.8280 C   0  0  0  0  0  0  0  0  0  0  0  0
   10.8700    1.3150   23.9980 C   0  0  0  0  0  0  0  0  0  0  0  0
   12.0980    1.3800   23.3510 C   0  0  0  0  0  0  0  0  0  0  0  0
   12.7190    2.5480   23.2280 F   0  0  0  0  0  0  0  0  0  0  0  0
  1  2  1  0
  2  3  2  0
  2  4  1  0
  4  5  1  0
  4  6  1  0
  5  7  1  0
  6  8  1  0
  7  9  1  0
  8  9  1  0
  9 10  1  0
 10 11  1  0
 11 12  2  0
 11 13  1  0
 12 14  1  0
 13 15  2  0
 14 16  2  0
 15 16  1  0
 16 17  1  0
M  END
