ANT-OPE-d972fbad-1-vinylsulfonamide
     RDKit          3D

 19 20  0  0  0  0  0  0  0  0999 V2000
    7.7270   -2.8700   18.6160 C   0  0  0  0  0  0  0  0  0  0  0  0
    6.4650   -2.5780   18.6370 C   0  0  0  0  0  0  0  0  0  0  0  0
    5.6160   -3.3820   19.9780 S   0  0  0  0  0  0  0  0  0  0  0  0
    4.4050   -2.8570   19.7700 O   0  0  0  0  0  0  0  0  0  0  0  0
    5.5230   -4.8220   19.9300 O   0  0  0  0  0  0  0  0  0  0  0  0
    6.3280   -2.7680   21.4010 N   0  0  0  0  0  0  0  0  0  0  0  0
    6.9550   -3.7380   22.3350 C   0  0  0  0  0  0  0  0  0  0  0  0
    7.0690   -1.4860   21.2320 C   0  0  0  0  0  0  0  0  0  0  0  0
    7.6100   -3.0620   23.5560 C   0  0  0  0  0  0  0  0  0  0  0  0
    8.5080   -1.6540   21.7790 C   0  0  0  0  0  0  0  0  0  0  0  0
    8.5930   -2.0350   23.2070 N   0  0  0  0  0  0  0  0  0  0  0  0
    9.9740   -2.3220   23.6210 C   0  0  0  0  0  0  0  0  0  0  0  0
   10.7560   -1.0340   23.5400 C   0  0  0  0  0  0  0  0  0  0  0  0
   12.0020   -0.9710   22.9070 C   0  0  0  0  0  0  0  0  0  0  0  0
   10.2070    0.1310   24.0960 C   0  0  0  0  0  0  0  0  0  0  0  0
   12.6790    0.2420   22.8180 C   0  0  0  0  0  0  0  0  0  0  0  0
   10.8890    1.3280   23.9950 C   0  0  0  0  0  0  0  0  0  0  0  0
   12.1180    1.3810   23.3470 C   0  0  0  0  0  0  0  0  0  0  0  0
   12.7510    2.5390   23.2270 F   0  0  0  0  0  0  0  0  0  0  0  0
  1  2  1  0
  3  2  1  0
  3  4  2  0
  3  5  2  0
  3  6  1  0
  6  7  1  0
  6  8  1  0
  7  9  1  0
  8 10  1  0
  9 11  1  0
 10 11  1  0
 11 12  1  0
 12 13  1  0
 13 14  2  0
 13 15  1  0
 14 16  1  0
 15 17  2  0
 16 18  2  0
 17 18  1  0
 18 19  1  0
M  END
