ANT-OPE-47f3bb65-3
     RDKit          3D

 21 22  0  0  0  0  0  0  0  0999 V2000
   10.4280    5.8990   24.1240 C   0  0  0  0  0  0  0  0  0  0  0  0
   11.5410    6.1040   23.3380 N   0  0  0  0  0  0  0  0  0  0  0  0
   11.4710    6.0890   21.9980 C   0  0  0  0  0  0  0  0  0  0  0  0
   12.6590    5.3520   23.7260 C   0  0  0  0  0  0  0  0  0  0  0  0
   12.6040    4.0040   23.0350 C   0  0  0  0  0  0  0  0  0  0  0  0
   11.5020    3.0000   23.1450 C   0  0  0  0  0  0  0  0  0  0  0  0
   10.0810    3.2870   23.4800 C   0  0  0  0  0  0  0  0  0  0  0  0
   11.6780    1.7000   22.9380 C   0  0  0  0  0  0  0  0  0  0  0  0
    9.4960    2.0440   23.4280 N   0  0  0  0  0  0  0  0  0  0  0  0
   10.4170    1.1660   23.1130 C   0  0  0  0  0  0  0  0  0  0  0  0
   12.8080    0.8080   22.5940 C   0  0  0  0  0  0  0  0  0  0  0  0
   10.1150   -0.2500   22.9650 C   0  0  0  0  0  0  0  0  0  0  0  0
   12.5010   -0.5030   22.4290 C   0  0  0  0  0  0  0  0  0  0  0  0
   11.2130   -0.9970   22.6150 C   0  0  0  0  0  0  0  0  0  0  0  0
   13.4350   -1.3440   22.0680 C   0  0  0  0  0  0  0  0  0  0  0  0
   12.6890   -2.8340   21.8710 S   0  0  0  0  0  0  0  0  0  0  0  0
   11.4460   -2.6270   21.1890 O   0  0  0  0  0  0  0  0  0  0  0  0
   13.6560   -3.7780   21.3980 O   0  0  0  0  0  0  0  0  0  0  0  0
   12.3850   -2.9340   23.5310 N   0  0  0  0  0  0  0  0  0  0  0  0
   13.4810   -2.6840   24.3790 C   0  0  0  0  0  0  0  0  0  0  0  0
   11.0520   -2.5250   23.9890 C   0  0  0  0  0  0  0  0  0  0  0  0
  1  2  1  0
  2  3  1  0
  2  4  1  0
  4  5  1  0
  5  6  1  0
  6  7  2  0
  6  8  1  0
  7  9  1  0
  8 10  2  0
  9 10  1  0
  8 11  1  0
 10 12  1  0
 11 13  2  0
 12 14  2  0
 13 14  1  0
 13 15  1  0
 15 16  1  0
 16 17  2  0
 16 18  2  0
 16 19  1  0
 19 20  1  0
 19 21  1  0
M  END
