ANT-OPE-d972fbad-1-bromoalkyne
     RDKit          3D

 16 17  0  0  0  0  0  0  0  0999 V2000
    6.8950   -3.3790   19.6310 C   0  0  0  0  0  0  0  0  0  0  0  0
    5.9880   -2.9090   18.7880 C   0  0  0  0  0  0  0  0  0  0  0  0
    6.8810   -2.9550   20.9590 N   0  0  0  0  0  0  0  0  0  0  0  0
    6.8520   -3.8300   22.1540 C   0  0  0  0  0  0  0  0  0  0  0  0
    7.1690   -1.5260   21.3000 C   0  0  0  0  0  0  0  0  0  0  0  0
    7.6960   -3.2280   23.3000 C   0  0  0  0  0  0  0  0  0  0  0  0
    8.5610   -1.3780   21.9720 C   0  0  0  0  0  0  0  0  0  0  0  0
    8.9010   -2.5270   22.8400 N   0  0  0  0  0  0  0  0  0  0  0  0
    9.8740   -2.2760   23.9130 C   0  0  0  0  0  0  0  0  0  0  0  0
   10.6790   -1.0110   23.7050 C   0  0  0  0  0  0  0  0  0  0  0  0
   11.9060   -0.9960   23.0140 C   0  0  0  0  0  0  0  0  0  0  0  0
   10.1740    0.1870   24.2180 C   0  0  0  0  0  0  0  0  0  0  0  0
   12.5970    0.2050   22.8400 C   0  0  0  0  0  0  0  0  0  0  0  0
   10.8680    1.3710   24.0320 C   0  0  0  0  0  0  0  0  0  0  0  0
   12.0740    1.3780   23.3400 C   0  0  0  0  0  0  0  0  0  0  0  0
   12.7180    2.5250   23.1550 F   0  0  0  0  0  0  0  0  0  0  0  0
  1  2  2  3
  1  3  1  0
  3  4  1  0
  3  5  1  0
  4  6  1  0
  5  7  1  0
  6  8  1  0
  7  8  1  0
  8  9  1  0
  9 10  1  0
 10 11  2  0
 10 12  1  0
 11 13  1  0
 12 14  2  0
 13 15  2  0
 14 15  1  0
 15 16  1  0
M  END
