ANT-DIA-045cfdc4-3
     RDKit          3D

 19 21  0  0  0  0  0  0  0  0999 V2000
    9.1390    1.5840   21.2310 O   0  0  0  0  0  0  0  0  0  0  0  0
    9.2120    2.0390   22.3760 C   0  0  0  0  0  0  0  0  0  0  0  0
    9.2500    3.4330   22.6350 N   0  0  0  0  0  0  0  0  0  0  0  0
    9.1940    1.1930   23.6620 C   0  0  1  0  0  0  0  0  0  0  0  0
   10.4230    4.2950   22.7460 C   0  0  0  0  0  0  0  0  0  0  0  0
    7.8350    1.0190   23.9740 C   0  0  0  0  0  0  0  0  0  0  0  0
    9.6950   -0.2720   23.5780 C   0  0  1  0  0  0  0  0  0  0  0  0
   11.7190    4.0410   22.2490 C   0  0  0  0  0  0  0  0  0  0  0  0
   10.2820    5.5250   23.4030 C   0  0  0  0  0  0  0  0  0  0  0  0
    7.2860   -0.2340   23.2970 C   0  0  0  0  0  0  0  0  0  0  0  0
    8.5280   -1.0310   22.9650 C   0  0  0  0  0  0  0  0  0  0  0  0
   10.9950   -0.4410   23.1060 C   0  0  0  0  0  0  0  0  0  0  0  0
   12.7190    4.9680   22.4210 N   0  0  0  0  0  0  0  0  0  0  0  0
   11.2820    6.4880   23.5960 N   0  0  0  0  0  0  0  0  0  0  0  0
   11.9920    0.4980   23.3060 C   0  0  0  0  0  0  0  0  0  0  0  0
   11.4770   -1.5360   22.3920 C   0  0  0  0  0  0  0  0  0  0  0  0
   12.4780    6.1690   23.0850 C   0  0  0  0  0  0  0  0  0  0  0  0
   13.1960    0.1490   22.7670 C   0  0  0  0  0  0  0  0  0  0  0  0
   13.1330   -1.3750   21.9940 S   0  0  0  0  0  0  0  0  0  0  0  0
  1  2  2  0
  2  3  1  0
  4  2  1  6
  3  5  1  0
  4  6  1  0
  4  7  1  0
  5  8  2  0
  5  9  1  0
  6 10  1  0
  7 11  1  0
 10 11  1  0
  7 12  1  6
  8 13  1  0
  9 14  2  0
 12 15  1  0
 12 16  2  0
 13 17  2  0
 14 17  1  0
 15 18  2  0
 16 19  1  0
 18 19  1  0
M  END
