ANT-STE-dbb91f63-2-acrylamide
     RDKit          3D

 24 26  0  0  0  0  0  0  0  0999 V2000
    7.8200   -3.1880   19.2400 C   0  0  0  0  0  0  0  0  0  0  0  0
    6.6130   -2.3250   18.9460 C   0  0  0  0  0  0  0  0  0  0  0  0
    5.4900   -2.7220   19.8380 C   0  0  0  0  0  0  0  0  0  0  0  0
    4.5570   -3.3610   19.4040 O   0  0  0  0  0  0  0  0  0  0  0  0
    5.5810   -2.3750   21.1460 N   0  0  0  0  0  0  0  0  0  0  0  0
    6.3610   -1.2040   21.5690 C   0  0  0  0  0  0  0  0  0  0  0  0
    5.1300   -3.2980   22.1980 C   0  0  0  0  0  0  0  0  0  0  0  0
    7.4970   -1.8420   22.4180 C   0  0  0  0  0  0  0  0  0  0  0  0
    6.2390   -3.6940   23.1380 C   0  0  0  0  0  0  0  0  0  0  0  0
    6.7920   -2.4330   23.5880 N   0  0  0  0  0  0  0  0  0  0  0  0
    7.4480   -2.5470   24.7960 C   0  0  0  0  0  0  0  0  0  0  0  0
    8.3940   -1.3830   25.0370 C   0  0  0  0  0  0  0  0  0  0  0  0
    9.4550   -1.4070   24.0540 C   0  0  0  0  0  0  0  0  0  0  0  0
    8.4840   -0.3610   25.9150 N   0  0  0  0  0  0  0  0  0  0  0  0
   10.1960   -0.3050   24.3940 N   0  0  0  0  0  0  0  0  0  0  0  0
    9.6180    0.3130   25.5070 N   0  0  0  0  0  0  0  0  0  0  0  0
   11.2940   -0.0080   23.6290 C   0  0  0  0  0  0  0  0  0  0  0  0
   12.1160   -1.1480   23.0350 C   0  0  0  0  0  0  0  0  0  0  0  0
   11.6410    1.3150   23.3800 C   0  0  0  0  0  0  0  0  0  0  0  0
   13.1820   -0.9010   22.2590 C   0  0  0  0  0  0  0  0  0  0  0  0
   12.7210    1.5670   22.5940 C   0  0  0  0  0  0  0  0  0  0  0  0
   13.4470    0.5220   22.0660 C   0  0  0  0  0  0  0  0  0  0  0  0
   13.2190    2.5760   22.2280 O   0  0  0  0  0  0  0  0  0  0  0  0
   14.4370    1.9760   21.9320 C   0  0  0  0  0  0  0  0  0  0  0  0
  1  2  1  0
  2  3  1  0
  3  4  2  0
  3  5  1  0
  5  6  1  0
  5  7  1  0
  6  8  1  0
  7  9  1  0
  8 10  1  0
  9 10  1  0
 10 11  1  0
 11 12  1  0
 12 13  2  0
 12 14  1  0
 13 15  1  0
 14 16  2  0
 15 16  1  0
 15 17  1  0
 17 18  2  0
 17 19  1  0
 18 20  1  0
 19 21  2  0
 20 22  2  0
 21 22  1  0
 21 23  1  0
 23 24  1  0
M  END
