ANT-OPE-3756b28b-1-acrylamide
     RDKit          3D

 21 23  0  0  0  0  0  0  0  0999 V2000
    7.1330   -3.7010   20.1670 C   0  0  0  0  0  0  0  0  0  0  0  0
    5.8670   -3.3210   20.9620 C   0  0  0  0  0  0  0  0  0  0  0  0
    5.8330   -3.8010   22.4250 C   0  0  0  0  0  0  0  0  0  0  0  0
    4.8570   -4.4310   22.0390 O   0  0  0  0  0  0  0  0  0  0  0  0
    6.9380   -2.9710   22.5000 N   0  0  0  0  0  0  0  0  0  0  0  0
    8.0310   -3.4930   23.3170 C   0  0  0  0  0  0  0  0  0  0  0  0
    6.6830   -1.5490   22.7530 C   0  0  0  0  0  0  0  0  0  0  0  0
    9.2620   -2.5810   23.3110 C   0  0  0  0  0  0  0  0  0  0  0  0
    7.5130   -1.0050   23.9460 C   0  0  2  0  0  0  0  0  0  0  0  0
    8.9730   -1.2120   23.7710 N   0  0  0  0  0  0  0  0  0  0  0  0
    6.9920   -1.5580   25.2780 C   0  0  0  0  0  0  0  0  0  0  0  0
    9.8090   -0.5870   24.7010 C   0  0  0  0  0  0  0  0  0  0  0  0
   10.6220    0.4820   24.1180 C   0  0  0  0  0  0  0  0  0  0  0  0
   10.2800    1.9490   24.0890 C   0  0  0  0  0  0  0  0  0  0  0  0
   11.8640    0.0230   23.5240 C   0  0  0  0  0  0  0  0  0  0  0  0
   11.1770    2.8210   23.4860 C   0  0  0  0  0  0  0  0  0  0  0  0
   12.7320    0.9270   22.9380 C   0  0  0  0  0  0  0  0  0  0  0  0
   12.2470    2.1850   23.0160 C   0  0  0  0  0  0  0  0  0  0  0  0
   11.1870    1.3260   23.6340 C   0  0  0  0  0  0  0  0  0  0  0  0
   10.0900    0.8640   22.7940 C   0  0  0  0  0  0  0  0  0  0  0  0
    9.5600    1.7750   23.7810 C   0  0  0  0  0  0  0  0  0  0  0  0
  1  2  1  0
  2  3  1  0
  3  4  2  0
  3  5  1  0
  5  6  1  0
  5  7  1  0
  6  8  1  0
  7  9  1  0
  8 10  1  0
  9 10  1  0
  9 11  1  1
 10 12  1  0
 12 13  1  0
 13 14  2  0
 13 15  1  0
 14 16  1  0
 15 17  2  0
 16 18  2  0
 17 18  1  0
 18 19  1  0
 19 20  1  0
 19 21  1  0
 20 21  1  0
M  END
