ANT-OPE-6a16a9ad-2
     RDKit          3D

 19 21  0  0  0  0  0  0  0  0999 V2000
    9.3290    3.1980   24.1300 C   0  0  0  0  0  0  0  0  0  0  0  0
    9.2070    1.7680   24.5690 C   0  0  0  0  0  0  0  0  0  0  0  0
   10.3130    0.7930   24.1790 C   0  0  0  0  0  0  0  0  0  0  0  0
   11.6420    1.1560   23.9200 O   0  0  0  0  0  0  0  0  0  0  0  0
    9.8140   -0.5680   24.1010 N   0  0  0  0  0  0  0  0  0  0  0  0
    9.8330   -1.3200   22.8450 C   0  0  0  0  0  0  0  0  0  0  0  0
    9.2250   -0.5250   21.6920 C   0  0  2  0  0  0  0  0  0  0  0  0
    9.0180    0.8500   21.9040 C   0  0  0  0  0  0  0  0  0  0  0  0
    7.7080   -0.0650   21.7980 C   0  0  1  0  0  0  0  0  0  0  0  0
    6.7610    0.0870   20.6200 C   0  0  0  0  0  0  0  0  0  0  0  0
    7.0030   -0.6200   19.3270 C   0  0  0  0  0  0  0  0  0  0  0  0
    5.6350    0.8930   20.7150 C   0  0  0  0  0  0  0  0  0  0  0  0
    6.0990   -0.4520   18.2890 C   0  0  0  0  0  0  0  0  0  0  0  0
    4.7430    1.0440   19.6090 C   0  0  0  0  0  0  0  0  0  0  0  0
    5.3810    1.5690   21.9390 C   0  0  0  0  0  0  0  0  0  0  0  0
    4.9950    0.3700   18.4200 C   0  0  0  0  0  0  0  0  0  0  0  0
    3.5570    1.9310   19.7890 C   0  0  0  0  0  0  0  0  0  0  0  0
    4.2600    2.4070   22.1120 C   0  0  0  0  0  0  0  0  0  0  0  0
    3.3500    2.6080   21.0870 C   0  0  0  0  0  0  0  0  0  0  0  0
  1  2  1  0
  2  3  1  0
  3  4  2  0
  3  5  1  0
  5  6  1  0
  7  6  1  1
  7  8  1  0
  7  9  1  0
  8  9  1  0
  9 10  1  6
 10 11  2  0
 10 12  1  0
 11 13  1  0
 12 14  2  0
 12 15  1  0
 13 16  2  0
 14 16  1  0
 14 17  1  0
 15 18  2  0
 17 19  2  0
 18 19  1  0
M  END
