ANT-STE-dbb91f63-3-acrylamide
     RDKit          3D

 24 26  0  0  0  0  0  0  0  0999 V2000
    7.0780   -2.9120   18.7130 C   0  0  0  0  0  0  0  0  0  0  0  0
    5.7920   -2.8000   19.5490 C   0  0  0  0  0  0  0  0  0  0  0  0
    5.8830   -3.0850   21.0300 C   0  0  0  0  0  0  0  0  0  0  0  0
    5.1170   -3.9120   21.5390 O   0  0  0  0  0  0  0  0  0  0  0  0
    6.7840   -2.3960   21.8150 N   0  0  0  0  0  0  0  0  0  0  0  0
    7.6210   -1.2800   21.3890 C   0  0  0  0  0  0  0  0  0  0  0  0
    6.8540   -2.6030   23.2430 C   0  0  0  0  0  0  0  0  0  0  0  0
    9.0750   -1.7750   21.7300 C   0  0  0  0  0  0  0  0  0  0  0  0
    8.2180   -3.1140   23.5980 C   0  0  0  0  0  0  0  0  0  0  0  0
    9.2640   -2.1580   23.1640 N   0  0  0  0  0  0  0  0  0  0  0  0
   10.4760   -2.8350   23.3030 C   0  0  0  0  0  0  0  0  0  0  0  0
   11.7710   -2.0340   23.4540 C   0  0  0  0  0  0  0  0  0  0  0  0
   11.8650   -0.8860   22.5370 C   0  0  0  0  0  0  0  0  0  0  0  0
   12.8370   -2.1540   24.2440 N   0  0  0  0  0  0  0  0  0  0  0  0
   13.0950   -0.2710   22.8440 N   0  0  0  0  0  0  0  0  0  0  0  0
   13.6180   -1.0880   23.8660 N   0  0  0  0  0  0  0  0  0  0  0  0
   13.5970    0.9790   22.2300 C   0  0  0  0  0  0  0  0  0  0  0  0
   13.1950    2.1910   23.0710 C   0  0  0  0  0  0  0  0  0  0  0  0
   14.4080    1.5060   20.8950 C   0  0  0  0  0  0  0  0  0  0  0  0
   13.4740    3.5710   22.8070 C   0  0  0  0  0  0  0  0  0  0  0  0
   14.6530    2.8950   20.7210 C   0  0  0  0  0  0  0  0  0  0  0  0
   14.8350    0.8410   19.9490 O   0  0  0  0  0  0  0  0  0  0  0  0
   14.2320    3.8840   21.5940 C   0  0  0  0  0  0  0  0  0  0  0  0
   15.2830    1.7290   18.9260 C   0  0  0  0  0  0  0  0  0  0  0  0
  1  2  1  0
  2  3  1  0
  3  4  2  0
  3  5  1  0
  5  6  1  0
  5  7  1  0
  6  8  1  0
  7  9  1  0
  8 10  1  0
  9 10  1  0
 10 11  1  0
 11 12  1  0
 12 13  2  0
 12 14  1  0
 13 15  1  0
 14 16  2  0
 15 16  1  0
 15 17  1  0
 17 18  2  0
 17 19  1  0
 18 20  1  0
 19 21  2  0
 19 22  1  0
 20 23  2  0
 21 23  1  0
 22 24  1  0
M  END
