ANT-STE-dbb91f63-3-bromoalkyne
     RDKit          3D

 22 24  0  0  0  0  0  0  0  0999 V2000
    6.9670   -3.3560   19.6060 C   0  0  0  0  0  0  0  0  0  0  0  0
    5.9160   -2.8790   18.6730 C   0  0  0  0  0  0  0  0  0  0  0  0
    6.9300   -3.0490   20.9280 N   0  0  0  0  0  0  0  0  0  0  0  0
    7.0240   -1.6350   21.3170 C   0  0  0  0  0  0  0  0  0  0  0  0
    6.4750   -3.9790   21.9630 C   0  0  0  0  0  0  0  0  0  0  0  0
    8.1020   -1.6910   22.4260 C   0  0  0  0  0  0  0  0  0  0  0  0
    7.2700   -3.7660   23.2450 C   0  0  0  0  0  0  0  0  0  0  0  0
    7.3330   -2.3380   23.5250 N   0  0  0  0  0  0  0  0  0  0  0  0
    7.5850   -1.9910   24.9430 C   0  0  0  0  0  0  0  0  0  0  0  0
    8.8900   -1.2240   24.9580 C   0  0  0  0  0  0  0  0  0  0  0  0
    9.7130   -1.6320   23.8530 C   0  0  0  0  0  0  0  0  0  0  0  0
    9.4680   -0.2830   25.7050 N   0  0  0  0  0  0  0  0  0  0  0  0
   10.7610   -0.9150   23.9440 N   0  0  0  0  0  0  0  0  0  0  0  0
   10.6690   -0.0830   25.0530 N   0  0  0  0  0  0  0  0  0  0  0  0
   11.6390   -1.0530   23.0650 C   0  0  0  0  0  0  0  0  0  0  0  0
   11.7440   -2.2570   22.1300 C   0  0  0  0  0  0  0  0  0  0  0  0
   12.6820    0.0540   22.8640 C   0  0  0  0  0  0  0  0  0  0  0  0
   12.8140   -2.2940   21.0940 C   0  0  0  0  0  0  0  0  0  0  0  0
   13.5750   -0.1250   21.8890 C   0  0  0  0  0  0  0  0  0  0  0  0
   12.6450    1.0420   23.5860 O   0  0  0  0  0  0  0  0  0  0  0  0
   13.6450   -1.2410   21.0340 C   0  0  0  0  0  0  0  0  0  0  0  0
   11.8330    2.1360   23.1880 C   0  0  0  0  0  0  0  0  0  0  0  0
  1  2  2  3
  1  3  1  0
  3  4  1  0
  3  5  1  0
  4  6  1  0
  5  7  1  0
  6  8  1  0
  7  8  1  0
  8  9  1  0
  9 10  1  0
 10 11  2  0
 10 12  1  0
 11 13  1  0
 12 14  2  0
 13 14  1  0
 13 15  1  0
 15 16  2  0
 15 17  1  0
 16 18  1  0
 17 19  2  0
 17 20  1  0
 18 21  2  0
 19 21  1  0
 20 22  1  0
M  END
