ANT-OPE-c0c3e7cc-1-chloroacetamide
     RDKit          3D

 17 18  0  0  0  0  0  0  0  0999 V2000
    7.1560   -3.0520   18.9580 C   0  0  0  0  0  0  0  0  0  0  0  0
    6.1750   -3.4500   20.0430 C   0  0  0  0  0  0  0  0  0  0  0  0
    5.3510   -4.3370   19.8140 O   0  0  0  0  0  0  0  0  0  0  0  0
    6.2240   -2.8360   21.2900 N   0  0  0  0  0  0  0  0  0  0  0  0
    6.1040   -1.3950   21.4990 C   0  0  0  0  0  0  0  0  0  0  0  0
    6.8120   -3.6540   22.3690 C   0  0  0  0  0  0  0  0  0  0  0  0
    7.4290   -0.6590   21.3570 C   0  0  0  0  0  0  0  0  0  0  0  0
    7.6530   -2.9520   23.4670 C   0  0  0  0  0  0  0  0  0  0  0  0
    8.5560   -1.3990   21.7120 C   0  0  0  0  0  0  0  0  0  0  0  0
    8.5860   -1.8720   23.0950 N   0  0  0  0  0  0  0  0  0  0  0  0
    9.9720   -2.0910   23.5260 C   0  0  0  0  0  0  0  0  0  0  0  0
   10.7460   -0.9450   23.5170 C   0  0  0  0  0  0  0  0  0  0  0  0
   10.1840    0.2980   24.1000 C   0  0  0  0  0  0  0  0  0  0  0  0
   12.0280   -0.9160   22.9680 C   0  0  0  0  0  0  0  0  0  0  0  0
   10.9370    1.4500   24.0730 C   0  0  0  0  0  0  0  0  0  0  0  0
   12.7830    0.2530   22.9490 C   0  0  0  0  0  0  0  0  0  0  0  0
   12.3290    1.4720   23.4660 C   0  0  0  0  0  0  0  0  0  0  0  0
  1  2  1  0
  2  3  2  0
  2  4  1  0
  4  5  1  0
  4  6  1  0
  5  7  1  0
  6  8  1  0
  7  9  1  0
  8 10  1  0
  9 10  1  0
 10 11  1  0
 11 12  1  0
 12 13  2  0
 12 14  1  0
 13 15  1  0
 14 16  2  0
 15 17  2  0
 16 17  1  0
M  END
