ASH-UNK-e28bb067-7
     RDKit          3D

  7  7  0  0  0  0  0  0  0  0999 V2000
    4.7050   -5.7750   27.1500 C   0  0  0  0  0  0  0  0  0  0  0  0
    4.4300   -4.6410   25.7650 S   0  0  0  0  0  0  0  0  0  0  0  0
    2.8090   -4.1310   26.1510 C   0  0  2  0  0  0  0  0  0  0  0  0
    1.8070   -4.1840   25.1160 C   0  0  0  0  0  0  0  0  0  0  0  0
    2.0460   -2.7980   25.5100 C   0  0  1  0  0  0  0  0  0  0  0  0
    1.3950   -1.9350   26.4050 C   0  0  0  0  0  0  0  0  0  0  0  0
    0.0950   -2.3290   26.5600 N   0  0  0  0  0  0  0  0  0  0  0  0
  1  2  1  0
  3  2  1  6
  3  4  1  0
  3  5  1  0
  4  5  1  0
  5  6  1  1
  6  7  3  0
M  END
