ASH-SAT-43770c7d-7-bromoalkyne
     RDKit          3D

 32 35  0  0  0  0  0  0  0  0999 V2000
    7.3630   -3.7060   20.0690 C   0  0  0  0  0  0  0  0  0  0  0  0
    6.3210   -3.1160   19.0990 C   0  0  0  0  0  0  0  0  0  0  0  0
    8.6160   -3.1860   20.4420 N   0  0  0  0  0  0  0  0  0  0  0  0
   10.0060   -3.8750   20.2180 C   0  0  0  0  0  0  0  0  0  0  0  0
    8.5080   -1.8430   21.0530 C   0  0  0  0  0  0  0  0  0  0  0  0
   11.1370   -3.2890   20.9640 C   0  0  0  0  0  0  0  0  0  0  0  0
    9.7610   -1.2440   21.6750 C   0  0  0  0  0  0  0  0  0  0  0  0
   10.8030   -2.2750   22.0650 C   0  0  0  0  0  0  0  0  0  0  0  0
   11.9800   -1.6320   22.7130 C   0  0  0  0  0  0  0  0  0  0  0  0
   12.9050   -2.2300   22.1740 O   0  0  0  0  0  0  0  0  0  0  0  0
   12.4680   -0.8820   23.4180 N   0  0  0  0  0  0  0  0  0  0  0  0
   11.9720    0.3900   23.4690 C   0  0  0  0  0  0  0  0  0  0  0  0
   12.8190    1.3260   22.9320 C   0  0  0  0  0  0  0  0  0  0  0  0
   10.7290    0.7400   23.9910 C   0  0  0  0  0  0  0  0  0  0  0  0
   12.4550    2.6570   22.8870 C   0  0  0  0  0  0  0  0  0  0  0  0
   10.3650    2.0890   23.9480 C   0  0  0  0  0  0  0  0  0  0  0  0
   11.2230    3.0490   23.3960 C   0  0  0  0  0  0  0  0  0  0  0  0
    9.2370    2.7410   24.3720 N   0  0  0  0  0  0  0  0  0  0  0  0
    9.3400    4.0910   24.1180 C   0  0  0  0  0  0  0  0  0  0  0  0
   10.5780    4.3020   23.5000 C   0  0  0  0  0  0  0  0  0  0  0  0
    8.4490    5.1310   24.3870 C   0  0  0  0  0  0  0  0  0  0  0  0
   10.9710    5.5880   23.1130 C   0  0  0  0  0  0  0  0  0  0  0  0
    8.8940    6.5080   23.9720 C   0  0  0  0  0  0  0  0  0  0  0  0
   10.1300    6.6710   23.3490 C   0  0  0  0  0  0  0  0  0  0  0  0
    8.0360    7.7210   24.2180 C   0  0  0  0  0  0  0  0  0  0  0  0
    6.8690    8.0630   24.0040 O   0  0  0  0  0  0  0  0  0  0  0  0
    9.3170    8.2600   24.8350 C   0  0  1  0  0  0  0  0  0  0  0  0
    9.3240    9.7170   25.3040 C   0  0  0  0  0  0  0  0  0  0  0  0
    9.8460    7.3370   25.9610 C   0  0  0  0  0  0  0  0  0  0  0  0
   10.9300   10.2450   25.8950 Cl  0  0  0  0  0  0  0  0  0  0  0  0
   11.3740    7.1080   25.9850 C   0  0  0  0  0  0  0  0  0  0  0  0
   12.0610    7.7730   24.8790 N   0  0  0  0  0  0  0  0  0  0  0  0
  1  2  2  3
  1  3  1  0
  3  4  1  0
  3  5  1  0
  4  6  1  0
  5  7  1  0
  6  8  1  0
  7  8  1  0
  8  9  1  0
  9 10  2  0
  9 11  1  0
 11 12  1  0
 12 13  2  0
 12 14  1  0
 13 15  1  0
 14 16  2  0
 15 17  2  0
 16 17  1  0
 16 18  1  0
 18 19  1  0
 17 20  1  0
 19 20  2  0
 19 21  1  0
 20 22  1  0
 21 23  2  0
 22 24  2  0
 23 24  1  0
 23 25  1  0
 25 26  2  0
 25 27  1  0
 27 28  1  1
 27 29  1  0
 28 30  1  0
 29 31  1  0
 31 32  1  0
M  END
