ASH-SAT-43770c7d-10-chloroacetamide
     RDKit          3D

 19 20  0  0  0  0  0  0  0  0999 V2000
    7.3490   -3.4460   20.0590 C   0  0  0  0  0  0  0  0  0  0  0  0
    6.7270   -2.2090   19.4680 C   0  0  0  0  0  0  0  0  0  0  0  0
    5.9220   -2.4780   18.5180 O   0  0  0  0  0  0  0  0  0  0  0  0
    7.1610   -0.8760   20.0450 N   0  0  0  0  0  0  0  0  0  0  0  0
    7.9620   -0.9120   21.3000 C   0  0  0  0  0  0  0  0  0  0  0  0
    6.7850    0.5480   19.7010 C   0  0  0  0  0  0  0  0  0  0  0  0
    8.8850    0.1920   21.5060 C   0  0  0  0  0  0  0  0  0  0  0  0
    7.2500    1.6420   20.7750 C   0  0  0  0  0  0  0  0  0  0  0  0
    8.7020    1.5690   21.1010 N   0  0  0  0  0  0  0  0  0  0  0  0
    9.5190    2.5330   21.9180 C   0  0  0  0  0  0  0  0  0  0  0  0
    9.8730    3.7010   21.9370 O   0  0  0  0  0  0  0  0  0  0  0  0
    9.9500    1.7020   22.9280 C   0  0  0  0  0  0  0  0  0  0  0  0
    9.1070    1.5500   23.9040 C   0  0  0  0  0  0  0  0  0  0  0  0
   11.1160    1.0850   22.8270 C   0  0  0  0  0  0  0  0  0  0  0  0
    9.3800    0.7130   24.8550 C   0  0  0  0  0  0  0  0  0  0  0  0
   11.4760    0.2010   23.7220 C   0  0  0  0  0  0  0  0  0  0  0  0
   10.5280    0.0410   24.7680 C   0  0  0  0  0  0  0  0  0  0  0  0
   12.8130   -0.4220   23.3860 C   0  0  0  0  0  0  0  0  0  0  0  0
   10.6350   -0.7470   25.7670 C   0  0  0  0  0  0  0  0  0  0  0  0
  1  2  1  0
  2  3  2  0
  2  4  1  0
  4  5  1  0
  4  6  1  0
  5  7  1  0
  6  8  1  0
  7  9  1  0
  8  9  1  0
  9 10  1  0
 10 11  2  0
 10 12  1  0
 12 13  2  0
 12 14  1  0
 13 15  1  0
 14 16  2  0
 15 17  2  0
 16 17  1  0
 16 18  1  0
 17 19  1  0
M  END
