ASH-SAT-43770c7d-4-chloroacetamide
     RDKit          3D

 19 20  0  0  0  0  0  0  0  0999 V2000
    8.1670   -3.0440   20.5120 C   0  0  0  0  0  0  0  0  0  0  0  0
    7.5010   -1.6800   20.0120 C   0  0  0  0  0  0  0  0  0  0  0  0
    6.7090   -2.1430   18.8540 O   0  0  0  0  0  0  0  0  0  0  0  0
    7.8560   -0.2210   21.0060 N   0  0  0  0  0  0  0  0  0  0  0  0
    8.4310   -0.4940   22.3930 C   0  0  0  0  0  0  0  0  0  0  0  0
    8.1600    1.3150   21.0360 C   0  0  0  0  0  0  0  0  0  0  0  0
    8.4680    0.7000   23.3190 C   0  0  0  0  0  0  0  0  0  0  0  0
    9.4390    1.8510   21.7460 C   0  0  0  0  0  0  0  0  0  0  0  0
    7.4880    2.2860   20.6830 O   0  0  0  0  0  0  0  0  0  0  0  0
    9.2970    1.9060   23.1540 N   0  0  0  0  0  0  0  0  0  0  0  0
   10.6120    2.0480   23.6780 C   0  0  0  0  0  0  0  0  0  0  0  0
   11.2560    0.7450   23.5730 C   0  0  0  0  0  0  0  0  0  0  0  0
   12.0650    0.5240   22.5760 C   0  0  0  0  0  0  0  0  0  0  0  0
   11.0170   -0.2670   24.4200 C   0  0  0  0  0  0  0  0  0  0  0  0
   12.6380   -0.7640   22.3740 C   0  0  0  0  0  0  0  0  0  0  0  0
   11.6230   -1.5010   24.2400 C   0  0  0  0  0  0  0  0  0  0  0  0
   10.0880   -0.1110   25.5230 C   0  0  0  0  0  0  0  0  0  0  0  0
   13.6040   -1.2930   21.1160 Cl  0  0  0  0  0  0  0  0  0  0  0  0
   12.4310   -1.7550   23.2070 C   0  0  0  0  0  0  0  0  0  0  0  0
  1  2  1  0
  2  3  2  0
  2  4  1  0
  4  5  1  0
  4  6  1  0
  5  7  1  0
  6  8  1  0
  6  9  2  0
  7 10  1  0
  8 10  1  0
 10 11  1  0
 11 12  1  0
 12 13  2  0
 12 14  1  0
 13 15  1  0
 14 16  2  0
 14 17  1  0
 15 18  1  0
 15 19  2  0
 16 19  1  0
M  END
