ASH-SAT-43770c7d-10-bromoalkyne
     RDKit          3D

 18 19  0  0  0  0  0  0  0  0999 V2000
    7.1190   -3.0400   19.9290 C   0  0  0  0  0  0  0  0  0  0  0  0
    5.6830   -3.3290   19.4660 C   0  0  0  0  0  0  0  0  0  0  0  0
    7.5420   -1.7040   20.4740 N   0  0  0  0  0  0  0  0  0  0  0  0
    7.0820   -0.2850   20.1310 C   0  0  0  0  0  0  0  0  0  0  0  0
    8.2980   -1.6090   21.7410 C   0  0  0  0  0  0  0  0  0  0  0  0
    7.5110    0.7970   21.0940 C   0  0  0  0  0  0  0  0  0  0  0  0
    9.3720   -0.4800   21.7470 C   0  0  0  0  0  0  0  0  0  0  0  0
    8.8730    0.9210   21.5700 N   0  0  0  0  0  0  0  0  0  0  0  0
    9.6770    1.8400   22.4630 C   0  0  0  0  0  0  0  0  0  0  0  0
    9.7460    3.0490   22.7620 O   0  0  0  0  0  0  0  0  0  0  0  0
   10.5500    0.8190   22.9520 C   0  0  0  0  0  0  0  0  0  0  0  0
   10.0630   -0.1360   23.7520 C   0  0  0  0  0  0  0  0  0  0  0  0
   11.7790    0.7650   22.5580 C   0  0  0  0  0  0  0  0  0  0  0  0
   10.8250   -1.2390   24.1320 C   0  0  0  0  0  0  0  0  0  0  0  0
   12.5000   -0.2880   22.8840 C   0  0  0  0  0  0  0  0  0  0  0  0
   12.1000   -1.3200   23.6520 C   0  0  0  0  0  0  0  0  0  0  0  0
   13.7470   -0.3300   22.3590 C   0  0  0  0  0  0  0  0  0  0  0  0
   12.9780   -2.3850   23.9030 C   0  0  0  0  0  0  0  0  0  0  0  0
  1  2  2  3
  1  3  1  0
  3  4  1  0
  3  5  1  0
  4  6  1  0
  5  7  1  0
  6  8  1  0
  7  8  1  0
  8  9  1  0
  9 10  2  0
  9 11  1  0
 11 12  2  0
 11 13  1  0
 12 14  1  0
 13 15  2  0
 14 16  2  0
 15 16  1  0
 15 17  1  0
 16 18  1  0
M  END
