ASH-SAT-43770c7d-8
     RDKit          3D

 20 21  0  0  0  0  0  0  0  0999 V2000
    9.0910    6.5440   22.6050 C   0  0  0  0  0  0  0  0  0  0  0  0
   10.2550    6.2100   23.3620 C   0  0  0  0  0  0  0  0  0  0  0  0
   10.3120    6.3870   24.5810 O   0  0  0  0  0  0  0  0  0  0  0  0
   11.2700    5.6870   22.6020 N   0  0  0  0  0  0  0  0  0  0  0  0
   12.3960    4.9940   23.2690 C   0  0  0  0  0  0  0  0  0  0  0  0
   12.6050    3.7080   22.7230 C   0  0  0  0  0  0  0  0  0  0  0  0
   11.6570    2.5830   23.1450 C   0  0  0  0  0  0  0  0  0  0  0  0
   10.2950    2.7950   23.7140 C   0  0  0  0  0  0  0  0  0  0  0  0
   11.7930    1.1400   23.0640 C   0  0  0  0  0  0  0  0  0  0  0  0
    9.5700    1.6240   23.9430 C   0  0  1  0  0  0  0  0  0  0  0  0
   10.5820    0.5730   23.5210 C   0  0  0  0  0  0  0  0  0  0  0  0
   12.9130    0.2070   22.6060 C   0  0  0  0  0  0  0  0  0  0  0  0
    8.9980    1.2890   25.1670 C   0  0  0  0  0  0  0  0  0  0  0  0
    8.4140    1.6960   22.9270 C   0  0  0  0  0  0  0  0  0  0  0  0
   10.4040   -0.9200   23.5430 C   0  0  0  0  0  0  0  0  0  0  0  0
   12.6850   -1.3010   22.6290 C   0  0  0  0  0  0  0  0  0  0  0  0
    7.8550    1.5870   25.5000 O   0  0  0  0  0  0  0  0  0  0  0  0
    8.3000    0.2770   21.8430 Cl  0  0  0  0  0  0  0  0  0  0  0  0
   11.4900   -1.8200   23.0780 C   0  0  0  0  0  0  0  0  0  0  0  0
   13.6090   -2.1290   22.2220 F   0  0  0  0  0  0  0  0  0  0  0  0
  1  2  1  0
  2  3  2  0
  2  4  1  0
  4  5  1  0
  5  6  1  0
  6  7  1  0
  7  8  2  0
  7  9  1  0
  8 10  1  0
  9 11  2  0
 10 11  1  0
  9 12  1  0
 10 13  1  1
 10 14  1  0
 11 15  1  0
 12 16  2  0
 13 17  2  0
 14 18  1  0
 15 19  2  0
 16 19  1  0
 16 20  1  0
M  END
