ASH-SAT-43770c7d-5-bromoalkyne
     RDKit          3D

 16 17  0  0  0  0  0  0  0  0999 V2000
    8.2330   -1.0590   21.0290 C   0  0  0  0  0  0  0  0  0  0  0  0
    7.3460   -1.3410   21.9300 C   0  0  0  0  0  0  0  0  0  0  0  0
    9.2380   -0.7390   20.0100 N   0  0  0  0  0  0  0  0  0  0  0  0
    9.1470    0.6260   19.4580 C   0  0  0  0  0  0  0  0  0  0  0  0
   10.6190   -1.1140   20.3640 C   0  0  0  0  0  0  0  0  0  0  0  0
    9.8060    1.6640   20.3960 C   0  0  0  0  0  0  0  0  0  0  0  0
   11.2980   -0.0390   21.2430 C   0  0  0  0  0  0  0  0  0  0  0  0
   11.2160    1.3290   20.6840 N   0  0  0  0  0  0  0  0  0  0  0  0
   11.8960    2.3610   21.4950 C   0  0  0  0  0  0  0  0  0  0  0  0
   11.4940    2.3720   22.9440 C   0  0  0  0  0  0  0  0  0  0  0  0
   12.1000    1.5810   23.9770 C   0  0  0  0  0  0  0  0  0  0  0  0
   10.4960    3.1710   23.4770 C   0  0  0  0  0  0  0  0  0  0  0  0
   13.1640    0.7700   23.7960 N   0  0  0  0  0  0  0  0  0  0  0  0
   11.4380    1.6820   25.1740 C   0  0  0  0  0  0  0  0  0  0  0  0
   10.2010    2.8530   25.1240 S   0  0  0  0  0  0  0  0  0  0  0  0
    9.7670    4.0940   22.8610 O   0  0  0  0  0  0  0  0  0  0  0  0
  1  2  2  3
  1  3  1  0
  3  4  1  0
  3  5  1  0
  4  6  1  0
  5  7  1  0
  6  8  1  0
  7  8  1  0
  8  9  1  0
  9 10  1  0
 10 11  1  0
 10 12  2  0
 11 13  1  0
 11 14  2  0
 12 15  1  0
 14 15  1  0
 12 16  1  0
M  END
