ASH-SAT-43770c7d-2
     RDKit          3D

 23 25  0  0  0  0  0  0  0  0999 V2000
    8.8520    6.5350   23.8940 C   0  0  0  0  0  0  0  0  0  0  0  0
    7.7560    5.8440   23.3120 C   0  0  0  0  0  0  0  0  0  0  0  0
    7.2480    4.6010   23.6440 C   0  0  0  0  0  0  0  0  0  0  0  0
    6.0810    3.9540   23.2020 C   0  0  0  0  0  0  0  0  0  0  0  0
    8.1610    3.5770   24.8530 S   0  0  2  0  0  0  0  0  0  0  0  0
    5.9520    2.6280   23.8690 C   0  0  0  0  0  0  0  0  0  0  0  0
    7.0340    2.2520   24.8370 C   0  0  0  0  0  0  0  0  0  0  0  0
    8.1830    4.1890   26.4230 N   0  0  0  0  0  0  0  0  0  0  0  0
    9.6750    2.8870   24.2340 C   0  0  2  0  0  0  0  0  0  0  0  0
   10.6700    3.7670   23.7210 C   0  0  0  0  0  0  0  0  0  0  0  0
    9.4770    2.0900   23.4450 N   0  0  0  0  0  0  0  0  0  0  0  0
   11.7660    3.1510   23.0220 C   0  0  0  0  0  0  0  0  0  0  0  0
   10.4830    1.2180   23.2840 C   0  0  0  0  0  0  0  0  0  0  0  0
    8.7230    2.5030   22.2640 C   0  0  0  0  0  0  0  0  0  0  0  0
   11.7280    1.7550   23.0480 C   0  0  0  0  0  0  0  0  0  0  0  0
   10.2990   -0.2530   23.3590 C   0  0  0  0  0  0  0  0  0  0  0  0
   12.9400    0.8650   22.8380 C   0  0  0  0  0  0  0  0  0  0  0  0
   11.4570   -1.1430   23.1710 C   0  0  0  0  0  0  0  0  0  0  0  0
   12.7100   -0.6120   22.9100 C   0  0  0  0  0  0  0  0  0  0  0  0
   11.1620   -2.7990   23.2940 S   0  0  0  0  0  0  0  0  0  0  0  0
   10.5170   -2.9520   21.7580 N   0  0  0  0  0  0  0  0  0  0  0  0
   10.0920   -3.0630   24.2170 O   0  0  0  0  0  0  0  0  0  0  0  0
   12.4990   -3.2800   23.4400 O   0  0  0  0  0  0  0  0  0  0  0  0
  1  2  2  3
  2  3  1  0
  3  4  2  0
  3  5  1  0
  4  6  1  0
  5  7  1  0
  6  7  2  0
  5  8  1  1
  5  9  1  0
  9 10  1  6
  9 11  1  0
 10 12  1  0
 11 13  1  0
 11 14  1  0
 12 15  1  0
 13 15  2  0
 13 16  1  0
 15 17  1  0
 16 18  2  0
 17 19  2  0
 18 19  1  0
 18 20  1  0
 20 21  1  0
 20 22  2  0
 20 23  2  0
M  END
