ASH-UNK-7e8c50a4-1-chloroacetamide
     RDKit          3D

 42 47  0  0  0  0  0  0  0  0999 V2000
    7.1130   -3.3820   19.5120 C   0  0  0  0  0  0  0  0  0  0  0  0
    6.3320   -4.2590   20.4510 C   0  0  0  0  0  0  0  0  0  0  0  0
    5.3930   -4.9250   20.0340 O   0  0  0  0  0  0  0  0  0  0  0  0
    6.7780   -4.2770   21.7930 N   0  0  0  0  0  0  0  0  0  0  0  0
    5.9110   -4.4810   22.9570 C   0  0  0  0  0  0  0  0  0  0  0  0
    6.0400   -3.3720   24.0300 C   0  0  0  0  0  0  0  0  0  0  0  0
    5.0600   -5.5940   23.0490 C   0  0  0  0  0  0  0  0  0  0  0  0
    5.1080   -3.6440   25.2250 C   0  0  0  0  0  0  0  0  0  0  0  0
    4.2420   -5.7710   24.1710 C   0  0  0  0  0  0  0  0  0  0  0  0
    5.2070   -2.6080   26.2740 C   0  0  0  0  0  0  0  0  0  0  0  0
    4.2660   -4.7470   25.3130 C   0  0  0  0  0  0  0  0  0  0  0  0
    3.3480   -6.9500   24.2600 C   0  0  0  0  0  0  0  0  0  0  0  0
    4.5830   -1.2720   25.7800 C   0  0  0  0  0  0  0  0  0  0  0  0
    3.8260   -7.9780   24.7310 O   0  0  0  0  0  0  0  0  0  0  0  0
    2.0210   -6.8570   23.8290 N   0  0  0  0  0  0  0  0  0  0  0  0
    3.3330   -0.9970   26.3540 C   0  0  0  0  0  0  0  0  0  0  0  0
    1.5260   -5.5410   23.4350 C   0  0  0  0  0  0  0  0  0  0  0  0
    1.0380   -7.9410   23.9710 C   0  0  0  0  0  0  0  0  0  0  0  0
    2.3490   -0.4890   25.5500 N   0  0  0  0  0  0  0  0  0  0  0  0
    2.8100   -1.1330   27.6760 C   0  0  0  0  0  0  0  0  0  0  0  0
    0.4310   -4.9960   24.3560 C   0  0  0  0  0  0  0  0  0  0  0  0
   -0.1680   -7.6040   24.8670 C   0  0  0  0  0  0  0  0  0  0  0  0
    1.2000   -0.2940   26.3110 C   0  0  0  0  0  0  0  0  0  0  0  0
    1.4500   -0.6820   27.6210 C   0  0  0  0  0  0  0  0  0  0  0  0
    3.4640   -1.6210   28.8620 C   0  0  0  0  0  0  0  0  0  0  0  0
   -1.0320   -6.0710   24.3800 S   0  0  0  0  0  0  0  0  0  0  0  0
   -0.0130    0.1900   25.9160 N   0  0  0  0  0  0  0  0  0  0  0  0
    0.4570   -0.5950   28.6150 C   0  0  0  0  0  0  0  0  0  0  0  0
    3.5930   -0.7310   29.9340 C   0  0  0  0  0  0  0  0  0  0  0  0
   -1.0240    0.2890   26.8810 C   0  0  0  0  0  0  0  0  0  0  0  0
   -0.8060   -0.0960   28.2210 C   0  0  0  0  0  0  0  0  0  0  0  0
    4.3710    0.4230   29.6060 O   0  0  0  0  0  0  0  0  0  0  0  0
    3.0240   -0.9730   31.1920 N   0  0  0  0  0  0  0  0  0  0  0  0
    0.5680   -0.9700   30.0750 C   0  0  0  0  0  0  0  0  0  0  0  0
    3.0990    0.0520   32.2310 C   0  0  0  0  0  0  0  0  0  0  0  0
    2.8260   -2.3160   31.7680 C   0  0  1  0  0  0  0  0  0  0  0  0
    0.9920   -2.4320   30.3370 C   0  0  0  0  0  0  0  0  0  0  0  0
    2.4830   -0.4780   33.5230 C   0  0  0  0  0  0  0  0  0  0  0  0
    3.6110   -2.3230   33.1010 C   0  0  0  0  0  0  0  0  0  0  0  0
    1.5100   -2.5860   31.7830 C   0  0  0  0  0  0  0  0  0  0  0  0
    3.0060   -1.8070   33.9440 N   0  0  0  0  0  0  0  0  0  0  0  0
    3.7830   -1.7110   35.1680 C   0  0  0  0  0  0  0  0  0  0  0  0
  1  2  1  0
  2  3  2  0
  2  4  1  0
  4  5  1  0
  5  6  2  0
  5  7  1  0
  6  8  1  0
  7  9  2  0
  8 10  1  0
  8 11  2  0
  9 11  1  0
  9 12  1  0
 10 13  1  0
 12 14  2  0
 12 15  1  0
 13 16  1  0
 15 17  1  0
 15 18  1  0
 16 19  1  0
 16 20  2  0
 17 21  1  0
 18 22  1  0
 19 23  1  0
 20 24  1  0
 23 24  2  0
 20 25  1  0
 21 26  1  0
 22 26  1  0
 23 27  1  0
 24 28  1  0
 25 29  1  0
 27 30  2  0
 28 31  2  0
 30 31  1  0
 29 32  2  0
 29 33  1  0
 28 34  1  0
 33 35  1  0
 33 36  1  0
 34 37  1  0
 35 38  1  0
 36 39  1  1
 36 40  1  0
 37 40  1  0
 38 41  1  0
 39 41  1  0
 41 42  1  0
M  END
