ASH-SAT-43770c7d-5-chloroacetamide
     RDKit          3D

 17 18  0  0  0  0  0  0  0  0999 V2000
    7.8600   -3.6550   20.3530 C   0  0  0  0  0  0  0  0  0  0  0  0
    6.9040   -2.4300   20.0070 C   0  0  0  0  0  0  0  0  0  0  0  0
    6.2590   -3.1020   19.1320 O   0  0  0  0  0  0  0  0  0  0  0  0
    7.7930   -1.8610   21.0560 N   0  0  0  0  0  0  0  0  0  0  0  0
    7.3510   -0.7490   21.8980 C   0  0  0  0  0  0  0  0  0  0  0  0
    9.1490   -2.1750   21.5580 C   0  0  0  0  0  0  0  0  0  0  0  0
    8.0590    0.4250   21.5420 C   0  0  0  0  0  0  0  0  0  0  0  0
   10.0140   -1.0190   21.7640 C   0  0  0  0  0  0  0  0  0  0  0  0
    9.4580    0.4160   21.7030 N   0  0  0  0  0  0  0  0  0  0  0  0
   10.1800    1.2970   22.6010 C   0  0  0  0  0  0  0  0  0  0  0  0
   11.1040    0.5150   23.4070 C   0  0  0  0  0  0  0  0  0  0  0  0
   12.3200    0.0890   22.8720 C   0  0  0  0  0  0  0  0  0  0  0  0
   10.8280    0.1510   24.6630 C   0  0  0  0  0  0  0  0  0  0  0  0
   13.1430   -0.0500   22.1340 N   0  0  0  0  0  0  0  0  0  0  0  0
   12.9330   -0.6470   23.8350 C   0  0  0  0  0  0  0  0  0  0  0  0
   12.0810   -0.7800   25.2430 S   0  0  0  0  0  0  0  0  0  0  0  0
    9.8350    0.4060   25.3500 O   0  0  0  0  0  0  0  0  0  0  0  0
  1  2  1  0
  2  3  2  0
  2  4  1  0
  4  5  1  0
  4  6  1  0
  5  7  1  0
  6  8  1  0
  7  9  1  0
  8  9  1  0
  9 10  1  0
 10 11  1  0
 11 12  1  0
 11 13  2  0
 12 14  1  0
 12 15  2  0
 13 16  1  0
 15 16  1  0
 13 17  1  0
M  END
