ATU-SYN-3e3fbfe4-1-vinylsulfonamide
     RDKit          3D

 27 29  0  0  0  0  0  0  0  0999 V2000
    8.8850   -4.3790   20.5380 C   0  0  0  0  0  0  0  0  0  0  0  0
    7.5480   -3.6610   20.5770 C   0  0  0  0  0  0  0  0  0  0  0  0
    6.6500   -4.2460   21.9750 S   0  0  0  0  0  0  0  0  0  0  0  0
    5.1490   -4.2710   21.6410 O   0  0  0  0  0  0  0  0  0  0  0  0
    7.4050   -5.3820   22.4610 O   0  0  0  0  0  0  0  0  0  0  0  0
    7.1030   -3.0170   23.0200 N   0  0  0  0  0  0  0  0  0  0  0  0
    5.9950   -2.2490   23.4490 C   0  0  0  0  0  0  0  0  0  0  0  0
    8.1860   -2.1240   22.6830 C   0  0  0  0  0  0  0  0  0  0  0  0
    5.3880   -1.6750   22.1890 C   0  0  0  0  0  0  0  0  0  0  0  0
    7.8040   -1.2690   21.6250 C   0  0  0  0  0  0  0  0  0  0  0  0
    6.4200   -1.4560   21.1250 N   0  0  0  0  0  0  0  0  0  0  0  0
    6.3540   -1.8350   19.7990 C   0  0  0  0  0  0  0  0  0  0  0  0
    5.5700   -0.9150   18.9320 C   0  0  0  0  0  0  0  0  0  0  0  0
    5.8860    0.7720   18.8900 S   0  0  2  0  0  0  0  0  0  0  0  0
    5.8550    1.2590   17.2870 N   0  0  0  0  0  0  0  0  0  0  0  0
    7.2030    1.0470   19.4250 O   0  0  0  0  0  0  0  0  0  0  0  0
    4.7580    1.7400   19.7170 C   0  0  0  0  0  0  0  0  0  0  0  0
    3.6800    2.6460   19.0410 C   0  0  0  0  0  0  0  0  0  0  0  0
    4.6130    1.8940   21.2700 C   0  0  0  0  0  0  0  0  0  0  0  0
    2.6850    3.4930   19.7870 C   0  0  0  0  0  0  0  0  0  0  0  0
    3.6280    2.7300   21.8420 C   0  0  0  0  0  0  0  0  0  0  0  0
    5.4510    1.2120   22.1710 C   0  0  0  0  0  0  0  0  0  0  0  0
    2.7070    3.4910   21.1590 N   0  0  0  0  0  0  0  0  0  0  0  0
    3.5240    2.8450   23.2340 C   0  0  0  0  0  0  0  0  0  0  0  0
    5.3070    1.3600   23.5480 C   0  0  0  0  0  0  0  0  0  0  0  0
    4.3490    2.1730   24.1250 C   0  0  0  0  0  0  0  0  0  0  0  0
    4.1890    2.3400   25.8330 Cl  0  0  0  0  0  0  0  0  0  0  0  0
  1  2  1  0
  3  2  1  0
  3  4  2  0
  3  5  2  0
  3  6  1  0
  6  7  1  0
  6  8  1  0
  7  9  1  0
  8 10  1  0
  9 11  1  0
 10 11  1  0
 11 12  1  0
 12 13  1  0
 14 13  1  6
 14 15  2  0
 14 16  2  0
 14 17  1  0
 17 18  2  0
 17 19  1  0
 18 20  1  0
 19 21  2  0
 19 22  1  0
 20 23  2  0
 21 23  1  0
 21 24  1  0
 22 25  2  0
 24 26  2  0
 25 26  1  0
 26 27  1  0
M  END
