ATU-SYN-3e3fbfe4-1-bromoalkyne
     RDKit          3D

 24 26  0  0  0  0  0  0  0  0999 V2000
    7.6300   -3.6580   20.0270 C   0  0  0  0  0  0  0  0  0  0  0  0
    6.1570   -3.6610   19.7160 C   0  0  0  0  0  0  0  0  0  0  0  0
    8.0600   -3.6320   21.3560 N   0  0  0  0  0  0  0  0  0  0  0  0
    8.9150   -2.5360   21.7710 C   0  0  0  0  0  0  0  0  0  0  0  0
    7.0370   -3.7200   22.3570 C   0  0  0  0  0  0  0  0  0  0  0  0
    8.1010   -1.2520   21.6100 C   0  0  0  0  0  0  0  0  0  0  0  0
    6.1550   -2.6300   22.1510 C   0  0  0  0  0  0  0  0  0  0  0  0
    6.6900   -1.5760   21.2480 N   0  0  0  0  0  0  0  0  0  0  0  0
    6.2640   -1.7290   19.9320 C   0  0  0  0  0  0  0  0  0  0  0  0
    5.2850   -0.7410   19.3590 C   0  0  0  0  0  0  0  0  0  0  0  0
    5.9220    0.9110   19.1070 S   0  0  2  0  0  0  0  0  0  0  0  0
    5.1490    1.5670   17.7510 N   0  0  0  0  0  0  0  0  0  0  0  0
    7.3550    0.9530   19.0240 O   0  0  0  0  0  0  0  0  0  0  0  0
    5.2950    1.5860   20.6260 C   0  0  0  0  0  0  0  0  0  0  0  0
    6.1990    1.8140   21.8970 C   0  0  0  0  0  0  0  0  0  0  0  0
    3.8250    2.0410   20.9170 C   0  0  0  0  0  0  0  0  0  0  0  0
    5.6400    2.3980   23.1820 C   0  0  0  0  0  0  0  0  0  0  0  0
    3.4720    2.5610   22.1600 C   0  0  0  0  0  0  0  0  0  0  0  0
    2.8170    1.9400   19.9340 C   0  0  0  0  0  0  0  0  0  0  0  0
    4.3060    2.7390   23.2340 N   0  0  0  0  0  0  0  0  0  0  0  0
    2.1590    2.9540   22.3910 C   0  0  0  0  0  0  0  0  0  0  0  0
    1.4980    2.3470   20.2020 C   0  0  0  0  0  0  0  0  0  0  0  0
    1.1580    2.8580   21.4410 C   0  0  0  0  0  0  0  0  0  0  0  0
   -0.4540    3.3610   21.7810 Cl  0  0  0  0  0  0  0  0  0  0  0  0
  1  2  2  3
  1  3  1  0
  3  4  1  0
  3  5  1  0
  4  6  1  0
  5  7  1  0
  6  8  1  0
  7  8  1  0
  8  9  1  0
  9 10  1  0
 11 10  1  1
 11 12  2  0
 11 13  2  0
 11 14  1  0
 14 15  2  0
 14 16  1  0
 15 17  1  0
 16 18  2  0
 16 19  1  0
 17 20  2  0
 18 20  1  0
 18 21  1  0
 19 22  2  0
 21 23  2  0
 22 23  1  0
 23 24  1  0
M  END
