AUS-ARG-7cfdce8f-7
     RDKit          3D

 25 28  0  0  0  0  0  0  0  0999 V2000
    8.9180   -2.0560   23.8620 C   0  0  0  0  0  0  0  0  0  0  0  0
   10.2800   -1.5010   23.7400 C   0  0  0  0  0  0  0  0  0  0  0  0
   10.9250   -0.7870   24.9010 C   0  0  0  0  0  0  0  0  0  0  0  0
   10.8660   -1.6640   22.5280 C   0  0  0  0  0  0  0  0  0  0  0  0
   12.2570   -0.2020   24.5570 C   0  0  0  0  0  0  0  0  0  0  0  0
   12.0800   -1.1510   22.1950 C   0  0  0  0  0  0  0  0  0  0  0  0
   10.1440   -2.3650   21.6240 C   0  0  0  0  0  0  0  0  0  0  0  0
   12.7350   -0.4110   23.1320 C   0  0  0  0  0  0  0  0  0  0  0  0
   13.8050    0.2410   22.7810 O   0  0  0  0  0  0  0  0  0  0  0  0
   12.8620    1.3580   22.7670 C   0  0  0  0  0  0  0  0  0  0  0  0
   11.6170    0.9000   23.2230 N   0  0  0  0  0  0  0  0  0  0  0  0
   13.0220    2.7070   22.3850 C   0  0  0  0  0  0  0  0  0  0  0  0
   10.5190    1.8320   23.2990 C   0  0  0  0  0  0  0  0  0  0  0  0
   11.7740    3.6590   22.5180 C   0  0  0  0  0  0  0  0  0  0  0  0
   14.2140    3.1680   21.9130 C   0  0  0  0  0  0  0  0  0  0  0  0
    9.3160    1.2470   23.7330 C   0  0  0  0  0  0  0  0  0  0  0  0
   10.5680    3.1710   22.9770 N   0  0  0  0  0  0  0  0  0  0  0  0
   12.0270    5.0980   22.1060 C   0  0  0  0  0  0  0  0  0  0  0  0
   14.3980    4.4870   21.5320 C   0  0  0  0  0  0  0  0  0  0  0  0
    8.2680    1.1140   22.8200 C   0  0  0  0  0  0  0  0  0  0  0  0
    9.0000    0.7250   25.1090 C   0  0  0  0  0  0  0  0  0  0  0  0
   13.4100    5.4780   21.6010 C   0  0  0  0  0  0  0  0  0  0  0  0
    7.0150    0.5500   23.1250 C   0  0  0  0  0  0  0  0  0  0  0  0
    7.7080    0.1180   25.5100 N   0  0  0  0  0  0  0  0  0  0  0  0
    6.7340    0.0680   24.4140 C   0  0  0  0  0  0  0  0  0  0  0  0
  1  2  1  0
  2  3  2  0
  2  4  1  0
  3  5  1  0
  4  6  2  0
  4  7  1  0
  5  8  2  0
  6  8  1  0
  8  9  1  0
  9 10  1  0
 10 11  2  0
 10 12  1  0
 11 13  1  0
 12 14  2  0
 12 15  1  0
 13 16  1  0
 13 17  2  0
 14 17  1  0
 14 18  1  0
 15 19  2  0
 16 20  2  0
 16 21  1  0
 18 22  2  0
 19 22  1  0
 20 23  1  0
 21 24  2  0
 23 25  2  0
 24 25  1  0
M  END
