AUS-ARG-7cfdce8f-18
     RDKit          3D

 22 26  0  0  0  0  0  0  0  0999 V2000
    4.7170    2.4820   17.4120 C   0  0  0  0  0  0  0  0  0  0  0  0
    3.9690    2.7110   18.6580 C   0  0  0  0  0  0  0  0  0  0  0  0
    4.2630    2.0650   19.8120 N   0  0  0  0  0  0  0  0  0  0  0  0
    5.7870    1.5040   17.4310 C   0  0  0  0  0  0  0  0  0  0  0  0
    6.1370    0.8580   18.6610 N   0  0  0  0  0  0  0  0  0  0  0  0
    5.3880    1.1500   19.8110 C   0  0  0  0  0  0  0  0  0  0  0  0
    7.1380   -0.0120   18.9300 N   0  0  0  0  0  0  0  0  0  0  0  0
    5.8900    0.4940   20.8160 N   0  0  0  0  0  0  0  0  0  0  0  0
    6.9230   -0.1870   20.3630 C   0  0  0  0  0  0  0  0  0  0  0  0
    7.9190   -1.1390   21.3670 S   0  0  0  0  0  0  0  0  0  0  0  0
    8.8230    0.2930   22.0170 C   0  0  0  0  0  0  0  0  0  0  0  0
    9.2650    0.0600   23.4370 C   0  0  0  0  0  0  0  0  0  0  0  0
   10.4510   -0.6420   23.4680 C   0  0  2  0  0  0  0  0  0  0  0  0
   10.3450   -1.9990   23.8420 C   0  0  0  0  0  0  0  0  0  0  0  0
   11.2100   -0.2300   24.6860 C   0  0  0  0  0  0  0  0  0  0  0  0
   11.2630   -0.4220   22.3640 C   0  0  0  0  0  0  0  0  0  0  0  0
   11.5140   -2.7500   23.7850 C   0  0  1  0  0  0  0  0  0  0  0  0
   12.5150   -1.2670   22.3790 C   0  0  2  0  0  0  0  0  0  0  0  0
   12.4340   -0.8850   24.7620 C   0  0  2  0  0  0  0  0  0  0  0  0
   12.1730   -2.5740   22.5520 C   0  0  0  0  0  0  0  0  0  0  0  0
   13.2720   -0.6940   23.5370 C   0  0  0  0  0  0  0  0  0  0  0  0
   12.3690   -2.3900   24.7930 C   0  0  0  0  0  0  0  0  0  0  0  0
  1  2  1  0
  2  3  2  0
  1  4  2  0
  4  5  1  0
  3  6  1  0
  5  6  1  0
  5  7  1  0
  6  8  2  0
  7  9  2  0
  8  9  1  0
  9 10  1  0
 10 11  1  0
 11 12  1  0
 13 12  1  6
 13 14  1  0
 13 15  1  0
 13 16  1  0
 17 14  1  6
 18 16  1  1
 19 15  1  6
 17 20  1  0
 18 20  1  0
 18 21  1  0
 19 21  1  0
 17 22  1  0
 19 22  1  0
M  END
