AUS-ARG-7cfdce8f-16
     RDKit          3D

 27 31  0  0  0  0  0  0  0  0999 V2000
    2.3470    0.3430   27.0210 C   0  0  0  0  0  0  0  0  0  0  0  0
    1.6360   -0.8870   26.5460 C   0  0  0  0  0  0  0  0  0  0  0  0
    2.2550   -1.8600   25.7780 N   0  0  0  0  0  0  0  0  0  0  0  0
    3.6830    0.5100   26.6780 C   0  0  0  0  0  0  0  0  0  0  0  0
    4.3160   -0.4760   25.9010 C   0  0  0  0  0  0  0  0  0  0  0  0
    3.6730   -1.6210   25.4470 C   0  0  0  0  0  0  0  0  0  0  0  0
    5.7590   -0.5530   25.3850 C   0  0  0  0  0  0  0  0  0  0  0  0
    6.5150   -1.7460   25.8460 N   0  0  0  0  0  0  0  0  0  0  0  0
    6.3950    0.3460   24.5580 N   0  0  0  0  0  0  0  0  0  0  0  0
    7.8960   -1.9090   25.3980 C   0  0  0  0  0  0  0  0  0  0  0  0
    7.7680    0.1900   24.1080 C   0  0  0  0  0  0  0  0  0  0  0  0
    8.5980   -2.8550   25.6970 O   0  0  0  0  0  0  0  0  0  0  0  0
    8.5680   -0.8700   24.4680 C   0  0  0  0  0  0  0  0  0  0  0  0
    8.3040    1.1730   23.2520 C   0  0  0  0  0  0  0  0  0  0  0  0
    9.4550   -2.6990   24.6940 C   0  0  0  0  0  0  0  0  0  0  0  0
    9.8830   -0.9350   23.9770 C   0  0  0  0  0  0  0  0  0  0  0  0
    9.6010    1.1000   22.7640 C   0  0  0  0  0  0  0  0  0  0  0  0
    9.2620   -3.3220   23.4690 C   0  0  0  0  0  0  0  0  0  0  0  0
   10.5270   -1.8390   24.9100 C   0  0  0  0  0  0  0  0  0  0  0  0
   10.3990    0.0430   23.1240 C   0  0  0  0  0  0  0  0  0  0  0  0
   10.1360   -3.0730   22.4580 C   0  0  0  0  0  0  0  0  0  0  0  0
   11.4010   -1.5860   23.8950 C   0  0  0  0  0  0  0  0  0  0  0  0
   11.2090   -2.2190   22.6400 C   0  0  0  0  0  0  0  0  0  0  0  0
   12.4300   -0.6950   24.1470 C   0  0  0  0  0  0  0  0  0  0  0  0
   12.0580   -2.0080   21.5590 C   0  0  0  0  0  0  0  0  0  0  0  0
   13.4010   -0.3710   23.0160 C   0  0  0  0  0  0  0  0  0  0  0  0
   13.2330   -1.0630   21.6760 C   0  0  0  0  0  0  0  0  0  0  0  0
  1  2  2  0
  2  3  1  0
  1  4  1  0
  4  5  2  0
  3  6  2  0
  5  6  1  0
  5  7  1  0
  7  8  2  0
  7  9  1  0
  8 10  1  0
  9 11  2  0
 10 12  1  0
 10 13  2  0
 11 13  1  0
 11 14  1  0
 12 15  1  0
 13 16  1  0
 14 17  2  0
 15 18  2  0
 15 19  1  0
 16 20  2  0
 17 20  1  0
 18 21  1  0
 19 22  2  0
 21 23  2  0
 22 23  1  0
 22 24  1  0
 23 25  1  0
 24 26  2  0
 25 27  2  0
 26 27  1  0
M  END
