AUS-ARG-7cfdce8f-6
     RDKit          3D

 21 23  0  0  0  0  0  0  0  0999 V2000
    6.1380   -2.2670   25.7430 C   0  0  0  0  0  0  0  0  0  0  0  0
    7.4060   -1.7030   25.1590 C   0  0  0  0  0  0  0  0  0  0  0  0
    8.0120   -2.4070   23.9310 C   0  0  0  0  0  0  0  0  0  0  0  0
    8.0010   -0.5790   25.7260 C   0  0  0  0  0  0  0  0  0  0  0  0
    9.3070   -1.8020   23.3710 C   0  0  0  0  0  0  0  0  0  0  0  0
    9.1750   -0.0330   25.2180 C   0  0  0  0  0  0  0  0  0  0  0  0
    9.8420   -0.5660   24.1070 C   0  0  0  0  0  0  0  0  0  0  0  0
   11.1200    0.1010   23.6210 C   0  0  0  0  0  0  0  0  0  0  0  0
   11.0170    1.5090   23.4570 N   0  0  0  0  0  0  0  0  0  0  0  0
   12.4550   -0.5640   23.3050 C   0  0  0  0  0  0  0  0  0  0  0  0
   12.2240    1.8060   23.0430 N   0  0  0  0  0  0  0  0  0  0  0  0
   13.0490    0.6550   22.9490 C   0  0  0  0  0  0  0  0  0  0  0  0
   12.8810   -1.8790   23.3640 C   0  0  0  0  0  0  0  0  0  0  0  0
   12.6240   -2.5720   22.0900 N   0  0  0  0  0  0  0  0  0  0  0  0
   13.1300   -2.5000   20.7680 C   0  0  0  0  0  0  0  0  0  0  0  0
   13.9680   -3.5660   20.2690 C   0  0  0  0  0  0  0  0  0  0  0  0
   15.0740   -3.7510   19.3180 C   0  0  0  0  0  0  0  0  0  0  0  0
   13.6910   -4.5520   20.7860 C   0  0  0  0  0  0  0  0  0  0  0  0
   15.7580   -4.9700   19.0740 C   0  0  0  0  0  0  0  0  0  0  0  0
   14.2250   -5.8140   20.6630 N   0  0  0  0  0  0  0  0  0  0  0  0
   15.2360   -6.0230   19.8470 C   0  0  0  0  0  0  0  0  0  0  0  0
  1  2  1  0
  2  3  2  0
  2  4  1  0
  3  5  1  0
  4  6  2  0
  5  7  2  0
  6  7  1  0
  7  8  1  0
  8  9  2  0
  8 10  1  0
  9 11  1  0
 10 12  2  0
 11 12  1  0
 10 13  1  0
 13 14  1  0
 14 15  1  0
 15 16  1  0
 16 17  2  0
 16 18  1  0
 17 19  1  0
 18 20  2  0
 19 21  2  0
 20 21  1  0
M  END
