AUS-ARG-7cfdce8f-2
     RDKit          3D

 23 25  0  0  0  0  0  0  0  0999 V2000
   13.7480   -2.4140   24.9510 C   0  0  0  0  0  0  0  0  0  0  0  0
   13.8870   -1.8600   23.6410 O   0  0  0  0  0  0  0  0  0  0  0  0
   12.7000   -1.4810   23.1880 C   0  0  0  0  0  0  0  0  0  0  0  0
   12.2860   -0.1100   23.6570 C   0  0  0  0  0  0  0  0  0  0  0  0
   11.9010   -2.2540   22.3920 C   0  0  0  0  0  0  0  0  0  0  0  0
   10.8910    0.3400   23.2180 C   0  0  0  0  0  0  0  0  0  0  0  0
   10.6350   -1.8490   21.9930 C   0  0  0  0  0  0  0  0  0  0  0  0
   10.0820   -0.6280   22.3680 C   0  0  0  0  0  0  0  0  0  0  0  0
    8.6480   -0.2130   21.9720 C   0  0  2  0  0  0  0  0  0  0  0  0
    7.9490   -0.8450   20.9060 C   0  0  0  0  0  0  0  0  0  0  0  0
    8.4880    1.1410   21.7590 C   0  0  0  0  0  0  0  0  0  0  0  0
    6.7840   -0.0890   20.6860 C   0  0  1  0  0  0  0  0  0  0  0  0
    7.0350    1.1340   21.4310 N   0  0  0  0  0  0  0  0  0  0  0  0
    6.4670    0.2360   19.3800 C   0  0  0  0  0  0  0  0  0  0  0  0
    5.9600    1.8000   22.5480 S   0  0  0  0  0  0  0  0  0  0  0  0
    5.7720    0.8390   23.6100 O   0  0  0  0  0  0  0  0  0  0  0  0
    6.3870    3.1530   22.8160 O   0  0  0  0  0  0  0  0  0  0  0  0
    4.4240    1.9370   21.6360 C   0  0  0  0  0  0  0  0  0  0  0  0
    4.3820    2.4820   20.3400 C   0  0  0  0  0  0  0  0  0  0  0  0
    3.1960    1.4970   22.2010 C   0  0  0  0  0  0  0  0  0  0  0  0
    3.0490    2.5840   19.5970 C   0  0  0  0  0  0  0  0  0  0  0  0
    1.8550    1.5640   21.5440 N   0  0  0  0  0  0  0  0  0  0  0  0
    1.7730    2.0900   20.2810 C   0  0  0  0  0  0  0  0  0  0  0  0
  1  2  1  0
  2  3  1  0
  3  4  2  0
  3  5  1  0
  4  6  1  0
  5  7  2  0
  6  8  2  0
  7  8  1  0
  9  8  1  6
  9 10  1  0
  9 11  1  0
 10 12  1  0
 11 13  1  0
 12 13  1  0
 12 14  1  6
 13 15  1  0
 15 16  2  0
 15 17  2  0
 15 18  1  0
 18 19  2  0
 18 20  1  0
 19 21  1  0
 20 22  2  0
 21 23  2  0
 22 23  1  0
M  END
