AUS-ARG-7cfdce8f-8
     RDKit          3D

 24 27  0  0  0  0  0  0  0  0999 V2000
   13.2940   -2.6150   21.1960 C   0  0  0  0  0  0  0  0  0  0  0  0
   12.5510   -1.4670   21.7290 C   0  0  0  0  0  0  0  0  0  0  0  0
   11.2720   -1.5520   21.4690 N   0  0  0  0  0  0  0  0  0  0  0  0
   13.0310   -0.0440   22.6000 S   0  0  0  0  0  0  0  0  0  0  0  0
   10.5860   -0.4240   21.9540 C   0  0  0  0  0  0  0  0  0  0  0  0
   11.3750    0.5230   22.6160 C   0  0  0  0  0  0  0  0  0  0  0  0
    9.1760   -0.7270   21.5400 C   0  0  1  0  0  0  0  0  0  0  0  0
    9.4250   -2.1000   21.9930 N   0  0  0  0  0  0  0  0  0  0  0  0
    8.2700   -0.0210   22.3630 N   0  0  0  0  0  0  0  0  0  0  0  0
   10.4360   -1.7470   23.0190 C   0  0  0  0  0  0  0  0  0  0  0  0
    8.8030   -0.2280   23.7070 C   0  0  0  0  0  0  0  0  0  0  0  0
    6.9470   -0.2970   22.0820 C   0  0  0  0  0  0  0  0  0  0  0  0
   11.8200   -2.3820   23.1270 C   0  0  0  0  0  0  0  0  0  0  0  0
   10.0860   -0.7630   23.9090 C   0  0  0  0  0  0  0  0  0  0  0  0
    8.1160    0.0580   24.9290 O   0  0  0  0  0  0  0  0  0  0  0  0
    6.5120    0.1540   20.6480 C   0  0  0  0  0  0  0  0  0  0  0  0
   12.6880   -1.9310   24.1390 C   0  0  0  0  0  0  0  0  0  0  0  0
   10.9600   -0.3650   24.8820 C   0  0  0  0  0  0  0  0  0  0  0  0
    5.3050    1.0970   20.5840 C   0  0  0  0  0  0  0  0  0  0  0  0
    7.1080   -0.2200   19.4410 C   0  0  0  0  0  0  0  0  0  0  0  0
   12.2500   -0.9210   25.0110 C   0  0  0  0  0  0  0  0  0  0  0  0
    4.8350    1.5690   19.1950 C   0  0  0  0  0  0  0  0  0  0  0  0
    6.6700    0.2290   18.1070 N   0  0  0  0  0  0  0  0  0  0  0  0
    5.6060    1.0680   17.9800 C   0  0  0  0  0  0  0  0  0  0  0  0
  1  2  1  0
  2  3  2  0
  2  4  1  0
  3  5  1  0
  4  6  1  0
  5  6  2  0
  7  5  1  1
  7  8  1  0
  7  9  1  0
  8 10  1  0
  9 11  1  0
  9 12  1  0
 10 13  2  0
 10 14  1  0
 11 14  1  0
 11 15  2  0
 12 16  1  0
 13 17  1  0
 14 18  2  0
 16 19  2  0
 16 20  1  0
 17 21  2  0
 18 21  1  0
 19 22  1  0
 20 23  2  0
 22 24  2  0
 23 24  1  0
M  END
