AUS-ARG-7cfdce8f-4
     RDKit          3D

 25 28  0  0  0  0  0  0  0  0999 V2000
   12.5990    3.1020   22.8260 C   0  0  0  0  0  0  0  0  0  0  0  0
   12.8720    1.8770   23.5090 O   0  0  0  0  0  0  0  0  0  0  0  0
   12.1590    0.7750   23.2000 C   0  0  0  0  0  0  0  0  0  0  0  0
   12.7760   -0.6020   23.4450 C   0  0  0  0  0  0  0  0  0  0  0  0
   10.8860    1.0490   22.6700 C   0  0  0  0  0  0  0  0  0  0  0  0
   11.8660   -1.7270   23.0550 C   0  0  0  0  0  0  0  0  0  0  0  0
    9.9980    0.0450   22.2650 C   0  0  0  0  0  0  0  0  0  0  0  0
   10.5370   -1.2640   22.4900 C   0  0  0  0  0  0  0  0  0  0  0  0
    8.5920   -0.1260   21.6250 C   0  0  0  0  0  0  0  0  0  0  0  0
    9.6350   -2.1530   22.0930 N   0  0  0  0  0  0  0  0  0  0  0  0
    8.4920   -1.5450   21.5770 C   0  0  0  0  0  0  0  0  0  0  0  0
    7.3670    0.4250   21.0650 C   0  0  0  0  0  0  0  0  0  0  0  0
    7.0830    1.7420   20.8630 C   0  0  0  0  0  0  0  0  0  0  0  0
    7.2720   -0.1300   19.5990 C   0  0  0  0  0  0  0  0  0  0  0  0
    6.2220    1.8100   19.7440 C   0  0  0  0  0  0  0  0  0  0  0  0
    5.9810   -0.2460   19.1190 C   0  0  0  0  0  0  0  0  0  0  0  0
    5.3230    0.8530   19.4960 N   0  0  0  0  0  0  0  0  0  0  0  0
    4.1560    0.5130   20.3260 C   0  0  2  0  0  0  0  0  0  0  0  0
    3.1060    1.6330   20.5170 C   0  0  0  0  0  0  0  0  0  0  0  0
    4.5850    0.0450   21.7360 C   0  0  0  0  0  0  0  0  0  0  0  0
    4.5970    1.0030   22.9520 C   0  0  0  0  0  0  0  0  0  0  0  0
    4.9580   -1.2650   21.8620 N   0  0  0  0  0  0  0  0  0  0  0  0
    5.0010    0.4660   24.1580 N   0  0  0  0  0  0  0  0  0  0  0  0
    5.3450   -1.7020   23.0970 C   0  0  0  0  0  0  0  0  0  0  0  0
    5.3980   -0.9400   24.2590 C   0  0  0  0  0  0  0  0  0  0  0  0
  1  2  1  0
  2  3  1  0
  3  4  2  0
  3  5  1  0
  4  6  1  0
  5  7  2  0
  6  8  2  0
  7  8  1  0
  7  9  1  0
  8 10  1  0
  9 11  2  0
 10 11  1  0
  9 12  1  0
 12 13  1  0
 12 14  1  0
 13 15  1  0
 14 16  1  0
 15 17  1  0
 16 17  1  0
 17 18  1  0
 18 19  1  1
 18 20  1  0
 20 21  2  0
 20 22  1  0
 21 23  1  0
 22 24  2  0
 23 25  2  0
 24 25  1  0
M  END
