AUS-ARG-7cfdce8f-3
     RDKit          3D

 22 24  0  0  0  0  0  0  0  0999 V2000
    8.6940    0.1500   28.2080 C   0  0  0  0  0  0  0  0  0  0  0  0
    9.9930    0.0110   27.6630 O   0  0  0  0  0  0  0  0  0  0  0  0
   10.1040   -0.1920   26.3110 C   0  0  0  0  0  0  0  0  0  0  0  0
    8.7670   -0.0630   25.5850 C   0  0  0  0  0  0  0  0  0  0  0  0
   11.4460   -0.5190   25.5090 C   0  0  0  0  0  0  0  0  0  0  0  0
    8.7920   -0.2600   24.0880 C   0  0  0  0  0  0  0  0  0  0  0  0
   11.4210   -0.6990   24.0790 C   0  0  0  0  0  0  0  0  0  0  0  0
   10.1570   -0.5640   23.4820 C   0  0  0  0  0  0  0  0  0  0  0  0
   12.7900   -0.9550   23.8910 C   0  0  0  0  0  0  0  0  0  0  0  0
   12.7950   -1.2810   22.5390 C   0  0  0  0  0  0  0  0  0  0  0  0
   10.4110   -0.7960   22.0060 C   0  0  1  0  0  0  0  0  0  0  0  0
   11.4980   -1.7470   22.1030 C   0  0  0  0  0  0  0  0  0  0  0  0
    9.0030   -1.2360   21.6420 C   0  0  0  0  0  0  0  0  0  0  0  0
    8.7030   -2.3150   22.4460 N   0  0  0  0  0  0  0  0  0  0  0  0
    7.2430   -2.5040   22.5100 C   0  0  0  0  0  0  0  0  0  0  0  0
    6.2440   -1.3470   22.3820 C   0  0  0  0  0  0  0  0  0  0  0  0
    6.4000   -3.7720   22.7100 C   0  0  0  0  0  0  0  0  0  0  0  0
    4.8250   -1.3740   22.7370 N   0  0  0  0  0  0  0  0  0  0  0  0
    5.0070   -3.7240   22.7170 C   0  0  0  0  0  0  0  0  0  0  0  0
    7.0480   -5.4110   22.9340 Cl  0  0  0  0  0  0  0  0  0  0  0  0
    4.4720   -2.5680   23.1940 N   0  0  0  0  0  0  0  0  0  0  0  0
    4.2520   -4.7440   22.2470 O   0  0  0  0  0  0  0  0  0  0  0  0
  1  2  1  0
  2  3  1  0
  3  4  2  0
  3  5  1  0
  4  6  1  0
  5  7  2  0
  6  8  2  0
  7  8  1  0
  7  9  1  0
  9 10  1  0
  8 11  1  0
 10 12  1  0
 11 12  1  0
 11 13  1  1
 13 14  1  0
 14 15  1  0
 15 16  1  0
 15 17  2  0
 16 18  2  0
 17 19  1  0
 17 20  1  0
 18 21  1  0
 19 21  1  0
 19 22  2  0
M  END
