AUS-ARG-7cfdce8f-12
     RDKit          3D

 30 32  0  0  0  0  0  0  0  0999 V2000
    9.5040   -5.9810   26.7310 C   0  0  0  0  0  0  0  0  0  0  0  0
    8.0850   -5.6390   26.4180 C   0  0  0  0  0  0  0  0  0  0  0  0
    7.0680   -6.1630   27.2020 N   0  0  0  0  0  0  0  0  0  0  0  0
    7.5660   -4.8400   25.4110 C   0  0  0  0  0  0  0  0  0  0  0  0
    5.8330   -5.7810   26.7940 N   0  0  0  0  0  0  0  0  0  0  0  0
    6.0690   -4.9210   25.6430 C   0  0  0  0  0  0  0  0  0  0  0  0
    8.4340   -4.1080   24.3650 C   0  0  0  0  0  0  0  0  0  0  0  0
    4.7090   -6.2000   27.4240 C   0  0  0  0  0  0  0  0  0  0  0  0
    5.0450   -4.3120   24.9220 C   0  0  0  0  0  0  0  0  0  0  0  0
    7.9610   -2.6910   24.0080 C   0  0  0  0  0  0  0  0  0  0  0  0
    4.6930   -7.2530   28.5970 C   0  0  0  0  0  0  0  0  0  0  0  0
    3.3700   -5.6540   27.0090 N   0  0  0  0  0  0  0  0  0  0  0  0
    7.1930   -2.0480   24.7240 O   0  0  0  0  0  0  0  0  0  0  0  0
    8.4090   -2.1410   22.8590 N   0  0  0  0  0  0  0  0  0  0  0  0
    3.3090   -7.5970   29.1740 C   0  0  0  0  0  0  0  0  0  0  0  0
    2.1030   -6.0450   27.6200 C   0  0  0  0  0  0  0  0  0  0  0  0
    8.8390   -0.8780   22.7980 C   0  0  2  0  0  0  0  0  0  0  0  0
    2.0890   -6.9460   28.6220 C   0  0  0  0  0  0  0  0  0  0  0  0
    8.4320   -0.2150   21.4800 C   0  0  0  0  0  0  0  0  0  0  0  0
   10.3470   -0.8860   22.7120 C   0  0  0  0  0  0  0  0  0  0  0  0
    0.8410   -7.2800   29.1700 C   0  0  0  0  0  0  0  0  0  0  0  0
   11.1700   -1.8910   22.2680 C   0  0  0  0  0  0  0  0  0  0  0  0
   10.9880    0.2500   23.1120 C   0  0  0  0  0  0  0  0  0  0  0  0
    0.6460   -8.6250   29.2740 F   0  0  0  0  0  0  0  0  0  0  0  0
   -0.2110   -6.8130   28.4430 F   0  0  0  0  0  0  0  0  0  0  0  0
    0.6730   -6.7840   30.4250 F   0  0  0  0  0  0  0  0  0  0  0  0
   12.5350   -1.8700   22.1940 C   0  0  0  0  0  0  0  0  0  0  0  0
   12.3650    0.3420   23.0600 C   0  0  0  0  0  0  0  0  0  0  0  0
   13.1560   -0.7080   22.6080 C   0  0  0  0  0  0  0  0  0  0  0  0
   12.9210    1.4770   23.4420 F   0  0  0  0  0  0  0  0  0  0  0  0
  1  2  1  0
  2  3  2  0
  2  4  1  0
  3  5  1  0
  4  6  2  0
  5  6  1  0
  4  7  1  0
  5  8  1  0
  6  9  1  0
  7 10  1  0
  8 11  2  0
  8 12  1  0
 10 13  2  0
 10 14  1  0
 11 15  1  0
 12 16  2  0
 14 17  1  0
 15 18  2  0
 16 18  1  0
 17 19  1  6
 17 20  1  0
 18 21  1  0
 20 22  2  0
 20 23  1  0
 21 24  1  0
 21 25  1  0
 21 26  1  0
 22 27  1  0
 23 28  2  0
 27 29  2  0
 28 29  1  0
 28 30  1  0
M  END
