AVI-UNI-70b60925-1-chloroacetamide
     RDKit          3D

 26 28  0  0  0  0  0  0  0  0999 V2000
    7.1140   -3.0600   19.0190 C   0  0  0  0  0  0  0  0  0  0  0  0
    6.1490   -3.5290   20.0710 C   0  0  0  0  0  0  0  0  0  0  0  0
    5.2550   -4.3240   19.7940 O   0  0  0  0  0  0  0  0  0  0  0  0
    6.2910   -3.0790   21.3770 N   0  0  0  0  0  0  0  0  0  0  0  0
    6.6550   -4.0110   22.3560 C   0  0  0  0  0  0  0  0  0  0  0  0
    5.7750   -1.8220   21.8890 C   0  0  0  0  0  0  0  0  0  0  0  0
    7.2400   -3.1710   23.4220 C   0  0  0  0  0  0  0  0  0  0  0  0
    6.8500   -0.7280   21.9910 C   0  0  1  0  0  0  0  0  0  0  0  0
    8.3360   -2.4220   22.8660 N   0  0  0  0  0  0  0  0  0  0  0  0
    8.1100   -1.3570   21.8820 C   0  0  0  0  0  0  0  0  0  0  0  0
    6.3500    0.1660   21.0450 C   0  0  0  0  0  0  0  0  0  0  0  0
    9.5180   -2.3860   23.5310 C   0  0  0  0  0  0  0  0  0  0  0  0
    6.8580    0.2270   19.7420 C   0  0  0  0  0  0  0  0  0  0  0  0
    5.2870    1.0300   21.3990 C   0  0  0  0  0  0  0  0  0  0  0  0
   10.1440   -1.1860   23.6490 C   0  0  0  0  0  0  0  0  0  0  0  0
    6.3750    1.0970   18.7530 C   0  0  0  0  0  0  0  0  0  0  0  0
    4.7450    1.9170   20.4810 C   0  0  0  0  0  0  0  0  0  0  0  0
    4.7770    0.9910   22.6690 O   0  0  0  0  0  0  0  0  0  0  0  0
    9.4720    0.0390   24.3360 C   0  0  0  0  0  0  0  0  0  0  0  0
   11.4080   -1.0660   23.1290 C   0  0  0  0  0  0  0  0  0  0  0  0
    6.9370    1.0970   17.5190 O   0  0  0  0  0  0  0  0  0  0  0  0
    5.3170    1.9500   19.0900 C   0  0  0  0  0  0  0  0  0  0  0  0
   10.2090    1.3330   24.4030 C   0  0  0  0  0  0  0  0  0  0  0  0
   12.1100    0.2540   23.2270 C   0  0  0  0  0  0  0  0  0  0  0  0
   11.6000    1.4070   23.8040 C   0  0  0  0  0  0  0  0  0  0  0  0
   13.5960    0.2240   22.5600 Cl  0  0  0  0  0  0  0  0  0  0  0  0
  1  2  1  0
  2  3  2  0
  2  4  1  0
  4  5  1  0
  4  6  1  0
  5  7  1  0
  6  8  1  0
  7  9  1  0
  8 10  1  0
  9 10  1  0
  8 11  1  6
  9 12  1  0
 11 13  2  0
 11 14  1  0
 12 15  1  0
 13 16  1  0
 14 17  2  0
 14 18  1  0
 15 19  2  0
 15 20  1  0
 16 21  1  0
 16 22  2  0
 17 22  1  0
 19 23  1  0
 20 24  2  0
 23 25  2  0
 24 25  1  0
 24 26  1  0
M  END
