AVI-UNI-a66764d4-3-chloroacetamide
     RDKit          3D

 23 25  0  0  0  0  0  0  0  0999 V2000
    7.4280   -3.5260   19.9520 C   0  0  0  0  0  0  0  0  0  0  0  0
    6.9490   -4.4470   21.0730 C   0  0  0  0  0  0  0  0  0  0  0  0
    6.1300   -4.7670   20.0990 O   0  0  0  0  0  0  0  0  0  0  0  0
    8.0180   -3.8360   21.9210 N   0  0  0  0  0  0  0  0  0  0  0  0
    8.3140   -2.4030   21.8330 C   0  0  0  0  0  0  0  0  0  0  0  0
    7.2580   -2.1770   21.1780 N   0  0  0  0  0  0  0  0  0  0  0  0
    9.5000   -1.5470   22.2560 C   0  0  0  0  0  0  0  0  0  0  0  0
    6.9380   -1.0880   20.6510 C   0  0  0  0  0  0  0  0  0  0  0  0
    9.3840   -0.1960   22.6190 C   0  0  0  0  0  0  0  0  0  0  0  0
   10.8820   -2.1390   22.2830 C   0  0  0  0  0  0  0  0  0  0  0  0
    6.3680   -1.3750   19.4810 C   0  0  0  0  0  0  0  0  0  0  0  0
    7.0760    0.2210   21.0740 C   0  0  0  0  0  0  0  0  0  0  0  0
    7.8290    0.6960   22.6460 S   0  0  0  0  0  0  0  0  0  0  0  0
   10.6750    0.5840   23.0190 C   0  0  0  0  0  0  0  0  0  0  0  0
   12.0110   -1.4010   22.6550 C   0  0  0  0  0  0  0  0  0  0  0  0
    5.8780   -0.5050   18.6250 C   0  0  0  0  0  0  0  0  0  0  0  0
    6.5810    1.2320   20.2290 C   0  0  0  0  0  0  0  0  0  0  0  0
   12.0290   -0.1180   23.0170 C   0  0  0  0  0  0  0  0  0  0  0  0
   13.4300   -2.2630   22.6250 Cl  0  0  0  0  0  0  0  0  0  0  0  0
    5.9750    0.9060   19.0040 C   0  0  0  0  0  0  0  0  0  0  0  0
    5.4750    1.7430   18.1070 C   0  0  0  0  0  0  0  0  0  0  0  0
    6.0400    1.5600   16.8180 N   0  0  0  0  0  0  0  0  0  0  0  0
    4.6130    2.5540   18.4070 O   0  0  0  0  0  0  0  0  0  0  0  0
  1  2  1  0
  2  3  2  0
  2  4  1  0
  4  5  1  0
  5  6  2  0
  5  7  1  0
  6  8  1  0
  7  9  2  0
  7 10  1  0
  8 11  2  0
  8 12  1  0
  9 13  1  0
 12 13  1  0
  9 14  1  0
 10 15  2  0
 11 16  1  0
 12 17  2  0
 14 18  2  0
 15 18  1  0
 15 19  1  0
 16 20  2  0
 17 20  1  0
 20 21  1  0
 21 22  1  0
 21 23  2  0
M  END
