AVI-UNI-a66764d4-1-acrylamide
     RDKit          3D

 21 23  0  0  0  0  0  0  0  0999 V2000
    6.6710   -4.3740   20.3030 C   0  0  0  0  0  0  0  0  0  0  0  0
    6.6060   -3.2680   21.3220 C   0  0  0  0  0  0  0  0  0  0  0  0
    6.0640   -3.7600   22.6310 C   0  0  0  0  0  0  0  0  0  0  0  0
    4.9820   -4.0210   21.8890 O   0  0  0  0  0  0  0  0  0  0  0  0
    7.4240   -3.3150   23.0580 N   0  0  0  0  0  0  0  0  0  0  0  0
    8.0890   -2.1820   22.3730 C   0  0  0  0  0  0  0  0  0  0  0  0
    7.0490   -1.9150   21.4560 N   0  0  0  0  0  0  0  0  0  0  0  0
    9.3780   -1.5140   22.5710 C   0  0  0  0  0  0  0  0  0  0  0  0
    6.9150   -0.9770   20.5070 C   0  0  0  0  0  0  0  0  0  0  0  0
    9.4170   -0.1110   22.5910 C   0  0  0  0  0  0  0  0  0  0  0  0
   10.7250   -2.2260   22.7310 C   0  0  0  0  0  0  0  0  0  0  0  0
    6.3880   -1.3300   19.2690 C   0  0  0  0  0  0  0  0  0  0  0  0
    7.2740    0.3450   20.7760 C   0  0  0  0  0  0  0  0  0  0  0  0
    7.9500    0.9060   22.3760 S   0  0  0  0  0  0  0  0  0  0  0  0
   10.7890    0.5990   22.7940 C   0  0  0  0  0  0  0  0  0  0  0  0
   11.9610   -1.5230   22.8970 C   0  0  0  0  0  0  0  0  0  0  0  0
    6.1830   -0.3310   18.2050 C   0  0  0  0  0  0  0  0  0  0  0  0
    7.0670    1.2650   19.7460 C   0  0  0  0  0  0  0  0  0  0  0  0
   12.0850   -0.1890   22.9470 C   0  0  0  0  0  0  0  0  0  0  0  0
   13.3820   -2.4330   23.0390 Cl  0  0  0  0  0  0  0  0  0  0  0  0
    6.5350    0.9410   18.4890 C   0  0  0  0  0  0  0  0  0  0  0  0
  1  2  1  0
  2  3  1  0
  3  4  2  0
  3  5  1  0
  5  6  1  0
  6  7  2  0
  6  8  1  0
  7  9  1  0
  8 10  2  0
  8 11  1  0
  9 12  2  0
  9 13  1  0
 10 14  1  0
 13 14  1  0
 10 15  1  0
 11 16  2  0
 12 17  1  0
 13 18  2  0
 15 19  2  0
 16 19  1  0
 16 20  1  0
 17 21  2  0
 18 21  1  0
M  END
