AVI-UNI-cf069e49-2
     RDKit          3D

 34 39  0  0  0  0  0  0  0  0999 V2000
   12.8330   -1.4010   25.0130 C   0  0  0  0  0  0  0  0  0  0  0  0
   11.4080   -1.0610   24.8160 N   0  0  0  0  0  0  0  0  0  0  0  0
   10.7940   -2.0980   23.9910 C   0  0  0  0  0  0  0  0  0  0  0  0
   11.2900    0.1620   24.0270 C   0  0  2  0  0  0  0  0  0  0  0  0
    9.7460   -1.6400   23.0550 C   0  0  0  0  0  0  0  0  0  0  0  0
   10.0500    0.5820   23.7080 C   0  0  0  0  0  0  0  0  0  0  0  0
   11.9210   -0.2130   22.9450 C   0  0  2  0  0  0  0  0  0  0  0  0
    8.8720   -2.5140   22.5340 C   0  0  0  0  0  0  0  0  0  0  0  0
    9.6310   -0.3270   22.6940 N   0  0  0  0  0  0  0  0  0  0  0  0
   12.3850   -1.6770   22.8240 C   0  0  0  0  0  0  0  0  0  0  0  0
   13.0500    0.6910   22.9060 C   0  0  0  0  0  0  0  0  0  0  0  0
    7.9160   -2.1990   21.6240 C   0  0  0  0  0  0  0  0  0  0  0  0
    8.8430    0.1220   21.6410 C   0  0  0  0  0  0  0  0  0  0  0  0
   12.8730   -1.9340   21.4560 C   0  0  0  0  0  0  0  0  0  0  0  0
   13.7690    0.4410   21.6860 C   0  0  0  0  0  0  0  0  0  0  0  0
    7.1300   -3.2770   21.3300 C   0  0  0  0  0  0  0  0  0  0  0  0
    7.8620   -0.8970   21.0960 C   0  0  0  0  0  0  0  0  0  0  0  0
    8.9120    1.2870   21.1820 O   0  0  0  0  0  0  0  0  0  0  0  0
   13.7260   -0.8560   21.0940 N   0  0  0  0  0  0  0  0  0  0  0  0
   14.4170    1.3460   21.2040 O   0  0  0  0  0  0  0  0  0  0  0  0
    6.0800   -3.4340   20.3650 C   0  0  0  0  0  0  0  0  0  0  0  0
    7.3330   -4.4550   22.0660 O   0  0  0  0  0  0  0  0  0  0  0  0
    7.0050   -0.3640   20.1080 C   0  0  0  0  0  0  0  0  0  0  0  0
    5.6680   -4.8590   20.5470 C   0  0  0  0  0  0  0  0  0  0  0  0
    6.0450   -5.1440   22.0070 C   0  0  0  0  0  0  0  0  0  0  0  0
    7.2710   -0.6500   18.8000 C   0  0  0  0  0  0  0  0  0  0  0  0
    5.8770    0.4570   20.1660 C   0  0  0  0  0  0  0  0  0  0  0  0
    5.2330   -5.5800   19.7110 O   0  0  0  0  0  0  0  0  0  0  0  0
    6.3540   -0.0290   18.0070 O   0  0  0  0  0  0  0  0  0  0  0  0
    5.5040    0.6430   18.8390 C   0  0  0  0  0  0  0  0  0  0  0  0
    5.1130    1.0760   21.1580 C   0  0  0  0  0  0  0  0  0  0  0  0
    4.4700    1.3710   18.4190 N   0  0  0  0  0  0  0  0  0  0  0  0
    4.0220    1.8420   20.7470 C   0  0  0  0  0  0  0  0  0  0  0  0
    3.7320    1.9690   19.3860 C   0  0  0  0  0  0  0  0  0  0  0  0
  1  2  1  0
  2  3  1  0
  2  4  1  0
  3  5  1  0
  4  6  1  6
  4  7  1  0
  5  8  2  0
  5  9  1  0
  6  9  1  0
  7 10  1  1
  7 11  1  0
  8 12  1  0
  9 13  1  0
 10 14  1  0
 11 15  1  0
 12 16  1  0
 12 17  2  0
 13 17  1  0
 13 18  2  0
 14 19  1  0
 15 19  1  0
 15 20  2  0
 16 21  2  0
 16 22  1  0
 17 23  1  0
 21 24  1  0
 22 25  1  0
 24 25  1  0
 23 26  2  0
 23 27  1  0
 24 28  2  0
 26 29  1  0
 27 30  2  0
 29 30  1  0
 27 31  1  0
 30 32  1  0
 31 33  2  0
 32 34  2  0
 33 34  1  0
M  END
