AVI-UNI-a66764d4-1-nitrile
     RDKit          3D

 19 21  0  0  0  0  0  0  0  0999 V2000
    7.3970   -4.1840   20.3270 C   0  0  0  0  0  0  0  0  0  0  0  0
    6.1650   -4.6260   20.0960 N   0  0  0  0  0  0  0  0  0  0  0  0
    7.9390   -3.6980   21.5830 N   0  0  0  0  0  0  0  0  0  0  0  0
    8.2550   -2.2890   21.6270 C   0  0  0  0  0  0  0  0  0  0  0  0
    7.1390   -1.9220   20.9470 N   0  0  0  0  0  0  0  0  0  0  0  0
    9.4880   -1.4710   22.1140 C   0  0  0  0  0  0  0  0  0  0  0  0
    6.8530   -0.7340   20.5360 C   0  0  0  0  0  0  0  0  0  0  0  0
    9.3730   -0.1720   22.6610 C   0  0  0  0  0  0  0  0  0  0  0  0
   10.6650   -2.0350   21.9690 C   0  0  0  0  0  0  0  0  0  0  0  0
    6.2500   -0.6890   19.2920 C   0  0  0  0  0  0  0  0  0  0  0  0
    7.0890    0.5810   21.2670 C   0  0  0  0  0  0  0  0  0  0  0  0
    7.8630    0.6280   22.8910 S   0  0  0  0  0  0  0  0  0  0  0  0
   10.6080    0.6390   23.0940 C   0  0  0  0  0  0  0  0  0  0  0  0
   11.9130   -1.4170   22.3310 C   0  0  0  0  0  0  0  0  0  0  0  0
    5.8660    0.5150   18.7820 C   0  0  0  0  0  0  0  0  0  0  0  0
    6.6930    1.8160   20.7290 C   0  0  0  0  0  0  0  0  0  0  0  0
   11.9560   -0.0250   22.9220 C   0  0  0  0  0  0  0  0  0  0  0  0
   13.3020   -2.2740   22.0730 Cl  0  0  0  0  0  0  0  0  0  0  0  0
    6.0150    1.7280   19.3670 C   0  0  0  0  0  0  0  0  0  0  0  0
  1  2  2  3
  1  3  1  0
  3  4  1  0
  4  5  2  0
  4  6  1  0
  5  7  1  0
  6  8  2  0
  6  9  1  0
  7 10  2  0
  7 11  1  0
  8 12  1  0
 11 12  1  0
  8 13  1  0
  9 14  2  0
 10 15  1  0
 11 16  2  0
 13 17  2  0
 14 17  1  0
 14 18  1  0
 15 19  2  0
 16 19  1  0
M  END
