AVI-UNI-70b60925-1-bromoalkyne
     RDKit          3D

 25 27  0  0  0  0  0  0  0  0999 V2000
    6.7450   -3.4860   19.7700 C   0  0  0  0  0  0  0  0  0  0  0  0
    5.7620   -2.9510   18.8040 C   0  0  0  0  0  0  0  0  0  0  0  0
    6.5230   -3.3920   21.1600 N   0  0  0  0  0  0  0  0  0  0  0  0
    6.8900   -4.3020   22.1640 C   0  0  0  0  0  0  0  0  0  0  0  0
    5.7830   -2.2660   21.7160 C   0  0  0  0  0  0  0  0  0  0  0  0
    7.3300   -3.4280   23.2910 C   0  0  0  0  0  0  0  0  0  0  0  0
    6.6310   -1.0020   21.9130 C   0  0  1  0  0  0  0  0  0  0  0  0
    8.3290   -2.4830   22.8430 N   0  0  0  0  0  0  0  0  0  0  0  0
    7.9970   -1.3780   21.9340 C   0  0  0  0  0  0  0  0  0  0  0  0
    6.1050   -0.1940   20.9040 C   0  0  0  0  0  0  0  0  0  0  0  0
    9.5660   -2.4510   23.4320 C   0  0  0  0  0  0  0  0  0  0  0  0
    6.8550    0.0870   19.7760 C   0  0  0  0  0  0  0  0  0  0  0  0
    4.7950    0.3530   20.9940 C   0  0  0  0  0  0  0  0  0  0  0  0
   10.1950   -1.2330   23.5710 C   0  0  0  0  0  0  0  0  0  0  0  0
    6.4080    0.8790   18.7190 C   0  0  0  0  0  0  0  0  0  0  0  0
    4.2720    1.1500   19.9760 C   0  0  0  0  0  0  0  0  0  0  0  0
    4.0280    0.0940   22.0990 O   0  0  0  0  0  0  0  0  0  0  0  0
    9.5270   -0.0470   24.3300 C   0  0  0  0  0  0  0  0  0  0  0  0
   11.4490   -1.0600   23.0120 C   0  0  0  0  0  0  0  0  0  0  0  0
    7.2420    1.0870   17.6810 O   0  0  0  0  0  0  0  0  0  0  0  0
    5.1270    1.4330   18.7640 C   0  0  0  0  0  0  0  0  0  0  0  0
   10.2410    1.2640   24.4300 C   0  0  0  0  0  0  0  0  0  0  0  0
   12.1340    0.2860   23.1420 C   0  0  0  0  0  0  0  0  0  0  0  0
   11.6080    1.3920   23.7870 C   0  0  0  0  0  0  0  0  0  0  0  0
   13.6160    0.3820   22.4310 Cl  0  0  0  0  0  0  0  0  0  0  0  0
  1  2  2  3
  1  3  1  0
  3  4  1  0
  3  5  1  0
  4  6  1  0
  5  7  1  0
  6  8  1  0
  7  9  1  0
  8  9  1  0
  7 10  1  6
  8 11  1  0
 10 12  2  0
 10 13  1  0
 11 14  1  0
 12 15  1  0
 13 16  2  0
 13 17  1  0
 14 18  2  0
 14 19  1  0
 15 20  1  0
 15 21  2  0
 16 21  1  0
 18 22  1  0
 19 23  2  0
 22 24  2  0
 23 24  1  0
 23 25  1  0
M  END
