AVI-UNI-70b60925-1-acrylamide
     RDKit          3D

 27 29  0  0  0  0  0  0  0  0999 V2000
    7.5120   -2.6890   18.6710 C   0  0  0  0  0  0  0  0  0  0  0  0
    6.0810   -2.8830   19.0770 C   0  0  0  0  0  0  0  0  0  0  0  0
    5.8610   -3.6710   20.3110 C   0  0  0  0  0  0  0  0  0  0  0  0
    5.2390   -4.7230   20.1650 O   0  0  0  0  0  0  0  0  0  0  0  0
    6.3580   -3.1670   21.5210 N   0  0  0  0  0  0  0  0  0  0  0  0
    7.3320   -3.8230   22.2360 C   0  0  0  0  0  0  0  0  0  0  0  0
    5.9050   -1.8300   21.9380 C   0  0  0  0  0  0  0  0  0  0  0  0
    7.5230   -3.0040   23.3330 C   0  0  0  0  0  0  0  0  0  0  0  0
    6.9560   -0.7030   21.8670 C   0  0  1  0  0  0  0  0  0  0  0  0
    8.5210   -2.1110   23.0340 N   0  0  0  0  0  0  0  0  0  0  0  0
    8.2680   -1.2320   21.8700 C   0  0  0  0  0  0  0  0  0  0  0  0
    6.4400    0.1840   20.9240 C   0  0  0  0  0  0  0  0  0  0  0  0
    9.8500   -2.3350   23.3210 C   0  0  0  0  0  0  0  0  0  0  0  0
    6.2290   -0.2110   19.6000 C   0  0  0  0  0  0  0  0  0  0  0  0
    6.0780    1.5160   21.2530 C   0  0  0  0  0  0  0  0  0  0  0  0
   10.6130   -0.9790   23.3740 C   0  0  0  0  0  0  0  0  0  0  0  0
    5.6860    0.6130   18.6190 C   0  0  0  0  0  0  0  0  0  0  0  0
    5.5340    2.3530   20.2760 C   0  0  0  0  0  0  0  0  0  0  0  0
    6.2520    1.9820   22.5270 O   0  0  0  0  0  0  0  0  0  0  0  0
   12.0690   -1.0210   23.0120 C   0  0  0  0  0  0  0  0  0  0  0  0
   10.0020    0.2290   23.7160 C   0  0  0  0  0  0  0  0  0  0  0  0
    5.5230    0.0570   17.3240 O   0  0  0  0  0  0  0  0  0  0  0  0
    5.3420    1.8970   18.9830 C   0  0  0  0  0  0  0  0  0  0  0  0
   12.8850    0.2610   23.0210 C   0  0  0  0  0  0  0  0  0  0  0  0
   10.7300    1.4200   23.7160 C   0  0  0  0  0  0  0  0  0  0  0  0
   12.2360    1.4410   23.3590 C   0  0  0  0  0  0  0  0  0  0  0  0
    9.9090    2.8740   24.1000 Cl  0  0  0  0  0  0  0  0  0  0  0  0
  1  2  1  0
  2  3  1  0
  3  4  2  0
  3  5  1  0
  5  6  1  0
  5  7  1  0
  6  8  1  0
  7  9  1  0
  8 10  1  0
  9 11  1  0
 10 11  1  0
  9 12  1  6
 10 13  1  0
 12 14  2  0
 12 15  1  0
 13 16  1  0
 14 17  1  0
 15 18  2  0
 15 19  1  0
 16 20  2  0
 16 21  1  0
 17 22  1  0
 17 23  2  0
 18 23  1  0
 20 24  1  0
 21 25  2  0
 24 26  2  0
 25 26  1  0
 25 27  1  0
M  END
