AVI-UNI-a66764d4-3-acrylamide
     RDKit          3D

 24 26  0  0  0  0  0  0  0  0999 V2000
    7.5100   -5.4380   21.2060 C   0  0  0  0  0  0  0  0  0  0  0  0
    6.1840   -5.4680   21.8450 C   0  0  0  0  0  0  0  0  0  0  0  0
    5.9670   -4.0930   22.3590 C   0  0  0  0  0  0  0  0  0  0  0  0
    4.7870   -3.6420   21.9940 O   0  0  0  0  0  0  0  0  0  0  0  0
    7.1500   -3.5470   23.1350 N   0  0  0  0  0  0  0  0  0  0  0  0
    7.9690   -2.4270   22.5850 C   0  0  0  0  0  0  0  0  0  0  0  0
    6.9100   -2.1300   21.7560 N   0  0  0  0  0  0  0  0  0  0  0  0
    9.3200   -1.6930   22.7210 C   0  0  0  0  0  0  0  0  0  0  0  0
    6.6850   -1.1860   20.8870 C   0  0  0  0  0  0  0  0  0  0  0  0
    9.3330   -0.2690   22.7820 C   0  0  0  0  0  0  0  0  0  0  0  0
   10.5520   -2.3470   22.7600 C   0  0  0  0  0  0  0  0  0  0  0  0
    6.0710   -1.5290   19.7060 C   0  0  0  0  0  0  0  0  0  0  0  0
    7.0230    0.1480   21.1660 C   0  0  0  0  0  0  0  0  0  0  0  0
    7.8230    0.6810   22.7090 S   0  0  0  0  0  0  0  0  0  0  0  0
   10.6470    0.5590   22.9050 C   0  0  0  0  0  0  0  0  0  0  0  0
   11.8890   -1.5850   22.8660 C   0  0  0  0  0  0  0  0  0  0  0  0
    5.7200   -0.5360   18.7110 C   0  0  0  0  0  0  0  0  0  0  0  0
    6.6430    1.1750   20.1050 C   0  0  0  0  0  0  0  0  0  0  0  0
   11.9330   -0.1960   22.9410 C   0  0  0  0  0  0  0  0  0  0  0  0
   13.3580   -2.4190   22.8920 Cl  0  0  0  0  0  0  0  0  0  0  0  0
    5.9990    0.7620   18.9350 C   0  0  0  0  0  0  0  0  0  0  0  0
    5.5860    1.6510   17.8870 C   0  0  0  0  0  0  0  0  0  0  0  0
    6.1630    1.5940   16.7250 N   0  0  0  0  0  0  0  0  0  0  0  0
    4.6860    2.4580   18.0890 O   0  0  0  0  0  0  0  0  0  0  0  0
  1  2  1  0
  2  3  1  0
  3  4  2  0
  3  5  1  0
  5  6  1  0
  6  7  2  0
  6  8  1  0
  7  9  1  0
  8 10  2  0
  8 11  1  0
  9 12  2  0
  9 13  1  0
 10 14  1  0
 13 14  1  0
 10 15  1  0
 11 16  2  0
 12 17  1  0
 13 18  2  0
 15 19  2  0
 16 19  1  0
 16 20  1  0
 17 21  2  0
 18 21  1  0
 21 22  1  0
 22 23  1  0
 22 24  2  0
M  END
