BAR-COM-4e090d3a-47
     RDKit          3D

 26 28  0  0  0  0  0  0  0  0999 V2000
    6.1590   -6.8850   22.5200 C   0  0  0  0  0  0  0  0  0  0  0  0
    6.7530   -5.7060   23.0520 N   0  0  0  0  0  0  0  0  0  0  0  0
    6.1350   -4.5590   23.4000 C   0  0  0  0  0  0  0  0  0  0  0  0
    8.0790   -5.6550   23.2610 N   0  0  0  0  0  0  0  0  0  0  0  0
    7.2730   -3.6990   23.8910 C   0  0  0  0  0  0  0  0  0  0  0  0
    8.4030   -4.4660   23.7610 N   0  0  0  0  0  0  0  0  0  0  0  0
    7.1800   -2.3200   24.4050 C   0  0  0  0  0  0  0  0  0  0  0  0
    6.3480   -1.5190   23.5230 N   0  0  0  0  0  0  0  0  0  0  0  0
    6.3260   -1.7100   22.1590 C   0  0  0  0  0  0  0  0  0  0  0  0
    5.8420   -2.7200   21.6500 O   0  0  0  0  0  0  0  0  0  0  0  0
    6.8650   -0.6750   21.3980 N   0  0  0  0  0  0  0  0  0  0  0  0
    8.3100   -0.4520   21.4590 C   0  0  0  0  0  0  0  0  0  0  0  0
    6.0830    0.4580   20.9140 C   0  0  0  0  0  0  0  0  0  0  0  0
    9.0220   -1.2070   22.6200 C   0  0  0  0  0  0  0  0  0  0  0  0
    5.6980    1.3610   21.9110 C   0  0  0  0  0  0  0  0  0  0  0  0
   10.4020   -0.6590   22.7930 C   0  0  0  0  0  0  0  0  0  0  0  0
    4.9690    0.9440   23.0310 C   0  0  0  0  0  0  0  0  0  0  0  0
    6.0240    2.7190   21.8330 C   0  0  0  0  0  0  0  0  0  0  0  0
   11.6350   -1.3280   22.1990 C   0  0  0  0  0  0  0  0  0  0  0  0
   10.5690    0.5150   23.5190 C   0  0  0  0  0  0  0  0  0  0  0  0
    4.6050    1.8880   24.0030 C   0  0  0  0  0  0  0  0  0  0  0  0
    5.6850    3.6500   22.7620 N   0  0  0  0  0  0  0  0  0  0  0  0
   12.8670   -0.7380   22.3960 C   0  0  0  0  0  0  0  0  0  0  0  0
   11.8320    1.0550   23.6750 C   0  0  0  0  0  0  0  0  0  0  0  0
    4.9810    3.2180   23.8290 C   0  0  0  0  0  0  0  0  0  0  0  0
   12.9520    0.4420   23.1210 C   0  0  0  0  0  0  0  0  0  0  0  0
  1  2  1  0
  2  3  1  0
  2  4  1  0
  3  5  2  0
  4  6  2  0
  5  6  1  0
  5  7  1  0
  7  8  1  0
  8  9  1  0
  9 10  2  0
  9 11  1  0
 11 12  1  0
 11 13  1  0
 12 14  1  0
 13 15  1  0
 14 16  1  0
 15 17  2  0
 15 18  1  0
 16 19  2  0
 16 20  1  0
 17 21  1  0
 18 22  2  0
 19 23  1  0
 20 24  2  0
 21 25  2  0
 22 25  1  0
 23 26  2  0
 24 26  1  0
M  END
