BAR-COM-4e090d3a-65
     RDKit          3D

 22 24  0  0  0  0  0  0  0  0999 V2000
    7.5600    0.4460   24.3390 O   0  0  0  0  0  0  0  0  0  0  0  0
    8.1890    0.6140   23.2980 C   0  0  0  0  0  0  0  0  0  0  0  0
    7.6490    0.3440   21.9810 N   0  0  0  0  0  0  0  0  0  0  0  0
    9.5880    1.1300   23.2870 C   0  0  0  0  0  0  0  0  0  0  0  0
    6.5000   -0.3070   21.6390 C   0  0  0  0  0  0  0  0  0  0  0  0
    9.7910    2.4480   22.4630 C   0  0  0  0  0  0  0  0  0  0  0  0
   10.6730    0.5260   23.9360 C   0  0  0  0  0  0  0  0  0  0  0  0
    6.1540    0.1710   20.2350 C   0  0  0  0  0  0  0  0  0  0  0  0
   11.2040    2.9930   22.4050 C   0  0  0  0  0  0  0  0  0  0  0  0
   12.0630    1.1370   23.8060 C   0  0  0  0  0  0  0  0  0  0  0  0
   10.5250   -0.4770   24.6000 O   0  0  0  0  0  0  0  0  0  0  0  0
    5.0070    0.7800   19.6060 C   0  0  0  0  0  0  0  0  0  0  0  0
    7.0710    0.0720   19.1490 O   0  0  0  0  0  0  0  0  0  0  0  0
   12.3470    2.2850   23.0980 C   0  0  0  0  0  0  0  0  0  0  0  0
   11.1630   -1.6120   24.0450 C   0  0  0  0  0  0  0  0  0  0  0  0
    5.1820    1.0340   18.2960 C   0  0  0  0  0  0  0  0  0  0  0  0
    6.4590    0.5980   17.9810 N   0  0  0  0  0  0  0  0  0  0  0  0
   12.5480   -1.4010   23.9960 C   0  0  0  0  0  0  0  0  0  0  0  0
   10.4690   -1.8250   22.8650 C   0  0  0  0  0  0  0  0  0  0  0  0
   13.2770   -1.8790   22.9050 C   0  0  0  0  0  0  0  0  0  0  0  0
   11.2090   -2.1780   21.7560 C   0  0  0  0  0  0  0  0  0  0  0  0
   12.5670   -2.4370   21.8410 C   0  0  0  0  0  0  0  0  0  0  0  0
  1  2  2  0
  2  3  1  0
  2  4  1  0
  3  5  1  0
  4  6  2  0
  4  7  1  0
  5  8  1  0
  6  9  1  0
  7 10  2  0
  7 11  1  0
  8 12  2  0
  8 13  1  0
  9 14  2  0
 10 14  1  0
 11 15  1  0
 12 16  1  0
 13 17  1  0
 16 17  2  0
 15 18  1  0
 15 19  1  0
 18 20  1  0
 19 21  1  0
 20 22  1  0
 21 22  1  0
M  END
