BAR-COM-4e090d3a-44
     RDKit          3D

 26 28  0  0  0  0  0  0  0  0999 V2000
    9.6690    6.0220   25.4200 C   0  0  0  0  0  0  0  0  0  0  0  0
   10.4290    5.0380   24.5360 C   0  0  2  0  0  0  0  0  0  0  0  0
   11.6380    5.6730   23.8540 C   0  0  0  0  0  0  0  0  0  0  0  0
    9.5380    4.3670   23.5000 C   0  0  0  0  0  0  0  0  0  0  0  0
   12.4220    4.7080   22.9450 C   0  0  2  0  0  0  0  0  0  0  0  0
   10.2630    3.2560   22.8880 N   0  0  0  0  0  0  0  0  0  0  0  0
   13.1940    5.4710   21.8850 C   0  0  0  0  0  0  0  0  0  0  0  0
   11.5880    3.5650   22.3130 C   0  0  0  0  0  0  0  0  0  0  0  0
    9.9380    1.9130   23.1660 C   0  0  0  0  0  0  0  0  0  0  0  0
    8.8540    1.6030   23.6590 O   0  0  0  0  0  0  0  0  0  0  0  0
   10.8650    0.8930   22.9420 C   0  0  0  0  0  0  0  0  0  0  0  0
   12.1960    1.1860   23.1860 C   0  0  0  0  0  0  0  0  0  0  0  0
   10.4860   -0.3870   22.4830 C   0  0  0  0  0  0  0  0  0  0  0  0
   13.1720    0.2550   22.9900 C   0  0  0  0  0  0  0  0  0  0  0  0
   11.4480   -1.3640   22.2770 C   0  0  0  0  0  0  0  0  0  0  0  0
    9.1470   -0.6080   22.2480 N   0  0  0  0  0  0  0  0  0  0  0  0
   12.8920   -1.0130   22.5520 C   0  0  0  0  0  0  0  0  0  0  0  0
    8.3410    0.2140   21.5240 C   0  0  0  0  0  0  0  0  0  0  0  0
    8.6200    1.2830   20.9780 O   0  0  0  0  0  0  0  0  0  0  0  0
    7.1090   -0.3360   21.5180 N   0  0  0  0  0  0  0  0  0  0  0  0
    6.5990   -0.8440   22.7660 C   0  0  0  0  0  0  0  0  0  0  0  0
    6.0150   -2.1360   22.4340 C   0  0  0  0  0  0  0  0  0  0  0  0
    6.2330   -3.4260   22.9860 C   0  0  0  0  0  0  0  0  0  0  0  0
    5.0950   -2.2790   21.4570 C   0  0  0  0  0  0  0  0  0  0  0  0
    5.4090   -4.2760   22.2880 C   0  0  0  0  0  0  0  0  0  0  0  0
    4.7030   -3.5850   21.3490 O   0  0  0  0  0  0  0  0  0  0  0  0
  2  1  1  6
  2  3  1  0
  2  4  1  0
  3  5  1  0
  4  6  1  0
  5  7  1  6
  5  8  1  0
  6  8  1  0
  6  9  1  0
  9 10  2  0
  9 11  1  0
 11 12  2  0
 11 13  1  0
 12 14  1  0
 13 15  2  0
 13 16  1  0
 14 17  2  0
 15 17  1  0
 16 18  1  0
 18 19  2  0
 18 20  1  0
 20 21  1  0
 21 22  1  0
 22 23  1  0
 22 24  2  0
 23 25  2  0
 24 26  1  0
 25 26  1  0
M  END
