BAR-COM-4e090d3a-56
     RDKit          3D

 25 27  0  0  0  0  0  0  0  0999 V2000
    8.8150    1.1540   21.2200 O   0  0  0  0  0  0  0  0  0  0  0  0
    8.1300    0.2150   21.6700 C   0  0  0  0  0  0  0  0  0  0  0  0
    7.1010   -0.4400   20.9340 N   0  0  0  0  0  0  0  0  0  0  0  0
    8.2390   -0.3260   22.9220 N   0  0  0  0  0  0  0  0  0  0  0  0
    6.5200    0.0780   19.8490 C   0  0  0  0  0  0  0  0  0  0  0  0
    9.5460   -0.6190   23.4150 C   0  0  1  0  0  0  0  0  0  0  0  0
    5.2310    0.7730   20.1740 C   0  0  0  0  0  0  0  0  0  0  0  0
    6.9210    0.0650   18.5600 C   0  0  0  0  0  0  0  0  0  0  0  0
   10.5150   -0.4000   22.2550 C   0  0  0  0  0  0  0  0  0  0  0  0
    9.9050    0.4760   24.4230 C   0  0  0  0  0  0  0  0  0  0  0  0
    4.4340    1.4240   19.1250 C   0  0  0  0  0  0  0  0  0  0  0  0
    6.1830    0.6750   17.5640 N   0  0  0  0  0  0  0  0  0  0  0  0
   11.6200   -1.2510   22.6860 C   0  0  0  0  0  0  0  0  0  0  0  0
    9.1850    0.6970   25.4040 O   0  0  0  0  0  0  0  0  0  0  0  0
   11.0550    1.1730   24.1680 N   0  0  0  0  0  0  0  0  0  0  0  0
    5.0300    1.3100   17.8020 N   0  0  0  0  0  0  0  0  0  0  0  0
   12.0820   -1.3420   24.1540 C   0  0  0  0  0  0  0  0  0  0  0  0
   12.2500   -2.0060   21.7340 C   0  0  0  0  0  0  0  0  0  0  0  0
   12.3040    0.5420   23.8870 C   0  0  0  0  0  0  0  0  0  0  0  0
   10.9510    2.4470   23.4680 C   0  0  0  0  0  0  0  0  0  0  0  0
   13.1230   -2.1750   24.4390 C   0  0  0  0  0  0  0  0  0  0  0  0
   13.2640   -2.8100   22.0880 C   0  0  0  0  0  0  0  0  0  0  0  0
   12.7720    1.2890   22.8420 C   0  0  0  0  0  0  0  0  0  0  0  0
   12.2790    2.6040   22.7490 C   0  0  0  0  0  0  0  0  0  0  0  0
   13.6810   -2.8770   23.4060 C   0  0  0  0  0  0  0  0  0  0  0  0
  1  2  2  0
  2  3  1  0
  2  4  1  0
  3  5  1  0
  4  6  1  0
  5  7  2  0
  5  8  1  0
  6  9  1  6
  6 10  1  0
  7 11  1  0
  8 12  2  0
  9 13  1  0
 10 14  2  0
 10 15  1  0
 11 16  2  0
 12 16  1  0
 13 17  2  0
 13 18  1  0
 15 19  1  0
 15 20  1  0
 17 21  1  0
 18 22  2  0
 19 23  1  0
 20 24  1  0
 23 24  1  0
 21 25  2  0
 22 25  1  0
M  END
