BAR-COM-4e090d3a-68
     RDKit          3D

 22 24  0  0  0  0  0  0  0  0999 V2000
    8.2570    0.9610   20.9480 O   0  0  0  0  0  0  0  0  0  0  0  0
    7.8250    0.0730   21.6700 C   0  0  0  0  0  0  0  0  0  0  0  0
    8.3240   -0.1280   22.9700 N   0  0  0  0  0  0  0  0  0  0  0  0
    6.7170   -0.8370   21.1540 C   0  0  1  0  0  0  0  0  0  0  0  0
    9.6180    0.0350   23.0840 C   0  0  0  0  0  0  0  0  0  0  0  0
    5.8550   -0.9910   22.0090 O   0  0  0  0  0  0  0  0  0  0  0  0
    6.1410   -0.0770   20.0380 C   0  0  0  0  0  0  0  0  0  0  0  0
   10.1010    1.2470   23.7600 C   0  0  0  0  0  0  0  0  0  0  0  0
   10.4780   -0.8270   22.5930 C   0  0  0  0  0  0  0  0  0  0  0  0
    4.9700    0.6660   20.1000 C   0  0  0  0  0  0  0  0  0  0  0  0
    6.7930   -0.0600   18.8210 C   0  0  0  0  0  0  0  0  0  0  0  0
   11.5300    1.4740   23.8630 C   0  0  0  0  0  0  0  0  0  0  0  0
   11.8020   -0.5930   22.7130 C   0  0  0  0  0  0  0  0  0  0  0  0
    4.4540    1.3940   19.0480 C   0  0  0  0  0  0  0  0  0  0  0  0
    6.3480    0.6340   17.7270 N   0  0  0  0  0  0  0  0  0  0  0  0
   12.3690    0.5210   23.3280 C   0  0  0  0  0  0  0  0  0  0  0  0
   12.4220   -1.7370   22.0530 C   0  0  0  0  0  0  0  0  0  0  0  0
    5.1710    1.3600   17.8660 C   0  0  0  0  0  0  0  0  0  0  0  0
   13.4150   -2.5470   22.6640 C   0  0  0  0  0  0  0  0  0  0  0  0
   12.0890   -2.1420   20.8220 N   0  0  0  0  0  0  0  0  0  0  0  0
   13.6210   -3.5040   21.5630 C   0  0  0  0  0  0  0  0  0  0  0  0
   12.8190   -3.1910   20.5590 N   0  0  0  0  0  0  0  0  0  0  0  0
  1  2  2  0
  2  3  1  0
  2  4  1  0
  3  5  1  0
  4  6  1  1
  4  7  1  0
  5  8  2  0
  5  9  1  0
  7 10  2  0
  7 11  1  0
  8 12  1  0
  9 13  2  0
 10 14  1  0
 11 15  2  0
 12 16  2  0
 13 16  1  0
 13 17  1  0
 14 18  2  0
 15 18  1  0
 17 19  1  0
 17 20  2  0
 19 21  2  0
 20 22  1  0
 21 22  1  0
M  END
