BAR-COM-4e090d3a-49-vinylsulfonamide
     RDKit          3D

 22 23  0  0  0  0  0  0  0  0999 V2000
    6.8870   -5.4220   20.9740 C   0  0  0  0  0  0  0  0  0  0  0  0
    7.2760   -4.7930   22.2960 C   0  0  0  0  0  0  0  0  0  0  0  0
    6.0040   -3.6950   22.8340 S   0  0  0  0  0  0  0  0  0  0  0  0
    4.8910   -3.7590   21.8750 O   0  0  0  0  0  0  0  0  0  0  0  0
    5.7700   -3.9950   24.2350 O   0  0  0  0  0  0  0  0  0  0  0  0
    6.8940   -2.1150   22.7290 C   0  0  0  0  0  0  0  0  0  0  0  0
    7.9860   -1.9790   23.6970 O   0  0  0  0  0  0  0  0  0  0  0  0
    9.0310   -1.0740   23.4400 C   0  0  0  0  0  0  0  0  0  0  0  0
   10.1500   -1.8210   23.3830 C   0  0  0  0  0  0  0  0  0  0  0  0
    8.3130    0.0690   23.3900 C   0  0  0  0  0  0  0  0  0  0  0  0
    9.9010   -3.1120   23.5940 C   0  0  0  0  0  0  0  0  0  0  0  0
    8.0340   -1.3220   23.6210 C   0  0  0  0  0  0  0  0  0  0  0  0
    7.0410    0.6200   23.4950 C   0  0  0  0  0  0  0  0  0  0  0  0
    9.4180   -1.5780   23.4550 C   0  0  0  0  0  0  0  0  0  0  0  0
    7.1280    0.2240   24.6550 O   0  0  0  0  0  0  0  0  0  0  0  0
    7.3770    0.8790   22.1500 N   0  0  0  0  0  0  0  0  0  0  0  0
    6.9390    1.9270   21.3950 C   0  0  0  0  0  0  0  0  0  0  0  0
    6.3550    1.3270   20.1690 C   0  0  0  0  0  0  0  0  0  0  0  0
    6.7420    0.0810   19.6460 C   0  0  0  0  0  0  0  0  0  0  0  0
    5.3700    1.8760   19.3720 C   0  0  0  0  0  0  0  0  0  0  0  0
    6.1340   -0.3370   18.5440 N   0  0  0  0  0  0  0  0  0  0  0  0
    5.0360    0.8120   18.0830 S   0  0  0  0  0  0  0  0  0  0  0  0
  1  2  1  0
  3  2  1  0
  3  4  2  0
  3  5  2  0
  3  6  1  0
  6  7  1  0
  7  8  1  0
  8  9  2  0
  8 10  1  0
  9 11  1  0
 10 12  2  0
 10 13  1  0
 11 14  2  0
 12 14  1  0
 13 15  2  0
 13 16  1  0
 16 17  1  0
 17 18  1  0
 18 19  1  0
 18 20  2  0
 19 21  2  0
 20 22  1  0
 21 22  1  0
M  END
