BAR-COM-4e090d3a-19
     RDKit          3D

 28 30  0  0  0  0  0  0  0  0999 V2000
    7.7630    1.4300   23.1350 O   0  0  0  0  0  0  0  0  0  0  0  0
    8.5100    1.5510   22.1640 C   0  0  0  0  0  0  0  0  0  0  0  0
    8.9730    0.4940   21.4160 N   0  0  0  0  0  0  0  0  0  0  0  0
    9.0020    2.7100   21.6680 O   0  0  0  0  0  0  0  0  0  0  0  0
    8.6050   -0.8930   21.6290 C   0  0  1  0  0  0  0  0  0  0  0  0
    9.1160    3.7870   22.6240 C   0  0  0  0  0  0  0  0  0  0  0  0
    9.1430   -1.3830   22.8180 C   0  0  0  0  0  0  0  0  0  0  0  0
    7.0960   -1.1380   21.4870 C   0  0  0  0  0  0  0  0  0  0  0  0
   10.4430    4.2640   22.6890 C   0  0  0  0  0  0  0  0  0  0  0  0
   10.3870   -0.8100   22.9730 C   0  0  0  0  0  0  0  0  0  0  0  0
    6.4630   -1.9650   22.1450 O   0  0  0  0  0  0  0  0  0  0  0  0
    6.5650   -0.3330   20.5380 N   0  0  0  0  0  0  0  0  0  0  0  0
   11.5380    3.3970   22.5910 C   0  0  0  0  0  0  0  0  0  0  0  0
   10.6890    5.6430   22.8530 C   0  0  0  0  0  0  0  0  0  0  0  0
   11.5000   -1.3730   22.2990 C   0  0  0  0  0  0  0  0  0  0  0  0
   10.5190    0.3230   23.7770 C   0  0  0  0  0  0  0  0  0  0  0  0
    5.4180   -0.5740   19.8940 C   0  0  0  0  0  0  0  0  0  0  0  0
   12.8390    3.8870   22.6510 C   0  0  0  0  0  0  0  0  0  0  0  0
   12.0010    6.1260   22.9140 C   0  0  0  0  0  0  0  0  0  0  0  0
   12.7970   -0.8360   22.3830 C   0  0  0  0  0  0  0  0  0  0  0  0
   11.7560    0.8610   23.8690 C   0  0  0  0  0  0  0  0  0  0  0  0
    5.3500    0.3760   18.8100 C   0  0  0  0  0  0  0  0  0  0  0  0
   13.0770    5.2480   22.8110 C   0  0  0  0  0  0  0  0  0  0  0  0
   12.9510    0.2920   23.1610 C   0  0  0  0  0  0  0  0  0  0  0  0
    4.5130    1.4250   18.4030 C   0  0  0  0  0  0  0  0  0  0  0  0
    6.3580    0.2870   17.9320 O   0  0  0  0  0  0  0  0  0  0  0  0
    5.0810    1.9200   17.2990 C   0  0  0  0  0  0  0  0  0  0  0  0
    6.1900    1.2500   16.9970 N   0  0  0  0  0  0  0  0  0  0  0  0
  1  2  2  0
  2  3  1  0
  2  4  1  0
  3  5  1  0
  4  6  1  0
  5  7  1  1
  5  8  1  0
  6  9  1  0
  7 10  1  0
  8 11  2  0
  8 12  1  0
  9 13  2  0
  9 14  1  0
 10 15  2  0
 10 16  1  0
 12 17  1  0
 13 18  1  0
 14 19  2  0
 15 20  1  0
 16 21  2  0
 17 22  1  0
 18 23  2  0
 19 23  1  0
 20 24  2  0
 21 24  1  0
 22 25  2  0
 22 26  1  0
 25 27  1  0
 26 28  1  0
 27 28  2  0
M  END
