BAR-COM-4e090d3a-54
     RDKit          3D

 26 28  0  0  0  0  0  0  0  0999 V2000
    8.7880    0.9540   21.3160 O   0  0  0  0  0  0  0  0  0  0  0  0
    8.4240   -0.1950   21.5390 C   0  0  0  0  0  0  0  0  0  0  0  0
    7.1040   -0.6460   21.2350 N   0  0  0  0  0  0  0  0  0  0  0  0
    9.2130   -1.1640   22.0950 N   0  0  0  0  0  0  0  0  0  0  0  0
    6.6390   -0.8610   19.9910 C   0  0  0  0  0  0  0  0  0  0  0  0
   10.4990   -0.9230   22.5540 C   0  0  0  0  0  0  0  0  0  0  0  0
    5.6710    0.2270   19.6280 C   0  0  0  0  0  0  0  0  0  0  0  0
   10.8410    0.5060   22.8570 C   0  0  0  0  0  0  0  0  0  0  0  0
   11.4490   -1.9610   22.7320 C   0  0  0  0  0  0  0  0  0  0  0  0
    5.7350    0.9000   18.3620 C   0  0  0  0  0  0  0  0  0  0  0  0
    4.6990    0.5870   20.5100 N   0  0  0  0  0  0  0  0  0  0  0  0
   12.2250    0.8100   23.3480 C   0  0  0  0  0  0  0  0  0  0  0  0
   12.7490   -1.6960   23.2110 C   0  0  0  0  0  0  0  0  0  0  0  0
    4.8900    1.8450   18.0250 C   0  0  0  0  0  0  0  0  0  0  0  0
    3.8240    1.5540   20.1850 N   0  0  0  0  0  0  0  0  0  0  0  0
   13.0850   -0.2420   23.5030 C   0  0  0  0  0  0  0  0  0  0  0  0
   13.6090   -2.6320   23.4000 O   0  0  0  0  0  0  0  0  0  0  0  0
    3.9050    2.1850   18.9570 C   0  0  0  0  0  0  0  0  0  0  0  0
   13.7990   -3.0070   24.8230 C   0  0  0  0  0  0  0  0  0  0  0  0
   14.9660   -3.7480   25.3420 C   0  0  0  0  0  0  0  0  0  0  0  0
   15.6870   -4.8710   24.8160 N   0  0  0  0  0  0  0  0  0  0  0  0
   16.7960   -4.7290   23.9350 C   0  0  0  0  0  0  0  0  0  0  0  0
   16.1920   -5.8920   25.6890 C   0  0  0  0  0  0  0  0  0  0  0  0
   17.9650   -4.3190   24.5830 C   0  0  0  0  0  0  0  0  0  0  0  0
   17.4230   -6.3650   25.4970 C   0  0  0  0  0  0  0  0  0  0  0  0
   18.3710   -5.3090   25.4940 O   0  0  0  0  0  0  0  0  0  0  0  0
  1  2  2  0
  2  3  1  0
  2  4  1  0
  3  5  1  0
  4  6  1  0
  5  7  1  0
  6  8  2  0
  6  9  1  0
  7 10  2  0
  7 11  1  0
  8 12  1  0
  9 13  2  0
 10 14  1  0
 11 15  2  0
 12 16  2  0
 13 16  1  0
 13 17  1  0
 14 18  2  0
 15 18  1  0
 17 19  1  0
 19 20  1  0
 20 21  1  0
 21 22  1  0
 21 23  1  0
 22 24  1  0
 23 25  1  0
 24 26  1  0
 25 26  1  0
M  END
