BAR-COM-4e090d3a-58
     RDKit          3D

 22 24  0  0  0  0  0  0  0  0999 V2000
    8.3660    1.4770   20.7780 O   0  0  0  0  0  0  0  0  0  0  0  0
    7.8860    0.4830   21.3140 C   0  0  0  0  0  0  0  0  0  0  0  0
    7.0390   -0.4370   20.6430 N   0  0  0  0  0  0  0  0  0  0  0  0
    8.1200    0.1380   22.5900 N   0  0  0  0  0  0  0  0  0  0  0  0
    6.4440   -0.1620   19.4730 C   0  0  0  0  0  0  0  0  0  0  0  0
    9.4490    0.3900   22.9890 C   0  0  0  0  0  0  0  0  0  0  0  0
    5.1620    0.5520   19.8550 C   0  0  0  0  0  0  0  0  0  0  0  0
    9.8210    1.7750   23.5380 C   0  0  0  0  0  0  0  0  0  0  0  0
   10.3180   -0.5970   22.8410 C   0  0  0  0  0  0  0  0  0  0  0  0
    4.4700    1.6680   19.1920 C   0  0  0  0  0  0  0  0  0  0  0  0
    4.2630    0.0940   21.2650 S   0  0  0  0  0  0  0  0  0  0  0  0
   11.2660    1.8720   23.8650 C   0  0  0  0  0  0  0  0  0  0  0  0
   11.6140   -0.4800   23.1580 C   0  0  0  0  0  0  0  0  0  0  0  0
    3.2740    2.0500   19.8830 N   0  0  0  0  0  0  0  0  0  0  0  0
    3.0570    1.2940   20.9900 C   0  0  0  0  0  0  0  0  0  0  0  0
   12.1730    0.6760   23.6560 C   0  0  0  0  0  0  0  0  0  0  0  0
   12.1400   -1.6240   22.8940 N   0  0  0  0  0  0  0  0  0  0  0  0
   11.7010   -2.1980   21.6390 C   0  0  0  0  0  0  0  0  0  0  0  0
   13.5130   -1.6280   23.1280 C   0  0  0  0  0  0  0  0  0  0  0  0
   12.8550   -2.7620   20.9560 C   0  0  0  0  0  0  0  0  0  0  0  0
   13.6760   -2.9670   23.1840 C   0  0  0  0  0  0  0  0  0  0  0  0
   13.5750   -3.5600   21.8800 O   0  0  0  0  0  0  0  0  0  0  0  0
  1  2  2  0
  2  3  1  0
  2  4  1  0
  3  5  1  0
  4  6  1  0
  5  7  1  0
  6  8  2  0
  6  9  1  0
  7 10  2  0
  7 11  1  0
  8 12  1  0
  9 13  2  0
 10 14  1  0
 11 15  1  0
 14 15  2  0
 12 16  2  0
 13 16  1  0
 13 17  1  0
 17 18  1  0
 17 19  1  0
 18 20  1  0
 19 21  1  0
 20 22  1  0
 21 22  1  0
M  END
