BAR-COM-4e090d3a-39
     RDKit          3D

 22 24  0  0  0  0  0  0  0  0999 V2000
    8.6120    0.9330   21.0120 O   0  0  0  0  0  0  0  0  0  0  0  0
    8.2170   -0.0770   21.5750 C   0  0  0  0  0  0  0  0  0  0  0  0
    6.7250   -0.3290   21.5560 C   0  0  0  0  0  0  0  0  0  0  0  0
    9.0210   -0.9700   22.2590 N   0  0  0  0  0  0  0  0  0  0  0  0
    6.2380   -1.6290   21.0360 C   0  0  0  0  0  0  0  0  0  0  0  0
   10.3450   -0.6060   22.5300 C   0  0  0  0  0  0  0  0  0  0  0  0
    6.3360   -1.9690   19.7050 C   0  0  0  0  0  0  0  0  0  0  0  0
    5.6460   -2.5700   21.8580 C   0  0  0  0  0  0  0  0  0  0  0  0
   11.4850   -1.3670   22.2970 C   0  0  0  0  0  0  0  0  0  0  0  0
   10.4680    0.6660   23.0730 C   0  0  0  0  0  0  0  0  0  0  0  0
    5.8820   -3.1490   19.2280 N   0  0  0  0  0  0  0  0  0  0  0  0
    5.1950   -3.7610   21.4200 N   0  0  0  0  0  0  0  0  0  0  0  0
   12.7390   -0.8330   22.6080 C   0  0  0  0  0  0  0  0  0  0  0  0
   11.7010    1.2020   23.3760 C   0  0  0  0  0  0  0  0  0  0  0  0
    5.3620   -3.9710   20.1190 C   0  0  0  0  0  0  0  0  0  0  0  0
   12.8440    0.4490   23.1400 C   0  0  0  0  0  0  0  0  0  0  0  0
   11.6340    2.4750   23.8830 O   0  0  0  0  0  0  0  0  0  0  0  0
   11.2540    3.5810   23.0280 C   0  0  1  0  0  0  0  0  0  0  0  0
    9.9180    4.2920   23.3460 C   0  0  0  0  0  0  0  0  0  0  0  0
   11.9150    4.8640   23.3420 N   0  0  0  0  0  0  0  0  0  0  0  0
   10.8090    5.3980   23.9200 C   0  0  0  0  0  0  0  0  0  0  0  0
   10.6810    6.3770   24.6120 O   0  0  0  0  0  0  0  0  0  0  0  0
  1  2  2  0
  2  3  1  0
  2  4  1  0
  3  5  1  0
  4  6  1  0
  5  7  2  0
  5  8  1  0
  6  9  2  0
  6 10  1  0
  7 11  1  0
  8 12  2  0
  9 13  1  0
 10 14  2  0
 11 15  2  0
 12 15  1  0
 13 16  2  0
 14 16  1  0
 14 17  1  0
 18 17  1  1
 18 19  1  0
 18 20  1  0
 19 21  1  0
 20 21  1  0
 21 22  2  0
M  END
