BAR-COM-4e090d3a-66
     RDKit          3D

 25 27  0  0  0  0  0  0  0  0999 V2000
    9.9730    3.1860   23.0510 C   0  0  0  0  0  0  0  0  0  0  0  0
   11.4010    2.9620   23.5050 C   0  0  1  0  0  0  0  0  0  0  0  0
   11.6150    1.4930   23.1820 C   0  0  0  0  0  0  0  0  0  0  0  0
   12.3450    3.7680   22.7140 N   0  0  0  0  0  0  0  0  0  0  0  0
   12.8770    0.7320   23.0860 C   0  0  0  0  0  0  0  0  0  0  0  0
   10.4540    0.7880   22.9230 C   0  0  0  0  0  0  0  0  0  0  0  0
   13.1490    4.8120   23.3820 C   0  0  0  0  0  0  0  0  0  0  0  0
   11.5480    4.5430   21.8620 C   0  0  0  0  0  0  0  0  0  0  0  0
   12.8480   -0.6020   22.7580 C   0  0  0  0  0  0  0  0  0  0  0  0
   10.4390   -0.5380   22.5830 C   0  0  0  0  0  0  0  0  0  0  0  0
   13.2260    5.9270   22.5290 C   0  0  0  0  0  0  0  0  0  0  0  0
   11.0000    5.6640   22.5290 C   0  0  0  0  0  0  0  0  0  0  0  0
   11.6270   -1.2280   22.5050 C   0  0  0  0  0  0  0  0  0  0  0  0
    9.1510   -1.0080   22.3330 N   0  0  0  0  0  0  0  0  0  0  0  0
   12.0100    6.6370   22.6520 O   0  0  0  0  0  0  0  0  0  0  0  0
    8.3000   -0.2060   21.5900 C   0  0  0  0  0  0  0  0  0  0  0  0
    8.5810    0.9040   21.1510 O   0  0  0  0  0  0  0  0  0  0  0  0
    6.9080   -0.7670   21.3060 C   0  0  0  0  0  0  0  0  0  0  0  0
    6.2800    0.0010   20.3170 C   0  0  0  0  0  0  0  0  0  0  0  0
    5.6040    1.1920   20.7020 C   0  0  0  0  0  0  0  0  0  0  0  0
    6.3220   -0.4030   18.9920 C   0  0  0  0  0  0  0  0  0  0  0  0
    5.0230    1.8700   19.6310 N   0  0  0  0  0  0  0  0  0  0  0  0
    5.7060    0.3630   18.0230 C   0  0  0  0  0  0  0  0  0  0  0  0
    7.1300   -1.8520   18.5830 Cl  0  0  0  0  0  0  0  0  0  0  0  0
    5.0400    1.5090   18.2530 C   0  0  0  0  0  0  0  0  0  0  0  0
  2  1  1  6
  2  3  1  0
  2  4  1  0
  3  5  2  0
  3  6  1  0
  4  7  1  0
  4  8  1  0
  5  9  1  0
  6 10  2  0
  7 11  1  0
  8 12  1  0
  9 13  2  0
 10 13  1  0
 10 14  1  0
 11 15  1  0
 12 15  1  0
 14 16  1  0
 16 17  2  0
 16 18  1  0
 18 19  1  0
 19 20  2  0
 19 21  1  0
 20 22  1  0
 21 23  2  0
 21 24  1  0
 22 25  2  0
 23 25  1  0
M  END
