BEN-VAN-d8fd1356-24
     RDKit          3D

 24 26  0  0  0  0  0  0  0  0999 V2000
    8.8990   -5.2410   27.8200 C   0  0  0  0  0  0  0  0  0  0  0  0
    9.7450   -4.5950   26.7660 C   0  0  0  0  0  0  0  0  0  0  0  0
   10.9490   -4.7710   26.7340 O   0  0  0  0  0  0  0  0  0  0  0  0
    9.2140   -3.7990   25.8160 N   0  0  0  0  0  0  0  0  0  0  0  0
   10.0750   -3.5440   24.6800 C   0  0  0  0  0  0  0  0  0  0  0  0
    7.7810   -3.7060   25.5030 C   0  0  0  0  0  0  0  0  0  0  0  0
    9.2520   -3.2420   23.5010 C   0  0  0  0  0  0  0  0  0  0  0  0
    7.4960   -2.4950   24.8540 C   0  0  0  0  0  0  0  0  0  0  0  0
    8.4940   -2.0730   23.8630 N   0  0  0  0  0  0  0  0  0  0  0  0
    9.3390   -1.1460   24.4720 C   0  0  0  0  0  0  0  0  0  0  0  0
   10.4530   -0.5880   23.8660 C   0  0  0  0  0  0  0  0  0  0  0  0
   11.4540   -1.4340   23.3190 C   0  0  0  0  0  0  0  0  0  0  0  0
   10.5530    0.7550   23.8080 C   0  0  0  0  0  0  0  0  0  0  0  0
   12.5670   -0.7480   22.7250 C   0  0  0  0  0  0  0  0  0  0  0  0
   11.6210    1.2890   23.2340 C   0  0  0  0  0  0  0  0  0  0  0  0
    9.7220    1.9320   24.2450 N   0  0  0  0  0  0  0  0  0  0  0  0
   13.5580   -1.4970   22.1790 F   0  0  0  0  0  0  0  0  0  0  0  0
   12.6770    0.6900   22.6830 C   0  0  0  0  0  0  0  0  0  0  0  0
   11.4810    2.8020   23.2770 C   0  0  0  0  0  0  0  0  0  0  0  0
   10.3410    3.2110   23.8900 C   0  0  0  0  0  0  0  0  0  0  0  0
   12.5910    3.6280   22.6390 C   0  0  0  0  0  0  0  0  0  0  0  0
   12.8510    4.7630   23.3440 F   0  0  0  0  0  0  0  0  0  0  0  0
   12.2420    4.0590   21.4060 F   0  0  0  0  0  0  0  0  0  0  0  0
   13.7200    2.9580   22.4910 F   0  0  0  0  0  0  0  0  0  0  0  0
  1  2  1  0
  2  3  2  0
  2  4  1  0
  4  5  1  0
  4  6  1  0
  5  7  1  0
  6  8  1  0
  7  9  1  0
  8  9  1  0
  9 10  1  0
 10 11  1  0
 11 12  2  0
 11 13  1  0
 12 14  1  0
 13 15  2  0
 13 16  1  0
 14 17  1  0
 14 18  2  0
 15 18  1  0
 15 19  1  0
 16 20  1  0
 19 20  2  0
 19 21  1  0
 21 22  1  0
 21 23  1  0
 21 24  1  0
M  END
