BEN-VAN-77cef4f8-8-nitrile
     RDKit          3D

 29 31  0  0  0  0  0  0  0  0999 V2000
    7.4410   -4.3080   20.2740 C   0  0  0  0  0  0  0  0  0  0  0  0
    6.2870   -4.8620   20.0390 N   0  0  0  0  0  0  0  0  0  0  0  0
    8.1780   -4.4030   21.5770 C   0  0  0  0  0  0  0  0  0  0  0  0
    7.9600   -5.4610   22.6790 C   0  0  0  0  0  0  0  0  0  0  0  0
    9.1620   -3.4330   21.7560 C   0  0  0  0  0  0  0  0  0  0  0  0
    8.8740   -5.3720   23.9020 C   0  0  0  0  0  0  0  0  0  0  0  0
    9.9990   -3.2940   22.8000 N   0  0  0  0  0  0  0  0  0  0  0  0
    9.9040   -4.2300   23.8840 C   0  0  0  0  0  0  0  0  0  0  0  0
   10.7450   -4.0890   24.8720 N   0  0  0  0  0  0  0  0  0  0  0  0
   11.6250   -2.8940   24.6490 C   0  0  1  0  0  0  0  0  0  0  0  0
   13.1030   -2.9710   25.0510 C   0  0  0  0  0  0  0  0  0  0  0  0
   11.4830   -2.4470   23.1980 C   0  0  0  0  0  0  0  0  0  0  0  0
   10.9990   -1.0260   23.0150 C   0  0  0  0  0  0  0  0  0  0  0  0
   11.9160   -0.0060   23.0950 C   0  0  0  0  0  0  0  0  0  0  0  0
    9.6200   -0.6660   22.7640 C   0  0  0  0  0  0  0  0  0  0  0  0
   11.5910    1.3670   22.9530 C   0  0  0  0  0  0  0  0  0  0  0  0
    9.2810    0.6910   22.6250 C   0  0  0  0  0  0  0  0  0  0  0  0
    8.5460   -1.5870   22.6370 C   0  0  2  0  0  0  0  0  0  0  0  0
   12.4980    2.3430   23.0360 F   0  0  0  0  0  0  0  0  0  0  0  0
   10.2540    1.6680   22.7230 C   0  0  0  0  0  0  0  0  0  0  0  0
    7.6490   -1.4340   21.3980 C   0  0  0  0  0  0  0  0  0  0  0  0
    7.7810   -1.5370   23.5840 O   0  0  0  0  0  0  0  0  0  0  0  0
    9.9530    2.9860   22.5950 F   0  0  0  0  0  0  0  0  0  0  0  0
    6.4230   -2.1420   21.3680 N   0  0  0  0  0  0  0  0  0  0  0  0
    6.9100   -2.6780   23.5870 C   0  0  0  0  0  0  0  0  0  0  0  0
    5.9060   -2.5730   20.0440 C   0  0  0  0  0  0  0  0  0  0  0  0
    5.9080   -2.5320   22.6160 C   0  0  0  0  0  0  0  0  0  0  0  0
    6.2480   -1.6790   18.9840 C   0  0  0  0  0  0  0  0  0  0  0  0
    5.2560   -3.6140   19.8440 O   0  0  0  0  0  0  0  0  0  0  0  0
  1  2  2  3
  1  3  1  0
  3  4  2  0
  3  5  1  0
  4  6  1  0
  5  7  2  0
  6  8  2  0
  7  8  1  0
  8  9  1  0
  9 10  1  0
 10 11  1  6
 10 12  1  0
 12 13  1  0
 13 14  2  0
 13 15  1  0
 14 16  1  0
 15 17  2  0
 18 15  1  1
 16 19  1  0
 16 20  2  0
 17 20  1  0
 18 21  1  0
 18 22  1  0
 20 23  1  0
 21 24  1  0
 22 25  1  0
 24 26  1  0
 24 27  1  0
 25 27  1  0
 26 28  1  0
 26 29  2  0
M  END
