BEN-VAN-d2b455e2-4-nitrile
     RDKit          3D

 24 26  0  0  0  0  0  0  0  0999 V2000
    6.8860   -4.3090   20.3280 C   0  0  0  0  0  0  0  0  0  0  0  0
    5.8110   -3.8890   19.7550 N   0  0  0  0  0  0  0  0  0  0  0  0
    7.4610   -3.7340   21.4800 N   0  0  0  0  0  0  0  0  0  0  0  0
    8.8790   -3.2850   21.6070 C   0  0  0  0  0  0  0  0  0  0  0  0
    9.6760   -3.3870   20.7200 O   0  0  0  0  0  0  0  0  0  0  0  0
    9.2540   -2.7550   22.8480 C   0  0  1  0  0  0  0  0  0  0  0  0
   10.6570   -2.5780   23.0350 C   0  0  0  0  0  0  0  0  0  0  0  0
    8.7100   -1.2750   22.9270 C   0  0  2  0  0  0  0  0  0  0  0  0
   10.8020   -1.4010   23.9390 C   0  0  0  0  0  0  0  0  0  0  0  0
    9.4850   -0.7220   23.9830 C   0  0  0  0  0  0  0  0  0  0  0  0
    7.3520   -1.4440   23.2320 C   0  0  0  0  0  0  0  0  0  0  0  0
    6.9460   -2.1380   24.3740 C   0  0  0  0  0  0  0  0  0  0  0  0
    6.2150   -1.0050   22.5210 C   0  0  0  0  0  0  0  0  0  0  0  0
    8.0520   -2.8830   25.5580 Cl  0  0  0  0  0  0  0  0  0  0  0  0
    5.5790   -2.2130   24.5200 C   0  0  0  0  0  0  0  0  0  0  0  0
    4.7220   -1.4510   23.2790 S   0  0  0  0  0  0  0  0  0  0  0  0
    5.9050   -0.2340   21.2510 C   0  0  0  0  0  0  0  0  0  0  0  0
    4.8410    0.5330   21.6190 N   0  0  0  0  0  0  0  0  0  0  0  0
    6.5160   -0.2800   19.9970 N   0  0  0  0  0  0  0  0  0  0  0  0
    4.3370    1.3070   20.6360 C   0  0  0  0  0  0  0  0  0  0  0  0
    5.8930    0.5590   19.1200 C   0  0  0  0  0  0  0  0  0  0  0  0
    4.7850    1.3980   19.3370 C   0  0  0  0  0  0  0  0  0  0  0  0
    4.1920    2.2060   18.4410 N   0  0  0  0  0  0  0  0  0  0  0  0
    3.4940    3.3270   19.0550 C   0  0  0  0  0  0  0  0  0  0  0  0
  1  2  2  3
  1  3  1  0
  3  4  1  0
  4  5  2  0
  6  4  1  6
  6  7  1  0
  6  8  1  0
  7  9  1  0
  8 10  1  0
  9 10  1  0
  8 11  1  1
 11 12  1  0
 11 13  2  0
 12 14  1  0
 12 15  2  0
 13 16  1  0
 15 16  1  0
 13 17  1  0
 17 18  2  0
 17 19  1  0
 18 20  1  0
 19 21  2  0
 20 22  2  0
 21 22  1  0
 22 23  1  0
 23 24  1  0
M  END
