BEN-VAN-77cef4f8-8-chloroacetamide
     RDKit          3D

 30 32  0  0  0  0  0  0  0  0999 V2000
    9.4290   -5.4870   20.5050 C   0  0  0  0  0  0  0  0  0  0  0  0
    7.9580   -5.6420   20.0840 C   0  0  0  0  0  0  0  0  0  0  0  0
    6.7040   -5.6770   19.9850 O   0  0  0  0  0  0  0  0  0  0  0  0
    7.8110   -5.1620   21.4850 C   0  0  0  0  0  0  0  0  0  0  0  0
    8.7560   -4.0860   22.0130 C   0  0  0  0  0  0  0  0  0  0  0  0
    6.8210   -5.6800   22.3410 C   0  0  0  0  0  0  0  0  0  0  0  0
    8.6090   -3.5830   23.4420 C   0  0  0  0  0  0  0  0  0  0  0  0
    6.6170   -5.2770   23.6490 N   0  0  0  0  0  0  0  0  0  0  0  0
    7.4550   -4.2850   24.1550 C   0  0  0  0  0  0  0  0  0  0  0  0
    7.2900   -3.7710   25.5200 N   0  0  0  0  0  0  0  0  0  0  0  0
    8.3430   -2.8380   25.9370 C   0  0  2  0  0  0  0  0  0  0  0  0
    8.0120   -1.8380   27.0530 C   0  0  0  0  0  0  0  0  0  0  0  0
    8.0830   -1.3970   25.5180 C   0  0  0  0  0  0  0  0  0  0  0  0
    9.0760   -0.8720   24.6980 C   0  0  0  0  0  0  0  0  0  0  0  0
   10.3470   -0.4420   25.1990 C   0  0  0  0  0  0  0  0  0  0  0  0
    8.8400   -0.7670   23.3180 C   0  0  0  0  0  0  0  0  0  0  0  0
   11.3030    0.0380   24.3140 C   0  0  0  0  0  0  0  0  0  0  0  0
    9.8180   -0.2720   22.4360 C   0  0  0  0  0  0  0  0  0  0  0  0
    7.5150   -1.1890   22.7430 C   0  0  1  0  0  0  0  0  0  0  0  0
   12.5130    0.4420   24.6540 F   0  0  0  0  0  0  0  0  0  0  0  0
   11.0330    0.1120   22.9920 C   0  0  0  0  0  0  0  0  0  0  0  0
    7.4640   -1.6570   21.3000 C   0  0  0  0  0  0  0  0  0  0  0  0
    7.0080   -2.1950   23.6170 O   0  0  0  0  0  0  0  0  0  0  0  0
   12.0840    0.6020   22.3120 F   0  0  0  0  0  0  0  0  0  0  0  0
    6.3190   -2.5840   21.1320 N   0  0  0  0  0  0  0  0  0  0  0  0
    5.6730   -2.5850   23.3570 C   0  0  0  0  0  0  0  0  0  0  0  0
    5.9670   -3.0510   19.8630 C   0  0  0  0  0  0  0  0  0  0  0  0
    5.2820   -2.4000   22.0300 C   0  0  0  0  0  0  0  0  0  0  0  0
    6.1290   -2.1150   18.7980 C   0  0  0  0  0  0  0  0  0  0  0  0
    5.5380   -4.1890   19.6690 O   0  0  0  0  0  0  0  0  0  0  0  0
  1  2  1  0
  2  3  2  0
  2  4  1  0
  4  5  2  0
  4  6  1  0
  5  7  1  0
  6  8  2  0
  7  9  2  0
  8  9  1  0
  9 10  1  0
 10 11  1  0
 11 12  1  1
 11 13  1  0
 13 14  1  0
 14 15  2  0
 14 16  1  0
 15 17  1  0
 16 18  2  0
 19 16  1  1
 17 20  1  0
 17 21  2  0
 18 21  1  0
 19 22  1  0
 19 23  1  0
 21 24  1  0
 22 25  1  0
 23 26  1  0
 25 27  1  0
 25 28  1  0
 26 28  1  0
 27 29  1  0
 27 30  2  0
M  END
