BEN-VAN-5787f7d3-19
     RDKit          3D

 33 36  0  0  0  0  0  0  0  0999 V2000
    6.0600   -3.2120   28.0460 C   0  0  0  0  0  0  0  0  0  0  0  0
    6.5800   -2.0780   27.2020 C   0  0  0  0  0  0  0  0  0  0  0  0
    5.8200   -1.2180   26.7830 O   0  0  0  0  0  0  0  0  0  0  0  0
    6.0340   -0.7450   25.5000 C   0  0  0  0  0  0  0  0  0  0  0  0
    6.7310    0.4090   25.1070 C   0  0  0  0  0  0  0  0  0  0  0  0
    5.5210   -1.4700   24.4200 C   0  0  0  0  0  0  0  0  0  0  0  0
    6.9340    0.8750   23.8170 N   0  0  0  0  0  0  0  0  0  0  0  0
    5.7070   -1.0190   23.1140 C   0  0  0  0  0  0  0  0  0  0  0  0
    4.7680   -2.6920   24.0970 C   0  0  0  0  0  0  0  0  0  0  0  0
    6.3830    0.1100   22.8380 C   0  0  0  0  0  0  0  0  0  0  0  0
    3.7110   -3.3810   24.7320 C   0  0  0  0  0  0  0  0  0  0  0  0
    5.2980   -3.1580   22.8970 C   0  0  0  0  0  0  0  0  0  0  0  0
    6.3950    0.3730   21.4880 C   0  0  0  0  0  0  0  0  0  0  0  0
    3.2050   -4.5320   24.1050 C   0  0  0  0  0  0  0  0  0  0  0  0
    4.8550   -4.2680   22.2700 C   0  0  0  0  0  0  0  0  0  0  0  0
    5.1170    1.0010   21.1000 C   0  0  0  0  0  0  0  0  0  0  0  0
    7.3560    0.1170   20.5270 C   0  0  0  0  0  0  0  0  0  0  0  0
    1.9020   -5.4150   24.8100 Cl  0  0  0  0  0  0  0  0  0  0  0  0
    3.7820   -4.9580   22.8910 C   0  0  0  0  0  0  0  0  0  0  0  0
    5.5650   -4.6000   21.0960 C   0  0  0  0  0  0  0  0  0  0  0  0
    4.1750    1.2340   22.0750 C   0  0  0  0  0  0  0  0  0  0  0  0
    4.8690    1.3370   19.8200 C   0  0  0  0  0  0  0  0  0  0  0  0
    7.1570    0.4560   19.1030 N   0  0  0  0  0  0  0  0  0  0  0  0
    8.5010   -0.4640   20.9090 F   0  0  0  0  0  0  0  0  0  0  0  0
    5.2700   -4.3590   19.9220 O   0  0  0  0  0  0  0  0  0  0  0  0
    6.6080   -5.2120   21.6960 N   0  0  0  0  0  0  0  0  0  0  0  0
    5.8840    1.0800   18.7550 C   0  0  0  0  0  0  0  0  0  0  0  0
    6.0620   -5.2850   22.9520 C   0  0  0  0  0  0  0  0  0  0  0  0
    5.5700    1.5000   17.2040 Cl  0  0  0  0  0  0  0  0  0  0  0  0
    6.1430   -4.2830   24.0210 C   0  0  0  0  0  0  0  0  0  0  0  0
    5.3180   -6.3350   23.3010 O   0  0  0  0  0  0  0  0  0  0  0  0
    5.3500   -4.8210   25.0170 C   0  0  0  0  0  0  0  0  0  0  0  0
    4.8780   -6.0480   24.5540 C   0  0  0  0  0  0  0  0  0  0  0  0
  1  2  1  0
  2  3  1  0
  3  4  1  0
  4  5  2  0
  4  6  1  0
  5  7  1  0
  6  8  2  0
  6  9  1  0
  7 10  2  0
  8 10  1  0
  9 11  2  0
  9 12  1  0
 10 13  1  0
 11 14  1  0
 12 15  2  0
 13 16  2  0
 13 17  1  0
 14 18  1  0
 14 19  2  0
 15 19  1  0
 15 20  1  0
 16 21  1  0
 16 22  1  0
 17 23  2  0
 17 24  1  0
 20 25  2  0
 20 26  1  0
 22 27  2  0
 23 27  1  0
 26 28  1  0
 27 29  1  0
 28 30  2  0
 28 31  1  0
 30 32  1  0
 31 33  1  0
 32 33  2  0
M  END
