BEN-BAS-2a7c309d-1
     RDKit          3D

 27 29  0  0  0  0  0  0  0  0999 V2000
    0.9680    3.1650   19.4420 C   0  0  0  0  0  0  0  0  0  0  0  0
    2.2930    2.9380   19.0950 N   0  0  0  0  0  0  0  0  0  0  0  0
    3.4320    2.7070   20.3610 S   0  0  0  0  0  0  0  0  0  0  0  0
    2.7150    2.0410   21.4230 O   0  0  0  0  0  0  0  0  0  0  0  0
    4.0510    3.9930   20.6050 O   0  0  0  0  0  0  0  0  0  0  0  0
    4.7810    1.5720   19.7700 C   0  0  0  0  0  0  0  0  0  0  0  0
    5.1070    1.5650   18.2870 C   0  0  0  0  0  0  0  0  0  0  0  0
    5.4730    0.7710   20.6420 C   0  0  0  0  0  0  0  0  0  0  0  0
    6.0670    0.7890   17.8160 N   0  0  0  0  0  0  0  0  0  0  0  0
    6.5590   -0.0960   20.0880 C   0  0  0  0  0  0  0  0  0  0  0  0
    6.7590   -0.0110   18.7240 C   0  0  0  0  0  0  0  0  0  0  0  0
    7.2840   -0.8980   20.8520 N   0  0  0  0  0  0  0  0  0  0  0  0
    8.3520   -0.3710   21.5080 C   0  0  0  0  0  0  0  0  0  0  0  0
    8.7430    0.7750   21.2840 O   0  0  0  0  0  0  0  0  0  0  0  0
    8.9550   -1.2020   22.4300 N   0  0  0  0  0  0  0  0  0  0  0  0
   10.1940   -0.7180   22.6590 C   0  0  0  0  0  0  0  0  0  0  0  0
    8.3250   -1.8330   23.4790 C   0  0  0  0  0  0  0  0  0  0  0  0
   10.4620    0.5490   23.4970 C   0  0  0  0  0  0  0  0  0  0  0  0
   11.3560   -1.3410   22.1380 C   0  0  0  0  0  0  0  0  0  0  0  0
    8.8710   -3.2960   23.4660 C   0  0  0  0  0  0  0  0  0  0  0  0
    8.5460   -1.1410   24.6820 C   0  0  0  0  0  0  0  0  0  0  0  0
   11.8300    1.0400   23.7050 C   0  0  0  0  0  0  0  0  0  0  0  0
   12.6610   -0.8150   22.3770 C   0  0  0  0  0  0  0  0  0  0  0  0
    8.7140   -3.9510   24.8060 C   0  0  0  0  0  0  0  0  0  0  0  0
    8.1430   -1.8070   25.8240 C   0  0  0  0  0  0  0  0  0  0  0  0
   12.8880    0.3420   23.1340 C   0  0  0  0  0  0  0  0  0  0  0  0
    7.7800   -3.1660   25.7110 C   0  0  0  0  0  0  0  0  0  0  0  0
  1  2  1  0
  3  2  1  0
  3  4  2  0
  3  5  2  0
  3  6  1  0
  6  7  2  0
  6  8  1  0
  7  9  1  0
  8 10  2  0
  9 11  2  0
 10 11  1  0
 10 12  1  0
 12 13  1  0
 13 14  2  0
 13 15  1  0
 15 16  1  0
 15 17  1  0
 16 18  2  0
 16 19  1  0
 17 20  1  0
 17 21  1  0
 18 22  1  0
 19 23  2  0
 20 24  1  0
 21 25  1  0
 22 26  2  0
 23 26  1  0
 24 27  1  0
 25 27  1  0
M  END
