BEN-VAN-5787f7d3-13
     RDKit          3D

 30 33  0  0  0  0  0  0  0  0999 V2000
    4.6900   -1.2470   26.5380 C   0  0  0  0  0  0  0  0  0  0  0  0
    6.1440   -1.5350   26.2840 C   0  0  0  0  0  0  0  0  0  0  0  0
    6.8850   -0.6120   25.9370 O   0  0  0  0  0  0  0  0  0  0  0  0
    6.8470   -0.1920   24.6070 C   0  0  0  0  0  0  0  0  0  0  0  0
    7.5310    0.8760   23.9900 C   0  0  0  0  0  0  0  0  0  0  0  0
    6.0530   -0.8900   23.7130 C   0  0  0  0  0  0  0  0  0  0  0  0
    7.4830    1.2620   22.6560 N   0  0  0  0  0  0  0  0  0  0  0  0
    5.9910   -0.5140   22.3870 C   0  0  0  0  0  0  0  0  0  0  0  0
    5.1560   -2.0230   23.6220 C   0  0  0  0  0  0  0  0  0  0  0  0
    6.6640    0.5040   21.8720 C   0  0  0  0  0  0  0  0  0  0  0  0
    4.0500   -2.4470   24.3620 C   0  0  0  0  0  0  0  0  0  0  0  0
    5.5670   -2.7360   22.5320 C   0  0  0  0  0  0  0  0  0  0  0  0
    6.3940    0.6700   20.5370 C   0  0  0  0  0  0  0  0  0  0  0  0
    3.3690   -3.6000   23.9790 C   0  0  0  0  0  0  0  0  0  0  0  0
    4.9470   -3.8350   22.1290 C   0  0  0  0  0  0  0  0  0  0  0  0
    7.1280    0.0630   19.3460 C   0  0  0  0  0  0  0  0  0  0  0  0
    5.2960    1.4510   20.2890 C   0  0  0  0  0  0  0  0  0  0  0  0
    3.8100   -4.3170   22.8470 C   0  0  0  0  0  0  0  0  0  0  0  0
    5.5870   -4.3660   21.0200 C   0  0  0  0  0  0  0  0  0  0  0  0
    6.7260    0.3020   18.0570 N   0  0  0  0  0  0  0  0  0  0  0  0
    4.8860    1.6910   19.0120 C   0  0  0  0  0  0  0  0  0  0  0  0
    4.4750    2.0780   21.4060 C   0  0  0  0  0  0  0  0  0  0  0  0
    5.2860   -4.2170   19.8370 O   0  0  0  0  0  0  0  0  0  0  0  0
    6.5590   -5.0330   21.6480 N   0  0  0  0  0  0  0  0  0  0  0  0
    5.5410    1.1660   17.9320 C   0  0  0  0  0  0  0  0  0  0  0  0
    5.8960   -5.3840   22.7820 C   0  0  0  0  0  0  0  0  0  0  0  0
    5.5490   -6.7260   23.0710 C   0  0  0  0  0  0  0  0  0  0  0  0
    5.4560   -4.5340   23.7270 O   0  0  0  0  0  0  0  0  0  0  0  0
    4.8330   -6.6690   24.2430 C   0  0  0  0  0  0  0  0  0  0  0  0
    4.7970   -5.3320   24.6130 C   0  0  0  0  0  0  0  0  0  0  0  0
  1  2  1  0
  2  3  1  0
  3  4  1  0
  4  5  2  0
  4  6  1  0
  5  7  1  0
  6  8  2  0
  6  9  1  0
  7 10  2  0
  8 10  1  0
  9 11  2  0
  9 12  1  0
 10 13  1  0
 11 14  1  0
 12 15  2  0
 13 16  2  0
 13 17  1  0
 14 18  2  0
 15 18  1  0
 15 19  1  0
 16 20  1  0
 17 21  2  0
 17 22  1  0
 19 23  2  0
 19 24  1  0
 20 25  2  0
 21 25  1  0
 24 26  1  0
 26 27  2  0
 26 28  1  0
 27 29  1  0
 28 30  1  0
 29 30  2  0
M  END
