BEN-VAN-ed886787-4-nitrile
     RDKit          3D

 25 26  0  0  0  0  0  0  0  0999 V2000
    6.7400   -3.4990   19.7680 C   0  0  0  0  0  0  0  0  0  0  0  0
    5.7730   -4.3600   19.8580 N   0  0  0  0  0  0  0  0  0  0  0  0
    6.7310   -2.3850   20.5930 N   0  0  0  0  0  0  0  0  0  0  0  0
    7.4120   -1.1330   20.2150 C   0  0  0  0  0  0  0  0  0  0  0  0
    7.3730   -0.6170   19.1010 O   0  0  0  0  0  0  0  0  0  0  0  0
    8.1360   -0.5080   21.3260 C   0  0  0  0  0  0  0  0  0  0  0  0
    9.0630   -1.4840   21.9430 N   0  0  0  0  0  0  0  0  0  0  0  0
   10.2120   -0.7320   22.3930 C   0  0  0  0  0  0  0  0  0  0  0  0
   11.4570   -1.3260   22.4480 C   0  0  0  0  0  0  0  0  0  0  0  0
   10.0610    0.5900   22.7590 C   0  0  0  0  0  0  0  0  0  0  0  0
   12.5700   -0.6310   22.8670 C   0  0  0  0  0  0  0  0  0  0  0  0
   11.1470    1.3400   23.1780 C   0  0  0  0  0  0  0  0  0  0  0  0
   13.7330   -1.2340   22.9110 F   0  0  0  0  0  0  0  0  0  0  0  0
   12.3890    0.7100   23.2270 C   0  0  0  0  0  0  0  0  0  0  0  0
   10.8330    2.8060   23.5260 C   0  0  0  0  0  0  0  0  0  0  0  0
    9.4330    2.8910   24.1270 C   0  0  0  0  0  0  0  0  0  0  0  0
    8.5980    4.0990   23.9830 N   0  0  0  0  0  0  0  0  0  0  0  0
    9.0020    1.7550   24.8180 C   0  0  0  0  0  0  0  0  0  0  0  0
    7.2670    4.0330   24.6220 C   0  0  0  0  0  0  0  0  0  0  0  0
    7.7380    1.6940   25.4250 C   0  0  0  0  0  0  0  0  0  0  0  0
    9.7900    0.6810   24.9260 F   0  0  0  0  0  0  0  0  0  0  0  0
    6.4160    5.0860   24.5560 N   0  0  0  0  0  0  0  0  0  0  0  0
    6.8620    2.7760   25.3560 C   0  0  0  0  0  0  0  0  0  0  0  0
    6.5900    5.8660   25.6730 C   0  0  0  0  0  0  0  0  0  0  0  0
    7.5770    5.3640   26.6730 C   0  0  0  0  0  0  0  0  0  0  0  0
  1  2  2  3
  1  3  1  0
  3  4  1  0
  4  5  2  0
  4  6  1  0
  6  7  1  0
  7  8  1  0
  8  9  2  0
  8 10  1  0
  9 11  1  0
 10 12  2  0
 11 13  1  0
 11 14  2  0
 12 14  1  0
 12 15  1  0
 15 16  1  0
 16 17  2  0
 16 18  1  0
 17 19  1  0
 18 20  2  0
 18 21  1  0
 19 22  1  0
 19 23  2  0
 20 23  1  0
 22 24  1  0
 24 25  1  0
M  END
