BEN-VAN-d2b455e2-1-chloroacetamide
     RDKit          3D

 28 30  0  0  0  0  0  0  0  0999 V2000
    8.0630   -3.6240   19.6970 C   0  0  0  0  0  0  0  0  0  0  0  0
    7.2780   -2.3990   19.2970 C   0  0  0  0  0  0  0  0  0  0  0  0
    6.8550   -2.3160   18.0920 O   0  0  0  0  0  0  0  0  0  0  0  0
    6.9940   -1.4790   20.4190 N   0  0  0  0  0  0  0  0  0  0  0  0
    7.5950   -0.1200   20.7310 C   0  0  0  0  0  0  0  0  0  0  0  0
    7.7320    0.7580   19.9050 O   0  0  0  0  0  0  0  0  0  0  0  0
    7.8710    0.1680   22.1270 C   0  0  1  0  0  0  0  0  0  0  0  0
    6.7150   -0.3880   22.9150 C   0  0  0  0  0  0  0  0  0  0  0  0
    8.8900   -0.6990   22.9600 C   0  0  1  0  0  0  0  0  0  0  0  0
    6.9300   -1.8580   23.1250 C   0  0  0  0  0  0  0  0  0  0  0  0
    8.2600   -2.0450   22.7800 C   0  0  0  0  0  0  0  0  0  0  0  0
   10.2830   -0.5780   22.7560 C   0  0  0  0  0  0  0  0  0  0  0  0
   11.1490   -1.6720   22.5160 C   0  0  0  0  0  0  0  0  0  0  0  0
   11.0010    0.6260   22.7930 C   0  0  0  0  0  0  0  0  0  0  0  0
   12.8020   -1.2940   22.3470 S   0  0  0  0  0  0  0  0  0  0  0  0
   12.3900    0.4470   22.6030 C   0  0  0  0  0  0  0  0  0  0  0  0
   10.5330    2.0500   23.0040 N   0  0  0  0  0  0  0  0  0  0  0  0
   11.3740    3.1570   22.8340 C   0  0  0  0  0  0  0  0  0  0  0  0
   12.7490    3.1040   22.6610 C   0  0  0  0  0  0  0  0  0  0  0  0
   10.7890    4.4820   22.8380 C   0  0  0  0  0  0  0  0  0  0  0  0
   13.6450    4.3050   22.4860 C   0  0  0  0  0  0  0  0  0  0  0  0
   11.5180    5.5910   22.6840 C   0  0  0  0  0  0  0  0  0  0  0  0
    9.2820    4.6950   23.0230 C   0  0  0  0  0  0  0  0  0  0  0  0
   14.6720    4.8140   22.3320 N   0  0  0  0  0  0  0  0  0  0  0  0
   12.9010    5.4540   22.5190 N   0  0  0  0  0  0  0  0  0  0  0  0
    8.6960    5.8960   23.2700 N   0  0  0  0  0  0  0  0  0  0  0  0
   15.8210    3.9640   22.0770 C   0  0  0  0  0  0  0  0  0  0  0  0
   17.0520    3.9460   23.0110 C   0  0  0  0  0  0  0  0  0  0  0  0
  1  2  1  0
  2  3  2  0
  2  4  1  0
  4  5  1  0
  5  6  2  0
  7  5  1  6
  7  8  1  0
  7  9  1  0
  8 10  1  0
  9 11  1  0
 10 11  1  0
  9 12  1  6
 12 13  2  0
 12 14  1  0
 13 15  1  0
 14 16  2  0
 15 16  1  0
 14 17  1  0
 17 18  1  0
 18 19  2  0
 18 20  1  0
 19 21  1  0
 20 22  2  0
 20 23  1  0
 21 24  1  0
 21 25  2  0
 22 25  1  0
 23 26  3  0
 24 27  1  0
 27 28  1  0
M  END
