BEN-VAN-ed886787-2
     RDKit          3D

 29 31  0  0  0  0  0  0  0  0999 V2000
   16.1200    5.1740   19.1940 C   0  0  0  0  0  0  0  0  0  0  0  0
   15.4280    3.8830   19.4160 C   0  0  0  0  0  0  0  0  0  0  0  0
   15.3490    3.4620   20.6910 N   0  0  0  0  0  0  0  0  0  0  0  0
   14.1830    3.9280   21.3760 C   0  0  0  0  0  0  0  0  0  0  0  0
   14.0270    5.2040   21.2880 C   0  0  0  0  0  0  0  0  0  0  0  0
   13.3260    3.1600   22.0280 N   0  0  0  0  0  0  0  0  0  0  0  0
   13.0030    5.8690   21.8760 C   0  0  0  0  0  0  0  0  0  0  0  0
   12.2680    3.8010   22.6030 C   0  0  0  0  0  0  0  0  0  0  0  0
   12.0560    5.1720   22.5720 C   0  0  0  0  0  0  0  0  0  0  0  0
   11.3980    3.0030   23.2230 C   0  0  0  0  0  0  0  0  0  0  0  0
   11.0090    5.7640   23.1670 F   0  0  0  0  0  0  0  0  0  0  0  0
   11.6280    1.4900   23.0360 C   0  0  0  0  0  0  0  0  0  0  0  0
   12.9730    0.8400   22.7280 C   0  0  0  0  0  0  0  0  0  0  0  0
   10.5110    0.7140   23.1490 C   0  0  0  0  0  0  0  0  0  0  0  0
   12.9010   -0.6820   22.5710 C   0  0  0  0  0  0  0  0  0  0  0  0
   10.5810   -0.6350   22.9850 C   0  0  0  0  0  0  0  0  0  0  0  0
   13.9070   -1.4480   22.3010 F   0  0  0  0  0  0  0  0  0  0  0  0
   11.7300   -1.3280   22.7070 C   0  0  0  0  0  0  0  0  0  0  0  0
    9.5430   -1.3950   23.0670 N   0  0  0  0  0  0  0  0  0  0  0  0
    8.9760   -1.6880   21.9000 C   0  0  0  0  0  0  0  0  0  0  0  0
    7.8740   -0.8070   21.5120 C   0  0  0  0  0  0  0  0  0  0  0  0
    8.4830    0.2300   21.2390 O   0  0  0  0  0  0  0  0  0  0  0  0
    6.7560   -0.5630   21.3500 N   0  0  0  0  0  0  0  0  0  0  0  0
    6.2280    0.1090   20.1580 C   0  0  0  0  0  0  0  0  0  0  0  0
    5.0710    0.8870   20.2670 C   0  0  0  0  0  0  0  0  0  0  0  0
    6.8260    0.0100   18.8810 C   0  0  0  0  0  0  0  0  0  0  0  0
    4.5860    1.5110   19.1440 C   0  0  0  0  0  0  0  0  0  0  0  0
    6.4650    0.5160   17.8790 N   0  0  0  0  0  0  0  0  0  0  0  0
    5.3650    1.2830   17.8990 C   0  0  0  0  0  0  0  0  0  0  0  0
  1  2  1  0
  2  3  1  0
  3  4  1  0
  4  5  2  0
  4  6  1  0
  5  7  1  0
  6  8  2  0
  7  9  2  0
  8  9  1  0
  8 10  1  0
  9 11  1  0
 10 12  1  0
 12 13  2  0
 12 14  1  0
 13 15  1  0
 14 16  2  0
 15 17  1  0
 15 18  2  0
 16 18  1  0
 16 19  1  0
 19 20  1  0
 20 21  1  0
 21 22  2  0
 21 23  1  0
 23 24  1  0
 24 25  2  0
 24 26  1  0
 25 27  1  0
 26 28  2  0
 27 29  2  0
 28 29  1  0
M  END
