BEN-BAS-edf2ae6d-1-vinylsulfonamide
     RDKit          3D

 25 27  0  0  0  0  0  0  0  0999 V2000
    7.5080   -2.9720   18.3410 C   0  0  0  0  0  0  0  0  0  0  0  0
    7.2080   -1.9190   19.3320 C   0  0  0  0  0  0  0  0  0  0  0  0
    5.9780   -2.4520   20.4910 S   0  0  0  0  0  0  0  0  0  0  0  0
    5.1330   -3.6220   20.0920 O   0  0  0  0  0  0  0  0  0  0  0  0
    5.2940   -1.2700   20.9730 O   0  0  0  0  0  0  0  0  0  0  0  0
    7.0240   -2.9180   21.7430 N   0  0  0  0  0  0  0  0  0  0  0  0
    6.1420   -3.3360   22.7540 C   0  0  0  0  0  0  0  0  0  0  0  0
    8.2120   -2.0060   22.1460 C   0  0  1  0  0  0  0  0  0  0  0  0
    5.5090   -2.2850   23.6270 C   0  0  0  0  0  0  0  0  0  0  0  0
    5.6920   -4.7770   23.0940 C   0  0  0  0  0  0  0  0  0  0  0  0
    9.2120   -2.7250   21.9820 O   0  0  0  0  0  0  0  0  0  0  0  0
    8.2290   -0.8700   21.3380 C   0  0  0  0  0  0  0  0  0  0  0  0
    8.1590   -1.5860   23.5020 C   0  0  0  0  0  0  0  0  0  0  0  0
    4.5400   -2.6790   24.7110 C   0  0  0  0  0  0  0  0  0  0  0  0
    4.7920   -5.1420   24.1020 N   0  0  0  0  0  0  0  0  0  0  0  0
   10.4430   -2.5270   22.5630 C   0  0  0  0  0  0  0  0  0  0  0  0
    9.3160    0.0460   21.8200 C   0  0  0  0  0  0  0  0  0  0  0  0
    9.1850   -1.0100   23.9200 O   0  0  0  0  0  0  0  0  0  0  0  0
    4.2320   -4.1800   24.8800 C   0  0  0  0  0  0  0  0  0  0  0  0
   10.7720   -2.9780   23.8400 C   0  0  0  0  0  0  0  0  0  0  0  0
   11.4410   -1.8430   21.8440 C   0  0  0  0  0  0  0  0  0  0  0  0
    9.4500    0.1980   23.3230 C   0  0  0  0  0  0  0  0  0  0  0  0
   12.0300   -2.7630   24.3910 C   0  0  0  0  0  0  0  0  0  0  0  0
   12.7050   -1.6340   22.4180 C   0  0  0  0  0  0  0  0  0  0  0  0
   12.9970   -2.0940   23.6910 C   0  0  0  0  0  0  0  0  0  0  0  0
  1  2  1  0
  2  3  1  0
  3  4  2  0
  3  5  2  0
  3  6  1  0
  6  7  1  0
  6  8  1  0
  7  9  2  0
  7 10  1  0
  8 11  1  1
  8 12  1  0
  8 13  1  0
  9 14  1  0
 10 15  2  0
 11 16  1  0
 12 17  1  0
 13 18  1  0
 14 19  2  0
 15 19  1  0
 16 20  2  0
 16 21  1  0
 17 22  1  0
 18 22  1  0
 20 23  1  0
 21 24  2  0
 23 25  2  0
 24 25  1  0
M  END
