BEN-VAN-d2b455e2-18-nitrile
     RDKit          3D

 24 26  0  0  0  0  0  0  0  0999 V2000
    7.9260   -3.4710   19.7390 C   0  0  0  0  0  0  0  0  0  0  0  0
    6.6100   -3.6570   19.5530 N   0  0  0  0  0  0  0  0  0  0  0  0
    8.4310   -2.8200   20.9510 N   0  0  0  0  0  0  0  0  0  0  0  0
    9.7960   -2.4960   21.4750 C   0  0  0  0  0  0  0  0  0  0  0  0
   10.9050   -2.8650   21.0390 O   0  0  0  0  0  0  0  0  0  0  0  0
   10.0140   -1.6870   22.7620 C   0  0  2  0  0  0  0  0  0  0  0  0
    9.0100   -1.5520   23.8550 C   0  0  0  0  0  0  0  0  0  0  0  0
   10.6170   -0.2570   22.7420 C   0  0  2  0  0  0  0  0  0  0  0  0
    9.4260   -0.4320   24.8160 C   0  0  0  0  0  0  0  0  0  0  0  0
   10.7890   -0.0250   24.2680 C   0  0  0  0  0  0  0  0  0  0  0  0
    9.7920    0.9890   22.3480 C   0  0  0  0  0  0  0  0  0  0  0  0
   10.5000    2.2250   22.8560 C   0  0  0  0  0  0  0  0  0  0  0  0
    8.5420    1.4440   21.6500 C   0  0  0  0  0  0  0  0  0  0  0  0
    9.8970    3.4120   22.5980 C   0  0  0  0  0  0  0  0  0  0  0  0
    8.4510    3.1630   21.7430 S   0  0  0  0  0  0  0  0  0  0  0  0
    7.3770    0.9850   20.9350 C   0  0  0  0  0  0  0  0  0  0  0  0
    6.8080    2.0730   20.3960 N   0  0  0  0  0  0  0  0  0  0  0  0
    6.8770   -0.2650   20.8160 N   0  0  0  0  0  0  0  0  0  0  0  0
    5.6750    1.9440   19.7240 C   0  0  0  0  0  0  0  0  0  0  0  0
    5.7040   -0.3220   20.1160 C   0  0  0  0  0  0  0  0  0  0  0  0
    5.0330    0.7670   19.5420 C   0  0  0  0  0  0  0  0  0  0  0  0
    5.1590   -1.5400   19.9840 F   0  0  0  0  0  0  0  0  0  0  0  0
    3.8890    0.7720   18.8840 N   0  0  0  0  0  0  0  0  0  0  0  0
    3.0130    1.7800   19.4660 C   0  0  0  0  0  0  0  0  0  0  0  0
  1  2  2  3
  1  3  1  0
  3  4  1  0
  4  5  2  0
  6  4  1  6
  6  7  1  0
  6  8  1  0
  7  9  1  0
  8 10  1  0
  9 10  1  0
  8 11  1  1
 11 12  1  0
 11 13  2  0
 12 14  2  0
 13 15  1  0
 14 15  1  0
 13 16  1  0
 16 17  2  0
 16 18  1  0
 17 19  1  0
 18 20  2  0
 19 21  2  0
 20 21  1  0
 20 22  1  0
 21 23  1  0
 23 24  1  0
M  END
