BEN-VAN-77cef4f8-5-acrylamide
     RDKit          3D

 30 32  0  0  0  0  0  0  0  0999 V2000
    7.2810   -3.1440   19.0430 C   0  0  0  0  0  0  0  0  0  0  0  0
    6.2610   -2.4160   19.8820 C   0  0  0  0  0  0  0  0  0  0  0  0
    6.1890   -2.9830   21.2640 C   0  0  0  0  0  0  0  0  0  0  0  0
    5.0650   -3.6410   21.5680 O   0  0  0  0  0  0  0  0  0  0  0  0
    7.4220   -2.7610   22.0970 N   0  0  0  0  0  0  0  0  0  0  0  0
    7.4200   -3.1510   23.4110 C   0  0  0  0  0  0  0  0  0  0  0  0
    8.6950   -2.0100   21.7770 C   0  0  0  0  0  0  0  0  0  0  0  0
    8.7340   -3.8130   23.8820 C   0  0  0  0  0  0  0  0  0  0  0  0
   10.0210   -2.6190   22.0930 C   0  0  2  0  0  0  0  0  0  0  0  0
    9.9830   -3.2040   23.4230 O   0  0  0  0  0  0  0  0  0  0  0  0
   11.4310   -1.7960   21.8220 C   0  0  0  0  0  0  0  0  0  0  0  0
   11.4580   -0.7020   22.8430 C   0  0  0  0  0  0  0  0  0  0  0  0
   12.5840   -1.9110   20.7780 C   0  0  0  0  0  0  0  0  0  0  0  0
   12.6390    0.1620   22.6160 C   0  0  0  0  0  0  0  0  0  0  0  0
   13.7580   -0.9280   20.5940 C   0  0  0  0  0  0  0  0  0  0  0  0
   12.6960    1.1900   23.5020 F   0  0  0  0  0  0  0  0  0  0  0  0
   13.6300    0.1130   21.6670 C   0  0  0  0  0  0  0  0  0  0  0  0
   14.8800   -0.8180   19.3550 C   0  0  0  0  0  0  0  0  0  0  0  0
   14.4340    1.1760   21.8040 F   0  0  0  0  0  0  0  0  0  0  0  0
   15.4840   -1.8110   18.6960 O   0  0  0  0  0  0  0  0  0  0  0  0
   16.7850   -1.7120   17.9050 C   0  0  2  0  0  0  0  0  0  0  0  0
   17.1820   -2.7700   17.2360 C   0  0  0  0  0  0  0  0  0  0  0  0
   18.0460   -1.4880   18.6790 N   0  0  0  0  0  0  0  0  0  0  0  0
   19.3500   -2.0350   18.4150 C   0  0  0  0  0  0  0  0  0  0  0  0
   19.7210   -2.5580   17.0760 C   0  0  0  0  0  0  0  0  0  0  0  0
   20.5630   -2.1950   19.2640 C   0  0  0  0  0  0  0  0  0  0  0  0
   21.1220   -3.1060   16.7720 C   0  0  0  0  0  0  0  0  0  0  0  0
   21.8880   -2.7350   18.9180 N   0  0  0  0  0  0  0  0  0  0  0  0
   20.8480   -1.8120   20.9060 Cl  0  0  0  0  0  0  0  0  0  0  0  0
   22.1620   -3.1800   17.6860 C   0  0  0  0  0  0  0  0  0  0  0  0
  1  2  1  0
  2  3  1  0
  3  4  2  0
  3  5  1  0
  5  6  1  0
  5  7  1  0
  6  8  1  0
  7  9  1  0
  8 10  1  0
  9 10  1  0
  9 11  1  1
 11 12  2  0
 11 13  1  0
 12 14  1  0
 13 15  2  0
 14 16  1  0
 14 17  2  0
 15 17  1  0
 15 18  1  0
 17 19  1  0
 18 20  1  0
 20 21  1  0
 21 22  1  1
 21 23  1  0
 23 24  1  0
 24 25  2  0
 24 26  1  0
 25 27  1  0
 26 28  2  0
 26 29  1  0
 27 30  2  0
 28 30  1  0
M  END
