BEN-BAS-3b12fa42-1
     RDKit          3D

 30 33  0  0  0  0  0  0  0  0999 V2000
    8.6450    0.7380   21.4520 O   0  0  0  0  0  0  0  0  0  0  0  0
    8.3020   -0.4410   21.5770 C   0  0  0  0  0  0  0  0  0  0  0  0
    7.1110   -0.8960   21.0480 N   0  0  0  0  0  0  0  0  0  0  0  0
    9.1310   -1.3380   22.2370 N   0  0  0  0  0  0  0  0  0  0  0  0
    6.3980   -0.1560   20.0960 C   0  0  0  0  0  0  0  0  0  0  0  0
   10.4040   -0.8090   22.5370 C   0  0  0  0  0  0  0  0  0  0  0  0
    8.6590   -2.3470   23.1790 C   0  0  0  0  0  0  0  0  0  0  0  0
    5.0920    0.6190   20.3300 C   0  0  0  0  0  0  0  0  0  0  0  0
    6.9300   -0.1100   18.8130 C   0  0  0  0  0  0  0  0  0  0  0  0
   10.4590    0.4520   23.3690 C   0  0  0  0  0  0  0  0  0  0  0  0
   11.5520   -1.4370   22.0620 C   0  0  0  0  0  0  0  0  0  0  0  0
    7.3840   -2.9310   23.0640 C   0  0  0  0  0  0  0  0  0  0  0  0
    9.4890   -2.7580   24.2360 C   0  0  0  0  0  0  0  0  0  0  0  0
    4.5670    1.3020   19.2310 C   0  0  0  0  0  0  0  0  0  0  0  0
    6.3580    0.6000   17.7370 N   0  0  0  0  0  0  0  0  0  0  0  0
   11.8160    1.0430   23.6690 C   0  0  0  0  0  0  0  0  0  0  0  0
   12.9230   -0.8470   22.3630 C   0  0  0  0  0  0  0  0  0  0  0  0
    6.9520   -3.8960   23.9910 C   0  0  0  0  0  0  0  0  0  0  0  0
    9.0410   -3.7550   25.1950 C   0  0  0  0  0  0  0  0  0  0  0  0
    5.2160    1.2700   17.9890 C   0  0  0  0  0  0  0  0  0  0  0  0
   13.0260    0.3200   23.1120 C   0  0  0  0  0  0  0  0  0  0  0  0
    5.8400   -4.4160   23.9020 O   0  0  0  0  0  0  0  0  0  0  0  0
    7.7710   -4.3120   25.0630 C   0  0  0  0  0  0  0  0  0  0  0  0
    9.8100   -4.1580   26.2020 C   0  0  0  0  0  0  0  0  0  0  0  0
    4.7570   -3.4980   24.0050 C   0  0  0  0  0  0  0  0  0  0  0  0
    7.3280   -5.3610   26.1060 C   0  0  0  0  0  0  0  0  0  0  0  0
    9.3250   -5.1920   27.2010 C   0  0  0  0  0  0  0  0  0  0  0  0
    3.7760   -3.9240   23.1730 F   0  0  0  0  0  0  0  0  0  0  0  0
    4.2570   -3.5940   25.2630 F   0  0  0  0  0  0  0  0  0  0  0  0
    8.1150   -5.7980   27.1820 N   0  0  0  0  0  0  0  0  0  0  0  0
  1  2  2  0
  2  3  1  0
  2  4  1  0
  3  5  1  0
  4  6  1  0
  4  7  1  0
  5  8  2  0
  5  9  1  0
  6 10  2  0
  6 11  1  0
  7 12  2  0
  7 13  1  0
  8 14  1  0
  9 15  2  0
 10 16  1  0
 11 17  2  0
 12 18  1  0
 13 19  2  0
 14 20  2  0
 15 20  1  0
 16 21  2  0
 17 21  1  0
 18 22  1  0
 18 23  2  0
 19 23  1  0
 19 24  1  0
 22 25  1  0
 23 26  1  0
 24 27  2  0
 25 28  1  0
 25 29  1  0
 26 30  2  0
 27 30  1  0
M  END
