BEN-VAN-77cef4f8-11-chloroacetamide
     RDKit          3D

 29 31  0  0  0  0  0  0  0  0999 V2000
    7.2100   -3.0430   18.9640 C   0  0  0  0  0  0  0  0  0  0  0  0
    6.2910   -3.5250   20.0490 C   0  0  0  0  0  0  0  0  0  0  0  0
    5.3440   -4.2490   19.7760 O   0  0  0  0  0  0  0  0  0  0  0  0
    6.6040   -3.1350   21.3360 N   0  0  0  0  0  0  0  0  0  0  0  0
    6.2470   -3.8820   22.4690 C   0  0  0  0  0  0  0  0  0  0  0  0
    7.5020   -2.0730   21.5670 C   0  0  0  0  0  0  0  0  0  0  0  0
    7.3950   -4.2590   23.3800 C   0  0  0  0  0  0  0  0  0  0  0  0
    8.1260   -2.2210   22.9720 C   0  0  1  0  0  0  0  0  0  0  0  0
    8.4120   -3.5820   23.3470 O   0  0  0  0  0  0  0  0  0  0  0  0
    9.3920   -1.3980   23.1640 C   0  0  0  0  0  0  0  0  0  0  0  0
   10.5610   -1.9150   22.2900 C   0  0  0  0  0  0  0  0  0  0  0  0
    9.4530   -0.3070   24.0350 C   0  0  0  0  0  0  0  0  0  0  0  0
   11.8670   -1.1160   22.4510 C   0  0  0  0  0  0  0  0  0  0  0  0
   10.6380    0.3580   24.1270 C   0  0  0  0  0  0  0  0  0  0  0  0
    8.3230    0.1020   24.7890 C   0  0  0  0  0  0  0  0  0  0  0  0
   12.9700   -1.4760   21.7400 F   0  0  0  0  0  0  0  0  0  0  0  0
   11.7710    0.0290   23.4260 C   0  0  0  0  0  0  0  0  0  0  0  0
    8.6750    0.5290   26.0780 C   0  0  2  0  0  0  0  0  0  0  0  0
   12.9580    0.6880   23.5140 F   0  0  0  0  0  0  0  0  0  0  0  0
    9.5590   -0.3620   26.6870 C   0  0  0  0  0  0  0  0  0  0  0  0
    7.6660    0.5510   27.0060 N   0  0  0  0  0  0  0  0  0  0  0  0
    8.0550    0.9760   28.2350 C   0  0  0  0  0  0  0  0  0  0  0  0
    7.7040    2.3040   28.8590 C   0  0  0  0  0  0  0  0  0  0  0  0
    8.8270    0.1140   28.9460 N   0  0  0  0  0  0  0  0  0  0  0  0
    8.2350    2.6150   30.2440 C   0  0  0  0  0  0  0  0  0  0  0  0
    9.3130    0.4430   30.2550 C   0  0  0  0  0  0  0  0  0  0  0  0
    9.0390    1.6570   30.9090 C   0  0  0  0  0  0  0  0  0  0  0  0
    9.5510    1.9320   32.2170 C   0  0  0  0  0  0  0  0  0  0  0  0
   10.5260    3.0090   32.2230 N   0  0  0  0  0  0  0  0  0  0  0  0
  1  2  1  0
  2  3  2  0
  2  4  1  0
  4  5  1  0
  4  6  1  0
  5  7  1  0
  6  8  1  0
  7  9  1  0
  8  9  1  0
  8 10  1  6
 10 11  2  0
 10 12  1  0
 11 13  1  0
 12 14  2  0
 12 15  1  0
 13 16  1  0
 13 17  2  0
 14 17  1  0
 15 18  1  0
 17 19  1  0
 18 20  1  1
 18 21  1  0
 21 22  1  0
 22 23  2  0
 22 24  1  0
 23 25  1  0
 24 26  2  0
 25 27  2  0
 26 27  1  0
 27 28  1  0
 28 29  3  0
M  END
