BEN-VAN-d2b455e2-12-chloroacetamide
     RDKit          3D

 30 32  0  0  0  0  0  0  0  0999 V2000
    7.6390   -2.7240   18.8060 C   0  0  0  0  0  0  0  0  0  0  0  0
    6.8580   -2.3170   20.0550 C   0  0  0  0  0  0  0  0  0  0  0  0
    6.1040   -3.2510   19.4680 O   0  0  0  0  0  0  0  0  0  0  0  0
    7.9710   -1.3110   20.4160 N   0  0  0  0  0  0  0  0  0  0  0  0
    7.9340    0.1010   20.8970 C   0  0  0  0  0  0  0  0  0  0  0  0
    7.7060    1.0170   20.1280 O   0  0  0  0  0  0  0  0  0  0  0  0
    8.1890    0.5590   22.3500 C   0  0  1  0  0  0  0  0  0  0  0  0
    7.0120    0.4590   23.3110 C   0  0  0  0  0  0  0  0  0  0  0  0
    9.2280   -0.0930   23.2330 C   0  0  1  0  0  0  0  0  0  0  0  0
    7.1280   -0.9750   23.8400 C   0  0  0  0  0  0  0  0  0  0  0  0
    8.5380   -1.4370   23.4430 C   0  0  0  0  0  0  0  0  0  0  0  0
   10.7400   -0.0560   23.0430 C   0  0  0  0  0  0  0  0  0  0  0  0
   11.5020    1.1010   22.8570 C   0  0  0  0  0  0  0  0  0  0  0  0
   11.5360   -1.2010   23.0510 C   0  0  0  0  0  0  0  0  0  0  0  0
   10.9630    2.3880   22.7760 N   0  0  0  0  0  0  0  0  0  0  0  0
   12.8490    0.8110   22.7520 C   0  0  0  0  0  0  0  0  0  0  0  0
   13.1650   -0.8460   22.8430 S   0  0  0  0  0  0  0  0  0  0  0  0
   11.0750   -2.4400   23.2090 O   0  0  0  0  0  0  0  0  0  0  0  0
   11.0260    3.6080   23.5530 C   0  0  0  0  0  0  0  0  0  0  0  0
   10.1610   -2.8570   22.2100 C   0  0  0  0  0  0  0  0  0  0  0  0
   10.1800    3.8290   24.6580 C   0  0  0  0  0  0  0  0  0  0  0  0
   11.9240    4.6620   23.2590 C   0  0  0  0  0  0  0  0  0  0  0  0
   10.2450    5.0090   25.4160 C   0  0  0  0  0  0  0  0  0  0  0  0
   11.9160    5.7940   24.0580 C   0  0  0  0  0  0  0  0  0  0  0  0
   12.8530    4.6660   22.1930 C   0  0  0  0  0  0  0  0  0  0  0  0
    9.3860    5.1490   26.5090 N   0  0  0  0  0  0  0  0  0  0  0  0
   11.1100    5.9840   25.1140 N   0  0  0  0  0  0  0  0  0  0  0  0
   13.6120    4.7520   21.3360 N   0  0  0  0  0  0  0  0  0  0  0  0
    9.9720    5.8270   27.6690 C   0  0  0  0  0  0  0  0  0  0  0  0
    9.8860    5.0360   28.8190 C   0  0  0  0  0  0  0  0  0  0  0  0
  1  2  1  0
  2  3  2  0
  2  4  1  0
  4  5  1  0
  5  6  2  0
  7  5  1  6
  7  8  1  0
  7  9  1  0
  8 10  1  0
  9 11  1  0
 10 11  1  0
  9 12  1  6
 12 13  1  0
 12 14  2  0
 13 15  1  0
 13 16  2  0
 14 17  1  0
 16 17  1  0
 14 18  1  0
 15 19  1  0
 18 20  1  0
 19 21  2  0
 19 22  1  0
 21 23  1  0
 22 24  2  0
 22 25  1  0
 23 26  1  0
 23 27  2  0
 24 27  1  0
 25 28  3  0
 26 29  1  0
 29 30  1  0
M  END
