BEN-VAN-d2b455e2-11-chloroacetamide
     RDKit          3D

 32 34  0  0  0  0  0  0  0  0999 V2000
    7.5110   -2.7970   18.7630 C   0  0  0  0  0  0  0  0  0  0  0  0
    6.7500   -2.4920   20.0480 C   0  0  0  0  0  0  0  0  0  0  0  0
    5.9610   -3.3610   19.4610 O   0  0  0  0  0  0  0  0  0  0  0  0
    7.9160   -1.5720   20.3370 N   0  0  0  0  0  0  0  0  0  0  0  0
    7.8420   -0.1620   20.9130 C   0  0  0  0  0  0  0  0  0  0  0  0
    7.6080    0.8090   20.2050 O   0  0  0  0  0  0  0  0  0  0  0  0
    8.0630    0.0650   22.3220 C   0  0  1  0  0  0  0  0  0  0  0  0
    6.8520   -0.3810   23.0890 C   0  0  0  0  0  0  0  0  0  0  0  0
    9.0040   -0.9150   23.0940 C   0  0  1  0  0  0  0  0  0  0  0  0
    6.9240   -1.8580   23.2760 C   0  0  0  0  0  0  0  0  0  0  0  0
    8.2320   -2.1860   22.9370 C   0  0  0  0  0  0  0  0  0  0  0  0
   10.3590   -0.8820   22.7510 C   0  0  0  0  0  0  0  0  0  0  0  0
   11.1630   -1.9720   22.3450 C   0  0  0  0  0  0  0  0  0  0  0  0
   11.0860    0.2850   22.8000 C   0  0  0  0  0  0  0  0  0  0  0  0
   12.8030   -1.5990   22.0440 S   0  0  0  0  0  0  0  0  0  0  0  0
   12.4430    0.1170   22.4760 C   0  0  0  0  0  0  0  0  0  0  0  0
   10.6240    1.6750   23.1470 N   0  0  0  0  0  0  0  0  0  0  0  0
   11.4360    2.7450   22.8400 C   0  0  0  0  0  0  0  0  0  0  0  0
   12.7640    2.5870   22.5640 C   0  0  0  0  0  0  0  0  0  0  0  0
   10.9910    4.0600   22.7860 C   0  0  0  0  0  0  0  0  0  0  0  0
   13.1770    1.2980   22.6440 F   0  0  0  0  0  0  0  0  0  0  0  0
   13.7170    3.7070   22.2030 C   0  0  0  0  0  0  0  0  0  0  0  0
   11.7450    5.1770   22.4840 C   0  0  0  0  0  0  0  0  0  0  0  0
    9.5230    4.3690   23.0880 C   0  0  0  0  0  0  0  0  0  0  0  0
   14.7600    4.1080   21.9160 N   0  0  0  0  0  0  0  0  0  0  0  0
   13.0860    4.9450   22.2010 N   0  0  0  0  0  0  0  0  0  0  0  0
   11.2440    6.4230   22.4620 F   0  0  0  0  0  0  0  0  0  0  0  0
    8.9800    5.3490   23.8900 N   0  0  0  0  0  0  0  0  0  0  0  0
   15.2940    4.9520   22.9190 C   0  0  0  0  0  0  0  0  0  0  0  0
   16.6980    4.8130   23.5020 C   0  0  0  0  0  0  0  0  0  0  0  0
   17.5030    4.0940   22.9560 O   0  0  0  0  0  0  0  0  0  0  0  0
   18.1890    3.4970   24.0380 C   0  0  0  0  0  0  0  0  0  0  0  0
  1  2  1  0
  2  3  2  0
  2  4  1  0
  4  5  1  0
  5  6  2  0
  7  5  1  6
  7  8  1  0
  7  9  1  0
  8 10  1  0
  9 11  1  0
 10 11  1  0
  9 12  1  6
 12 13  2  0
 12 14  1  0
 13 15  1  0
 14 16  2  0
 15 16  1  0
 14 17  1  0
 17 18  1  0
 18 19  2  0
 18 20  1  0
 19 21  1  0
 19 22  1  0
 20 23  2  0
 20 24  1  0
 22 25  1  0
 22 26  2  0
 23 26  1  0
 23 27  1  0
 24 28  3  0
 25 29  1  0
 29 30  1  0
 30 31  1  0
 31 32  1  0
M  END
