BEN-VAN-d2b455e2-18-bromoalkyne
     RDKit          3D

 24 26  0  0  0  0  0  0  0  0999 V2000
    8.6740   -3.6590   19.8570 C   0  0  0  0  0  0  0  0  0  0  0  0
    7.0890   -3.5850   19.5250 C   0  0  0  0  0  0  0  0  0  0  0  0
    9.3920   -3.4660   21.1020 N   0  0  0  0  0  0  0  0  0  0  0  0
   10.6580   -2.6790   21.4230 C   0  0  0  0  0  0  0  0  0  0  0  0
   11.7320   -2.6650   20.8010 O   0  0  0  0  0  0  0  0  0  0  0  0
   10.7250   -1.8250   22.6700 C   0  0  2  0  0  0  0  0  0  0  0  0
    9.7050   -2.0850   23.7470 C   0  0  0  0  0  0  0  0  0  0  0  0
   10.8520   -0.2700   22.6100 C   0  0  2  0  0  0  0  0  0  0  0  0
    9.7230   -0.8190   24.5960 C   0  0  0  0  0  0  0  0  0  0  0  0
   10.9580   -0.0900   24.1400 C   0  0  0  0  0  0  0  0  0  0  0  0
    9.8490    0.8750   22.2100 C   0  0  0  0  0  0  0  0  0  0  0  0
   10.2470    2.0550   22.8370 C   0  0  0  0  0  0  0  0  0  0  0  0
    8.5680    1.2210   21.3790 C   0  0  0  0  0  0  0  0  0  0  0  0
    9.5000    3.2280   22.6370 C   0  0  0  0  0  0  0  0  0  0  0  0
    8.2220    2.8870   21.6220 S   0  0  0  0  0  0  0  0  0  0  0  0
    7.4190    0.9620   20.4730 C   0  0  0  0  0  0  0  0  0  0  0  0
    7.2370    0.6490   19.1230 N   0  0  0  0  0  0  0  0  0  0  0  0
    6.3270    1.1990   21.1760 N   0  0  0  0  0  0  0  0  0  0  0  0
    5.9400    0.6590   18.5060 C   0  0  0  0  0  0  0  0  0  0  0  0
    5.1390    1.2080   20.6050 C   0  0  0  0  0  0  0  0  0  0  0  0
    4.8280    0.9830   19.2980 C   0  0  0  0  0  0  0  0  0  0  0  0
    4.1350    1.4980   21.4400 F   0  0  0  0  0  0  0  0  0  0  0  0
    3.5150    1.0940   18.8910 N   0  0  0  0  0  0  0  0  0  0  0  0
    2.6980    2.0090   19.6970 C   0  0  0  0  0  0  0  0  0  0  0  0
  1  2  2  3
  1  3  1  0
  3  4  1  0
  4  5  2  0
  6  4  1  6
  6  7  1  0
  6  8  1  0
  7  9  1  0
  8 10  1  0
  9 10  1  0
  8 11  1  1
 11 12  1  0
 11 13  2  0
 12 14  2  0
 13 15  1  0
 14 15  1  0
 13 16  1  0
 16 17  2  0
 16 18  1  0
 17 19  1  0
 18 20  2  0
 19 21  2  0
 20 21  1  0
 20 22  1  0
 21 23  1  0
 23 24  1  0
M  END
