BEN-VAN-d8fd1356-27
     RDKit          3D

 23 25  0  0  0  0  0  0  0  0999 V2000
   13.5530    5.1530   22.6290 C   0  0  0  0  0  0  0  0  0  0  0  0
   12.1130    5.2340   23.0260 C   0  0  0  0  0  0  0  0  0  0  0  0
   12.7000    3.8580   22.8720 C   0  0  0  0  0  0  0  0  0  0  0  0
   11.6790    2.7810   22.9070 C   0  0  0  0  0  0  0  0  0  0  0  0
   10.2970    3.2770   23.1470 C   0  0  0  0  0  0  0  0  0  0  0  0
   11.6310    1.3690   22.7510 C   0  0  0  0  0  0  0  0  0  0  0  0
    9.5340    2.2170   23.0880 N   0  0  0  0  0  0  0  0  0  0  0  0
   10.2060    1.0310   22.8350 C   0  0  0  0  0  0  0  0  0  0  0  0
   12.5150    0.2940   22.5350 C   0  0  0  0  0  0  0  0  0  0  0  0
    9.6160   -0.2020   22.6900 C   0  0  0  0  0  0  0  0  0  0  0  0
   12.0000   -0.9890   22.3930 C   0  0  0  0  0  0  0  0  0  0  0  0
    8.2990   -0.2700   22.7900 O   0  0  0  0  0  0  0  0  0  0  0  0
   10.5950   -1.2270   22.4640 C   0  0  0  0  0  0  0  0  0  0  0  0
   12.8560   -2.0150   22.1730 F   0  0  0  0  0  0  0  0  0  0  0  0
    7.3580    0.0870   21.7110 C   0  0  0  0  0  0  0  0  0  0  0  0
    7.3080    1.4100   21.2420 C   0  0  0  0  0  0  0  0  0  0  0  0
    7.6930   -0.8160   20.5230 C   0  0  0  0  0  0  0  0  0  0  0  0
    6.3750    1.4170   20.0390 C   0  0  0  0  0  0  0  0  0  0  0  0
    7.1200   -0.5870   19.2430 C   0  0  0  0  0  0  0  0  0  0  0  0
    6.7810    0.6670   18.8830 N   0  0  0  0  0  0  0  0  0  0  0  0
    5.8960    0.8950   17.9470 C   0  0  0  0  0  0  0  0  0  0  0  0
    4.4480    0.6250   18.2370 C   0  0  0  0  0  0  0  0  0  0  0  0
    6.1910    1.3120   16.8500 O   0  0  0  0  0  0  0  0  0  0  0  0
  1  2  1  0
  2  3  1  0
  3  4  1  0
  4  5  2  0
  4  6  1  0
  5  7  1  0
  6  8  2  0
  7  8  1  0
  6  9  1  0
  8 10  1  0
  9 11  2  0
 10 12  1  0
 10 13  2  0
 11 13  1  0
 11 14  1  0
 12 15  1  0
 15 16  1  0
 15 17  1  0
 16 18  1  0
 17 19  1  0
 18 20  1  0
 19 20  1  0
 20 21  1  0
 21 22  1  0
 21 23  2  0
M  END
