BEN-VAN-d2b455e2-10-acrylamide
     RDKit          3D

 31 33  0  0  0  0  0  0  0  0999 V2000
    7.2770   -3.2210   19.4850 C   0  0  0  0  0  0  0  0  0  0  0  0
    5.9520   -2.6150   19.9340 C   0  0  0  0  0  0  0  0  0  0  0  0
    5.7210   -2.7790   21.4260 C   0  0  0  0  0  0  0  0  0  0  0  0
    4.8390   -3.5650   21.8310 O   0  0  0  0  0  0  0  0  0  0  0  0
    6.5120   -2.0190   22.3080 N   0  0  0  0  0  0  0  0  0  0  0  0
    7.9780   -1.8170   22.2460 C   0  0  0  0  0  0  0  0  0  0  0  0
    8.8110   -2.5560   22.7620 O   0  0  0  0  0  0  0  0  0  0  0  0
    8.3670   -0.5850   21.4610 C   0  0  1  0  0  0  0  0  0  0  0  0
    7.1780    0.1950   21.0160 C   0  0  0  0  0  0  0  0  0  0  0  0
    9.2050    0.2970   22.1450 C   0  0  1  0  0  0  0  0  0  0  0  0
    7.0750    1.1330   22.0060 C   0  0  0  0  0  0  0  0  0  0  0  0
    8.2290    0.9730   22.7840 C   0  0  0  0  0  0  0  0  0  0  0  0
   10.2670   -0.3120   22.8810 C   0  0  0  0  0  0  0  0  0  0  0  0
   10.9480   -1.5340   22.3550 C   0  0  0  0  0  0  0  0  0  0  0  0
   10.7690    0.1760   24.1180 C   0  0  0  0  0  0  0  0  0  0  0  0
   12.1860   -2.1040   23.3310 S   0  0  0  0  0  0  0  0  0  0  0  0
   11.7980   -0.7910   24.3560 C   0  0  0  0  0  0  0  0  0  0  0  0
    9.9420    1.3710   24.4130 N   0  0  0  0  0  0  0  0  0  0  0  0
    8.6800    1.1820   25.1550 C   0  0  0  0  0  0  0  0  0  0  0  0
    8.3640   -0.0050   26.0310 C   0  0  0  0  0  0  0  0  0  0  0  0
    7.5800    2.0920   25.1460 C   0  0  0  0  0  0  0  0  0  0  0  0
    7.0550   -0.1770   26.7770 C   0  0  0  0  0  0  0  0  0  0  0  0
    6.3860    1.9020   25.8470 C   0  0  0  0  0  0  0  0  0  0  0  0
    7.6220    3.2760   24.4100 C   0  0  0  0  0  0  0  0  0  0  0  0
    6.7710   -1.2520   27.5620 N   0  0  0  0  0  0  0  0  0  0  0  0
    6.0620    0.7580   26.6970 N   0  0  0  0  0  0  0  0  0  0  0  0
    7.4720    4.5880   24.8280 N   0  0  0  0  0  0  0  0  0  0  0  0
    6.1080   -2.3670   26.9430 C   0  0  0  0  0  0  0  0  0  0  0  0
    6.3240   -2.3610   25.4270 C   0  0  0  0  0  0  0  0  0  0  0  0
    6.7320   -3.6840   25.0480 O   0  0  0  0  0  0  0  0  0  0  0  0
    7.8340   -3.6590   24.1340 C   0  0  0  0  0  0  0  0  0  0  0  0
  1  2  1  0
  2  3  1  0
  3  4  2  0
  3  5  1  0
  5  6  1  0
  6  7  2  0
  8  6  1  1
  8  9  1  0
  8 10  1  0
  9 11  1  0
 10 12  1  0
 11 12  1  0
 10 13  1  1
 13 14  2  0
 13 15  1  0
 14 16  1  0
 15 17  2  0
 16 17  1  0
 15 18  1  0
 18 19  1  0
 19 20  2  0
 19 21  1  0
 20 22  1  0
 21 23  2  0
 21 24  1  0
 22 25  1  0
 22 26  2  0
 23 26  1  0
 24 27  3  0
 25 28  1  0
 28 29  1  0
 29 30  1  0
 30 31  1  0
M  END
