BEN-VAN-c986b20b-2
     RDKit          3D

 24 26  0  0  0  0  0  0  0  0999 V2000
    6.5130   -2.1270   18.8600 C   0  0  0  0  0  0  0  0  0  0  0  0
    6.0380   -2.9790   19.9670 C   0  0  0  0  0  0  0  0  0  0  0  0
    5.3410   -3.9550   19.6790 O   0  0  0  0  0  0  0  0  0  0  0  0
    6.4340   -2.6070   21.2680 N   0  0  0  0  0  0  0  0  0  0  0  0
    6.3530   -3.5990   22.3580 C   0  0  0  0  0  0  0  0  0  0  0  0
    7.4600   -1.5970   21.4790 C   0  0  0  0  0  0  0  0  0  0  0  0
    7.5130   -3.5300   23.3860 C   0  0  0  0  0  0  0  0  0  0  0  0
    8.8130   -2.2180   21.6770 C   0  0  0  0  0  0  0  0  0  0  0  0
    8.8200   -3.1090   22.8620 N   0  0  0  0  0  0  0  0  0  0  0  0
    9.8870   -2.9260   23.7570 C   0  0  0  0  0  0  0  0  0  0  0  0
   10.3810   -1.5930   23.7020 C   0  0  0  0  0  0  0  0  0  0  0  0
    9.7780   -0.4190   24.2010 C   0  0  0  0  0  0  0  0  0  0  0  0
   11.6000   -1.4180   23.0400 C   0  0  0  0  0  0  0  0  0  0  0  0
   10.3010    0.8480   24.0210 C   0  0  0  0  0  0  0  0  0  0  0  0
   12.1730   -0.1510   22.8410 C   0  0  0  0  0  0  0  0  0  0  0  0
   11.4610    1.0190   23.3350 C   0  0  0  0  0  0  0  0  0  0  0  0
   13.3560   -0.1160   22.1640 F   0  0  0  0  0  0  0  0  0  0  0  0
   11.6420    2.4060   23.2640 C   0  0  0  0  0  0  0  0  0  0  0  0
   13.0100    2.6320   22.7810 C   0  0  0  0  0  0  0  0  0  0  0  0
   11.1370    3.5370   23.4200 N   0  0  0  0  0  0  0  0  0  0  0  0
   13.3040    4.0660   22.6450 C   0  0  0  0  0  0  0  0  0  0  0  0
   11.5630    4.8690   23.2390 C   0  0  0  0  0  0  0  0  0  0  0  0
   14.7340    4.2840   22.1590 C   0  0  0  0  0  0  0  0  0  0  0  0
   12.7580    5.3500   22.8010 N   0  0  0  0  0  0  0  0  0  0  0  0
  1  2  1  0
  2  3  2  0
  2  4  1  0
  4  5  1  0
  4  6  1  0
  5  7  1  0
  6  8  1  0
  7  9  1  0
  8  9  1  0
  9 10  1  0
 10 11  1  0
 11 12  2  0
 11 13  1  0
 12 14  1  0
 13 15  2  0
 14 16  2  0
 15 16  1  0
 15 17  1  0
 16 18  1  0
 18 19  2  0
 18 20  1  0
 19 21  1  0
 20 22  2  0
 21 23  1  0
 21 24  2  0
 22 24  1  0
M  END
