BEN-VAN-77cef4f8-4-nitrile
     RDKit          3D

 27 29  0  0  0  0  0  0  0  0999 V2000
    6.9030   -3.7590   19.8290 C   0  0  0  0  0  0  0  0  0  0  0  0
    5.9890   -3.3090   19.0420 N   0  0  0  0  0  0  0  0  0  0  0  0
    6.4420   -4.0210   21.0880 N   0  0  0  0  0  0  0  0  0  0  0  0
    6.3220   -5.2660   21.6980 C   0  0  0  0  0  0  0  0  0  0  0  0
    6.6350   -3.0320   22.0420 C   0  0  0  0  0  0  0  0  0  0  0  0
    6.7670   -5.3040   23.1810 C   0  0  0  0  0  0  0  0  0  0  0  0
    7.7660   -3.6310   22.8850 C   0  0  2  0  0  0  0  0  0  0  0  0
    7.2920   -4.3370   23.7530 O   0  0  0  0  0  0  0  0  0  0  0  0
    8.7690   -2.5650   23.3170 C   0  0  0  0  0  0  0  0  0  0  0  0
    8.1910   -1.4830   24.2240 C   0  0  0  0  0  0  0  0  0  0  0  0
   10.0780   -2.6130   22.8860 C   0  0  0  0  0  0  0  0  0  0  0  0
    9.1460   -0.3660   24.6780 C   0  0  0  0  0  0  0  0  0  0  0  0
   10.9910   -1.6520   23.2510 C   0  0  0  0  0  0  0  0  0  0  0  0
   10.5930   -0.4780   24.1520 C   0  0  0  0  0  0  0  0  0  0  0  0
   12.2460   -1.8760   22.7280 C   0  0  0  0  0  0  0  0  0  0  0  0
   11.4700    0.4840   24.5130 F   0  0  0  0  0  0  0  0  0  0  0  0
   12.4990   -1.4340   21.4650 O   0  0  0  0  0  0  0  0  0  0  0  0
   13.6970   -0.6480   21.3370 C   0  0  2  0  0  0  0  0  0  0  0  0
   13.6850    0.6280   21.9860 C   0  0  0  0  0  0  0  0  0  0  0  0
   14.1780   -0.6860   19.9090 N   0  0  0  0  0  0  0  0  0  0  0  0
   15.2880   -0.2080   19.0240 C   0  0  0  0  0  0  0  0  0  0  0  0
   15.8980   -1.1750   18.1940 C   0  0  0  0  0  0  0  0  0  0  0  0
   15.9790    1.1010   18.7250 C   0  0  0  0  0  0  0  0  0  0  0  0
   16.8810   -1.0090   17.2840 C   0  0  0  0  0  0  0  0  0  0  0  0
   16.9350    1.2810   17.8280 N   0  0  0  0  0  0  0  0  0  0  0  0
   15.8450    2.7630   19.3190 Cl  0  0  0  0  0  0  0  0  0  0  0  0
   17.3970    0.3250   17.1140 C   0  0  0  0  0  0  0  0  0  0  0  0
  1  2  2  3
  1  3  1  0
  3  4  1  0
  3  5  1  0
  4  6  1  0
  5  7  1  0
  6  8  1  0
  7  8  1  0
  7  9  1  1
  9 10  2  0
  9 11  1  0
 10 12  1  0
 11 13  2  0
 12 14  2  0
 13 14  1  0
 13 15  1  0
 14 16  1  0
 15 17  1  0
 17 18  1  0
 18 19  1  6
 18 20  1  0
 20 21  1  0
 21 22  2  0
 21 23  1  0
 22 24  1  0
 23 25  2  0
 23 26  1  0
 24 27  2  0
 25 27  1  0
M  END
