BEN-DND-362d364a-12
     RDKit          3D

 22 23  0  0  0  0  0  0  0  0999 V2000
    7.4940   -5.5060   28.5350 C   0  0  0  0  0  0  0  0  0  0  0  0
    5.9660   -5.1190   29.3770 S   0  0  0  0  0  0  0  0  0  0  0  0
    5.9110   -3.6940   29.6060 O   0  0  0  0  0  0  0  0  0  0  0  0
    5.7590   -6.0920   30.4310 O   0  0  0  0  0  0  0  0  0  0  0  0
    4.8590   -5.4580   28.1980 N   0  0  0  0  0  0  0  0  0  0  0  0
    5.4670   -5.4410   26.8850 C   0  0  0  0  0  0  0  0  0  0  0  0
    4.5690   -5.5200   25.8730 C   0  0  2  0  0  0  0  0  0  0  0  0
    5.2850   -5.4440   24.7370 C   0  0  0  0  0  0  0  0  0  0  0  0
    3.5320   -4.3870   25.8730 C   0  0  0  0  0  0  0  0  0  0  0  0
    6.5100   -5.4950   24.6920 O   0  0  0  0  0  0  0  0  0  0  0  0
    4.4260   -5.2550   23.6040 N   0  0  0  0  0  0  0  0  0  0  0  0
    4.0320   -2.9400   25.9080 C   0  0  0  0  0  0  0  0  0  0  0  0
    2.1410   -4.6670   25.8360 C   0  0  0  0  0  0  0  0  0  0  0  0
    4.9140   -4.5760   22.5310 C   0  0  0  0  0  0  0  0  0  0  0  0
    2.9020   -1.8930   25.9020 C   0  0  0  0  0  0  0  0  0  0  0  0
    1.1390   -3.6560   25.8320 C   0  0  0  0  0  0  0  0  0  0  0  0
    5.5570   -5.2230   21.5410 C   0  0  0  0  0  0  0  0  0  0  0  0
    4.7660   -3.1740   22.4400 C   0  0  0  0  0  0  0  0  0  0  0  0
    1.4490   -2.3540   25.8640 C   0  0  0  0  0  0  0  0  0  0  0  0
    6.0170   -4.4000   20.4250 C   0  0  0  0  0  0  0  0  0  0  0  0
    5.2200   -2.3870   21.4130 N   0  0  0  0  0  0  0  0  0  0  0  0
    5.8360   -3.0440   20.4180 C   0  0  0  0  0  0  0  0  0  0  0  0
  1  2  1  0
  2  3  2  0
  2  4  2  0
  2  5  1  0
  5  6  1  0
  7  6  1  1
  7  8  1  0
  7  9  1  0
  8 10  2  0
  8 11  1  0
  9 12  2  0
  9 13  1  0
 11 14  1  0
 12 15  1  0
 13 16  2  0
 14 17  2  0
 14 18  1  0
 15 19  2  0
 16 19  1  0
 17 20  1  0
 18 21  2  0
 20 22  2  0
 21 22  1  0
M  END
