BEN-VAN-d2b455e2-15
     RDKit          3D

 23 25  0  0  0  0  0  0  0  0999 V2000
   13.6550   -1.6130   20.6480 C   0  0  0  0  0  0  0  0  0  0  0  0
   12.3770   -1.9450   21.0430 N   0  0  0  0  0  0  0  0  0  0  0  0
   12.5360   -1.9740   22.3420 C   0  0  0  0  0  0  0  0  0  0  0  0
   13.5720   -2.3750   22.8450 O   0  0  0  0  0  0  0  0  0  0  0  0
   11.4270   -1.4470   23.1700 C   0  0  2  0  0  0  0  0  0  0  0  0
   10.0560   -1.9750   23.1860 C   0  0  0  0  0  0  0  0  0  0  0  0
   11.1300    0.0660   23.1900 C   0  0  2  0  0  0  0  0  0  0  0  0
    9.3090   -1.0700   24.1690 C   0  0  0  0  0  0  0  0  0  0  0  0
   10.4050   -0.0390   24.5390 C   0  0  0  0  0  0  0  0  0  0  0  0
   10.0510    0.9840   22.4910 C   0  0  0  0  0  0  0  0  0  0  0  0
   10.5060    2.3620   22.8390 C   0  0  0  0  0  0  0  0  0  0  0  0
    8.7590    1.2390   21.6500 C   0  0  0  0  0  0  0  0  0  0  0  0
    9.8810    3.4800   22.4770 C   0  0  0  0  0  0  0  0  0  0  0  0
    8.5310    2.9670   21.5870 S   0  0  0  0  0  0  0  0  0  0  0  0
    7.5850    0.7650   20.8790 C   0  0  0  0  0  0  0  0  0  0  0  0
    7.0300    1.7440   20.1230 N   0  0  0  0  0  0  0  0  0  0  0  0
    6.9480   -0.4940   20.8910 N   0  0  0  0  0  0  0  0  0  0  0  0
    5.8630    1.6940   19.3950 C   0  0  0  0  0  0  0  0  0  0  0  0
    5.7700   -0.5190   20.1600 C   0  0  0  0  0  0  0  0  0  0  0  0
    5.1730    0.5440   19.4190 C   0  0  0  0  0  0  0  0  0  0  0  0
    5.1280   -1.6960   20.1860 F   0  0  0  0  0  0  0  0  0  0  0  0
    3.9970    0.6120   18.7340 N   0  0  0  0  0  0  0  0  0  0  0  0
    3.1800    1.6870   19.3030 C   0  0  0  0  0  0  0  0  0  0  0  0
  1  2  1  0
  2  3  1  0
  3  4  2  0
  5  3  1  6
  5  6  1  0
  5  7  1  0
  6  8  1  0
  7  9  1  0
  8  9  1  0
  7 10  1  6
 10 11  1  0
 10 12  2  0
 11 13  2  0
 12 14  1  0
 13 14  1  0
 12 15  1  0
 15 16  2  0
 15 17  1  0
 16 18  1  0
 17 19  2  0
 18 20  2  0
 19 20  1  0
 19 21  1  0
 20 22  1  0
 22 23  1  0
M  END
