BEN-VAN-77cef4f8-13-vinylsulfonamide
     RDKit          3D

 34 37  0  0  0  0  0  0  0  0999 V2000
    6.9660   -4.5650   20.3820 C   0  0  0  0  0  0  0  0  0  0  0  0
    5.6100   -4.4930   20.9090 C   0  0  0  0  0  0  0  0  0  0  0  0
    5.2910   -3.0440   19.9640 S   0  0  0  0  0  0  0  0  0  0  0  0
    4.0800   -2.4160   20.4840 O   0  0  0  0  0  0  0  0  0  0  0  0
    5.3390   -3.5000   18.5930 O   0  0  0  0  0  0  0  0  0  0  0  0
    6.9020   -2.4210   20.4900 C   0  0  0  0  0  0  0  0  0  0  0  0
    8.2940   -2.9880   20.2950 C   0  0  0  0  0  0  0  0  0  0  0  0
    7.3970   -1.3980   21.1910 C   0  0  0  0  0  0  0  0  0  0  0  0
    9.4860   -2.2080   20.9300 C   0  0  0  0  0  0  0  0  0  0  0  0
    7.8890   -0.3790   21.8890 N   0  0  0  0  0  0  0  0  0  0  0  0
    9.1840   -0.8840   21.7140 C   0  0  0  0  0  0  0  0  0  0  0  0
   10.4090   -0.2100   22.2450 N   0  0  0  0  0  0  0  0  0  0  0  0
   11.7410   -0.8660   22.3460 C   0  0  2  0  0  0  0  0  0  0  0  0
   12.0240   -1.9310   23.4230 C   0  0  0  0  0  0  0  0  0  0  0  0
   12.0960   -0.3280   23.6930 C   0  0  0  0  0  0  0  0  0  0  0  0
   11.0170    0.3390   24.2050 C   0  0  0  0  0  0  0  0  0  0  0  0
   10.8290    1.7890   24.0480 C   0  0  0  0  0  0  0  0  0  0  0  0
   10.0160   -0.3850   24.8940 C   0  0  0  0  0  0  0  0  0  0  0  0
    9.6880    2.4190   24.5790 C   0  0  0  0  0  0  0  0  0  0  0  0
    8.9020    0.3080   25.3840 C   0  0  0  0  0  0  0  0  0  0  0  0
    8.7150    1.6980   25.2370 C   0  0  0  0  0  0  0  0  0  0  0  0
    7.8240   -0.2830   26.0830 O   0  0  0  0  0  0  0  0  0  0  0  0
    6.6930    0.1170   25.3350 C   0  0  1  0  0  0  0  0  0  0  0  0
    7.5780    2.3680   25.7370 O   0  0  0  0  0  0  0  0  0  0  0  0
    5.6000   -0.9510   25.4700 C   0  0  2  0  0  0  0  0  0  0  0  0
    6.3570    1.5630   25.7200 C   0  0  0  0  0  0  0  0  0  0  0  0
    4.2800   -0.7490   25.0090 C   0  0  0  0  0  0  0  0  0  0  0  0
    5.5390   -1.3830   26.6260 O   0  0  0  0  0  0  0  0  0  0  0  0
    3.7920   -2.0840   24.7210 N   0  0  0  0  0  0  0  0  0  0  0  0
    4.8410   -2.6480   26.7760 C   0  0  0  0  0  0  0  0  0  0  0  0
    4.1100   -2.5460   23.4210 C   0  0  0  0  0  0  0  0  0  0  0  0
    3.8110   -2.9190   25.8160 C   0  0  0  0  0  0  0  0  0  0  0  0
    5.0250   -1.7150   22.7080 C   0  0  0  0  0  0  0  0  0  0  0  0
    3.6020   -3.7680   22.8240 O   0  0  0  0  0  0  0  0  0  0  0  0
  1  2  1  0
  3  2  1  0
  3  4  2  0
  3  5  2  0
  3  6  1  0
  6  7  2  0
  6  8  1  0
  7  9  1  0
  8 10  2  0
  9 11  2  0
 10 11  1  0
 11 12  1  0
 12 13  1  0
 13 14  1  1
 13 15  1  0
 15 16  1  0
 16 17  2  0
 16 18  1  0
 17 19  1  0
 18 20  2  0
 19 21  2  0
 20 21  1  0
 20 22  1  0
 22 23  1  0
 21 24  1  0
 23 25  1  0
 23 26  1  1
 24 26  1  0
 25 27  1  1
 25 28  1  0
 27 29  1  0
 28 30  1  0
 29 31  1  0
 29 32  1  0
 30 32  1  0
 31 33  1  0
 31 34  2  0
M  END
