BEN-VAN-5787f7d3-9
     RDKit          3D

 32 35  0  0  0  0  0  0  0  0999 V2000
    1.5210   -1.2290   26.7310 C   0  0  0  0  0  0  0  0  0  0  0  0
    2.7110   -0.7660   27.5330 C   0  0  0  0  0  0  0  0  0  0  0  0
    3.6440   -0.2080   26.9490 O   0  0  0  0  0  0  0  0  0  0  0  0
    3.9280   -0.5600   25.6340 C   0  0  0  0  0  0  0  0  0  0  0  0
    4.0700    0.2710   24.4090 C   0  0  0  0  0  0  0  0  0  0  0  0
    4.0940   -2.0680   25.5520 C   0  0  0  0  0  0  0  0  0  0  0  0
    4.3480   -0.3550   23.1400 C   0  0  0  0  0  0  0  0  0  0  0  0
    3.5400   -2.5650   24.3890 N   0  0  0  0  0  0  0  0  0  0  0  0
    4.6950   -2.6740   26.4390 O   0  0  0  0  0  0  0  0  0  0  0  0
    4.9530   -0.0350   21.7710 C   0  0  0  0  0  0  0  0  0  0  0  0
    4.0130   -1.6050   23.4480 C   0  0  0  0  0  0  0  0  0  0  0  0
    3.9780   -3.8000   23.8690 C   0  0  0  0  0  0  0  0  0  0  0  0
    4.3370    0.2550   20.3370 C   0  0  0  0  0  0  0  0  0  0  0  0
    6.3410    0.0010   21.7340 C   0  0  0  0  0  0  0  0  0  0  0  0
    3.5530   -5.1080   24.3890 C   0  0  0  0  0  0  0  0  0  0  0  0
    4.8340   -3.7060   22.8110 C   0  0  0  0  0  0  0  0  0  0  0  0
    5.2020    0.5040   19.1570 N   0  0  0  0  0  0  0  0  0  0  0  0
    7.0790    0.2380   20.5830 C   0  0  0  0  0  0  0  0  0  0  0  0
    7.1770   -0.2250   22.9710 C   0  0  0  0  0  0  0  0  0  0  0  0
    4.0680   -6.2230   23.7420 C   0  0  0  0  0  0  0  0  0  0  0  0
    5.3160   -4.8190   22.2070 C   0  0  0  0  0  0  0  0  0  0  0  0
    6.5280    0.4760   19.3510 C   0  0  0  0  0  0  0  0  0  0  0  0
    3.5340   -7.7110   24.3740 Cl  0  0  0  0  0  0  0  0  0  0  0  0
    4.9550   -6.0940   22.6500 C   0  0  0  0  0  0  0  0  0  0  0  0
    6.1540   -4.5840   21.1480 C   0  0  0  0  0  0  0  0  0  0  0  0
    5.6300   -4.5330   20.0250 O   0  0  0  0  0  0  0  0  0  0  0  0
    7.4470   -4.4480   21.5450 N   0  0  0  0  0  0  0  0  0  0  0  0
    8.1640   -3.2500   21.6160 C   0  0  0  0  0  0  0  0  0  0  0  0
    8.1850   -2.1330   20.8210 C   0  0  0  0  0  0  0  0  0  0  0  0
    9.0560   -3.0430   22.6290 O   0  0  0  0  0  0  0  0  0  0  0  0
    9.1420   -1.1680   21.3820 C   0  0  0  0  0  0  0  0  0  0  0  0
    9.6330   -1.8070   22.4770 C   0  0  0  0  0  0  0  0  0  0  0  0
  1  2  1  0
  2  3  1  0
  3  4  1  0
  4  5  2  0
  4  6  1  0
  5  7  1  0
  6  8  1  0
  6  9  2  0
  7 10  1  0
  7 11  2  0
  8 11  1  0
  8 12  1  0
 10 13  2  0
 10 14  1  0
 12 15  2  0
 12 16  1  0
 13 17  1  0
 14 18  2  0
 14 19  1  0
 15 20  1  0
 16 21  2  0
 17 22  2  0
 18 22  1  0
 20 23  1  0
 20 24  2  0
 21 24  1  0
 21 25  1  0
 25 26  2  0
 25 27  1  0
 27 28  1  0
 28 29  2  0
 28 30  1  0
 29 31  1  0
 30 32  1  0
 31 32  2  0
M  END
