BEN-VAN-77cef4f8-6-nitrile
     RDKit          3D

 28 30  0  0  0  0  0  0  0  0999 V2000
    6.8700   -3.4890   19.6890 C   0  0  0  0  0  0  0  0  0  0  0  0
    5.9270   -3.1560   18.8970 N   0  0  0  0  0  0  0  0  0  0  0  0
    6.6970   -3.2050   21.0200 N   0  0  0  0  0  0  0  0  0  0  0  0
    6.2750   -4.1130   21.9600 C   0  0  0  0  0  0  0  0  0  0  0  0
    7.4720   -2.1890   21.6150 C   0  0  0  0  0  0  0  0  0  0  0  0
    7.2840   -4.3340   23.0920 C   0  0  0  0  0  0  0  0  0  0  0  0
    8.5940   -2.8750   22.4420 C   0  0  2  0  0  0  0  0  0  0  0  0
    8.1540   -3.5100   23.4000 O   0  0  0  0  0  0  0  0  0  0  0  0
    9.6600   -1.9060   22.9180 C   0  0  0  0  0  0  0  0  0  0  0  0
    9.1660   -1.1580   24.1180 C   0  0  0  0  0  0  0  0  0  0  0  0
   10.9300   -1.6850   22.3770 C   0  0  0  0  0  0  0  0  0  0  0  0
   10.1450   -0.1690   24.6600 C   0  0  0  0  0  0  0  0  0  0  0  0
   11.7490   -0.7580   22.9440 C   0  0  0  0  0  0  0  0  0  0  0  0
   11.3820   -2.3480   21.3190 F   0  0  0  0  0  0  0  0  0  0  0  0
    9.3890    0.4460   25.8560 C   0  0  0  0  0  0  0  0  0  0  0  0
   11.4230    0.0010   24.0410 C   0  0  0  0  0  0  0  0  0  0  0  0
    9.7570    0.0290   26.9520 O   0  0  0  0  0  0  0  0  0  0  0  0
   12.3540    0.8490   24.4320 F   0  0  0  0  0  0  0  0  0  0  0  0
    8.9020    0.2580   28.0090 C   0  0  2  0  0  0  0  0  0  0  0  0
    7.8430    1.0390   27.5610 C   0  0  0  0  0  0  0  0  0  0  0  0
    9.7320    0.6370   29.0140 N   0  0  0  0  0  0  0  0  0  0  0  0
    9.1300    0.8270   30.3070 C   0  0  0  0  0  0  0  0  0  0  0  0
   10.4350    0.7050   30.7590 C   0  0  0  0  0  0  0  0  0  0  0  0
    7.9620    1.0380   31.0480 C   0  0  0  0  0  0  0  0  0  0  0  0
   10.5740    0.8080   32.1520 C   0  0  0  0  0  0  0  0  0  0  0  0
    8.0420    1.1460   32.3870 N   0  0  0  0  0  0  0  0  0  0  0  0
    6.3750    1.1790   30.3840 Cl  0  0  0  0  0  0  0  0  0  0  0  0
    9.4080    1.0220   32.9340 C   0  0  0  0  0  0  0  0  0  0  0  0
  1  2  2  3
  1  3  1  0
  3  4  1  0
  3  5  1  0
  4  6  1  0
  5  7  1  0
  6  8  1  0
  7  8  1  0
  7  9  1  1
  9 10  2  0
  9 11  1  0
 10 12  1  0
 11 13  2  0
 11 14  1  0
 12 15  1  0
 12 16  2  0
 13 16  1  0
 15 17  1  0
 16 18  1  0
 17 19  1  0
 19 20  1  6
 19 21  1  0
 21 22  1  0
 22 23  2  0
 22 24  1  0
 23 25  1  0
 24 26  2  0
 24 27  1  0
 25 28  2  0
 26 28  1  0
M  END
