BEN-DND-031a96cc-8
     RDKit          3D

 17 18  0  0  0  0  0  0  0  0999 V2000
    6.6350   -5.2060   23.9510 C   0  0  0  0  0  0  0  0  0  0  0  0
    6.3890   -3.7450   23.8100 C   0  0  0  0  0  0  0  0  0  0  0  0
    6.1280   -2.9030   25.0700 C   0  0  0  0  0  0  0  0  0  0  0  0
    6.3700   -3.2960   22.4230 C   0  0  0  0  0  0  0  0  0  0  0  0
    4.9810   -2.7750   25.5190 O   0  0  0  0  0  0  0  0  0  0  0  0
    7.2450   -2.3590   25.6190 N   0  0  0  0  0  0  0  0  0  0  0  0
    6.7920   -2.1050   21.8290 C   0  0  0  0  0  0  0  0  0  0  0  0
    5.8330   -4.2530   21.5650 C   0  0  0  0  0  0  0  0  0  0  0  0
    7.0420   -1.4150   26.7170 C   0  0  0  0  0  0  0  0  0  0  0  0
    6.6100   -1.9610   20.2990 C   0  0  0  0  0  0  0  0  0  0  0  0
    5.6260   -4.1910   20.1150 N   0  0  0  0  0  0  0  0  0  0  0  0
    6.0540   -0.2740   26.4220 C   0  0  0  0  0  0  0  0  0  0  0  0
    7.6490   -1.4420   27.9970 C   0  0  0  0  0  0  0  0  0  0  0  0
    5.9860   -3.0730   19.4500 C   0  0  0  0  0  0  0  0  0  0  0  0
    5.8150    0.7280   27.5260 C   0  0  0  0  0  0  0  0  0  0  0  0
    7.3680   -0.4670   28.9690 C   0  0  0  0  0  0  0  0  0  0  0  0
    6.4820    0.5810   28.7380 C   0  0  0  0  0  0  0  0  0  0  0  0
  1  2  2  3
  2  3  1  0
  2  4  1  0
  3  5  2  0
  3  6  1  0
  4  7  2  0
  4  8  1  0
  6  9  1  0
  7 10  1  0
  8 11  2  0
  9 12  2  0
  9 13  1  0
 10 14  2  0
 11 14  1  0
 12 15  1  0
 13 16  2  0
 15 17  2  0
 16 17  1  0
M  END
