BEN-VAN-77cef4f8-14-acrylamide
     RDKit          3D

 33 36  0  0  0  0  0  0  0  0999 V2000
    6.1670   -5.7660   19.8580 C   0  0  0  0  0  0  0  0  0  0  0  0
    5.9900   -5.9870   21.3260 C   0  0  0  0  0  0  0  0  0  0  0  0
    5.9980   -4.6460   21.9380 C   0  0  0  0  0  0  0  0  0  0  0  0
    4.9340   -3.9860   21.9170 O   0  0  0  0  0  0  0  0  0  0  0  0
    7.3440   -4.1810   22.5160 C   0  0  0  0  0  0  0  0  0  0  0  0
    8.3930   -3.3640   21.7090 C   0  0  0  0  0  0  0  0  0  0  0  0
    7.7020   -4.4610   23.7690 C   0  0  0  0  0  0  0  0  0  0  0  0
    9.8200   -2.7820   22.1170 C   0  0  0  0  0  0  0  0  0  0  0  0
    8.8560   -4.0480   24.2630 N   0  0  0  0  0  0  0  0  0  0  0  0
    9.7680   -3.3230   23.5750 C   0  0  0  0  0  0  0  0  0  0  0  0
   10.8140   -3.0450   24.4300 N   0  0  0  0  0  0  0  0  0  0  0  0
   12.2640   -3.1180   24.3730 C   0  0  1  0  0  0  0  0  0  0  0  0
   13.1810   -2.5650   23.2850 C   0  0  0  0  0  0  0  0  0  0  0  0
   12.9630   -1.8100   24.5430 C   0  0  0  0  0  0  0  0  0  0  0  0
   12.2840   -0.6650   24.0740 C   0  0  0  0  0  0  0  0  0  0  0  0
   12.7270    0.4470   23.3640 C   0  0  0  0  0  0  0  0  0  0  0  0
   10.7910   -0.6830   24.4090 C   0  0  0  0  0  0  0  0  0  0  0  0
   11.8790    1.4770   22.9730 C   0  0  0  0  0  0  0  0  0  0  0  0
    9.9900    0.3210   24.0100 C   0  0  0  0  0  0  0  0  0  0  0  0
   10.5130    1.3830   23.3030 C   0  0  0  0  0  0  0  0  0  0  0  0
    8.8220    0.2580   24.2770 O   0  0  0  0  0  0  0  0  0  0  0  0
    8.0590    0.4140   23.1000 C   0  0  2  0  0  0  0  0  0  0  0  0
    9.7670    2.2590   22.9460 O   0  0  0  0  0  0  0  0  0  0  0  0
    8.0480   -0.8620   22.4380 C   0  0  2  0  0  0  0  0  0  0  0  0
    8.5890    1.6600   22.3720 C   0  0  0  0  0  0  0  0  0  0  0  0
    7.3900   -0.9100   21.1600 C   0  0  0  0  0  0  0  0  0  0  0  0
    7.5190   -1.9010   23.2890 O   0  0  0  0  0  0  0  0  0  0  0  0
    6.4490   -1.9280   21.0640 N   0  0  0  0  0  0  0  0  0  0  0  0
    6.0920   -2.0020   23.4000 C   0  0  0  0  0  0  0  0  0  0  0  0
    6.0980   -2.5090   19.8520 C   0  0  0  0  0  0  0  0  0  0  0  0
    5.4810   -1.8750   22.1520 C   0  0  0  0  0  0  0  0  0  0  0  0
    6.5010   -1.7460   18.7230 C   0  0  0  0  0  0  0  0  0  0  0  0
    5.4410   -3.6860   19.7190 O   0  0  0  0  0  0  0  0  0  0  0  0
  1  2  1  0
  2  3  1  0
  3  4  2  0
  3  5  1  0
  5  6  2  0
  5  7  1  0
  6  8  1  0
  7  9  2  0
  8 10  2  0
  9 10  1  0
 10 11  1  0
 11 12  1  0
 12 13  1  6
 12 14  1  0
 14 15  1  0
 15 16  2  0
 15 17  1  0
 16 18  1  0
 17 19  2  0
 18 20  2  0
 19 20  1  0
 19 21  1  0
 21 22  1  0
 20 23  1  0
 22 24  1  0
 22 25  1  6
 23 25  1  0
 24 26  1  6
 24 27  1  0
 26 28  1  0
 27 29  1  0
 28 30  1  0
 28 31  1  0
 29 31  1  0
 30 32  1  0
 30 33  2  0
M  END
