BEN-BAS-c3742787-1-nitrile
     RDKit          3D

 24 26  0  0  0  0  0  0  0  0999 V2000
    7.3940   -4.7460   20.1020 C   0  0  0  0  0  0  0  0  0  0  0  0
    6.2430   -5.3050   20.0230 N   0  0  0  0  0  0  0  0  0  0  0  0
    7.5440   -3.4020   20.2840 N   0  0  0  0  0  0  0  0  0  0  0  0
    6.7250   -2.4240   19.5750 C   0  0  0  0  0  0  0  0  0  0  0  0
    8.1310   -2.8530   21.5100 C   0  0  0  0  0  0  0  0  0  0  0  0
    5.5020   -2.1060   20.4310 C   0  0  0  0  0  0  0  0  0  0  0  0
    7.2980   -1.8830   22.1220 C   0  0  0  0  0  0  0  0  0  0  0  0
    5.8270   -2.1050   21.8660 N   0  0  0  0  0  0  0  0  0  0  0  0
    5.0090   -2.8990   22.7160 C   0  0  0  0  0  0  0  0  0  0  0  0
    4.3410   -3.8120   22.1920 O   0  0  0  0  0  0  0  0  0  0  0  0
    4.8660   -2.6500   24.2840 C   0  0  0  0  0  0  0  0  0  0  0  0
    3.4990   -2.3200   24.6330 C   0  0  0  0  0  0  0  0  0  0  0  0
    4.1520   -1.1160   24.9390 C   0  0  0  0  0  0  0  0  0  0  0  0
    3.8070   -3.5500   24.2330 N   0  0  0  0  0  0  0  0  0  0  0  0
    5.5680   -1.0830   24.8460 C   0  0  0  0  0  0  0  0  0  0  0  0
    5.1760   -3.5640   24.1430 C   0  0  0  0  0  0  0  0  0  0  0  0
    6.0390   -2.3720   24.4450 C   0  0  0  0  0  0  0  0  0  0  0  0
    5.7850   -4.7920   23.7430 C   0  0  0  0  0  0  0  0  0  0  0  0
    7.4290   -2.5200   24.3290 C   0  0  0  0  0  0  0  0  0  0  0  0
    7.1640   -4.9780   23.6060 C   0  0  0  0  0  0  0  0  0  0  0  0
    8.0520   -3.7950   23.9150 C   0  0  0  0  0  0  0  0  0  0  0  0
    7.7650   -6.3120   23.1610 C   0  0  0  0  0  0  0  0  0  0  0  0
    9.0780   -6.5060   23.4300 N   0  0  0  0  0  0  0  0  0  0  0  0
    7.0890   -7.1630   22.5920 O   0  0  0  0  0  0  0  0  0  0  0  0
  1  2  2  3
  1  3  1  0
  3  4  1  0
  3  5  1  0
  4  6  1  0
  5  7  1  0
  6  8  1  0
  7  8  1  0
  8  9  1  0
  9 10  2  0
  9 11  1  0
 11 12  1  0
 12 13  2  0
 12 14  1  0
 13 15  1  0
 14 16  2  0
 15 17  2  0
 16 17  1  0
 16 18  1  0
 17 19  1  0
 18 20  2  0
 19 21  2  0
 20 21  1  0
 20 22  1  0
 22 23  1  0
 22 24  2  0
M  END
