BEN-VAN-ed886787-11-acrylamide
     RDKit          3D

 32 34  0  0  0  0  0  0  0  0999 V2000
    8.5290   -3.8430   20.4050 C   0  0  0  0  0  0  0  0  0  0  0  0
    7.5020   -2.7390   20.1510 C   0  0  0  0  0  0  0  0  0  0  0  0
    6.0990   -3.1470   20.5490 C   0  0  0  0  0  0  0  0  0  0  0  0
    5.1430   -3.6080   21.2220 O   0  0  0  0  0  0  0  0  0  0  0  0
    6.7690   -3.6140   21.8020 C   0  0  0  0  0  0  0  0  0  0  0  0
    6.0890   -4.6700   22.4330 C   0  0  0  0  0  0  0  0  0  0  0  0
    7.9790   -3.1410   22.4400 C   0  0  0  0  0  0  0  0  0  0  0  0
    6.4680   -5.2970   23.6050 C   0  0  0  0  0  0  0  0  0  0  0  0
    8.3530   -3.8380   23.6780 N   0  0  0  0  0  0  0  0  0  0  0  0
    8.9020   -1.9580   21.9380 C   0  0  0  0  0  0  0  0  0  0  0  0
    7.6200   -4.8610   24.2190 C   0  0  0  0  0  0  0  0  0  0  0  0
   10.3170   -1.7270   22.2470 C   0  0  0  0  0  0  0  0  0  0  0  0
    8.1800   -5.3750   25.3750 N   0  0  0  0  0  0  0  0  0  0  0  0
    9.6720   -0.5620   22.7060 C   0  0  0  0  0  0  0  0  0  0  0  0
   11.5610   -0.7520   22.8650 C   0  0  0  0  0  0  0  0  0  0  0  0
    9.3850   -5.9330   25.1300 C   0  0  0  0  0  0  0  0  0  0  0  0
   10.5990    0.0100   23.0920 C   0  0  0  0  0  0  0  0  0  0  0  0
   12.0710   -1.8800   22.4020 C   0  0  0  0  0  0  0  0  0  0  0  0
   13.1760   -0.3820   23.2530 Cl  0  0  0  0  0  0  0  0  0  0  0  0
    9.4660   -6.3520   23.6570 C   0  0  0  0  0  0  0  0  0  0  0  0
    9.8810    0.9360   23.4270 O   0  0  0  0  0  0  0  0  0  0  0  0
   10.8230   -1.4190   22.4550 C   0  0  0  0  0  0  0  0  0  0  0  0
    8.5860    0.8220   22.9880 C   0  0  0  0  0  0  0  0  0  0  0  0
    8.2370    0.5450   21.5740 C   0  0  0  0  0  0  0  0  0  0  0  0
    8.7330    1.5380   21.0350 O   0  0  0  0  0  0  0  0  0  0  0  0
    7.7760   -0.0540   20.6890 N   0  0  0  0  0  0  0  0  0  0  0  0
    6.6200    0.4480   19.9490 C   0  0  0  0  0  0  0  0  0  0  0  0
    5.4070    0.8140   20.6940 C   0  0  0  0  0  0  0  0  0  0  0  0
    6.7260    0.5520   18.5710 C   0  0  0  0  0  0  0  0  0  0  0  0
    4.5630    1.2580   19.4540 C   0  0  0  0  0  0  0  0  0  0  0  0
    6.3210    0.8070   17.5550 N   0  0  0  0  0  0  0  0  0  0  0  0
    5.2590    1.1390   18.1550 C   0  0  0  0  0  0  0  0  0  0  0  0
  1  2  1  0
  2  3  1  0
  3  4  2  0
  3  5  1  0
  5  6  2  0
  5  7  1  0
  6  8  1  0
  7  9  2  0
  7 10  1  0
  8 11  2  0
  9 11  1  0
 10 12  1  0
 11 13  1  0
 12 14  2  0
 12 15  1  0
 13 16  1  0
 14 17  1  0
 15 18  2  0
 15 19  1  0
 16 20  1  0
 17 21  1  0
 17 22  2  0
 18 22  1  0
 21 23  1  0
 23 24  1  0
 24 25  2  0
 24 26  1  0
 26 27  1  0
 27 28  2  0
 27 29  1  0
 28 30  1  0
 29 31  2  0
 30 32  2  0
 31 32  1  0
M  END
