BEN-DND-362d364a-6-acrylamide
     RDKit          3D

 20 20  0  0  0  0  0  0  0  0999 V2000
    8.3620   -4.2910   21.2290 C   0  0  0  0  0  0  0  0  0  0  0  0
    7.3730   -3.6960   22.2280 C   0  0  0  0  0  0  0  0  0  0  0  0
    6.3660   -2.6370   21.7930 C   0  0  0  0  0  0  0  0  0  0  0  0
    5.0470   -3.2020   21.2610 O   0  0  0  0  0  0  0  0  0  0  0  0
    6.9990   -1.0970   22.1530 C   0  0  0  0  0  0  0  0  0  0  0  0
    8.5010   -1.3500   22.0890 C   0  0  0  0  0  0  0  0  0  0  0  0
    8.0210   -0.2820   22.3500 C   0  0  0  0  0  0  0  0  0  0  0  0
    9.1890    0.0380   22.4290 N   0  0  0  0  0  0  0  0  0  0  0  0
    7.3880    0.9100   22.6540 C   0  0  0  0  0  0  0  0  0  0  0  0
    8.6130    1.3270   22.7430 C   0  0  0  0  0  0  0  0  0  0  0  0
    5.9660    1.4820   22.8140 C   0  0  0  0  0  0  0  0  0  0  0  0
    9.2040    2.6170   23.0470 N   0  0  0  0  0  0  0  0  0  0  0  0
    5.0130    1.1060   21.6770 C   0  0  0  0  0  0  0  0  0  0  0  0
    8.9720    3.3140   24.3240 C   0  0  0  0  0  0  0  0  0  0  0  0
    5.3850    1.7350   20.4100 N   0  0  0  0  0  0  0  0  0  0  0  0
    8.2540    4.4930   24.1370 C   0  0  0  0  0  0  0  0  0  0  0  0
    6.0040    0.7490   19.2080 S   0  0  0  0  0  0  0  0  0  0  0  0
    5.1340    1.2890   17.7720 C   0  0  0  0  0  0  0  0  0  0  0  0
    5.5660   -0.5930   19.5260 O   0  0  0  0  0  0  0  0  0  0  0  0
    7.3900    1.0680   19.0600 O   0  0  0  0  0  0  0  0  0  0  0  0
  1  2  1  0
  2  3  1  0
  3  4  2  0
  3  5  1  0
  5  6  2  0
  5  7  1  0
  6  8  1  0
  7  9  2  0
  8 10  2  0
  9 10  1  0
  9 11  1  0
 10 12  1  0
 11 13  1  0
 12 14  1  0
 13 15  1  0
 14 16  1  0
 17 15  1  0
 17 18  1  0
 17 19  2  0
 17 20  2  0
M  END
