BEN-DND-362d364a-8
     RDKit          3D

 23 24  0  0  0  0  0  0  0  0999 V2000
    9.0340    6.6180   22.5910 C   0  0  0  0  0  0  0  0  0  0  0  0
   10.2660    6.1680   23.3290 C   0  0  0  0  0  0  0  0  0  0  0  0
   10.3600    6.3090   24.5530 O   0  0  0  0  0  0  0  0  0  0  0  0
   11.2630    5.5910   22.5680 N   0  0  0  0  0  0  0  0  0  0  0  0
   12.2990    4.8410   23.2770 C   0  0  0  0  0  0  0  0  0  0  0  0
   12.4860    3.5610   22.7870 C   0  0  0  0  0  0  0  0  0  0  0  0
   11.5720    2.6200   23.2610 C   0  0  0  0  0  0  0  0  0  0  0  0
   10.3780    2.8380   23.9920 C   0  0  0  0  0  0  0  0  0  0  0  0
   11.6480    1.1750   23.0830 C   0  0  0  0  0  0  0  0  0  0  0  0
    9.7550    1.6200   24.2380 N   0  0  0  0  0  0  0  0  0  0  0  0
   10.5410    0.5820   23.6630 C   0  0  0  0  0  0  0  0  0  0  0  0
   12.5240    0.2730   22.4840 C   0  0  0  0  0  0  0  0  0  0  0  0
   10.2160   -0.7780   23.6940 C   0  0  0  0  0  0  0  0  0  0  0  0
   12.2660   -1.0330   22.4590 C   0  0  0  0  0  0  0  0  0  0  0  0
    8.9880   -1.3700   24.3350 C   0  0  0  0  0  0  0  0  0  0  0  0
   11.0970   -1.5730   23.0760 C   0  0  0  0  0  0  0  0  0  0  0  0
   13.2650   -2.1290   21.6930 Cl  0  0  0  0  0  0  0  0  0  0  0  0
    9.0880   -2.9130   24.3110 C   0  0  0  0  0  0  0  0  0  0  0  0
    7.9440   -3.5610   24.9580 N   0  0  0  0  0  0  0  0  0  0  0  0
    8.1910   -4.6800   26.1910 S   0  0  0  0  0  0  0  0  0  0  0  0
    6.5460   -5.2720   26.5230 C   0  0  0  0  0  0  0  0  0  0  0  0
    8.9840   -5.7450   25.6400 O   0  0  0  0  0  0  0  0  0  0  0  0
    8.6370   -3.9860   27.3600 O   0  0  0  0  0  0  0  0  0  0  0  0
  1  2  1  0
  2  3  2  0
  2  4  1  0
  4  5  1  0
  5  6  1  0
  6  7  1  0
  7  8  2  0
  7  9  1  0
  8 10  1  0
  9 11  2  0
 10 11  1  0
  9 12  1  0
 11 13  1  0
 12 14  2  0
 13 15  1  0
 13 16  2  0
 14 16  1  0
 14 17  1  0
 15 18  1  0
 18 19  1  0
 20 19  1  0
 20 21  1  0
 20 22  2  0
 20 23  2  0
M  END
