BEN-BAS-edf2ae6d-1-nitrile
     RDKit          3D

 22 24  0  0  0  0  0  0  0  0999 V2000
    8.0510   -3.6140   19.9340 C   0  0  0  0  0  0  0  0  0  0  0  0
    6.9490   -3.4840   19.2370 N   0  0  0  0  0  0  0  0  0  0  0  0
    8.0120   -3.3020   21.3350 N   0  0  0  0  0  0  0  0  0  0  0  0
    6.7740   -3.5260   22.1450 C   0  0  0  0  0  0  0  0  0  0  0  0
    8.7610   -2.1400   21.9630 C   0  0  2  0  0  0  0  0  0  0  0  0
    6.2150   -2.2480   22.8030 C   0  0  0  0  0  0  0  0  0  0  0  0
    6.1180   -4.7420   22.3480 C   0  0  0  0  0  0  0  0  0  0  0  0
    8.5500   -0.9620   21.6030 O   0  0  0  0  0  0  0  0  0  0  0  0
   10.3360   -2.3170   21.7770 C   0  0  0  0  0  0  0  0  0  0  0  0
    8.5500   -2.2880   23.5060 C   0  0  0  0  0  0  0  0  0  0  0  0
    4.9530   -2.3510   23.6700 C   0  0  0  0  0  0  0  0  0  0  0  0
    4.8870   -4.9010   23.1820 N   0  0  0  0  0  0  0  0  0  0  0  0
    7.4240   -0.5630   20.7940 C   0  0  0  0  0  0  0  0  0  0  0  0
   11.0560   -2.3410   22.9160 C   0  0  0  0  0  0  0  0  0  0  0  0
    9.0340   -1.3300   24.1170 O   0  0  0  0  0  0  0  0  0  0  0  0
    4.3360   -3.7410   23.8130 C   0  0  0  0  0  0  0  0  0  0  0  0
    6.3450   -1.5160   20.2990 C   0  0  0  0  0  0  0  0  0  0  0  0
    7.2970    0.8180   20.4290 C   0  0  0  0  0  0  0  0  0  0  0  0
   10.4080   -1.3960   23.8860 C   0  0  0  0  0  0  0  0  0  0  0  0
    5.3080   -1.0190   19.5210 C   0  0  0  0  0  0  0  0  0  0  0  0
    6.1960    1.2010   19.6380 C   0  0  0  0  0  0  0  0  0  0  0  0
    5.2290    0.3150   19.1930 C   0  0  0  0  0  0  0  0  0  0  0  0
  1  2  2  3
  1  3  1  0
  3  4  1  0
  3  5  1  0
  4  6  2  0
  4  7  1  0
  5  8  1  6
  5  9  1  0
  5 10  1  0
  6 11  1  0
  7 12  2  0
  8 13  1  0
  9 14  1  0
 10 15  1  0
 11 16  2  0
 12 16  1  0
 13 17  2  0
 13 18  1  0
 14 19  1  0
 15 19  1  0
 17 20  1  0
 18 21  2  0
 20 22  2  0
 21 22  1  0
M  END
