BEN-VAN-d2b455e2-6-nitrile
     RDKit          3D

 23 25  0  0  0  0  0  0  0  0999 V2000
    8.0580   -3.4370   19.7140 C   0  0  0  0  0  0  0  0  0  0  0  0
    6.7170   -3.5980   19.5900 N   0  0  0  0  0  0  0  0  0  0  0  0
    8.8260   -2.8910   20.9560 N   0  0  0  0  0  0  0  0  0  0  0  0
   10.3570   -2.4010   21.4150 C   0  0  0  0  0  0  0  0  0  0  0  0
   11.5090   -2.4590   20.8840 O   0  0  0  0  0  0  0  0  0  0  0  0
   10.4900   -1.8340   22.6750 C   0  0  2  0  0  0  0  0  0  0  0  0
    9.4540   -1.8720   23.5780 C   0  0  0  0  0  0  0  0  0  0  0  0
   10.8520   -0.2770   22.6620 C   0  0  2  0  0  0  0  0  0  0  0  0
   10.0240   -1.0210   24.6590 C   0  0  0  0  0  0  0  0  0  0  0  0
   10.9470   -0.0780   24.0520 C   0  0  0  0  0  0  0  0  0  0  0  0
    9.8970    0.7030   22.1960 C   0  0  0  0  0  0  0  0  0  0  0  0
   10.3820    1.9430   22.5860 C   0  0  0  0  0  0  0  0  0  0  0  0
    8.6090    0.9330   21.4760 C   0  0  0  0  0  0  0  0  0  0  0  0
    9.6280    3.0230   22.2630 C   0  0  0  0  0  0  0  0  0  0  0  0
    8.2300    2.6240   21.4430 S   0  0  0  0  0  0  0  0  0  0  0  0
    7.3300    0.4400   20.7020 C   0  0  0  0  0  0  0  0  0  0  0  0
    6.9370    1.6560   20.1800 N   0  0  0  0  0  0  0  0  0  0  0  0
    6.6320   -0.7560   20.5310 N   0  0  0  0  0  0  0  0  0  0  0  0
    5.7800    1.7330   19.5160 C   0  0  0  0  0  0  0  0  0  0  0  0
    5.4670   -0.4930   19.8350 C   0  0  0  0  0  0  0  0  0  0  0  0
    4.9410    0.7110   19.3060 C   0  0  0  0  0  0  0  0  0  0  0  0
    3.7960    0.9350   18.6820 N   0  0  0  0  0  0  0  0  0  0  0  0
    2.9720    1.9740   19.3120 C   0  0  0  0  0  0  0  0  0  0  0  0
  1  2  2  3
  1  3  1  0
  3  4  1  0
  4  5  2  0
  6  4  1  6
  6  7  1  0
  6  8  1  0
  7  9  1  0
  8 10  1  0
  9 10  1  0
  8 11  1  1
 11 12  1  0
 11 13  2  0
 12 14  2  0
 13 15  1  0
 14 15  1  0
 13 16  1  0
 16 17  2  0
 16 18  1  0
 17 19  1  0
 18 20  2  0
 19 21  2  0
 20 21  1  0
 21 22  1  0
 22 23  1  0
M  END
