BEN-VAN-ed886787-3
     RDKit          3D

 29 31  0  0  0  0  0  0  0  0999 V2000
   21.3500   -1.3510   23.8330 C   0  0  0  0  0  0  0  0  0  0  0  0
   20.1200   -1.7760   24.6000 C   0  0  0  0  0  0  0  0  0  0  0  0
   20.1280   -3.1050   24.8770 N   0  0  0  0  0  0  0  0  0  0  0  0
   18.8910   -3.8900   24.8890 C   0  0  0  0  0  0  0  0  0  0  0  0
   18.8870   -5.1340   24.5570 C   0  0  0  0  0  0  0  0  0  0  0  0
   17.7580   -3.4030   25.2290 N   0  0  0  0  0  0  0  0  0  0  0  0
   17.7700   -5.8970   24.6050 C   0  0  0  0  0  0  0  0  0  0  0  0
   16.5080   -4.1260   25.2510 C   0  0  0  0  0  0  0  0  0  0  0  0
   16.6030   -5.3860   24.9560 C   0  0  0  0  0  0  0  0  0  0  0  0
   15.1690   -3.5360   25.6160 C   0  0  0  0  0  0  0  0  0  0  0  0
   15.6050   -6.0630   25.0230 F   0  0  0  0  0  0  0  0  0  0  0  0
   14.0720   -2.7920   24.7500 C   0  0  0  0  0  0  0  0  0  0  0  0
   13.9090   -3.0640   23.3240 C   0  0  0  0  0  0  0  0  0  0  0  0
   13.2240   -1.8430   25.2790 C   0  0  0  0  0  0  0  0  0  0  0  0
   12.8510   -2.3330   22.5640 C   0  0  0  0  0  0  0  0  0  0  0  0
   12.2280   -1.1690   24.5230 C   0  0  0  0  0  0  0  0  0  0  0  0
   12.6120   -2.6250   20.8590 Cl  0  0  0  0  0  0  0  0  0  0  0  0
   12.0520   -1.4240   23.1690 C   0  0  0  0  0  0  0  0  0  0  0  0
   11.4080   -0.2480   25.0550 N   0  0  0  0  0  0  0  0  0  0  0  0
   10.0780   -0.2070   24.8120 C   0  0  0  0  0  0  0  0  0  0  0  0
    9.7340   -0.0870   23.3840 C   0  0  0  0  0  0  0  0  0  0  0  0
   10.1800    1.0310   23.1640 O   0  0  0  0  0  0  0  0  0  0  0  0
    9.3030   -0.4270   22.3590 N   0  0  0  0  0  0  0  0  0  0  0  0
    8.3050    0.4090   21.6760 C   0  0  0  0  0  0  0  0  0  0  0  0
    8.1130    1.7630   21.9750 C   0  0  0  0  0  0  0  0  0  0  0  0
    7.4910   -0.1570   20.6630 C   0  0  0  0  0  0  0  0  0  0  0  0
    7.1500    2.4520   21.2730 C   0  0  0  0  0  0  0  0  0  0  0  0
    6.6530    0.3650   20.0220 N   0  0  0  0  0  0  0  0  0  0  0  0
    6.4020    1.6660   20.2460 C   0  0  0  0  0  0  0  0  0  0  0  0
  1  2  1  0
  2  3  1  0
  3  4  1  0
  4  5  2  0
  4  6  1  0
  5  7  1  0
  6  8  2  0
  7  9  2  0
  8  9  1  0
  8 10  1  0
  9 11  1  0
 10 12  1  0
 12 13  2  0
 12 14  1  0
 13 15  1  0
 14 16  2  0
 15 17  1  0
 15 18  2  0
 16 18  1  0
 16 19  1  0
 19 20  1  0
 20 21  1  0
 21 22  2  0
 21 23  1  0
 23 24  1  0
 24 25  2  0
 24 26  1  0
 25 27  1  0
 26 28  2  0
 27 29  2  0
 28 29  1  0
M  END
