BEN-VAN-d2b455e2-9-bromoalkyne
     RDKit          3D

 27 29  0  0  0  0  0  0  0  0999 V2000
    6.5890   -4.4650   20.2390 C   0  0  0  0  0  0  0  0  0  0  0  0
    6.1100   -3.4460   19.1860 C   0  0  0  0  0  0  0  0  0  0  0  0
    6.6340   -4.2490   21.6000 N   0  0  0  0  0  0  0  0  0  0  0  0
    7.9320   -4.0930   22.3440 C   0  0  0  0  0  0  0  0  0  0  0  0
    8.6590   -4.9710   22.8020 O   0  0  0  0  0  0  0  0  0  0  0  0
    8.4000   -2.7460   22.5870 C   0  0  1  0  0  0  0  0  0  0  0  0
    7.2160   -1.8110   22.6980 C   0  0  0  0  0  0  0  0  0  0  0  0
    8.9330   -2.7080   24.0740 C   0  0  2  0  0  0  0  0  0  0  0  0
    6.6570   -1.8830   24.0630 C   0  0  0  0  0  0  0  0  0  0  0  0
    7.7680   -2.1540   24.8730 C   0  0  0  0  0  0  0  0  0  0  0  0
   10.1360   -1.9510   24.1070 C   0  0  0  0  0  0  0  0  0  0  0  0
   11.4120   -2.5950   24.1750 C   0  0  0  0  0  0  0  0  0  0  0  0
   10.2880   -0.5410   24.0610 C   0  0  0  0  0  0  0  0  0  0  0  0
   12.7610   -1.5800   24.1800 S   0  0  0  0  0  0  0  0  0  0  0  0
   11.6410   -0.1500   24.0900 C   0  0  0  0  0  0  0  0  0  0  0  0
    9.3740    0.7060   24.0090 N   0  0  0  0  0  0  0  0  0  0  0  0
    8.3580    0.7800   23.0710 C   0  0  0  0  0  0  0  0  0  0  0  0
    8.6180    0.7450   21.6720 C   0  0  0  0  0  0  0  0  0  0  0  0
    6.9560    0.8930   23.6420 C   0  0  0  0  0  0  0  0  0  0  0  0
    7.1610    0.8450   21.8460 C   0  0  0  0  0  0  0  0  0  0  0  0
    5.6990    0.9690   23.0590 C   0  0  0  0  0  0  0  0  0  0  0  0
    6.8240    0.9200   25.1940 C   0  0  0  0  0  0  0  0  0  0  0  0
    7.0800    0.8280   20.6000 O   0  0  0  0  0  0  0  0  0  0  0  0
    6.1150    0.9170   21.9710 N   0  0  0  0  0  0  0  0  0  0  0  0
    5.7330    1.8180   25.6080 N   0  0  0  0  0  0  0  0  0  0  0  0
    6.1170    1.7070   19.9670 C   0  0  0  0  0  0  0  0  0  0  0  0
    6.0300    1.5890   18.4530 C   0  0  0  0  0  0  0  0  0  0  0  0
  1  2  2  3
  1  3  1  0
  3  4  1  0
  4  5  2  0
  6  4  1  1
  6  7  1  0
  6  8  1  0
  7  9  1  0
  8 10  1  0
  9 10  1  0
  8 11  1  6
 11 12  2  0
 11 13  1  0
 12 14  1  0
 13 15  2  0
 14 15  1  0
 13 16  1  0
 16 17  1  0
 17 18  2  0
 17 19  1  0
 18 20  1  0
 19 21  2  0
 19 22  1  0
 20 23  1  0
 20 24  2  0
 21 24  1  0
 22 25  3  0
 23 26  1  0
 26 27  1  0
M  END
