BEN-VAN-d8fd1356-17
     RDKit          3D

 25 28  0  0  0  0  0  0  0  0999 V2000
   12.5790    5.1760   23.5960 C   0  0  0  0  0  0  0  0  0  0  0  0
   12.7430    3.8550   22.9280 C   0  0  0  0  0  0  0  0  0  0  0  0
   11.6880    2.9420   22.8750 C   0  0  0  0  0  0  0  0  0  0  0  0
   10.3980    3.3560   22.9590 C   0  0  0  0  0  0  0  0  0  0  0  0
   11.5990    1.4910   22.7100 C   0  0  0  0  0  0  0  0  0  0  0  0
   10.0210    4.6300   23.1420 F   0  0  0  0  0  0  0  0  0  0  0  0
    9.5440    2.3760   22.8190 N   0  0  0  0  0  0  0  0  0  0  0  0
   10.2050    1.2080   22.6340 C   0  0  0  0  0  0  0  0  0  0  0  0
   12.4820    0.4180   22.5930 C   0  0  0  0  0  0  0  0  0  0  0  0
    9.6270   -0.0350   22.3990 C   0  0  0  0  0  0  0  0  0  0  0  0
   11.9720   -0.8740   22.3860 C   0  0  0  0  0  0  0  0  0  0  0  0
    8.1720   -0.0380   22.2950 O   0  0  0  0  0  0  0  0  0  0  0  0
   10.5640   -1.1200   22.2810 C   0  0  0  0  0  0  0  0  0  0  0  0
   12.8560   -1.8840   22.2700 F   0  0  0  0  0  0  0  0  0  0  0  0
    7.3730    0.0190   21.0510 C   0  0  0  0  0  0  0  0  0  0  0  0
    6.0610    0.8760   20.8840 C   0  0  0  0  0  0  0  0  0  0  0  0
    7.7760   -0.7170   20.0100 N   0  0  0  0  0  0  0  0  0  0  0  0
    5.3720    0.7820   19.5540 C   0  0  0  0  0  0  0  0  0  0  0  0
    7.0770   -0.7120   18.8830 C   0  0  0  0  0  0  0  0  0  0  0  0
    4.0930    1.6580   19.5190 C   0  0  0  0  0  0  0  0  0  0  0  0
    5.9340   -0.0270   18.6000 C   0  0  0  0  0  0  0  0  0  0  0  0
    3.0390    1.5320   20.6320 C   0  0  0  0  0  0  0  0  0  0  0  0
    3.6720    2.6270   18.5960 N   0  0  0  0  0  0  0  0  0  0  0  0
    2.0730    2.4370   20.2790 N   0  0  0  0  0  0  0  0  0  0  0  0
    2.4100    3.1480   19.0250 C   0  0  0  0  0  0  0  0  0  0  0  0
  1  2  1  0
  2  3  1  0
  3  4  2  0
  3  5  1  0
  4  6  1  0
  4  7  1  0
  5  8  2  0
  7  8  1  0
  5  9  1  0
  8 10  1  0
  9 11  2  0
 10 12  1  0
 10 13  2  0
 11 13  1  0
 11 14  1  0
 12 15  1  0
 15 16  2  0
 15 17  1  0
 16 18  1  0
 17 19  2  0
 18 20  1  0
 18 21  2  0
 19 21  1  0
 20 22  2  0
 20 23  1  0
 22 24  1  0
 23 25  1  0
 24 25  2  0
M  END
