BEN-VAN-d2b455e2-4-acrylamide
     RDKit          3D

 26 28  0  0  0  0  0  0  0  0999 V2000
    7.0020   -3.2230   18.8720 C   0  0  0  0  0  0  0  0  0  0  0  0
    6.3460   -2.4910   19.9880 C   0  0  0  0  0  0  0  0  0  0  0  0
    6.7020   -3.2700   21.2340 C   0  0  0  0  0  0  0  0  0  0  0  0
    5.2760   -3.6940   21.1060 O   0  0  0  0  0  0  0  0  0  0  0  0
    8.1440   -2.5310   20.9010 N   0  0  0  0  0  0  0  0  0  0  0  0
    9.8040   -2.3370   21.3590 C   0  0  0  0  0  0  0  0  0  0  0  0
   10.9500   -2.6060   20.8110 O   0  0  0  0  0  0  0  0  0  0  0  0
   10.1620   -1.6350   22.6230 C   0  0  1  0  0  0  0  0  0  0  0  0
   11.5680   -1.8390   23.0110 C   0  0  0  0  0  0  0  0  0  0  0  0
    9.8080   -0.2950   22.5770 C   0  0  2  0  0  0  0  0  0  0  0  0
   11.8620   -0.6790   23.6350 C   0  0  0  0  0  0  0  0  0  0  0  0
   10.6740    0.0490   23.6550 C   0  0  0  0  0  0  0  0  0  0  0  0
    8.3340   -0.3560   22.7820 C   0  0  0  0  0  0  0  0  0  0  0  0
    8.3590   -0.5720   24.2880 C   0  0  0  0  0  0  0  0  0  0  0  0
    7.0140   -0.2640   21.8950 C   0  0  0  0  0  0  0  0  0  0  0  0
    9.8670   -0.6460   25.1160 Cl  0  0  0  0  0  0  0  0  0  0  0  0
    7.2440   -0.7370   25.1770 C   0  0  0  0  0  0  0  0  0  0  0  0
    6.3440   -0.5400   23.6390 S   0  0  0  0  0  0  0  0  0  0  0  0
    7.5110   -0.0590   20.6010 C   0  0  0  0  0  0  0  0  0  0  0  0
    7.3490    0.3780   19.1020 N   0  0  0  0  0  0  0  0  0  0  0  0
    6.1690    0.1970   20.9080 N   0  0  0  0  0  0  0  0  0  0  0  0
    6.2080    0.9010   18.3550 C   0  0  0  0  0  0  0  0  0  0  0  0
    5.0860    0.6590   20.2770 C   0  0  0  0  0  0  0  0  0  0  0  0
    4.9020    1.0750   19.0070 C   0  0  0  0  0  0  0  0  0  0  0  0
    3.7190    1.5380   18.5530 N   0  0  0  0  0  0  0  0  0  0  0  0
    3.4110    2.9120   18.7750 C   0  0  0  0  0  0  0  0  0  0  0  0
  1  2  1  0
  2  3  1  0
  3  4  2  0
  3  5  1  0
  5  6  1  0
  6  7  2  0
  8  6  1  6
  8  9  1  0
  8 10  1  0
  9 11  1  0
 10 12  1  0
 11 12  1  0
 10 13  1  1
 13 14  1  0
 13 15  2  0
 14 16  1  0
 14 17  2  0
 15 18  1  0
 17 18  1  0
 15 19  1  0
 19 20  2  0
 19 21  1  0
 20 22  1  0
 21 23  2  0
 22 24  2  0
 23 24  1  0
 24 25  1  0
 25 26  1  0
M  END
