BEN-VAN-5787f7d3-8
     RDKit          3D

 29 32  0  0  0  0  0  0  0  0999 V2000
    7.0570   -0.7170   22.9470 C   0  0  0  0  0  0  0  0  0  0  0  0
    6.3260   -0.4200   21.6920 C   0  0  0  0  0  0  0  0  0  0  0  0
    7.0830   -0.2640   20.5310 C   0  0  0  0  0  0  0  0  0  0  0  0
    4.9370   -0.3120   21.7330 C   0  0  0  0  0  0  0  0  0  0  0  0
    6.5250    0.0240   19.3150 C   0  0  0  0  0  0  0  0  0  0  0  0
    4.3980    0.0290   20.3050 C   0  0  0  0  0  0  0  0  0  0  0  0
    4.2020   -0.5390   23.2040 C   0  0  0  0  0  0  0  0  0  0  0  0
    5.1980    0.1780   19.1830 N   0  0  0  0  0  0  0  0  0  0  0  0
    3.9270    0.3010   24.2570 C   0  0  0  0  0  0  0  0  0  0  0  0
    3.6850   -1.4570   24.0840 C   0  0  0  0  0  0  0  0  0  0  0  0
    3.7130   -0.4850   25.6470 C   0  0  0  0  0  0  0  0  0  0  0  0
    3.3790   -2.6740   24.4770 N   0  0  0  0  0  0  0  0  0  0  0  0
    3.8260   -2.1010   25.7580 C   0  0  0  0  0  0  0  0  0  0  0  0
    3.9610   -3.7810   24.0350 C   0  0  0  0  0  0  0  0  0  0  0  0
    4.2730   -2.6660   26.7510 O   0  0  0  0  0  0  0  0  0  0  0  0
    5.2980   -3.5250   23.4120 C   0  0  0  0  0  0  0  0  0  0  0  0
    3.4420   -5.0710   24.1150 C   0  0  0  0  0  0  0  0  0  0  0  0
    6.0470   -4.6950   22.8860 C   0  0  0  0  0  0  0  0  0  0  0  0
    4.1230   -6.1900   23.6260 C   0  0  0  0  0  0  0  0  0  0  0  0
    7.5400   -4.3610   22.2210 Cl  0  0  0  0  0  0  0  0  0  0  0  0
    5.4020   -6.0550   23.0110 C   0  0  0  0  0  0  0  0  0  0  0  0
    3.4660   -7.4000   23.8020 C   0  0  0  0  0  0  0  0  0  0  0  0
    3.6760   -8.0540   24.8170 O   0  0  0  0  0  0  0  0  0  0  0  0
    2.5720   -7.7480   22.6990 N   0  0  0  0  0  0  0  0  0  0  0  0
    1.3250   -7.2410   22.4460 C   0  0  0  0  0  0  0  0  0  0  0  0
    0.1850   -7.6960   21.7920 C   0  0  0  0  0  0  0  0  0  0  0  0
    1.0400   -5.9590   22.9180 O   0  0  0  0  0  0  0  0  0  0  0  0
   -0.7730   -6.7190   21.8600 C   0  0  0  0  0  0  0  0  0  0  0  0
   -0.2490   -5.6440   22.5580 C   0  0  0  0  0  0  0  0  0  0  0  0
  1  2  1  0
  2  3  2  0
  2  4  1  0
  3  5  1  0
  4  6  2  0
  4  7  1  0
  5  8  2  0
  6  8  1  0
  7  9  1  0
  7 10  2  0
  9 11  2  0
 10 12  1  0
 11 13  1  0
 12 13  1  0
 12 14  1  0
 13 15  2  0
 14 16  2  0
 14 17  1  0
 16 18  1  0
 17 19  2  0
 18 20  1  0
 18 21  2  0
 19 21  1  0
 19 22  1  0
 22 23  2  0
 22 24  1  0
 24 25  1  0
 25 26  2  0
 25 27  1  0
 26 28  1  0
 27 29  1  0
 28 29  2  0
M  END
