BEN-DND-362d364a-11
     RDKit          3D

 24 26  0  0  0  0  0  0  0  0999 V2000
    8.7490    1.5330   21.4070 O   0  0  0  0  0  0  0  0  0  0  0  0
    7.9420    0.6050   21.5830 C   0  0  0  0  0  0  0  0  0  0  0  0
    7.7220   -0.1520   22.8790 C   0  0  0  0  0  0  0  0  0  0  0  0
    7.0820    0.1090   20.6380 N   0  0  0  0  0  0  0  0  0  0  0  0
    8.6110   -0.0120   23.9310 N   0  0  0  0  0  0  0  0  0  0  0  0
    6.2110    0.8940   19.9060 C   0  0  0  0  0  0  0  0  0  0  0  0
    8.6040    1.2240   24.7160 C   0  0  0  0  0  0  0  0  0  0  0  0
    9.9880   -0.4780   23.6360 C   0  0  2  0  0  0  0  0  0  0  0  0
    5.4250    1.9070   20.4710 C   0  0  0  0  0  0  0  0  0  0  0  0
    6.1000    0.6860   18.5350 C   0  0  0  0  0  0  0  0  0  0  0  0
    9.0590    2.3150   24.0090 C   0  0  0  0  0  0  0  0  0  0  0  0
   10.6050    0.6580   22.7810 C   0  0  0  0  0  0  0  0  0  0  0  0
   10.0670   -1.7940   23.1470 C   0  0  0  0  0  0  0  0  0  0  0  0
    4.6040    2.6300   19.6420 C   0  0  0  0  0  0  0  0  0  0  0  0
    5.2900    1.3940   17.7140 N   0  0  0  0  0  0  0  0  0  0  0  0
   10.2700    1.9890   23.4290 C   0  0  0  0  0  0  0  0  0  0  0  0
   11.2790   -2.5910   23.4430 N   0  0  0  0  0  0  0  0  0  0  0  0
    4.5520    2.3680   18.2900 C   0  0  0  0  0  0  0  0  0  0  0  0
   11.8770   -2.2800   24.7420 C   0  0  0  0  0  0  0  0  0  0  0  0
   12.2780   -2.5580   22.3740 C   0  0  0  0  0  0  0  0  0  0  0  0
   13.0800   -1.3740   24.5330 C   0  0  0  0  0  0  0  0  0  0  0  0
   12.5700   -1.2110   22.0610 C   0  0  0  0  0  0  0  0  0  0  0  0
   12.8320   -0.4580   23.3410 C   0  0  0  0  0  0  0  0  0  0  0  0
   13.9180    0.3920   23.0390 O   0  0  0  0  0  0  0  0  0  0  0  0
  1  2  2  0
  2  3  1  0
  2  4  1  0
  3  5  1  0
  4  6  1  0
  5  7  1  0
  5  8  1  0
  6  9  2  0
  6 10  1  0
  7 11  1  0
  8 12  1  0
  8 13  1  6
  9 14  1  0
 10 15  2  0
 11 16  1  0
 12 16  1  0
 13 17  1  0
 14 18  2  0
 15 18  1  0
 17 19  1  0
 17 20  1  0
 19 21  1  0
 20 22  1  0
 21 23  1  0
 22 23  1  0
 23 24  1  0
M  END
