BEN-VAN-d2b455e2-2-chloroacetamide
     RDKit          3D

 29 31  0  0  0  0  0  0  0  0999 V2000
    6.9750   -3.4750   19.5760 C   0  0  0  0  0  0  0  0  0  0  0  0
    5.7290   -3.0490   20.3480 C   0  0  0  0  0  0  0  0  0  0  0  0
    5.1070   -3.8490   19.6010 O   0  0  0  0  0  0  0  0  0  0  0  0
    6.7980   -2.3050   20.9120 N   0  0  0  0  0  0  0  0  0  0  0  0
    6.9860   -2.2230   22.3760 C   0  0  0  0  0  0  0  0  0  0  0  0
    6.0950   -1.9770   23.1830 O   0  0  0  0  0  0  0  0  0  0  0  0
    8.3270   -2.4890   22.7360 C   0  0  2  0  0  0  0  0  0  0  0  0
    8.7620   -2.0190   24.0930 C   0  0  0  0  0  0  0  0  0  0  0  0
    9.3380   -1.6040   21.9400 C   0  0  2  0  0  0  0  0  0  0  0  0
   10.2430   -1.8710   24.0880 C   0  0  0  0  0  0  0  0  0  0  0  0
   10.5800   -1.9080   22.7470 C   0  0  0  0  0  0  0  0  0  0  0  0
    9.0600   -0.2170   21.9710 C   0  0  0  0  0  0  0  0  0  0  0  0
    9.8910    0.6980   22.6640 C   0  0  0  0  0  0  0  0  0  0  0  0
    7.9990    0.4570   21.3570 C   0  0  0  0  0  0  0  0  0  0  0  0
    9.4210    2.3350   22.5900 S   0  0  0  0  0  0  0  0  0  0  0  0
    8.0120    1.8440   21.5720 C   0  0  0  0  0  0  0  0  0  0  0  0
    6.8560   -0.0190   20.5150 N   0  0  0  0  0  0  0  0  0  0  0  0
    6.0720    0.8560   19.7390 C   0  0  0  0  0  0  0  0  0  0  0  0
    4.9400    1.6880   20.2450 C   0  0  0  0  0  0  0  0  0  0  0  0
    6.2980    1.0420   18.2910 C   0  0  0  0  0  0  0  0  0  0  0  0
    4.1000    2.0990   21.4610 C   0  0  0  0  0  0  0  0  0  0  0  0
    4.0460    2.6330   19.4540 C   0  0  0  0  0  0  0  0  0  0  0  0
    5.2940    1.7270   18.7880 C   0  0  0  0  0  0  0  0  0  0  0  0
    7.2980    0.1720   18.4380 F   0  0  0  0  0  0  0  0  0  0  0  0
    3.4610    2.4380   22.3710 N   0  0  0  0  0  0  0  0  0  0  0  0
    4.4650    2.5890   18.2140 N   0  0  0  0  0  0  0  0  0  0  0  0
    5.1290    1.4500   20.0650 N   0  0  0  0  0  0  0  0  0  0  0  0
    4.4860    0.1400   20.2300 C   0  0  0  0  0  0  0  0  0  0  0  0
    5.0130   -0.8200   19.1420 C   0  0  0  0  0  0  0  0  0  0  0  0
  1  2  1  0
  2  3  2  0
  2  4  1  0
  4  5  1  0
  5  6  2  0
  7  5  1  6
  7  8  1  0
  7  9  1  0
  8 10  1  0
  9 11  1  0
 10 11  1  0
  9 12  1  1
 12 13  2  0
 12 14  1  0
 13 15  1  0
 14 16  2  0
 15 16  1  0
 14 17  1  0
 17 18  1  0
 18 19  2  0
 18 20  1  0
 19 21  1  0
 19 22  1  0
 20 23  2  0
 20 24  1  0
 21 25  3  0
 22 26  2  0
 23 26  1  0
 23 27  1  0
 27 28  1  0
 28 29  1  0
M  END
