BEN-VAN-d2b455e2-10-vinylsulfonamide
     RDKit          3D

 32 34  0  0  0  0  0  0  0  0999 V2000
    6.1810   -7.0920   19.6350 C   0  0  0  0  0  0  0  0  0  0  0  0
    5.1850   -7.1910   20.7760 C   0  0  0  0  0  0  0  0  0  0  0  0
    4.0650   -5.8040   20.6930 S   0  0  0  0  0  0  0  0  0  0  0  0
    2.7310   -6.3920   20.6620 O   0  0  0  0  0  0  0  0  0  0  0  0
    4.5020   -4.8870   19.6490 O   0  0  0  0  0  0  0  0  0  0  0  0
    4.2570   -5.0900   22.2140 N   0  0  0  0  0  0  0  0  0  0  0  0
    4.8610   -3.7430   22.3330 C   0  0  0  0  0  0  0  0  0  0  0  0
    5.0490   -3.0220   21.3630 O   0  0  0  0  0  0  0  0  0  0  0  0
    5.2090   -3.3770   23.6650 C   0  0  2  0  0  0  0  0  0  0  0  0
    4.0090   -3.2300   24.5920 C   0  0  0  0  0  0  0  0  0  0  0  0
    5.9170   -1.9700   23.7670 C   0  0  1  0  0  0  0  0  0  0  0  0
    3.9380   -1.8530   25.1660 C   0  0  0  0  0  0  0  0  0  0  0  0
    5.0140   -1.1810   24.6650 C   0  0  0  0  0  0  0  0  0  0  0  0
    7.2870   -2.0370   24.1080 C   0  0  0  0  0  0  0  0  0  0  0  0
    7.9610   -3.2380   24.0360 C   0  0  0  0  0  0  0  0  0  0  0  0
    7.9720   -0.8520   24.5310 C   0  0  0  0  0  0  0  0  0  0  0  0
    9.5610   -3.2140   24.4550 S   0  0  0  0  0  0  0  0  0  0  0  0
    9.2220   -1.5520   24.7160 C   0  0  0  0  0  0  0  0  0  0  0  0
    9.0410    0.1220   25.0110 N   0  0  0  0  0  0  0  0  0  0  0  0
   10.3670   -0.3390   25.0650 C   0  0  0  0  0  0  0  0  0  0  0  0
   11.5600   -0.4600   24.6630 C   0  0  0  0  0  0  0  0  0  0  0  0
   10.8880    0.2970   23.8560 C   0  0  0  0  0  0  0  0  0  0  0  0
   12.6790   -1.1250   25.1080 C   0  0  0  0  0  0  0  0  0  0  0  0
   12.2300    0.3630   23.1130 C   0  0  0  0  0  0  0  0  0  0  0  0
    9.8760    1.1400   23.0740 C   0  0  0  0  0  0  0  0  0  0  0  0
   13.6210   -1.6850   25.4810 N   0  0  0  0  0  0  0  0  0  0  0  0
   13.0800   -0.5010   23.9820 N   0  0  0  0  0  0  0  0  0  0  0  0
    9.9820    2.4370   22.5880 N   0  0  0  0  0  0  0  0  0  0  0  0
   13.4880   -3.0260   26.0510 C   0  0  0  0  0  0  0  0  0  0  0  0
   14.5580   -4.0320   25.7450 C   0  0  0  0  0  0  0  0  0  0  0  0
   15.8040   -3.3440   25.6560 O   0  0  0  0  0  0  0  0  0  0  0  0
   16.0230   -2.6060   26.7900 C   0  0  0  0  0  0  0  0  0  0  0  0
  1  2  1  0
  2  3  1  0
  3  4  2  0
  3  5  2  0
  3  6  1  0
  6  7  1  0
  7  8  2  0
  9  7  1  6
  9 10  1  0
  9 11  1  0
 10 12  1  0
 11 13  1  0
 12 13  1  0
 11 14  1  1
 14 15  2  0
 14 16  1  0
 15 17  1  0
 16 18  2  0
 17 18  1  0
 16 19  1  0
 19 20  1  0
 20 21  2  0
 20 22  1  0
 21 23  1  0
 22 24  2  0
 22 25  1  0
 23 26  1  0
 23 27  2  0
 24 27  1  0
 25 28  3  0
 26 29  1  0
 29 30  1  0
 30 31  1  0
 31 32  1  0
M  END
