BEN-BAS-edf2ae6d-1-bromoalkyne
     RDKit          3D

 22 24  0  0  0  0  0  0  0  0999 V2000
    7.4160   -3.1900   19.7550 C   0  0  0  0  0  0  0  0  0  0  0  0
    6.5930   -2.5690   18.6270 C   0  0  0  0  0  0  0  0  0  0  0  0
    7.4040   -2.8420   21.1620 N   0  0  0  0  0  0  0  0  0  0  0  0
    6.3420   -3.2340   22.0730 C   0  0  0  0  0  0  0  0  0  0  0  0
    8.4620   -1.9600   21.8940 C   0  0  1  0  0  0  0  0  0  0  0  0
    5.6170   -2.1090   22.8130 C   0  0  0  0  0  0  0  0  0  0  0  0
    5.8170   -4.6660   22.4310 C   0  0  0  0  0  0  0  0  0  0  0  0
    9.6530   -2.6350   22.1020 O   0  0  0  0  0  0  0  0  0  0  0  0
    8.7450   -0.8430   21.1150 C   0  0  0  0  0  0  0  0  0  0  0  0
    8.0380   -1.5870   23.2040 C   0  0  0  0  0  0  0  0  0  0  0  0
    4.5070   -2.4850   23.7870 C   0  0  0  0  0  0  0  0  0  0  0  0
    4.7890   -4.9750   23.3330 N   0  0  0  0  0  0  0  0  0  0  0  0
   10.9000   -1.9370   22.1940 C   0  0  0  0  0  0  0  0  0  0  0  0
    8.1300    0.4480   21.6570 C   0  0  0  0  0  0  0  0  0  0  0  0
    8.7470   -0.6740   23.7090 O   0  0  0  0  0  0  0  0  0  0  0  0
    4.1650   -3.9700   23.9790 C   0  0  0  0  0  0  0  0  0  0  0  0
   11.0450   -1.0510   23.2660 C   0  0  0  0  0  0  0  0  0  0  0  0
   11.9890   -2.0650   21.3050 C   0  0  0  0  0  0  0  0  0  0  0  0
    8.4420    0.5800   23.1400 C   0  0  0  0  0  0  0  0  0  0  0  0
   12.2110   -0.3350   23.4260 C   0  0  0  0  0  0  0  0  0  0  0  0
   13.1720   -1.3430   21.4880 C   0  0  0  0  0  0  0  0  0  0  0  0
   13.2270   -0.4890   22.5590 C   0  0  0  0  0  0  0  0  0  0  0  0
  1  2  2  3
  1  3  1  0
  3  4  1  0
  3  5  1  0
  4  6  2  0
  4  7  1  0
  5  8  1  1
  5  9  1  0
  5 10  1  0
  6 11  1  0
  7 12  2  0
  8 13  1  0
  9 14  1  0
 10 15  1  0
 11 16  2  0
 12 16  1  0
 13 17  2  0
 13 18  1  0
 14 19  1  0
 15 19  1  0
 17 20  1  0
 18 21  2  0
 20 22  2  0
 21 22  1  0
M  END
