BEN-VAN-d2b455e2-8
     RDKit          3D

 23 25  0  0  0  0  0  0  0  0999 V2000
   13.3570    0.3770   22.7780 C   0  0  0  0  0  0  0  0  0  0  0  0
   13.5090   -0.6430   21.7490 N   0  0  0  0  0  0  0  0  0  0  0  0
   12.4920   -1.5610   21.7130 C   0  0  0  0  0  0  0  0  0  0  0  0
   12.7360   -2.3840   20.8370 O   0  0  0  0  0  0  0  0  0  0  0  0
   11.4370   -1.5150   22.6120 C   0  0  2  0  0  0  0  0  0  0  0  0
   10.2030   -2.1420   22.5250 C   0  0  0  0  0  0  0  0  0  0  0  0
   10.9630   -0.0750   23.0890 C   0  0  2  0  0  0  0  0  0  0  0  0
    9.5820   -1.7500   23.8420 C   0  0  0  0  0  0  0  0  0  0  0  0
   10.3980   -0.5700   24.2440 C   0  0  0  0  0  0  0  0  0  0  0  0
   10.0280    0.8990   22.5220 C   0  0  0  0  0  0  0  0  0  0  0  0
   10.4720    2.1060   23.0390 C   0  0  0  0  0  0  0  0  0  0  0  0
    8.8080    1.1960   21.6760 C   0  0  0  0  0  0  0  0  0  0  0  0
    9.8180    3.2670   22.7380 C   0  0  0  0  0  0  0  0  0  0  0  0
    8.5240    2.9040   21.7270 S   0  0  0  0  0  0  0  0  0  0  0  0
    7.5410    0.9040   20.7330 C   0  0  0  0  0  0  0  0  0  0  0  0
   10.2080    4.4610   23.2150 F   0  0  0  0  0  0  0  0  0  0  0  0
    6.3720    0.4540   21.5210 N   0  0  0  0  0  0  0  0  0  0  0  0
    7.5150    1.1850   19.3740 N   0  0  0  0  0  0  0  0  0  0  0  0
    5.2130    0.4490   20.7820 C   0  0  0  0  0  0  0  0  0  0  0  0
    6.2110    1.1120   18.7580 C   0  0  0  0  0  0  0  0  0  0  0  0
    5.0520    0.7870   19.4460 C   0  0  0  0  0  0  0  0  0  0  0  0
    3.7780    0.7740   19.0060 N   0  0  0  0  0  0  0  0  0  0  0  0
    2.8990    1.7000   19.5650 C   0  0  0  0  0  0  0  0  0  0  0  0
  1  2  1  0
  2  3  1  0
  3  4  2  0
  5  3  1  6
  5  6  1  0
  5  7  1  0
  6  8  1  0
  7  9  1  0
  8  9  1  0
  7 10  1  6
 10 11  1  0
 10 12  2  0
 11 13  2  0
 12 14  1  0
 13 14  1  0
 12 15  1  0
 13 16  1  0
 15 17  2  0
 15 18  1  0
 17 19  1  0
 18 20  2  0
 19 21  2  0
 20 21  1  0
 21 22  1  0
 22 23  1  0
M  END
