BEN-VAN-c986b20b-7
     RDKit          3D

 27 29  0  0  0  0  0  0  0  0999 V2000
    8.1160    3.4050   24.0920 C   0  0  0  0  0  0  0  0  0  0  0  0
    8.6050    2.0600   24.4240 C   0  0  0  0  0  0  0  0  0  0  0  0
    9.8050    1.9510   24.6860 O   0  0  0  0  0  0  0  0  0  0  0  0
   10.2770    0.7720   24.1850 C   0  0  0  0  0  0  0  0  0  0  0  0
    9.5620   -0.5410   24.4260 C   0  0  0  0  0  0  0  0  0  0  0  0
   11.4830    0.6970   23.3630 C   0  0  0  0  0  0  0  0  0  0  0  0
   10.0640   -1.8430   23.8470 C   0  0  0  0  0  0  0  0  0  0  0  0
   11.9900   -0.5490   22.8720 C   0  0  0  0  0  0  0  0  0  0  0  0
   12.1390    2.0490   23.0370 C   0  0  0  0  0  0  0  0  0  0  0  0
    9.4450   -3.1310   23.9240 C   0  0  0  0  0  0  0  0  0  0  0  0
   11.2300   -1.8370   23.1330 C   0  0  0  0  0  0  0  0  0  0  0  0
   13.3940   -0.7430   21.9750 Cl  0  0  0  0  0  0  0  0  0  0  0  0
   11.1800    3.2250   23.1420 C   0  0  0  0  0  0  0  0  0  0  0  0
   13.3770    2.2600   22.6770 N   0  0  0  0  0  0  0  0  0  0  0  0
    8.1790   -2.8100   23.2410 N   0  0  0  0  0  0  0  0  0  0  0  0
   11.6420    4.5980   22.8430 C   0  0  0  0  0  0  0  0  0  0  0  0
   13.7620    3.6570   22.3940 C   0  0  0  0  0  0  0  0  0  0  0  0
    7.4030   -3.9900   22.8440 C   0  0  0  0  0  0  0  0  0  0  0  0
    8.4260   -1.9160   22.0940 C   0  0  0  0  0  0  0  0  0  0  0  0
   10.8420    5.7460   22.9120 C   0  0  0  0  0  0  0  0  0  0  0  0
   13.0210    4.7910   22.4460 N   0  0  0  0  0  0  0  0  0  0  0  0
    6.1370   -3.5690   22.3240 C   0  0  0  0  0  0  0  0  0  0  0  0
    7.1540   -1.4630   21.3560 C   0  0  0  0  0  0  0  0  0  0  0  0
    6.1730   -2.5470   21.2210 N   0  0  0  0  0  0  0  0  0  0  0  0
    5.8350   -3.0420   19.8810 C   0  0  0  0  0  0  0  0  0  0  0  0
    6.0560   -2.1010   18.8640 C   0  0  0  0  0  0  0  0  0  0  0  0
    5.3730   -4.3000   19.6840 O   0  0  0  0  0  0  0  0  0  0  0  0
  1  2  1  0
  2  3  1  0
  3  4  1  0
  4  5  2  0
  4  6  1  0
  5  7  1  0
  6  8  2  0
  6  9  1  0
  7 10  1  0
  7 11  2  0
  8 11  1  0
  8 12  1  0
  9 13  2  0
  9 14  1  0
 10 15  1  0
 13 16  1  0
 14 17  2  0
 15 18  1  0
 15 19  1  0
 16 20  1  0
 16 21  2  0
 17 21  1  0
 18 22  1  0
 19 23  1  0
 22 24  1  0
 23 24  1  0
 24 25  1  0
 25 26  1  0
 25 27  2  0
M  END
