BEN-VAN-d2b455e2-4-bromoalkyne
     RDKit          3D

 24 26  0  0  0  0  0  0  0  0999 V2000
    7.8550   -3.3070   19.5850 C   0  0  0  0  0  0  0  0  0  0  0  0
    6.8840   -2.5220   18.6850 C   0  0  0  0  0  0  0  0  0  0  0  0
    8.4570   -2.8310   20.9320 N   0  0  0  0  0  0  0  0  0  0  0  0
    9.9780   -2.3880   21.4430 C   0  0  0  0  0  0  0  0  0  0  0  0
   11.1480   -2.5070   21.0110 O   0  0  0  0  0  0  0  0  0  0  0  0
   10.2860   -1.7610   22.6780 C   0  0  2  0  0  0  0  0  0  0  0  0
    9.2240   -1.7470   23.6980 C   0  0  0  0  0  0  0  0  0  0  0  0
   10.6190   -0.2100   22.6700 C   0  0  2  0  0  0  0  0  0  0  0  0
    9.5240   -0.6830   24.6800 C   0  0  0  0  0  0  0  0  0  0  0  0
   10.6510   -0.0740   24.1910 C   0  0  0  0  0  0  0  0  0  0  0  0
    9.6650    0.7770   22.1800 C   0  0  0  0  0  0  0  0  0  0  0  0
   10.0890    2.0590   22.5680 C   0  0  0  0  0  0  0  0  0  0  0  0
    8.3880    0.8800   21.4020 C   0  0  0  0  0  0  0  0  0  0  0  0
   11.5360    2.2990   23.4360 Cl  0  0  0  0  0  0  0  0  0  0  0  0
    9.2140    3.1440   22.1720 C   0  0  0  0  0  0  0  0  0  0  0  0
    7.8740    2.6550   21.3230 S   0  0  0  0  0  0  0  0  0  0  0  0
    7.2680    0.1330   20.6240 C   0  0  0  0  0  0  0  0  0  0  0  0
    6.4290   -0.9180   20.0110 N   0  0  0  0  0  0  0  0  0  0  0  0
    6.6640    1.3440   20.3110 N   0  0  0  0  0  0  0  0  0  0  0  0
    5.1920   -0.5830   19.2810 C   0  0  0  0  0  0  0  0  0  0  0  0
    5.5290    1.5890   19.6330 C   0  0  0  0  0  0  0  0  0  0  0  0
    4.6040    0.7770   19.0350 C   0  0  0  0  0  0  0  0  0  0  0  0
    3.8830    1.6110   18.6720 N   0  0  0  0  0  0  0  0  0  0  0  0
    2.8860    2.1710   19.5740 C   0  0  0  0  0  0  0  0  0  0  0  0
  1  2  2  3
  1  3  1  0
  3  4  1  0
  4  5  2  0
  6  4  1  6
  6  7  1  0
  6  8  1  0
  7  9  1  0
  8 10  1  0
  9 10  1  0
  8 11  1  1
 11 12  1  0
 11 13  2  0
 12 14  1  0
 12 15  2  0
 13 16  1  0
 15 16  1  0
 13 17  1  0
 17 18  2  0
 17 19  1  0
 18 20  1  0
 19 21  2  0
 20 22  2  0
 21 22  1  0
 22 23  1  0
 23 24  1  0
M  END
