BEN-VAN-d8fd1356-7
     RDKit          3D

 25 28  0  0  0  0  0  0  0  0999 V2000
   12.5960    5.2870   23.3020 C   0  0  0  0  0  0  0  0  0  0  0  0
   12.8110    3.8760   22.8800 C   0  0  0  0  0  0  0  0  0  0  0  0
   11.7570    2.9590   22.8580 C   0  0  0  0  0  0  0  0  0  0  0  0
   10.4720    3.3390   22.9470 C   0  0  0  0  0  0  0  0  0  0  0  0
   11.6550    1.5070   22.7210 C   0  0  0  0  0  0  0  0  0  0  0  0
    9.5910    2.3850   22.8520 N   0  0  0  0  0  0  0  0  0  0  0  0
   10.2560    1.2130   22.6800 C   0  0  0  0  0  0  0  0  0  0  0  0
   12.4910    0.4140   22.6040 C   0  0  0  0  0  0  0  0  0  0  0  0
    9.6910   -0.0490   22.4860 C   0  0  0  0  0  0  0  0  0  0  0  0
   12.0340   -0.8910   22.4330 C   0  0  0  0  0  0  0  0  0  0  0  0
    8.2410   -0.0500   22.4240 O   0  0  0  0  0  0  0  0  0  0  0  0
   10.6290   -1.1430   22.3660 C   0  0  0  0  0  0  0  0  0  0  0  0
   12.9340   -1.8840   22.3170 F   0  0  0  0  0  0  0  0  0  0  0  0
    7.4310   -0.0390   21.1960 C   0  0  0  0  0  0  0  0  0  0  0  0
    6.0670    0.7160   21.1020 C   0  0  0  0  0  0  0  0  0  0  0  0
    7.8610   -0.7140   20.1190 N   0  0  0  0  0  0  0  0  0  0  0  0
    5.3500    0.6050   19.8120 C   0  0  0  0  0  0  0  0  0  0  0  0
    7.1310   -0.7320   19.0090 C   0  0  0  0  0  0  0  0  0  0  0  0
    4.0120    1.3670   19.8590 C   0  0  0  0  0  0  0  0  0  0  0  0
    5.9250   -0.1230   18.7980 C   0  0  0  0  0  0  0  0  0  0  0  0
    4.1110    2.5750   20.8220 C   0  0  0  0  0  0  0  0  0  0  0  0
    3.9770    2.7230   22.3520 C   0  0  0  0  0  0  0  0  0  0  0  0
    4.3650    3.8890   20.3830 N   0  0  0  0  0  0  0  0  0  0  0  0
    4.1410    3.9960   22.7230 N   0  0  0  0  0  0  0  0  0  0  0  0
    4.3960    4.7980   21.5000 C   0  0  0  0  0  0  0  0  0  0  0  0
  1  2  1  0
  2  3  1  0
  3  4  2  0
  3  5  1  0
  4  6  1  0
  5  7  2  0
  6  7  1  0
  5  8  1  0
  7  9  1  0
  8 10  2  0
  9 11  1  0
  9 12  2  0
 10 12  1  0
 10 13  1  0
 11 14  1  0
 14 15  2  0
 14 16  1  0
 15 17  1  0
 16 18  2  0
 17 19  1  0
 17 20  2  0
 18 20  1  0
 19 21  1  0
 21 22  2  0
 21 23  1  0
 22 24  1  0
 23 25  1  0
 24 25  2  0
M  END
