BEN-DND-362d364a-9
     RDKit          3D

 21 22  0  0  0  0  0  0  0  0999 V2000
    8.8920   -5.6080   25.9050 C   0  0  0  0  0  0  0  0  0  0  0  0
    7.6340   -4.3650   25.6430 S   0  0  0  0  0  0  0  0  0  0  0  0
    6.3450   -5.0150   25.7120 O   0  0  0  0  0  0  0  0  0  0  0  0
    7.9490   -3.2340   26.4890 O   0  0  0  0  0  0  0  0  0  0  0  0
    7.8460   -3.8300   24.0580 N   0  0  0  0  0  0  0  0  0  0  0  0
    7.8240   -2.3820   23.7610 C   0  0  0  0  0  0  0  0  0  0  0  0
    8.3900   -2.0690   22.5210 C   0  0  0  0  0  0  0  0  0  0  0  0
    9.5360   -1.3100   22.6540 C   0  0  0  0  0  0  0  0  0  0  0  0
    9.3520   -0.1060   23.2920 C   0  0  0  0  0  0  0  0  0  0  0  0
   10.8520   -1.5990   22.2290 C   0  0  0  0  0  0  0  0  0  0  0  0
   10.3480    0.8320   23.5560 C   0  0  0  0  0  0  0  0  0  0  0  0
   11.9190   -0.7470   22.4650 C   0  0  0  0  0  0  0  0  0  0  0  0
   11.4660   -2.7160   21.4960 N   0  0  0  0  0  0  0  0  0  0  0  0
    9.9460    2.3010   24.3300 Cl  0  0  0  0  0  0  0  0  0  0  0  0
   11.7570    0.4760   23.1200 C   0  0  0  0  0  0  0  0  0  0  0  0
   13.1320   -1.4090   21.8890 C   0  0  0  0  0  0  0  0  0  0  0  0
   12.8050   -2.7380   21.2270 C   0  0  0  0  0  0  0  0  0  0  0  0
   13.5820   -4.0570   20.3110 S   0  0  0  0  0  0  0  0  0  0  0  0
   14.5880   -5.2720   20.8260 N   0  0  0  0  0  0  0  0  0  0  0  0
   12.5750   -4.5650   19.4320 O   0  0  0  0  0  0  0  0  0  0  0  0
   14.6160   -3.3490   19.7660 O   0  0  0  0  0  0  0  0  0  0  0  0
  1  2  1  0
  2  3  2  0
  2  4  2  0
  2  5  1  0
  5  6  1  0
  6  7  1  0
  7  8  1  0
  8  9  2  0
  8 10  1  0
  9 11  1  0
 10 12  2  0
 10 13  1  0
 11 14  1  0
 11 15  2  0
 12 15  1  0
 12 16  1  0
 13 17  1  0
 16 17  2  0
 17 18  1  0
 18 19  1  0
 18 20  2  0
 18 21  2  0
M  END
