BEN-VAN-d2b455e2-1-nitrile
     RDKit          3D

 27 29  0  0  0  0  0  0  0  0999 V2000
    7.5460   -2.7310   19.5220 C   0  0  0  0  0  0  0  0  0  0  0  0
    7.1660   -2.5600   18.2540 N   0  0  0  0  0  0  0  0  0  0  0  0
    8.3360   -1.7330   20.4280 N   0  0  0  0  0  0  0  0  0  0  0  0
    8.1400   -0.2620   20.9340 C   0  0  0  0  0  0  0  0  0  0  0  0
    7.6900    0.6200   20.2090 O   0  0  0  0  0  0  0  0  0  0  0  0
    8.4890    0.1680   22.2840 C   0  0  1  0  0  0  0  0  0  0  0  0
    7.3520    0.1270   23.1280 C   0  0  0  0  0  0  0  0  0  0  0  0
    9.4110   -0.7640   23.1820 C   0  0  1  0  0  0  0  0  0  0  0  0
    7.2580   -1.3370   23.4480 C   0  0  0  0  0  0  0  0  0  0  0  0
    8.6200   -1.8990   23.1850 C   0  0  0  0  0  0  0  0  0  0  0  0
   10.7590   -0.8580   22.7900 C   0  0  0  0  0  0  0  0  0  0  0  0
   11.3070   -1.7930   21.8990 C   0  0  0  0  0  0  0  0  0  0  0  0
   11.7360   -0.0290   23.2570 C   0  0  0  0  0  0  0  0  0  0  0  0
   13.0190   -1.6380   21.6490 S   0  0  0  0  0  0  0  0  0  0  0  0
   12.9670   -0.3290   22.7310 C   0  0  0  0  0  0  0  0  0  0  0  0
   11.6710    0.9930   24.1330 N   0  0  0  0  0  0  0  0  0  0  0  0
   11.1970    2.1640   23.7250 C   0  0  0  0  0  0  0  0  0  0  0  0
   12.0010    3.0210   22.8350 C   0  0  0  0  0  0  0  0  0  0  0  0
    9.9410    2.6650   24.1050 C   0  0  0  0  0  0  0  0  0  0  0  0
   11.4880    4.2430   22.4390 C   0  0  0  0  0  0  0  0  0  0  0  0
    9.4940    3.8990   23.6740 C   0  0  0  0  0  0  0  0  0  0  0  0
    8.9540    1.9290   25.0190 C   0  0  0  0  0  0  0  0  0  0  0  0
   12.1700    5.0590   21.6240 N   0  0  0  0  0  0  0  0  0  0  0  0
   10.2650    4.6570   22.8630 N   0  0  0  0  0  0  0  0  0  0  0  0
    7.8230    2.5220   25.5440 N   0  0  0  0  0  0  0  0  0  0  0  0
   13.0310    6.0660   22.2070 C   0  0  0  0  0  0  0  0  0  0  0  0
   12.3370    6.7390   23.3620 C   0  0  0  0  0  0  0  0  0  0  0  0
  1  2  2  3
  1  3  1  0
  3  4  1  0
  4  5  2  0
  6  4  1  6
  6  7  1  0
  6  8  1  0
  7  9  1  0
  8 10  1  0
  9 10  1  0
  8 11  1  6
 11 12  2  0
 11 13  1  0
 12 14  1  0
 13 15  2  0
 14 15  1  0
 13 16  1  0
 16 17  1  0
 17 18  2  0
 17 19  1  0
 18 20  1  0
 19 21  2  0
 19 22  1  0
 20 23  1  0
 20 24  2  0
 21 24  1  0
 22 25  3  0
 23 26  1  0
 26 27  1  0
M  END
