BEN-VAN-d8fd1356-3
     RDKit          3D

 23 25  0  0  0  0  0  0  0  0999 V2000
   12.2850    5.6710   22.2420 C   0  0  0  0  0  0  0  0  0  0  0  0
   12.1100    4.6680   23.3270 C   0  0  0  0  0  0  0  0  0  0  0  0
   12.3080    3.3060   23.0050 C   0  0  0  0  0  0  0  0  0  0  0  0
   11.2530    2.4380   22.8060 C   0  0  0  0  0  0  0  0  0  0  0  0
    9.9470    2.8730   22.7630 C   0  0  0  0  0  0  0  0  0  0  0  0
   11.2240    1.0230   22.5700 C   0  0  0  0  0  0  0  0  0  0  0  0
    9.1740    1.8000   22.4580 N   0  0  0  0  0  0  0  0  0  0  0  0
    9.9350    0.6630   22.3010 C   0  0  0  0  0  0  0  0  0  0  0  0
   12.1470    0.0430   22.5250 C   0  0  0  0  0  0  0  0  0  0  0  0
    9.5960   -0.7960   21.8830 C   0  0  0  0  0  0  0  0  0  0  0  0
   11.9410   -1.2720   22.2170 C   0  0  0  0  0  0  0  0  0  0  0  0
   13.6150    0.5510   22.8670 Cl  0  0  0  0  0  0  0  0  0  0  0  0
    8.3120   -1.2080   21.4960 O   0  0  0  0  0  0  0  0  0  0  0  0
   10.6760   -1.7040   21.8870 C   0  0  0  0  0  0  0  0  0  0  0  0
   12.9720   -2.1300   22.2130 F   0  0  0  0  0  0  0  0  0  0  0  0
    7.4440   -0.5680   20.5360 C   0  0  0  0  0  0  0  0  0  0  0  0
    7.4290   -0.6550   19.3420 N   0  0  0  0  0  0  0  0  0  0  0  0
    6.4680    0.2670   21.3150 C   0  0  0  0  0  0  0  0  0  0  0  0
    6.3730    0.1280   18.6310 C   0  0  0  0  0  0  0  0  0  0  0  0
    5.4510    1.0210   20.7590 C   0  0  0  0  0  0  0  0  0  0  0  0
    6.6370    0.2370   22.6270 F   0  0  0  0  0  0  0  0  0  0  0  0
    5.3560    0.9900   19.3730 C   0  0  0  0  0  0  0  0  0  0  0  0
    4.4680    1.8480   21.6130 C   0  0  0  0  0  0  0  0  0  0  0  0
  1  2  1  0
  2  3  1  0
  3  4  1  0
  4  5  2  0
  4  6  1  0
  5  7  1  0
  6  8  2  0
  7  8  1  0
  6  9  1  0
  8 10  1  0
  9 11  2  0
  9 12  1  0
 10 13  1  0
 10 14  2  0
 11 14  1  0
 11 15  1  0
 13 16  1  0
 16 17  2  0
 16 18  1  0
 17 19  1  0
 18 20  2  0
 18 21  1  0
 19 22  2  0
 20 22  1  0
 20 23  1  0
M  END
