BEN-VAN-d2b455e2-6-acrylamide
     RDKit          3D

 25 27  0  0  0  0  0  0  0  0999 V2000
    8.5700   -4.5140   20.1540 C   0  0  0  0  0  0  0  0  0  0  0  0
    7.0840   -4.8790   20.0090 C   0  0  0  0  0  0  0  0  0  0  0  0
    6.2870   -4.5590   21.2770 C   0  0  0  0  0  0  0  0  0  0  0  0
    5.3170   -4.6630   20.4740 O   0  0  0  0  0  0  0  0  0  0  0  0
    7.6100   -4.5380   21.6740 N   0  0  0  0  0  0  0  0  0  0  0  0
    8.2610   -5.3240   22.7300 C   0  0  0  0  0  0  0  0  0  0  0  0
    7.2970   -6.0580   22.6490 O   0  0  0  0  0  0  0  0  0  0  0  0
    9.2250   -4.1330   22.5180 C   0  0  2  0  0  0  0  0  0  0  0  0
   10.5850   -4.4520   22.9980 C   0  0  0  0  0  0  0  0  0  0  0  0
    8.8010   -2.9380   23.0270 C   0  0  1  0  0  0  0  0  0  0  0  0
   10.7610   -3.6200   24.0790 C   0  0  0  0  0  0  0  0  0  0  0  0
    9.4990   -2.9940   24.2190 C   0  0  0  0  0  0  0  0  0  0  0  0
    9.1500   -1.8840   22.1240 C   0  0  0  0  0  0  0  0  0  0  0  0
   10.5440   -1.9070   21.7300 C   0  0  0  0  0  0  0  0  0  0  0  0
    8.1630   -1.0780   21.7900 C   0  0  0  0  0  0  0  0  0  0  0  0
    9.7800   -2.8120   22.7190 C   0  0  0  0  0  0  0  0  0  0  0  0
    7.9190   -2.4260   22.8800 S   0  0  0  0  0  0  0  0  0  0  0  0
    6.8390   -0.6390   21.8440 C   0  0  0  0  0  0  0  0  0  0  0  0
    5.5370   -0.0610   21.7110 N   0  0  0  0  0  0  0  0  0  0  0  0
    7.3710    0.0770   20.6480 N   0  0  0  0  0  0  0  0  0  0  0  0
    5.7050    0.6830   20.6800 C   0  0  0  0  0  0  0  0  0  0  0  0
    6.9250    1.0390   19.6190 C   0  0  0  0  0  0  0  0  0  0  0  0
    5.6780    1.6350   19.4710 C   0  0  0  0  0  0  0  0  0  0  0  0
    5.6580    2.3400   18.5750 N   0  0  0  0  0  0  0  0  0  0  0  0
    4.7220    1.9030   17.5890 C   0  0  0  0  0  0  0  0  0  0  0  0
  1  2  1  0
  2  3  1  0
  3  4  2  0
  3  5  1  0
  5  6  1  0
  6  7  2  0
  8  6  1  1
  8  9  1  0
  8 10  1  0
  9 11  1  0
 10 12  1  0
 11 12  1  0
 10 13  1  6
 13 14  1  0
 13 15  2  0
 14 16  2  0
 15 17  1  0
 16 17  1  0
 15 18  1  0
 18 19  2  0
 18 20  1  0
 19 21  1  0
 20 22  2  0
 21 23  2  0
 22 23  1  0
 23 24  1  0
 24 25  1  0
M  END
