BEN-VAN-ed886787-10-nitrile
     RDKit          3D

 25 26  0  0  0  0  0  0  0  0999 V2000
    7.0210   -3.0360   19.1150 C   0  0  0  0  0  0  0  0  0  0  0  0
    5.9200   -3.6490   19.4520 N   0  0  0  0  0  0  0  0  0  0  0  0
    7.0610   -1.6520   18.8000 N   0  0  0  0  0  0  0  0  0  0  0  0
    7.3810   -0.5340   19.7530 C   0  0  0  0  0  0  0  0  0  0  0  0
    7.3220    0.6520   19.4090 O   0  0  0  0  0  0  0  0  0  0  0  0
    7.7380   -0.8170   21.1810 C   0  0  0  0  0  0  0  0  0  0  0  0
    8.9840   -1.5970   21.3260 N   0  0  0  0  0  0  0  0  0  0  0  0
    9.9760   -0.8980   22.1230 C   0  0  0  0  0  0  0  0  0  0  0  0
   11.2050   -1.5100   22.2950 C   0  0  0  0  0  0  0  0  0  0  0  0
    9.7300    0.3240   22.6910 C   0  0  0  0  0  0  0  0  0  0  0  0
   12.2430   -0.9650   23.0260 C   0  0  0  0  0  0  0  0  0  0  0  0
   10.7950    1.0030   23.4960 C   0  0  0  0  0  0  0  0  0  0  0  0
   13.4270   -1.6010   23.1830 C   0  0  0  0  0  0  0  0  0  0  0  0
   12.0340    0.4140   23.6870 C   0  0  0  0  0  0  0  0  0  0  0  0
   10.2690    2.3120   23.9910 C   0  0  0  0  0  0  0  0  0  0  0  0
   11.0870    3.4600   23.4090 C   0  0  0  0  0  0  0  0  0  0  0  0
   10.5890    4.6630   23.5900 N   0  0  0  0  0  0  0  0  0  0  0  0
   12.2920    3.2120   22.7250 C   0  0  0  0  0  0  0  0  0  0  0  0
   11.2850    5.8620   23.0760 C   0  0  0  0  0  0  0  0  0  0  0  0
   12.9990    4.3040   22.2050 C   0  0  0  0  0  0  0  0  0  0  0  0
   12.7600    1.9750   22.5700 F   0  0  0  0  0  0  0  0  0  0  0  0
   10.8560    6.9160   23.2420 N   0  0  0  0  0  0  0  0  0  0  0  0
   12.5830    5.6260   22.3300 C   0  0  0  0  0  0  0  0  0  0  0  0
   10.7430    7.4950   24.5170 C   0  0  0  0  0  0  0  0  0  0  0  0
   11.9700    7.6780   25.0280 C   0  0  0  0  0  0  0  0  0  0  0  0
  1  2  2  3
  1  3  1  0
  3  4  1  0
  4  5  2  0
  4  6  1  0
  6  7  1  0
  7  8  1  0
  8  9  2  0
  8 10  1  0
  9 11  1  0
 10 12  2  0
 11 13  1  0
 11 14  2  0
 12 14  1  0
 12 15  1  0
 15 16  1  0
 16 17  2  0
 16 18  1  0
 17 19  1  0
 18 20  2  0
 18 21  1  0
 19 22  1  0
 19 23  2  0
 20 23  1  0
 22 24  1  0
 24 25  1  0
M  END
