BEN-VAN-ed886787-8
     RDKit          3D

 31 33  0  0  0  0  0  0  0  0999 V2000
   20.4890   -2.2140   19.5040 C   0  0  0  0  0  0  0  0  0  0  0  0
   19.2830   -2.1710   18.5700 C   0  0  0  0  0  0  0  0  0  0  0  0
   18.9950   -0.9480   18.0890 N   0  0  0  0  0  0  0  0  0  0  0  0
   17.7110   -0.2960   18.0560 C   0  0  0  0  0  0  0  0  0  0  0  0
   17.5740    0.7230   17.2970 C   0  0  0  0  0  0  0  0  0  0  0  0
   16.6960   -0.6640   18.7510 N   0  0  0  0  0  0  0  0  0  0  0  0
   16.4020    1.4110   17.2900 C   0  0  0  0  0  0  0  0  0  0  0  0
   15.4990   -0.0480   18.8090 C   0  0  0  0  0  0  0  0  0  0  0  0
   15.3420    1.0790   18.0490 C   0  0  0  0  0  0  0  0  0  0  0  0
   14.5600   -0.7360   19.6230 C   0  0  0  0  0  0  0  0  0  0  0  0
   14.3030    1.8330   17.9670 F   0  0  0  0  0  0  0  0  0  0  0  0
   13.5460   -0.8030   20.9030 C   0  0  0  0  0  0  0  0  0  0  0  0
   13.5970    0.0840   22.1320 C   0  0  0  0  0  0  0  0  0  0  0  0
   12.4490   -1.7650   20.8850 C   0  0  0  0  0  0  0  0  0  0  0  0
   12.4720   -0.1520   23.1270 C   0  0  0  0  0  0  0  0  0  0  0  0
   11.4290   -1.9090   21.8550 C   0  0  0  0  0  0  0  0  0  0  0  0
   12.2850    0.4780   24.2520 C   0  0  0  0  0  0  0  0  0  0  0  0
   11.4420   -1.1460   22.9200 C   0  0  0  0  0  0  0  0  0  0  0  0
   10.3290   -2.8490   21.7360 N   0  0  0  0  0  0  0  0  0  0  0  0
   12.5740   -0.6100   25.2170 C   0  0  0  0  0  0  0  0  0  0  0  0
    9.0810   -2.6050   22.4830 C   0  0  0  0  0  0  0  0  0  0  0  0
    8.3520   -1.5650   21.8920 C   0  0  0  0  0  0  0  0  0  0  0  0
    8.9290   -0.5020   21.6860 O   0  0  0  0  0  0  0  0  0  0  0  0
    7.0490   -1.7650   21.5960 N   0  0  0  0  0  0  0  0  0  0  0  0
    6.4660   -0.9800   20.6610 C   0  0  0  0  0  0  0  0  0  0  0  0
    5.1290   -0.3760   21.1450 C   0  0  0  0  0  0  0  0  0  0  0  0
    7.0330   -0.7390   19.3600 C   0  0  0  0  0  0  0  0  0  0  0  0
    4.4660    0.5050   20.1010 C   0  0  0  0  0  0  0  0  0  0  0  0
    6.4750    0.0440   18.3860 N   0  0  0  0  0  0  0  0  0  0  0  0
    5.3690    0.4820   18.9250 C   0  0  0  0  0  0  0  0  0  0  0  0
    4.8030    1.2550   17.9980 F   0  0  0  0  0  0  0  0  0  0  0  0
  1  2  1  0
  2  3  1  0
  3  4  1  0
  4  5  2  0
  4  6  1  0
  5  7  1  0
  6  8  2  0
  7  9  2  0
  8  9  1  0
  8 10  1  0
  9 11  1  0
 10 12  1  0
 12 13  2  0
 12 14  1  0
 13 15  1  0
 14 16  2  0
 15 17  1  0
 15 18  2  0
 16 18  1  0
 16 19  1  0
 17 20  1  0
 19 21  1  0
 21 22  1  0
 22 23  2  0
 22 24  1  0
 24 25  1  0
 25 26  2  0
 25 27  1  0
 26 28  1  0
 27 29  2  0
 28 30  2  0
 29 30  1  0
 30 31  1  0
M  END
