BEN-VAN-d8fd1356-16
     RDKit          3D

 25 27  0  0  0  0  0  0  0  0999 V2000
   13.2380    6.2920   22.5290 C   0  0  0  0  0  0  0  0  0  0  0  0
   12.4180    5.2370   23.1710 C   0  0  0  0  0  0  0  0  0  0  0  0
   12.7630    3.9180   22.8990 C   0  0  0  0  0  0  0  0  0  0  0  0
   11.7580    2.9930   22.8900 C   0  0  0  0  0  0  0  0  0  0  0  0
   10.4810    3.4940   23.0250 C   0  0  0  0  0  0  0  0  0  0  0  0
   11.6700    1.5640   22.7460 C   0  0  0  0  0  0  0  0  0  0  0  0
    9.6350    2.4890   22.9320 N   0  0  0  0  0  0  0  0  0  0  0  0
   10.3000    1.3300   22.7420 C   0  0  0  0  0  0  0  0  0  0  0  0
   12.4910    0.4530   22.6000 C   0  0  0  0  0  0  0  0  0  0  0  0
    9.6310    0.0120   22.5470 C   0  0  0  0  0  0  0  0  0  0  0  0
   11.9760   -0.8450   22.4330 C   0  0  0  0  0  0  0  0  0  0  0  0
    8.1880    0.1400   22.5470 O   0  0  0  0  0  0  0  0  0  0  0  0
   10.5610   -1.0860   22.3980 C   0  0  0  0  0  0  0  0  0  0  0  0
   12.8550   -1.8580   22.2880 F   0  0  0  0  0  0  0  0  0  0  0  0
    7.2670    0.2070   21.4190 C   0  0  0  0  0  0  0  0  0  0  0  0
    6.2290    1.3350   21.0660 C   0  0  0  0  0  0  0  0  0  0  0  0
    7.3420   -0.7270   20.7700 N   0  0  0  0  0  0  0  0  0  0  0  0
    5.3830    1.0860   19.8560 C   0  0  0  0  0  0  0  0  0  0  0  0
    6.5230   -0.8920   19.6680 C   0  0  0  0  0  0  0  0  0  0  0  0
    4.3990    2.2130   19.6060 C   0  0  0  0  0  0  0  0  0  0  0  0
    5.5830   -0.0590   19.1840 C   0  0  0  0  0  0  0  0  0  0  0  0
    6.8920   -2.4160   18.9950 S   0  0  0  0  0  0  0  0  0  0  0  0
    7.9260   -2.9260   20.2330 N   0  0  0  0  0  0  0  0  0  0  0  0
    7.7710   -2.1860   17.9090 O   0  0  0  0  0  0  0  0  0  0  0  0
    5.7520   -3.3160   19.0290 O   0  0  0  0  0  0  0  0  0  0  0  0
  1  2  1  0
  2  3  1  0
  3  4  1  0
  4  5  2  0
  4  6  1  0
  5  7  1  0
  6  8  2  0
  7  8  1  0
  6  9  1  0
  8 10  1  0
  9 11  2  0
 10 12  1  0
 10 13  2  0
 11 13  1  0
 11 14  1  0
 12 15  1  0
 15 16  2  0
 15 17  1  0
 16 18  1  0
 17 19  2  0
 18 20  1  0
 18 21  2  0
 19 21  1  0
 19 22  1  0
 22 23  1  0
 22 24  2  0
 22 25  2  0
M  END
