BEN-VAN-d2b455e2-6-chloroacetamide
     RDKit          3D

 24 26  0  0  0  0  0  0  0  0999 V2000
    7.1810   -4.3010   20.7060 C   0  0  0  0  0  0  0  0  0  0  0  0
    7.2940   -3.0850   19.8300 C   0  0  0  0  0  0  0  0  0  0  0  0
    6.5830   -3.0270   18.7950 O   0  0  0  0  0  0  0  0  0  0  0  0
    8.2410   -2.0550   20.2320 N   0  0  0  0  0  0  0  0  0  0  0  0
    9.2100   -2.3050   21.3790 C   0  0  0  0  0  0  0  0  0  0  0  0
    9.3600   -3.3690   21.9190 O   0  0  0  0  0  0  0  0  0  0  0  0
    9.9900   -1.2010   21.8380 C   0  0  2  0  0  0  0  0  0  0  0  0
   11.3290   -1.6610   22.3780 C   0  0  0  0  0  0  0  0  0  0  0  0
    9.2880   -0.7480   23.1430 C   0  0  2  0  0  0  0  0  0  0  0  0
   11.3730   -1.6590   23.8540 C   0  0  0  0  0  0  0  0  0  0  0  0
   10.3650   -0.8010   24.2260 C   0  0  0  0  0  0  0  0  0  0  0  0
    8.2470   -1.6900   23.2370 C   0  0  0  0  0  0  0  0  0  0  0  0
    8.3490   -2.9150   23.8890 C   0  0  0  0  0  0  0  0  0  0  0  0
    6.9680   -1.4960   22.6610 C   0  0  0  0  0  0  0  0  0  0  0  0
    7.1120   -3.7120   23.8300 C   0  0  0  0  0  0  0  0  0  0  0  0
    5.8540   -2.9490   22.9840 S   0  0  0  0  0  0  0  0  0  0  0  0
    6.4300   -0.3280   21.8750 C   0  0  0  0  0  0  0  0  0  0  0  0
    5.9370    1.0450   21.8200 N   0  0  0  0  0  0  0  0  0  0  0  0
    6.4220   -0.8830   20.5910 N   0  0  0  0  0  0  0  0  0  0  0  0
    5.5360    1.6300   20.5790 C   0  0  0  0  0  0  0  0  0  0  0  0
    6.0230   -0.2660   19.4370 C   0  0  0  0  0  0  0  0  0  0  0  0
    5.5390    1.0250   19.2370 C   0  0  0  0  0  0  0  0  0  0  0  0
    5.3460    1.0720   18.1290 N   0  0  0  0  0  0  0  0  0  0  0  0
    4.6890    2.3110   17.8290 C   0  0  0  0  0  0  0  0  0  0  0  0
  1  2  1  0
  2  3  2  0
  2  4  1  0
  4  5  1  0
  5  6  2  0
  7  5  1  1
  7  8  1  0
  7  9  1  0
  8 10  1  0
  9 11  1  0
 10 11  1  0
  9 12  1  1
 12 13  1  0
 12 14  2  0
 13 15  2  0
 14 16  1  0
 15 16  1  0
 14 17  1  0
 17 18  2  0
 17 19  1  0
 18 20  1  0
 19 21  2  0
 20 22  2  0
 21 22  1  0
 22 23  1  0
 23 24  1  0
M  END
