BEN-VAN-d8fd1356-19
     RDKit          3D

 22 24  0  0  0  0  0  0  0  0999 V2000
    4.1220    1.1650   21.8200 C   0  0  0  0  0  0  0  0  0  0  0  0
    5.2570    0.6740   21.0130 C   0  0  0  0  0  0  0  0  0  0  0  0
    5.2870    0.8080   19.6300 C   0  0  0  0  0  0  0  0  0  0  0  0
    6.3460    0.0580   21.6410 C   0  0  0  0  0  0  0  0  0  0  0  0
    6.3460    0.3440   18.9050 C   0  0  0  0  0  0  0  0  0  0  0  0
    7.4200   -0.4090   20.9050 C   0  0  0  0  0  0  0  0  0  0  0  0
    7.4200   -0.2690   19.5070 N   0  0  0  0  0  0  0  0  0  0  0  0
    8.4150   -1.0070   21.7850 O   0  0  0  0  0  0  0  0  0  0  0  0
    9.7410   -0.4990   22.1050 C   0  0  0  0  0  0  0  0  0  0  0  0
   10.9580   -1.4750   22.0760 C   0  0  0  0  0  0  0  0  0  0  0  0
   10.0620    0.8440   22.4240 C   0  0  0  0  0  0  0  0  0  0  0  0
   12.4280   -1.0090   22.3470 C   0  0  0  0  0  0  0  0  0  0  0  0
   11.3710    1.3270   22.6400 C   0  0  0  0  0  0  0  0  0  0  0  0
    9.2150    1.9550   22.5670 N   0  0  0  0  0  0  0  0  0  0  0  0
   13.4400   -1.8750   22.3060 F   0  0  0  0  0  0  0  0  0  0  0  0
   12.6510    0.5050   22.6370 C   0  0  0  0  0  0  0  0  0  0  0  0
   11.2850    2.8670   22.8350 C   0  0  0  0  0  0  0  0  0  0  0  0
    9.9630    3.2120   22.8250 C   0  0  0  0  0  0  0  0  0  0  0  0
   12.3850    3.9590   22.9800 C   0  0  0  0  0  0  0  0  0  0  0  0
   13.6210    3.5140   22.8220 F   0  0  0  0  0  0  0  0  0  0  0  0
   12.2690    4.8140   21.9350 F   0  0  0  0  0  0  0  0  0  0  0  0
   12.2630    4.8020   24.0270 F   0  0  0  0  0  0  0  0  0  0  0  0
  1  2  1  0
  2  3  2  0
  2  4  1  0
  3  5  1  0
  4  6  2  0
  5  7  2  0
  6  7  1  0
  6  8  1  0
  8  9  1  0
  9 10  2  0
  9 11  1  0
 10 12  1  0
 11 13  2  0
 11 14  1  0
 12 15  1  0
 12 16  2  0
 13 16  1  0
 13 17  1  0
 14 18  1  0
 17 18  2  0
 17 19  1  0
 19 20  1  0
 19 21  1  0
 19 22  1  0
M  END
