BEN-VAN-c986b20b-4
     RDKit          3D

 25 27  0  0  0  0  0  0  0  0999 V2000
   14.2920    4.9480   22.1840 C   0  0  0  0  0  0  0  0  0  0  0  0
   13.1510    5.8070   22.3530 C   0  0  0  0  0  0  0  0  0  0  0  0
   12.1320    4.8370   22.8620 C   0  0  0  0  0  0  0  0  0  0  0  0
   12.5850    3.3670   22.7730 C   0  0  0  0  0  0  0  0  0  0  0  0
   10.9610    5.2740   23.3230 N   0  0  0  0  0  0  0  0  0  0  0  0
   11.6050    2.3180   23.2260 C   0  0  0  0  0  0  0  0  0  0  0  0
   10.1180    4.2430   23.7330 C   0  0  0  0  0  0  0  0  0  0  0  0
   11.4010    0.8940   23.3430 C   0  0  0  0  0  0  0  0  0  0  0  0
   10.3830    2.8100   23.7030 N   0  0  0  0  0  0  0  0  0  0  0  0
   10.2150    0.5140   24.0330 C   0  0  0  0  0  0  0  0  0  0  0  0
   12.2230   -0.1450   22.7990 C   0  0  0  0  0  0  0  0  0  0  0  0
    9.6890   -0.7580   24.2140 C   0  0  0  0  0  0  0  0  0  0  0  0
   11.6420   -1.5190   22.9780 C   0  0  0  0  0  0  0  0  0  0  0  0
   13.3830   -0.0410   22.1420 F   0  0  0  0  0  0  0  0  0  0  0  0
   10.4250   -1.7370   23.6370 C   0  0  0  0  0  0  0  0  0  0  0  0
    9.8240   -2.9550   23.7320 C   0  0  0  0  0  0  0  0  0  0  0  0
    8.4470   -2.6230   23.2580 N   0  0  0  0  0  0  0  0  0  0  0  0
    8.5600   -1.8710   21.9930 C   0  0  0  0  0  0  0  0  0  0  0  0
    7.6170   -3.8050   23.0100 C   0  0  0  0  0  0  0  0  0  0  0  0
    7.1980   -1.4860   21.3880 C   0  0  0  0  0  0  0  0  0  0  0  0
    6.3150   -3.4880   22.5700 C   0  0  0  0  0  0  0  0  0  0  0  0
    6.2530   -2.6250   21.3570 N   0  0  0  0  0  0  0  0  0  0  0  0
    5.8020   -3.0830   20.0300 C   0  0  0  0  0  0  0  0  0  0  0  0
    5.9670   -2.0380   18.8910 C   0  0  0  0  0  0  0  0  0  0  0  0
    5.3490   -4.2070   19.8120 O   0  0  0  0  0  0  0  0  0  0  0  0
  1  2  1  0
  2  3  1  0
  3  4  2  0
  3  5  1  0
  4  6  1  0
  5  7  2  0
  6  8  1  0
  6  9  2  0
  7  9  1  0
  8 10  2  0
  8 11  1  0
 10 12  1  0
 11 13  2  0
 11 14  1  0
 12 15  2  0
 13 15  1  0
 15 16  1  0
 16 17  1  0
 17 18  1  0
 17 19  1  0
 18 20  1  0
 19 21  1  0
 20 22  1  0
 21 22  1  0
 22 23  1  0
 23 24  1  0
 23 25  2  0
M  END
