BEN-VAN-d8fd1356-11
     RDKit          3D

 24 27  0  0  0  0  0  0  0  0999 V2000
   12.5540    5.2250   23.3090 C   0  0  0  0  0  0  0  0  0  0  0  0
   12.7780    3.8260   22.8790 C   0  0  0  0  0  0  0  0  0  0  0  0
   11.7240    2.9210   22.8350 C   0  0  0  0  0  0  0  0  0  0  0  0
   10.4420    3.3200   22.8910 C   0  0  0  0  0  0  0  0  0  0  0  0
   11.6030    1.4700   22.7010 C   0  0  0  0  0  0  0  0  0  0  0  0
    9.5480    2.3850   22.7770 N   0  0  0  0  0  0  0  0  0  0  0  0
   10.1970    1.2000   22.6240 C   0  0  0  0  0  0  0  0  0  0  0  0
   12.4520    0.3750   22.6090 C   0  0  0  0  0  0  0  0  0  0  0  0
    9.6110   -0.0460   22.4170 C   0  0  0  0  0  0  0  0  0  0  0  0
   11.9510   -0.9150   22.4270 C   0  0  0  0  0  0  0  0  0  0  0  0
    8.1580   -0.0310   22.3160 O   0  0  0  0  0  0  0  0  0  0  0  0
   10.5390   -1.1490   22.3240 C   0  0  0  0  0  0  0  0  0  0  0  0
   12.8330   -1.9300   22.3330 F   0  0  0  0  0  0  0  0  0  0  0  0
    7.3480    0.0210   21.0800 C   0  0  0  0  0  0  0  0  0  0  0  0
    6.0150    0.8450   20.9570 C   0  0  0  0  0  0  0  0  0  0  0  0
    7.7540   -0.6820   20.0160 N   0  0  0  0  0  0  0  0  0  0  0  0
    5.3000    0.7640   19.6420 C   0  0  0  0  0  0  0  0  0  0  0  0
    7.0350   -0.6710   18.9000 C   0  0  0  0  0  0  0  0  0  0  0  0
    3.9950    1.6110   19.6730 C   0  0  0  0  0  0  0  0  0  0  0  0
    5.8660   -0.0070   18.6590 C   0  0  0  0  0  0  0  0  0  0  0  0
    3.6990    2.7750   18.7240 C   0  0  0  0  0  0  0  0  0  0  0  0
    2.8780    1.5050   20.5260 N   0  0  0  0  0  0  0  0  0  0  0  0
    2.4630    3.2680   19.0720 N   0  0  0  0  0  0  0  0  0  0  0  0
    1.8960    2.5010   20.2030 C   0  0  0  0  0  0  0  0  0  0  0  0
  1  2  1  0
  2  3  1  0
  3  4  2  0
  3  5  1  0
  4  6  1  0
  5  7  2  0
  6  7  1  0
  5  8  1  0
  7  9  1  0
  8 10  2  0
  9 11  1  0
  9 12  2  0
 10 12  1  0
 10 13  1  0
 11 14  1  0
 14 15  2  0
 14 16  1  0
 15 17  1  0
 16 18  2  0
 17 19  1  0
 17 20  2  0
 18 20  1  0
 19 21  2  0
 19 22  1  0
 21 23  1  0
 22 24  1  0
 23 24  2  0
M  END
