BEN-VAN-5787f7d3-12
     RDKit          3D

 28 31  0  0  0  0  0  0  0  0999 V2000
    6.9910   -6.6780   22.8720 C   0  0  0  0  0  0  0  0  0  0  0  0
    7.0290   -5.8350   21.6570 C   0  0  0  0  0  0  0  0  0  0  0  0
    7.7270   -4.8460   21.6720 O   0  0  0  0  0  0  0  0  0  0  0  0
    7.2880   -3.6700   21.2600 C   0  0  0  0  0  0  0  0  0  0  0  0
    7.9720   -2.8260   20.4690 C   0  0  0  0  0  0  0  0  0  0  0  0
    6.0530   -3.3260   21.6910 C   0  0  0  0  0  0  0  0  0  0  0  0
    7.5680   -1.6620   20.0030 N   0  0  0  0  0  0  0  0  0  0  0  0
    5.5540   -2.0860   21.2350 C   0  0  0  0  0  0  0  0  0  0  0  0
    5.2070   -4.1390   22.5950 C   0  0  0  0  0  0  0  0  0  0  0  0
    6.3460   -1.3180   20.3870 C   0  0  0  0  0  0  0  0  0  0  0  0
    4.8540   -5.4790   22.3520 C   0  0  0  0  0  0  0  0  0  0  0  0
    4.7430   -3.5420   23.7510 C   0  0  0  0  0  0  0  0  0  0  0  0
    5.9360   -0.1700   19.8530 C   0  0  0  0  0  0  0  0  0  0  0  0
    4.0670   -6.1970   23.2370 C   0  0  0  0  0  0  0  0  0  0  0  0
    3.9540   -4.2380   24.6500 C   0  0  0  0  0  0  0  0  0  0  0  0
    6.1620   -0.0690   18.3700 C   0  0  0  0  0  0  0  0  0  0  0  0
    5.3270    0.8600   20.5350 C   0  0  0  0  0  0  0  0  0  0  0  0
    3.6060   -5.5840   24.4000 C   0  0  0  0  0  0  0  0  0  0  0  0
    3.5050   -3.6360   25.7900 N   0  0  0  0  0  0  0  0  0  0  0  0
    5.7800    0.9980   17.6370 N   0  0  0  0  0  0  0  0  0  0  0  0
    4.9260    1.9470   19.8000 C   0  0  0  0  0  0  0  0  0  0  0  0
    5.0480    0.8890   22.0370 C   0  0  0  0  0  0  0  0  0  0  0  0
    2.1430   -3.5380   26.1000 C   0  0  0  0  0  0  0  0  0  0  0  0
    4.1320   -2.4880   26.3700 C   0  0  0  0  0  0  0  0  0  0  0  0
    5.1220    2.0330   18.4340 C   0  0  0  0  0  0  0  0  0  0  0  0
    1.8390   -2.4780   26.9150 C   0  0  0  0  0  0  0  0  0  0  0  0
    3.1400   -1.8380   27.1240 C   0  0  0  0  0  0  0  0  0  0  0  0
    5.2810   -2.0810   26.2750 O   0  0  0  0  0  0  0  0  0  0  0  0
  1  2  1  0
  2  3  1  0
  3  4  1  0
  4  5  2  0
  4  6  1  0
  5  7  1  0
  6  8  2  0
  6  9  1  0
  7 10  2  0
  8 10  1  0
  9 11  2  0
  9 12  1  0
 10 13  1  0
 11 14  1  0
 12 15  2  0
 13 16  2  0
 13 17  1  0
 14 18  2  0
 15 18  1  0
 15 19  1  0
 16 20  1  0
 17 21  2  0
 17 22  1  0
 19 23  1  0
 19 24  1  0
 20 25  2  0
 21 25  1  0
 23 26  1  0
 24 27  1  0
 26 27  1  0
 24 28  2  0
M  END
