BEN-VAN-d8fd1356-9
     RDKit          3D

 26 29  0  0  0  0  0  0  0  0999 V2000
   12.8300    5.9370   22.3260 C   0  0  0  0  0  0  0  0  0  0  0  0
   12.5200    4.8870   23.3500 C   0  0  0  0  0  0  0  0  0  0  0  0
   12.5370    3.5420   22.9290 C   0  0  0  0  0  0  0  0  0  0  0  0
   11.4350    2.6980   22.9490 C   0  0  0  0  0  0  0  0  0  0  0  0
   10.1580    3.2000   23.1080 C   0  0  0  0  0  0  0  0  0  0  0  0
   11.2960    1.2640   22.8030 C   0  0  0  0  0  0  0  0  0  0  0  0
    9.3000    2.1640   23.0230 N   0  0  0  0  0  0  0  0  0  0  0  0
    9.9670    0.9840   22.8160 C   0  0  0  0  0  0  0  0  0  0  0  0
   12.1120    0.1800   22.6450 C   0  0  0  0  0  0  0  0  0  0  0  0
    9.4330   -0.4300   22.6120 C   0  0  0  0  0  0  0  0  0  0  0  0
   11.7290   -1.1270   22.4730 C   0  0  0  0  0  0  0  0  0  0  0  0
   13.6770    0.4910   22.6650 Cl  0  0  0  0  0  0  0  0  0  0  0  0
    8.0530   -0.5600   22.5930 O   0  0  0  0  0  0  0  0  0  0  0  0
   10.3900   -1.4650   22.4470 C   0  0  0  0  0  0  0  0  0  0  0  0
   12.6980   -2.0510   22.3200 F   0  0  0  0  0  0  0  0  0  0  0  0
    7.3550   -0.2750   21.4040 C   0  0  0  0  0  0  0  0  0  0  0  0
    6.0720    0.5360   21.4740 C   0  0  0  0  0  0  0  0  0  0  0  0
    7.8400   -0.7390   20.2170 N   0  0  0  0  0  0  0  0  0  0  0  0
    5.4180    0.7650   20.1620 C   0  0  0  0  0  0  0  0  0  0  0  0
    7.1690   -0.4720   19.1160 C   0  0  0  0  0  0  0  0  0  0  0  0
    4.1330    1.5860   20.3500 C   0  0  0  0  0  0  0  0  0  0  0  0
    6.0060    0.2420   19.0220 C   0  0  0  0  0  0  0  0  0  0  0  0
    3.2230    2.3670   19.3870 C   0  0  0  0  0  0  0  0  0  0  0  0
    3.5170    1.7680   21.6050 N   0  0  0  0  0  0  0  0  0  0  0  0
    2.1980    2.9240   20.0380 N   0  0  0  0  0  0  0  0  0  0  0  0
    2.3280    2.5760   21.4710 C   0  0  0  0  0  0  0  0  0  0  0  0
  1  2  1  0
  2  3  1  0
  3  4  1  0
  4  5  2  0
  4  6  1  0
  5  7  1  0
  6  8  2  0
  7  8  1  0
  6  9  1  0
  8 10  1  0
  9 11  2  0
  9 12  1  0
 10 13  1  0
 10 14  2  0
 11 14  1  0
 11 15  1  0
 13 16  1  0
 16 17  2  0
 16 18  1  0
 17 19  1  0
 18 20  2  0
 19 21  1  0
 19 22  2  0
 20 22  1  0
 21 23  2  0
 21 24  1  0
 23 25  1  0
 24 26  1  0
 25 26  2  0
M  END
