BEN-VAN-d8fd1356-2
     RDKit          3D

 23 25  0  0  0  0  0  0  0  0999 V2000
   13.5750    5.3180   22.1690 C   0  0  0  0  0  0  0  0  0  0  0  0
   12.2430    4.7050   22.4330 C   0  0  0  0  0  0  0  0  0  0  0  0
   12.1350    3.5770   23.2490 C   0  0  0  0  0  0  0  0  0  0  0  0
   11.2840    2.5480   22.9260 C   0  0  0  0  0  0  0  0  0  0  0  0
    9.9450    2.8360   22.7960 C   0  0  0  0  0  0  0  0  0  0  0  0
   11.4530    1.1410   22.6550 C   0  0  0  0  0  0  0  0  0  0  0  0
    9.3100    1.7130   22.4260 N   0  0  0  0  0  0  0  0  0  0  0  0
   10.1820    0.6580   22.2990 C   0  0  0  0  0  0  0  0  0  0  0  0
   12.5000    0.2340   22.6390 C   0  0  0  0  0  0  0  0  0  0  0  0
    9.9260   -0.8040   21.8380 C   0  0  0  0  0  0  0  0  0  0  0  0
   12.3190   -1.1010   22.2760 C   0  0  0  0  0  0  0  0  0  0  0  0
   13.7010    0.6390   22.9630 F   0  0  0  0  0  0  0  0  0  0  0  0
    8.6640   -1.3130   21.3820 O   0  0  0  0  0  0  0  0  0  0  0  0
   11.0820   -1.6120   21.8830 C   0  0  0  0  0  0  0  0  0  0  0  0
   13.3650   -1.9290   22.2800 F   0  0  0  0  0  0  0  0  0  0  0  0
    7.6740   -0.6570   20.5340 C   0  0  0  0  0  0  0  0  0  0  0  0
    7.5500   -0.7310   19.3420 N   0  0  0  0  0  0  0  0  0  0  0  0
    6.7380    0.1660   21.3910 C   0  0  0  0  0  0  0  0  0  0  0  0
    6.4290    0.0380   18.7130 C   0  0  0  0  0  0  0  0  0  0  0  0
    5.6650    0.9060   20.9060 C   0  0  0  0  0  0  0  0  0  0  0  0
    6.9930    0.1450   22.6860 F   0  0  0  0  0  0  0  0  0  0  0  0
    5.4610    0.8800   19.5340 C   0  0  0  0  0  0  0  0  0  0  0  0
    4.7330    1.7200   21.8230 C   0  0  0  0  0  0  0  0  0  0  0  0
  1  2  1  0
  2  3  1  0
  3  4  1  0
  4  5  2  0
  4  6  1  0
  5  7  1  0
  6  8  2  0
  7  8  1  0
  6  9  1  0
  8 10  1  0
  9 11  2  0
  9 12  1  0
 10 13  1  0
 10 14  2  0
 11 14  1  0
 11 15  1  0
 13 16  1  0
 16 17  2  0
 16 18  1  0
 17 19  1  0
 18 20  2  0
 18 21  1  0
 19 22  2  0
 20 22  1  0
 20 23  1  0
M  END
