BEN-VAN-d2b455e2-14-chloroacetamide
     RDKit          3D

 29 31  0  0  0  0  0  0  0  0999 V2000
    7.4910   -3.8290   20.3840 C   0  0  0  0  0  0  0  0  0  0  0  0
    6.2500   -3.0030   20.2260 C   0  0  0  0  0  0  0  0  0  0  0  0
    5.4490   -3.3100   19.3110 O   0  0  0  0  0  0  0  0  0  0  0  0
    6.1390   -1.9570   21.1800 N   0  0  0  0  0  0  0  0  0  0  0  0
    7.1750   -1.1060   21.6530 C   0  0  0  0  0  0  0  0  0  0  0  0
    7.8870   -0.5080   20.8690 O   0  0  0  0  0  0  0  0  0  0  0  0
    7.2940   -0.9970   23.1920 C   0  0  2  0  0  0  0  0  0  0  0  0
    6.2230   -0.1410   23.8840 C   0  0  0  0  0  0  0  0  0  0  0  0
    8.5890   -0.4500   23.8630 C   0  0  1  0  0  0  0  0  0  0  0  0
    6.7830    0.1650   25.2760 C   0  0  0  0  0  0  0  0  0  0  0  0
    8.1440   -0.5180   25.3160 C   0  0  0  0  0  0  0  0  0  0  0  0
    9.9560   -1.0980   23.6500 C   0  0  0  0  0  0  0  0  0  0  0  0
   10.8460   -1.6210   24.5580 C   0  0  0  0  0  0  0  0  0  0  0  0
   10.4710   -1.2090   22.3520 C   0  0  0  0  0  0  0  0  0  0  0  0
   12.2600   -2.2620   23.8730 S   0  0  0  0  0  0  0  0  0  0  0  0
   11.7190   -1.8340   22.3240 C   0  0  0  0  0  0  0  0  0  0  0  0
    9.6500   -0.6610   21.4200 N   0  0  0  0  0  0  0  0  0  0  0  0
   12.7830   -2.2260   21.0520 Cl  0  0  0  0  0  0  0  0  0  0  0  0
    9.4160    0.7220   21.7030 C   0  0  0  0  0  0  0  0  0  0  0  0
   10.4580    1.1240   22.4540 C   0  0  0  0  0  0  0  0  0  0  0  0
    8.4220    1.6850   21.3950 C   0  0  0  0  0  0  0  0  0  0  0  0
   10.6110    2.3720   22.9170 C   0  0  0  0  0  0  0  0  0  0  0  0
    8.6410    2.9730   21.9170 C   0  0  0  0  0  0  0  0  0  0  0  0
    7.2410    1.4760   20.6130 C   0  0  0  0  0  0  0  0  0  0  0  0
   11.7730    2.4120   23.6210 N   0  0  0  0  0  0  0  0  0  0  0  0
    9.7210    3.3450   22.6760 N   0  0  0  0  0  0  0  0  0  0  0  0
    6.2900    1.3400   19.9650 N   0  0  0  0  0  0  0  0  0  0  0  0
   12.1460    0.9950   23.8280 C   0  0  0  0  0  0  0  0  0  0  0  0
   13.2370    0.4490   22.9110 C   0  0  0  0  0  0  0  0  0  0  0  0
  1  2  1  0
  2  3  2  0
  2  4  1  0
  4  5  1  0
  5  6  2  0
  7  5  1  6
  7  8  1  0
  7  9  1  0
  8 10  1  0
  9 11  1  0
 10 11  1  0
  9 12  1  1
 12 13  2  0
 12 14  1  0
 13 15  1  0
 14 16  2  0
 15 16  1  0
 14 17  1  0
 16 18  1  0
 17 19  1  0
 19 20  2  0
 19 21  1  0
 20 22  1  0
 21 23  2  0
 21 24  1  0
 22 25  1  0
 22 26  2  0
 23 26  1  0
 24 27  3  0
 25 28  1  0
 28 29  1  0
M  END
