BEN-VAN-d2b455e2-4-vinylsulfonamide
     RDKit          3D

 27 29  0  0  0  0  0  0  0  0999 V2000
    7.9010   -3.3250   19.1400 C   0  0  0  0  0  0  0  0  0  0  0  0
    6.4990   -3.5230   19.6790 C   0  0  0  0  0  0  0  0  0  0  0  0
    6.5330   -3.6970   21.4130 S   0  0  0  0  0  0  0  0  0  0  0  0
    5.0180   -3.6220   21.6350 O   0  0  0  0  0  0  0  0  0  0  0  0
    7.1830   -4.9460   21.7300 O   0  0  0  0  0  0  0  0  0  0  0  0
    7.6600   -2.3880   21.8800 N   0  0  0  0  0  0  0  0  0  0  0  0
    9.2630   -2.3240   21.8970 C   0  0  0  0  0  0  0  0  0  0  0  0
   10.0680   -2.9080   21.1800 O   0  0  0  0  0  0  0  0  0  0  0  0
    9.8160   -1.5160   22.9170 C   0  0  1  0  0  0  0  0  0  0  0  0
   11.0760   -2.0850   23.5220 C   0  0  0  0  0  0  0  0  0  0  0  0
   10.3590   -0.1040   22.5410 C   0  0  2  0  0  0  0  0  0  0  0  0
   11.7180   -1.0170   24.3030 C   0  0  0  0  0  0  0  0  0  0  0  0
   11.1450    0.1200   23.8170 C   0  0  0  0  0  0  0  0  0  0  0  0
    9.4080    0.9100   22.1410 C   0  0  0  0  0  0  0  0  0  0  0  0
    9.5790    2.1270   22.7970 C   0  0  0  0  0  0  0  0  0  0  0  0
    8.2760    1.0290   21.1760 C   0  0  0  0  0  0  0  0  0  0  0  0
   10.8070    2.3890   23.9290 Cl  0  0  0  0  0  0  0  0  0  0  0  0
    8.6220    3.1350   22.4090 C   0  0  0  0  0  0  0  0  0  0  0  0
    7.5390    2.6150   21.2550 S   0  0  0  0  0  0  0  0  0  0  0  0
    7.3510    0.4620   20.0610 C   0  0  0  0  0  0  0  0  0  0  0  0
    6.8270   -0.2870   18.8730 N   0  0  0  0  0  0  0  0  0  0  0  0
    6.3130    1.2350   20.5730 N   0  0  0  0  0  0  0  0  0  0  0  0
    5.4540    0.0740   18.6500 C   0  0  0  0  0  0  0  0  0  0  0  0
    5.0250    1.4060   20.1670 C   0  0  0  0  0  0  0  0  0  0  0  0
    4.3230    0.8730   19.1140 C   0  0  0  0  0  0  0  0  0  0  0  0
    3.2940    1.3770   19.2480 N   0  0  0  0  0  0  0  0  0  0  0  0
    3.1190    2.7910   18.9520 C   0  0  0  0  0  0  0  0  0  0  0  0
  1  2  1  0
  2  3  1  0
  3  4  2  0
  3  5  2  0
  3  6  1  0
  6  7  1  0
  7  8  2  0
  9  7  1  6
  9 10  1  0
  9 11  1  0
 10 12  1  0
 11 13  1  0
 12 13  1  0
 11 14  1  1
 14 15  1  0
 14 16  2  0
 15 17  1  0
 15 18  2  0
 16 19  1  0
 18 19  1  0
 16 20  1  0
 20 21  2  0
 20 22  1  0
 21 23  1  0
 22 24  2  0
 23 25  2  0
 24 25  1  0
 25 26  1  0
 26 27  1  0
M  END
