BEN-VAN-d2b455e2-19-chloroacetamide
     RDKit          3D

 26 28  0  0  0  0  0  0  0  0999 V2000
    7.1230   -4.0450   20.6080 C   0  0  0  0  0  0  0  0  0  0  0  0
    7.8720   -2.9350   19.8510 C   0  0  0  0  0  0  0  0  0  0  0  0
    7.0090   -3.2230   18.9300 O   0  0  0  0  0  0  0  0  0  0  0  0
    8.6320   -2.9040   21.1220 N   0  0  0  0  0  0  0  0  0  0  0  0
   10.0190   -2.4430   21.5100 C   0  0  0  0  0  0  0  0  0  0  0  0
   11.0960   -2.7980   21.0100 O   0  0  0  0  0  0  0  0  0  0  0  0
   10.2410   -1.5510   22.7120 C   0  0  2  0  0  0  0  0  0  0  0  0
    9.3480   -1.5400   23.9080 C   0  0  0  0  0  0  0  0  0  0  0  0
   10.7140   -0.0840   22.6220 C   0  0  2  0  0  0  0  0  0  0  0  0
   10.3290   -0.9150   24.8900 C   0  0  0  0  0  0  0  0  0  0  0  0
   11.1850    0.0460   24.0840 C   0  0  0  0  0  0  0  0  0  0  0  0
    9.9270    1.2230   22.4130 C   0  0  0  0  0  0  0  0  0  0  0  0
   10.5130    2.3470   22.9820 C   0  0  0  0  0  0  0  0  0  0  0  0
    8.6400    1.6710   21.7430 C   0  0  0  0  0  0  0  0  0  0  0  0
    9.8500    3.5910   22.8480 C   0  0  0  0  0  0  0  0  0  0  0  0
    8.4360    3.3580   21.9710 S   0  0  0  0  0  0  0  0  0  0  0  0
    7.4710    1.3100   20.9880 C   0  0  0  0  0  0  0  0  0  0  0  0
   10.2930    4.7590   23.3500 F   0  0  0  0  0  0  0  0  0  0  0  0
    6.3600    1.0520   21.6870 N   0  0  0  0  0  0  0  0  0  0  0  0
    7.4000    1.3030   19.6220 N   0  0  0  0  0  0  0  0  0  0  0  0
    5.1210    0.8260   21.1270 C   0  0  0  0  0  0  0  0  0  0  0  0
    6.1700    1.0880   19.0680 C   0  0  0  0  0  0  0  0  0  0  0  0
    4.9890    0.8640   19.7610 C   0  0  0  0  0  0  0  0  0  0  0  0
    6.0920    1.1100   17.7320 F   0  0  0  0  0  0  0  0  0  0  0  0
    3.7450    0.6950   19.2310 N   0  0  0  0  0  0  0  0  0  0  0  0
    2.8210    1.7410   19.6880 C   0  0  0  0  0  0  0  0  0  0  0  0
  1  2  1  0
  2  3  2  0
  2  4  1  0
  4  5  1  0
  5  6  2  0
  7  5  1  6
  7  8  1  0
  7  9  1  0
  8 10  1  0
  9 11  1  0
 10 11  1  0
  9 12  1  1
 12 13  1  0
 12 14  2  0
 13 15  2  0
 14 16  1  0
 15 16  1  0
 14 17  1  0
 15 18  1  0
 17 19  2  0
 17 20  1  0
 19 21  1  0
 20 22  2  0
 21 23  2  0
 22 23  1  0
 22 24  1  0
 23 25  1  0
 25 26  1  0
M  END
