BEN-BAS-bba3cb69-1-chloroacetamide
     RDKit          3D

 21 23  0  0  0  0  0  0  0  0999 V2000
    8.6870   -3.5870   19.7600 C   0  0  0  0  0  0  0  0  0  0  0  0
    7.5230   -3.8220   20.3710 C   0  0  0  0  0  0  0  0  0  0  0  0
    6.5060   -4.3660   19.8570 O   0  0  0  0  0  0  0  0  0  0  0  0
    7.4600   -3.2580   21.6570 N   0  0  0  0  0  0  0  0  0  0  0  0
    6.2470   -3.4790   22.4540 C   0  0  0  0  0  0  0  0  0  0  0  0
    8.6590   -2.9990   22.4880 C   0  0  1  0  0  0  0  0  0  0  0  0
    5.6760   -2.2660   23.1800 C   0  0  0  0  0  0  0  0  0  0  0  0
    5.5860   -4.6860   22.6070 C   0  0  0  0  0  0  0  0  0  0  0  0
    8.9850   -4.2080   22.9900 C   0  0  0  0  0  0  0  0  0  0  0  0
    9.8980   -2.3530   21.7710 C   0  0  0  0  0  0  0  0  0  0  0  0
    8.3780   -1.9880   23.6720 C   0  0  0  0  0  0  0  0  0  0  0  0
    4.5470   -2.3280   23.9730 C   0  0  0  0  0  0  0  0  0  0  0  0
    4.4480   -4.7990   23.3900 N   0  0  0  0  0  0  0  0  0  0  0  0
    8.2630   -5.4950   22.7230 C   0  0  0  0  0  0  0  0  0  0  0  0
    9.9610   -4.6420   23.8120 C   0  0  0  0  0  0  0  0  0  0  0  0
   11.0920   -2.0130   22.6660 C   0  0  0  0  0  0  0  0  0  0  0  0
    9.2620   -0.8130   23.7490 O   0  0  0  0  0  0  0  0  0  0  0  0
    3.9160   -3.5860   24.0940 C   0  0  0  0  0  0  0  0  0  0  0  0
    8.7690   -6.5340   23.3360 N   0  0  0  0  0  0  0  0  0  0  0  0
    9.8450   -5.9930   24.0170 O   0  0  0  0  0  0  0  0  0  0  0  0
   10.6630   -1.0870   23.7910 C   0  0  0  0  0  0  0  0  0  0  0  0
  1  2  1  0
  2  3  2  0
  2  4  1  0
  4  5  1  0
  6  4  1  6
  5  7  2  0
  5  8  1  0
  6  9  1  0
  6 10  1  0
  6 11  1  0
  7 12  1  0
  8 13  2  0
  9 14  1  0
  9 15  2  0
 10 16  1  0
 11 17  1  0
 12 18  2  0
 13 18  1  0
 14 19  2  0
 15 20  1  0
 19 20  1  0
 16 21  1  0
 17 21  1  0
M  END
