BEN-VAN-d2b455e2-6-vinylsulfonamide
     RDKit          3D

 26 28  0  0  0  0  0  0  0  0999 V2000
    7.8190   -3.8140   20.3060 C   0  0  0  0  0  0  0  0  0  0  0  0
    6.8650   -3.0430   21.2320 C   0  0  0  0  0  0  0  0  0  0  0  0
    6.0710   -4.0620   22.4760 S   0  0  0  0  0  0  0  0  0  0  0  0
    4.6530   -4.0380   22.2590 O   0  0  0  0  0  0  0  0  0  0  0  0
    6.7300   -5.3500   22.4730 O   0  0  0  0  0  0  0  0  0  0  0  0
    6.3910   -3.3470   23.9740 N   0  0  0  0  0  0  0  0  0  0  0  0
    6.9880   -1.9900   24.1160 C   0  0  0  0  0  0  0  0  0  0  0  0
    8.1380   -1.7450   23.7540 O   0  0  0  0  0  0  0  0  0  0  0  0
    6.0970   -1.0570   24.7240 C   0  0  1  0  0  0  0  0  0  0  0  0
    5.4410   -1.5710   26.0030 C   0  0  0  0  0  0  0  0  0  0  0  0
    6.8740    0.2370   25.2240 C   0  0  2  0  0  0  0  0  0  0  0  0
    5.8350   -0.7460   27.1740 C   0  0  0  0  0  0  0  0  0  0  0  0
    6.3790    0.3930   26.6420 C   0  0  0  0  0  0  0  0  0  0  0  0
    6.8550    1.3310   24.3480 C   0  0  0  0  0  0  0  0  0  0  0  0
    7.5190    2.5140   24.8930 C   0  0  0  0  0  0  0  0  0  0  0  0
    6.1750    1.0740   23.0950 C   0  0  0  0  0  0  0  0  0  0  0  0
    7.1940    3.2280   23.6550 C   0  0  0  0  0  0  0  0  0  0  0  0
    6.3760    2.6160   22.3710 S   0  0  0  0  0  0  0  0  0  0  0  0
    5.4830    0.9080   21.7470 C   0  0  0  0  0  0  0  0  0  0  0  0
    5.9040   -0.1410   20.9820 N   0  0  0  0  0  0  0  0  0  0  0  0
    5.0920    1.8850   22.4590 N   0  0  0  0  0  0  0  0  0  0  0  0
    4.8750    0.4540   20.1480 C   0  0  0  0  0  0  0  0  0  0  0  0
    4.0980    2.5190   21.7640 C   0  0  0  0  0  0  0  0  0  0  0  0
    3.9640    1.7310   20.4460 C   0  0  0  0  0  0  0  0  0  0  0  0
    3.1190    2.4390   20.0810 N   0  0  0  0  0  0  0  0  0  0  0  0
    2.8720    2.5410   18.6460 C   0  0  0  0  0  0  0  0  0  0  0  0
  1  2  1  0
  2  3  1  0
  3  4  2  0
  3  5  2  0
  3  6  1  0
  6  7  1  0
  7  8  2  0
  9  7  1  1
  9 10  1  0
  9 11  1  0
 10 12  1  0
 11 13  1  0
 12 13  1  0
 11 14  1  6
 14 15  1  0
 14 16  2  0
 15 17  2  0
 16 18  1  0
 17 18  1  0
 16 19  1  0
 19 20  2  0
 19 21  1  0
 20 22  1  0
 21 23  2  0
 22 24  2  0
 23 24  1  0
 24 25  1  0
 25 26  1  0
M  END
