BEN-VAN-77cef4f8-8-bromoalkyne
     RDKit          3D

 29 31  0  0  0  0  0  0  0  0999 V2000
    7.4420   -3.8580   20.1210 C   0  0  0  0  0  0  0  0  0  0  0  0
    5.9940   -3.6920   19.6950 C   0  0  0  0  0  0  0  0  0  0  0  0
    8.2920   -2.7550   20.7310 C   0  0  0  0  0  0  0  0  0  0  0  0
    8.0580   -1.2450   20.6470 C   0  0  0  0  0  0  0  0  0  0  0  0
    9.4150   -3.1850   21.4420 C   0  0  0  0  0  0  0  0  0  0  0  0
    9.0940   -0.2960   21.3230 C   0  0  0  0  0  0  0  0  0  0  0  0
   10.3570   -2.4350   22.0320 N   0  0  0  0  0  0  0  0  0  0  0  0
   10.2310   -1.0950   21.9680 C   0  0  0  0  0  0  0  0  0  0  0  0
   11.3510   -0.4000   22.6040 N   0  0  0  0  0  0  0  0  0  0  0  0
   12.1450   -1.3760   23.3690 C   0  0  1  0  0  0  0  0  0  0  0  0
   12.4060   -1.0690   24.8440 C   0  0  0  0  0  0  0  0  0  0  0  0
   11.0740   -1.6870   24.3610 C   0  0  0  0  0  0  0  0  0  0  0  0
   10.1460   -0.6630   24.3170 C   0  0  0  0  0  0  0  0  0  0  0  0
   10.6310    0.7030   24.2350 C   0  0  0  0  0  0  0  0  0  0  0  0
    8.7410   -0.8830   24.3280 C   0  0  0  0  0  0  0  0  0  0  0  0
    9.7540    1.7690   24.1700 C   0  0  0  0  0  0  0  0  0  0  0  0
    7.8710    0.2150   24.2740 C   0  0  0  0  0  0  0  0  0  0  0  0
    8.0420   -2.2430   24.3880 C   0  0  1  0  0  0  0  0  0  0  0  0
   10.1750    3.0380   24.0790 F   0  0  0  0  0  0  0  0  0  0  0  0
    8.3920    1.5070   24.1950 C   0  0  0  0  0  0  0  0  0  0  0  0
    6.6380   -2.2030   23.7890 C   0  0  0  0  0  0  0  0  0  0  0  0
    8.8280   -3.2870   23.9380 O   0  0  0  0  0  0  0  0  0  0  0  0
    7.5780    2.5970   24.1330 F   0  0  0  0  0  0  0  0  0  0  0  0
    6.4540   -3.2760   22.8150 N   0  0  0  0  0  0  0  0  0  0  0  0
    8.2520   -4.5010   23.3960 C   0  0  0  0  0  0  0  0  0  0  0  0
    5.4520   -3.2090   21.8510 C   0  0  0  0  0  0  0  0  0  0  0  0
    6.8660   -4.4970   23.2780 C   0  0  0  0  0  0  0  0  0  0  0  0
    5.3210   -1.9490   21.1840 C   0  0  0  0  0  0  0  0  0  0  0  0
    4.7280   -4.1770   21.6220 O   0  0  0  0  0  0  0  0  0  0  0  0
  1  2  2  3
  1  3  1  0
  3  4  2  0
  3  5  1  0
  4  6  1  0
  5  7  2  0
  6  8  2  0
  7  8  1  0
  8  9  1  0
  9 10  1  0
 10 11  1  1
 10 12  1  0
 12 13  1  0
 13 14  2  0
 13 15  1  0
 14 16  1  0
 15 17  2  0
 18 15  1  6
 16 19  1  0
 16 20  2  0
 17 20  1  0
 18 21  1  0
 18 22  1  0
 20 23  1  0
 21 24  1  0
 22 25  1  0
 24 26  1  0
 24 27  1  0
 25 27  1  0
 26 28  1  0
 26 29  2  0
M  END
