BEN-VAN-77cef4f8-8-acrylamide
     RDKit          3D

 31 33  0  0  0  0  0  0  0  0999 V2000
    7.5120   -3.0690   18.9400 C   0  0  0  0  0  0  0  0  0  0  0  0
    7.0210   -3.2160   20.3460 C   0  0  0  0  0  0  0  0  0  0  0  0
    5.8020   -2.3850   20.6270 C   0  0  0  0  0  0  0  0  0  0  0  0
    4.7500   -2.9090   20.9990 O   0  0  0  0  0  0  0  0  0  0  0  0
    5.8920   -0.8900   20.4140 C   0  0  0  0  0  0  0  0  0  0  0  0
    6.5670   -0.4830   18.9670 C   0  0  0  0  0  0  0  0  0  0  0  0
    5.3520   -0.0860   21.5280 C   0  0  0  0  0  0  0  0  0  0  0  0
    6.4450    1.0970   19.0990 C   0  0  0  0  0  0  0  0  0  0  0  0
    5.4190    1.1990   21.3140 N   0  0  0  0  0  0  0  0  0  0  0  0
    5.9310    0.6010   20.3080 C   0  0  0  0  0  0  0  0  0  0  0  0
    5.9330   -0.6980   20.6130 N   0  0  0  0  0  0  0  0  0  0  0  0
    6.7390   -1.2410   21.7030 C   0  0  2  0  0  0  0  0  0  0  0  0
    7.5630   -0.4100   22.6940 C   0  0  0  0  0  0  0  0  0  0  0  0
    8.2340   -1.2030   21.4610 C   0  0  0  0  0  0  0  0  0  0  0  0
    9.2590   -1.7810   22.3440 C   0  0  0  0  0  0  0  0  0  0  0  0
   10.5230   -1.1570   22.5420 C   0  0  0  0  0  0  0  0  0  0  0  0
    8.9460   -3.1550   23.1010 C   0  0  0  0  0  0  0  0  0  0  0  0
   11.5630   -1.6180   23.3490 C   0  0  0  0  0  0  0  0  0  0  0  0
    9.9270   -3.6960   23.9300 C   0  0  0  0  0  0  0  0  0  0  0  0
    7.6230   -3.9420   22.9790 C   0  0  1  0  0  0  0  0  0  0  0  0
   12.1470   -0.4580   22.8660 F   0  0  0  0  0  0  0  0  0  0  0  0
   10.5770   -2.5690   23.5010 C   0  0  0  0  0  0  0  0  0  0  0  0
    7.6530   -5.1190   22.1930 C   0  0  0  0  0  0  0  0  0  0  0  0
    7.1540   -4.1630   24.0950 O   0  0  0  0  0  0  0  0  0  0  0  0
   11.5830   -3.0300   24.2920 F   0  0  0  0  0  0  0  0  0  0  0  0
    6.3140   -5.6340   22.1160 N   0  0  0  0  0  0  0  0  0  0  0  0
    6.7880   -5.5260   24.3240 C   0  0  0  0  0  0  0  0  0  0  0  0
    5.3670   -4.8060   21.5310 C   0  0  0  0  0  0  0  0  0  0  0  0
    5.9520   -6.0980   23.3360 C   0  0  0  0  0  0  0  0  0  0  0  0
    4.6290   -4.0220   22.4880 C   0  0  0  0  0  0  0  0  0  0  0  0
    5.1290   -4.7290   20.1970 O   0  0  0  0  0  0  0  0  0  0  0  0
  1  2  1  0
  2  3  1  0
  3  4  2  0
  3  5  1  0
  5  6  2  0
  5  7  1  0
  6  8  1  0
  7  9  2  0
  8 10  2  0
  9 10  1  0
 10 11  1  0
 11 12  1  0
 12 13  1  1
 12 14  1  0
 14 15  1  0
 15 16  2  0
 15 17  1  0
 16 18  1  0
 17 19  2  0
 20 17  1  1
 18 21  1  0
 18 22  2  0
 19 22  1  0
 20 23  1  0
 20 24  1  0
 22 25  1  0
 23 26  1  0
 24 27  1  0
 26 28  1  0
 26 29  1  0
 27 29  1  0
 28 30  1  0
 28 31  2  0
M  END
