BEN-VAN-77cef4f8-4-vinylsulfonamide
     RDKit          3D

 30 32  0  0  0  0  0  0  0  0999 V2000
    7.4280   -2.9910   18.4850 C   0  0  0  0  0  0  0  0  0  0  0  0
    7.1120   -1.9140   19.4440 C   0  0  0  0  0  0  0  0  0  0  0  0
    5.7010   -2.4480   20.3950 S   0  0  0  0  0  0  0  0  0  0  0  0
    5.0270   -3.6400   19.8630 O   0  0  0  0  0  0  0  0  0  0  0  0
    4.9540   -1.2470   20.6900 O   0  0  0  0  0  0  0  0  0  0  0  0
    6.3980   -2.8280   21.8460 N   0  0  0  0  0  0  0  0  0  0  0  0
    6.2240   -4.0200   22.5300 C   0  0  0  0  0  0  0  0  0  0  0  0
    7.3700   -1.9610   22.3670 C   0  0  0  0  0  0  0  0  0  0  0  0
    7.4410   -4.3530   23.3540 C   0  0  0  0  0  0  0  0  0  0  0  0
    8.5250   -2.6670   22.7400 C   0  0  2  0  0  0  0  0  0  0  0  0
    8.2910   -3.5180   23.6210 O   0  0  0  0  0  0  0  0  0  0  0  0
    9.6310   -1.6490   23.0010 C   0  0  0  0  0  0  0  0  0  0  0  0
   11.0090   -2.1280   22.5760 C   0  0  0  0  0  0  0  0  0  0  0  0
    9.3890   -0.3850   23.5700 C   0  0  0  0  0  0  0  0  0  0  0  0
   12.1010   -1.1150   22.8330 C   0  0  0  0  0  0  0  0  0  0  0  0
   10.3710    0.5320   23.7910 C   0  0  0  0  0  0  0  0  0  0  0  0
   11.6810    0.1880   23.4460 C   0  0  0  0  0  0  0  0  0  0  0  0
    9.9490    1.7860   24.3540 C   0  0  0  0  0  0  0  0  0  0  0  0
   12.7570    0.9950   23.6140 F   0  0  0  0  0  0  0  0  0  0  0  0
   10.7870    2.6660   24.1980 O   0  0  0  0  0  0  0  0  0  0  0  0
   10.8000    3.1750   22.8700 C   0  0  2  0  0  0  0  0  0  0  0  0
   12.1440    3.3010   22.4970 C   0  0  0  0  0  0  0  0  0  0  0  0
   10.2030    4.3990   22.8770 N   0  0  0  0  0  0  0  0  0  0  0  0
   10.5260    5.5080   23.7070 C   0  0  0  0  0  0  0  0  0  0  0  0
    9.7040    5.8330   24.7980 C   0  0  0  0  0  0  0  0  0  0  0  0
   11.6770    6.3250   23.4730 C   0  0  0  0  0  0  0  0  0  0  0  0
   10.0360    7.0010   25.6820 C   0  0  0  0  0  0  0  0  0  0  0  0
   12.1280    7.4470   24.1810 N   0  0  0  0  0  0  0  0  0  0  0  0
   12.7270    5.9580   22.1530 Cl  0  0  0  0  0  0  0  0  0  0  0  0
   11.2800    7.7760   25.3110 C   0  0  0  0  0  0  0  0  0  0  0  0
  1  2  1  0
  3  2  1  0
  3  4  2  0
  3  5  2  0
  3  6  1  0
  6  7  1  0
  6  8  1  0
  7  9  1  0
  8 10  1  0
  9 11  1  0
 10 11  1  0
 10 12  1  1
 12 13  2  0
 12 14  1  0
 13 15  1  0
 14 16  2  0
 15 17  2  0
 16 17  1  0
 16 18  1  0
 17 19  1  0
 18 20  1  0
 20 21  1  0
 21 22  1  1
 21 23  1  0
 23 24  1  0
 24 25  2  0
 24 26  1  0
 25 27  1  0
 26 28  2  0
 26 29  1  0
 27 30  2  0
 28 30  1  0
M  END
