BEN-VAN-77cef4f8-7-chloroacetamide
     RDKit          3D

 29 31  0  0  0  0  0  0  0  0999 V2000
    7.3620   -2.7930   18.3030 C   0  0  0  0  0  0  0  0  0  0  0  0
    6.3160   -2.6350   19.3120 C   0  0  0  0  0  0  0  0  0  0  0  0
    5.3920   -3.4640   19.2960 O   0  0  0  0  0  0  0  0  0  0  0  0
    6.5100   -1.4590   20.2440 C   0  0  0  0  0  0  0  0  0  0  0  0
    7.9020   -1.1910   20.8090 C   0  0  0  0  0  0  0  0  0  0  0  0
    5.4530   -0.5910   20.6250 C   0  0  0  0  0  0  0  0  0  0  0  0
    8.1620   -0.0410   21.7670 C   0  0  0  0  0  0  0  0  0  0  0  0
    5.6250    0.4750   21.4980 N   0  0  0  0  0  0  0  0  0  0  0  0
    6.8820    0.7200   22.0340 C   0  0  0  0  0  0  0  0  0  0  0  0
    7.0870    1.8170   22.9800 N   0  0  0  0  0  0  0  0  0  0  0  0
    7.9830    1.5630   24.1390 C   0  0  1  0  0  0  0  0  0  0  0  0
    7.3280    0.9590   25.3860 C   0  0  0  0  0  0  0  0  0  0  0  0
    8.1860    0.0710   24.3820 C   0  0  0  0  0  0  0  0  0  0  0  0
    9.4150   -0.4510   23.9880 C   0  0  0  0  0  0  0  0  0  0  0  0
   10.6250    0.3440   24.0040 C   0  0  0  0  0  0  0  0  0  0  0  0
    9.5000   -1.7970   23.5440 C   0  0  0  0  0  0  0  0  0  0  0  0
   11.8410   -0.2010   23.5880 C   0  0  0  0  0  0  0  0  0  0  0  0
   10.7380   -2.3080   23.1380 C   0  0  0  0  0  0  0  0  0  0  0  0
    8.3050   -2.7520   23.4600 C   0  0  1  0  0  0  0  0  0  0  0  0
   12.9690    0.5080   23.5830 F   0  0  0  0  0  0  0  0  0  0  0  0
   11.8890   -1.5260   23.1590 C   0  0  0  0  0  0  0  0  0  0  0  0
    7.8450   -3.0280   22.0440 C   0  0  0  0  0  0  0  0  0  0  0  0
    8.6520   -4.0270   24.0380 O   0  0  0  0  0  0  0  0  0  0  0  0
    6.8860   -4.1650   21.9640 N   0  0  0  0  0  0  0  0  0  0  0  0
    7.7670   -5.1140   23.6950 C   0  0  0  0  0  0  0  0  0  0  0  0
    5.8000   -4.0990   21.1290 C   0  0  0  0  0  0  0  0  0  0  0  0
    6.5930   -4.6560   23.1940 C   0  0  0  0  0  0  0  0  0  0  0  0
    5.0470   -2.9480   21.3830 C   0  0  0  0  0  0  0  0  0  0  0  0
    5.4950   -4.9350   20.2650 O   0  0  0  0  0  0  0  0  0  0  0  0
  1  2  1  0
  2  3  2  0
  2  4  1  0
  4  5  2  0
  4  6  1  0
  5  7  1  0
  6  8  2  0
  7  9  2  0
  8  9  1  0
  9 10  1  0
 10 11  1  0
 11 12  1  1
 11 13  1  0
 13 14  1  0
 14 15  2  0
 14 16  1  0
 15 17  1  0
 16 18  2  0
 19 16  1  6
 17 20  1  0
 17 21  2  0
 18 21  1  0
 19 22  1  0
 19 23  1  0
 22 24  1  0
 23 25  1  0
 24 26  1  0
 24 27  1  0
 25 27  1  0
 26 28  1  0
 26 29  2  0
M  END
