BEN-VAN-77cef4f8-5-bromoalkyne
     RDKit          3D

 28 30  0  0  0  0  0  0  0  0999 V2000
    6.8730   -3.5960   19.9060 C   0  0  0  0  0  0  0  0  0  0  0  0
    5.6390   -3.2360   19.1360 C   0  0  0  0  0  0  0  0  0  0  0  0
    7.0200   -3.6080   21.2620 N   0  0  0  0  0  0  0  0  0  0  0  0
    6.6020   -4.6150   22.1530 C   0  0  0  0  0  0  0  0  0  0  0  0
    7.6070   -2.4940   21.8980 C   0  0  0  0  0  0  0  0  0  0  0  0
    7.0920   -4.5070   23.6010 C   0  0  0  0  0  0  0  0  0  0  0  0
    8.2890   -2.9600   22.9980 C   0  0  2  0  0  0  0  0  0  0  0  0
    7.6570   -3.4520   23.9160 O   0  0  0  0  0  0  0  0  0  0  0  0
    9.4780   -2.0540   23.3680 C   0  0  0  0  0  0  0  0  0  0  0  0
    9.0350   -0.7180   23.9420 C   0  0  0  0  0  0  0  0  0  0  0  0
   10.8240   -2.4480   23.1850 C   0  0  0  0  0  0  0  0  0  0  0  0
   10.2360    0.1560   24.3080 C   0  0  0  0  0  0  0  0  0  0  0  0
   11.9070   -1.6940   23.5030 C   0  0  0  0  0  0  0  0  0  0  0  0
    9.9820    1.3810   24.8300 F   0  0  0  0  0  0  0  0  0  0  0  0
   11.6110   -0.4540   24.0430 C   0  0  0  0  0  0  0  0  0  0  0  0
   13.2550   -2.2580   23.2600 C   0  0  0  0  0  0  0  0  0  0  0  0
   12.5740    0.4160   24.4230 F   0  0  0  0  0  0  0  0  0  0  0  0
   13.9620   -1.5860   22.4900 O   0  0  0  0  0  0  0  0  0  0  0  0
   13.4100   -1.1980   21.2430 C   0  0  2  0  0  0  0  0  0  0  0  0
   12.4630   -2.2080   21.0740 C   0  0  0  0  0  0  0  0  0  0  0  0
   14.2670   -0.9830   20.0660 N   0  0  0  0  0  0  0  0  0  0  0  0
   14.7480    0.3090   19.4420 C   0  0  0  0  0  0  0  0  0  0  0  0
   14.6480    1.3460   20.3160 C   0  0  0  0  0  0  0  0  0  0  0  0
   15.2900    0.7400   18.1720 C   0  0  0  0  0  0  0  0  0  0  0  0
   14.9450    2.7550   20.0170 C   0  0  0  0  0  0  0  0  0  0  0  0
   15.6250    2.0010   17.7240 N   0  0  0  0  0  0  0  0  0  0  0  0
   15.6870   -0.1920   16.8460 Cl  0  0  0  0  0  0  0  0  0  0  0  0
   15.4150    3.0370   18.6900 C   0  0  0  0  0  0  0  0  0  0  0  0
  1  2  2  3
  1  3  1  0
  3  4  1  0
  3  5  1  0
  4  6  1  0
  5  7  1  0
  6  8  1  0
  7  8  1  0
  7  9  1  1
  9 10  2  0
  9 11  1  0
 10 12  1  0
 11 13  2  0
 12 14  1  0
 12 15  2  0
 13 15  1  0
 13 16  1  0
 15 17  1  0
 16 18  1  0
 18 19  1  0
 19 20  1  6
 19 21  1  0
 21 22  1  0
 22 23  2  0
 22 24  1  0
 23 25  1  0
 24 26  2  0
 24 27  1  0
 25 28  2  0
 26 28  1  0
M  END
