BEN-VAN-c986b20b-8
     RDKit          3D

 27 29  0  0  0  0  0  0  0  0999 V2000
   16.1360    3.8910   20.4300 C   0  0  0  0  0  0  0  0  0  0  0  0
   15.0600    3.7900   21.4460 C   0  0  0  0  0  0  0  0  0  0  0  0
   14.4390    2.3670   21.7500 C   0  0  0  0  0  0  0  0  0  0  0  0
   14.6080    4.9240   22.0260 N   0  0  0  0  0  0  0  0  0  0  0  0
   13.2010    2.3520   22.7000 C   0  0  0  0  0  0  0  0  0  0  0  0
   13.5130    4.8220   22.8950 C   0  0  0  0  0  0  0  0  0  0  0  0
   12.3470    1.1220   23.1060 C   0  0  0  0  0  0  0  0  0  0  0  0
   12.7820    3.5880   23.2220 N   0  0  0  0  0  0  0  0  0  0  0  0
   11.1990    1.1330   23.9870 C   0  0  0  0  0  0  0  0  0  0  0  0
   12.6510   -0.1640   22.5800 C   0  0  0  0  0  0  0  0  0  0  0  0
   10.4210   -0.0250   24.2990 C   0  0  0  0  0  0  0  0  0  0  0  0
   11.8660   -1.3120   22.8960 C   0  0  0  0  0  0  0  0  0  0  0  0
   13.6630   -0.3680   21.7570 F   0  0  0  0  0  0  0  0  0  0  0  0
   10.7560   -1.2680   23.7370 C   0  0  0  0  0  0  0  0  0  0  0  0
    9.8990   -2.2620   24.1100 C   0  0  0  0  0  0  0  0  0  0  0  0
    8.6870   -2.1120   23.3020 N   0  0  0  0  0  0  0  0  0  0  0  0
    9.0100   -1.7920   21.9270 C   0  0  0  0  0  0  0  0  0  0  0  0
    7.7250   -3.2280   23.4100 C   0  0  0  0  0  0  0  0  0  0  0  0
    7.7980   -1.2760   21.2630 C   0  0  0  0  0  0  0  0  0  0  0  0
    6.6160   -3.1860   22.5180 C   0  0  0  0  0  0  0  0  0  0  0  0
    6.6010   -2.0910   21.4800 N   0  0  0  0  0  0  0  0  0  0  0  0
    5.7430   -2.1840   20.2920 C   0  0  0  0  0  0  0  0  0  0  0  0
    5.1220   -3.1970   19.9720 O   0  0  0  0  0  0  0  0  0  0  0  0
    5.6710   -0.8980   19.4300 C   0  0  0  0  0  0  0  0  0  0  0  0
    4.5360   -0.1910   19.4440 F   0  0  0  0  0  0  0  0  0  0  0  0
    5.9260   -1.1680   18.1300 F   0  0  0  0  0  0  0  0  0  0  0  0
    6.6160    0.0290   19.7730 F   0  0  0  0  0  0  0  0  0  0  0  0
  1  2  1  0
  2  3  2  0
  2  4  1  0
  3  5  1  0
  4  6  2  0
  5  7  1  0
  5  8  2  0
  6  8  1  0
  7  9  2  0
  7 10  1  0
  9 11  1  0
 10 12  2  0
 10 13  1  0
 11 14  2  0
 12 14  1  0
 14 15  1  0
 15 16  1  0
 16 17  1  0
 16 18  1  0
 17 19  1  0
 18 20  1  0
 19 21  1  0
 20 21  1  0
 21 22  1  0
 22 23  2  0
 22 24  1  0
 24 25  1  0
 24 26  1  0
 24 27  1  0
M  END
