BEN-VAN-77cef4f8-9-nitrile
     RDKit          3D

 29 31  0  0  0  0  0  0  0  0999 V2000
    7.6690   -4.3460   20.2180 C   0  0  0  0  0  0  0  0  0  0  0  0
    6.4280   -4.6820   19.9790 N   0  0  0  0  0  0  0  0  0  0  0  0
    8.4070   -4.3710   21.4980 C   0  0  0  0  0  0  0  0  0  0  0  0
    9.3110   -3.1780   21.6690 C   0  0  0  0  0  0  0  0  0  0  0  0
    8.3520   -5.3780   22.4830 C   0  0  0  0  0  0  0  0  0  0  0  0
   10.1320   -3.1130   22.8780 C   0  0  0  0  0  0  0  0  0  0  0  0
    9.0940   -5.3990   23.6590 N   0  0  0  0  0  0  0  0  0  0  0  0
   10.0030   -4.2460   23.8480 C   0  0  0  0  0  0  0  0  0  0  0  0
   10.8290   -3.9940   24.8170 N   0  0  0  0  0  0  0  0  0  0  0  0
   11.5080   -2.6740   24.5790 C   0  0  1  0  0  0  0  0  0  0  0  0
   13.0060   -2.6290   24.8660 C   0  0  0  0  0  0  0  0  0  0  0  0
   11.2140   -2.2000   23.1430 C   0  0  0  0  0  0  0  0  0  0  0  0
   10.7290   -0.7520   22.9500 C   0  0  0  0  0  0  0  0  0  0  0  0
    9.4080   -0.2520   22.6940 C   0  0  0  0  0  0  0  0  0  0  0  0
   11.7220    0.2640   23.0300 C   0  0  0  0  0  0  0  0  0  0  0  0
    8.1430   -0.9960   22.5430 C   0  0  1  0  0  0  0  0  0  0  0  0
    9.2150    1.1160   22.5570 C   0  0  0  0  0  0  0  0  0  0  0  0
   11.5340    1.6380   22.8930 C   0  0  0  0  0  0  0  0  0  0  0  0
   12.9760   -0.1330   23.2640 F   0  0  0  0  0  0  0  0  0  0  0  0
    7.6380   -1.2010   21.2320 C   0  0  0  0  0  0  0  0  0  0  0  0
    8.1680   -2.0390   23.1530 O   0  0  0  0  0  0  0  0  0  0  0  0
   10.2510    2.0510   22.6550 C   0  0  0  0  0  0  0  0  0  0  0  0
   12.5330    2.5140   22.9860 F   0  0  0  0  0  0  0  0  0  0  0  0
    6.5590   -2.0210   21.1620 N   0  0  0  0  0  0  0  0  0  0  0  0
    6.8820   -2.5690   23.4690 C   0  0  0  0  0  0  0  0  0  0  0  0
    6.1680   -2.4240   19.9110 C   0  0  0  0  0  0  0  0  0  0  0  0
    5.9580   -2.4390   22.4290 C   0  0  0  0  0  0  0  0  0  0  0  0
    6.6480   -1.8070   18.7510 C   0  0  0  0  0  0  0  0  0  0  0  0
    5.2830   -3.4770   19.7400 O   0  0  0  0  0  0  0  0  0  0  0  0
  1  2  2  3
  1  3  1  0
  3  4  2  0
  3  5  1  0
  4  6  1  0
  5  7  2  0
  6  8  2  0
  7  8  1  0
  8  9  1  0
  9 10  1  0
 10 11  1  6
 10 12  1  0
 12 13  1  0
 13 14  1  0
 13 15  2  0
 16 14  1  6
 14 17  2  0
 15 18  1  0
 15 19  1  0
 16 20  1  0
 16 21  1  0
 17 22  1  0
 18 22  2  0
 18 23  1  0
 20 24  1  0
 21 25  1  0
 24 26  1  0
 24 27  1  0
 25 27  1  0
 26 28  1  0
 26 29  2  0
M  END
