BEN-DND-362d364a-6-chloroacetamide
     RDKit          3D

 19 19  0  0  0  0  0  0  0  0999 V2000
    8.5420   -3.7330   20.1510 C   0  0  0  0  0  0  0  0  0  0  0  0
    7.8080   -2.4740   20.2890 C   0  0  0  0  0  0  0  0  0  0  0  0
    6.9240   -3.1350   19.3730 O   0  0  0  0  0  0  0  0  0  0  0  0
    9.1090   -2.0970   21.3860 C   0  0  0  0  0  0  0  0  0  0  0  0
   10.6130   -2.0130   21.4360 C   0  0  0  0  0  0  0  0  0  0  0  0
    8.6890   -1.7880   22.6490 C   0  0  0  0  0  0  0  0  0  0  0  0
   11.4480   -1.6900   22.4180 N   0  0  0  0  0  0  0  0  0  0  0  0
    9.5580   -1.4880   23.6740 C   0  0  0  0  0  0  0  0  0  0  0  0
   10.9200   -1.4300   23.5520 C   0  0  0  0  0  0  0  0  0  0  0  0
    8.9680   -1.2810   24.9470 C   0  0  0  0  0  0  0  0  0  0  0  0
   11.7340   -1.1210   24.6420 N   0  0  0  0  0  0  0  0  0  0  0  0
    9.1370   -2.7530   25.3590 C   0  0  0  0  0  0  0  0  0  0  0  0
   12.8190   -2.0700   24.8540 C   0  0  0  0  0  0  0  0  0  0  0  0
    7.9070   -3.4980   25.5050 N   0  0  0  0  0  0  0  0  0  0  0  0
   13.4320   -2.4580   23.5230 C   0  0  0  0  0  0  0  0  0  0  0  0
    8.0320   -4.7550   26.5880 S   0  0  0  0  0  0  0  0  0  0  0  0
    6.3620   -5.3530   26.7060 C   0  0  0  0  0  0  0  0  0  0  0  0
    8.4090   -4.1170   27.8250 O   0  0  0  0  0  0  0  0  0  0  0  0
    8.8680   -5.7710   25.9930 O   0  0  0  0  0  0  0  0  0  0  0  0
  1  2  1  0
  2  3  2  0
  2  4  1  0
  4  5  2  0
  4  6  1  0
  5  7  1  0
  6  8  2  0
  7  9  2  0
  8  9  1  0
  8 10  1  0
  9 11  1  0
 10 12  1  0
 11 13  1  0
 12 14  1  0
 13 15  1  0
 16 14  1  0
 16 17  1  0
 16 18  2  0
 16 19  2  0
M  END
