BEN-VAN-ed886787-18
     RDKit          3D

 30 32  0  0  0  0  0  0  0  0999 V2000
    5.4580   -4.7370   21.5100 C   0  0  0  0  0  0  0  0  0  0  0  0
    5.3480   -6.1550   22.0520 C   0  0  0  0  0  0  0  0  0  0  0  0
    6.2320   -6.2630   23.1970 N   0  0  0  0  0  0  0  0  0  0  0  0
    6.3840   -5.0040   23.8080 C   0  0  0  0  0  0  0  0  0  0  0  0
    7.6090   -4.3680   23.9010 C   0  0  0  0  0  0  0  0  0  0  0  0
    5.2730   -4.4060   24.3080 N   0  0  0  0  0  0  0  0  0  0  0  0
    7.6580   -3.0810   24.5320 C   0  0  0  0  0  0  0  0  0  0  0  0
    5.3910   -3.1610   24.9030 C   0  0  0  0  0  0  0  0  0  0  0  0
    6.5820   -2.4250   25.0580 C   0  0  0  0  0  0  0  0  0  0  0  0
    4.2930   -2.5090   25.4030 C   0  0  0  0  0  0  0  0  0  0  0  0
    6.6700   -1.2230   25.6440 F   0  0  0  0  0  0  0  0  0  0  0  0
    4.2680   -1.1920   24.9310 C   0  0  0  0  0  0  0  0  0  0  0  0
    4.9250   -0.8990   23.7380 C   0  0  0  0  0  0  0  0  0  0  0  0
    3.6260   -0.1260   25.5830 C   0  0  0  0  0  0  0  0  0  0  0  0
    4.9880    0.4720   23.1230 C   0  0  0  0  0  0  0  0  0  0  0  0
    3.6600    1.1730   25.0430 C   0  0  0  0  0  0  0  0  0  0  0  0
    2.7670   -0.3310   27.0670 Cl  0  0  0  0  0  0  0  0  0  0  0  0
    5.6830    0.6500   21.9140 N   0  0  0  0  0  0  0  0  0  0  0  0
    4.3270    1.4720   23.8380 C   0  0  0  0  0  0  0  0  0  0  0  0
    6.6830   -0.3590   21.4660 C   0  0  0  0  0  0  0  0  0  0  0  0
    7.9740    0.1200   21.6400 C   0  0  0  0  0  0  0  0  0  0  0  0
    8.3960    1.0490   20.9570 O   0  0  0  0  0  0  0  0  0  0  0  0
    8.6670   -0.5280   22.6260 N   0  0  0  0  0  0  0  0  0  0  0  0
   10.0380   -0.3610   22.8250 C   0  0  0  0  0  0  0  0  0  0  0  0
   10.4700    0.5950   23.7170 C   0  0  0  0  0  0  0  0  0  0  0  0
   10.9670   -1.1060   22.1530 C   0  0  0  0  0  0  0  0  0  0  0  0
   11.8330    0.7940   23.9100 C   0  0  0  0  0  0  0  0  0  0  0  0
   12.3080   -0.9260   22.3290 C   0  0  0  0  0  0  0  0  0  0  0  0
   12.7670    0.0320   23.2130 C   0  0  0  0  0  0  0  0  0  0  0  0
   13.2960   -1.9230   21.4030 Cl  0  0  0  0  0  0  0  0  0  0  0  0
  1  2  1  0
  2  3  1  0
  3  4  1  0
  4  5  2  0
  4  6  1  0
  5  7  1  0
  6  8  2  0
  7  9  2  0
  8  9  1  0
  8 10  1  0
  9 11  1  0
 10 12  1  0
 12 13  2  0
 12 14  1  0
 13 15  1  0
 14 16  2  0
 14 17  1  0
 15 18  1  0
 15 19  2  0
 16 19  1  0
 18 20  1  0
 20 21  1  0
 21 22  2  0
 21 23  1  0
 23 24  1  0
 24 25  2  0
 24 26  1  0
 25 27  1  0
 26 28  2  0
 27 29  2  0
 28 29  1  0
 28 30  1  0
M  END
