BEN-VAN-d2b455e2-22
     RDKit          3D

 27 29  0  0  0  0  0  0  0  0999 V2000
    2.9240    1.6490   19.6540 C   0  0  0  0  0  0  0  0  0  0  0  0
    3.7880    0.6360   19.0910 N   0  0  0  0  0  0  0  0  0  0  0  0
    5.0640    0.7150   19.4620 C   0  0  0  0  0  0  0  0  0  0  0  0
    5.3200    0.4090   20.8970 C   0  0  0  0  0  0  0  0  0  0  0  0
    6.1820    1.0310   18.7890 C   0  0  0  0  0  0  0  0  0  0  0  0
    6.4760    0.4770   21.5370 N   0  0  0  0  0  0  0  0  0  0  0  0
    7.3940    1.1270   19.3940 N   0  0  0  0  0  0  0  0  0  0  0  0
    6.0850    1.2830   17.4800 F   0  0  0  0  0  0  0  0  0  0  0  0
    7.4830    0.8850   20.7650 C   0  0  0  0  0  0  0  0  0  0  0  0
    8.8290    1.2400   21.5810 C   0  0  0  0  0  0  0  0  0  0  0  0
    8.7520    2.9620   21.5660 S   0  0  0  0  0  0  0  0  0  0  0  0
   10.0510    0.8500   22.3450 C   0  0  0  0  0  0  0  0  0  0  0  0
   10.1630    3.3140   22.4110 C   0  0  0  0  0  0  0  0  0  0  0  0
   10.8640    2.0700   22.8210 C   0  0  0  0  0  0  0  0  0  0  0  0
   10.9210   -0.3070   22.9490 C   0  0  1  0  0  0  0  0  0  0  0  0
   10.6260    4.5460   22.7020 F   0  0  0  0  0  0  0  0  0  0  0  0
   10.2540   -0.8340   23.9870 C   0  0  0  0  0  0  0  0  0  0  0  0
   11.1310   -1.7910   22.5340 C   0  0  1  0  0  0  0  0  0  0  0  0
    9.5490   -2.0100   23.6000 C   0  0  0  0  0  0  0  0  0  0  0  0
    9.8940   -2.2470   22.2760 C   0  0  0  0  0  0  0  0  0  0  0  0
   12.3350   -2.2550   22.0540 C   0  0  0  0  0  0  0  0  0  0  0  0
   13.2140   -2.6440   22.8050 O   0  0  0  0  0  0  0  0  0  0  0  0
   12.5720   -2.2470   20.7610 N   0  0  0  0  0  0  0  0  0  0  0  0
   13.6500   -1.3470   20.7840 C   0  0  0  0  0  0  0  0  0  0  0  0
   14.2870   -0.9010   19.8660 O   0  0  0  0  0  0  0  0  0  0  0  0
   13.8390   -1.1020   22.1090 O   0  0  0  0  0  0  0  0  0  0  0  0
   13.3080    0.0910   22.6700 C   0  0  0  0  0  0  0  0  0  0  0  0
  1  2  1  0
  2  3  1  0
  3  4  2  0
  3  5  1  0
  4  6  1  0
  5  7  2  0
  5  8  1  0
  6  9  2  0
  7  9  1  0
  9 10  1  0
 10 11  1  0
 10 12  2  0
 11 13  1  0
 12 14  1  0
 13 14  2  0
 15 12  1  6
 13 16  1  0
 15 17  1  0
 15 18  1  0
 17 19  1  0
 18 20  1  0
 19 20  1  0
 18 21  1  6
 21 22  2  0
 21 23  1  0
 23 24  1  0
 24 25  2  0
 24 26  1  0
 26 27  1  0
M  END
