BEN-VAN-d8fd1356-22
     RDKit          3D

 23 25  0  0  0  0  0  0  0  0999 V2000
    6.4110   -4.1480   28.0010 C   0  0  0  0  0  0  0  0  0  0  0  0
    7.9080   -4.0880   27.8800 C   0  0  0  0  0  0  0  0  0  0  0  0
    7.2190   -2.7390   28.0570 C   0  0  0  0  0  0  0  0  0  0  0  0
    6.5610   -2.5100   29.0980 O   0  0  0  0  0  0  0  0  0  0  0  0
    7.3670   -1.6910   27.0020 N   0  0  0  0  0  0  0  0  0  0  0  0
    6.3110   -1.5440   25.9800 C   0  0  0  0  0  0  0  0  0  0  0  0
    8.7020   -1.3130   26.5540 C   0  0  0  0  0  0  0  0  0  0  0  0
    6.8240   -1.4360   24.5230 C   0  0  0  0  0  0  0  0  0  0  0  0
    8.5890   -0.2370   25.6700 C   0  0  0  0  0  0  0  0  0  0  0  0
    8.1310   -0.7510   24.3840 N   0  0  0  0  0  0  0  0  0  0  0  0
    9.1420   -1.4810   23.7220 C   0  0  0  0  0  0  0  0  0  0  0  0
   10.2700   -0.7500   23.3670 C   0  0  0  0  0  0  0  0  0  0  0  0
   11.2720   -1.5560   22.8370 C   0  0  0  0  0  0  0  0  0  0  0  0
   10.4490    0.5710   23.4740 C   0  0  0  0  0  0  0  0  0  0  0  0
   12.5240   -1.0030   22.4310 C   0  0  0  0  0  0  0  0  0  0  0  0
   11.6090    1.1240   23.0800 C   0  0  0  0  0  0  0  0  0  0  0  0
    9.7290    1.6430   23.9060 N   0  0  0  0  0  0  0  0  0  0  0  0
   13.4270   -1.8550   21.9440 F   0  0  0  0  0  0  0  0  0  0  0  0
   12.8740    0.5080   22.5270 C   0  0  0  0  0  0  0  0  0  0  0  0
   11.6690    2.6300   23.1890 C   0  0  0  0  0  0  0  0  0  0  0  0
   10.3890    2.8800   23.7640 C   0  0  0  0  0  0  0  0  0  0  0  0
   12.6960    3.5020   22.8030 C   0  0  0  0  0  0  0  0  0  0  0  0
   12.5960    4.7620   23.3990 C   0  0  0  0  0  0  0  0  0  0  0  0
  1  2  1  0
  2  3  1  0
  3  4  2  0
  3  5  1  0
  5  6  1  0
  5  7  1  0
  6  8  1  0
  7  9  1  0
  8 10  1  0
  9 10  1  0
 10 11  1  0
 11 12  1  0
 12 13  2  0
 12 14  1  0
 13 15  1  0
 14 16  2  0
 14 17  1  0
 15 18  1  0
 15 19  2  0
 16 19  1  0
 16 20  1  0
 17 21  1  0
 20 21  2  0
 20 22  1  0
 22 23  1  0
M  END
