BEN-VAN-d2b455e2-19-nitrile
     RDKit          3D

 25 27  0  0  0  0  0  0  0  0999 V2000
    7.6680   -3.5540   19.7550 C   0  0  0  0  0  0  0  0  0  0  0  0
    6.9560   -2.8730   18.9030 N   0  0  0  0  0  0  0  0  0  0  0  0
    8.4160   -2.8100   20.8560 N   0  0  0  0  0  0  0  0  0  0  0  0
    9.8680   -2.5470   21.3300 C   0  0  0  0  0  0  0  0  0  0  0  0
   10.9730   -2.9430   20.8940 O   0  0  0  0  0  0  0  0  0  0  0  0
   10.2430   -1.7410   22.5630 C   0  0  2  0  0  0  0  0  0  0  0  0
    9.5720   -1.8870   23.8550 C   0  0  0  0  0  0  0  0  0  0  0  0
   10.6580   -0.2560   22.5430 C   0  0  2  0  0  0  0  0  0  0  0  0
   10.2900   -1.0260   24.8680 C   0  0  0  0  0  0  0  0  0  0  0  0
   10.9290    0.0660   24.0540 C   0  0  0  0  0  0  0  0  0  0  0  0
    9.7160    0.9210   22.1740 C   0  0  0  0  0  0  0  0  0  0  0  0
   10.3250    2.1320   22.8470 C   0  0  0  0  0  0  0  0  0  0  0  0
    8.4570    1.3860   21.4430 C   0  0  0  0  0  0  0  0  0  0  0  0
    9.6840    3.3090   22.6940 C   0  0  0  0  0  0  0  0  0  0  0  0
    8.3010    3.0890   21.7360 S   0  0  0  0  0  0  0  0  0  0  0  0
    7.2930    1.0760   20.6140 C   0  0  0  0  0  0  0  0  0  0  0  0
   10.0780    4.4820   23.2260 F   0  0  0  0  0  0  0  0  0  0  0  0
    7.3110    1.2580   19.2520 N   0  0  0  0  0  0  0  0  0  0  0  0
    6.2130    0.7230   21.3100 N   0  0  0  0  0  0  0  0  0  0  0  0
    6.1180    1.1560   18.6160 C   0  0  0  0  0  0  0  0  0  0  0  0
    5.0920    0.6410   20.6260 C   0  0  0  0  0  0  0  0  0  0  0  0
    4.9480    0.8730   19.2900 C   0  0  0  0  0  0  0  0  0  0  0  0
    4.0060    0.3240   21.3450 F   0  0  0  0  0  0  0  0  0  0  0  0
    3.7780    0.8280   18.7610 N   0  0  0  0  0  0  0  0  0  0  0  0
    2.9450    1.8490   19.3970 C   0  0  0  0  0  0  0  0  0  0  0  0
  1  2  2  3
  1  3  1  0
  3  4  1  0
  4  5  2  0
  6  4  1  6
  6  7  1  0
  6  8  1  0
  7  9  1  0
  8 10  1  0
  9 10  1  0
  8 11  1  1
 11 12  1  0
 11 13  2  0
 12 14  2  0
 13 15  1  0
 14 15  1  0
 13 16  1  0
 14 17  1  0
 16 18  2  0
 16 19  1  0
 18 20  1  0
 19 21  2  0
 20 22  2  0
 21 22  1  0
 21 23  1  0
 22 24  1  0
 24 25  1  0
M  END
