BEN-VAN-d2b455e2-13-chloroacetamide
     RDKit          3D

 29 31  0  0  0  0  0  0  0  0999 V2000
    7.8790   -3.3060   20.3530 C   0  0  0  0  0  0  0  0  0  0  0  0
    7.1280   -2.0950   19.7910 C   0  0  0  0  0  0  0  0  0  0  0  0
    6.4090   -2.5030   18.7550 O   0  0  0  0  0  0  0  0  0  0  0  0
    7.1870   -0.6820   20.4590 N   0  0  0  0  0  0  0  0  0  0  0  0
    8.0910    0.2400   21.2490 C   0  0  0  0  0  0  0  0  0  0  0  0
    8.6570    1.2190   20.7650 O   0  0  0  0  0  0  0  0  0  0  0  0
    8.2440    0.1750   22.7780 C   0  0  1  0  0  0  0  0  0  0  0  0
    6.9870   -0.0400   23.5820 C   0  0  0  0  0  0  0  0  0  0  0  0
    9.1730   -0.8630   23.3990 C   0  0  1  0  0  0  0  0  0  0  0  0
    6.9190   -1.5660   23.6620 C   0  0  0  0  0  0  0  0  0  0  0  0
    8.3050   -2.0900   23.2370 C   0  0  0  0  0  0  0  0  0  0  0  0
   10.6020   -0.9660   22.9340 C   0  0  0  0  0  0  0  0  0  0  0  0
   11.2530   -1.9370   22.2010 C   0  0  0  0  0  0  0  0  0  0  0  0
   11.4780    0.0760   23.2640 C   0  0  0  0  0  0  0  0  0  0  0  0
   12.9030   -1.5860   21.9240 S   0  0  0  0  0  0  0  0  0  0  0  0
   12.7430   -0.1220   22.7780 C   0  0  0  0  0  0  0  0  0  0  0  0
   10.9890    1.1110   23.9840 N   0  0  0  0  0  0  0  0  0  0  0  0
   13.7220    0.7360   22.9510 F   0  0  0  0  0  0  0  0  0  0  0  0
   11.0020    2.4490   23.6160 C   0  0  0  0  0  0  0  0  0  0  0  0
   12.1810    2.8500   23.0570 C   0  0  0  0  0  0  0  0  0  0  0  0
    9.9590    3.3780   23.7650 C   0  0  0  0  0  0  0  0  0  0  0  0
   12.3570    4.1290   22.6590 C   0  0  0  0  0  0  0  0  0  0  0  0
   10.2150    4.6670   23.3330 C   0  0  0  0  0  0  0  0  0  0  0  0
    8.6800    3.0790   24.3320 C   0  0  0  0  0  0  0  0  0  0  0  0
   13.5820    4.4080   22.1200 N   0  0  0  0  0  0  0  0  0  0  0  0
   11.3900    5.0580   22.7890 N   0  0  0  0  0  0  0  0  0  0  0  0
    7.6400    2.8670   24.8050 N   0  0  0  0  0  0  0  0  0  0  0  0
   13.5130    5.2580   20.9860 C   0  0  0  0  0  0  0  0  0  0  0  0
   13.0510    6.5690   21.5380 C   0  0  0  0  0  0  0  0  0  0  0  0
  1  2  1  0
  2  3  2  0
  2  4  1  0
  4  5  1  0
  5  6  2  0
  7  5  1  6
  7  8  1  0
  7  9  1  0
  8 10  1  0
  9 11  1  0
 10 11  1  0
  9 12  1  6
 12 13  2  0
 12 14  1  0
 13 15  1  0
 14 16  2  0
 15 16  1  0
 14 17  1  0
 16 18  1  0
 17 19  1  0
 19 20  2  0
 19 21  1  0
 20 22  1  0
 21 23  2  0
 21 24  1  0
 22 25  1  0
 22 26  2  0
 23 26  1  0
 24 27  3  0
 25 28  1  0
 28 29  1  0
M  END
