BEN-DND-362d364a-3-vinylsulfonamide
     RDKit          3D

 36 38  0  0  0  0  0  0  0  0999 V2000
    6.9440   -3.1610   19.0750 C   0  0  0  0  0  0  0  0  0  0  0  0
    6.8590   -2.3950   20.3590 C   0  0  0  0  0  0  0  0  0  0  0  0
    6.3000   -3.3940   21.7120 S   0  0  0  0  0  0  0  0  0  0  0  0
    4.8300   -3.4050   21.7130 O   0  0  0  0  0  0  0  0  0  0  0  0
    6.9990   -4.6920   21.6080 O   0  0  0  0  0  0  0  0  0  0  0  0
    6.9780   -2.6960   23.2310 C   0  0  0  0  0  0  0  0  0  0  0  0
    8.0170   -3.1400   22.4070 C   0  0  0  0  0  0  0  0  0  0  0  0
    5.5370   -2.5240   23.4160 C   0  0  0  0  0  0  0  0  0  0  0  0
    6.7770   -3.0570   22.4170 N   0  0  0  0  0  0  0  0  0  0  0  0
    5.9900   -2.0310   24.5770 C   0  0  0  0  0  0  0  0  0  0  0  0
    6.9860   -2.4800   23.7090 C   0  0  0  0  0  0  0  0  0  0  0  0
    7.0300   -1.6380   25.6130 C   0  0  0  0  0  0  0  0  0  0  0  0
    8.3460   -2.3760   24.0960 N   0  0  0  0  0  0  0  0  0  0  0  0
    7.4520   -2.8550   26.4790 C   0  0  0  0  0  0  0  0  0  0  0  0
    9.1300   -1.2250   23.6250 C   0  0  0  0  0  0  0  0  0  0  0  0
    6.3280   -3.5280   27.1620 N   0  0  0  0  0  0  0  0  0  0  0  0
   10.0200   -1.5490   22.4190 C   0  0  0  0  0  0  0  0  0  0  0  0
    5.8790   -4.8020   26.5900 C   0  0  2  0  0  0  0  0  0  0  0  0
    5.9100   -4.7710   25.0280 C   0  0  0  0  0  0  0  0  0  0  0  0
    4.5320   -5.2680   27.0910 N   0  0  0  0  0  0  0  0  0  0  0  0
    5.4700   -6.0170   24.3750 N   0  0  0  0  0  0  0  0  0  0  0  0
    3.5970   -5.6850   25.9710 C   0  0  0  0  0  0  0  0  0  0  0  0
    3.7460   -4.2980   28.2570 S   0  0  0  0  0  0  0  0  0  0  0  0
    6.0210   -6.3330   23.1330 C   0  0  0  0  0  0  0  0  0  0  0  0
    4.2210   -6.5800   24.8920 C   0  0  0  0  0  0  0  0  0  0  0  0
    4.7480   -3.6770   29.0980 O   0  0  0  0  0  0  0  0  0  0  0  0
    2.6510   -5.0620   28.8180 O   0  0  0  0  0  0  0  0  0  0  0  0
    2.9950   -3.0240   27.2520 C   0  0  0  0  0  0  0  0  0  0  0  0
    5.1230   -6.1980   21.9480 C   0  0  0  0  0  0  0  0  0  0  0  0
    7.1810   -6.7180   22.9790 O   0  0  0  0  0  0  0  0  0  0  0  0
    3.7860   -1.8980   26.9080 C   0  0  0  0  0  0  0  0  0  0  0  0
    1.6420   -3.2310   26.8610 C   0  0  0  0  0  0  0  0  0  0  0  0
    3.2710   -0.8600   26.1250 C   0  0  0  0  0  0  0  0  0  0  0  0
    0.9710   -2.2870   26.0750 C   0  0  0  0  0  0  0  0  0  0  0  0
    2.2140   -1.7270   26.2220 C   0  0  0  0  0  0  0  0  0  0  0  0
   -0.3130   -3.4240   26.2400 Cl  0  0  0  0  0  0  0  0  0  0  0  0
  1  2  1  0
  3  2  1  0
  3  4  2  0
  3  5  2  0
  3  6  1  0
  6  7  2  0
  6  8  1  0
  7  9  1  0
  8 10  2  0
  9 11  2  0
 10 11  1  0
 10 12  1  0
 11 13  1  0
 12 14  1  0
 13 15  1  0
 14 16  1  0
 15 17  1  0
 18 16  1  1
 18 19  1  0
 18 20  1  0
 19 21  1  0
 20 22  1  0
 20 23  1  0
 21 24  1  0
 21 25  1  0
 22 25  1  0
 23 26  2  0
 23 27  2  0
 23 28  1  0
 24 29  1  0
 24 30  2  0
 28 31  2  0
 28 32  1  0
 31 33  1  0
 32 34  2  0
 33 35  2  0
 34 35  1  0
 34 36  1  0
M  END
