BEN-VAN-77cef4f8-9-chloroacetamide
     RDKit          3D

 30 32  0  0  0  0  0  0  0  0999 V2000
    7.7660   -3.3870   19.5730 C   0  0  0  0  0  0  0  0  0  0  0  0
    6.7980   -2.4960   18.8790 C   0  0  0  0  0  0  0  0  0  0  0  0
    6.0660   -2.9370   17.9890 O   0  0  0  0  0  0  0  0  0  0  0  0
    6.8660   -1.1240   19.4430 C   0  0  0  0  0  0  0  0  0  0  0  0
    5.9960    0.0700   19.0410 C   0  0  0  0  0  0  0  0  0  0  0  0
    7.8230   -0.9560   20.4390 C   0  0  0  0  0  0  0  0  0  0  0  0
    6.2100    1.4160   19.7760 C   0  0  0  0  0  0  0  0  0  0  0  0
    8.0670    0.1810   21.1210 N   0  0  0  0  0  0  0  0  0  0  0  0
    7.3240    1.2810   20.8260 C   0  0  0  0  0  0  0  0  0  0  0  0
    7.6500    2.4500   21.6290 N   0  0  0  0  0  0  0  0  0  0  0  0
    8.6310    2.1850   22.7100 C   0  0  1  0  0  0  0  0  0  0  0  0
    8.1330    2.3390   24.1540 C   0  0  0  0  0  0  0  0  0  0  0  0
    8.2860    0.9030   23.4760 C   0  0  0  0  0  0  0  0  0  0  0  0
    9.2410   -0.1270   23.4810 C   0  0  0  0  0  0  0  0  0  0  0  0
    8.9260   -1.5790   23.5290 C   0  0  0  0  0  0  0  0  0  0  0  0
   10.6310    0.1500   23.4400 C   0  0  0  0  0  0  0  0  0  0  0  0
    7.6020   -2.1000   23.5860 C   0  0  1  0  0  0  0  0  0  0  0  0
    9.9560   -2.5280   23.5250 C   0  0  0  0  0  0  0  0  0  0  0  0
   11.6370   -0.8170   23.4380 C   0  0  0  0  0  0  0  0  0  0  0  0
   11.0480    1.4230   23.4020 F   0  0  0  0  0  0  0  0  0  0  0  0
    6.8900   -2.1240   22.3700 C   0  0  0  0  0  0  0  0  0  0  0  0
    7.5810   -3.2410   24.0640 O   0  0  0  0  0  0  0  0  0  0  0  0
   11.3210   -2.1530   23.4790 C   0  0  0  0  0  0  0  0  0  0  0  0
   12.9240   -0.4480   23.3970 F   0  0  0  0  0  0  0  0  0  0  0  0
    6.0420   -3.1580   22.0380 N   0  0  0  0  0  0  0  0  0  0  0  0
    6.2760   -3.7760   24.3320 C   0  0  0  0  0  0  0  0  0  0  0  0
    5.5850   -3.4100   20.7090 C   0  0  0  0  0  0  0  0  0  0  0  0
    5.4520   -3.8110   23.2190 C   0  0  0  0  0  0  0  0  0  0  0  0
    5.2440   -2.3210   19.9200 C   0  0  0  0  0  0  0  0  0  0  0  0
    5.4680   -4.6690   20.1620 O   0  0  0  0  0  0  0  0  0  0  0  0
  1  2  1  0
  2  3  2  0
  2  4  1  0
  4  5  2  0
  4  6  1  0
  5  7  1  0
  6  8  2  0
  7  9  2  0
  8  9  1  0
  9 10  1  0
 10 11  1  0
 11 12  1  1
 11 13  1  0
 13 14  1  0
 14 15  1  0
 14 16  2  0
 17 15  1  6
 15 18  2  0
 16 19  1  0
 16 20  1  0
 17 21  1  0
 17 22  1  0
 18 23  1  0
 19 23  2  0
 19 24  1  0
 21 25  1  0
 22 26  1  0
 25 27  1  0
 25 28  1  0
 26 28  1  0
 27 29  1  0
 27 30  2  0
M  END
