BEN-VAN-ed886787-1
     RDKit          3D

 28 30  0  0  0  0  0  0  0  0999 V2000
   11.9390    6.9220   26.9660 C   0  0  0  0  0  0  0  0  0  0  0  0
   11.3020    7.9370   26.0540 C   0  0  0  0  0  0  0  0  0  0  0  0
   11.8990    8.0100   24.8380 N   0  0  0  0  0  0  0  0  0  0  0  0
   11.9990    6.8180   23.9910 C   0  0  0  0  0  0  0  0  0  0  0  0
   12.8880    6.8760   22.9620 C   0  0  0  0  0  0  0  0  0  0  0  0
   11.2470    5.7050   24.2110 N   0  0  0  0  0  0  0  0  0  0  0  0
   13.0580    5.8130   22.1090 C   0  0  0  0  0  0  0  0  0  0  0  0
   11.4270    4.6290   23.3400 C   0  0  0  0  0  0  0  0  0  0  0  0
   12.3250    4.6690   22.2850 C   0  0  0  0  0  0  0  0  0  0  0  0
   10.6760    3.4780   23.5250 C   0  0  0  0  0  0  0  0  0  0  0  0
   12.4640    3.6390   21.4770 F   0  0  0  0  0  0  0  0  0  0  0  0
   11.2860    2.0670   23.2760 C   0  0  0  0  0  0  0  0  0  0  0  0
   12.7490    1.8530   23.0150 C   0  0  0  0  0  0  0  0  0  0  0  0
   10.4450    0.9880   23.2770 C   0  0  0  0  0  0  0  0  0  0  0  0
   13.1830    0.4190   22.7770 C   0  0  0  0  0  0  0  0  0  0  0  0
   10.9030   -0.2830   23.0340 C   0  0  0  0  0  0  0  0  0  0  0  0
   12.2470   -0.5850   22.7930 C   0  0  0  0  0  0  0  0  0  0  0  0
   10.0610   -1.2990   22.9960 N   0  0  0  0  0  0  0  0  0  0  0  0
    9.4530   -1.5210   21.8170 C   0  0  0  0  0  0  0  0  0  0  0  0
    8.2050   -0.7720   21.5160 C   0  0  0  0  0  0  0  0  0  0  0  0
    8.6660    0.3480   21.3040 O   0  0  0  0  0  0  0  0  0  0  0  0
    7.0470   -0.6580   21.3860 N   0  0  0  0  0  0  0  0  0  0  0  0
    6.4070    0.0290   20.2360 C   0  0  0  0  0  0  0  0  0  0  0  0
    5.2490    0.8010   20.4140 C   0  0  0  0  0  0  0  0  0  0  0  0
    6.9200   -0.0620   18.9200 C   0  0  0  0  0  0  0  0  0  0  0  0
    4.6840    1.4220   19.3160 C   0  0  0  0  0  0  0  0  0  0  0  0
    6.4900    0.4440   17.9430 N   0  0  0  0  0  0  0  0  0  0  0  0
    5.3880    1.1990   18.0280 C   0  0  0  0  0  0  0  0  0  0  0  0
  1  2  1  0
  2  3  1  0
  3  4  1  0
  4  5  2  0
  4  6  1  0
  5  7  1  0
  6  8  2  0
  7  9  2  0
  8  9  1  0
  8 10  1  0
  9 11  1  0
 10 12  1  0
 12 13  2  0
 12 14  1  0
 13 15  1  0
 14 16  2  0
 15 17  2  0
 16 17  1  0
 16 18  1  0
 18 19  1  0
 19 20  1  0
 20 21  2  0
 20 22  1  0
 22 23  1  0
 23 24  2  0
 23 25  1  0
 24 26  1  0
 25 27  2  0
 26 28  2  0
 27 28  1  0
M  END
