BEN-VAN-5787f7d3-10
     RDKit          3D

 26 29  0  0  0  0  0  0  0  0999 V2000
    6.1030    0.9030   22.1260 C   0  0  0  0  0  0  0  0  0  0  0  0
    6.0060    0.7320   20.6410 C   0  0  0  0  0  0  0  0  0  0  0  0
    5.7790    1.7510   19.8460 C   0  0  0  0  0  0  0  0  0  0  0  0
    6.1350   -0.4220   20.0140 C   0  0  0  0  0  0  0  0  0  0  0  0
    5.6630    1.6350   18.4690 C   0  0  0  0  0  0  0  0  0  0  0  0
    6.0170   -0.5190   18.5200 C   0  0  0  0  0  0  0  0  0  0  0  0
    6.4080   -1.6360   20.7250 C   0  0  0  0  0  0  0  0  0  0  0  0
    5.7850    0.5160   17.7710 N   0  0  0  0  0  0  0  0  0  0  0  0
    7.6440   -2.1510   20.5680 C   0  0  0  0  0  0  0  0  0  0  0  0
    5.5300   -2.2820   21.4830 C   0  0  0  0  0  0  0  0  0  0  0  0
    7.7390   -3.5750   20.6250 C   0  0  0  0  0  0  0  0  0  0  0  0
    5.9400   -3.4970   21.9720 N   0  0  0  0  0  0  0  0  0  0  0  0
    6.4020   -4.2030   20.8520 C   0  0  0  0  0  0  0  0  0  0  0  0
    5.2500   -4.1870   22.8500 C   0  0  0  0  0  0  0  0  0  0  0  0
    5.7930   -5.0360   20.1740 O   0  0  0  0  0  0  0  0  0  0  0  0
    5.0850   -5.7050   22.5970 C   0  0  0  0  0  0  0  0  0  0  0  0
    4.6980   -3.5940   23.9470 C   0  0  0  0  0  0  0  0  0  0  0  0
    4.2830   -6.5050   23.6150 C   0  0  0  0  0  0  0  0  0  0  0  0
    3.9770   -4.3050   24.8710 C   0  0  0  0  0  0  0  0  0  0  0  0
    3.7390   -5.7010   24.7730 C   0  0  0  0  0  0  0  0  0  0  0  0
    3.4160   -3.6270   26.0250 N   0  0  0  0  0  0  0  0  0  0  0  0
    1.9740   -3.5510   26.2060 C   0  0  0  0  0  0  0  0  0  0  0  0
    4.0260   -2.4580   26.5370 C   0  0  0  0  0  0  0  0  0  0  0  0
    1.8120   -2.4140   26.9930 C   0  0  0  0  0  0  0  0  0  0  0  0
    3.0310   -1.8110   27.2420 C   0  0  0  0  0  0  0  0  0  0  0  0
    5.1690   -2.0350   26.4190 O   0  0  0  0  0  0  0  0  0  0  0  0
  1  2  1  0
  2  3  2  0
  2  4  1  0
  3  5  1  0
  4  6  2  0
  4  7  1  0
  5  8  2  0
  6  8  1  0
  7  9  1  0
  7 10  2  0
  9 11  2  0
 10 12  1  0
 11 13  1  0
 12 13  1  0
 12 14  1  0
 13 15  2  0
 14 16  2  0
 14 17  1  0
 16 18  1  0
 17 19  2  0
 18 20  2  0
 19 20  1  0
 19 21  1  0
 21 22  1  0
 21 23  1  0
 22 24  1  0
 23 25  1  0
 24 25  1  0
 23 26  2  0
M  END
