BEN-VAN-77cef4f8-13-chloroacetamide
     RDKit          3D

 32 35  0  0  0  0  0  0  0  0999 V2000
    7.7260   -3.5630   19.9020 C   0  0  0  0  0  0  0  0  0  0  0  0
    6.8920   -2.5820   19.1040 C   0  0  0  0  0  0  0  0  0  0  0  0
    6.2490   -2.9440   18.1210 O   0  0  0  0  0  0  0  0  0  0  0  0
    6.9170   -1.1850   19.6500 C   0  0  0  0  0  0  0  0  0  0  0  0
    7.8860   -0.8720   20.7790 C   0  0  0  0  0  0  0  0  0  0  0  0
    6.0980   -0.1460   19.2010 C   0  0  0  0  0  0  0  0  0  0  0  0
    7.9480    0.5230   21.4060 C   0  0  0  0  0  0  0  0  0  0  0  0
    6.0910    1.1440   19.7090 N   0  0  0  0  0  0  0  0  0  0  0  0
    6.9590    1.4660   20.7510 C   0  0  0  0  0  0  0  0  0  0  0  0
    6.9500    2.8430   21.2960 N   0  0  0  0  0  0  0  0  0  0  0  0
    7.6690    3.2950   22.5240 C   0  0  1  0  0  0  0  0  0  0  0  0
    8.4800    2.2890   23.3370 C   0  0  0  0  0  0  0  0  0  0  0  0
    9.1630    3.2720   22.2260 C   0  0  0  0  0  0  0  0  0  0  0  0
    9.9780    2.2530   22.6740 C   0  0  0  0  0  0  0  0  0  0  0  0
   11.1120    2.3260   23.5780 C   0  0  0  0  0  0  0  0  0  0  0  0
    9.6740    1.0050   22.1910 C   0  0  0  0  0  0  0  0  0  0  0  0
   11.8150    1.1450   23.9180 C   0  0  0  0  0  0  0  0  0  0  0  0
   10.3710   -0.1110   22.5430 C   0  0  0  0  0  0  0  0  0  0  0  0
   11.4290   -0.0770   23.4020 C   0  0  0  0  0  0  0  0  0  0  0  0
   10.0660   -1.3050   22.1050 O   0  0  0  0  0  0  0  0  0  0  0  0
    9.7570   -1.9250   23.2970 C   0  0  1  0  0  0  0  0  0  0  0  0
   12.0410   -1.0980   23.7370 O   0  0  0  0  0  0  0  0  0  0  0  0
    8.6860   -2.9600   22.9820 C   0  0  2  0  0  0  0  0  0  0  0  0
   11.1190   -2.2060   23.9320 C   0  0  0  0  0  0  0  0  0  0  0  0
    7.3900   -2.3870   22.7730 C   0  0  0  0  0  0  0  0  0  0  0  0
    8.6330   -4.0270   23.9210 O   0  0  0  0  0  0  0  0  0  0  0  0
    6.4540   -3.4510   22.4880 N   0  0  0  0  0  0  0  0  0  0  0  0
    7.6290   -5.0030   23.6240 C   0  0  0  0  0  0  0  0  0  0  0  0
    5.4610   -3.3930   21.5110 C   0  0  0  0  0  0  0  0  0  0  0  0
    6.3750   -4.4470   23.4200 C   0  0  0  0  0  0  0  0  0  0  0  0
    5.4680   -2.3750   20.5160 C   0  0  0  0  0  0  0  0  0  0  0  0
    4.6050   -4.2460   21.5310 O   0  0  0  0  0  0  0  0  0  0  0  0
  1  2  1  0
  2  3  2  0
  2  4  1  0
  4  5  2  0
  4  6  1  0
  5  7  1  0
  6  8  2  0
  7  9  2  0
  8  9  1  0
  9 10  1  0
 10 11  1  0
 11 12  1  1
 11 13  1  0
 13 14  1  0
 14 15  2  0
 14 16  1  0
 15 17  1  0
 16 18  2  0
 17 19  2  0
 18 19  1  0
 18 20  1  0
 20 21  1  0
 19 22  1  0
 21 23  1  0
 21 24  1  6
 22 24  1  0
 23 25  1  1
 23 26  1  0
 25 27  1  0
 26 28  1  0
 27 29  1  0
 27 30  1  0
 28 30  1  0
 29 31  1  0
 29 32  2  0
M  END
