BEN-VAN-d2b455e2-12-nitrile
     RDKit          3D

 29 31  0  0  0  0  0  0  0  0999 V2000
    7.4670   -2.5490   19.4830 C   0  0  0  0  0  0  0  0  0  0  0  0
    6.9050   -2.2380   18.3330 N   0  0  0  0  0  0  0  0  0  0  0  0
    8.2340   -1.4830   20.2690 N   0  0  0  0  0  0  0  0  0  0  0  0
    8.0080   -0.1640   20.8620 C   0  0  0  0  0  0  0  0  0  0  0  0
    7.6630    0.8080   20.2010 O   0  0  0  0  0  0  0  0  0  0  0  0
    8.2200    0.1550   22.3850 C   0  0  1  0  0  0  0  0  0  0  0  0
    7.0740   -0.1480   23.2920 C   0  0  0  0  0  0  0  0  0  0  0  0
    9.2790   -0.5480   23.2710 C   0  0  1  0  0  0  0  0  0  0  0  0
    7.2290   -1.5840   23.8090 C   0  0  0  0  0  0  0  0  0  0  0  0
    8.6820   -1.9440   23.4090 C   0  0  0  0  0  0  0  0  0  0  0  0
   10.7740   -0.5010   22.9610 C   0  0  0  0  0  0  0  0  0  0  0  0
   11.4050    0.7810   23.3970 C   0  0  0  0  0  0  0  0  0  0  0  0
   11.6790   -1.3610   22.3790 C   0  0  0  0  0  0  0  0  0  0  0  0
   10.6790    1.7630   24.0060 N   0  0  0  0  0  0  0  0  0  0  0  0
   12.7390    0.7750   23.0920 C   0  0  0  0  0  0  0  0  0  0  0  0
   13.2190   -0.6780   22.3480 S   0  0  0  0  0  0  0  0  0  0  0  0
   11.5400   -2.5630   21.8700 O   0  0  0  0  0  0  0  0  0  0  0  0
   10.4230    3.1110   23.6590 C   0  0  0  0  0  0  0  0  0  0  0  0
   12.6240   -2.7960   20.9790 C   0  0  0  0  0  0  0  0  0  0  0  0
   11.3910    3.8650   22.9120 C   0  0  0  0  0  0  0  0  0  0  0  0
    9.2360    3.7870   24.0170 C   0  0  0  0  0  0  0  0  0  0  0  0
   11.1420    5.2000   22.5830 C   0  0  0  0  0  0  0  0  0  0  0  0
    9.0910    5.1120   23.6450 C   0  0  0  0  0  0  0  0  0  0  0  0
    8.0810    3.1470   24.8010 C   0  0  0  0  0  0  0  0  0  0  0  0
   12.1040    5.8840   21.8440 N   0  0  0  0  0  0  0  0  0  0  0  0
   10.0060    5.8140   22.9530 N   0  0  0  0  0  0  0  0  0  0  0  0
    7.1550    2.7210   25.3580 N   0  0  0  0  0  0  0  0  0  0  0  0
   13.4980    5.6680   22.1510 C   0  0  0  0  0  0  0  0  0  0  0  0
   13.6960    4.4460   22.7710 C   0  0  0  0  0  0  0  0  0  0  0  0
  1  2  2  3
  1  3  1  0
  3  4  1  0
  4  5  2  0
  6  4  1  6
  6  7  1  0
  6  8  1  0
  7  9  1  0
  8 10  1  0
  9 10  1  0
  8 11  1  6
 11 12  1  0
 11 13  2  0
 12 14  1  0
 12 15  2  0
 13 16  1  0
 15 16  1  0
 13 17  1  0
 14 18  1  0
 17 19  1  0
 18 20  2  0
 18 21  1  0
 20 22  1  0
 21 23  2  0
 21 24  1  0
 22 25  1  0
 22 26  2  0
 23 26  1  0
 24 27  3  0
 25 28  1  0
 28 29  1  0
M  END
