BEN-VAN-d2b455e2-14-nitrile
     RDKit          3D

 28 30  0  0  0  0  0  0  0  0999 V2000
    6.9800   -3.7210   20.1100 C   0  0  0  0  0  0  0  0  0  0  0  0
    5.7960   -4.0980   19.7820 N   0  0  0  0  0  0  0  0  0  0  0  0
    7.0260   -2.9340   21.2230 N   0  0  0  0  0  0  0  0  0  0  0  0
    7.0480   -1.5520   21.2790 C   0  0  0  0  0  0  0  0  0  0  0  0
    7.1690   -0.8260   20.2950 O   0  0  0  0  0  0  0  0  0  0  0  0
    6.8990   -0.9190   22.6720 C   0  0  1  0  0  0  0  0  0  0  0  0
    6.0930   -1.6320   23.7250 C   0  0  0  0  0  0  0  0  0  0  0  0
    8.2030   -0.4790   23.4250 C   0  0  1  0  0  0  0  0  0  0  0  0
    6.6410   -1.4470   25.1330 C   0  0  0  0  0  0  0  0  0  0  0  0
    8.0340   -0.8400   24.9290 C   0  0  0  0  0  0  0  0  0  0  0  0
    9.5550   -1.0850   23.0030 C   0  0  0  0  0  0  0  0  0  0  0  0
    9.7050   -1.6050   21.6170 C   0  0  0  0  0  0  0  0  0  0  0  0
   10.8260   -1.3070   23.6460 C   0  0  0  0  0  0  0  0  0  0  0  0
   11.2840   -2.2250   21.3770 S   0  0  0  0  0  0  0  0  0  0  0  0
   11.7640   -1.8850   22.8740 C   0  0  0  0  0  0  0  0  0  0  0  0
   11.2030   -1.0530   24.8350 N   0  0  0  0  0  0  0  0  0  0  0  0
   13.3740   -2.3110   23.2480 Cl  0  0  0  0  0  0  0  0  0  0  0  0
   12.1950   -1.8820   25.3460 C   0  0  0  0  0  0  0  0  0  0  0  0
   13.3680   -1.3630   25.7990 C   0  0  0  0  0  0  0  0  0  0  0  0
   12.0320   -3.2370   25.4550 C   0  0  0  0  0  0  0  0  0  0  0  0
   14.4290   -2.1430   26.4020 C   0  0  0  0  0  0  0  0  0  0  0  0
   13.0820   -3.9240   26.0150 C   0  0  0  0  0  0  0  0  0  0  0  0
   10.8500   -3.9260   25.0470 C   0  0  0  0  0  0  0  0  0  0  0  0
   15.7270   -1.6160   27.0230 N   0  0  0  0  0  0  0  0  0  0  0  0
   14.2250   -3.4490   26.4490 N   0  0  0  0  0  0  0  0  0  0  0  0
    9.8780   -4.5050   24.8050 N   0  0  0  0  0  0  0  0  0  0  0  0
   16.3730    0.1020   27.7940 C   0  0  0  0  0  0  0  0  0  0  0  0
   16.4580    2.5230   27.4870 C   0  0  0  0  0  0  0  0  0  0  0  0
  1  2  2  3
  1  3  1  0
  3  4  1  0
  4  5  2  0
  6  4  1  6
  6  7  1  0
  6  8  1  0
  7  9  1  0
  8 10  1  0
  9 10  1  0
  8 11  1  6
 11 12  2  0
 11 13  1  0
 12 14  1  0
 13 15  2  0
 14 15  1  0
 13 16  1  0
 15 17  1  0
 16 18  1  0
 18 19  2  0
 18 20  1  0
 19 21  1  0
 20 22  2  0
 20 23  1  0
 21 24  1  0
 21 25  2  0
 22 25  1  0
 23 26  3  0
 24 27  1  0
 27 28  1  0
M  END
