BEN-VAN-d2b455e2-13-acrylamide
     RDKit          3D

 30 32  0  0  0  0  0  0  0  0999 V2000
    6.6570   -3.7480   19.5860 C   0  0  0  0  0  0  0  0  0  0  0  0
    7.1360   -2.9460   20.7390 C   0  0  0  0  0  0  0  0  0  0  0  0
    5.9470   -2.2290   21.2590 C   0  0  0  0  0  0  0  0  0  0  0  0
    4.7500   -2.9180   21.2570 O   0  0  0  0  0  0  0  0  0  0  0  0
    6.2790   -0.8300   21.7010 N   0  0  0  0  0  0  0  0  0  0  0  0
    7.5040   -0.0500   21.5890 C   0  0  0  0  0  0  0  0  0  0  0  0
    7.8950    0.3800   20.5180 O   0  0  0  0  0  0  0  0  0  0  0  0
    8.2650    0.2740   22.8910 C   0  0  1  0  0  0  0  0  0  0  0  0
    7.1420    0.1140   23.8890 C   0  0  0  0  0  0  0  0  0  0  0  0
    9.2760   -0.7540   23.4510 C   0  0  1  0  0  0  0  0  0  0  0  0
    7.0340   -1.4110   24.0070 C   0  0  0  0  0  0  0  0  0  0  0  0
    8.3540   -1.9500   23.4250 C   0  0  0  0  0  0  0  0  0  0  0  0
   10.6070   -0.6810   23.0600 C   0  0  0  0  0  0  0  0  0  0  0  0
   11.3370   -1.7260   22.3770 C   0  0  0  0  0  0  0  0  0  0  0  0
   11.4630    0.4400   23.2800 C   0  0  0  0  0  0  0  0  0  0  0  0
   12.9590   -1.3000   22.0630 S   0  0  0  0  0  0  0  0  0  0  0  0
   12.7260    0.2160   22.7860 C   0  0  0  0  0  0  0  0  0  0  0  0
   10.9960    1.5630   23.9160 N   0  0  0  0  0  0  0  0  0  0  0  0
   13.6840    1.1130   22.8650 F   0  0  0  0  0  0  0  0  0  0  0  0
    9.7170    1.6390   24.5610 C   0  0  0  0  0  0  0  0  0  0  0  0
    9.3010    0.5970   25.4090 C   0  0  0  0  0  0  0  0  0  0  0  0
    8.8190    2.7150   24.3940 C   0  0  0  0  0  0  0  0  0  0  0  0
    7.9470    0.6470   26.0940 C   0  0  0  0  0  0  0  0  0  0  0  0
    7.5860    2.6940   25.0540 C   0  0  0  0  0  0  0  0  0  0  0  0
    9.0910    3.8580   23.5800 C   0  0  0  0  0  0  0  0  0  0  0  0
    7.5890   -0.4390   26.9230 N   0  0  0  0  0  0  0  0  0  0  0  0
    7.1290    1.7110   25.8860 N   0  0  0  0  0  0  0  0  0  0  0  0
    9.3130    4.8110   22.9600 N   0  0  0  0  0  0  0  0  0  0  0  0
    7.0810   -0.1430   28.2600 C   0  0  0  0  0  0  0  0  0  0  0  0
    7.7420   -0.9750   29.2200 C   0  0  0  0  0  0  0  0  0  0  0  0
  1  2  1  0
  2  3  1  0
  3  4  2  0
  3  5  1  0
  5  6  1  0
  6  7  2  0
  8  6  1  6
  8  9  1  0
  8 10  1  0
  9 11  1  0
 10 12  1  0
 11 12  1  0
 10 13  1  6
 13 14  2  0
 13 15  1  0
 14 16  1  0
 15 17  2  0
 16 17  1  0
 15 18  1  0
 17 19  1  0
 18 20  1  0
 20 21  2  0
 20 22  1  0
 21 23  1  0
 22 24  2  0
 22 25  1  0
 23 26  1  0
 23 27  2  0
 24 27  1  0
 25 28  3  0
 26 29  1  0
 29 30  1  0
M  END
