BOG-INS-16021dc0-1-bromoalkyne
     RDKit          3D

 32 35  0  0  0  0  0  0  0  0999 V2000
    6.7240   -3.9550   19.8650 C   0  0  0  0  0  0  0  0  0  0  0  0
    5.9140   -3.1320   19.1830 C   0  0  0  0  0  0  0  0  0  0  0  0
    6.5470   -4.2380   21.2220 N   0  0  0  0  0  0  0  0  0  0  0  0
    5.8810   -5.4510   21.6850 C   0  0  0  0  0  0  0  0  0  0  0  0
    6.9950   -3.3700   22.3720 C   0  0  0  0  0  0  0  0  0  0  0  0
    6.4810   -5.8820   23.0110 C   0  0  0  0  0  0  0  0  0  0  0  0
    6.1490   -3.5930   23.6780 C   0  0  1  0  0  0  0  0  0  0  0  0
    6.1170   -4.9910   24.0710 O   0  0  0  0  0  0  0  0  0  0  0  0
    6.3640   -2.7170   24.9430 C   0  0  0  0  0  0  0  0  0  0  0  0
    6.1700   -3.2690   26.2270 C   0  0  0  0  0  0  0  0  0  0  0  0
    6.7580   -1.3460   24.8850 C   0  0  0  0  0  0  0  0  0  0  0  0
    6.3570   -2.5150   27.3880 C   0  0  0  0  0  0  0  0  0  0  0  0
    6.9420   -0.6060   26.0620 C   0  0  0  0  0  0  0  0  0  0  0  0
    7.0060   -0.6590   23.6350 C   0  0  0  0  0  0  0  0  0  0  0  0
    6.7430   -1.1880   27.2940 C   0  0  0  0  0  0  0  0  0  0  0  0
    6.0740    0.1160   22.9340 C   0  0  0  0  0  0  0  0  0  0  0  0
    8.2740   -0.8040   23.1290 C   0  0  0  0  0  0  0  0  0  0  0  0
    6.9260   -0.4650   28.4040 F   0  0  0  0  0  0  0  0  0  0  0  0
    4.8370    0.2880   23.4120 F   0  0  0  0  0  0  0  0  0  0  0  0
    6.4280    0.7230   21.7310 C   0  0  0  0  0  0  0  0  0  0  0  0
    8.6670   -0.2250   21.9440 C   0  0  0  0  0  0  0  0  0  0  0  0
    9.2550   -1.6280   23.9220 C   0  0  0  0  0  0  0  0  0  0  0  0
    7.7270    0.5510   21.2300 C   0  0  0  0  0  0  0  0  0  0  0  0
   10.7110   -1.2690   23.6390 C   0  0  2  0  0  0  0  0  0  0  0  0
    9.9730   -0.5070   21.6320 N   0  0  0  0  0  0  0  0  0  0  0  0
   11.4060   -0.9710   24.8990 C   0  0  0  0  0  0  0  0  0  0  0  0
   10.7920   -0.0720   22.7210 C   0  0  0  0  0  0  0  0  0  0  0  0
   10.2230   -1.9520   21.5890 C   0  0  0  0  0  0  0  0  0  0  0  0
   10.8340   -0.4970   25.8660 O   0  0  0  0  0  0  0  0  0  0  0  0
   12.8820   -1.3020   24.8480 C   0  0  1  0  0  0  0  0  0  0  0  0
   13.1550   -2.7930   24.8980 C   0  0  0  0  0  0  0  0  0  0  0  0
   13.3650   -0.7920   23.5570 N   0  0  0  0  0  0  0  0  0  0  0  0
  1  2  2  3
  1  3  1  0
  3  4  1  0
  3  5  1  0
  4  6  1  0
  5  7  1  0
  6  8  1  0
  7  8  1  0
  7  9  1  1
  9 10  2  0
  9 11  1  0
 10 12  1  0
 11 13  2  0
 11 14  1  0
 12 15  2  0
 13 15  1  0
 14 16  2  0
 14 17  1  0
 15 18  1  0
 16 19  1  0
 16 20  1  0
 17 21  2  0
 17 22  1  0
 20 23  2  0
 21 23  1  0
 22 24  1  0
 21 25  1  0
 24 26  1  1
 24 27  1  0
 25 27  1  0
 25 28  1  0
 26 29  2  0
 26 30  1  0
 30 31  1  6
 30 32  1  0
M  END
