BOG-INS-01af3fef-1-nitrile
     RDKit          3D

 31 35  0  0  0  0  0  0  0  0999 V2000
    6.7710   -3.3370   19.5030 C   0  0  0  0  0  0  0  0  0  0  0  0
    5.9940   -3.0260   18.5540 N   0  0  0  0  0  0  0  0  0  0  0  0
    6.8400   -2.7110   20.7020 N   0  0  0  0  0  0  0  0  0  0  0  0
    7.4100   -1.4570   20.9210 C   0  0  0  0  0  0  0  0  0  0  0  0
    6.4290   -3.3700   21.9680 C   0  0  1  0  0  0  0  0  0  0  0  0
    8.6140   -1.4910   21.8330 C   0  0  0  0  0  0  0  0  0  0  0  0
    7.5150   -3.3290   23.0560 C   0  0  0  0  0  0  0  0  0  0  0  0
    5.1430   -2.7200   22.4840 C   0  0  0  0  0  0  0  0  0  0  0  0
    8.2470   -2.0460   23.1430 N   0  0  0  0  0  0  0  0  0  0  0  0
    9.3870   -2.1080   24.0750 C   0  0  0  0  0  0  0  0  0  0  0  0
   10.4520   -1.2380   23.7680 C   0  0  0  0  0  0  0  0  0  0  0  0
   11.6910   -1.7380   23.3470 C   0  0  0  0  0  0  0  0  0  0  0  0
   10.3060    0.1650   23.8740 C   0  0  0  0  0  0  0  0  0  0  0  0
   12.7650   -0.9140   23.0350 C   0  0  0  0  0  0  0  0  0  0  0  0
   11.4090    0.9880   23.5450 C   0  0  0  0  0  0  0  0  0  0  0  0
    9.1410    0.7250   24.2760 N   0  0  0  0  0  0  0  0  0  0  0  0
   12.6340    0.4610   23.1310 C   0  0  0  0  0  0  0  0  0  0  0  0
   11.2150    2.4910   23.6480 C   0  0  0  0  0  0  0  0  0  0  0  0
    8.9730    2.0810   24.3710 C   0  0  0  0  0  0  0  0  0  0  0  0
    9.9910    3.0230   24.0570 C   0  0  0  0  0  0  0  0  0  0  0  0
    7.7150    2.5640   24.8110 N   0  0  0  0  0  0  0  0  0  0  0  0
    9.7580    4.5620   24.1640 C   0  0  1  0  0  0  0  0  0  0  0  0
    6.7950    2.9010   23.8060 C   0  0  0  0  0  0  0  0  0  0  0  0
    7.1490    1.7230   25.8870 C   0  0  0  0  0  0  0  0  0  0  0  0
   10.9750    5.3270   24.3580 C   0  0  0  0  0  0  0  0  0  0  0  0
   10.3850    5.6920   23.1020 C   0  0  2  0  0  0  0  0  0  0  0  0
    5.5110    3.5200   24.2820 C   0  0  0  0  0  0  0  0  0  0  0  0
    5.8300    2.0850   26.1890 C   0  0  0  0  0  0  0  0  0  0  0  0
    9.8640    6.9530   23.0230 N   0  0  0  0  0  0  0  0  0  0  0  0
    5.4070    3.4330   25.7440 N   0  0  0  0  0  0  0  0  0  0  0  0
    6.1920    4.4610   26.4180 C   0  0  0  0  0  0  0  0  0  0  0  0
  1  2  2  3
  1  3  1  0
  3  4  1  0
  3  5  1  0
  4  6  1  0
  5  7  1  0
  5  8  1  1
  6  9  1  0
  7  9  1  0
  9 10  1  0
 10 11  1  0
 11 12  2  0
 11 13  1  0
 12 14  1  0
 13 15  2  0
 13 16  1  0
 14 17  2  0
 15 17  1  0
 15 18  1  0
 16 19  2  0
 18 20  2  0
 19 20  1  0
 19 21  1  0
 22 20  1  6
 21 23  1  0
 21 24  1  0
 22 25  1  0
 22 26  1  0
 25 26  1  0
 23 27  1  0
 24 28  1  0
 26 29  1  1
 27 30  1  0
 28 30  1  0
 30 31  1  0
M  END
