BOG-INS-8ebd826b-1-vinylsulfonamide
     RDKit          3D

 30 33  0  0  0  0  0  0  0  0999 V2000
    7.5730   -2.9060   18.4670 C   0  0  0  0  0  0  0  0  0  0  0  0
    6.7360   -2.3700   19.6270 C   0  0  0  0  0  0  0  0  0  0  0  0
    5.8140   -3.6260   20.4900 S   0  0  0  0  0  0  0  0  0  0  0  0
    4.7700   -3.0130   21.2390 O   0  0  0  0  0  0  0  0  0  0  0  0
    5.5080   -4.7870   19.6990 O   0  0  0  0  0  0  0  0  0  0  0  0
    6.9480   -3.9850   21.6470 N   0  0  0  0  0  0  0  0  0  0  0  0
    6.6210   -5.0390   22.6140 C   0  0  0  0  0  0  0  0  0  0  0  0
    7.6090   -2.7740   22.0990 C   0  0  0  0  0  0  0  0  0  0  0  0
    7.3840   -4.8660   23.9270 C   0  0  0  0  0  0  0  0  0  0  0  0
    8.3070   -2.9420   23.4310 C   0  0  2  0  0  0  0  0  0  0  0  0
    7.5470   -3.4740   24.2420 O   0  0  0  0  0  0  0  0  0  0  0  0
    8.9280   -1.6760   23.7260 C   0  0  0  0  0  0  0  0  0  0  0  0
    8.5150   -0.5740   24.6230 C   0  0  0  0  0  0  0  0  0  0  0  0
   10.1100   -1.4370   23.0620 C   0  0  0  0  0  0  0  0  0  0  0  0
    9.1690    0.7000   24.9020 C   0  0  0  0  0  0  0  0  0  0  0  0
   10.8270   -0.2120   23.2990 C   0  0  0  0  0  0  0  0  0  0  0  0
   10.8280   -2.3030   22.0590 C   0  0  0  0  0  0  0  0  0  0  0  0
    8.6440    1.5910   25.7360 F   0  0  0  0  0  0  0  0  0  0  0  0
   10.3580    0.8630   24.2210 C   0  0  0  0  0  0  0  0  0  0  0  0
   11.8590   -1.4120   21.5230 O   0  0  0  0  0  0  0  0  0  0  0  0
   12.0850   -0.2800   22.4680 C   0  0  2  0  0  0  0  0  0  0  0  0
   13.1660   -0.7480   23.3640 C   0  0  0  0  0  0  0  0  0  0  0  0
   12.6800   -1.8900   24.2300 C   0  0  0  0  0  0  0  0  0  0  0  0
   13.6550   -2.5530   25.1440 C   0  0  0  0  0  0  0  0  0  0  0  0
   11.3410   -2.2530   24.1160 C   0  0  0  0  0  0  0  0  0  0  0  0
   13.2060   -3.6570   25.9930 C   0  0  0  0  0  0  0  0  0  0  0  0
   10.8240   -3.4050   24.9810 C   0  0  0  0  0  0  0  0  0  0  0  0
   14.0460   -4.1160   26.6790 O   0  0  0  0  0  0  0  0  0  0  0  0
   11.7930   -4.0670   25.9070 C   0  0  0  0  0  0  0  0  0  0  0  0
    9.5580   -3.8280   24.9400 F   0  0  0  0  0  0  0  0  0  0  0  0
  1  2  1  0
  3  2  1  0
  3  4  2  0
  3  5  2  0
  3  6  1  0
  6  7  1  0
  6  8  1  0
  7  9  1  0
  8 10  1  0
  9 11  1  0
 10 11  1  0
 10 12  1  1
 12 13  2  0
 12 14  1  0
 13 15  1  0
 14 16  2  0
 14 17  1  0
 15 18  1  0
 15 19  2  0
 16 19  1  0
 17 20  1  0
 16 21  1  0
 20 21  1  0
 21 22  1  1
 22 23  1  0
 23 24  2  0
 23 25  1  0
 24 26  1  0
 25 27  2  0
 26 28  1  0
 26 29  2  0
 27 29  1  0
 27 30  1  0
M  END
