BOG-INS-d6bb07dc-1-chloroacetamide
     RDKit          3D

 28 31  0  0  0  0  0  0  0  0999 V2000
    7.0450   -3.0190   19.0140 C   0  0  0  0  0  0  0  0  0  0  0  0
    6.2940   -3.4500   20.0210 C   0  0  0  0  0  0  0  0  0  0  0  0
    5.3930   -4.2530   19.7790 O   0  0  0  0  0  0  0  0  0  0  0  0
    6.5270   -3.0120   21.3390 N   0  0  0  0  0  0  0  0  0  0  0  0
    6.2860   -3.8820   22.4350 C   0  0  0  0  0  0  0  0  0  0  0  0
    7.6020   -2.0560   21.6310 C   0  0  0  0  0  0  0  0  0  0  0  0
    7.3590   -4.5490   23.0280 C   0  0  0  0  0  0  0  0  0  0  0  0
    8.8010   -2.7350   22.3370 C   0  0  2  0  0  0  0  0  0  0  0  0
    8.4110   -3.6480   23.3950 O   0  0  0  0  0  0  0  0  0  0  0  0
    9.6220   -1.7860   22.8920 C   0  0  0  0  0  0  0  0  0  0  0  0
   10.9290   -1.4230   22.2430 C   0  0  0  0  0  0  0  0  0  0  0  0
    9.2570   -1.1470   24.0700 C   0  0  0  0  0  0  0  0  0  0  0  0
   11.7800   -0.3870   22.8940 C   0  0  0  0  0  0  0  0  0  0  0  0
    9.9990   -0.1460   24.7330 C   0  0  0  0  0  0  0  0  0  0  0  0
    8.0420   -1.3610   24.9120 C   0  0  0  0  0  0  0  0  0  0  0  0
   12.9590   -0.0100   22.3980 F   0  0  0  0  0  0  0  0  0  0  0  0
   11.2300    0.2070   24.1430 C   0  0  0  0  0  0  0  0  0  0  0  0
    8.5060   -0.9470   26.1440 C   0  0  0  0  0  0  0  0  0  0  0  0
    9.1560    0.2580   25.9780 C   0  0  2  0  0  0  0  0  0  0  0  0
    8.0710    1.3650   25.8140 C   0  0  0  0  0  0  0  0  0  0  0  0
    7.6560    2.1920   27.0070 C   0  0  0  0  0  0  0  0  0  0  0  0
    7.1840    3.5050   26.8020 C   0  0  0  0  0  0  0  0  0  0  0  0
    7.7400    1.6590   28.3150 C   0  0  0  0  0  0  0  0  0  0  0  0
    6.7600    4.3750   27.9880 C   0  0  0  0  0  0  0  0  0  0  0  0
    7.3640    2.4130   29.4280 C   0  0  0  0  0  0  0  0  0  0  0  0
    6.3130    5.6390   27.7480 O   0  0  0  0  0  0  0  0  0  0  0  0
    6.8480    3.8450   29.2530 C   0  0  0  0  0  0  0  0  0  0  0  0
    7.4520    1.8870   30.6580 F   0  0  0  0  0  0  0  0  0  0  0  0
  1  2  1  0
  2  3  2  0
  2  4  1  0
  4  5  1  0
  4  6  1  0
  5  7  1  0
  6  8  1  0
  7  9  1  0
  8  9  1  0
  8 10  1  1
 10 11  2  0
 10 12  1  0
 11 13  1  0
 12 14  2  0
 12 15  1  0
 13 16  1  0
 13 17  2  0
 14 17  1  0
 15 18  1  0
 14 19  1  0
 18 19  1  0
 19 20  1  6
 20 21  1  0
 21 22  2  0
 21 23  1  0
 22 24  1  0
 23 25  2  0
 24 26  1  0
 24 27  2  0
 25 27  1  0
 25 28  1  0
M  END
