BOG-INS-d6bb07dc-1-vinylsulfonamide
     RDKit          3D

 30 33  0  0  0  0  0  0  0  0999 V2000
    7.4760   -3.0420   18.9070 C   0  0  0  0  0  0  0  0  0  0  0  0
    7.0500   -2.7020   20.3410 C   0  0  0  0  0  0  0  0  0  0  0  0
    5.9090   -3.8950   21.0150 S   0  0  0  0  0  0  0  0  0  0  0  0
    4.7810   -3.1720   21.5220 O   0  0  0  0  0  0  0  0  0  0  0  0
    5.6210   -4.9390   20.0480 O   0  0  0  0  0  0  0  0  0  0  0  0
    6.7560   -4.5240   22.3170 N   0  0  0  0  0  0  0  0  0  0  0  0
    6.1160   -5.3770   23.3460 C   0  0  0  0  0  0  0  0  0  0  0  0
    8.1560   -4.1570   22.5740 C   0  0  0  0  0  0  0  0  0  0  0  0
    6.5180   -4.7870   24.7310 C   0  0  0  0  0  0  0  0  0  0  0  0
    8.3160   -3.4650   23.9350 C   0  0  2  0  0  0  0  0  0  0  0  0
    7.0930   -3.4740   24.6780 O   0  0  0  0  0  0  0  0  0  0  0  0
    8.9160   -2.0650   23.8040 C   0  0  0  0  0  0  0  0  0  0  0  0
    8.2880   -0.9210   24.3340 C   0  0  0  0  0  0  0  0  0  0  0  0
   10.1230   -1.8520   23.1460 C   0  0  0  0  0  0  0  0  0  0  0  0
    8.8560    0.3670   24.1900 C   0  0  0  0  0  0  0  0  0  0  0  0
   10.7400   -0.4990   22.9490 C   0  0  0  0  0  0  0  0  0  0  0  0
   10.9800   -2.7400   22.5710 C   0  0  0  0  0  0  0  0  0  0  0  0
    8.2130    1.4160   24.7180 F   0  0  0  0  0  0  0  0  0  0  0  0
   10.0650    0.5850   23.5040 C   0  0  0  0  0  0  0  0  0  0  0  0
   12.2140   -2.0360   22.6020 C   0  0  0  0  0  0  0  0  0  0  0  0
   11.9960   -0.7510   22.1210 C   0  0  2  0  0  0  0  0  0  0  0  0
   13.2300    0.1780   22.3500 C   0  0  0  0  0  0  0  0  0  0  0  0
   14.0420    0.6760   21.2120 C   0  0  0  0  0  0  0  0  0  0  0  0
   14.6890    2.1520   21.1700 C   0  0  0  0  0  0  0  0  0  0  0  0
   14.3890   -0.2470   19.9620 C   0  0  0  0  0  0  0  0  0  0  0  0
   15.6050    2.6270   19.8640 C   0  0  0  0  0  0  0  0  0  0  0  0
   15.2640    0.1690   18.8600 C   0  0  0  0  0  0  0  0  0  0  0  0
   16.1130    3.8530   19.6910 O   0  0  0  0  0  0  0  0  0  0  0  0
   15.9140    1.5890   18.7290 C   0  0  0  0  0  0  0  0  0  0  0  0
   15.5540   -0.6790   17.8760 F   0  0  0  0  0  0  0  0  0  0  0  0
  1  2  1  0
  3  2  1  0
  3  4  2  0
  3  5  2  0
  3  6  1  0
  6  7  1  0
  6  8  1  0
  7  9  1  0
  8 10  1  0
  9 11  1  0
 10 11  1  0
 10 12  1  6
 12 13  2  0
 12 14  1  0
 13 15  1  0
 14 16  2  0
 14 17  1  0
 15 18  1  0
 15 19  2  0
 16 19  1  0
 17 20  1  0
 16 21  1  0
 20 21  1  0
 21 22  1  1
 22 23  1  0
 23 24  2  0
 23 25  1  0
 24 26  1  0
 25 27  2  0
 26 28  1  0
 26 29  2  0
 27 29  1  0
 27 30  1  0
M  END
