BOG-INS-0b2b845a-1-vinylsulfonamide
     RDKit          3D

 33 36  0  0  0  0  0  0  0  0999 V2000
    7.3750   -4.1720   19.4590 C   0  0  0  0  0  0  0  0  0  0  0  0
    6.0010   -4.2580   19.9880 C   0  0  0  0  0  0  0  0  0  0  0  0
    5.6630   -2.6440   20.4830 S   0  0  0  0  0  0  0  0  0  0  0  0
    4.2930   -2.6240   20.1000 O   0  0  0  0  0  0  0  0  0  0  0  0
    6.6310   -1.7560   19.9180 O   0  0  0  0  0  0  0  0  0  0  0  0
    5.8590   -2.6730   22.1650 N   0  0  0  0  0  0  0  0  0  0  0  0
    6.4750   -3.8700   22.8120 C   0  0  0  0  0  0  0  0  0  0  0  0
    6.2370   -1.4140   22.7640 C   0  0  0  0  0  0  0  0  0  0  0  0
    7.9330   -3.7100   23.3000 C   0  0  0  0  0  0  0  0  0  0  0  0
    7.6390   -1.2810   22.7660 C   0  0  0  0  0  0  0  0  0  0  0  0
    8.3660   -2.3260   23.5440 N   0  0  0  0  0  0  0  0  0  0  0  0
    9.0390   -1.9280   24.7500 C   0  0  0  0  0  0  0  0  0  0  0  0
   10.3610   -1.3080   24.5780 C   0  0  0  0  0  0  0  0  0  0  0  0
   11.4080   -2.1930   24.7310 C   0  0  0  0  0  0  0  0  0  0  0  0
   10.1290    0.0850   24.2610 C   0  0  0  0  0  0  0  0  0  0  0  0
   12.6210   -1.7980   24.6130 C   0  0  0  0  0  0  0  0  0  0  0  0
   11.7630    0.7560   23.9060 C   0  0  0  0  0  0  0  0  0  0  0  0
    9.8950    1.3210   23.9820 N   0  0  0  0  0  0  0  0  0  0  0  0
   12.6240   -0.5210   24.2590 C   0  0  0  0  0  0  0  0  0  0  0  0
   10.9340    1.9840   23.5670 C   0  0  0  0  0  0  0  0  0  0  0  0
    8.4960    1.9410   24.1060 C   0  0  0  0  0  0  0  0  0  0  0  0
    9.5580    2.7020   23.5250 C   0  0  0  0  0  0  0  0  0  0  0  0
    7.7610    0.8010   24.7600 N   0  0  0  0  0  0  0  0  0  0  0  0
    9.2950    4.1150   22.9680 C   0  0  0  0  0  0  0  0  0  0  0  0
    8.0670   -0.5600   24.7710 C   0  0  0  0  0  0  0  0  0  0  0  0
    7.5610    1.3480   26.0520 C   0  0  0  0  0  0  0  0  0  0  0  0
    8.3260    4.2270   22.2430 O   0  0  0  0  0  0  0  0  0  0  0  0
   10.1010    5.3100   23.2040 N   0  0  0  0  0  0  0  0  0  0  0  0
    7.8510   -1.2230   26.1720 C   0  0  0  0  0  0  0  0  0  0  0  0
    6.4390    0.6590   26.7840 C   0  0  0  0  0  0  0  0  0  0  0  0
   10.2160    6.3050   22.2510 C   0  0  0  0  0  0  0  0  0  0  0  0
    6.7370   -0.7660   27.0220 N   0  0  0  0  0  0  0  0  0  0  0  0
    5.5780   -1.6700   26.9850 C   0  0  0  0  0  0  0  0  0  0  0  0
  1  2  1  0
  3  2  1  0
  3  4  2  0
  3  5  2  0
  3  6  1  0
  6  7  1  0
  6  8  1  0
  7  9  1  0
  8 10  1  0
  9 11  1  0
 10 11  1  0
 11 12  1  0
 12 13  1  0
 13 14  2  0
 13 15  1  0
 14 16  1  0
 15 17  2  0
 15 18  1  0
 16 19  2  0
 17 19  1  0
 17 20  1  0
 18 21  2  0
 20 22  2  0
 21 22  1  0
 21 23  1  0
 22 24  1  0
 23 25  1  0
 23 26  1  0
 24 27  2  0
 24 28  1  0
 25 29  1  0
 26 30  1  0
 28 31  1  0
 29 32  1  0
 30 32  1  0
 32 33  1  0
M  END
