BOG-INS-29936cf2-1-vinylsulfonamide
     RDKit          3D

 34 39  0  0  0  0  0  0  0  0999 V2000
    7.8230   -3.3700   19.4540 C   0  0  0  0  0  0  0  0  0  0  0  0
    6.9730   -2.5400   18.5820 C   0  0  0  0  0  0  0  0  0  0  0  0
    5.4690   -2.3620   19.3540 S   0  0  0  0  0  0  0  0  0  0  0  0
    4.8090   -3.6770   19.4660 O   0  0  0  0  0  0  0  0  0  0  0  0
    4.8520   -1.1940   18.7740 O   0  0  0  0  0  0  0  0  0  0  0  0
    6.0660   -1.9370   20.8170 N   0  0  0  0  0  0  0  0  0  0  0  0
    7.3790   -1.3060   20.9440 C   0  0  0  0  0  0  0  0  0  0  0  0
    5.0580   -1.2390   21.5390 C   0  0  1  0  0  0  0  0  0  0  0  0
    7.3200    0.0750   20.7410 C   0  0  0  0  0  0  0  0  0  0  0  0
    5.3240    0.1270   22.1210 C   0  0  2  0  0  0  0  0  0  0  0  0
    4.3530   -0.0310   20.9920 C   0  0  0  0  0  0  0  0  0  0  0  0
    6.5500    0.8380   21.7580 N   0  0  0  0  0  0  0  0  0  0  0  0
    6.3250    2.1750   21.6960 C   0  0  0  0  0  0  0  0  0  0  0  0
    7.3730    2.9930   22.0810 C   0  0  0  0  0  0  0  0  0  0  0  0
    5.2890    2.7280   20.7290 C   0  0  0  0  0  0  0  0  0  0  0  0
    4.9540    2.6310   22.1800 C   0  0  0  0  0  0  0  0  0  0  0  0
    8.7020    2.4080   22.3950 C   0  0  0  0  0  0  0  0  0  0  0  0
    7.4850    4.3620   22.2630 N   0  0  0  0  0  0  0  0  0  0  0  0
    9.5250    3.4430   22.7460 C   0  0  0  0  0  0  0  0  0  0  0  0
    8.8130    4.6370   22.6750 C   0  0  0  0  0  0  0  0  0  0  0  0
    6.5340    5.3770   22.0990 C   0  0  0  0  0  0  0  0  0  0  0  0
   10.8320    3.2010   23.1010 C   0  0  0  0  0  0  0  0  0  0  0  0
    9.1530    6.0060   22.9250 C   0  0  0  0  0  0  0  0  0  0  0  0
    6.8720    6.6590   22.3360 C   0  0  0  0  0  0  0  0  0  0  0  0
   10.9930    2.2420   24.0840 C   0  0  0  0  0  0  0  0  0  0  0  0
    8.2250    6.9680   22.7620 C   0  0  0  0  0  0  0  0  0  0  0  0
   11.3020    0.9200   23.8080 C   0  0  0  0  0  0  0  0  0  0  0  0
   10.3370   -0.1410   24.1620 C   0  0  0  0  0  0  0  0  0  0  0  0
   12.5080    0.6060   23.2050 C   0  0  0  0  0  0  0  0  0  0  0  0
   10.6620   -1.4660   23.8760 C   0  0  0  0  0  0  0  0  0  0  0  0
   12.8320   -0.7010   22.9230 C   0  0  0  0  0  0  0  0  0  0  0  0
   13.4290    1.5370   22.8580 O   0  0  0  0  0  0  0  0  0  0  0  0
   11.9820   -1.7320   23.2260 C   0  0  0  0  0  0  0  0  0  0  0  0
   12.3600   -2.9600   22.9300 F   0  0  0  0  0  0  0  0  0  0  0  0
  1  2  1  0
  3  2  1  0
  3  4  2  0
  3  5  2  0
  3  6  1  0
  6  7  1  0
  6  8  1  0
  7  9  1  0
  8 10  1  0
  8 11  1  6
 10 11  1  6
  9 12  1  0
 10 12  1  0
 12 13  1  0
 13 14  1  0
 13 15  1  0
 13 16  1  0
 15 16  1  0
 14 17  2  0
 14 18  1  0
 17 19  1  0
 18 20  1  0
 19 20  2  0
 18 21  1  0
 19 22  1  0
 20 23  1  0
 21 24  2  0
 22 25  3  0
 23 26  2  0
 24 26  1  0
 25 27  1  0
 27 28  2  0
 27 29  1  0
 28 30  1  0
 29 31  2  0
 29 32  1  0
 30 33  2  0
 31 33  1  0
 33 34  1  0
M  END
