BOG-INS-16021dc0-1-acrylamide
     RDKit          3D

 34 37  0  0  0  0  0  0  0  0999 V2000
    7.1870   -2.8790   18.6620 C   0  0  0  0  0  0  0  0  0  0  0  0
    6.0240   -2.3920   19.5310 C   0  0  0  0  0  0  0  0  0  0  0  0
    5.6430   -3.4410   20.5470 C   0  0  0  0  0  0  0  0  0  0  0  0
    5.2390   -4.5460   20.1420 O   0  0  0  0  0  0  0  0  0  0  0  0
    5.8210   -3.1630   21.9100 N   0  0  0  0  0  0  0  0  0  0  0  0
    5.8910   -4.1870   22.8220 C   0  0  0  0  0  0  0  0  0  0  0  0
    6.7460   -2.0520   22.2780 C   0  0  0  0  0  0  0  0  0  0  0  0
    7.2620   -4.6380   23.3630 C   0  0  0  0  0  0  0  0  0  0  0  0
    8.1590   -2.5820   22.6540 C   0  0  2  0  0  0  0  0  0  0  0  0
    8.0600   -3.5150   23.7600 O   0  0  0  0  0  0  0  0  0  0  0  0
    9.2000   -1.6650   22.9540 C   0  0  0  0  0  0  0  0  0  0  0  0
   10.2990   -2.2320   23.6640 C   0  0  0  0  0  0  0  0  0  0  0  0
    9.1870   -0.2510   22.5730 C   0  0  0  0  0  0  0  0  0  0  0  0
   11.4310   -1.4980   24.0390 C   0  0  0  0  0  0  0  0  0  0  0  0
   10.2880    0.5500   22.9090 C   0  0  0  0  0  0  0  0  0  0  0  0
    8.1590    0.4410   21.8730 C   0  0  0  0  0  0  0  0  0  0  0  0
   11.4420   -0.0440   23.6460 C   0  0  0  0  0  0  0  0  0  0  0  0
    7.6680   -0.1150   20.6920 C   0  0  0  0  0  0  0  0  0  0  0  0
    7.6290    1.6890   22.3430 C   0  0  0  0  0  0  0  0  0  0  0  0
   12.5110    0.7330   23.9640 F   0  0  0  0  0  0  0  0  0  0  0  0
    8.1110   -1.2640   20.2120 F   0  0  0  0  0  0  0  0  0  0  0  0
    6.5750    0.6730   19.9570 C   0  0  0  0  0  0  0  0  0  0  0  0
    6.6280    2.3960   21.6520 C   0  0  0  0  0  0  0  0  0  0  0  0
    8.1410    2.3090   23.6300 C   0  0  0  0  0  0  0  0  0  0  0  0
    6.1200    1.8750   20.4690 C   0  0  0  0  0  0  0  0  0  0  0  0
    7.0760    3.0670   24.4650 C   0  0  2  0  0  0  0  0  0  0  0  0
    6.1910    3.6010   22.1940 N   0  0  0  0  0  0  0  0  0  0  0  0
    6.5300    2.2300   25.6280 C   0  0  0  0  0  0  0  0  0  0  0  0
    5.9030    3.5800   23.6240 C   0  0  0  0  0  0  0  0  0  0  0  0
    5.4480    4.5600   21.3730 C   0  0  0  0  0  0  0  0  0  0  0  0
    5.9690    2.7900   26.5780 O   0  0  0  0  0  0  0  0  0  0  0  0
    6.6640    0.6890   25.6190 C   0  0  1  0  0  0  0  0  0  0  0  0
    8.0770    0.2110   25.9880 C   0  0  0  0  0  0  0  0  0  0  0  0
    5.6930    0.1400   26.5840 N   0  0  0  0  0  0  0  0  0  0  0  0
  1  2  1  0
  2  3  1  0
  3  4  2  0
  3  5  1  0
  5  6  1  0
  5  7  1  0
  6  8  1  0
  7  9  1  0
  8 10  1  0
  9 10  1  0
  9 11  1  1
 11 12  2  0
 11 13  1  0
 12 14  1  0
 13 15  2  0
 13 16  1  0
 14 17  2  0
 15 17  1  0
 16 18  2  0
 16 19  1  0
 17 20  1  0
 18 21  1  0
 18 22  1  0
 19 23  2  0
 19 24  1  0
 22 25  2  0
 23 25  1  0
 24 26  1  0
 23 27  1  0
 26 28  1  1
 26 29  1  0
 27 29  1  0
 27 30  1  0
 28 31  2  0
 28 32  1  0
 32 33  1  1
 32 34  1  0
M  END
