BOG-INS-16021dc0-1-chloroacetamide
     RDKit          3D

 33 36  0  0  0  0  0  0  0  0999 V2000
    7.1240   -2.9980   18.9410 C   0  0  0  0  0  0  0  0  0  0  0  0
    6.2130   -3.4990   20.0190 C   0  0  0  0  0  0  0  0  0  0  0  0
    5.3430   -4.3440   19.8330 O   0  0  0  0  0  0  0  0  0  0  0  0
    6.3880   -2.9700   21.3030 N   0  0  0  0  0  0  0  0  0  0  0  0
    6.0170   -3.7980   22.4580 C   0  0  0  0  0  0  0  0  0  0  0  0
    7.4140   -1.9460   21.7260 C   0  0  0  0  0  0  0  0  0  0  0  0
    7.2240   -4.4400   23.1870 C   0  0  0  0  0  0  0  0  0  0  0  0
    8.5490   -2.5950   22.5500 C   0  0  2  0  0  0  0  0  0  0  0  0
    8.1300   -3.4270   23.6350 O   0  0  0  0  0  0  0  0  0  0  0  0
    9.6230   -1.5900   22.9540 C   0  0  0  0  0  0  0  0  0  0  0  0
   10.9020   -1.7370   22.1300 C   0  0  0  0  0  0  0  0  0  0  0  0
    9.4830   -0.5890   23.9980 C   0  0  0  0  0  0  0  0  0  0  0  0
   12.0300   -0.8050   22.4180 C   0  0  0  0  0  0  0  0  0  0  0  0
   10.5770    0.2760   24.2340 C   0  0  0  0  0  0  0  0  0  0  0  0
    8.3480   -0.4100   24.7950 C   0  0  0  0  0  0  0  0  0  0  0  0
   11.9120    0.2450   23.4760 C   0  0  0  0  0  0  0  0  0  0  0  0
    7.9480   -1.4620   25.6290 C   0  0  0  0  0  0  0  0  0  0  0  0
    7.5690    0.8050   24.8090 C   0  0  0  0  0  0  0  0  0  0  0  0
   12.8900    1.0760   23.7250 F   0  0  0  0  0  0  0  0  0  0  0  0
    8.6290   -2.6170   25.6600 F   0  0  0  0  0  0  0  0  0  0  0  0
    6.7200   -1.3110   26.5240 C   0  0  0  0  0  0  0  0  0  0  0  0
    6.4240    0.9370   25.6470 C   0  0  0  0  0  0  0  0  0  0  0  0
    7.9520    1.9950   23.9210 C   0  0  0  0  0  0  0  0  0  0  0  0
    6.0280   -0.1130   26.4790 C   0  0  0  0  0  0  0  0  0  0  0  0
    6.7110    2.8710   23.6030 C   0  0  2  0  0  0  0  0  0  0  0  0
    5.6390    2.1130   25.6890 N   0  0  0  0  0  0  0  0  0  0  0  0
    6.7740    4.0240   22.7730 C   0  0  0  0  0  0  0  0  0  0  0  0
    6.1450    3.2790   24.9470 C   0  0  0  0  0  0  0  0  0  0  0  0
    5.1010    2.4060   27.0220 C   0  0  0  0  0  0  0  0  0  0  0  0
    5.7590    4.3500   22.1540 O   0  0  0  0  0  0  0  0  0  0  0  0
    7.9270    4.8160   22.6310 C   0  0  1  0  0  0  0  0  0  0  0  0
    7.8020    6.0620   22.0050 C   0  0  0  0  0  0  0  0  0  0  0  0
    8.5240    5.0420   23.9580 N   0  0  0  0  0  0  0  0  0  0  0  0
  1  2  1  0
  2  3  2  0
  2  4  1  0
  4  5  1  0
  4  6  1  0
  5  7  1  0
  6  8  1  0
  7  9  1  0
  8  9  1  0
  8 10  1  1
 10 11  2  0
 10 12  1  0
 11 13  1  0
 12 14  2  0
 12 15  1  0
 13 16  2  0
 14 16  1  0
 15 17  2  0
 15 18  1  0
 16 19  1  0
 17 20  1  0
 17 21  1  0
 18 22  2  0
 18 23  1  0
 21 24  2  0
 22 24  1  0
 23 25  1  0
 22 26  1  0
 25 27  1  6
 25 28  1  0
 26 28  1  0
 26 29  1  0
 27 30  2  0
 27 31  1  0
 31 32  1  1
 31 33  1  0
M  END
