BOG-INS-d6bb07dc-1-nitrile
     RDKit          3D

 27 30  0  0  0  0  0  0  0  0999 V2000
    6.7940   -4.4000   20.4490 C   0  0  0  0  0  0  0  0  0  0  0  0
    5.7050   -4.9560   20.0590 N   0  0  0  0  0  0  0  0  0  0  0  0
    7.1470   -4.1970   21.7680 N   0  0  0  0  0  0  0  0  0  0  0  0
    6.9150   -5.2240   22.7760 C   0  0  0  0  0  0  0  0  0  0  0  0
    7.6180   -2.9000   22.3010 C   0  0  0  0  0  0  0  0  0  0  0  0
    7.3540   -4.7380   24.1680 C   0  0  0  0  0  0  0  0  0  0  0  0
    8.4460   -3.1040   23.5970 C   0  0  2  0  0  0  0  0  0  0  0  0
    7.7320   -3.5990   24.4650 O   0  0  0  0  0  0  0  0  0  0  0  0
    9.3220   -1.8290   23.7570 C   0  0  0  0  0  0  0  0  0  0  0  0
    8.9380   -0.7140   24.6770 C   0  0  0  0  0  0  0  0  0  0  0  0
   10.4910   -1.6730   23.0360 C   0  0  0  0  0  0  0  0  0  0  0  0
    9.8020    0.3910   24.7270 C   0  0  0  0  0  0  0  0  0  0  0  0
   11.3200   -0.5930   23.0550 C   0  0  0  0  0  0  0  0  0  0  0  0
   11.0670   -2.6040   22.1550 C   0  0  0  0  0  0  0  0  0  0  0  0
    9.4820    1.3950   25.5270 F   0  0  0  0  0  0  0  0  0  0  0  0
   10.9660    0.4290   23.9300 C   0  0  0  0  0  0  0  0  0  0  0  0
   12.4260   -2.3210   22.1720 C   0  0  0  0  0  0  0  0  0  0  0  0
   12.3960   -0.9670   21.9660 C   0  0  2  0  0  0  0  0  0  0  0  0
   13.7340   -0.4240   21.7420 C   0  0  0  0  0  0  0  0  0  0  0  0
   14.3200    0.5120   20.3240 C   0  0  0  0  0  0  0  0  0  0  0  0
   14.9850    1.7130   20.4810 C   0  0  0  0  0  0  0  0  0  0  0  0
   14.1820    0.2530   18.9570 C   0  0  0  0  0  0  0  0  0  0  0  0
   15.4900    2.7630   19.5500 C   0  0  0  0  0  0  0  0  0  0  0  0
   14.4980    1.2550   17.9690 C   0  0  0  0  0  0  0  0  0  0  0  0
   16.0520    3.7390   19.8710 O   0  0  0  0  0  0  0  0  0  0  0  0
   15.1890    2.5090   18.2110 C   0  0  0  0  0  0  0  0  0  0  0  0
   13.9970    0.8720   16.8620 F   0  0  0  0  0  0  0  0  0  0  0  0
  1  2  2  3
  1  3  1  0
  3  4  1  0
  3  5  1  0
  4  6  1  0
  5  7  1  0
  6  8  1  0
  7  8  1  0
  7  9  1  1
  9 10  2  0
  9 11  1  0
 10 12  1  0
 11 13  2  0
 11 14  1  0
 12 15  1  0
 12 16  2  0
 13 16  1  0
 14 17  1  0
 13 18  1  0
 17 18  1  0
 18 19  1  1
 19 20  1  0
 20 21  2  0
 20 22  1  0
 21 23  1  0
 22 24  2  0
 23 25  1  0
 23 26  2  0
 24 26  1  0
 24 27  1  0
M  END
