BOG-INS-bdba9cfb-1-bromoalkyne
     RDKit          3D

 29 32  0  0  0  0  0  0  0  0999 V2000
    6.9420   -3.4280   19.6780 C   0  0  0  0  0  0  0  0  0  0  0  0
    6.3360   -2.8720   18.6380 C   0  0  0  0  0  0  0  0  0  0  0  0
    6.7050   -2.8160   20.8870 N   0  0  0  0  0  0  0  0  0  0  0  0
    6.2140   -3.4590   22.1260 C   0  0  0  0  0  0  0  0  0  0  0  0
    7.4210   -1.5650   21.1240 C   0  0  0  0  0  0  0  0  0  0  0  0
    7.3720   -3.7060   23.1090 C   0  0  0  0  0  0  0  0  0  0  0  0
    8.5860   -1.8380   22.0820 C   0  0  0  0  0  0  0  0  0  0  0  0
    8.1350   -2.4700   23.3270 N   0  0  0  0  0  0  0  0  0  0  0  0
    9.1170   -2.6030   24.3900 C   0  0  0  0  0  0  0  0  0  0  0  0
   10.5220   -2.1340   24.1000 C   0  0  0  0  0  0  0  0  0  0  0  0
   11.5620   -3.0550   24.0690 C   0  0  0  0  0  0  0  0  0  0  0  0
   10.7690   -0.8160   23.8820 C   0  0  0  0  0  0  0  0  0  0  0  0
   12.8610   -2.6500   23.7970 C   0  0  0  0  0  0  0  0  0  0  0  0
   12.0740   -0.4070   23.6100 C   0  0  0  0  0  0  0  0  0  0  0  0
    9.7480    0.0440   23.9430 N   0  0  0  0  0  0  0  0  0  0  0  0
   13.1000   -1.3240   23.5640 C   0  0  0  0  0  0  0  0  0  0  0  0
   12.3020    0.9350   23.3980 C   0  0  0  0  0  0  0  0  0  0  0  0
    9.9400    1.3470   23.7470 C   0  0  0  0  0  0  0  0  0  0  0  0
   11.2230    1.8150   23.4730 C   0  0  0  0  0  0  0  0  0  0  0  0
    8.7670    2.0930   23.8460 N   0  0  0  0  0  0  0  0  0  0  0  0
   11.5240    3.2260   23.2510 C   0  0  0  0  0  0  0  0  0  0  0  0
    8.7450    3.3820   23.1340 C   0  0  0  0  0  0  0  0  0  0  0  0
    7.7700    1.9150   24.9080 C   0  0  0  0  0  0  0  0  0  0  0  0
   10.9710    4.1010   23.8880 O   0  0  0  0  0  0  0  0  0  0  0  0
   12.4730    3.4550   22.2860 N   0  0  0  0  0  0  0  0  0  0  0  0
    7.2970    3.7230   22.7500 C   0  0  0  0  0  0  0  0  0  0  0  0
    6.9240    3.1870   25.0810 C   0  0  0  0  0  0  0  0  0  0  0  0
   13.0790    4.7510   22.1080 C   0  0  0  0  0  0  0  0  0  0  0  0
    6.3640    3.6840   23.8490 O   0  0  0  0  0  0  0  0  0  0  0  0
  1  2  2  3
  1  3  1  0
  3  4  1  0
  3  5  1  0
  4  6  1  0
  5  7  1  0
  6  8  1  0
  7  8  1  0
  8  9  1  0
  9 10  1  0
 10 11  2  0
 10 12  1  0
 11 13  1  0
 12 14  2  0
 12 15  1  0
 13 16  2  0
 14 16  1  0
 14 17  1  0
 15 18  2  0
 17 19  2  0
 18 19  1  0
 18 20  1  0
 19 21  1  0
 20 22  1  0
 20 23  1  0
 21 24  2  0
 21 25  1  0
 22 26  1  0
 23 27  1  0
 25 28  1  0
 26 29  1  0
 27 29  1  0
M  END
