BRU-LEF-ae0885ba-1-bromoalkyne
     RDKit          3D

 20 21  0  0  0  0  0  0  0  0999 V2000
    6.6510   -3.8560   19.9160 C   0  0  0  0  0  0  0  0  0  0  0  0
    5.7840   -5.0970   20.0740 C   0  0  0  0  0  0  0  0  0  0  0  0
    6.5480   -2.8490   20.8920 N   0  0  0  0  0  0  0  0  0  0  0  0
    6.2990   -3.2280   22.2340 C   0  0  0  0  0  0  0  0  0  0  0  0
    7.3300   -1.5740   20.9350 C   0  0  0  0  0  0  0  0  0  0  0  0
    7.3670   -3.3240   23.1090 C   0  0  0  0  0  0  0  0  0  0  0  0
    8.5480   -1.7130   21.8870 C   0  0  0  0  0  0  0  0  0  0  0  0
    8.1590   -2.2350   23.2280 N   0  0  0  0  0  0  0  0  0  0  0  0
    9.2020   -2.3330   24.0590 C   0  0  0  0  0  0  0  0  0  0  0  0
   10.3790   -1.6010   23.8840 C   0  0  0  0  0  0  0  0  0  0  0  0
   11.1970   -1.8700   22.7950 C   0  0  0  0  0  0  0  0  0  0  0  0
   10.7960   -0.5860   24.7670 C   0  0  0  0  0  0  0  0  0  0  0  0
   12.3510   -1.1530   22.6140 C   0  0  0  0  0  0  0  0  0  0  0  0
   11.9340    0.1040   24.5570 N   0  0  0  0  0  0  0  0  0  0  0  0
   10.0650   -0.2440   25.9080 N   0  0  0  0  0  0  0  0  0  0  0  0
   13.1550   -1.4330   21.5240 C   0  0  0  0  0  0  0  0  0  0  0  0
   12.6880   -0.1780   23.4980 C   0  0  0  0  0  0  0  0  0  0  0  0
    8.6230   -0.0810   25.9060 C   0  0  0  0  0  0  0  0  0  0  0  0
   13.7770   -1.6120   20.6080 N   0  0  0  0  0  0  0  0  0  0  0  0
    8.1350    0.1000   27.3320 C   0  0  0  0  0  0  0  0  0  0  0  0
  1  2  2  3
  1  3  1  0
  3  4  1  0
  3  5  1  0
  4  6  1  0
  5  7  1  0
  6  8  1  0
  7  8  1  0
  8  9  1  0
  9 10  1  0
 10 11  2  0
 10 12  1  0
 11 13  1  0
 12 14  2  0
 12 15  1  0
 13 16  1  0
 13 17  2  0
 14 17  1  0
 15 18  1  0
 16 19  3  0
 18 20  1  0
M  END
