BRU-CON-67e07230-1
     RDKit          3D

 20 22  0  0  0  0  0  0  0  0999 V2000
    9.4980    1.3600   24.1400 C   0  0  0  0  0  0  0  0  0  0  0  0
    9.3640    0.0910   23.2880 C   0  0  1  0  0  0  0  0  0  0  0  0
    8.8070    0.4570   21.8810 C   0  0  0  0  0  0  0  0  0  0  0  0
   10.6780   -0.6810   23.2680 C   0  0  0  0  0  0  0  0  0  0  0  0
    9.1400    1.5000   21.3000 O   0  0  0  0  0  0  0  0  0  0  0  0
    7.9210   -0.5130   21.3890 N   0  0  0  0  0  0  0  0  0  0  0  0
   11.2170   -1.1230   22.0720 C   0  0  0  0  0  0  0  0  0  0  0  0
   11.4250   -1.0080   24.4330 C   0  0  0  0  0  0  0  0  0  0  0  0
    7.0980    0.1350   20.3540 C   0  0  0  0  0  0  0  0  0  0  0  0
   12.3950   -1.8160   21.9710 C   0  0  0  0  0  0  0  0  0  0  0  0
   12.6340   -1.7410   24.2890 C   0  0  0  0  0  0  0  0  0  0  0  0
    6.7090   -0.6700   19.1690 N   0  0  0  0  0  0  0  0  0  0  0  0
    6.5540    1.3220   20.1550 N   0  0  0  0  0  0  0  0  0  0  0  0
   13.1220   -2.1340   23.0730 C   0  0  0  0  0  0  0  0  0  0  0  0
   13.6090   -2.2390   25.5830 Cl  0  0  0  0  0  0  0  0  0  0  0  0
    5.9460    0.1700   18.3470 N   0  0  0  0  0  0  0  0  0  0  0  0
    5.8710    1.4010   18.9910 C   0  0  0  0  0  0  0  0  0  0  0  0
    6.6020    2.3760   20.9430 C   0  0  0  0  0  0  0  0  0  0  0  0
    5.5710    3.1760   21.1360 C   0  0  0  0  0  0  0  0  0  0  0  0
    5.7060    2.4420   22.3670 C   0  0  0  0  0  0  0  0  0  0  0  0
  2  1  1  1
  2  3  1  0
  2  4  1  0
  3  5  2  0
  3  6  1  0
  4  7  2  0
  4  8  1  0
  6  9  1  0
  7 10  1  0
  8 11  2  0
  9 12  2  0
  9 13  1  0
 10 14  2  0
 11 14  1  0
 11 15  1  0
 12 16  1  0
 13 17  1  0
 16 17  2  0
 13 18  1  0
 18 19  1  0
 18 20  1  0
 19 20  1  0
M  END
