CAR-INS-33b3c115-2
     RDKit          3D

 28 31  0  0  0  0  0  0  0  0999 V2000
    8.3940   -1.3540   21.7610 O   0  0  0  0  0  0  0  0  0  0  0  0
    8.0630   -0.2660   21.3210 C   0  0  0  0  0  0  0  0  0  0  0  0
    8.5590    0.9280   21.8760 C   0  0  0  0  0  0  0  0  0  0  0  0
    7.1380   -0.0300   20.2290 C   0  0  0  0  0  0  0  0  0  0  0  0
    8.9190    1.8690   21.1720 O   0  0  0  0  0  0  0  0  0  0  0  0
    8.5660    0.9570   23.3160 N   0  0  0  0  0  0  0  0  0  0  0  0
    7.2430   -0.4560   18.8620 C   0  0  0  0  0  0  0  0  0  0  0  0
    5.9100    0.6940   20.2400 C   0  0  0  0  0  0  0  0  0  0  0  0
    8.4910   -0.2740   24.0410 C   0  0  0  0  0  0  0  0  0  0  0  0
    9.4450    1.9170   23.9320 C   0  0  0  0  0  0  0  0  0  0  0  0
    6.1330    0.0130   18.0920 N   0  0  0  0  0  0  0  0  0  0  0  0
    5.3850    0.6820   18.9820 C   0  0  0  0  0  0  0  0  0  0  0  0
    4.9660    1.4950   21.1910 C   0  0  0  0  0  0  0  0  0  0  0  0
    9.9100   -0.8060   24.0630 C   0  0  0  0  0  0  0  0  0  0  0  0
   10.7270    1.3930   23.8600 C   0  0  0  0  0  0  0  0  0  0  0  0
    4.1140    1.4380   18.9910 C   0  0  0  0  0  0  0  0  0  0  0  0
    3.6370    2.1400   20.6420 C   0  0  0  0  0  0  0  0  0  0  0  0
   10.7730    0.2650   24.5900 N   0  0  0  0  0  0  0  0  0  0  0  0
    3.3080    2.0500   19.5130 N   0  0  0  0  0  0  0  0  0  0  0  0
   12.0020   -0.2190   25.0770 C   0  0  0  0  0  0  0  0  0  0  0  0
   12.7150   -0.0780   26.0140 O   0  0  0  0  0  0  0  0  0  0  0  0
   12.5210   -1.1470   24.3100 C   0  0  0  0  0  0  0  0  0  0  0  0
   13.1380   -2.1850   25.0880 C   0  0  0  0  0  0  0  0  0  0  0  0
   12.4340   -1.0670   22.9890 C   0  0  0  0  0  0  0  0  0  0  0  0
   13.6550   -3.1480   24.3070 C   0  0  0  0  0  0  0  0  0  0  0  0
   12.9860   -2.0690   22.3600 C   0  0  0  0  0  0  0  0  0  0  0  0
   13.5840   -3.0770   22.9510 C   0  0  0  0  0  0  0  0  0  0  0  0
   12.9450   -2.1160   20.7650 Cl  0  0  0  0  0  0  0  0  0  0  0  0
  1  2  2  0
  2  3  1  0
  2  4  1  0
  3  5  2  0
  3  6  1  0
  4  7  2  0
  4  8  1  0
  6  9  1  0
  6 10  1  0
  7 11  1  0
  8 12  2  0
 11 12  1  0
  8 13  1  0
  9 14  1  0
 10 15  1  0
 12 16  1  0
 13 17  2  0
 14 18  1  0
 15 18  1  0
 16 19  2  0
 17 19  1  0
 18 20  1  0
 20 21  2  0
 20 22  1  0
 22 23  2  0
 22 24  1  0
 23 25  1  0
 24 26  2  0
 25 27  2  0
 26 27  1  0
 26 28  1  0
M  END
