CAS-DEP-e179b1f5-2
     RDKit          3D

 24 26  0  0  0  0  0  0  0  0999 V2000
   11.9140   -3.9540   25.9880 O   0  0  0  0  0  0  0  0  0  0  0  0
   11.3520   -3.3070   25.1260 C   0  0  0  0  0  0  0  0  0  0  0  0
    9.9940   -3.2290   24.9640 N   0  0  0  0  0  0  0  0  0  0  0  0
   12.0670   -2.5840   24.2220 N   0  0  0  0  0  0  0  0  0  0  0  0
    8.9920   -4.0250   25.5620 C   0  0  0  0  0  0  0  0  0  0  0  0
   11.9070   -1.1690   23.8560 C   0  0  0  0  0  0  0  0  0  0  0  0
    7.6310   -4.3680   24.9150 C   0  0  0  0  0  0  0  0  0  0  0  0
    9.1620   -4.5930   26.8630 C   0  0  0  0  0  0  0  0  0  0  0  0
   10.6730   -0.5520   24.0410 C   0  0  0  0  0  0  0  0  0  0  0  0
   12.9460   -0.4570   23.3440 C   0  0  0  0  0  0  0  0  0  0  0  0
    6.9500   -5.2020   25.9810 C   0  0  0  0  0  0  0  0  0  0  0  0
    7.8790   -5.3240   27.1680 C   0  0  0  0  0  0  0  0  0  0  0  0
   10.5550    0.7840   23.6870 C   0  0  0  0  0  0  0  0  0  0  0  0
   12.7870    0.9890   22.9630 C   0  0  0  0  0  0  0  0  0  0  0  0
    7.5910   -5.9790   28.2990 F   0  0  0  0  0  0  0  0  0  0  0  0
   11.5610    1.5470   23.1530 C   0  0  0  0  0  0  0  0  0  0  0  0
   11.2260    2.9240   22.7960 C   0  0  0  0  0  0  0  0  0  0  0  0
   10.3480    4.0380   22.4270 N   0  0  0  0  0  0  0  0  0  0  0  0
   11.2610    5.0580   22.5610 C   0  0  0  0  0  0  0  0  0  0  0  0
   10.8770    6.2860   23.3310 C   0  0  0  0  0  0  0  0  0  0  0  0
   12.4790    4.8220   21.9600 C   0  0  0  0  0  0  0  0  0  0  0  0
   11.9740    7.2880   23.4450 C   0  0  0  0  0  0  0  0  0  0  0  0
   13.4430    5.7640   22.0690 C   0  0  0  0  0  0  0  0  0  0  0  0
   13.2850    6.9560   22.7550 C   0  0  0  0  0  0  0  0  0  0  0  0
  1  2  2  0
  2  3  1  0
  2  4  1  0
  3  5  1  0
  4  6  1  0
  5  7  2  0
  5  8  1  0
  6  9  2  0
  6 10  1  0
  7 11  1  0
  8 12  1  0
 11 12  2  0
  9 13  1  0
 10 14  2  0
 12 15  1  0
 13 16  2  0
 14 16  1  0
 16 17  1  0
 17 18  1  0
 18 19  1  0
 19 20  2  0
 19 21  1  0
 20 22  1  0
 21 23  2  0
 22 24  2  0
 23 24  1  0
M  END
