CAS-DEP-167c18e3-2
     RDKit          3D

 22 24  0  0  0  0  0  0  0  0999 V2000
   12.6120   -1.9010   21.7410 C   0  0  0  0  0  0  0  0  0  0  0  0
   11.6950   -1.0190   22.5420 C   0  0  0  0  0  0  0  0  0  0  0  0
   10.3940   -1.4260   23.1930 C   0  0  0  0  0  0  0  0  0  0  0  0
   12.1070    0.4310   22.7180 C   0  0  0  0  0  0  0  0  0  0  0  0
    9.6360   -0.3850   23.9590 C   0  0  0  0  0  0  0  0  0  0  0  0
   11.3470    1.2730   23.3980 C   0  0  0  0  0  0  0  0  0  0  0  0
    8.4340   -0.6350   24.6200 N   0  0  0  0  0  0  0  0  0  0  0  0
   10.2210    0.8880   23.9690 C   0  0  0  0  0  0  0  0  0  0  0  0
   11.6650    2.5450   23.5420 C   0  0  0  0  0  0  0  0  0  0  0  0
    8.2760   -1.5140   25.7880 C   0  0  0  0  0  0  0  0  0  0  0  0
   10.8830    3.3810   23.9720 O   0  0  0  0  0  0  0  0  0  0  0  0
   12.8840    2.7100   23.1350 N   0  0  0  0  0  0  0  0  0  0  0  0
    8.5340   -0.8410   26.9910 C   0  0  0  0  0  0  0  0  0  0  0  0
    6.7820   -1.9570   25.8370 C   0  0  0  0  0  0  0  0  0  0  0  0
   13.1720    3.7210   22.4370 C   0  0  0  0  0  0  0  0  0  0  0  0
    7.3570   -0.5490   27.6410 C   0  0  0  0  0  0  0  0  0  0  0  0
    6.2310   -1.1710   26.8720 C   0  0  0  0  0  0  0  0  0  0  0  0
   12.1640    4.6300   22.4560 C   0  0  0  0  0  0  0  0  0  0  0  0
   14.2900    3.9840   21.7160 C   0  0  0  0  0  0  0  0  0  0  0  0
   12.2430    5.7690   21.7850 C   0  0  0  0  0  0  0  0  0  0  0  0
   14.3970    5.1250   20.9940 C   0  0  0  0  0  0  0  0  0  0  0  0
   13.3550    6.0360   21.0430 C   0  0  0  0  0  0  0  0  0  0  0  0
  1  2  1  0
  2  3  2  0
  2  4  1  0
  3  5  1  0
  4  6  2  0
  5  7  1  0
  5  8  2  0
  6  8  1  0
  6  9  1  0
  7 10  1  0
  9 11  2  0
  9 12  1  0
 10 13  1  0
 10 14  1  0
 12 15  1  0
 13 16  1  0
 14 17  1  0
 16 17  1  0
 15 18  2  0
 15 19  1  0
 18 20  1  0
 19 21  2  0
 20 22  2  0
 21 22  1  0
M  END
