CAS-DEP-751a2458-4
     RDKit          3D

 16 17  0  0  0  0  0  0  0  0999 V2000
   13.9320    3.4970   22.4560 O   0  0  0  0  0  0  0  0  0  0  0  0
   12.8680    3.7060   22.9500 C   0  0  0  0  0  0  0  0  0  0  0  0
   11.7500    2.9360   22.8850 N   0  0  0  0  0  0  0  0  0  0  0  0
   12.6410    4.8560   23.6650 N   0  0  0  0  0  0  0  0  0  0  0  0
   11.8810    1.5800   22.9410 C   0  0  0  0  0  0  0  0  0  0  0  0
   11.4350    5.6180   23.3720 C   0  0  0  0  0  0  0  0  0  0  0  0
   10.4850    1.0500   23.2320 C   0  0  0  0  0  0  0  0  0  0  0  0
   13.0150    0.7980   22.7830 C   0  0  0  0  0  0  0  0  0  0  0  0
   10.2940    5.8330   24.2910 C   0  0  0  0  0  0  0  0  0  0  0  0
   11.1760    6.2410   22.2020 C   0  0  0  0  0  0  0  0  0  0  0  0
   10.3940   -0.4470   23.3830 C   0  0  0  0  0  0  0  0  0  0  0  0
   13.0070   -0.7310   22.8930 C   0  0  0  0  0  0  0  0  0  0  0  0
    9.3950    6.5960   23.5670 C   0  0  0  0  0  0  0  0  0  0  0  0
    9.8270    6.8770   22.3510 N   0  0  0  0  0  0  0  0  0  0  0  0
   11.6200   -1.3010   23.2310 C   0  0  0  0  0  0  0  0  0  0  0  0
   11.2100   -2.9620   23.5080 Cl  0  0  0  0  0  0  0  0  0  0  0  0
  1  2  2  0
  2  3  1  0
  2  4  1  0
  3  5  1  0
  4  6  1  0
  5  7  2  0
  5  8  1  0
  6  9  1  0
  6 10  2  0
  7 11  1  0
  8 12  2  0
  9 13  2  0
 10 14  1  0
 13 14  1  0
 11 15  2  0
 12 15  1  0
 15 16  1  0
M  END
