CAS-DEP-167c18e3-3
     RDKit          3D

 19 21  0  0  0  0  0  0  0  0999 V2000
    4.9770    6.6620   27.2950 C   0  0  0  0  0  0  0  0  0  0  0  0
    6.4470    6.6330   26.9530 C   0  0  0  0  0  0  0  0  0  0  0  0
    7.4730    7.4060   27.7810 C   0  0  0  0  0  0  0  0  0  0  0  0
    6.9270    5.8830   25.8530 C   0  0  0  0  0  0  0  0  0  0  0  0
    8.8910    7.2920   27.3450 C   0  0  0  0  0  0  0  0  0  0  0  0
    8.3010    5.8220   25.4970 C   0  0  0  0  0  0  0  0  0  0  0  0
    9.2730    6.5240   26.2410 C   0  0  0  0  0  0  0  0  0  0  0  0
    8.6920    5.0500   24.3950 C   0  0  0  0  0  0  0  0  0  0  0  0
    9.6270    3.9410   24.8270 C   0  0  0  0  0  0  0  0  0  0  0  0
   10.0610    2.7270   24.2150 C   0  0  0  0  0  0  0  0  0  0  0  0
   11.2270    2.5480   23.7140 N   0  0  0  0  0  0  0  0  0  0  0  0
    9.2700    1.5890   24.1130 N   0  0  0  0  0  0  0  0  0  0  0  0
   11.3070    1.2720   23.2700 C   0  0  0  0  0  0  0  0  0  0  0  0
   10.1470    0.5680   23.4560 C   0  0  0  0  0  0  0  0  0  0  0  0
   12.4960    0.6700   22.6560 C   0  0  0  0  0  0  0  0  0  0  0  0
   10.0570   -0.7770   23.0480 C   0  0  0  0  0  0  0  0  0  0  0  0
   12.3800   -0.6300   22.2580 C   0  0  0  0  0  0  0  0  0  0  0  0
   11.1610   -1.3750   22.4490 C   0  0  0  0  0  0  0  0  0  0  0  0
   13.5070   -1.5710   21.4970 Cl  0  0  0  0  0  0  0  0  0  0  0  0
  1  2  1  0
  2  3  2  0
  2  4  1  0
  3  5  1  0
  4  6  2  0
  5  7  2  0
  6  7  1  0
  6  8  1  0
  8  9  1  0
  9 10  1  0
 10 11  2  0
 10 12  1  0
 11 13  1  0
 12 14  1  0
 13 14  2  0
 13 15  1  0
 14 16  1  0
 15 17  2  0
 16 18  2  0
 17 18  1  0
 17 19  1  0
M  END
