CAS-DEP-751a2458-6
     RDKit          3D

 18 19  0  0  0  0  0  0  0  0999 V2000
    8.1240    4.1630   27.7290 C   0  0  0  0  0  0  0  0  0  0  0  0
    9.2520    4.9610   27.1170 C   0  0  0  0  0  0  0  0  0  0  0  0
    9.8920    5.8730   27.9100 N   0  0  0  0  0  0  0  0  0  0  0  0
    9.6470    4.7850   25.8000 C   0  0  0  0  0  0  0  0  0  0  0  0
   11.0030    6.7080   27.4720 C   0  0  0  0  0  0  0  0  0  0  0  0
   10.7820    5.5370   25.0900 C   0  0  0  0  0  0  0  0  0  0  0  0
    9.0830    3.8390   24.7810 N   0  0  0  0  0  0  0  0  0  0  0  0
   11.4970    6.5620   26.0010 C   0  0  0  0  0  0  0  0  0  0  0  0
   10.0110    3.0190   24.0070 C   0  0  0  0  0  0  0  0  0  0  0  0
   11.3600    3.4810   23.7620 O   0  0  0  0  0  0  0  0  0  0  0  0
    9.5270    1.6880   23.5060 N   0  0  0  0  0  0  0  0  0  0  0  0
   10.5320    0.7180   23.1630 C   0  0  0  0  0  0  0  0  0  0  0  0
   12.0070    1.0950   22.9560 C   0  0  0  0  0  0  0  0  0  0  0  0
   10.2820   -0.6560   22.9810 C   0  0  0  0  0  0  0  0  0  0  0  0
   12.9760    0.1530   22.6180 C   0  0  0  0  0  0  0  0  0  0  0  0
   11.2970   -1.5430   22.6410 C   0  0  0  0  0  0  0  0  0  0  0  0
   12.6220   -1.1860   22.4510 C   0  0  0  0  0  0  0  0  0  0  0  0
   13.5120   -2.1030   22.1200 F   0  0  0  0  0  0  0  0  0  0  0  0
  1  2  1  0
  2  3  2  0
  2  4  1  0
  3  5  1  0
  4  6  2  0
  4  7  1  0
  5  8  2  0
  6  8  1  0
  7  9  1  0
  9 10  2  0
  9 11  1  0
 11 12  1  0
 12 13  2  0
 12 14  1  0
 13 15  1  0
 14 16  2  0
 15 17  2  0
 16 17  1  0
 17 18  1  0
M  END
