CHA-KIN-f512e507-1
     RDKit          3D

 25 26  0  0  0  0  0  0  0  0999 V2000
    8.1570    0.1060   26.1300 C   0  0  0  0  0  0  0  0  0  0  0  0
    6.8320   -0.4880   26.3880 C   0  0  0  0  0  0  0  0  0  0  0  0
    6.8630   -1.3350   27.6700 C   0  0  0  0  0  0  0  0  0  0  0  0
    5.6550   -0.3440   25.6140 C   0  0  0  0  0  0  0  0  0  0  0  0
    5.6060   -2.0660   28.1520 C   0  0  0  0  0  0  0  0  0  0  0  0
    4.4300   -1.0680   26.1020 C   0  0  0  0  0  0  0  0  0  0  0  0
    5.6430    0.4350   24.4620 N   0  0  0  0  0  0  0  0  0  0  0  0
    4.4200   -1.8880   27.3150 N   0  0  0  0  0  0  0  0  0  0  0  0
    5.8480   -0.2280   23.1630 C   0  0  0  0  0  0  0  0  0  0  0  0
    5.3520   -1.3100   22.8510 O   0  0  0  0  0  0  0  0  0  0  0  0
    6.6850    0.5350   22.3500 N   0  0  0  0  0  0  0  0  0  0  0  0
    7.8520    0.9680   22.7880 C   0  0  0  0  0  0  0  0  0  0  0  0
    6.5030    0.7200   20.8960 C   0  0  0  0  0  0  0  0  0  0  0  0
    8.7860    0.4080   21.9350 C   0  0  0  0  0  0  0  0  0  0  0  0
    6.6860   -0.6060   20.1570 C   0  0  0  0  0  0  0  0  0  0  0  0
    5.2810    1.3460   20.5770 C   0  0  0  0  0  0  0  0  0  0  0  0
    9.3900   -0.7960   22.3500 C   0  0  0  0  0  0  0  0  0  0  0  0
    6.5050   -0.4530   18.6470 C   0  0  0  0  0  0  0  0  0  0  0  0
    4.9630    1.4940   19.2070 C   0  0  0  0  0  0  0  0  0  0  0  0
   10.2140   -1.5940   22.5500 N   0  0  0  0  0  0  0  0  0  0  0  0
    5.4000    0.5580   18.2490 C   0  0  0  0  0  0  0  0  0  0  0  0
   11.6730   -1.0630   23.2650 S   0  0  0  0  0  0  0  0  0  0  0  0
   12.7320   -2.1930   22.7080 N   0  0  0  0  0  0  0  0  0  0  0  0
   12.0410    0.2220   22.7080 O   0  0  0  0  0  0  0  0  0  0  0  0
   11.4990   -1.2600   24.6860 O   0  0  0  0  0  0  0  0  0  0  0  0
  1  2  1  0
  2  3  2  0
  2  4  1  0
  3  5  1  0
  4  6  2  0
  4  7  1  0
  5  8  2  0
  6  8  1  0
  7  9  1  0
  9 10  2  0
  9 11  1  0
 11 12  1  0
 11 13  1  0
 12 14  1  0
 13 15  1  0
 13 16  1  0
 14 17  1  0
 15 18  1  0
 16 19  1  0
 17 20  1  0
 18 21  1  0
 19 21  1  0
 22 20  1  0
 22 23  1  0
 22 24  2  0
 22 25  2  0
M  END
