CHA-KIN-bfe9b535-3
     RDKit          3D

 37 39  0  0  0  0  0  0  0  0999 V2000
   12.3030    4.0920   22.2050 C   0  0  0  0  0  0  0  0  0  0  0  0
   10.9600    3.9350   22.9180 C   0  0  0  0  0  0  0  0  0  0  0  0
   10.2870    5.2450   23.1530 C   0  0  0  0  0  0  0  0  0  0  0  0
   10.8880    6.3930   23.6950 C   0  0  0  0  0  0  0  0  0  0  0  0
    8.9690    5.6540   22.9080 C   0  0  0  0  0  0  0  0  0  0  0  0
   10.0950    7.4430   23.8030 N   0  0  0  0  0  0  0  0  0  0  0  0
    8.9200    6.9840   23.3120 N   0  0  0  0  0  0  0  0  0  0  0  0
    7.9250    4.8960   22.3650 N   0  0  0  0  0  0  0  0  0  0  0  0
    7.8220    7.9190   23.2780 C   0  0  0  0  0  0  0  0  0  0  0  0
    7.3170    3.7800   22.9220 C   0  0  0  0  0  0  0  0  0  0  0  0
    6.4590    3.7570   23.7980 O   0  0  0  0  0  0  0  0  0  0  0  0
    7.8010    2.6300   22.3410 N   0  0  0  0  0  0  0  0  0  0  0  0
    7.6560    1.3470   23.0250 C   0  0  1  0  0  0  0  0  0  0  0  0
    6.3770    0.6400   22.6290 C   0  0  0  0  0  0  0  0  0  0  0  0
    8.8390    0.4510   22.6400 C   0  0  0  0  0  0  0  0  0  0  0  0
    6.1760    0.6650   21.1300 C   0  0  0  0  0  0  0  0  0  0  0  0
    9.5800    0.6980   21.6940 O   0  0  0  0  0  0  0  0  0  0  0  0
    8.9540   -0.6230   23.4900 N   0  0  0  0  0  0  0  0  0  0  0  0
    5.2220    1.5260   20.5720 C   0  0  0  0  0  0  0  0  0  0  0  0
    6.9390   -0.1590   20.2950 C   0  0  0  0  0  0  0  0  0  0  0  0
    9.4430   -1.9400   23.1390 C   0  0  2  0  0  0  0  0  0  0  0  0
    5.0420    1.5610   19.2030 C   0  0  0  0  0  0  0  0  0  0  0  0
    6.7540   -0.1210   18.9270 C   0  0  0  0  0  0  0  0  0  0  0  0
   10.5470   -1.9140   22.2350 C   0  0  0  0  0  0  0  0  0  0  0  0
    8.2220   -2.8160   22.8420 C   0  0  0  0  0  0  0  0  0  0  0  0
    5.8080    0.7410   18.3950 C   0  0  0  0  0  0  0  0  0  0  0  0
   11.6870   -2.5890   22.9010 N   0  0  0  0  0  0  0  0  0  0  0  0
    8.1940   -4.1170   23.3610 C   0  0  0  0  0  0  0  0  0  0  0  0
    7.1200   -2.3900   22.0870 C   0  0  0  0  0  0  0  0  0  0  0  0
    5.6530    0.7670   17.0770 O   0  0  0  0  0  0  0  0  0  0  0  0
   13.0450   -1.7330   23.2560 S   0  0  0  0  0  0  0  0  0  0  0  0
    7.1130   -4.9690   23.1350 C   0  0  0  0  0  0  0  0  0  0  0  0
    6.0280   -3.2370   21.8560 C   0  0  0  0  0  0  0  0  0  0  0  0
   13.4330   -1.3910   21.6880 N   0  0  0  0  0  0  0  0  0  0  0  0
   13.9600   -2.6970   23.7810 O   0  0  0  0  0  0  0  0  0  0  0  0
   12.7130   -0.5000   23.9110 O   0  0  0  0  0  0  0  0  0  0  0  0
    6.0270   -4.5300   22.3810 C   0  0  0  0  0  0  0  0  0  0  0  0
  1  2  1  0
  2  3  1  0
  3  4  1  0
  3  5  2  0
  4  6  2  0
  5  7  1  0
  6  7  1  0
  5  8  1  0
  7  9  1  0
  8 10  1  0
 10 11  2  0
 10 12  1  0
 12 13  1  0
 13 14  1  6
 13 15  1  0
 14 16  1  0
 15 17  2  0
 15 18  1  0
 16 19  2  0
 16 20  1  0
 18 21  1  0
 19 22  1  0
 20 23  2  0
 21 24  1  6
 21 25  1  0
 22 26  2  0
 23 26  1  0
 24 27  1  0
 25 28  2  0
 25 29  1  0
 26 30  1  0
 31 27  1  0
 28 32  1  0
 29 33  2  0
 31 34  1  0
 31 35  2  0
 31 36  2  0
 32 37  2  0
 33 37  1  0
M  END
