CHA-KIN-ceadbd93-5-nitrile
     RDKit          3D

 20 21  0  0  0  0  0  0  0  0999 V2000
    7.5010   -3.5850   20.0000 C   0  0  0  0  0  0  0  0  0  0  0  0
    6.2780   -3.7310   19.5520 N   0  0  0  0  0  0  0  0  0  0  0  0
    7.7590   -3.2720   21.5430 C   0  0  0  0  0  0  0  0  0  0  0  0
    8.9410   -2.2090   21.8130 C   0  0  0  0  0  0  0  0  0  0  0  0
    8.2150   -4.6180   22.1950 C   0  0  0  0  0  0  0  0  0  0  0  0
    6.3870   -2.7960   22.1370 C   0  0  0  0  0  0  0  0  0  0  0  0
    8.7400   -0.7070   21.5590 C   0  0  0  0  0  0  0  0  0  0  0  0
    7.8510   -4.8810   23.6540 C   0  0  0  0  0  0  0  0  0  0  0  0
    6.2070   -2.9920   23.6450 C   0  0  0  0  0  0  0  0  0  0  0  0
    9.6470    0.1190   21.5400 O   0  0  0  0  0  0  0  0  0  0  0  0
    7.4090   -0.4350   21.4010 N   0  0  0  0  0  0  0  0  0  0  0  0
    6.4650   -4.4250   24.0590 C   0  0  0  0  0  0  0  0  0  0  0  0
    6.7280    0.0710   20.2750 C   0  0  0  0  0  0  0  0  0  0  0  0
    7.0280   -0.2430   18.9550 C   0  0  0  0  0  0  0  0  0  0  0  0
    5.6620    0.9580   20.5000 C   0  0  0  0  0  0  0  0  0  0  0  0
    6.3570    0.2590   17.8890 N   0  0  0  0  0  0  0  0  0  0  0  0
    4.9700    1.4740   19.3940 C   0  0  0  0  0  0  0  0  0  0  0  0
    5.2500    1.3680   21.8950 C   0  0  0  0  0  0  0  0  0  0  0  0
    5.3480    1.1020   18.1280 C   0  0  0  0  0  0  0  0  0  0  0  0
    5.0340    0.2840   22.7820 O   0  0  0  0  0  0  0  0  0  0  0  0
  1  2  2  3
  3  1  1  0
  3  4  1  0
  3  5  1  0
  3  6  1  0
  4  7  1  0
  5  8  1  0
  6  9  1  0
  7 10  2  0
  7 11  1  0
  8 12  1  0
  9 12  1  0
 11 13  1  0
 13 14  2  0
 13 15  1  0
 14 16  1  0
 15 17  2  0
 15 18  1  0
 16 19  2  0
 17 19  1  0
 18 20  1  0
M  END
