CHA-KIN-f512e507-2
     RDKit          3D

 26 27  0  0  0  0  0  0  0  0999 V2000
    9.2070    0.1170   26.9330 C   0  0  0  0  0  0  0  0  0  0  0  0
    8.1280   -0.8610   26.7390 C   0  0  0  0  0  0  0  0  0  0  0  0
    8.0360   -1.8180   27.9380 C   0  0  0  0  0  0  0  0  0  0  0  0
    7.2600   -0.9640   25.6290 C   0  0  0  0  0  0  0  0  0  0  0  0
    6.9870   -2.9330   27.9650 C   0  0  0  0  0  0  0  0  0  0  0  0
    6.2360   -2.0640   25.6730 C   0  0  0  0  0  0  0  0  0  0  0  0
    7.3740   -0.0720   24.5660 N   0  0  0  0  0  0  0  0  0  0  0  0
    6.1150   -2.9990   26.7920 N   0  0  0  0  0  0  0  0  0  0  0  0
    6.2870   -0.0220   23.5690 C   0  0  0  0  0  0  0  0  0  0  0  0
    5.1360   -0.3950   23.7820 O   0  0  0  0  0  0  0  0  0  0  0  0
    6.7370    0.5110   22.3600 N   0  0  0  0  0  0  0  0  0  0  0  0
    7.8230    1.2410   22.2270 C   0  0  0  0  0  0  0  0  0  0  0  0
    5.9840    0.2350   21.1180 C   0  0  0  0  0  0  0  0  0  0  0  0
    8.8480    0.3790   21.8710 C   0  0  0  0  0  0  0  0  0  0  0  0
    5.2930    1.5340   20.6440 C   0  0  0  0  0  0  0  0  0  0  0  0
    6.7950   -0.4290   20.1730 C   0  0  0  0  0  0  0  0  0  0  0  0
    9.0800   -0.7290   22.6920 C   0  0  0  0  0  0  0  0  0  0  0  0
    5.0170    1.5450   19.1130 C   0  0  0  0  0  0  0  0  0  0  0  0
    6.3450   -0.4560   18.8400 C   0  0  0  0  0  0  0  0  0  0  0  0
   10.1940   -1.6400   22.2630 C   0  0  0  0  0  0  0  0  0  0  0  0
    6.0010    0.7480   18.2210 C   0  0  0  0  0  0  0  0  0  0  0  0
   11.3960   -1.2020   22.9180 N   0  0  0  0  0  0  0  0  0  0  0  0
   12.9230   -1.5720   22.2660 S   0  0  0  0  0  0  0  0  0  0  0  0
   13.6210   -2.3070   23.5770 N   0  0  0  0  0  0  0  0  0  0  0  0
   13.6050   -0.3260   22.0420 O   0  0  0  0  0  0  0  0  0  0  0  0
   12.7060   -2.5370   21.2160 O   0  0  0  0  0  0  0  0  0  0  0  0
  1  2  1  0
  2  3  2  0
  2  4  1  0
  3  5  1  0
  4  6  2  0
  4  7  1  0
  5  8  2  0
  6  8  1  0
  7  9  1  0
  9 10  2  0
  9 11  1  0
 11 12  1  0
 11 13  1  0
 12 14  1  0
 13 15  1  0
 13 16  1  0
 14 17  1  0
 15 18  1  0
 16 19  1  0
 17 20  1  0
 18 21  1  0
 19 21  1  0
 20 22  1  0
 23 22  1  0
 23 24  1  0
 23 25  2  0
 23 26  2  0
M  END
