CHA-KIN-cd2ef30b-2
     RDKit          3D

 30 32  0  0  0  0  0  0  0  0999 V2000
    3.6710   -1.7050   25.7810 C   0  0  0  0  0  0  0  0  0  0  0  0
    4.0950   -2.4510   24.5860 C   0  0  0  0  0  0  0  0  0  0  0  0
    3.1950   -3.6760   24.3560 C   0  0  0  0  0  0  0  0  0  0  0  0
    5.1700   -2.1410   23.7290 C   0  0  0  0  0  0  0  0  0  0  0  0
    3.4430   -4.6090   23.1640 C   0  0  0  0  0  0  0  0  0  0  0  0
    5.3950   -3.0620   22.5610 C   0  0  0  0  0  0  0  0  0  0  0  0
    5.9810   -1.0380   23.9740 N   0  0  0  0  0  0  0  0  0  0  0  0
    4.5630   -4.2360   22.2990 N   0  0  0  0  0  0  0  0  0  0  0  0
    5.6230    0.2750   23.4140 C   0  0  0  0  0  0  0  0  0  0  0  0
    4.6700    0.9570   23.7900 O   0  0  0  0  0  0  0  0  0  0  0  0
    6.5170    0.6550   22.4110 N   0  0  0  0  0  0  0  0  0  0  0  0
    7.7140    1.2090   22.6110 C   0  0  0  0  0  0  0  0  0  0  0  0
    6.0290    0.5130   21.0270 C   0  0  0  0  0  0  0  0  0  0  0  0
    8.6490    0.3020   22.1470 C   0  0  0  0  0  0  0  0  0  0  0  0
    5.4530    1.8140   20.4310 C   0  0  0  0  0  0  0  0  0  0  0  0
    6.9800   -0.0090   20.1800 C   0  0  0  0  0  0  0  0  0  0  0  0
    8.5290   -0.9310   22.7920 C   0  0  0  0  0  0  0  0  0  0  0  0
    4.8260    1.5560   19.0460 C   0  0  0  0  0  0  0  0  0  0  0  0
    6.4320   -0.4480   18.8300 C   0  0  0  0  0  0  0  0  0  0  0  0
    9.9390   -1.9390   23.0950 S   0  0  0  0  0  0  0  0  0  0  0  0
    5.4300    0.4950   18.1730 C   0  0  0  0  0  0  0  0  0  0  0  0
    9.5620   -2.9140   24.0870 O   0  0  0  0  0  0  0  0  0  0  0  0
   10.4930   -2.3450   21.8390 O   0  0  0  0  0  0  0  0  0  0  0  0
   10.9670   -0.8620   23.9050 N   0  0  0  0  0  0  0  0  0  0  0  0
   12.4100   -0.9100   23.7190 C   0  0  0  0  0  0  0  0  0  0  0  0
   12.6540   -1.8710   22.6370 C   0  0  0  0  0  0  0  0  0  0  0  0
   11.8680   -1.9350   21.4140 C   0  0  0  0  0  0  0  0  0  0  0  0
   13.5720   -2.8710   22.4830 N   0  0  0  0  0  0  0  0  0  0  0  0
   12.4730   -3.0180   20.6670 C   0  0  0  0  0  0  0  0  0  0  0  0
   13.4860   -3.5820   21.2750 N   0  0  0  0  0  0  0  0  0  0  0  0
  1  2  1  0
  2  3  2  0
  2  4  1  0
  3  5  1  0
  4  6  2  0
  4  7  1  0
  5  8  2  0
  6  8  1  0
  7  9  1  0
  9 10  2  0
  9 11  1  0
 11 12  1  0
 11 13  1  0
 12 14  1  0
 13 15  1  0
 13 16  1  0
 14 17  1  0
 15 18  1  0
 16 19  1  0
 17 20  1  0
 18 21  1  0
 19 21  1  0
 20 22  2  0
 20 23  2  0
 20 24  1  0
 24 25  1  0
 25 26  1  0
 26 27  2  0
 26 28  1  0
 27 29  1  0
 28 30  1  0
 29 30  2  0
M  END
