CHA-MCP-85291e1d-2
     RDKit          3D

 20 21  0  0  0  0  0  0  0  0999 V2000
   12.9960   -3.4010   20.9650 N   0  0  0  0  0  0  0  0  0  0  0  0
   13.1800   -1.9860   21.8300 S   0  0  0  0  0  0  0  0  0  0  0  0
   13.7320   -2.3740   23.1030 O   0  0  0  0  0  0  0  0  0  0  0  0
   13.8010   -1.0940   20.9020 O   0  0  0  0  0  0  0  0  0  0  0  0
   11.5320   -1.4740   22.1400 C   0  0  0  0  0  0  0  0  0  0  0  0
   10.7160   -2.4340   21.8440 C   0  0  0  0  0  0  0  0  0  0  0  0
   11.1430   -0.2440   22.6130 C   0  0  0  0  0  0  0  0  0  0  0  0
    9.2150   -2.3800   21.9910 C   0  0  0  0  0  0  0  0  0  0  0  0
    9.7840   -0.0470   22.7690 C   0  0  0  0  0  0  0  0  0  0  0  0
    8.7300   -1.0910   22.4890 C   0  0  0  0  0  0  0  0  0  0  0  0
    9.0590    1.0640   23.1470 C   0  0  0  0  0  0  0  0  0  0  0  0
    8.5670    1.3350   21.7220 C   0  0  0  0  0  0  0  0  0  0  0  0
    8.8290    2.3590   21.1370 O   0  0  0  0  0  0  0  0  0  0  0  0
    7.8180    0.1900   21.1940 N   0  0  0  0  0  0  0  0  0  0  0  0
    6.8610    0.3160   20.2180 C   0  0  0  0  0  0  0  0  0  0  0  0
    5.6330    0.8540   20.5810 C   0  0  0  0  0  0  0  0  0  0  0  0
    7.0070   -0.0490   18.8550 C   0  0  0  0  0  0  0  0  0  0  0  0
    4.7120    0.9850   19.5760 C   0  0  0  0  0  0  0  0  0  0  0  0
    6.2070    0.0690   18.0010 N   0  0  0  0  0  0  0  0  0  0  0  0
    5.0130    0.5940   18.2950 C   0  0  0  0  0  0  0  0  0  0  0  0
  2  1  1  0
  2  3  2  0
  2  4  2  0
  2  5  1  0
  5  6  2  0
  5  7  1  0
  6  8  1  0
  7  9  2  0
  8 10  2  0
  9 10  1  0
  9 11  1  0
 11 12  1  0
 12 13  2  0
 12 14  1  0
 14 15  1  0
 15 16  2  0
 15 17  1  0
 16 18  1  0
 17 19  2  0
 18 20  2  0
 19 20  1  0
M  END
