CHR-SOS-54d5cf3e-4
     RDKit          3D

 24 26  0  0  0  0  0  0  0  0999 V2000
    9.2020    1.6310   21.2460 O   0  0  0  0  0  0  0  0  0  0  0  0
    8.7400    0.6690   21.8420 C   0  0  0  0  0  0  0  0  0  0  0  0
    9.2080    0.2810   23.2540 C   0  0  0  0  0  0  0  0  0  0  0  0
    7.7230   -0.1370   21.3370 N   0  0  0  0  0  0  0  0  0  0  0  0
   10.1340   -0.9380   23.4980 C   0  0  0  0  0  0  0  0  0  0  0  0
    6.9310    0.2110   20.2240 C   0  0  0  0  0  0  0  0  0  0  0  0
    9.2560   -2.1150   23.7300 C   0  0  0  0  0  0  0  0  0  0  0  0
   11.0420   -1.1350   22.2620 C   0  0  0  0  0  0  0  0  0  0  0  0
   10.9960   -0.7490   24.7750 C   0  0  0  0  0  0  0  0  0  0  0  0
    5.8590    1.0890   20.4270 C   0  0  0  0  0  0  0  0  0  0  0  0
    7.1230   -0.2370   18.9300 C   0  0  0  0  0  0  0  0  0  0  0  0
    8.4980   -3.0110   23.9970 C   0  0  0  0  0  0  0  0  0  0  0  0
   12.3060   -1.9130   22.5700 C   0  0  0  0  0  0  0  0  0  0  0  0
   12.4320   -0.2970   24.5390 C   0  0  0  0  0  0  0  0  0  0  0  0
    5.0510    1.4750   19.3570 C   0  0  0  0  0  0  0  0  0  0  0  0
    6.3540    0.1280   17.8840 N   0  0  0  0  0  0  0  0  0  0  0  0
    7.5310   -4.0500   24.3940 C   0  0  2  0  0  0  0  0  0  0  0  0
   13.1920   -1.1160   23.5050 C   0  0  0  0  0  0  0  0  0  0  0  0
    5.3390    0.9730   18.1120 C   0  0  0  0  0  0  0  0  0  0  0  0
    7.1530   -3.8890   25.8780 C   0  0  0  0  0  0  0  0  0  0  0  0
    8.1170   -5.3640   24.1450 N   0  0  0  0  0  0  0  0  0  0  0  0
    8.3460   -4.1680   26.7870 C   0  0  0  0  0  0  0  0  0  0  0  0
    9.2970   -5.5780   24.9770 C   0  0  0  0  0  0  0  0  0  0  0  0
    8.9550   -5.5170   26.4600 C   0  0  0  0  0  0  0  0  0  0  0  0
  1  2  2  0
  2  3  1  0
  2  4  1  0
  3  5  1  0
  4  6  1  0
  5  7  1  0
  5  8  1  0
  5  9  1  0
  6 10  2  0
  6 11  1  0
  7 12  3  0
  8 13  1  0
  9 14  1  0
 10 15  1  0
 11 16  2  0
 17 12  1  1
 13 18  1  0
 14 18  1  0
 15 19  2  0
 16 19  1  0
 17 20  1  0
 17 21  1  0
 20 22  1  0
 21 23  1  0
 22 24  1  0
 23 24  1  0
M  END
