CHR-SOS-70e4c98a-5
     RDKit          3D

 26 28  0  0  0  0  0  0  0  0999 V2000
    9.1960    6.0350   22.7440 C   0  0  0  0  0  0  0  0  0  0  0  0
   10.5670    5.8430   23.8440 S   0  0  0  0  0  0  0  0  0  0  0  0
   10.0460    5.8570   25.1930 O   0  0  0  0  0  0  0  0  0  0  0  0
   11.6130    6.7440   23.4280 O   0  0  0  0  0  0  0  0  0  0  0  0
   11.1260    4.2120   23.4710 C   0  0  0  0  0  0  0  0  0  0  0  0
   12.3880    4.0260   23.0450 C   0  0  0  0  0  0  0  0  0  0  0  0
   10.2410    3.1460   23.6240 C   0  0  0  0  0  0  0  0  0  0  0  0
   12.9980    2.6760   22.6850 C   0  0  0  0  0  0  0  0  0  0  0  0
   10.6780    1.8770   23.3220 C   0  0  0  0  0  0  0  0  0  0  0  0
   12.0570    1.4950   22.8270 C   0  0  0  0  0  0  0  0  0  0  0  0
   12.4010    0.3610   22.5580 O   0  0  0  0  0  0  0  0  0  0  0  0
   11.4010   -0.5260   23.0940 C   0  0  0  0  0  0  0  0  0  0  0  0
   10.3440   -1.1120   22.0960 C   0  0  0  0  0  0  0  0  0  0  0  0
   10.4720    0.3180   24.0330 C   0  0  0  0  0  0  0  0  0  0  0  0
   12.1830   -1.5390   23.9150 C   0  0  0  0  0  0  0  0  0  0  0  0
    9.2270   -0.1280   21.6560 C   0  0  0  0  0  0  0  0  0  0  0  0
   10.0900   -0.9690   24.4640 C   0  0  0  0  0  0  0  0  0  0  0  0
   11.0150   -2.0870   24.1750 C   0  0  0  0  0  0  0  0  0  0  0  0
    9.3960    1.0860   21.6500 O   0  0  0  0  0  0  0  0  0  0  0  0
    8.0240   -0.7390   21.2630 N   0  0  0  0  0  0  0  0  0  0  0  0
    7.1150   -0.2330   20.2940 C   0  0  0  0  0  0  0  0  0  0  0  0
    5.8270    0.6190   20.7260 C   0  0  0  0  0  0  0  0  0  0  0  0
    7.2000   -0.3860   18.9170 C   0  0  0  0  0  0  0  0  0  0  0  0
    4.9750    1.1040   19.7460 C   0  0  0  0  0  0  0  0  0  0  0  0
    6.2220    0.1820   17.9260 N   0  0  0  0  0  0  0  0  0  0  0  0
    5.1700    0.8930   18.3870 C   0  0  0  0  0  0  0  0  0  0  0  0
  2  1  1  0
  2  3  2  0
  2  4  2  0
  2  5  1  0
  5  6  2  0
  5  7  1  0
  6  8  1  0
  7  9  2  0
  8 10  2  0
  9 10  1  0
 10 11  1  0
 12 11  1  0
 12 13  1  0
 12 14  1  0
 12 15  1  0
 13 16  1  0
 14 17  1  0
 15 18  1  0
 17 18  1  0
 16 19  2  0
 16 20  1  0
 20 21  1  0
 21 22  2  0
 21 23  1  0
 22 24  1  0
 23 25  2  0
 24 26  2  0
 25 26  1  0
M  END
