CHR-GRO-51f79798-1
     RDKit          3D

 23 26  0  0  0  0  0  0  0  0999 V2000
    7.8910   -0.0710   21.5190 C   0  0  0  0  0  0  0  0  0  0  0  0
    8.4930   -0.0380   22.9250 C   0  0  0  0  0  0  0  0  0  0  0  0
    7.8340    0.6080   23.9740 N   0  0  0  0  0  0  0  0  0  0  0  0
    9.7550   -0.5830   23.5400 C   0  0  0  0  0  0  0  0  0  0  0  0
    8.6210    0.4690   25.0980 N   0  0  0  0  0  0  0  0  0  0  0  0
    9.7640   -0.2450   24.8060 C   0  0  0  0  0  0  0  0  0  0  0  0
   10.7740   -1.3290   22.9170 C   0  0  0  0  0  0  0  0  0  0  0  0
    8.2180    1.0110   26.2790 C   0  0  0  0  0  0  0  0  0  0  0  0
   10.6690   -1.7310   21.6290 C   0  0  0  0  0  0  0  0  0  0  0  0
   12.0610   -0.4460   22.9960 C   0  0  0  0  0  0  0  0  0  0  0  0
   10.9730   -2.7050   23.8950 S   0  0  0  0  0  0  0  0  0  0  0  0
   10.7380   -0.5520   25.6570 N   0  0  0  0  0  0  0  0  0  0  0  0
    8.6720    0.4860   27.5910 C   0  0  0  0  0  0  0  0  0  0  0  0
    7.3530    2.0980   26.2540 C   0  0  0  0  0  0  0  0  0  0  0  0
   11.9330   -2.1970   21.2140 C   0  0  0  0  0  0  0  0  0  0  0  0
   13.2150   -1.1260   22.6860 C   0  0  0  0  0  0  0  0  0  0  0  0
   12.3620   -2.2000   24.8420 C   0  0  0  0  0  0  0  0  0  0  0  0
   12.0230   -0.8960   25.2760 C   0  0  0  0  0  0  0  0  0  0  0  0
    8.2420    1.0700   28.9140 C   0  0  0  0  0  0  0  0  0  0  0  0
    6.8100    2.8240   27.5140 C   0  0  0  0  0  0  0  0  0  0  0  0
   12.8050   -2.3800   22.2580 C   0  0  0  0  0  0  0  0  0  0  0  0
   12.8890   -0.0590   25.3180 O   0  0  0  0  0  0  0  0  0  0  0  0
    7.2800    2.2790   28.9200 C   0  0  0  0  0  0  0  0  0  0  0  0
  1  2  1  0
  2  3  2  0
  2  4  1  0
  3  5  1  0
  4  6  2  0
  5  6  1  0
  4  7  1  0
  5  8  1  0
  7  9  1  0
  7 10  1  0
  7 11  1  0
  6 12  1  0
  8 13  2  0
  8 14  1  0
  9 15  1  0
 10 16  1  0
 11 17  1  0
 12 18  1  0
 17 18  1  0
 13 19  1  0
 14 20  2  0
 15 21  1  0
 16 21  1  0
 18 22  2  0
 19 23  2  0
 20 23  1  0
M  END
