CHR-SOS-363cfb78-7-nitrile
     RDKit          3D

 26 28  0  0  0  0  0  0  0  0999 V2000
    6.7380   -4.7880   20.4820 C   0  0  0  0  0  0  0  0  0  0  0  0
    5.7400   -4.1620   19.9040 N   0  0  0  0  0  0  0  0  0  0  0  0
    7.3130   -4.4390   22.0770 C   0  0  0  0  0  0  0  0  0  0  0  0
    6.9530   -5.3160   23.1760 C   0  0  0  0  0  0  0  0  0  0  0  0
    8.1540   -3.4400   22.2330 C   0  0  0  0  0  0  0  0  0  0  0  0
    6.0470   -5.8130   22.5440 N   0  0  0  0  0  0  0  0  0  0  0  0
    7.2070   -3.5910   21.2450 C   0  0  0  0  0  0  0  0  0  0  0  0
    8.7410   -2.3250   21.6330 O   0  0  0  0  0  0  0  0  0  0  0  0
    6.1800   -4.7900   21.5070 C   0  0  0  0  0  0  0  0  0  0  0  0
    7.2030   -2.6260   20.2180 N   0  0  0  0  0  0  0  0  0  0  0  0
    9.8400   -1.5960   22.1360 C   0  0  0  0  0  0  0  0  0  0  0  0
    7.1700   -1.2800   20.5530 C   0  0  0  0  0  0  0  0  0  0  0  0
    9.7870   -0.2440   22.4480 C   0  0  0  0  0  0  0  0  0  0  0  0
   11.0400   -2.2740   22.3140 C   0  0  0  0  0  0  0  0  0  0  0  0
    8.1490   -0.6050   20.8040 O   0  0  0  0  0  0  0  0  0  0  0  0
    5.8810   -0.7870   20.5800 N   0  0  0  0  0  0  0  0  0  0  0  0
   10.9260    0.4160   22.9250 C   0  0  0  0  0  0  0  0  0  0  0  0
   12.1820   -1.6280   22.7890 C   0  0  0  0  0  0  0  0  0  0  0  0
    5.5340    0.1100   19.6640 C   0  0  0  0  0  0  0  0  0  0  0  0
   12.1230   -0.2720   23.0960 C   0  0  0  0  0  0  0  0  0  0  0  0
    6.2930    0.1910   18.4800 C   0  0  0  0  0  0  0  0  0  0  0  0
    4.4550    0.9940   19.8050 C   0  0  0  0  0  0  0  0  0  0  0  0
    6.0560    1.0510   17.4900 N   0  0  0  0  0  0  0  0  0  0  0  0
    4.1680    1.9100   18.7960 C   0  0  0  0  0  0  0  0  0  0  0  0
    3.5050    1.0880   20.9940 C   0  0  0  0  0  0  0  0  0  0  0  0
    4.9700    1.9120   17.6770 C   0  0  0  0  0  0  0  0  0  0  0  0
  1  2  2  3
  1  3  1  0
  3  4  2  0
  3  5  1  0
  4  6  1  0
  5  7  2  0
  5  8  1  0
  6  9  2  0
  7  9  1  0
  7 10  1  0
  8 11  1  0
 10 12  1  0
 11 13  2  0
 11 14  1  0
 12 15  2  0
 12 16  1  0
 13 17  1  0
 14 18  2  0
 16 19  1  0
 17 20  2  0
 18 20  1  0
 19 21  2  0
 19 22  1  0
 21 23  1  0
 22 24  2  0
 22 25  1  0
 23 26  2  0
 24 26  1  0
M  END
