CHR-SOS-1f323c23-10
     RDKit          3D

 21 23  0  0  0  0  0  0  0  0999 V2000
    5.2820    1.3510   22.0650 C   0  0  0  0  0  0  0  0  0  0  0  0
    5.7210    0.9020   20.6880 C   0  0  0  0  0  0  0  0  0  0  0  0
    4.7630    1.3140   19.5380 C   0  0  0  0  0  0  0  0  0  0  0  0
    6.8800    0.1810   20.4360 C   0  0  0  0  0  0  0  0  0  0  0  0
    5.2630    0.8210   18.1460 C   0  0  0  0  0  0  0  0  0  0  0  0
    7.1450   -0.2000   18.9920 C   0  0  0  0  0  0  0  0  0  0  0  0
    7.8310   -0.2280   21.3970 N   0  0  0  0  0  0  0  0  0  0  0  0
    6.3790    0.1140   17.9390 N   0  0  0  0  0  0  0  0  0  0  0  0
    8.7430    0.8510   21.8410 C   0  0  0  0  0  0  0  0  0  0  0  0
    9.1030    1.8030   21.1670 O   0  0  0  0  0  0  0  0  0  0  0  0
    9.1770    0.7050   23.1590 N   0  0  0  0  0  0  0  0  0  0  0  0
   10.1850   -0.0550   23.4360 C   0  0  0  0  0  0  0  0  0  0  0  0
   10.3570   -0.9440   22.6530 O   0  0  0  0  0  0  0  0  0  0  0  0
   10.6550   -0.2990   24.8440 C   0  0  0  0  0  0  0  0  0  0  0  0
   11.5320    0.5130   23.9340 C   0  0  0  0  0  0  0  0  0  0  0  0
   11.4700   -1.6070   22.9190 C   0  0  0  0  0  0  0  0  0  0  0  0
   12.0820   -2.1560   21.8120 C   0  0  0  0  0  0  0  0  0  0  0  0
   12.0290   -1.7650   24.2030 C   0  0  0  0  0  0  0  0  0  0  0  0
   13.2200   -2.8520   21.8870 C   0  0  0  0  0  0  0  0  0  0  0  0
   13.1840   -2.4670   24.2710 C   0  0  0  0  0  0  0  0  0  0  0  0
   13.7540   -2.9850   23.1550 C   0  0  0  0  0  0  0  0  0  0  0  0
  1  2  1  0
  2  3  2  0
  2  4  1  0
  3  5  1  0
  4  6  2  0
  4  7  1  0
  5  8  2  0
  6  8  1  0
  7  9  1  0
  9 10  2  0
  9 11  1  0
 11 12  1  0
 12 13  1  0
 12 14  1  0
 12 15  1  0
 14 15  1  0
 13 16  1  0
 16 17  2  0
 16 18  1  0
 17 19  1  0
 18 20  2  0
 19 21  2  0
 20 21  1  0
M  END
