CHR-SOS-f7373dd1-4
     RDKit          3D

 21 23  0  0  0  0  0  0  0  0999 V2000
    7.2740    6.1050   23.8160 O   0  0  0  0  0  0  0  0  0  0  0  0
    7.9450    5.0980   23.6250 C   0  0  0  0  0  0  0  0  0  0  0  0
    9.2020    5.1590   22.9370 C   0  0  0  0  0  0  0  0  0  0  0  0
    7.5900    3.7320   24.0540 N   0  0  0  0  0  0  0  0  0  0  0  0
   10.4280    4.8990   23.5610 C   0  0  0  0  0  0  0  0  0  0  0  0
    7.4670    2.5880   23.2600 C   0  0  0  0  0  0  0  0  0  0  0  0
   10.9560    3.5930   23.2920 C   0  0  0  0  0  0  0  0  0  0  0  0
   11.5920    5.7660   23.2880 C   0  0  0  0  0  0  0  0  0  0  0  0
   10.1900    5.0170   24.9700 C   0  0  0  0  0  0  0  0  0  0  0  0
    7.4470    2.5880   21.7190 C   0  0  0  0  0  0  0  0  0  0  0  0
    7.3460    1.2530   23.9450 C   0  0  0  0  0  0  0  0  0  0  0  0
   12.4350    3.4030   23.0730 C   0  0  0  0  0  0  0  0  0  0  0  0
   10.1530    2.4100   23.2240 C   0  0  0  0  0  0  0  0  0  0  0  0
   11.4990    6.8340   24.3250 C   0  0  0  0  0  0  0  0  0  0  0  0
   10.6570    6.2570   25.3660 C   0  0  0  0  0  0  0  0  0  0  0  0
    7.3230    1.4690   20.6680 C   0  0  0  0  0  0  0  0  0  0  0  0
    7.2280    0.1300   23.2430 N   0  0  0  0  0  0  0  0  0  0  0  0
   12.9590    2.0360   22.8360 C   0  0  0  0  0  0  0  0  0  0  0  0
   10.6870    1.1630   22.9920 C   0  0  0  0  0  0  0  0  0  0  0  0
    7.2500    0.5540   21.8340 C   0  0  0  0  0  0  0  0  0  0  0  0
   12.1530    0.9630   22.7960 C   0  0  0  0  0  0  0  0  0  0  0  0
  1  2  2  0
  2  3  1  0
  2  4  1  0
  5  3  1  0
  4  6  1  0
  5  7  1  0
  5  8  1  0
  5  9  1  0
  6 10  2  0
  6 11  1  0
  7 12  2  0
  7 13  1  0
  8 14  1  0
  9 15  1  0
 14 15  1  0
 10 16  1  0
 11 17  2  0
 12 18  1  0
 13 19  2  0
 16 20  2  0
 17 20  1  0
 18 21  2  0
 19 21  1  0
M  END
