CHR-SOS-f7373dd1-2
     RDKit          3D

 22 24  0  0  0  0  0  0  0  0999 V2000
    9.2880    1.3920   21.3790 O   0  0  0  0  0  0  0  0  0  0  0  0
    8.7590    0.3930   21.8770 C   0  0  0  0  0  0  0  0  0  0  0  0
    9.1690   -0.1610   23.1510 C   0  0  0  0  0  0  0  0  0  0  0  0
    7.7010   -0.2920   21.3280 N   0  0  0  0  0  0  0  0  0  0  0  0
   10.3450   -0.9130   23.4190 C   0  0  0  0  0  0  0  0  0  0  0  0
    6.8670    0.1460   20.2020 C   0  0  0  0  0  0  0  0  0  0  0  0
   10.0620   -2.2330   23.8810 C   0  0  0  0  0  0  0  0  0  0  0  0
   11.0930   -0.8290   22.2550 C   0  0  0  0  0  0  0  0  0  0  0  0
   11.0660   -0.1750   24.3930 C   0  0  0  0  0  0  0  0  0  0  0  0
    5.6560    1.0790   20.3540 C   0  0  0  0  0  0  0  0  0  0  0  0
    7.1290   -0.2810   18.7980 C   0  0  0  0  0  0  0  0  0  0  0  0
    8.9420   -3.1420   23.3990 C   0  0  0  0  0  0  0  0  0  0  0  0
   10.8990   -2.9260   24.9850 C   0  0  0  0  0  0  0  0  0  0  0  0
   12.1830   -1.6900   22.3820 C   0  0  0  0  0  0  0  0  0  0  0  0
   12.4480   -0.4700   24.4410 C   0  0  0  0  0  0  0  0  0  0  0  0
    4.6540    1.6690   19.3420 C   0  0  0  0  0  0  0  0  0  0  0  0
    6.4930    0.0620   17.9260 N   0  0  0  0  0  0  0  0  0  0  0  0
    8.7440   -4.5110   23.9780 C   0  0  0  0  0  0  0  0  0  0  0  0
   10.6730   -4.2820   25.5360 N   0  0  0  0  0  0  0  0  0  0  0  0
   13.0850   -1.2060   23.4410 C   0  0  0  0  0  0  0  0  0  0  0  0
    5.4840    0.8950   18.3980 C   0  0  0  0  0  0  0  0  0  0  0  0
    9.5540   -5.0210   24.9680 C   0  0  0  0  0  0  0  0  0  0  0  0
  1  2  2  0
  2  3  1  0
  2  4  1  0
  5  3  1  0
  4  6  1  0
  5  7  1  0
  5  8  1  0
  5  9  1  0
  6 10  2  0
  6 11  1  0
  7 12  2  0
  7 13  1  0
  8 14  1  0
  9 15  1  0
 10 16  1  0
 11 17  2  0
 12 18  1  0
 13 19  2  0
 14 20  1  0
 15 20  1  0
 16 21  2  0
 17 21  1  0
 18 22  2  0
 19 22  1  0
M  END
