CHR-SOS-7098f804-18
     RDKit          3D

 23 25  0  0  0  0  0  0  0  0999 V2000
    9.0890    1.7020   21.3140 O   0  0  0  0  0  0  0  0  0  0  0  0
    8.8600    0.5530   21.7090 C   0  0  0  0  0  0  0  0  0  0  0  0
    7.7450   -0.2040   21.3830 N   0  0  0  0  0  0  0  0  0  0  0  0
    9.9070   -0.0900   22.5620 C   0  0  0  0  0  0  0  0  0  0  0  0
    6.8140    0.1680   20.3910 C   0  0  0  0  0  0  0  0  0  0  0  0
   10.8110   -0.8810   22.0040 C   0  0  0  0  0  0  0  0  0  0  0  0
   10.0430    0.0550   23.9000 C   0  0  0  0  0  0  0  0  0  0  0  0
    5.6370    0.8810   20.6440 C   0  0  0  0  0  0  0  0  0  0  0  0
    7.0960   -0.1970   19.0550 C   0  0  0  0  0  0  0  0  0  0  0  0
   11.8630   -1.5580   22.5590 C   0  0  0  0  0  0  0  0  0  0  0  0
   11.0900   -0.6210   24.5450 C   0  0  0  0  0  0  0  0  0  0  0  0
    4.7820    1.2260   19.5840 C   0  0  0  0  0  0  0  0  0  0  0  0
    6.3800    0.0710   17.9980 N   0  0  0  0  0  0  0  0  0  0  0  0
   12.8860   -2.5010   21.5690 Cl  0  0  0  0  0  0  0  0  0  0  0  0
   12.0370   -1.4410   23.9110 C   0  0  0  0  0  0  0  0  0  0  0  0
   11.1080   -0.4350   25.8560 O   0  0  0  0  0  0  0  0  0  0  0  0
    5.1710    0.8140   18.2400 C   0  0  0  0  0  0  0  0  0  0  0  0
    9.7940   -0.2080   26.3220 C   0  0  0  0  0  0  0  0  0  0  0  0
    9.5750    0.2210   27.6470 C   0  0  0  0  0  0  0  0  0  0  0  0
    8.6770   -0.4070   25.4980 C   0  0  0  0  0  0  0  0  0  0  0  0
    8.2980    0.4600   28.1660 C   0  0  0  0  0  0  0  0  0  0  0  0
    7.2920   -0.1500   26.0530 C   0  0  0  0  0  0  0  0  0  0  0  0
    7.1740    0.2780   27.3810 C   0  0  0  0  0  0  0  0  0  0  0  0
  1  2  2  0
  2  3  1  0
  2  4  1  0
  3  5  1  0
  4  6  2  0
  4  7  1  0
  5  8  2  0
  5  9  1  0
  6 10  1  0
  7 11  2  0
  8 12  1  0
  9 13  2  0
 10 14  1  0
 10 15  2  0
 11 15  1  0
 11 16  1  0
 12 17  2  0
 13 17  1  0
 16 18  1  0
 18 19  2  0
 18 20  1  0
 19 21  1  0
 20 22  2  0
 21 23  2  0
 22 23  1  0
M  END
