CHR-SOS-f7373dd1-5
     RDKit          3D

 21 23  0  0  0  0  0  0  0  0999 V2000
    9.3120    2.8830   21.5040 O   0  0  0  0  0  0  0  0  0  0  0  0
    8.5110    3.6360   22.0570 C   0  0  0  0  0  0  0  0  0  0  0  0
    8.9520    4.9330   22.7540 C   0  0  0  0  0  0  0  0  0  0  0  0
    7.1680    3.4030   22.1000 N   0  0  0  0  0  0  0  0  0  0  0  0
   10.1740    4.9240   23.3450 C   0  0  0  0  0  0  0  0  0  0  0  0
    6.4460    2.6460   21.1490 C   0  0  0  0  0  0  0  0  0  0  0  0
   10.8650    3.5310   23.3920 C   0  0  0  0  0  0  0  0  0  0  0  0
   10.9690    5.9210   22.7090 C   0  0  0  0  0  0  0  0  0  0  0  0
    9.9320    5.7050   24.7070 C   0  0  0  0  0  0  0  0  0  0  0  0
    7.0960    1.4210   20.4450 C   0  0  0  0  0  0  0  0  0  0  0  0
    4.9940    2.8560   20.6450 C   0  0  0  0  0  0  0  0  0  0  0  0
   12.3010    3.4000   22.9010 C   0  0  0  0  0  0  0  0  0  0  0  0
   10.2600    2.3450   23.8400 C   0  0  0  0  0  0  0  0  0  0  0  0
   11.9620    6.4320   23.8440 C   0  0  0  0  0  0  0  0  0  0  0  0
   11.3160    6.2870   25.0310 C   0  0  0  0  0  0  0  0  0  0  0  0
    6.3690    0.7040   19.5110 C   0  0  0  0  0  0  0  0  0  0  0  0
    4.2980    2.1160   19.7100 N   0  0  0  0  0  0  0  0  0  0  0  0
   12.9810    2.0360   22.9170 C   0  0  0  0  0  0  0  0  0  0  0  0
   10.8350    1.0670   23.8740 N   0  0  0  0  0  0  0  0  0  0  0  0
    4.9530    1.0330   19.1200 C   0  0  0  0  0  0  0  0  0  0  0  0
   12.1340    0.8930   23.4330 C   0  0  0  0  0  0  0  0  0  0  0  0
  1  2  2  0
  2  3  1  0
  2  4  1  0
  5  3  1  0
  4  6  1  0
  5  7  1  0
  5  8  1  0
  5  9  1  0
  6 10  2  0
  6 11  1  0
  7 12  2  0
  7 13  1  0
  8 14  1  0
  9 15  1  0
 14 15  1  0
 10 16  1  0
 11 17  2  0
 12 18  1  0
 13 19  2  0
 16 20  2  0
 17 20  1  0
 18 21  2  0
 19 21  1  0
M  END
