CUN-WAB-25b584ee-2
     RDKit          3D

 19 21  0  0  0  0  0  0  0  0999 V2000
    8.3700    0.8640   21.8780 O   0  0  0  0  0  0  0  0  0  0  0  0
    8.4250   -0.3500   22.0560 C   0  0  0  0  0  0  0  0  0  0  0  0
    7.7420   -1.2530   21.1220 C   0  0  0  0  0  0  0  0  0  0  0  0
    9.1110   -0.9810   23.0450 N   0  0  0  0  0  0  0  0  0  0  0  0
    6.9970   -0.5030   20.0690 C   0  0  0  0  0  0  0  0  0  0  0  0
   10.4910   -0.6440   23.1070 C   0  0  0  0  0  0  0  0  0  0  0  0
    7.3200   -0.6240   18.6510 C   0  0  0  0  0  0  0  0  0  0  0  0
    5.9330    0.4170   20.0920 C   0  0  0  0  0  0  0  0  0  0  0  0
   11.5060   -1.5660   23.3520 C   0  0  0  0  0  0  0  0  0  0  0  0
   10.7620    0.7400   22.8780 C   0  0  0  0  0  0  0  0  0  0  0  0
    6.5920    0.1060   17.9350 N   0  0  0  0  0  0  0  0  0  0  0  0
    5.7060    0.7900   18.7410 C   0  0  0  0  0  0  0  0  0  0  0  0
    5.0780    1.0210   21.1840 C   0  0  0  0  0  0  0  0  0  0  0  0
   12.8990   -1.0940   23.3680 C   0  0  0  0  0  0  0  0  0  0  0  0
   12.0670    1.1820   22.8910 C   0  0  0  0  0  0  0  0  0  0  0  0
    4.6300    1.7950   18.3500 C   0  0  0  0  0  0  0  0  0  0  0  0
    4.0720    1.9380   20.8620 C   0  0  0  0  0  0  0  0  0  0  0  0
   13.1260    0.3420   23.1150 C   0  0  0  0  0  0  0  0  0  0  0  0
    3.8380    2.3220   19.5460 C   0  0  0  0  0  0  0  0  0  0  0  0
  1  2  2  0
  2  3  1  0
  2  4  1  0
  3  5  1  0
  4  6  1  0
  5  7  2  0
  5  8  1  0
  6  9  2  0
  6 10  1  0
  7 11  1  0
  8 12  2  0
 11 12  1  0
  8 13  1  0
  9 14  1  0
 10 15  2  0
 12 16  1  0
 13 17  2  0
 14 18  2  0
 15 18  1  0
 16 19  2  0
 17 19  1  0
M  END
