DAN-LON-a5fc619e-2-acrylamide
     RDKit          3D

 20 21  0  0  0  0  0  0  0  0999 V2000
    7.3190   -2.8290   18.3200 C   0  0  0  0  0  0  0  0  0  0  0  0
    6.5590   -2.1840   19.1770 C   0  0  0  0  0  0  0  0  0  0  0  0
    5.8570   -3.0420   20.1970 C   0  0  0  0  0  0  0  0  0  0  0  0
    5.1730   -4.0620   19.9240 O   0  0  0  0  0  0  0  0  0  0  0  0
    6.0630   -2.5680   21.4750 N   0  0  0  0  0  0  0  0  0  0  0  0
    6.2010   -3.5370   22.5570 C   0  0  0  0  0  0  0  0  0  0  0  0
    6.5970   -1.2170   21.7540 C   0  0  0  0  0  0  0  0  0  0  0  0
    7.6100   -3.5280   23.1550 C   0  0  0  0  0  0  0  0  0  0  0  0
    8.0130   -1.1710   22.4360 C   0  0  0  0  0  0  0  0  0  0  0  0
    8.1390   -2.1940   23.4900 N   0  0  0  0  0  0  0  0  0  0  0  0
    9.0590   -1.4760   21.3740 C   0  0  0  0  0  0  0  0  0  0  0  0
    8.2670    0.2810   22.9090 C   0  0  0  0  0  0  0  0  0  0  0  0
    9.3310   -2.1830   24.3260 C   0  0  0  0  0  0  0  0  0  0  0  0
   10.4230   -1.4400   23.8810 C   0  0  0  0  0  0  0  0  0  0  0  0
   10.6990   -0.1890   24.4420 C   0  0  0  0  0  0  0  0  0  0  0  0
   11.2610   -1.9200   22.8800 C   0  0  0  0  0  0  0  0  0  0  0  0
   11.7790    0.5630   24.0080 C   0  0  0  0  0  0  0  0  0  0  0  0
   12.3300   -1.1600   22.4640 C   0  0  0  0  0  0  0  0  0  0  0  0
   12.6060    0.0820   23.0150 C   0  0  0  0  0  0  0  0  0  0  0  0
   13.3080   -1.7920   21.2330 Cl  0  0  0  0  0  0  0  0  0  0  0  0
  1  2  1  0
  2  3  1  0
  3  4  2  0
  3  5  1  0
  5  6  1  0
  5  7  1  0
  6  8  1  0
  7  9  1  0
  8 10  1  0
  9 10  1  0
  9 11  1  0
  9 12  1  0
 10 13  1  0
 13 14  1  0
 14 15  2  0
 14 16  1  0
 15 17  1  0
 16 18  2  0
 17 19  2  0
 18 19  1  0
 18 20  1  0
M  END
