DAN-LON-a5fc619e-3-nitrile
     RDKit          3D

 20 21  0  0  0  0  0  0  0  0999 V2000
    6.8060   -3.3400   19.5620 C   0  0  0  0  0  0  0  0  0  0  0  0
    5.9440   -3.0740   18.6650 N   0  0  0  0  0  0  0  0  0  0  0  0
    6.7250   -2.8860   20.8610 N   0  0  0  0  0  0  0  0  0  0  0  0
    6.3200   -3.6950   22.0160 C   0  0  0  0  0  0  0  0  0  0  0  0
    7.0490   -1.4920   21.1950 C   0  0  0  0  0  0  0  0  0  0  0  0
    7.2100   -3.4010   23.2350 C   0  0  0  0  0  0  0  0  0  0  0  0
    8.2410   -1.3530   22.1830 C   0  0  2  0  0  0  0  0  0  0  0  0
    8.4240   -2.6130   22.9620 N   0  0  0  0  0  0  0  0  0  0  0  0
    8.1410   -0.0830   23.0710 C   0  0  0  0  0  0  0  0  0  0  0  0
    9.3120   -2.5000   24.1140 C   0  0  0  0  0  0  0  0  0  0  0  0
    9.1320    1.0730   22.7880 C   0  0  0  0  0  0  0  0  0  0  0  0
   10.4880   -1.5920   23.7930 C   0  0  0  0  0  0  0  0  0  0  0  0
    8.6760    2.0500   21.6890 C   0  0  0  0  0  0  0  0  0  0  0  0
    9.4420    1.9260   24.0440 C   0  0  0  0  0  0  0  0  0  0  0  0
   10.7720   -0.3030   24.5270 C   0  0  0  0  0  0  0  0  0  0  0  0
   11.3440   -1.9510   22.7740 C   0  0  0  0  0  0  0  0  0  0  0  0
   11.8760    0.4610   24.1330 C   0  0  0  0  0  0  0  0  0  0  0  0
   12.4160   -1.1530   22.4430 C   0  0  0  0  0  0  0  0  0  0  0  0
   12.6990    0.0400   23.0960 C   0  0  0  0  0  0  0  0  0  0  0  0
   13.3800   -1.7020   21.1720 Cl  0  0  0  0  0  0  0  0  0  0  0  0
  1  2  2  3
  1  3  1  0
  3  4  1  0
  3  5  1  0
  4  6  1  0
  5  7  1  0
  6  8  1  0
  7  8  1  0
  7  9  1  1
  8 10  1  0
  9 11  1  0
 10 12  1  0
 11 13  1  0
 11 14  1  0
 12 15  2  0
 12 16  1  0
 15 17  1  0
 16 18  2  0
 17 19  2  0
 18 19  1  0
 18 20  1  0
M  END
