DAN-LON-a5fc619e-8-nitrile
     RDKit          3D

 17 19  0  0  0  0  0  0  0  0999 V2000
    6.8630   -3.4380   19.6920 C   0  0  0  0  0  0  0  0  0  0  0  0
    5.8500   -3.2280   18.9610 N   0  0  0  0  0  0  0  0  0  0  0  0
    7.0290   -2.7480   20.8840 N   0  0  0  0  0  0  0  0  0  0  0  0
    6.2340   -3.0370   22.0840 C   0  0  0  0  0  0  0  0  0  0  0  0
    8.3050   -2.4170   21.5490 C   0  0  2  0  0  0  0  0  0  0  0  0
    7.2420   -3.0040   23.2470 C   0  0  1  0  0  0  0  0  0  0  0  0
    8.3890   -3.6230   22.4780 C   0  0  0  0  0  0  0  0  0  0  0  0
    8.2380   -1.1090   22.2660 C   0  0  0  0  0  0  0  0  0  0  0  0
    7.9190   -1.7210   23.5940 N   0  0  0  0  0  0  0  0  0  0  0  0
    9.1140   -1.9070   24.4180 C   0  0  0  0  0  0  0  0  0  0  0  0
   10.2580   -1.2560   23.9470 C   0  0  0  0  0  0  0  0  0  0  0  0
   10.5860   -0.0110   24.4640 C   0  0  0  0  0  0  0  0  0  0  0  0
   11.0850   -1.8150   22.9770 C   0  0  0  0  0  0  0  0  0  0  0  0
   11.7220    0.6990   24.0310 C   0  0  0  0  0  0  0  0  0  0  0  0
   12.3200   -1.0470   22.5050 C   0  0  0  0  0  0  0  0  0  0  0  0
   12.5880    0.1890   23.0590 C   0  0  0  0  0  0  0  0  0  0  0  0
   13.3170   -1.7250   21.3140 Cl  0  0  0  0  0  0  0  0  0  0  0  0
  1  2  2  3
  1  3  1  0
  3  4  1  0
  3  5  1  0
  6  4  1  6
  5  7  1  0
  6  7  1  0
  5  8  1  1
  6  9  1  0
  8  9  1  0
  9 10  1  0
 10 11  1  0
 11 12  2  0
 11 13  1  0
 12 14  1  0
 13 15  2  0
 14 16  2  0
 15 16  1  0
 15 17  1  0
M  END
