DAN-PUR-19f24f0c-1
     RDKit          3D

 11 11  0  0  0  0  0  0  0  0999 V2000
    9.7260   -0.6450   22.3750 C   0  0  0  0  0  0  0  0  0  0  0  0
    8.8110    0.0870   21.5490 C   0  0  0  0  0  0  0  0  0  0  0  0
    9.0400    1.2720   21.2300 O   0  0  0  0  0  0  0  0  0  0  0  0
    7.6810   -0.6290   21.1710 N   0  0  0  0  0  0  0  0  0  0  0  0
    6.7060   -0.0870   20.1950 C   0  0  0  0  0  0  0  0  0  0  0  0
    6.9790   -0.2110   18.8400 C   0  0  0  0  0  0  0  0  0  0  0  0
    5.3630    0.6400   20.5680 C   0  0  0  0  0  0  0  0  0  0  0  0
    6.1720    0.2650   17.8600 N   0  0  0  0  0  0  0  0  0  0  0  0
    4.5170    1.1340   19.5140 C   0  0  0  0  0  0  0  0  0  0  0  0
    5.0110    0.9010   18.2220 C   0  0  0  0  0  0  0  0  0  0  0  0
    3.7880    1.5120   20.3350 N   0  0  0  0  0  0  0  0  0  0  0  0
  1  2  1  0
  2  3  2  0
  2  4  1  0
  4  5  1  0
  5  6  2  0
  5  7  1  0
  6  8  1  0
  7  9  2  0
  8 10  2  0
  9 10  1  0
  9 11  1  0
M  END
