DAN-LON-a5fc619e-3-bromoalkyne
     RDKit          3D

 20 21  0  0  0  0  0  0  0  0999 V2000
    6.7000   -3.6960   19.9030 C   0  0  0  0  0  0  0  0  0  0  0  0
    6.2330   -3.0280   18.8450 C   0  0  0  0  0  0  0  0  0  0  0  0
    6.8870   -3.0450   21.1090 N   0  0  0  0  0  0  0  0  0  0  0  0
    6.3790   -3.5000   22.4110 C   0  0  0  0  0  0  0  0  0  0  0  0
    7.5080   -1.7310   21.1710 C   0  0  0  0  0  0  0  0  0  0  0  0
    7.5750   -3.5680   23.3720 C   0  0  0  0  0  0  0  0  0  0  0  0
    8.6940   -1.7080   22.1590 C   0  0  2  0  0  0  0  0  0  0  0  0
    8.3260   -2.3000   23.4930 N   0  0  0  0  0  0  0  0  0  0  0  0
    9.2430   -0.2720   22.3520 C   0  0  0  0  0  0  0  0  0  0  0  0
    9.4710   -2.4350   24.4100 C   0  0  0  0  0  0  0  0  0  0  0  0
    8.2110    0.8380   22.6250 C   0  0  0  0  0  0  0  0  0  0  0  0
   10.6000   -1.5330   23.9670 C   0  0  0  0  0  0  0  0  0  0  0  0
    8.7220    2.2290   22.1710 C   0  0  0  0  0  0  0  0  0  0  0  0
    7.8910    0.9150   24.1250 C   0  0  0  0  0  0  0  0  0  0  0  0
   10.8560   -0.2910   24.5580 C   0  0  0  0  0  0  0  0  0  0  0  0
   11.4140   -1.9390   22.9230 C   0  0  0  0  0  0  0  0  0  0  0  0
   11.9050    0.5120   24.0960 C   0  0  0  0  0  0  0  0  0  0  0  0
   12.4390   -1.1350   22.4900 C   0  0  0  0  0  0  0  0  0  0  0  0
   12.7030    0.0980   23.0640 C   0  0  0  0  0  0  0  0  0  0  0  0
   13.3640   -1.7190   21.2030 Cl  0  0  0  0  0  0  0  0  0  0  0  0
  1  2  2  3
  1  3  1  0
  3  4  1  0
  3  5  1  0
  4  6  1  0
  5  7  1  0
  6  8  1  0
  7  8  1  0
  7  9  1  1
  8 10  1  0
  9 11  1  0
 10 12  1  0
 11 13  1  0
 11 14  1  0
 12 15  2  0
 12 16  1  0
 15 17  1  0
 16 18  2  0
 17 19  2  0
 18 19  1  0
 18 20  1  0
M  END
