DAN-LON-a5fc619e-3-chloroacetamide
     RDKit          3D

 21 22  0  0  0  0  0  0  0  0999 V2000
    7.2830   -3.0030   18.8870 C   0  0  0  0  0  0  0  0  0  0  0  0
    6.3700   -3.2400   19.8360 C   0  0  0  0  0  0  0  0  0  0  0  0
    5.5170   -4.1320   19.7450 O   0  0  0  0  0  0  0  0  0  0  0  0
    6.4140   -2.4050   20.9570 N   0  0  0  0  0  0  0  0  0  0  0  0
    7.3840   -1.3010   21.0010 C   0  0  0  0  0  0  0  0  0  0  0  0
    5.9390   -2.8800   22.2570 C   0  0  0  0  0  0  0  0  0  0  0  0
    8.5520   -1.7060   21.9040 C   0  0  0  0  0  0  0  0  0  0  0  0
    7.0630   -3.1560   23.2930 C   0  0  2  0  0  0  0  0  0  0  0  0
    8.1160   -2.1000   23.2480 N   0  0  0  0  0  0  0  0  0  0  0  0
    7.7200   -4.5270   23.0620 C   0  0  0  0  0  0  0  0  0  0  0  0
    9.2150   -2.2600   24.1900 C   0  0  0  0  0  0  0  0  0  0  0  0
    6.7520   -5.7300   23.1090 C   0  0  0  0  0  0  0  0  0  0  0  0
   10.4140   -1.4190   23.8200 C   0  0  0  0  0  0  0  0  0  0  0  0
    5.4510   -5.5600   22.2970 C   0  0  0  0  0  0  0  0  0  0  0  0
    7.4360   -6.9170   22.4700 C   0  0  0  0  0  0  0  0  0  0  0  0
   10.6740   -0.1950   24.4470 C   0  0  0  0  0  0  0  0  0  0  0  0
   11.2800   -1.8560   22.8310 C   0  0  0  0  0  0  0  0  0  0  0  0
   11.7840    0.5710   24.0760 C   0  0  0  0  0  0  0  0  0  0  0  0
   12.3670   -1.0840   22.4860 C   0  0  0  0  0  0  0  0  0  0  0  0
   12.6390    0.1320   23.0950 C   0  0  0  0  0  0  0  0  0  0  0  0
   13.3610   -1.6880   21.2610 Cl  0  0  0  0  0  0  0  0  0  0  0  0
  1  2  1  0
  2  3  2  0
  2  4  1  0
  4  5  1  0
  4  6  1  0
  5  7  1  0
  6  8  1  0
  7  9  1  0
  8  9  1  0
  8 10  1  6
  9 11  1  0
 10 12  1  0
 11 13  1  0
 12 14  1  0
 12 15  1  0
 13 16  2  0
 13 17  1  0
 16 18  1  0
 17 19  2  0
 18 20  2  0
 19 20  1  0
 19 21  1  0
M  END
