DAN-LON-a5fc619e-8-acrylamide
     RDKit          3D

 19 21  0  0  0  0  0  0  0  0999 V2000
    7.2820   -2.8310   18.2890 C   0  0  0  0  0  0  0  0  0  0  0  0
    6.4210   -2.2620   19.1150 C   0  0  0  0  0  0  0  0  0  0  0  0
    5.8600   -3.0890   20.2390 C   0  0  0  0  0  0  0  0  0  0  0  0
    5.2410   -4.1680   20.0730 O   0  0  0  0  0  0  0  0  0  0  0  0
    6.1100   -2.4550   21.4430 N   0  0  0  0  0  0  0  0  0  0  0  0
    7.0510   -1.3410   21.3750 C   0  0  0  0  0  0  0  0  0  0  0  0
    6.3330   -3.0570   22.8120 C   0  0  2  0  0  0  0  0  0  0  0  0
    7.5660   -1.3920   22.7560 C   0  0  1  0  0  0  0  0  0  0  0  0
    6.4370   -1.7940   23.6800 C   0  0  0  0  0  0  0  0  0  0  0  0
    7.5600   -3.7220   22.8210 C   0  0  0  0  0  0  0  0  0  0  0  0
    8.4820   -2.5220   22.9090 N   0  0  0  0  0  0  0  0  0  0  0  0
    9.3190   -2.4030   24.0880 C   0  0  0  0  0  0  0  0  0  0  0  0
   10.3910   -1.5710   23.7980 C   0  0  0  0  0  0  0  0  0  0  0  0
   10.5720   -0.3540   24.4990 C   0  0  0  0  0  0  0  0  0  0  0  0
   11.2840   -1.9580   22.7850 C   0  0  0  0  0  0  0  0  0  0  0  0
   11.7680    0.5520   24.1330 C   0  0  0  0  0  0  0  0  0  0  0  0
   12.3890   -1.2280   22.3770 C   0  0  0  0  0  0  0  0  0  0  0  0
   12.7080    0.1100   23.0460 C   0  0  0  0  0  0  0  0  0  0  0  0
   13.3460   -1.8470   21.1360 Cl  0  0  0  0  0  0  0  0  0  0  0  0
  1  2  1  0
  2  3  1  0
  3  4  2  0
  3  5  1  0
  5  6  1  0
  5  7  1  0
  8  6  1  6
  7  9  1  0
  8  9  1  0
  7 10  1  6
  8 11  1  0
 10 11  1  0
 11 12  1  0
 12 13  1  0
 13 14  2  0
 13 15  1  0
 14 16  1  0
 15 17  2  0
 16 18  2  0
 17 18  1  0
 17 19  1  0
M  END
