DAN-LON-a5fc619e-9-nitrile
     RDKit          3D

 21 23  0  0  0  0  0  0  0  0999 V2000
    7.0310   -3.4540   19.6980 C   0  0  0  0  0  0  0  0  0  0  0  0
    6.1190   -3.1690   18.8570 N   0  0  0  0  0  0  0  0  0  0  0  0
    7.0980   -2.8670   20.9350 N   0  0  0  0  0  0  0  0  0  0  0  0
    6.2950   -3.3290   22.0890 C   0  0  0  0  0  0  0  0  0  0  0  0
    7.9450   -1.6940   21.1990 C   0  0  0  0  0  0  0  0  0  0  0  0
    7.1040   -3.3520   23.4020 C   0  0  0  0  0  0  0  0  0  0  0  0
    7.6830   -1.1350   22.6080 C   0  0  1  0  0  0  0  0  0  0  0  0
    7.9940   -2.1980   23.6120 N   0  0  0  0  0  0  0  0  0  0  0  0
    8.2410    0.2940   22.8200 C   0  0  0  0  0  0  0  0  0  0  0  0
    9.3650   -2.7030   23.6990 C   0  0  0  0  0  0  0  0  0  0  0  0
    8.5180    0.9480   24.1720 C   0  0  0  0  0  0  0  0  0  0  0  0
    8.6250    1.3710   21.5180 S   0  0  0  0  0  0  0  0  0  0  0  0
   10.4730   -1.6680   23.5730 C   0  0  0  0  0  0  0  0  0  0  0  0
    9.0540    2.3530   24.0070 C   0  0  0  0  0  0  0  0  0  0  0  0
    9.1530    2.6800   22.5100 C   0  0  0  0  0  0  0  0  0  0  0  0
   10.6420   -0.4020   24.4010 C   0  0  0  0  0  0  0  0  0  0  0  0
   11.4040   -1.9210   22.6060 C   0  0  0  0  0  0  0  0  0  0  0  0
   11.7350    0.4340   24.1150 C   0  0  0  0  0  0  0  0  0  0  0  0
   12.4430   -1.0710   22.3860 C   0  0  0  0  0  0  0  0  0  0  0  0
   12.6410    0.0990   23.1090 C   0  0  0  0  0  0  0  0  0  0  0  0
   13.4740   -1.5570   21.1480 Cl  0  0  0  0  0  0  0  0  0  0  0  0
  1  2  2  3
  1  3  1  0
  3  4  1  0
  3  5  1  0
  4  6  1  0
  5  7  1  0
  6  8  1  0
  7  8  1  0
  7  9  1  1
  8 10  1  0
  9 11  2  0
  9 12  1  0
 10 13  1  0
 11 14  1  0
 12 15  1  0
 14 15  2  0
 13 16  2  0
 13 17  1  0
 16 18  1  0
 17 19  2  0
 18 20  2  0
 19 20  1  0
 19 21  1  0
M  END
