DAN-LON-a5fc619e-9-bromoalkyne
     RDKit          3D

 21 23  0  0  0  0  0  0  0  0999 V2000
    6.7780   -3.3820   19.5970 C   0  0  0  0  0  0  0  0  0  0  0  0
    5.9480   -2.8660   18.7210 C   0  0  0  0  0  0  0  0  0  0  0  0
    6.6920   -2.9410   20.9120 N   0  0  0  0  0  0  0  0  0  0  0  0
    6.4070   -3.7330   22.1130 C   0  0  0  0  0  0  0  0  0  0  0  0
    7.0360   -1.5490   21.1860 C   0  0  0  0  0  0  0  0  0  0  0  0
    7.5970   -3.6100   23.0840 C   0  0  0  0  0  0  0  0  0  0  0  0
    8.2610   -1.3930   22.1110 C   0  0  2  0  0  0  0  0  0  0  0  0
    8.1050   -2.2420   23.3220 N   0  0  0  0  0  0  0  0  0  0  0  0
    8.4140    0.0850   22.5530 C   0  0  0  0  0  0  0  0  0  0  0  0
    9.2410   -2.2520   24.2410 C   0  0  0  0  0  0  0  0  0  0  0  0
    8.4170    0.5030   24.0240 C   0  0  0  0  0  0  0  0  0  0  0  0
    8.5920    1.4320   21.4930 S   0  0  0  0  0  0  0  0  0  0  0  0
   10.4430   -1.4270   23.8340 C   0  0  0  0  0  0  0  0  0  0  0  0
    8.5860    2.0150   24.1380 C   0  0  0  0  0  0  0  0  0  0  0  0
    8.6950    2.6260   22.7350 C   0  0  0  0  0  0  0  0  0  0  0  0
   10.7350   -0.2070   24.4550 C   0  0  0  0  0  0  0  0  0  0  0  0
   11.2820   -1.8730   22.8290 C   0  0  0  0  0  0  0  0  0  0  0  0
   11.8470    0.5450   24.0600 C   0  0  0  0  0  0  0  0  0  0  0  0
   12.3730   -1.1190   22.4600 C   0  0  0  0  0  0  0  0  0  0  0  0
   12.6720    0.0950   23.0640 C   0  0  0  0  0  0  0  0  0  0  0  0
   13.3400   -1.7380   21.2200 Cl  0  0  0  0  0  0  0  0  0  0  0  0
  1  2  2  3
  1  3  1  0
  3  4  1  0
  3  5  1  0
  4  6  1  0
  5  7  1  0
  6  8  1  0
  7  8  1  0
  7  9  1  1
  8 10  1  0
  9 11  2  0
  9 12  1  0
 10 13  1  0
 11 14  1  0
 12 15  1  0
 14 15  2  0
 13 16  2  0
 13 17  1  0
 16 18  1  0
 17 19  2  0
 18 20  2  0
 19 20  1  0
 19 21  1  0
M  END
