DAN-LON-a5fc619e-7-chloroacetamide
     RDKit          3D

 24 25  0  0  0  0  0  0  0  0999 V2000
    7.0330   -2.9900   18.8790 C   0  0  0  0  0  0  0  0  0  0  0  0
    6.2090   -3.3050   19.8760 C   0  0  0  0  0  0  0  0  0  0  0  0
    5.3740   -4.2060   19.7730 O   0  0  0  0  0  0  0  0  0  0  0  0
    6.3270   -2.5830   21.0720 N   0  0  0  0  0  0  0  0  0  0  0  0
    6.1010   -3.2880   22.3540 C   0  0  0  0  0  0  0  0  0  0  0  0
    7.1940   -1.3810   21.1030 C   0  0  0  0  0  0  0  0  0  0  0  0
    7.4280   -3.4730   23.1120 C   0  0  0  0  0  0  0  0  0  0  0  0
    8.4450   -1.5610   21.9790 C   0  0  2  0  0  0  0  0  0  0  0  0
    8.1580   -2.2140   23.2760 N   0  0  0  0  0  0  0  0  0  0  0  0
    9.1500   -0.2140   22.2700 C   0  0  0  0  0  0  0  0  0  0  0  0
    9.2520   -2.2800   24.2400 C   0  0  0  0  0  0  0  0  0  0  0  0
   10.2970    0.0060   21.9270 O   0  0  0  0  0  0  0  0  0  0  0  0
    8.4040    0.7140   22.9580 N   0  0  0  0  0  0  0  0  0  0  0  0
   10.4720   -1.4810   23.8480 C   0  0  0  0  0  0  0  0  0  0  0  0
    8.8010    2.1200   23.1170 C   0  0  0  0  0  0  0  0  0  0  0  0
   10.7980   -0.2830   24.4950 C   0  0  0  0  0  0  0  0  0  0  0  0
   11.2940   -1.9220   22.8230 C   0  0  0  0  0  0  0  0  0  0  0  0
    8.4250    2.8460   21.8140 C   0  0  0  0  0  0  0  0  0  0  0  0
    8.0680    2.7600   24.2970 C   0  0  0  0  0  0  0  0  0  0  0  0
   10.3190    2.2970   23.3030 C   0  0  0  0  0  0  0  0  0  0  0  0
   11.9280    0.4480   24.1060 C   0  0  0  0  0  0  0  0  0  0  0  0
   12.4000   -1.1820   22.4620 C   0  0  0  0  0  0  0  0  0  0  0  0
   12.7340    0.0050   23.0920 C   0  0  0  0  0  0  0  0  0  0  0  0
   13.3360   -1.7910   21.1940 Cl  0  0  0  0  0  0  0  0  0  0  0  0
  1  2  1  0
  2  3  2  0
  2  4  1  0
  4  5  1  0
  4  6  1  0
  5  7  1  0
  6  8  1  0
  7  9  1  0
  8  9  1  0
  8 10  1  1
  9 11  1  0
 10 12  2  0
 10 13  1  0
 11 14  1  0
 15 13  1  0
 14 16  2  0
 14 17  1  0
 15 18  1  0
 15 19  1  0
 15 20  1  0
 16 21  1  0
 17 22  2  0
 21 23  2  0
 22 23  1  0
 22 24  1  0
M  END
