DAN-MCD-5c762fbe-1
     RDKit          3D

 21 22  0  0  0  0  0  0  0  0999 V2000
    8.0190   -2.3870   20.3640 C   0  0  0  0  0  0  0  0  0  0  0  0
    6.6620   -2.7270   20.8630 C   0  0  0  0  0  0  0  0  0  0  0  0
    5.9060   -1.8960   21.3550 O   0  0  0  0  0  0  0  0  0  0  0  0
    6.1210   -4.1570   20.7730 C   0  0  0  0  0  0  0  0  0  0  0  0
    5.4260   -4.4270   19.7990 O   0  0  0  0  0  0  0  0  0  0  0  0
    6.4550   -5.0390   21.7930 N   0  0  0  0  0  0  0  0  0  0  0  0
    7.2660   -4.6270   22.9370 C   0  0  0  0  0  0  0  0  0  0  0  0
    5.5940   -6.1930   22.0730 C   0  0  0  0  0  0  0  0  0  0  0  0
    6.3440   -4.3390   24.1170 C   0  0  0  0  0  0  0  0  0  0  0  0
    4.7070   -5.9500   23.1230 C   0  0  0  0  0  0  0  0  0  0  0  0
    5.4330   -5.4720   24.3520 N   0  0  0  0  0  0  0  0  0  0  0  0
    4.6340   -5.5770   25.8490 S   0  0  0  0  0  0  0  0  0  0  0  0
    5.5900   -5.2350   26.8760 O   0  0  0  0  0  0  0  0  0  0  0  0
    3.9350   -6.8420   25.8700 O   0  0  0  0  0  0  0  0  0  0  0  0
    3.4300   -4.2730   25.8150 C   0  0  0  0  0  0  0  0  0  0  0  0
    2.0620   -4.5990   25.7070 C   0  0  0  0  0  0  0  0  0  0  0  0
    3.8220   -2.9220   25.9000 C   0  0  0  0  0  0  0  0  0  0  0  0
    1.1090   -3.5970   25.6920 C   0  0  0  0  0  0  0  0  0  0  0  0
    2.8530   -1.9060   25.8840 C   0  0  0  0  0  0  0  0  0  0  0  0
    1.4970   -2.2320   25.7840 C   0  0  0  0  0  0  0  0  0  0  0  0
    3.2250   -0.6230   25.9690 F   0  0  0  0  0  0  0  0  0  0  0  0
  1  2  1  0
  2  3  2  0
  2  4  1  0
  4  5  2  0
  4  6  1  0
  6  7  1  0
  6  8  1  0
  7  9  1  0
  8 10  1  0
  9 11  1  0
 10 11  1  0
 11 12  1  0
 12 13  2  0
 12 14  2  0
 12 15  1  0
 15 16  2  0
 15 17  1  0
 16 18  1  0
 17 19  2  0
 18 20  2  0
 19 20  1  0
 19 21  1  0
M  END
