DAN-PUR-3907f623-3-bromoalkyne
     RDKit          3D

 16 17  0  0  0  0  0  0  0  0999 V2000
    6.6450   -4.4300   20.3970 C   0  0  0  0  0  0  0  0  0  0  0  0
    5.9230   -3.4620   19.4840 C   0  0  0  0  0  0  0  0  0  0  0  0
    6.4040   -4.4890   21.8150 N   0  0  0  0  0  0  0  0  0  0  0  0
    7.5050   -4.8830   22.6030 C   0  0  0  0  0  0  0  0  0  0  0  0
    5.1920   -4.9840   22.4690 C   0  0  1  0  0  0  0  0  0  0  0  0
    8.6590   -5.0330   23.3780 C   0  0  0  0  0  0  0  0  0  0  0  0
    7.6280   -3.4590   22.4600 C   0  0  0  0  0  0  0  0  0  0  0  0
    5.1680   -6.5020   22.3590 C   0  0  0  0  0  0  0  0  0  0  0  0
    4.9950   -4.6840   23.9860 C   0  0  0  0  0  0  0  0  0  0  0  0
    9.6030   -4.1080   23.8060 C   0  0  0  0  0  0  0  0  0  0  0  0
    8.4640   -2.4630   22.8380 N   0  0  0  0  0  0  0  0  0  0  0  0
    4.0050   -6.9280   23.2640 C   0  0  0  0  0  0  0  0  0  0  0  0
    3.7550   -5.8240   24.5670 S   0  0  0  0  0  0  0  0  0  0  0  0
    9.4890   -2.8180   23.5290 C   0  0  0  0  0  0  0  0  0  0  0  0
    4.2110   -6.4760   25.7740 O   0  0  0  0  0  0  0  0  0  0  0  0
    2.4420   -5.2330   24.4320 O   0  0  0  0  0  0  0  0  0  0  0  0
  1  2  2  3
  1  3  1  0
  3  4  1  0
  5  3  1  1
  4  6  2  0
  4  7  1  0
  5  8  1  0
  5  9  1  0
  6 10  1  0
  7 11  2  0
  8 12  1  0
 13  9  1  0
 12 13  1  0
 10 14  2  0
 11 14  1  0
 13 15  2  0
 13 16  2  0
M  END
